#------------------------------------------------------------------------------
#$Date: 2019-11-04 12:51:32 +0200 (Mon, 04 Nov 2019) $
#$Revision: 222794 $
#$URL: file:///home/coder/svn-repositories/cod/cif/4/03/42/4034251.cif $
#------------------------------------------------------------------------------
#
# This file is available in the Crystallography Open Database (COD),
# http://www.crystallography.net/
#
# All data on this site have been placed in the public domain by the
# contributors.
#
data_4034251
loop_
_publ_author_name
'Kaasik, Mikk'
'Metsala, Andrus'
'Kaabel, Sandra'
'Kriis, Kadri'
'J\"arving, Ivar'
'Kanger, T\~onis'
_publ_section_title
;
 Halo-1,2,3-triazolium Salts as Halogen Bond Donors for the Activation of
 Imines in Dihydropyridinone Synthesis.
;
_journal_issue                   7
_journal_name_full               'The Journal of organic chemistry'
_journal_page_first              4294
_journal_page_last               4303
_journal_paper_doi               10.1021/acs.joc.9b00248
_journal_volume                  84
_journal_year                    2019
_chemical_absolute_configuration ad
_chemical_formula_moiety         'C16 H14 Br N3'
_chemical_formula_sum            'C16 H14 Br N3'
_chemical_formula_weight         328.21
_space_group_crystal_system      monoclinic
_space_group_IT_number           4
_space_group_name_Hall           'P 2yb'
_space_group_name_H-M_alt        'P 1 21 1'
_atom_sites_solution_hydrogens   geom
_audit_creation_date             2018-10-01
_audit_creation_method
;
Olex2 1.2
(compiled 2018.05.29 svn.r3508 for OlexSys, GUI svn.r5506)
;
_cell_angle_alpha                90
_cell_angle_beta                 115.163(2)
_cell_angle_gamma                90
_cell_formula_units_Z            2
_cell_length_a                   10.2947(2)
_cell_length_b                   6.95930(10)
_cell_length_c                   11.0589(2)
_cell_measurement_reflns_used    13575
_cell_measurement_temperature    123.0
_cell_measurement_theta_max      67.3130
_cell_measurement_theta_min      4.4100
_cell_volume                     717.11(2)
_computing_cell_refinement       'CrysAlisPro 1.171.38.43 (Rigaku OD, 2015)'
_computing_data_collection
;
Rigaku CollectionStrategy through HKL-3000 program package
Minor, W., Cymborowski, M., Otwinowski, Z., Chruszcz, M. (2011) 
Acta Cryst. D62, 859-866
;
_computing_data_reduction        'CrysAlisPro 1.171.38.43 (Rigaku OD, 2015)'
_computing_molecular_graphics
;
Mercury CSD 3.10.1 (Macrae, C. F., et al. (2006). J. Appl. Cryst. 39, 453-457)
POV-Ray 3.7 (Persistence of Vision Pty. Ltd. (2004)) 
;
_computing_publication_material  'Olex2 (Dolomanov et al., 2009)'
_computing_structure_refinement  'ShelXL (Sheldrick, 2015)'
_computing_structure_solution    'ShelXT (Sheldrick, 2015)'
_diffrn_ambient_temperature      123.0
_diffrn_detector                 'CCD plate'
_diffrn_measured_fraction_theta_full 0.995
_diffrn_measured_fraction_theta_max 0.995
_diffrn_measurement_details
;
List of Runs (angles in degrees, time in seconds):

  # Type    Start    End  Width  t~exp~   \w     \q     \k     \f   Frames
--------------------------------------------------------------------------
  1  \w   -179.00   0.00   1.00   10.00    --  -90.00  60.00-108.00  179
  2  \w   -110.00  69.00   1.00   10.00    --  -21.00  60.00 -36.00  179
  3  \w   -179.00   0.00   1.00   10.00    --  -90.00  48.00  36.00  179
  4  \w   -179.00   0.00   1.00   10.00    --  -90.00  48.00 144.00  179
  5  \w   -179.00   0.00   1.00   10.00    --  -90.00  60.00 -36.00  179
  6  \w   -179.00   0.00   1.00   10.00    --  -90.00  12.00-144.00  179
  7  \w   -179.00   0.00   1.00   10.00    --  -90.00  60.00  72.00  179
  8  \w   -110.00  69.00   1.00   10.00    --  -21.00  60.00 108.00  179
  9  \w   -179.00   0.00   1.00   10.00    --  -90.00  60.00 -72.00  179
 10  \w   -179.00   0.00   1.00   10.00    --  -90.00  60.00   0.00  179
 11  \w   -179.00   0.00   1.00   10.00    --  -90.00  60.00-180.00  179
 12  \w   -179.00   0.00   1.00   10.00    --  -90.00  60.00 108.00  179
 13  \w   -179.00   0.00   1.00   10.00    --  -90.00  60.00-144.00  179
 14  \w   -110.00  69.00   1.00   10.00    --  -21.00  60.00-144.00  179
 15  \w   -179.00   0.00   1.00   10.00    --  -90.00  60.00 144.00  179
 16  \w   -179.00   0.00   1.00   10.00    --  -90.00  60.00  36.00  179
 17  \w   -179.00   0.00   1.00   10.00    --  -90.00  48.00 -36.00  179
;
_diffrn_measurement_device       'Rigaku Compact HomeLab'
_diffrn_measurement_device_type  'Rigaku Saturn944+ (2x2 bin mode)'
_diffrn_measurement_method       '\w scans'
_diffrn_orient_matrix_type
'CrysAlisPro convention (1999,Acta A55,543-557)'
_diffrn_orient_matrix_UB_11      -0.0056762000
_diffrn_orient_matrix_UB_12      -0.1812482000
_diffrn_orient_matrix_UB_13      -0.0820862000
_diffrn_orient_matrix_UB_21      -0.1425129000
_diffrn_orient_matrix_UB_22      -0.0586758000
_diffrn_orient_matrix_UB_23      0.0035773000
_diffrn_orient_matrix_UB_31      -0.0835177000
_diffrn_orient_matrix_UB_32      0.1127842000
_diffrn_orient_matrix_UB_33      -0.1302300000
_diffrn_radiation_monochromator  Confocal
_diffrn_radiation_probe          x-ray
_diffrn_radiation_type           CuK\a
_diffrn_radiation_wavelength     1.54184
_diffrn_reflns_av_R_equivalents  0.0461
_diffrn_reflns_av_unetI/netI     0.0275
_diffrn_reflns_Laue_measured_fraction_full 0.995
_diffrn_reflns_Laue_measured_fraction_max 0.995
_diffrn_reflns_limit_h_max       12
_diffrn_reflns_limit_h_min       -12
_diffrn_reflns_limit_k_max       8
_diffrn_reflns_limit_k_min       -8
_diffrn_reflns_limit_l_max       13
_diffrn_reflns_limit_l_min       -13
_diffrn_reflns_number            15481
_diffrn_reflns_point_group_measured_fraction_full 0.992
_diffrn_reflns_point_group_measured_fraction_max 0.991
_diffrn_reflns_theta_full        67.394
_diffrn_reflns_theta_max         67.394
_diffrn_reflns_theta_min         4.417
_diffrn_source                   'fine-focus sealed X-ray tube'
_diffrn_source_type              'Rigaku MicroMax-003'
_exptl_absorpt_coefficient_mu    3.839
_exptl_absorpt_correction_T_max  1.00000
_exptl_absorpt_correction_T_min  0.83263
_exptl_absorpt_correction_type   multi-scan
_exptl_absorpt_process_details
;
CrysAlisPro 1.171.38.43 (Rigaku Oxford Diffraction, 2015)
Empirical absorption correction using spherical harmonics,
 implemented in SCALE3 ABSPACK scaling algorithm.
;
_exptl_crystal_colour            colourless
_exptl_crystal_colour_primary    colourless
_exptl_crystal_density_diffrn    1.520
_exptl_crystal_description       plate
_exptl_crystal_F_000             332
_exptl_crystal_size_max          0.13
_exptl_crystal_size_mid          0.08
_exptl_crystal_size_min          0.03
_refine_diff_density_max         0.394
_refine_diff_density_min         -0.311
_refine_diff_density_rms         0.060
_refine_ls_abs_structure_details
;
 Classical Flack method preferred over Parsons because s.u. lower.
;
_refine_ls_abs_structure_Flack   -0.08(3)
_refine_ls_extinction_method     none
_refine_ls_goodness_of_fit_ref   1.041
_refine_ls_hydrogen_treatment    constr
_refine_ls_matrix_type           full
_refine_ls_number_parameters     182
_refine_ls_number_reflns         2559
_refine_ls_number_restraints     1
_refine_ls_restrained_S_all      1.041
_refine_ls_R_factor_all          0.0377
_refine_ls_R_factor_gt           0.0368
_refine_ls_shift/su_max          0.000
_refine_ls_shift/su_mean         0.000
_refine_ls_structure_factor_coef Fsqd
_refine_ls_weighting_details
'w=1/[\s^2^(Fo^2^)+(0.0657P)^2^+0.6390P] where P=(Fo^2^+2Fc^2^)/3'
_refine_ls_weighting_scheme      calc
_refine_ls_wR_factor_gt          0.0931
_refine_ls_wR_factor_ref         0.0935
_reflns_Friedel_coverage         0.828
_reflns_Friedel_fraction_full    0.988
_reflns_Friedel_fraction_max     0.987
_reflns_number_gt                2528
_reflns_number_total             2559
_reflns_threshold_expression     'I > 2\s(I)'
_cod_data_source_file            jo9b00248_si_005.cif
_cod_data_source_block           10-neutral
_cod_database_code               4034251
_shelx_shelxl_version_number     2016/6
_chemical_oxdiff_formula         'C16 H14 Br1 N3'
_shelx_space_group_comment
;
The symmetry employed for this shelxl refinement is uniquely defined
by the following loop, which should always be used as a source of
symmetry information in preference to the above space-group names.
They are only intended as comments.
;
_shelx_estimated_absorpt_t_max   0.894
_shelx_estimated_absorpt_t_min   0.635
_reflns_odcompleteness_completeness 99.50
_reflns_odcompleteness_iscentric 1
_reflns_odcompleteness_theta     67.28
_olex2_refinement_description
;
1. Fixed Uiso
 At 1.2 times of:
  All C(H) groups
 At 1.5 times of:
  All C(H,H,H) groups
2.a Ternary CH refined with riding coordinates:
 C9(H9)
2.b Aromatic/amide H refined with riding coordinates:
 C15(H15), C4(H4), C6(H6), C16(H16), C8(H8), C12(H12), C14(H14), C5(H5),
 C7(H7), C13(H13)
2.c Idealised Me refined as rotating group:
 C10(H10A,H10B,H10C)
;
_shelx_res_file
;
TITL jm024_outrej_freq_c.res in P2(1)
    jm024_outrej_freq.res
    created by SHELXL-2016/6 at 21:17:41 on 01-Oct-2018
REM Old TITL JM024_outrej_Freq in P2(1)
REM SHELXT solution in P2(1)
REM R1 0.074, Rweak 0.020, Alpha 0.055, Orientation as input
REM Flack x = -0.049 ( 0.034 ) from Parsons' quotients
REM Formula found by SHELXT: C11 N11 Br
CELL 1.54184 10.2947 6.9593 11.0589 90 115.163 90
ZERR 2 0.0002 0.0001 0.0002 0 0.002 0
LATT -1
SYMM -X,0.5+Y,-Z
SFAC C H Br N
UNIT 32 28 2 6

L.S. 10
PLAN  20
SIZE 0.08 0.03 0.13
TEMP -150.15
BOND $H
LIST 6
fmap 2
acta
REM <olex2.extras>
REM <HklSrc "%.\\JM024_outrej_Freq.hkl">
REM </olex2.extras>

WGHT    0.065700    0.639000
FVAR       1.11069
BR1   3    0.571593    0.552880    0.386105    11.00000    0.03402    0.01692 =
         0.02895   -0.00004    0.01496   -0.00095
N2    4    0.413991    0.023112    0.287701    11.00000    0.02885    0.02454 =
         0.03003   -0.00195    0.01249   -0.00028
C11   1    0.291467    0.420888    0.090694    11.00000    0.02654    0.03482 =
         0.02365    0.00197    0.01038   -0.00256
C15   1    0.354589    0.414852   -0.094969    11.00000    0.03592    0.05253 =
         0.03197   -0.00360    0.01677   -0.00487
AFIX  43
H15   2    0.393945    0.347970   -0.146537    11.00000   -1.20000
AFIX   0
C4    1    0.861855   -0.031344    0.507238    11.00000    0.03876    0.02470 =
         0.03454   -0.00309    0.01695    0.00194
AFIX  43
H4    2    0.821412   -0.122151    0.436890    11.00000   -1.20000
AFIX   0
C10   1    0.145389    0.196233    0.163621    11.00000    0.03065    0.03662 =
         0.04820    0.00997    0.01439    0.00196
AFIX 137
H10A  2    0.060345    0.268711    0.104696    11.00000   -1.50000
H10B  2    0.132783    0.151974    0.242085    11.00000   -1.50000
H10C  2    0.158226    0.085093    0.115370    11.00000   -1.50000
AFIX   0
C3    1    0.777621    0.116676    0.520516    11.00000    0.02973    0.02250 =
         0.02532    0.00378    0.01642   -0.00024
C2    1    0.626474    0.131349    0.423521    11.00000    0.03138    0.02119 =
         0.02910   -0.00187    0.01618   -0.00222
C9    1    0.277517    0.325415    0.208354    11.00000    0.02921    0.02316 =
         0.03321    0.00301    0.01510    0.00237
AFIX  13
H9    2    0.266525    0.429240    0.265825    11.00000   -1.20000
AFIX   0
C6    1    1.065496    0.088461    0.698612    11.00000    0.02925    0.03135 =
         0.03222    0.00336    0.01095    0.00312
AFIX  43
H6    2    1.164432    0.080803    0.757957    11.00000   -1.20000
AFIX   0
N3    4    0.546413   -0.027876    0.369183    11.00000    0.03614    0.01626 =
         0.03381   -0.00117    0.02042   -0.00052
C16   1    0.346464    0.323585    0.013052    11.00000    0.02863    0.03727 =
         0.03319   -0.00383    0.00961    0.00049
AFIX  43
H16   2    0.378476    0.194641    0.033947    11.00000   -1.20000
AFIX   0
C8    1    0.837088    0.248374    0.624348    11.00000    0.03402    0.02117 =
         0.03462   -0.00066    0.01569    0.00398
AFIX  43
H8    2    0.779578    0.348095    0.634651    11.00000   -1.20000
AFIX   0
N1    4    0.408669    0.217313    0.289313    11.00000    0.03234    0.02124 =
         0.02844    0.00308    0.01433    0.00299
C12   1    0.247704    0.610503    0.060442    11.00000    0.04124    0.03495 =
         0.03553    0.00678    0.01965    0.00993
AFIX  43
H12   2    0.211347    0.678467    0.113962    11.00000   -1.20000
AFIX   0
C14   1    0.307091    0.599162   -0.128731    11.00000    0.03249    0.06352 =
         0.03048    0.02036    0.01853    0.00306
AFIX  43
H14   2    0.308086    0.657395   -0.206028    11.00000   -1.20000
AFIX   0
C5    1    1.005229   -0.045491    0.597344    11.00000    0.03515    0.03712 =
         0.04119    0.00289    0.01470    0.01085
AFIX  43
H5    2    1.062276   -0.147722    0.589424    11.00000   -1.20000
AFIX   0
C7    1    0.981403    0.233345    0.713173    11.00000    0.03618    0.03179 =
         0.03232   -0.00137    0.01240   -0.00362
AFIX  43
H7    2    1.022208    0.323167    0.784118    11.00000   -1.20000
AFIX   0
C13   1    0.256706    0.701487   -0.047492    11.00000    0.05090    0.04126 =
         0.04258    0.01890    0.01950    0.00881
AFIX  43
H13   2    0.228968    0.832241   -0.066395    11.00000   -1.20000
AFIX   0
C1    1    0.539432    0.288871    0.372141    11.00000    0.03374    0.01985 =
         0.02695   -0.00017    0.01689   -0.00162
HKLF 4




REM  jm024_outrej_freq_c.res in P2(1)
REM R1 =  0.0368 for    2528 Fo > 4sig(Fo)  and  0.0377 for all    2559 data
REM    182 parameters refined using      1 restraints

END

WGHT      0.0657      0.6390

REM Highest difference peak  0.394,  deepest hole -0.311,  1-sigma level  0.060
Q1    1   0.5173  0.5555  0.2755  11.00000  0.05    0.39
Q2    1   0.6437  0.5512  0.4857  11.00000  0.05    0.34
Q3    1   0.5635  0.6092  0.5005  11.00000  0.05    0.28
Q4    1   0.3761  0.5464 -0.0958  11.00000  0.05    0.26
Q5    1   0.2846  0.6243 -0.0880  11.00000  0.05    0.25
Q6    1   0.2849  0.7675  0.2147  11.00000  0.05    0.23
Q7    1   0.5466  0.5074  0.4962  11.00000  0.05    0.23
Q8    1   0.2455  0.4083 -0.0466  11.00000  0.05    0.23
Q9    1   0.4595  0.0429  0.4223  11.00000  0.05    0.21
Q10   1   0.2235  0.2446  0.1873  11.00000  0.05    0.21
Q11   1   0.6653  0.6386  0.4114  11.00000  0.05    0.21
Q12   1   0.3637  0.6850 -0.1029  11.00000  0.05    0.19
Q13   1   0.4138  0.0546 -0.0101  11.00000  0.05    0.19
Q14   1   0.8675  0.1868  0.5178  11.00000  0.05    0.18
Q15   1   0.5372  0.4134  0.4173  11.00000  0.05    0.17
Q16   1   0.5228  0.2434 -0.1465  11.00000  0.05    0.17
Q17   1   0.2965  0.3920  0.1576  11.00000  0.05    0.17
Q18   1   0.6766  0.4718  0.4168  11.00000  0.05    0.17
Q19   1   0.2729  0.4772 -0.1012  11.00000  0.05    0.16
Q20   1   0.4031  0.4089 -0.0048  11.00000  0.05    0.16
;
_shelx_res_checksum              84265
_shelx_hkl_file
;
   0  -8   0  402.42   18.66
   0  -8   0  339.93   17.13
   0  -8   1   80.54    7.59
   0  -8  -1  127.29   10.45
   0  -8   1   55.47    8.37
   0  -8  -1   70.69    7.84
   0  -8   1  102.42    9.36
   0  -8   2    4.65    1.59
   0  -8   2    2.64    1.89
   0  -8  -2    7.67    2.41
   0  -8  -3  139.76    9.98
   0  -8   3  102.57    8.36
   0  -7   0    1.55    1.63
   0  -7   1  310.32   20.29
   0  -7  -1  330.28   20.67
   0  -7  -1  290.93   16.62
   0  -7  -2 1208.21   36.97
   0  -7   2 1156.18   38.84
   0  -7  -2 1212.75   38.94
   0  -7  -3  753.02   29.72
   0  -7   3  656.58   28.53
   0  -7  -3  688.28   25.89
   0  -7   4   64.05    8.34
   0  -7  -4   85.11    9.37
   0  -7  -4   66.61    7.65
   0  -7  -5  244.35   14.11
   0  -7  -5  263.59   15.59
   0  -7   5  214.25   14.07
   0  -7   6  312.87   14.77
   0  -7  -6  432.66   17.95
   0  -6   0  802.16   33.86
   0  -6   0  795.32   30.47
   0  -6  -1  277.21   19.44
   0  -6  -1  249.40   15.89
   0  -6  -1  258.09   17.15
   0  -6   1  244.05   16.83
   0  -6   1  270.23   19.43
   0  -6  -2   98.44   10.26
   0  -6  -2  102.84   10.84
   0  -6  -2  112.52   12.19
   0  -6   2   98.19   10.50
   0  -6  -2   87.21   10.15
   0  -6  -3  530.80   25.26
   0  -6  -3  531.89   24.66
   0  -6   3  491.48   23.86
   0  -6  -3  518.91   24.95
   0  -6  -3  528.59   26.56
   0  -6  -4  661.24   28.26
   0  -6  -4  665.09   28.25
   0  -6  -4  703.70   30.30
   0  -6  -5  302.36   19.04
   0  -6  -5  287.79   18.53
   0  -6  -5  329.43   20.25
   0  -6  -6  144.20   13.04
   0  -6  -6  135.12   12.13
   0  -6  -6  155.87   13.15
   0  -6  -7   11.49    3.50
   0  -6  -7    8.79    3.01
   0  -6  -7    4.77    2.45
   0  -6  -8  103.00    9.06
   0  -5   0    2.49    1.86
   0  -5   0    2.24    1.53
   0  -5   0    3.74    2.70
   0  -5   1 1060.92   30.43
   0  -5  -1 1037.84   35.24
   0  -5   1 1093.29   34.27
   0  -5  -1 1076.03   31.73
   0  -5  -1 1094.33   26.78
   0  -5  -1 1078.47   33.52
   0  -5  -2 1831.77   42.98
   0  -5  -2 1899.64   45.16
   0  -5  -2 1849.94   46.96
   0  -5   2 1774.91   46.22
   0  -5  -3 1111.59   35.44
   0  -5  -3 1067.52   34.23
   0  -5  -3 1076.76   36.08
   0  -5  -4  290.41   18.81
   0  -5  -4  280.46   17.14
   0  -5  -4  293.44   18.61
   0  -5  -4  300.66   18.90
   0  -5  -5  343.27   20.95
   0  -5  -5  319.01   19.96
   0  -5  -5  335.87   20.75
   0  -5  -6 1117.93   38.51
   0  -5  -6 1115.56   38.86
   0  -5  -6 1111.63   37.58
   0  -5  -7  758.83   31.69
   0  -5  -7  775.07   30.46
   0  -5  -7  795.30   31.81
   0  -5  -8  156.76   13.41
   0  -5  -8  154.14   12.32
   0  -5  -8  171.13   14.26
   0  -5  -9   18.26    3.71
   0  -5  -9    9.16    2.98
   0  -5  -9   17.11    4.13
   0  -4   0 1524.05   33.03
   0  -4   0 1559.98   27.91
   0  -4  -1 1826.19   40.55
   0  -4  -1 1813.31   36.80
   0  -4   1 1765.83   35.63
   0  -4  -1 1815.20   28.66
   0  -4   1 1818.59   32.96
   0  -4  -1 1900.83   39.63
   0  -4   2  284.27   13.60
   0  -4  -2  278.26   11.02
   0  -4  -2  282.73   15.51
   0  -4  -2  275.04   15.87
   0  -4  -2  266.98   14.54
   0  -4  -3 1316.66   34.17
   0  -4  -3 1348.60   23.73
   0  -4  -3 1387.28   35.75
   0  -4   3 1285.53   31.06
   0  -4  -3 1380.18   36.24
   0  -4  -4  969.66   28.92
   0  -4  -4 1015.23   32.50
   0  -4  -4 1012.43   32.21
   0  -4  -4  962.45   31.38
   0  -4  -5 1674.59   43.19
   0  -4  -5 1662.72   47.70
   0  -4  -5 1697.72   44.80
   0  -4  -5 1668.57   44.13
   0  -4  -6   31.01    6.15
   0  -4  -6   32.16    6.49
   0  -4  -6   34.54    6.49
   0  -4  -7   49.82    8.00
   0  -4  -7   53.61    8.61
   0  -4  -7   36.45    7.10
   0  -4  -8  699.26   31.52
   0  -4  -8  680.84   28.29
   0  -4  -8  666.78   30.16
   0  -4  -9  535.61   23.08
   0  -4  -9  584.45   27.13
   0  -4  -9  555.00   25.85
   0  -4 -10  124.59   10.83
   0  -4 -10  153.22   12.71
   0  -3   0    1.87    0.74
   0  -3   1 1306.25   22.74
   0  -3  -1 1315.43   20.22
   0  -3   2 1740.85   29.50
   0  -3   2 1700.57   15.91
   0  -3  -3 1897.60   36.51
   0  -3   3 1904.06   24.10
   0  -3  -3 2007.23   38.30
   0  -3  -3 1991.52   23.98
   0  -3  -3 2000.34   38.43
   0  -3  -4  247.00    8.47
   0  -3   4  268.08   12.75
   0  -3  -4  261.75   14.69
   0  -3   4  238.22   10.38
   0  -3  -4  248.18   14.06
   0  -3  -4  252.62   14.68
   0  -3  -4  240.20   16.01
   0  -3  -4  214.66   14.72
   0  -3  -5  165.14   13.61
   0  -3  -5  172.31   13.03
   0  -3   5  163.14    9.78
   0  -3  -5  195.06   13.50
   0  -3  -5  173.83   14.50
   0  -3   5  175.82   10.94
   0  -3  -5  175.47   13.21
   0  -3   5  170.94   10.14
   0  -3  -5  174.50   14.99
   0  -3  -6 1226.33   38.02
   0  -3  -6 1218.57   43.17
   0  -3  -6 1208.72   42.45
   0  -3  -6 1223.03   40.45
   0  -3  -6 1185.61   35.99
   0  -3  -6 1248.02   38.51
   0  -3  -7  492.05   28.70
   0  -3  -7  516.00   28.86
   0  -3  -7  531.09   26.64
   0  -3  -7  529.58   30.02
   0  -3  -7  515.68   25.03
   0  -3  -7  550.07   30.79
   0  -3  -7  531.61   26.89
   0  -3  -8  285.13   18.64
   0  -3  -8  304.59   20.91
   0  -3  -8  331.22   24.18
   0  -3  -8  302.58   23.31
   0  -3  -8  305.72   21.33
   0  -3  -8  283.23   22.64
   0  -3  -8  261.22   21.47
   0  -3  -9   31.35    5.96
   0  -3  -9   27.23    6.65
   0  -3  -9   24.03    5.73
   0  -3  -9   27.83    6.92
   0  -3  -9   35.47    7.19
   0  -3 -10  294.34   16.43
   0  -3 -10  266.85   19.79
   0  -3 -10  259.97   17.59
   0  -3 -11  251.10   15.53
   0  -3 -11  201.15   13.53
   0  -2   0 4585.01   32.02
   0  -2   1 4505.46   20.04
   0  -2  -1 4453.68   28.94
   0  -2   2  422.09    9.88
   0  -2  -2  402.72    8.65
   0  -2   2  416.85    8.88
   0  -2   3  301.50    9.63
   0  -2  -3  305.56    7.55
   0  -2  -4 2147.13   22.40
   0  -2   4 2161.48   30.48
   0  -2  -5  309.78   16.19
   0  -2   5  308.76   12.16
   0  -2  -5  297.53   18.69
   0  -2  -5  318.99   16.66
   0  -2  -5  309.23   19.25
   0  -2  -5  307.25   21.34
   0  -2  -5  279.20   18.56
   0  -2  -5  318.97    9.59
   0  -2   5  321.02   13.60
   0  -2  -5  298.09   15.55
   0  -2  -5  305.49   17.71
   0  -2  -6  388.44   20.12
   0  -2  -6  405.40   20.75
   0  -2   6  393.19   17.18
   0  -2  -6  404.08   24.11
   0  -2  -6  386.09   22.29
   0  -2   6  342.87   14.84
   0  -2  -6  381.19   23.04
   0  -2  -6  380.30   19.32
   0  -2  -6  374.05   23.90
   0  -2  -7  199.64   15.85
   0  -2  -7  225.35   16.82
   0  -2  -7  246.25   16.56
   0  -2  -7  203.96   18.40
   0  -2  -7  198.90   17.64
   0  -2  -7  211.22   18.93
   0  -2  -7  209.01   19.46
   0  -2  -8  605.20   34.76
   0  -2  -8  589.06   32.99
   0  -2  -8  611.49   33.02
   0  -2  -8  620.98   29.73
   0  -2  -8  652.60   30.43
   0  -2  -8  605.17   27.31
   0  -2  -8  625.68   34.48
   0  -2  -9  905.16   36.97
   0  -2  -9  916.27   39.96
   0  -2  -9  853.94   35.92
   0  -2  -9  820.64   40.52
   0  -2  -9  819.59   40.96
   0  -2  -9  856.21   32.38
   0  -2  -9  847.93   40.07
   0  -2 -10  236.08   19.70
   0  -2 -10  182.70   15.79
   0  -2 -10  226.15   15.38
   0  -2 -10  268.18   19.43
   0  -2 -10  214.00   19.97
   0  -2 -10  210.33   19.30
   0  -2 -11   51.56    7.76
   0  -2 -11   33.18    6.70
   0  -2 -11   36.06    7.49
   0  -2 -11   40.25    6.77
   0  -1   0    0.61    0.29
   0  -1   0   -0.09    0.26
   0  -1   1 1131.13   14.39
   0  -1   1 1228.54   10.82
   0  -1   1 1127.68   14.14
   0  -1   1 1182.24   11.78
   0  -1  -1 1081.20   14.68
   0  -1  -1 1163.81   10.24
   0  -1   2 6271.22   37.89
   0  -1  -2 6446.40   38.07
   0  -1   3 2413.15   27.01
   0  -1  -3 2459.83   19.63
   0  -1   4  252.45   10.26
   0  -1  -4  263.92    7.56
   0  -1  -5   74.57    7.53
   0  -1   5  102.46    7.53
   0  -1  -5   96.34   10.41
   0  -1  -5   88.19    9.59
   0  -1  -5   86.79    8.19
   0  -1  -5   90.90   11.01
   0  -1  -5   81.06    9.98
   0  -1  -5   98.50    9.84
   0  -1   5   72.53    5.84
   0  -1  -5   98.62    5.37
   0  -1  -6 1878.89   43.22
   0  -1  -6 1806.16   50.42
   0  -1  -6 1737.11   41.21
   0  -1  -6 1664.95   50.14
   0  -1  -6 1794.76   54.83
   0  -1  -6 1766.83   48.14
   0  -1   6 1709.61   27.94
   0  -1   6 1766.19   35.83
   0  -1  -6 1679.09   46.50
   0  -1  -6 1825.52   40.90
   0  -1  -7  876.87   32.59
   0  -1  -7  900.04   41.50
   0  -1  -7  849.25   35.97
   0  -1  -7  838.36   30.11
   0  -1  -7  826.74   36.49
   0  -1  -7  885.19   38.54
   0  -1  -7  859.82   32.13
   0  -1  -7  805.40   38.51
   0  -1  -8  109.35   14.57
   0  -1  -8  124.87   12.43
   0  -1  -8  122.45   15.93
   0  -1  -8  118.50   14.06
   0  -1  -8  130.81   15.62
   0  -1  -8  108.86   14.97
   0  -1  -8  128.82   13.47
   0  -1  -8  134.87   13.86
   0  -1  -9    5.13    3.52
   0  -1  -9    5.06    3.14
   0  -1  -9    6.97    3.79
   0  -1  -9    6.75    3.10
   0  -1  -9    4.84    3.09
   0  -1  -9    9.41    3.68
   0  -1  -9    5.49    2.92
   0  -1 -10  473.98   28.86
   0  -1 -10  500.59   27.27
   0  -1 -10  459.09   30.34
   0  -1 -10  435.50   30.00
   0  -1 -10  472.35   26.34
   0  -1 -10  531.22   28.18
   0  -1 -10  468.04   23.65
   0  -1 -11  420.33   22.74
   0  -1 -11  434.19   26.83
   0  -1 -11  447.14   26.27
   0  -1 -11  448.01   23.86
   0   0   1 2901.72   18.45
   0   0  -2  249.81    5.49
   0   0   2  252.45    7.96
   0   0   2  265.27    5.69
   0   0   3 3620.05   26.77
   0   0   3 3417.07   31.70
   0   0   3 3578.34   26.14
   0   0  -3 3434.83   25.52
   0   0   4 4100.38   41.49
   0   0  -4 3836.93   32.30
   0   0  -5  720.63   27.67
   0   0  -5  702.56   29.29
   0   0   5  732.60   20.08
   0   0  -5  714.21   16.12
   0   0   5  791.91   18.09
   0   0  -6  606.76   24.72
   0   0  -6  538.26   26.97
   0   0  -6  540.93   23.05
   0   0  -6  552.68   22.84
   0   0  -6  554.53   27.30
   0   0  -6  542.46   16.80
   0   0  -6  540.89   28.62
   0   0  -6  500.31   24.03
   0   0  -6  533.08   29.53
   0   0   6  563.16   20.10
   0   0   7  111.49   10.11
   0   0  -7  100.91   11.84
   0   0  -7  103.56   13.34
   0   0  -7  111.29   11.58
   0   0  -7   99.88   13.69
   0   0  -7  109.89   13.79
   0   0  -7  104.50   11.38
   0   0  -7   93.86   12.26
   0   0  -7  101.31   10.46
   0   0  -8 1006.37   42.61
   0   0  -8 1004.76   36.01
   0   0  -8 1052.72   39.55
   0   0  -8  977.51   38.70
   0   0  -8 1003.37   44.94
   0   0  -8 1026.44   46.43
   0   0  -8 1072.05   39.70
   0   0  -8 1027.89   45.39
   0   0  -9 1720.82   51.76
   0   0  -9 1672.24   51.29
   0   0  -9 1614.33   55.25
   0   0  -9 1724.46   61.76
   0   0  -9 1670.33   47.82
   0   0  -9 1797.03   59.38
   0   0  -9 1720.81   62.37
   0   0  -9 1664.69   51.70
   0   0 -10  778.91   34.85
   0   0 -10  767.24   34.57
   0   0 -10  809.35   36.91
   0   0 -10  862.96   34.30
   0   0 -10  743.99   39.44
   0   0 -10  735.14   30.49
   0   0  10  715.03   29.80
   0   0 -10  750.07   40.30
   0   0 -11   12.01    3.97
   0   0 -11   15.60    4.57
   0   0 -11   17.90    5.40
   0   0 -11    8.26    3.80
   0   0  11    8.68    3.41
   0   0 -11   10.98    4.43
   0   1   0   -0.13    0.17
   0   1   0    0.78    0.33
   0   1   1 1029.74   12.72
   0   1   1  989.48   10.35
   0   1  -1  995.13   13.64
   0   1   1 1005.14   10.65
   0   1   1  996.46    9.62
   0   1   2 5669.64   26.87
   0   1   2 5611.94   37.51
   0   1   3 2361.53   26.63
   0   1  -3 2460.20   28.04
   0   1  -4  219.38    9.80
   0   1   4  227.24    9.71
   0   1  -5  110.59   11.63
   0   1   5  118.06    7.61
   0   1  -5  106.23    7.79
   0   1  -5  122.96   11.82
   0   1   5  125.85    8.42
   0   1  -5  119.45   10.30
   0   1  -6 1590.25   50.46
   0   1  -6 1653.14   32.51
   0   1  -6 1639.11   46.85
   0   1  -6 1576.09   48.79
   0   1  -6 1602.11   37.98
   0   1  -6 1633.73   48.61
   0   1  -6 1708.59   44.47
   0   1  -6 1644.68   42.01
   0   1  -6 1517.91   40.52
   0   1   6 1752.02   35.39
   0   1   6 1859.87   32.50
   0   1  -6 1729.98   43.87
   0   1  -7  859.34   34.08
   0   1  -7  843.57   36.17
   0   1  -7  910.36   35.76
   0   1  -7  845.56   32.58
   0   1  -7  825.57   38.60
   0   1   7  941.07   29.25
   0   1  -7  815.53   38.42
   0   1  -7  850.10   38.89
   0   1  -7  834.54   32.28
   0   1  -8   98.48   11.84
   0   1  -8  100.00   12.59
   0   1  -8  100.59   14.05
   0   1  -8   85.61   12.73
   0   1  -8   95.94   12.16
   0   1  -8  100.00   13.28
   0   1  -8   88.34   13.59
   0   1  -8  106.81   12.29
   0   1  -9    3.87    3.96
   0   1   9    7.78    3.35
   0   1  -9    5.61    3.45
   0   1  -9    8.80    3.60
   0   1  -9    3.93    3.04
   0   1  -9    7.18    3.90
   0   1  -9    5.53    4.06
   0   1  -9    4.24    3.20
   0   1  10  452.12   24.63
   0   1 -10  464.30   27.30
   0   1 -10  429.04   23.49
   0   1 -10  504.20   32.76
   0   1 -10  481.41   27.38
   0   1 -10  438.41   26.37
   0   1 -10  496.64   31.30
   0   1  11  412.39   23.32
   0   1 -11  428.54   26.67
   0   1 -11  463.59   26.31
   0   1 -11  430.77   22.04
   0   1 -11  377.52   21.57
   0   2   0 5066.69   38.34
   0   2   1 4456.50   33.00
   0   2  -1 4517.86   37.38
   0   2   2  365.48    8.10
   0   2   2  372.12   11.34
   0   2   2  370.78    9.10
   0   2   2  392.93    9.83
   0   2  -2  391.53   12.02
   0   2   3  332.95   11.47
   0   2   3  328.12    9.78
   0   2  -3  344.88   13.12
   0   2   4 1963.19   30.23
   0   2   4 2052.95   28.96
   0   2  -5  233.60   15.82
   0   2   5  251.51   25.56
   0   2  -5  246.66   16.35
   0   2  -5  249.43   17.62
   0   2  -5  252.61   18.38
   0   2  -5  250.31   15.73
   0   2   5  276.66   12.46
   0   2  -5  229.21   15.33
   0   2   5  279.46   12.66
   0   2  -5  215.03   16.25
   0   2  -5  259.90   17.03
   0   2  -5  231.18   15.54
   0   2  -6  298.67   19.71
   0   2   6  305.31   14.35
   0   2  -6  340.16   22.74
   0   2  -6  332.78   19.45
   0   2  -6  331.52   20.99
   0   2  -6  361.07   24.26
   0   2  -6  308.12   20.98
   0   2   6  371.77   16.86
   0   2  -6  326.25   20.63
   0   2  -6  340.42   19.47
   0   2  -7  159.43   15.74
   0   2  -7  152.47   16.07
   0   2  -7  167.73   17.31
   0   2  -7  160.81   15.21
   0   2  -7  154.06   13.74
   0   2   7  171.16   16.04
   0   2  -7  156.89   17.25
   0   2  -7  154.34   15.01
   0   2  -8  476.08   28.77
   0   2  -8  502.67   28.12
   0   2  -8  501.53   31.22
   0   2  -8  486.81   28.63
   0   2  -8  501.39   32.34
   0   2  -8  457.01   26.67
   0   2  -8  467.29   24.65
   0   2   8  560.08   30.22
   0   2  -9  909.47   44.60
   0   2  -9  862.40   40.97
   0   2  -9  817.94   38.07
   0   2   9  843.51   36.99
   0   2  -9  788.16   34.12
   0   2  -9  804.04   37.00
   0   2  -9  833.83   35.45
   0   2 -10  202.35   19.59
   0   2  10  176.95   15.66
   0   2 -10  173.44   15.86
   0   2 -10  171.40   14.61
   0   2 -10  177.06   14.74
   0   2 -10  191.43   17.70
   0   2 -11   26.41    5.36
   0   2  11   28.61    6.10
   0   2  11   34.43    6.87
   0   2  11   27.58    5.13
   0   2 -11   39.87    7.64
   0   2 -11   35.81    6.89
   0   3   0    0.95    0.48
   0   3  -1 1406.23   26.25
   0   3   1 1335.03   25.79
   0   3   2 1894.71   31.06
   0   3  -2 1965.48   32.83
   0   3  -3 1727.30   42.04
   0   3   3 1809.29   22.32
   0   3  -3 1686.52   40.67
   0   3  -3 1746.80   33.40
   0   3   3 1803.69   32.12
   0   3   3 1676.38   40.10
   0   3  -3 1625.34   46.61
   0   3  -3 1699.72   42.48
   0   3  -3 1730.21   43.15
   0   3   3 1780.93   68.80
   0   3  -4  164.82   11.45
   0   3   4  198.53   11.41
   0   3   4  214.01    9.42
   0   3  -4  167.26   15.89
   0   3  -4  189.33   15.64
   0   3   4  189.12   12.59
   0   3  -4  185.66   15.15
   0   3  -4  188.30   14.43
   0   3   4  178.57   14.02
   0   3  -4  195.55   15.17
   0   3  -4  196.26   14.89
   0   3   4  195.59   23.46
   0   3  -4  186.00   14.87
   0   3  -5  152.40   14.07
   0   3  -5  175.80   16.38
   0   3  -5  130.53   13.92
   0   3  -5  163.62   14.31
   0   3  -5  146.86   13.64
   0   3   5  174.65   15.18
   0   3  -5  129.14   14.67
   0   3  -5  152.69   14.37
   0   3   5  172.45   12.60
   0   3  -5  154.06   14.32
   0   3  -5  158.29   16.16
   0   3   5  170.55   11.32
   0   3   5  162.33   24.08
   0   3   6 1191.14   42.37
   0   3  -6 1101.98   39.76
   0   3  -6 1159.67   45.61
   0   3  -6 1033.17   42.10
   0   3  -6 1084.92   39.70
   0   3  -6 1162.84   40.49
   0   3   6 1267.77   35.66
   0   3  -6 1089.84   43.20
   0   3  -6 1078.33   41.01
   0   3  -6 1214.33   42.54
   0   3   6 1243.81   70.61
   0   3  -6 1056.75   39.69
   0   3   7  436.84   27.07
   0   3   7  445.77   44.95
   0   3  -7  370.17   23.37
   0   3  -7  366.99   24.86
   0   3  -7  408.21   26.05
   0   3  -7  367.12   24.34
   0   3  -7  398.94   24.68
   0   3  -7  435.85   29.37
   0   3  -8  205.39   18.66
   0   3  -8  223.37   21.59
   0   3  -8  213.97   17.19
   0   3   8  265.65   21.50
   0   3  -8  197.57   17.84
   0   3  -8  234.97   20.30
   0   3  -9   26.13    6.50
   0   3  -9   20.60    6.22
   0   3   9   31.92    7.27
   0   3   9   27.87    7.16
   0   3  -9   23.58    5.93
   0   3  -9   30.26    7.36
   0   3  10  285.81   19.16
   0   3 -10  256.74   16.39
   0   3  10  295.04   21.19
   0   3 -10  294.37   21.03
   0   3 -10  260.59   17.68
   0   3  11  229.68   15.40
   0   3  11  262.45   16.98
   0   4   0 1327.97   35.88
   0   4   0 1388.60   37.48
   0   4   0 1297.35   35.67
   0   4   0 1187.14   35.95
   0   4   0 1371.03   39.54
   0   4   0 1345.12   38.01
   0   4   0 1382.66   62.30
   0   4   0 1454.32   48.56
   0   4   0 1560.40   33.42
   0   4  -1 1479.42   39.61
   0   4   1 1460.68   66.93
   0   4   1 1507.29   38.68
   0   4  -1 1302.89   37.33
   0   4  -1 1398.32   60.81
   0   4   1 1383.57   40.00
   0   4  -1 1506.78   42.25
   0   4   1 1437.21   38.21
   0   4  -1 1525.91   50.13
   0   4  -1 1478.81   39.73
   0   4   1 1559.24   49.67
   0   4   1 1501.24   37.24
   0   4  -1 1594.34   34.15
   0   4  -1 1405.14   37.62
   0   4   1 1573.84   34.16
   0   4  -1 1471.80   41.19
   0   4   2  230.01   19.95
   0   4   2  266.62   14.44
   0   4  -2  260.10   17.55
   0   4  -2  229.64   16.76
   0   4   2  243.02   16.91
   0   4  -2  278.44   17.95
   0   4  -2  277.36   14.59
   0   4   2  254.15   16.43
   0   4  -2  276.02   22.00
   0   4  -2  247.13   16.05
   0   4   2  283.49   30.57
   0   4  -2  254.77   16.82
   0   4  -2  243.20   17.40
   0   4   2  259.05   16.11
   0   4  -2  263.11   18.22
   0   4   3 1132.59   34.69
   0   4   3 1224.76   31.89
   0   4  -3 1169.79   38.90
   0   4   3 1071.31   42.36
   0   4   3 1107.57   36.71
   0   4   3 1013.21   34.42
   0   4  -3 1125.78   39.17
   0   4  -3 1113.83   45.42
   0   4  -3 1040.12   30.10
   0   4  -3  935.60   36.00
   0   4  -3 1084.39   37.55
   0   4  -3 1128.21   40.01
   0   4  -3 1123.95   38.88
   0   4   3 1193.29   66.15
   0   4  -4  803.81   34.73
   0   4   4  923.18   62.38
   0   4  -4  859.48   35.44
   0   4  -4  837.80   36.07
   0   4  -4  899.71   35.88
   0   4   4  878.30   28.58
   0   4  -4  830.49   35.38
   0   4  -4  812.33   39.16
   0   4   4  855.82   30.91
   0   4  -4  851.02   35.52
   0   4   4  851.48   34.16
   0   4  -5 1407.51   47.48
   0   4   5 1640.70   88.76
   0   4  -5 1510.19   50.58
   0   4   5 1512.67   42.22
   0   4  -5 1387.39   52.51
   0   4  -5 1467.07   47.88
   0   4  -5 1335.25   47.03
   0   4  -5 1393.30   50.89
   0   4   5 1383.79   46.28
   0   4  -5 1440.64   47.57
   0   4   5 1427.93   45.65
   0   4  -6   39.19    9.04
   0   4  -6   43.89    8.48
   0   4   6   48.91    9.00
   0   4  -6   30.37    8.59
   0   4   6   33.63    7.58
   0   4  -6   54.97    9.70
   0   4   6   35.30   13.81
   0   4  -6   41.59    8.56
   0   4  -6   31.86    7.24
   0   4  -6   40.62    8.38
   0   4   6   41.62    7.02
   0   4  -7   36.72    7.80
   0   4  -7   28.57    7.23
   0   4   7   35.12    7.98
   0   4   7   59.29   19.24
   0   4  -7   26.55    6.72
   0   4  -7   41.57    8.55
   0   4  -7   23.97    7.01
   0   4  -7   31.81    7.26
   0   4   7   42.82    8.99
   0   4  -8  536.30   28.33
   0   4  -8  476.50   25.97
   0   4   8  574.55   31.08
   0   4  -8  519.83   28.28
   0   4   8  621.09   34.24
   0   4   8  589.20   31.80
   0   4  -8  520.57   28.83
   0   4   9  408.70   24.54
   0   4   9  450.43   27.23
   0   4  -9  343.64   20.79
   0   4  -9  386.08   21.46
   0   4  -9  311.23   17.68
   0   4   9  420.58   24.89
   0   4  10  110.28   10.90
   0   4  10   96.97   10.12
   0   5   0   -0.83    0.51
   0   5   0    0.91    1.30
   0   5   0    0.74    1.95
   0   5   0    1.91    5.14
   0   5   0    1.64    2.66
   0   5   0    2.46    2.99
   0   5   0    3.08    2.80
   0   5   1  987.46   65.57
   0   5  -1  907.31   37.41
   0   5   1  944.11   37.97
   0   5  -1  948.68   38.34
   0   5  -1 1005.94   46.78
   0   5   1  973.82   45.52
   0   5   1  966.18   34.66
   0   5  -1  953.77   60.29
   0   5  -1  928.22   36.23
   0   5   1  908.88   34.44
   0   5  -1  925.83   34.57
   0   5  -1  972.75   37.58
   0   5  -1  930.25   38.46
   0   5   1  936.90   35.92
   0   5  -2 1595.63   50.48
   0   5  -2 1538.03   48.57
   0   5   2 1627.79   58.46
   0   5  -2 1609.62   52.63
   0   5   2 1674.83   90.13
   0   5  -2 1628.33   60.68
   0   5   2 1516.40   47.40
   0   5   2 1625.80   47.44
   0   5  -2 1474.21   48.50
   0   5  -2 1583.83   49.06
   0   5   2 1710.77   45.19
   0   5   2 1556.84   46.86
   0   5  -3  959.08   37.72
   0   5  -3  891.14   38.34
   0   5  -3  791.22   35.28
   0   5   3  876.62   35.42
   0   5  -3  875.20   38.26
   0   5   3  925.88   69.27
   0   5  -3  873.62   45.09
   0   5   3  871.99   36.25
   0   5  -3  885.50   40.55
   0   5  -4  223.60   19.45
   0   5   4  212.12   17.70
   0   5   4  233.04   36.05
   0   5   4  212.43   18.58
   0   5  -4  232.82   20.39
   0   5  -4  188.15   21.27
   0   5  -4  228.92   20.53
   0   5  -4  204.56   18.64
   0   5  -4  231.16   20.63
   0   5  -4  229.41   18.67
   0   5   5  257.83   19.06
   0   5  -5  251.86   19.87
   0   5   5  266.95   21.40
   0   5  -5  264.02   22.81
   0   5  -5  256.76   21.75
   0   5   5  252.85   19.72
   0   5  -5  238.18   20.31
   0   5  -5  226.55   21.59
   0   5  -5  210.13   19.39
   0   5   5  286.94   41.12
   0   5  -5  234.17   22.89
   0   5  -6  852.25   36.16
   0   5   6  975.74   40.03
   0   5  -6  865.63   43.15
   0   5   6  921.79   40.51
   0   5  -6  947.00   42.96
   0   5  -6  907.29   40.63
   0   5   6  944.36   35.29
   0   5  -6  850.71   43.19
   0   5  -6  837.94   37.44
   0   5  -6  784.93   36.04
   0   5   6 1045.18   79.07
   0   5  -7  527.90   28.33
   0   5  -7  556.55   30.03
   0   5   7  643.48   32.06
   0   5  -7  517.34   26.75
   0   5   7  634.68   32.87
   0   5   7  665.28   62.34
   0   5  -7  500.11   27.02
   0   5  -7  500.65   30.34
   0   5  -7  580.57   32.62
   0   5   8  113.30   22.75
   0   5   8  157.86   14.91
   0   5  -8  133.20   13.76
   0   5  -8  110.66   11.61
   0   5  -8  128.49   12.59
   0   5   8  155.19   15.26
   0   5   9   11.38    3.45
   0   5   9   14.94    4.63
   0   6   0  678.32   36.88
   0   6   0  786.97   64.50
   0   6   0  748.21   36.01
   0   6   0  735.52   34.35
   0   6   0  754.50   44.98
   0   6   0  710.40   32.42
   0   6   0  754.56   37.41
   0   6   1  253.24   21.23
   0   6   1  259.66   21.11
   0   6  -1  238.26   20.39
   0   6   1  221.88   18.18
   0   6   1  256.82   37.52
   0   6  -1  265.70   26.64
   0   6  -1  259.42   20.94
   0   6  -1  226.90   21.06
   0   6  -1  266.27   22.59
   0   6   1  254.15   25.80
   0   6   1  257.79   19.97
   0   6  -2   63.91   13.14
   0   6   2   88.25   22.94
   0   6   2   98.29   12.20
   0   6  -2   85.16   12.90
   0   6  -2   91.52   12.72
   0   6   2   85.68   14.87
   0   6  -2   96.55   12.85
   0   6  -2   95.04   13.63
   0   6   2   98.93   12.90
   0   6  -2   92.37   12.73
   0   6  -3  454.06   29.57
   0   6  -3  441.72   30.33
   0   6  -3  398.94   27.72
   0   6   3  435.85   27.16
   0   6  -3  461.74   29.88
   0   6  -3  438.62   28.24
   0   6   3  421.65   25.95
   0   6  -3  439.14   34.18
   0   6   3  481.47   54.87
   0   6   4  700.98   67.31
   0   6  -4  657.05   35.58
   0   6  -4  534.08   32.55
   0   6   4  642.25   32.62
   0   6  -4  566.99   35.51
   0   6  -4  583.00   39.10
   0   6   4  625.10   31.17
   0   6  -4  625.89   32.93
   0   6  -4  684.38   36.58
   0   6  -5  176.75   18.85
   0   6  -5  196.81   19.31
   0   6  -5  182.22   17.06
   0   6  -5  174.73   18.16
   0   6  -5  174.17   20.25
   0   6   5  232.41   38.41
   0   6   5  194.37   17.67
   0   6  -5  172.55   19.47
   0   6   5  226.60   17.79
   0   6  -6  121.39   12.79
   0   6  -6   98.28   13.92
   0   6  -6  125.48   14.27
   0   6   6  130.39   12.22
   0   6   6  118.02   26.96
   0   6  -6  133.34   15.54
   0   6   6  128.91   14.23
   0   6  -6  134.60   14.86
   0   6  -7   15.09    4.20
   0   6  -7   14.82    4.82
   0   6  -7    7.38    4.08
   0   6  -7    9.19    3.58
   0   6  -7   11.27    3.93
   0   6   7   21.02   12.99
   0   6   7   12.57    4.40
   0   6   8  116.96   10.94
   0   6  -8   70.84    8.09
   0   7   0    3.16    3.10
   0   7   0    1.61    2.56
   0   7   0    1.65    2.30
   0   7   1  275.90   25.65
   0   7   1  302.08   40.72
   0   7  -1  289.55   22.89
   0   7  -1  301.49   23.08
   0   7   1  293.29   22.43
   0   7  -1  237.73   20.96
   0   7   1  301.86   20.38
   0   7   1  296.54   20.73
   0   7  -1  280.80   26.71
   0   7  -1  271.76   21.42
   0   7   2 1035.68   41.70
   0   7  -2  982.43   43.07
   0   7  -2  999.79   43.55
   0   7   2 1076.17   38.91
   0   7  -2 1078.64   44.64
   0   7  -2 1013.75   50.29
   0   7  -2  985.23   41.85
   0   7   2 1079.02   79.12
   0   7  -3  520.31   30.74
   0   7  -3  607.44   33.15
   0   7  -3  552.69   30.66
   0   7   3  568.27   29.32
   0   7  -3  598.08   37.50
   0   7   3  678.29   62.95
   0   7  -3  533.40   30.93
   0   7   3  607.19   28.97
   0   7  -4   43.78    8.31
   0   7   4   54.66    8.37
   0   7  -4   59.28    9.65
   0   7   4   55.65    8.33
   0   7  -4   56.58   10.04
   0   7  -4   46.39    8.97
   0   7   4   72.48   20.92
   0   7  -4   38.26    8.75
   0   7  -5  155.75   15.09
   0   7  -5  165.65   15.25
   0   7  -5  179.67   16.72
   0   7  -5  192.85   16.51
   0   7   5  176.45   14.01
   0   7   5  199.42   15.35
   0   7  -5  164.61   16.16
   0   7   5  181.65   31.62
   0   7  -6  249.27   16.79
   0   7   6  339.80   39.57
   0   7  -6  265.01   18.67
   0   7   6  346.78   18.58
   0   7  -6  328.44   19.05
   0   8   0  392.38   23.02
   0   8   1   76.47    9.90
   0   8  -1   78.78    9.97
   0   8  -1   59.47    8.35
   0   8   2    2.73    2.44
   0   8  -2    4.11    3.03
   0   8  -2    4.21    2.98
   0   8  -3   90.84    9.89
  -1  -8   3  473.65   18.86
   1  -8  -3  488.80   19.33
  -1  -8   2   76.31    7.76
   1  -8  -2   60.97    6.92
   1  -8  -1   95.69    8.88
   1  -8  -1  105.08    9.41
  -1  -8   1  108.07    9.62
  -1  -8   0  486.86   20.61
   1  -8   0  635.11   22.94
   1  -8   0  591.48   22.68
  -1  -8   0  693.88   24.20
   1  -8   0  551.59   18.83
  -1  -8  -1  604.74   21.86
   1  -8   1  448.06   20.07
   1  -8   1  366.69   16.50
   1  -8   1  524.48   20.30
   1  -8   2  206.61   11.88
   1  -8   2  138.68    9.43
  -1  -8  -2  236.39   13.03
   1  -8   2  130.07   10.01
   1  -7  -6  521.61   21.39
   1  -7  -5  705.08   26.95
  -1  -7   4    5.96    3.12
   1  -7  -4   11.65    3.52
   1  -7  -4    7.04    2.95
   1  -7  -3  608.20   27.27
   1  -7  -3  651.58   26.62
  -1  -7   3  547.11   23.54
  -1  -7   3  598.33   27.77
   1  -7  -2 1406.86   41.72
   1  -7  -2 1328.27   41.03
   1  -7  -2 1350.86   35.27
   1  -7  -1 1461.05   39.49
  -1  -7   1 1490.17   44.62
  -1  -7   1 1432.32   39.88
   1  -7  -1 1516.28   44.35
  -1  -7   0  724.92   30.69
   1  -7   0  698.87   30.08
  -1  -7   0  652.31   26.64
   1  -7   1   56.88    8.53
  -1  -7  -1   63.85    8.99
  -1  -7  -1   48.56    6.85
  -1  -7  -1   45.46    7.02
  -1  -7  -2  803.82   30.61
  -1  -7  -2  749.56   27.51
   1  -7   2  708.63   29.29
  -1  -7  -2  757.62   28.52
  -1  -7  -2  770.82   27.74
  -1  -7  -3  927.44   30.23
  -1  -7  -3  913.26   30.46
  -1  -7  -3  962.75   32.01
   1  -7   4  256.99   15.57
  -1  -7  -4  309.49   16.96
  -1  -7  -4  295.23   16.45
  -1  -7  -4  274.75   15.84
  -1  -7  -5    0.02    0.36
  -1  -7  -5    1.00    1.55
  -1  -7  -5    1.14    1.60
   1  -7   5    3.39    2.30
   1  -6  -8  241.47   14.46
   1  -6  -8  235.73   14.06
   1  -6  -7   89.79    9.63
   1  -6  -7   71.84    7.99
   1  -6  -7   86.41    9.49
   1  -6  -6   17.25    4.27
   1  -6  -6   23.33    5.21
  -1  -6   6    9.52    3.49
   1  -6  -6   29.26    5.89
   1  -6  -5  232.53   15.56
   1  -6  -5  239.63   16.14
   1  -6  -5  287.06   19.36
  -1  -6   5  202.92   16.17
   1  -6  -5  263.16   17.32
   1  -6  -4  573.32   25.01
   1  -6  -4  556.77   26.14
  -1  -6   4  509.92   26.02
   1  -6  -4  614.67   28.79
   1  -6  -4  554.99   24.56
   1  -6  -3  831.03   28.91
   1  -6  -3  877.33   34.87
   1  -6  -3  867.22   33.11
  -1  -6   3  822.80   33.31
   1  -6  -2   46.11    7.23
  -1  -6   2   47.78    7.22
  -1  -6   2   53.45    8.42
   1  -6  -2   58.48    8.94
  -1  -6   1  317.47   18.56
  -1  -6   1  326.66   21.64
  -1  -6   1  320.31   20.38
   1  -6  -1  337.71   21.64
  -1  -6   0  841.27   32.95
  -1  -6   0  818.02   30.24
   1  -6   0  843.02   34.22
  -1  -6   0  804.22   33.51
  -1  -6  -1  793.68   32.82
   1  -6   1  753.06   32.57
  -1  -6  -1  780.02   31.85
  -1  -6  -1  770.28   29.82
  -1  -6  -2  168.84   14.05
  -1  -6  -2  173.15   14.87
  -1  -6  -2  166.51   14.59
  -1  -6  -3    1.56    1.72
  -1  -6  -3    3.24    2.16
  -1  -6  -3    0.11    0.62
  -1  -6  -4  229.34   16.73
  -1  -6  -4  211.84   16.32
  -1  -6  -4  231.27   16.58
  -1  -6  -5  187.66   14.98
  -1  -6  -5  222.95   15.64
  -1  -6  -5  215.35   16.13
  -1  -6  -6  557.30   24.97
  -1  -6  -6  504.82   23.45
  -1  -6  -6  510.43   22.06
  -1  -6  -7   17.96    4.23
  -1  -6  -7   13.83    3.15
  -1  -6  -7    9.24    2.92
   1  -5  -9  249.46   15.08
   1  -5  -9  227.84   14.70
   1  -5  -9  244.73   16.45
   1  -5  -8    5.60    2.78
   1  -5  -8    6.03    2.46
   1  -5  -8    9.45    3.90
   1  -5  -7  485.13   24.51
   1  -5  -7  505.63   26.04
   1  -5  -7  472.10   24.80
   1  -5  -6 1882.67   48.49
   1  -5  -6 1767.47   48.82
   1  -5  -6 1874.22   49.56
   1  -5  -5  245.27   17.84
   1  -5  -5  235.53   16.63
   1  -5  -5  228.15   16.47
   1  -5  -5  221.27   16.06
   1  -5  -4   22.84    5.06
   1  -5  -4   27.47    5.87
   1  -5  -4   24.29    5.05
   1  -5  -4   26.83    4.63
   1  -5  -4   22.44    4.78
  -1  -5   4   19.55    4.59
   1  -5  -3 1379.65   37.58
  -1  -5   3 1323.54   36.71
   1  -5  -3 1385.09   37.11
   1  -5  -3 1460.28   42.20
   1  -5  -3 1385.88   35.75
  -1  -5   2 1877.47   43.51
   1  -5  -2 1983.31   43.56
   1  -5  -2 1879.19   41.34
   1  -5  -2 1924.84   47.86
  -1  -5   2 1901.05   48.52
  -1  -5   1 1469.86   41.53
   1  -5  -1 1349.68   40.18
  -1  -5   1 1329.36   36.59
   1  -5  -1 1394.08   36.14
  -1  -5   1 1340.73   31.12
  -1  -5   0  859.36   31.37
  -1  -5   0  808.84   22.90
  -1  -5   0  787.82   28.09
  -1  -5  -1    2.49    2.31
  -1  -5  -1    3.10    1.61
  -1  -5  -1    3.56    2.05
  -1  -5  -2  783.33   29.47
  -1  -5  -2  827.02   31.24
  -1  -5  -2  787.66   30.28
  -1  -5  -3 1883.51   47.06
  -1  -5  -3 1852.58   47.00
  -1  -5  -3 1887.45   48.41
  -1  -5  -4 1113.62   37.58
  -1  -5  -4 1078.31   37.68
  -1  -5  -4 1054.83   35.49
  -1  -5  -5  259.70   17.41
  -1  -5  -5  267.04   18.95
  -1  -5  -5  250.11   18.25
  -1  -5  -6  392.25   22.93
  -1  -5  -6  401.83   23.19
  -1  -5  -6  409.94   21.65
  -1  -5  -7  694.34   26.52
  -1  -5  -7  664.37   28.65
  -1  -5  -7  723.37   30.06
  -1  -5  -8  196.80   14.58
  -1  -5  -8  164.27   13.10
  -1  -5  -9   18.79    3.66
  -1  -5  -9   25.34    4.53
   1  -4 -10    3.81    2.59
   1  -4 -10   10.38    3.38
   1  -4 -10    4.87    2.66
   1  -4  -9  551.08   25.47
   1  -4  -9  506.64   25.27
   1  -4  -9  553.15   27.46
   1  -4  -8  982.23   36.39
   1  -4  -8  968.67   35.71
   1  -4  -8 1035.13   38.81
   1  -4  -7  500.61   25.62
   1  -4  -7  494.37   26.09
   1  -4  -7  436.19   24.15
   1  -4  -6  178.22   14.67
   1  -4  -6  162.89   14.16
   1  -4  -6  174.39   14.76
   1  -4  -5  616.57   25.88
   1  -4  -5  642.47   24.67
   1  -4  -5  626.92   26.58
   1  -4  -5  626.74   26.13
   1  -4  -4 1513.08   34.31
   1  -4  -4 1535.23   26.60
   1  -4  -4 1537.34   38.06
   1  -4  -4 1673.94   39.71
   1  -4  -4 1566.01   39.96
  -1  -4   4 1429.86   33.88
   1  -4  -4 1640.70   39.80
   1  -4  -3 1667.84   37.13
   1  -4  -3 1534.57   35.30
   1  -4  -3 1609.19   34.49
  -1  -4   3 1468.48   32.70
   1  -4  -3 1413.89   36.85
   1  -4  -3 1537.98   27.11
   1  -4  -2  145.76    8.36
   1  -4  -2  155.03   10.82
  -1  -4   2  146.00    9.27
   1  -4  -2  139.62   11.33
   1  -4  -2  123.22    9.39
  -1  -4   1  694.27   25.73
   1  -4  -1  682.41   18.61
  -1  -4   1  687.62   23.38
  -1  -4   1  683.94   19.14
   1  -4  -1  686.14   24.69
  -1  -4   0 2364.83   46.96
  -1  -4   0 2374.89   33.25
   1  -4   0 2356.74   35.88
  -1  -4  -1 2402.82   31.56
  -1  -4  -1 2306.71   45.53
   1  -4   1 2276.21   37.44
  -1  -4  -1 2452.14   47.63
  -1  -4  -1 2365.36   44.45
  -1  -4  -2  872.47   28.26
  -1  -4  -2  889.70   18.39
   1  -4   2  894.01   24.51
  -1  -4  -2  896.51   28.36
  -1  -4  -2  907.50   29.54
  -1  -4  -3   88.10    9.54
  -1  -4  -3   81.97    9.00
   1  -4   3   96.92    8.58
  -1  -4  -3   92.12    9.33
  -1  -4  -4  763.28   27.70
  -1  -4  -4  673.44   28.84
  -1  -4  -4  720.11   27.98
  -1  -4  -4  773.51   29.84
  -1  -4  -5 2222.20   52.59
  -1  -4  -5 2078.06   55.09
  -1  -4  -5 2180.21   49.12
  -1  -4  -5 2206.55   53.14
  -1  -4  -6  201.04   16.56
  -1  -4  -6  197.40   15.12
  -1  -4  -6  222.44   18.60
  -1  -4  -6  242.58   18.19
  -1  -4  -7   94.59   10.37
  -1  -4  -7   91.76   11.23
  -1  -4  -7   82.03   11.54
  -1  -4  -7   80.48   10.63
  -1  -4  -8  292.77   19.33
  -1  -4  -8  300.83   17.31
  -1  -4  -8  331.06   20.80
  -1  -4  -9  642.55   26.49
  -1  -4  -9  543.48   24.11
  -1  -4 -10  286.22   14.94
   1  -3 -11  209.68   14.62
   1  -3 -11  254.13   17.02
   1  -3 -11  218.43   13.37
   1  -3 -10  849.29   30.62
   1  -3 -10  840.39   33.12
   1  -3 -10  942.09   36.43
   1  -3  -9  186.26   18.22
   1  -3  -9  180.19   17.34
   1  -3  -9  224.27   18.40
   1  -3  -9  213.25   16.51
   1  -3  -9  197.59   16.73
   1  -3  -8   47.66    8.31
   1  -3  -8   31.38    7.72
   1  -3  -8   35.97    6.92
   1  -3  -8   37.80    7.12
   1  -3  -8   34.42    7.46
   1  -3  -7  622.52   28.13
   1  -3  -7  544.22   29.41
   1  -3  -7  612.17   31.61
   1  -3  -7  572.10   29.65
   1  -3  -7  603.72   28.23
   1  -3  -7  607.38   27.50
   1  -3  -6 2310.19   50.87
   1  -3  -6 2179.87   48.87
   1  -3  -6 2387.01   58.63
   1  -3  -6 2336.93   50.85
   1  -3  -6 2277.08   57.24
  -1  -3   6 2134.29   41.12
   1  -3  -5  980.29   28.14
   1  -3  -5  971.85   19.83
   1  -3  -5  970.82   30.13
  -1  -3   5  926.81   25.33
   1  -3  -5  993.95   30.29
   1  -3  -5 1002.71   30.46
  -1  -3   5  993.65   24.28
   1  -3  -5 1011.37   34.93
   1  -3  -4  327.67   15.96
   1  -3  -4  323.44   15.71
   1  -3  -4  320.18   10.46
   1  -3  -4  311.27   17.60
  -1  -3   4  341.74   11.96
  -1  -3   4  321.83   13.82
   1  -3  -4  345.11   16.44
   1  -3  -4  331.58   15.94
  -1  -3   3  351.38    9.86
   1  -3  -3  330.30   10.48
   1  -3  -3  353.97   15.92
  -1  -3   2 4027.25   21.77
  -1  -3   2 3968.40   41.81
   1  -3  -1 2776.98   31.01
  -1  -3   1 2643.15   32.09
  -1  -3   0 1864.78   24.58
   1  -3   0 1890.69   26.90
  -1  -3  -1  635.69   13.07
   1  -3   1  668.57   16.96
   1  -3   2 2622.99   24.78
   1  -3   2 2697.78   36.62
  -1  -3  -2 2688.83   43.19
  -1  -3  -2 2652.18   25.61
  -1  -3  -3 3099.33   54.88
   1  -3   3 3434.40   45.06
  -1  -3  -3 3506.22   50.62
  -1  -3  -3 3659.03   54.85
   1  -3   3 3290.48   35.19
  -1  -3  -3 3545.17   53.25
  -1  -3  -3 3405.48   27.21
  -1  -3  -4  744.86   26.66
  -1  -3  -4  705.97   26.68
  -1  -3  -4  659.67   26.96
  -1  -3  -4  692.36   25.12
  -1  -3  -4  681.78   28.33
  -1  -3  -4  708.79   24.18
   1  -3   4  647.37   18.19
   1  -3   4  759.54   22.00
  -1  -3  -5  126.57   12.97
  -1  -3  -5  160.79   13.88
   1  -3   5  118.23    9.06
   1  -3   5  147.88   10.38
  -1  -3  -5  139.98   12.38
  -1  -3  -5  164.41   13.15
  -1  -3  -5  138.96   11.51
  -1  -3  -5  163.22   15.13
  -1  -3  -6  355.39   23.67
  -1  -3  -6  375.66   23.40
  -1  -3  -6  352.47   19.39
  -1  -3  -6  365.43   21.21
  -1  -3  -6  369.05   21.64
  -1  -3  -6  360.17   24.12
  -1  -3  -6  321.67   22.73
  -1  -3  -7 1595.81   53.54
  -1  -3  -7 1519.08   41.74
  -1  -3  -7 1571.56   46.92
  -1  -3  -7 1527.08   50.92
  -1  -3  -7 1487.05   51.32
  -1  -3  -7 1559.53   52.25
  -1  -3  -7 1522.49   45.73
  -1  -3  -8  497.42   29.85
  -1  -3  -8  580.91   31.83
  -1  -3  -8  591.46   28.78
  -1  -3  -8  466.39   28.56
  -1  -3  -8  532.60   27.34
  -1  -3  -8  564.66   24.92
  -1  -3  -8  523.00   30.18
  -1  -3  -9   26.73    5.92
  -1  -3  -9   18.52    5.76
  -1  -3  -9   30.88    6.24
  -1  -3  -9   27.51    6.67
  -1  -3 -10   57.47    7.85
  -1  -3 -10   67.88    8.36
  -1  -3 -10   44.83    7.58
   1  -2 -12  149.76   11.64
   1  -2 -11  225.94   18.28
   1  -2 -11  227.86   15.06
   1  -2 -11  188.29   15.48
   1  -2 -11  224.90   19.01
   1  -2 -11  245.67   18.40
   1  -2 -10  135.82   16.51
   1  -2 -10  128.01   15.51
   1  -2 -10  164.11   16.05
   1  -2 -10  135.13   12.78
   1  -2 -10  121.23   13.30
   1  -2  -9  633.23   35.78
   1  -2  -9  663.58   31.73
   1  -2  -9  663.36   32.30
   1  -2  -9  705.26   36.88
   1  -2  -9  704.86   35.32
   1  -2  -9  647.37   29.28
   1  -2  -9  630.68   36.11
   1  -2  -8 1030.76   36.24
   1  -2  -8 1089.00   43.02
   1  -2  -8 1072.56   39.08
   1  -2  -8 1026.51   43.55
   1  -2  -8 1079.32   38.49
   1  -2  -8 1041.59   44.95
   1  -2  -8 1087.79   44.47
   1  -2  -7  668.61   28.73
   1  -2  -7  631.22   30.94
   1  -2  -7  629.82   26.68
   1  -2  -7  612.03   32.30
   1  -2  -7  645.06   27.76
   1  -2  -7  667.91   31.83
  -1  -2   7  641.86   24.24
   1  -2  -7  634.95   32.14
   1  -2  -6    7.85    4.07
   1  -2  -6   11.73    2.20
   1  -2  -6    8.80    3.51
  -1  -2   6   11.20    2.94
   1  -2  -6   14.34    4.34
   1  -2  -6    9.57    3.31
   1  -2  -6    9.76    3.71
   1  -2  -6    9.24    2.90
   1  -2  -6    7.85    2.95
   1  -2  -5  449.94   12.37
   1  -2  -5  481.43   19.66
  -1  -2   5  465.78   15.87
   1  -2  -5  453.55   22.20
   1  -2  -5  437.95   21.66
  -1  -2   5  424.75   12.57
   1  -2  -5  465.79   19.32
   1  -2  -5  457.66   19.29
   1  -2  -4 4504.72   34.95
  -1  -2   4 4558.24   43.35
   1  -2  -3 1613.56   19.34
  -1  -2   3 1709.79   22.21
  -1  -2   2 1382.95   17.96
   1  -2  -2 1395.56   17.72
   1  -2  -1  551.74    7.04
  -1  -2   1  517.40   11.26
   1  -2  -1  517.20   10.82
  -1  -2   1  573.03    7.69
  -1  -2   0 3302.54   25.52
  -1  -2   0 3273.76   17.23
  -1  -2   0 3155.47   29.83
   1  -2   0 3167.02   28.56
   1  -2   0 3229.67   18.74
  -1  -2  -1 6198.98   34.55
  -1  -2  -1 6212.61   30.78
   1  -2   1 6484.18   42.93
  -1  -2  -1 5986.94   38.99
   1  -2   1 6425.23   36.05
  -1  -2  -2  645.69    9.35
  -1  -2  -2  606.04   14.57
  -1  -2  -3  123.17    4.16
   1  -2   3  125.55    6.97
   1  -2   3  123.33    6.81
   1  -2   4  922.07   20.66
  -1  -2  -4  911.87   36.62
  -1  -2  -4  959.04   26.89
  -1  -2  -4  924.16   31.71
  -1  -2  -4  956.12   29.57
  -1  -2  -4  891.48   30.99
   1  -2   4  931.69   21.94
  -1  -2  -4  986.69   28.11
  -1  -2  -5 2364.16   47.85
  -1  -2  -5 2282.92   56.02
  -1  -2  -5 2367.99   56.04
  -1  -2  -5 2210.92   43.28
   1  -2   5 2383.37   36.46
  -1  -2  -5 2414.26   64.97
   1  -2   5 2182.73   36.44
  -1  -2  -5 2269.52   54.77
  -1  -2  -5 2354.79   51.88
  -1  -2  -5 2243.72   45.49
   1  -2   5 2331.51   39.24
  -1  -2  -6 1272.75   44.87
   1  -2   6 1230.59   31.95
  -1  -2  -6 1300.54   35.74
  -1  -2  -6 1336.46   39.20
  -1  -2  -6 1240.72   45.62
  -1  -2  -6 1249.26   37.10
  -1  -2  -6 1358.57   52.95
  -1  -2  -6 1265.32   45.10
  -1  -2  -6 1357.44   44.13
  -1  -2  -7  126.63   15.57
  -1  -2  -7  159.74   17.02
  -1  -2  -7  159.37   14.26
  -1  -2  -7  170.54   15.07
  -1  -2  -7  160.30   16.78
  -1  -2  -7  165.09   13.36
  -1  -2  -7  165.92   17.13
  -1  -2  -8  152.48   14.60
  -1  -2  -8  142.47   14.29
  -1  -2  -8  138.37   16.39
  -1  -2  -8  128.77   12.04
  -1  -2  -8  122.79   16.15
  -1  -2  -8  143.68   16.56
  -1  -2  -8  134.27   15.65
  -1  -2  -9  538.00   32.17
  -1  -2  -9  550.13   27.41
  -1  -2  -9  544.82   31.43
  -1  -2  -9  492.18   30.90
  -1  -2  -9  594.34   31.86
  -1  -2  -9  544.73   27.68
  -1  -2 -10  149.73   13.25
  -1  -2 -10  177.67   15.42
  -1  -2 -10  141.11   15.17
  -1  -2 -10  145.41   14.97
  -1  -2 -10  169.87   14.27
  -1  -2 -10  155.77   15.13
  -1  -2 -11   74.33    8.04
   1  -1 -12   37.65    6.26
   1  -1 -12   36.94    6.42
   1  -1 -12   32.30    6.74
   1  -1 -12   36.72    6.62
   1  -1 -11  197.89   18.62
   1  -1 -11  174.66   16.03
   1  -1 -11  184.47   18.52
   1  -1 -11  168.85   15.33
   1  -1 -11  187.85   14.41
   1  -1 -10  471.58   29.20
   1  -1 -10  414.23   30.08
   1  -1 -10  397.84   25.03
   1  -1 -10  419.66   29.60
   1  -1 -10  459.40   26.81
   1  -1 -10  406.67   23.21
   1  -1 -10  451.88   27.52
   1  -1  -9  495.36   28.12
   1  -1  -9  482.19   30.21
   1  -1  -9  510.65   28.11
   1  -1  -9  517.59   29.22
   1  -1  -9  456.83   31.15
   1  -1  -9  486.62   32.60
   1  -1  -9  470.29   25.36
   1  -1  -8   17.61    5.37
   1  -1  -8   10.92    4.27
   1  -1  -8   11.68    4.06
   1  -1  -8   12.80    5.40
   1  -1  -8    9.65    3.64
   1  -1  -8   12.99    4.14
   1  -1  -8   12.42    5.19
   1  -1  -7 1507.61   40.21
   1  -1  -7 1494.26   48.59
   1  -1  -7 1494.99   41.85
   1  -1  -7 1611.03   52.20
   1  -1  -7 1431.60   49.54
   1  -1  -7 1528.72   41.92
   1  -1  -7 1487.96   47.71
   1  -1  -7 1481.27   45.10
  -1  -1   7 1566.12   36.95
   1  -1  -6 2275.38   30.42
   1  -1  -6 2269.48   57.28
   1  -1  -6 2121.73   54.82
   1  -1  -6 2167.12   50.12
  -1  -1   6 2305.71   39.58
   1  -1  -6 2205.72   51.82
   1  -1  -6 2416.98   47.65
   1  -1  -6 2250.63   46.38
   1  -1  -6 2232.91   53.48
   1  -1  -6 2197.83   44.53
   1  -1  -5 2412.24   27.69
  -1  -1   5 2466.76   25.20
  -1  -1   5 2429.66   35.36
   1  -1  -4  777.79   13.50
  -1  -1   4  803.72   17.66
  -1  -1   3  681.20   13.67
   1  -1  -3  690.75   11.13
  -1  -1   2 2201.70   19.98
  -1  -1   2 2319.06   23.04
   1  -1  -2 2151.87   17.79
   1  -1  -2 2216.61   20.32
  -1  -1   2 2045.00   17.61
  -1  -1   1 2847.20   20.69
   1  -1  -1 2803.25   17.63
  -1  -1   1 2833.97   21.06
   1  -1  -1 2786.98   20.72
  -1  -1   0  818.36    8.45
   1  -1   0  830.65   10.01
  -1  -1   0  805.31    9.43
   1  -1   0  841.78   10.72
   1  -1   1 1350.47   16.37
   1  -1   1 1488.13   18.00
   1  -1   1 1446.07   15.57
  -1  -1  -1 1392.24    8.47
  -1  -1  -1 1371.81   16.16
   1  -1   2 3612.68   34.71
  -1  -1  -2 3747.38   34.07
   1  -1   2 3468.21   26.84
   1  -1   2 3322.59   29.97
  -1  -1  -3 4395.18   23.05
  -1  -1  -3 4129.51   44.85
   1  -1   4 1387.11   25.53
  -1  -1  -4 1424.21   16.14
  -1  -1  -5   69.68   11.31
  -1  -1  -5   72.45    7.71
  -1  -1  -5   71.71   10.65
  -1  -1  -5   71.01    9.31
  -1  -1  -5   66.72    7.12
   1  -1   5   67.24    6.79
  -1  -1  -5   58.51    6.88
   1  -1   5   60.31    5.05
  -1  -1  -5   73.87    8.95
   1  -1   5   75.70    6.19
  -1  -1  -5   66.30    9.22
  -1  -1  -5   64.57    8.95
  -1  -1  -6 1448.71   38.47
  -1  -1  -6 1419.44   45.10
  -1  -1  -6 1486.95   53.45
  -1  -1  -6 1497.19   37.24
  -1  -1  -6 1443.39   39.40
  -1  -1  -6 1360.78   43.98
   1  -1   6 1382.80   29.50
  -1  -1  -6 1327.03   46.93
  -1  -1  -6 1464.11   47.89
   1  -1   6 1379.43   33.63
  -1  -1  -7  321.45   18.64
  -1  -1  -7  322.45   19.87
  -1  -1  -7  320.60   24.10
  -1  -1  -7  297.35   24.26
  -1  -1  -7  290.31   21.87
  -1  -1  -7  318.45   23.26
  -1  -1  -7  325.32   26.47
  -1  -1  -7  323.16   20.43
  -1  -1  -8  222.05   17.42
  -1  -1  -8  225.95   16.28
  -1  -1  -8  237.42   18.54
  -1  -1  -8  205.55   20.12
  -1  -1  -8  228.03   22.65
  -1  -1  -8  213.65   19.59
  -1  -1  -8  240.57   21.87
  -1  -1  -8  216.48   21.59
  -1  -1  -9   29.87    8.38
  -1  -1  -9   49.96    8.84
  -1  -1  -9   45.26    8.12
  -1  -1  -9   33.95    8.43
  -1  -1  -9   39.89    7.81
  -1  -1  -9   33.92    8.29
  -1  -1 -10  112.74   13.71
  -1  -1 -10  119.10   12.79
  -1  -1 -10  101.65   13.55
  -1  -1 -10  111.50   12.13
  -1  -1 -10  111.37   14.41
  -1  -1 -10  119.75   12.35
  -1  -1 -11  133.48   13.45
  -1  -1 -11  133.90   11.45
  -1  -1 -11  125.34   12.41
   1   0 -12  294.05   19.36
   1   0 -12  261.77   16.85
   1   0 -12  274.46   17.47
   1   0 -12  288.02   20.20
  -1   0  12  228.47   15.74
   1   0 -11   98.90   12.29
   1   0 -11  112.16   13.34
   1   0 -11  111.43   14.20
   1   0 -11  120.96   13.28
  -1   0  11   84.51   10.52
   1   0 -11  104.45   14.37
   1   0 -11  108.38   11.37
   1   0 -10  213.27   22.07
   1   0 -10  224.16   17.69
   1   0 -10  257.68   20.98
   1   0 -10  248.09   20.50
   1   0 -10  241.26   20.61
   1   0 -10  231.94   22.54
   1   0 -10  271.28   19.22
   1   0  -9  408.06   25.74
   1   0  -9  418.33   27.49
   1   0  -9  385.22   29.33
   1   0  -9  395.38   25.81
   1   0  -9  410.97   24.71
  -1   0   9  376.66   21.99
   1   0  -9  374.89   22.91
   1   0  -9  424.85   30.67
   1   0  -8 1670.22   50.16
   1   0  -8 1632.65   46.25
   1   0  -8 1767.33   55.82
   1   0  -8 1675.10   48.87
   1   0  -8 1622.44   52.43
   1   0  -8 1608.59   56.66
   1   0  -8 1701.60   50.16
   1   0  -8 1653.60   57.93
   1   0  -7 1251.64   45.45
   1   0  -7 1211.76   32.69
   1   0  -7 1257.90   42.79
   1   0  -7 1284.98   44.66
   1   0  -7 1338.66   28.41
   1   0  -7 1229.24   39.17
   1   0  -7 1266.62   46.71
  -1   0   7 1371.25   34.32
   1   0  -7 1336.66   40.21
   1   0  -7 1291.38   37.59
   1   0  -7 1304.46   40.31
   1   0  -6   22.39    4.63
  -1   0   6   25.90    4.17
   1   0  -6   23.56    5.45
   1   0  -6   23.15    5.26
   1   0  -6   21.43    4.78
   1   0  -6   26.23    5.16
   1   0  -6   23.47    4.59
   1   0  -6   23.80    3.46
   1   0  -6   18.47    5.59
  -1   0   5  730.01   19.12
   1   0  -5  722.39   16.26
  -1   0   4 3913.44   29.24
   1   0  -4 5258.12   37.75
  -1   0   4 5250.68   44.51
  -1   0   3 9189.27   43.70
   1   0  -2  537.48    9.85
  -1   0   2  549.75    8.71
   1   0  -2  526.97    8.39
  -1   0   1 1186.20   11.58
   1   0  -1 1507.18   10.75
  -1   0   1 1534.84   10.83
   1   0  -1 1302.32   12.23
   1   0   1  683.42   10.64
  -1   0  -1  621.15   10.05
   1   0   1  561.85   10.50
  -1   0  -1  640.56   10.76
   1   0   1  713.76    6.60
   1   0   1  691.62    6.00
   1   0   2 1712.59   13.50
   1   0   2 1582.63   22.72
  -1   0  -2 1509.80   22.03
  -1   0  -2 1691.85   20.14
   1   0   2 1627.78   19.44
  -1   0  -2 1592.14   14.61
   1   0   3  246.87    8.57
  -1   0  -3  227.80    6.73
   1   0   3  247.86    6.43
  -1   0  -4 2026.87   24.16
   1   0   4 2131.28   28.61
  -1   0  -5 2768.04   32.24
  -1   0  -5 2700.57   54.92
  -1   0  -5 2652.60   65.42
  -1   0  -5 2711.28   58.74
   1   0   5 2877.64   42.75
  -1   0  -5 2954.99   50.34
  -1   0  -5 2767.12   60.42
  -1   0  -5 2804.46   47.72
  -1   0  -5 2557.01   53.47
  -1   0  -6 1038.37   46.21
  -1   0  -6 1050.25   32.74
  -1   0  -6 1050.20   44.17
  -1   0  -6  941.09   35.11
   1   0   6 1073.50   29.42
  -1   0  -6 1040.95   38.30
  -1   0  -6 1030.09   31.25
  -1   0  -6 1066.91   33.96
  -1   0  -6 1002.77   39.07
  -1   0  -6  969.28   39.79
  -1   0  -7  132.36   12.28
  -1   0  -7  119.82   14.51
  -1   0  -7  110.61   14.60
  -1   0  -7  115.29   11.94
  -1   0  -7  121.21   13.66
  -1   0  -7  125.12   16.21
  -1   0  -7  126.67   12.26
  -1   0  -7  113.20   13.74
  -1   0  -8  256.05   22.65
  -1   0  -8  265.36   18.20
  -1   0  -8  261.98   20.77
  -1   0  -8  273.96   20.10
  -1   0  -8  251.24   23.42
  -1   0  -8  258.85   23.86
  -1   0  -8  246.92   21.87
  -1   0  -8  277.93   19.75
  -1   0  -9  345.86   27.76
  -1   0  -9  351.31   22.87
  -1   0  -9  370.45   23.54
  -1   0  -9  389.48   24.49
  -1   0  -9  362.88   27.83
  -1   0  -9  384.67   27.86
  -1   0  -9  373.69   26.57
   1   0  10   60.43    8.49
  -1   0 -10   76.10   11.04
  -1   0 -10   64.46    9.30
  -1   0 -10   64.65    9.16
  -1   0 -10   85.81   10.31
  -1   0 -10   78.78   12.43
  -1   0 -10   74.96   11.93
  -1   0 -11   11.33    4.37
  -1   0 -11    8.77    3.27
   1   0  11    8.72    3.37
  -1   0 -11    8.52    3.43
  -1   0 -11    8.88    3.27
   1   1 -12   50.85    7.70
  -1   1  12   33.15    6.16
   1   1 -12   45.57    6.85
   1   1 -12   54.73    8.72
  -1   1  11  122.57   13.44
   1   1 -11  142.79   15.44
   1   1 -11  135.30   12.80
   1   1 -11  119.97   12.19
   1   1 -11  136.58   14.36
   1   1 -11  150.59   16.93
   1   1 -11  136.52   14.45
   1   1 -10  415.27   24.74
   1   1 -10  401.91   26.66
   1   1 -10  462.15   32.75
  -1   1  10  412.26   23.07
   1   1 -10  424.89   27.78
   1   1 -10  425.88   25.83
   1   1 -10  430.05   29.85
   1   1  -9  403.61   24.85
   1   1  -9  444.38   30.84
   1   1  -9  402.63   27.26
   1   1  -9  419.93   27.38
  -1   1   9  418.43   24.54
   1   1  -9  454.34   32.21
   1   1  -9  430.88   26.75
   1   1  -8    4.36    2.69
   1   1  -8    7.01    3.92
   1   1  -8   15.48    4.98
   1   1  -8    8.95    3.88
   1   1  -8   11.98    5.22
   1   1  -8   10.77    4.80
  -1   1   8    9.10    3.43
   1   1  -8    6.14    3.48
   1   1  -8   11.16    3.96
   1   1  -7 1491.58   45.39
   1   1  -7 1465.28   45.60
   1   1  -7 1400.08   40.09
   1   1  -7 1449.38   49.89
   1   1  -7 1432.11   49.92
  -1   1   7 1562.09   37.05
   1   1  -7 1544.68   33.72
   1   1  -7 1481.73   42.83
   1   1  -7 1540.04   45.65
   1   1  -7 1470.10   39.01
   1   1  -6 2124.00   43.63
   1   1  -6 2044.99   48.44
   1   1  -6 2059.29   35.97
   1   1  -6 2064.17   55.04
   1   1  -6 2088.72   54.46
   1   1  -6 2080.09   46.47
   1   1  -6 2129.57   49.87
   1   1  -6 2185.64   49.04
  -1   1   5 2448.16   35.02
   1   1  -5 2460.29   34.08
  -1   1   5 2543.00   27.68
   1   1  -4  779.98   16.99
  -1   1   4  765.06   17.03
  -1   1   3  821.55   14.79
   1   1  -3  866.17   15.80
   1   1  -3  884.83   14.71
  -1   1   3  854.19   12.52
  -1   1   3  789.17   13.50
  -1   1   2 1757.24   17.70
   1   1  -2 1734.40   18.04
  -1   1   2 1721.76   17.38
  -1   1   2 1855.61   16.69
   1   1  -2 1865.93   20.24
   1   1  -2 1815.49   16.63
   1   1  -1 2226.01   17.47
   1   1  -1 2210.13   15.63
   1   1  -1 2251.65   19.55
  -1   1   1 2191.28   18.64
  -1   1   0  972.36   14.08
   1   1   0  905.36   10.30
   1   1   0 1002.62   13.31
  -1   1   0  872.27   11.49
  -1   1   0  865.60    9.68
   1   1   1 1497.07    9.52
  -1   1  -1 1492.81   21.31
  -1   1  -1 1349.56   15.94
   1   1   1 1335.74   15.99
   1   1   2 3684.77   16.89
  -1   1  -2 3688.30   33.53
  -1   1  -3 4262.40   44.37
   1   1   3 4181.28   22.19
  -1   1  -5   55.72    8.53
  -1   1  -5   67.14    7.84
  -1   1  -5   59.35    7.22
  -1   1  -5   64.66    9.05
   1   1   5   66.66    6.69
  -1   1  -5   71.66    9.38
  -1   1  -5   56.75    9.59
  -1   1  -5   61.31    8.06
  -1   1  -6 1301.08   46.18
  -1   1  -6 1454.38   41.19
  -1   1  -6 1364.64   45.36
  -1   1  -6 1287.57   52.46
  -1   1  -6 1348.66   38.42
  -1   1  -6 1381.03   45.70
  -1   1  -6 1484.23   41.34
   1   1   6 1459.77   34.24
   1   1   6 1241.00   33.76
  -1   1  -6 1363.97   41.27
  -1   1  -6 1320.66   50.31
  -1   1  -7  292.40   22.63
  -1   1  -7  302.44   20.28
  -1   1  -7  260.39   22.48
  -1   1  -7  293.64   19.97
  -1   1  -7  275.13   19.47
  -1   1  -7  281.15   22.46
  -1   1  -7  268.20   18.44
  -1   1  -7  302.32   25.12
  -1   1  -8  184.92   15.90
  -1   1  -8  184.66   19.48
  -1   1  -8  174.03   16.25
  -1   1  -8  193.80   16.85
  -1   1  -8  181.37   19.63
  -1   1  -8  182.30   19.55
  -1   1  -8  177.58   17.95
  -1   1  -8  180.84   16.48
   1   1   9   25.58    6.43
  -1   1  -9   36.20    8.50
  -1   1  -9   24.03    6.64
  -1   1  -9   27.01    6.34
  -1   1  -9   28.96    6.17
  -1   1  -9   28.84    7.12
  -1   1  -9   32.89    8.18
  -1   1 -10   86.08   12.40
  -1   1 -10   80.25   10.78
   1   1  10   83.37   10.27
  -1   1 -10   79.13   10.09
  -1   1 -10   91.02   12.91
  -1   1 -11  125.09   12.88
  -1   1 -11  116.87   10.58
  -1   1 -11  112.43   11.68
   1   1  11  128.53   11.96
  -1   1 -11   92.59    9.27
  -1   2  12  158.69   12.68
   1   2 -11  159.21   13.35
  -1   2  11  159.19   12.68
   1   2 -11  200.52   16.75
   1   2 -11  180.58   15.55
  -1   2  11  177.00   16.54
  -1   2  11  194.93   16.97
   1   2 -11  201.51   18.42
  -1   2  10  145.69   16.58
   1   2 -10  138.52   15.45
  -1   2  10  148.41   14.39
   1   2 -10  133.64   15.35
   1   2 -10  138.27   17.17
   1   2 -10  146.30   14.80
   1   2 -10  144.72   15.97
   1   2  -9  591.40   34.29
   1   2  -9  610.42   29.78
   1   2  -9  577.53   33.39
  -1   2   9  641.88   31.49
   1   2  -9  583.07   27.78
   1   2  -9  588.64   32.61
   1   2  -9  621.28   37.51
   1   2  -9  595.58   31.30
  -1   2   8  943.13   37.92
   1   2  -8  946.99   37.03
   1   2  -8  924.55   38.50
   1   2  -8  977.01   43.21
   1   2  -8  921.28   44.97
   1   2  -8  897.16   41.27
   1   2  -8  905.71   39.70
   1   2  -8  931.86   35.52
  -1   2   7  641.34   24.06
   1   2  -7  568.45   26.66
   1   2  -7  547.23   27.96
   1   2  -7  545.77   31.12
   1   2  -7  576.22   23.41
   1   2  -7  516.58   26.31
   1   2  -7  596.93   31.80
   1   2  -7  538.54   29.04
   1   2  -7  550.94   25.02
   1   2  -7  584.07   33.65
  -1   2   7  572.02   27.88
   1   2  -7  563.44   27.35
   1   2  -6   11.69    3.61
   1   2  -6   12.32    4.47
  -1   2   6    8.50    8.11
  -1   2   6   14.85    3.23
   1   2  -6    9.70    2.91
   1   2  -6    7.03    3.48
   1   2  -6   12.29    3.98
   1   2  -6    8.07    3.36
  -1   2   6    9.83    3.68
   1   2  -6    7.26    2.98
   1   2  -6    9.69    2.72
   1   2  -6   16.32    4.63
  -1   2   5  536.03   16.76
   1   2  -5  513.04   24.20
   1   2  -5  509.22   21.90
   1   2  -5  498.33   22.83
   1   2  -5  502.27   21.17
   1   2  -5  487.70   22.85
   1   2  -5  446.03   17.96
   1   2  -5  437.64   23.80
  -1   2   5  508.83   22.43
  -1   2   5  530.35   15.40
   1   2  -5  502.76   26.47
   1   2  -4 4148.09   44.40
   1   2  -4 4099.96   48.61
  -1   2   3 1617.73   23.17
   1   2  -3 1618.68   23.79
  -1   2   3 1623.07   20.86
   1   2  -2 1355.33   22.96
   1   2  -2 1375.63   20.11
  -1   2   2 1256.40   17.43
  -1   2   2 1315.17   20.30
  -1   2   2 1298.84   15.10
   1   2  -1  632.52   13.31
  -1   2   1  607.97    7.52
   1   2  -1  603.13    7.47
  -1   2   1  639.30   14.00
   1   2   0 3068.58   30.45
   1   2   0 3010.86   16.75
  -1   2   0 3035.13   16.99
  -1   2   0 3049.28   31.93
   1   2   1 6381.81   47.80
   1   2   1 6413.00   34.86
  -1   2  -1 6329.21   34.94
  -1   2  -2  718.11   18.67
  -1   2  -2  707.13   15.32
   1   2   2  752.04   11.59
   1   2   2  694.03   17.17
   1   2   2  655.61   14.39
  -1   2  -3  112.77    8.58
   1   2   3  121.76    6.63
   1   2   3  103.74    7.34
   1   2   4  968.14   28.34
   1   2   4  921.50   21.39
   1   2   4  951.66   23.77
  -1   2  -5 2146.00   49.35
   1   2   5 2350.49   39.48
  -1   2  -5 2129.62   52.14
   1   2   5 2326.74   42.27
  -1   2  -5 1990.26   50.39
   1   2   5 2399.31   77.84
  -1   2  -5 2047.77   49.63
  -1   2  -5 1941.03   61.60
  -1   2  -5 2187.83   54.81
  -1   2  -5 2071.96   49.22
  -1   2  -5 2022.52   59.26
  -1   2  -5 2051.53   46.65
   1   2   5 2518.78   48.47
  -1   2  -5 2171.86   54.66
  -1   2  -6 1131.40   50.45
  -1   2  -6 1143.58   36.57
  -1   2  -6 1176.39   39.94
   1   2   6 1318.51   38.51
  -1   2  -6 1214.73   44.70
  -1   2  -6 1195.72   44.86
  -1   2  -6 1194.19   42.15
  -1   2  -6 1140.51   47.12
   1   2   6 1254.69   33.51
   1   2   6 1388.21   33.88
  -1   2  -6 1144.69   38.75
  -1   2  -7  145.82   16.59
  -1   2  -7  147.97   14.99
  -1   2  -7  144.04   15.24
  -1   2  -7  134.72   16.58
  -1   2  -7  142.17   16.11
  -1   2  -7  139.52   13.98
  -1   2  -8  109.04   14.63
   1   2   8  133.58   15.19
  -1   2  -8  107.32   12.45
  -1   2  -8   98.06   13.92
  -1   2  -8  101.96   13.21
  -1   2  -8  119.06   13.84
  -1   2  -8  133.57   16.49
  -1   2  -9  480.66   30.64
   1   2   9  468.16   27.28
  -1   2  -9  466.64   26.64
  -1   2  -9  442.02   25.78
  -1   2  -9  475.77   29.70
  -1   2 -10   99.21   10.58
  -1   2 -10  131.84   14.43
  -1   2 -10   93.45   10.42
  -1   2 -10  114.78   12.99
   1   2  10  121.60   12.22
   1   2  11   85.19    9.35
   1   2  11   82.32    9.35
   1   3 -11  181.18   14.17
   1   3 -11  203.35   16.25
  -1   3  11  237.34   17.07
   1   3 -11  185.98   13.10
  -1   3  11  218.82   16.91
  -1   3  11  192.84   13.56
   1   3 -10  880.10   34.71
  -1   3  10  729.93   35.96
  -1   3  10  892.77   38.89
   1   3 -10  771.68   32.30
   1   3 -10  862.90   39.41
   1   3 -10  771.95   34.04
  -1   3  10  825.90   33.75
   1   3  -9  223.11   19.29
   1   3  -9  189.58   18.55
   1   3  -9  195.70   18.59
   1   3  -9  239.37   19.74
  -1   3   9  216.88   18.50
   1   3  -9  203.91   16.97
  -1   3   9  222.26   21.03
  -1   3   9  248.34   22.74
   1   3  -9  238.16   22.32
   1   3  -8   32.50    7.08
   1   3  -8   18.58    6.06
   1   3  -8   30.80    8.00
   1   3  -8   37.79    8.30
   1   3  -8   33.67    8.92
   1   3  -8   29.83    7.21
   1   3  -8   26.97    6.12
  -1   3   8   35.43    7.79
  -1   3   7  587.18   55.10
   1   3  -7  485.27   30.83
   1   3  -7  529.30   32.71
   1   3  -7  470.03   28.26
   1   3  -7  517.22   27.70
   1   3  -7  506.59   29.15
   1   3  -7  539.36   27.38
   1   3  -7  571.85   30.21
   1   3  -7  480.47   28.85
  -1   3   7  563.87   29.68
  -1   3   6 2343.81  103.35
   1   3  -6 1936.85   54.01
   1   3  -6 1892.45   58.81
   1   3  -6 2177.45   52.74
   1   3  -6 2087.89   53.96
   1   3  -6 2132.55   58.37
  -1   3   6 2199.06   55.70
   1   3  -6 2018.09   56.64
   1   3  -6 2201.82   63.55
   1   3  -6 2231.59   54.12
  -1   3   5  944.23   28.20
  -1   3   5  945.46   24.66
   1   3  -5  893.22   37.51
  -1   3   5  964.54   62.31
   1   3  -5  821.89   36.41
   1   3  -5  926.06   31.79
   1   3  -5  879.60   33.09
   1   3  -5  916.44   32.75
   1   3  -5  948.08   36.39
   1   3  -5  888.72   36.76
  -1   3   5  921.81   33.42
   1   3  -5  923.23   35.39
   1   3  -4  334.55   21.30
  -1   3   4  334.35   11.43
  -1   3   4  324.85   18.71
   1   3  -4  299.93   20.71
   1   3  -4  335.19   14.29
  -1   3   4  319.56   33.46
   1   3  -4  344.23   20.39
  -1   3   4  313.39   18.47
   1   3  -4  338.31   19.30
   1   3  -4  331.81   18.03
   1   3  -4  319.51   20.74
  -1   3   4  324.73   15.94
   1   3  -4  342.95   18.77
  -1   3   4  343.02   14.05
   1   3  -4  324.48   19.56
   1   3  -3  334.84   17.31
   1   3  -3  363.66   13.79
   1   3  -3  320.60   16.73
  -1   3   3  360.05    9.68
   1   3  -3  308.05   17.82
   1   3  -3  348.52   20.91
  -1   3   3  326.80   31.30
  -1   3   3  376.74   14.02
   1   3  -3  345.65   19.09
  -1   3   3  341.48   17.64
  -1   3   2 4113.64   45.52
   1   3  -2 4096.34   44.28
  -1   3   1 3204.63   39.83
   1   3  -1 3239.10   38.62
  -1   3   0 1760.25   30.10
   1   3   0 1779.63   28.79
  -1   3  -1  635.81   19.29
   1   3   1  596.50   17.52
  -1   3  -2 2539.95   51.10
  -1   3  -2 2599.81   52.59
   1   3   2 2681.74   74.68
  -1   3  -2 2582.77   50.71
   1   3   2 2741.87   46.52
   1   3   2 2788.82   40.34
  -1   3  -2 2787.57   43.37
   1   3   2 2796.19   24.32
  -1   3  -3 3218.83   66.74
  -1   3  -3 3210.17   59.97
   1   3   3 3366.71   89.60
   1   3   3 3510.97   34.89
  -1   3  -3 3341.35   52.43
  -1   3  -3 3106.04   62.48
   1   3   3 3491.32   47.91
  -1   3  -3 3298.91   65.58
   1   3   3 3436.19   54.64
   1   3   3 3307.71   58.44
  -1   3  -3 3231.31   62.02
  -1   3  -3 3314.19   63.47
  -1   3  -3 3374.48   60.38
   1   3   4  694.39   23.09
  -1   3  -4  652.70   32.88
  -1   3  -4  671.39   28.39
   1   3   4  749.22   46.47
  -1   3  -4  606.86   27.62
   1   3   4  666.72   28.43
   1   3   4  733.26   19.19
  -1   3  -4  633.90   30.63
   1   3   4  720.92   26.47
  -1   3  -4  624.33   29.13
  -1   3  -4  679.13   28.63
  -1   3  -4  638.36   30.70
  -1   3  -4  665.97   29.93
  -1   3  -5  106.24   13.37
   1   3   5  126.74   13.49
  -1   3  -5  149.03   14.62
  -1   3  -5  129.99   13.97
  -1   3  -5  114.62   12.42
  -1   3  -5  112.09   15.73
   1   3   5  140.68   21.84
  -1   3  -5  124.81   13.58
  -1   3  -5  129.45   13.18
   1   3   5  121.42   10.78
  -1   3  -5  133.26   13.17
   1   3   5  133.49   11.92
  -1   3  -5  120.52   14.42
  -1   3  -6  355.17   22.63
  -1   3  -6  326.19   25.47
   1   3   6  413.95   39.58
  -1   3  -6  322.73   27.45
  -1   3  -6  364.53   22.88
  -1   3  -6  339.05   22.73
  -1   3  -6  370.65   24.35
  -1   3  -6  358.31   22.83
   1   3   6  380.06   25.10
  -1   3  -6  381.73   24.50
  -1   3  -6  356.15   24.41
   1   3   6  415.96   21.62
  -1   3  -6  378.42   25.94
  -1   3  -7 1295.54   44.20
  -1   3  -7 1462.83   50.43
   1   3   7 1522.61   41.59
  -1   3  -7 1294.22   45.49
  -1   3  -7 1436.40   52.53
  -1   3  -7 1301.58   46.35
  -1   3  -7 1329.14   44.79
   1   3   7 1515.87   51.92
  -1   3  -7 1256.85   41.52
  -1   3  -8  529.94   29.68
  -1   3  -8  523.36   31.52
  -1   3  -8  468.75   25.65
  -1   3  -8  486.35   27.21
   1   3   8  527.63   30.26
  -1   3  -9   19.16    5.48
  -1   3  -9   19.48    5.72
   1   3   9   19.38    5.42
  -1   3  -9   16.21    4.63
   1   3  10   48.68    7.88
   1   3  10   78.99   10.24
   1   3  10   67.06    8.70
  -1   4  10    8.82    3.72
  -1   4  10    8.92    4.19
   1   4 -10    7.72    3.33
   1   4 -10    4.72    2.69
  -1   4  10    8.12    3.24
   1   4 -10    8.47    3.11
   1   4  -9  449.14   25.53
   1   4  -9  439.91   25.65
  -1   4   9  525.96   30.84
  -1   4   9  468.94   27.75
  -1   4   9  448.08   26.35
   1   4  -9  474.62   28.04
   1   4  -9  424.41   23.47
   1   4  -8  818.58   36.09
  -1   4   8  937.36   40.37
  -1   4   8  951.00   76.12
   1   4  -8  823.36   37.93
   1   4  -8  907.34   41.59
   1   4  -8  820.86   37.46
  -1   4   8  882.94   39.72
   1   4  -8  829.73   36.58
  -1   4   8  968.28   43.77
   1   4  -8  719.18   36.62
   1   4  -7  408.15   25.61
   1   4  -7  366.57   27.73
   1   4  -7  355.43   25.29
   1   4  -7  429.46   27.03
   1   4  -7  399.54   25.95
  -1   4   7  427.96   27.34
   1   4  -7  371.87   26.35
   1   4  -7  416.93   28.23
  -1   4   7  414.83   28.33
  -1   4   7  420.44   27.04
  -1   4   7  479.05   54.55
   1   4  -7  372.41   25.85
  -1   4   6  139.04   14.90
   1   4  -6  156.16   16.97
  -1   4   6  143.55   15.68
  -1   4   6  163.43   30.22
   1   4  -6  145.16   15.84
   1   4  -6  132.26   14.68
  -1   4   6  140.99   15.23
   1   4  -6  125.85   15.27
   1   4  -6  153.52   15.71
   1   4  -6  140.60   15.64
   1   4  -6  145.07   14.87
   1   4  -6  137.35   16.70
   1   4  -5  483.60   31.84
  -1   4   5  532.91   29.02
   1   4  -5  511.48   28.77
   1   4  -5  542.43   29.86
   1   4  -5  557.96   28.09
   1   4  -5  537.48   28.34
   1   4  -5  511.16   28.30
  -1   4   5  542.48   22.11
  -1   4   5  519.20   27.27
  -1   4   5  487.90   27.04
  -1   4   5  539.59   51.76
   1   4  -5  534.56   28.12
   1   4  -5  534.79   31.01
  -1   4   5  549.53   24.56
   1   4  -4 1458.10   49.08
   1   4  -4 1491.70   47.27
   1   4  -4 1444.44   43.36
  -1   4   4 1491.06   40.51
   1   4  -4 1518.49   47.64
  -1   4   4 1409.44   42.13
   1   4  -4 1410.93   42.99
  -1   4   4 1492.79   36.17
  -1   4   4 1627.58   87.79
  -1   4   4 1398.02   43.75
   1   4  -4 1406.66   52.17
   1   4  -4 1366.00   44.53
  -1   4   4 1441.30   44.13
   1   4  -4 1399.93   45.00
   1   4  -3 1260.64   39.91
   1   4  -3 1328.39   32.08
  -1   4   3 1279.83   72.92
   1   4  -3 1405.46   43.74
  -1   4   3 1214.98   37.33
  -1   4   3 1364.47   32.88
  -1   4   3 1264.48   47.53
   1   4  -3 1293.50   38.13
  -1   4   3 1295.55   36.91
  -1   4   3 1256.07   39.17
   1   4  -3 1268.08   39.17
   1   4  -3 1348.13   44.99
   1   4  -3 1215.26   40.23
   1   4  -3 1256.17   47.83
   1   4  -3 1282.46   42.16
   1   4  -2  117.08   11.19
  -1   4   2  102.99   18.96
   1   4  -2  114.81   11.26
   1   4  -2  126.67   14.53
  -1   4   2  112.44   10.76
   1   4  -2  106.58   10.35
   1   4  -2  113.51   11.73
  -1   4   2  121.60   11.45
  -1   4   2   87.32   13.21
  -1   4   2   91.53   11.63
   1   4  -2  112.17   11.39
   1   4  -2  128.20    9.37
  -1   4   2  107.81    9.35
   1   4  -2  111.19   11.66
   1   4  -1  583.99   30.58
   1   4  -1  615.09   20.72
  -1   4   1  530.28   24.73
   1   4  -1  552.28   23.74
  -1   4   1  618.89   21.59
   1   4  -1  550.24   25.62
   1   4  -1  505.71   22.88
  -1   4   1  597.28   31.59
  -1   4   1  521.18   23.74
  -1   4   1  559.74   43.29
   1   4  -1  555.92   23.51
  -1   4   1  535.56   25.85
   1   4  -1  587.49   24.71
  -1   4   1  546.92   24.01
   1   4  -1  490.66   34.22
  -1   4   1  545.05   23.26
   1   4   0 1891.95   69.19
  -1   4   0 2094.47   60.21
  -1   4   0 2118.10   48.47
  -1   4   0 2244.58   41.44
   1   4   0 2252.19   40.50
   1   4   0 2052.61   45.32
  -1   4   0 2026.25   50.26
   1   4   0 1912.75   42.03
  -1   4   0 1974.40   46.66
   1   4   0 1840.58   42.72
   1   4   0 2077.45   57.09
  -1   4   0 1811.29   47.50
  -1   4   0 2002.12   81.60
   1   4   0 1985.22   44.38
  -1   4   0 1947.52   46.22
   1   4   0 2018.45   44.43
   1   4   0 1960.68   47.48
  -1   4   0 1971.52   47.66
   1   4   1 2088.23   46.71
  -1   4  -1 2166.43   51.15
  -1   4  -1 2031.77   48.32
  -1   4  -1 2145.49   50.38
   1   4   1 2058.91   75.03
  -1   4  -1 1946.05   49.34
   1   4   1 2301.84   42.34
  -1   4  -1 2248.03   43.07
   1   4   1 2175.99   45.23
  -1   4  -1 2198.96   51.88
   1   4   1 1954.12   45.01
   1   4   1 2234.62   58.00
   1   4   1 2134.21   45.99
  -1   4  -1 2092.66   52.95
  -1   4  -1 2242.77   62.92
  -1   4  -2  792.52   31.87
  -1   4  -2  854.05   35.42
  -1   4  -2  858.25   32.92
  -1   4  -2  890.54   35.09
   1   4   2  957.44   54.57
  -1   4  -2  891.42   40.06
  -1   4  -2  884.33   34.49
   1   4   2  854.96   28.06
   1   4   2  896.36   36.46
   1   4   2  859.69   30.24
   1   4   2  885.93   27.23
   1   4   2  863.32   30.75
  -1   4  -2  842.54   27.69
  -1   4  -2  851.02   33.00
  -1   4  -3   78.95   11.18
   1   4   3   71.43    8.95
  -1   4  -3   66.10    9.93
  -1   4  -3   71.43    9.61
  -1   4  -3   64.49    9.76
   1   4   3   77.46    9.65
  -1   4  -3   60.01    9.76
   1   4   3   69.65   15.24
  -1   4  -3   61.82    7.94
  -1   4  -3   74.37   11.56
   1   4   3   67.64    7.94
  -1   4  -3   58.72    9.07
  -1   4  -4  618.81   31.86
  -1   4  -4  634.37   29.09
   1   4   4  706.94   52.71
   1   4   4  609.56   27.38
  -1   4  -4  629.97   32.76
  -1   4  -4  666.92   31.17
  -1   4  -4  591.76   31.46
  -1   4  -4  570.37   29.38
   1   4   4  615.92   29.59
  -1   4  -4  637.82   34.58
  -1   4  -4  625.33   34.06
  -1   4  -5 2000.94   60.90
  -1   4  -5 1754.58   52.90
  -1   4  -5 1890.80   61.55
   1   4   5 2034.62   51.96
  -1   4  -5 1895.03   54.31
  -1   4  -5 1904.90   52.91
  -1   4  -5 1922.91   59.15
  -1   4  -5 1859.52   64.32
   1   4   5 1876.89   54.95
  -1   4  -6  145.19   16.81
   1   4   6  147.40   14.00
  -1   4  -6  143.10   16.30
   1   4   6  159.68   27.15
  -1   4  -6  133.22   14.35
   1   4   6  127.80   13.86
  -1   4  -6  104.66   16.24
   1   4   6  141.81   15.76
  -1   4  -6  120.57   13.88
  -1   4  -6  115.32   13.13
   1   4   7   57.06   17.70
   1   4   7   69.05   10.44
   1   4   7   93.60   12.96
  -1   4  -7   65.88    9.66
  -1   4  -7   74.86   11.28
  -1   4  -7   72.96   10.16
  -1   4  -7   86.30   12.52
   1   4   7   78.82    9.53
   1   4   8  284.13   22.39
  -1   4  -8  200.46   15.34
   1   4   8  258.84   20.65
   1   4   8  266.57   19.90
   1   4   9  424.51   22.61
   1   4   9  471.15   24.80
  -1   5   9  198.38   15.66
   1   5  -9  118.13   11.53
   1   5  -9  149.11   12.36
  -1   5   9  195.79   15.89
   1   5  -9  150.49   12.50
   1   5  -9  173.13   13.94
   1   5  -8    7.60    4.51
  -1   5   8   10.36   10.50
   1   5  -8    3.77    2.88
  -1   5   8    8.62    4.07
  -1   5   8    9.11    3.97
   1   5  -8    1.00    1.40
   1   5  -8    4.15    3.03
   1   5  -8    5.93    3.06
   1   5  -8   10.17    4.37
   1   5  -7  368.17   24.61
   1   5  -7  396.98   25.22
  -1   5   7  386.94   26.31
   1   5  -7  359.93   27.36
  -1   5   7  425.96   26.86
   1   5  -7  410.53   26.93
  -1   5   7  377.79   50.15
   1   5  -7  368.70   25.17
   1   5  -7  356.09   24.06
   1   5  -6 1279.02   48.03
  -1   5   6 1443.96   49.32
  -1   5   6 1444.60   51.21
  -1   5   6 1557.27   45.78
  -1   5   6 1623.89  103.14
   1   5  -6 1507.91   50.98
   1   5  -6 1325.29   49.40
   1   5  -6 1319.39   55.14
   1   5  -6 1472.39   52.70
   1   5  -6 1364.75   48.54
  -1   5   5  256.04   19.00
  -1   5   5  240.59   19.39
   1   5  -5  225.69   23.46
   1   5  -5  225.66   20.71
   1   5  -5  239.49   20.10
   1   5  -5  252.00   20.71
   1   5  -5  232.77   20.65
   1   5  -5  270.94   22.24
  -1   5   5  289.65   43.18
   1   5  -5  253.03   20.87
  -1   5   5  239.87   20.36
  -1   5   4   20.95    5.85
   1   5  -4   25.30    6.56
  -1   5   4   17.22    4.98
   1   5  -4   14.81    4.92
   1   5  -4   22.06    6.43
   1   5  -4   17.38    7.28
   1   5  -4   20.24    5.93
   1   5  -4   21.51    6.15
   1   5  -4   14.32    5.33
  -1   5   4   18.21   11.57
   1   5  -3 1161.05   43.91
  -1   5   3 1100.80   41.23
   1   5  -3 1094.56   50.57
   1   5  -3 1093.19   39.90
  -1   5   3 1263.90   85.00
   1   5  -3 1210.13   44.03
   1   5  -3 1182.72   42.37
   1   5  -3  996.05   39.62
   1   5  -3 1155.14   44.41
  -1   5   3 1139.22   40.08
   1   5  -2 1668.57   61.42
  -1   5   2 1737.50   63.32
  -1   5   2 1620.17   52.01
  -1   5   2 1745.64   46.64
  -1   5   2 1676.96   49.31
   1   5  -2 1474.72   45.86
  -1   5   2 1726.96   96.78
  -1   5   2 1697.66   49.16
   1   5  -2 1683.46   48.40
   1   5  -2 1613.01   48.30
   1   5  -2 1687.21   52.59
   1   5  -2 1641.84   50.83
   1   5  -1 1085.47   39.12
   1   5  -1 1201.80   40.50
   1   5  -1 1227.83   51.95
  -1   5   1 1180.23   43.03
  -1   5   1 1122.00   38.72
  -1   5   1 1157.65   40.43
  -1   5   1 1235.27   42.24
   1   5  -1 1233.34   66.61
  -1   5   1 1277.24   78.31
   1   5  -1 1193.92   40.62
  -1   5   1 1305.94   54.33
   1   5  -1 1246.30   42.53
  -1   5   1 1168.33   44.74
   1   5  -1 1220.35   43.44
  -1   5   0  619.10   29.41
   1   5   0  599.80   26.57
  -1   5   0  643.50   31.09
  -1   5   0  654.58   31.04
  -1   5   0  669.91   56.21
  -1   5   0  653.95   33.29
   1   5   0  634.28   29.31
   1   5   0  637.41   28.75
   1   5   0  640.94   36.54
   1   5   0  584.82   28.58
   1   5   0  670.73   29.78
  -1   5   0  633.92   38.08
   1   5   0  595.49   46.83
  -1   5   0  644.50   32.99
  -1   5  -1    7.84    3.09
   1   5   1    5.37    3.94
   1   5   1    9.94    4.03
   1   5   1    2.22    2.20
  -1   5  -1    6.78    4.30
   1   5   1    3.17    6.20
  -1   5  -1   12.79    4.58
  -1   5  -1    6.30    2.80
  -1   5  -1    9.10    4.53
  -1   5  -1    6.33    2.95
  -1   5  -1   10.56    4.49
   1   5   1    7.64    3.11
   1   5   1    5.60    2.39
   1   5   2  756.23   39.08
   1   5   2  739.77   57.09
  -1   5  -2  701.55   35.15
  -1   5  -2  705.95   34.87
   1   5   2  772.99   29.67
   1   5   2  690.66   30.64
  -1   5  -2  778.73   42.23
  -1   5  -2  718.37   33.52
  -1   5  -2  712.61   35.32
   1   5   2  714.40   31.82
  -1   5  -2  702.24   32.59
  -1   5  -2  697.21   36.09
  -1   5  -3 1526.56   49.58
  -1   5  -3 1543.82   54.22
   1   5   3 1640.83   88.59
  -1   5  -3 1444.22   50.42
   1   5   3 1574.97   47.61
  -1   5  -3 1498.93   49.51
  -1   5  -3 1552.22   54.37
  -1   5  -3 1532.81   55.51
   1   5   3 1545.94   47.75
  -1   5  -3 1490.39   59.45
  -1   5  -4  818.20   43.41
  -1   5  -4  852.33   41.47
  -1   5  -4  834.24   42.07
  -1   5  -4  745.85   36.57
   1   5   4  841.12   35.10
  -1   5  -4  883.41   43.31
   1   5   4  963.78   70.86
   1   5   4  824.64   36.48
  -1   5  -4  832.44   36.87
  -1   5  -5  188.18   19.99
  -1   5  -5  203.63   18.00
  -1   5  -5  185.02   21.16
   1   5   5  220.42   34.26
   1   5   5  210.61   17.72
   1   5   5  209.69   18.65
  -1   5  -5  196.80   18.52
  -1   5  -5  194.01   19.49
  -1   5  -5  220.27   21.42
   1   5   6  352.46   23.59
  -1   5  -6  302.33   23.47
   1   5   6  340.12   24.05
   1   5   6  333.05   21.01
  -1   5  -6  330.64   24.73
  -1   5  -6  347.04   26.24
   1   5   6  361.80   44.67
  -1   5  -6  293.46   25.29
  -1   5  -6  302.52   21.76
  -1   5  -6  332.85   22.07
  -1   5  -7  572.68   29.59
  -1   5  -7  500.96   30.09
   1   5   7  638.48   30.51
  -1   5  -7  577.85   26.56
  -1   5  -7  517.58   26.98
   1   5   7  606.73   30.89
   1   5   7  636.38   58.55
   1   5   8  162.47   13.89
   1   5   8  163.57   14.67
  -1   5  -8   97.48   10.92
  -1   5  -8  115.08   11.21
   1   5   9   24.23    4.83
   1   6  -8  160.94   13.91
   1   6  -8  178.83   13.86
  -1   6   8  239.31   17.06
  -1   6   8  185.76   29.95
   1   6  -8  193.03   13.72
   1   6  -7   83.98   11.33
  -1   6   7   99.91   23.69
   1   6  -7   87.75   10.81
   1   6  -7   75.77   10.08
   1   6  -7   84.80   10.69
   1   6  -7   65.62   10.45
  -1   6   7   90.05   11.21
   1   6  -6   19.35    5.81
   1   6  -6   14.92    5.88
   1   6  -6   17.65    5.60
  -1   6   6   17.92    5.27
   1   6  -6   29.96    8.16
  -1   6   6   33.90   16.64
  -1   6   6   18.95    5.95
   1   6  -6   14.67    5.08
   1   6  -5  225.60   19.84
   1   6  -5  242.83   20.82
  -1   6   5  212.01   17.24
   1   6  -5  194.80   20.01
  -1   6   5  207.70   18.97
   1   6  -5  186.87   18.04
  -1   6   5  204.54   37.11
   1   6  -5  178.31   21.37
   1   6  -5  217.03   19.64
   1   6  -4  488.46   36.46
   1   6  -4  485.67   30.76
   1   6  -4  481.67   29.62
   1   6  -4  588.10   32.99
  -1   6   4  604.35   65.71
   1   6  -4  545.37   31.73
   1   6  -4  573.80   31.41
  -1   6   4  520.11   29.01
  -1   6   4  567.67   31.36
   1   6  -3  630.11   33.69
   1   6  -3  598.78   32.07
  -1   6   3  617.44   32.67
  -1   6   3  667.60   65.53
   1   6  -3  580.30   33.71
  -1   6   3  604.98   32.03
   1   6  -3  585.88   33.07
   1   6  -3  620.12   34.19
   1   6  -3  602.11   40.46
  -1   6   2   12.40    7.37
   1   6  -2   30.86    6.95
  -1   6   2   30.44    7.25
   1   6  -2   27.72    9.03
   1   6  -2   27.86    7.41
   1   6  -2   20.59    6.48
  -1   6   2   25.23    6.49
   1   6  -2   25.21    7.06
   1   6  -2   30.22    6.77
  -1   6   2   39.86   17.00
  -1   6   1  247.32   22.22
  -1   6   1  243.51   20.05
   1   6  -1  248.88   25.80
  -1   6   1  250.60   21.59
  -1   6   1  243.47   26.10
  -1   6   1  233.28   21.23
   1   6  -1  250.61   21.02
   1   6  -1  233.59   20.33
   1   6  -1  255.48   20.33
  -1   6   1  260.03   39.02
   1   6  -1  235.24   33.28
  -1   6   1  246.21   19.76
   1   6  -1  264.03   20.93
   1   6   0  668.28   33.28
  -1   6   0  640.85   36.26
  -1   6   0  621.20   32.81
   1   6   0  660.04   32.16
  -1   6   0  693.12   43.82
  -1   6   0  712.61   36.29
   1   6   0  599.07   39.60
  -1   6   0  641.35   32.23
  -1   6   0  590.86   35.79
   1   6   0  661.71   33.87
  -1   6   0  602.90   58.27
   1   6   0  659.67   56.52
  -1   6  -1  668.05   35.98
   1   6   1  558.72   52.93
   1   6   1  661.73   33.14
  -1   6  -1  625.40   36.77
  -1   6  -1  629.43   34.17
  -1   6  -1  636.99   42.13
   1   6   1  684.61   31.60
   1   6   1  659.36   30.27
  -1   6  -1  638.20   32.26
   1   6   1  707.66   41.37
  -1   6  -1  628.42   37.24
   1   6   2  133.47   26.31
  -1   6  -2  143.76   15.25
  -1   6  -2  147.55   17.58
  -1   6  -2  136.89   19.41
   1   6   2  141.91   14.29
  -1   6  -2  157.75   18.56
   1   6   2  147.38   15.28
  -1   6  -2  146.73   16.65
   1   6   2  142.54   17.49
  -1   6  -2  156.39   18.19
  -1   6  -2  145.73   15.56
  -1   6  -3    9.33    5.03
  -1   6  -3    1.03    2.06
  -1   6  -3    2.97    2.62
   1   6   3    0.75    1.48
  -1   6  -3    1.13    3.15
   1   6   3    5.23    2.81
   1   6   3    1.89    3.59
  -1   6  -3    3.31    2.78
  -1   6  -3    3.29    2.52
   1   6   4  197.90   17.30
   1   6   4  201.12   33.99
  -1   6  -4  181.20   19.71
  -1   6  -4  188.11   20.77
  -1   6  -4  185.53   19.31
  -1   6  -4  197.86   17.62
  -1   6  -4  153.64   19.76
   1   6   4  172.54   16.33
  -1   6  -4  185.40   19.27
  -1   6  -5  180.06   19.22
  -1   6  -5  186.61   19.50
   1   6   5  178.48   16.52
  -1   6  -5  215.68   19.98
   1   6   5  188.78   16.24
   1   6   5  196.32   33.10
  -1   6  -5  169.47   17.73
  -1   6  -5  201.96   20.50
  -1   6  -5  180.72   15.95
  -1   6  -6  358.32   25.23
  -1   6  -6  427.23   25.69
  -1   6  -6  317.72   22.56
   1   6   6  476.32   50.35
  -1   6  -6  379.40   23.95
   1   6   6  400.37   21.26
   1   6   6  456.43   25.09
  -1   6  -6  404.13   21.48
  -1   6  -6  420.71   26.66
  -1   6  -7    8.45    3.30
  -1   6  -7    9.62    3.83
   1   6   7   10.49    7.01
   1   6   7    8.41    3.61
  -1   6  -7    7.48    3.01
  -1   7   6  443.70   46.73
   1   7  -6  390.55   22.63
   1   7  -6  326.77   19.88
   1   7  -6  434.44   22.83
  -1   7   6  452.17   22.79
   1   7  -6  319.50   21.93
   1   7  -5  576.18   28.89
  -1   7   5  518.91   25.10
  -1   7   5  616.29   59.05
   1   7  -5  472.78   30.09
  -1   7   5  542.19   26.75
   1   7  -5  433.41   25.43
   1   7  -5  509.62   28.64
  -1   7   4    4.00    3.37
   1   7  -4    4.96    2.83
   1   7  -4    2.37    2.45
   1   7  -4    1.87    2.44
   1   7  -4   11.50    5.22
  -1   7   4    2.44    3.13
  -1   7   4    4.74    2.90
   1   7  -4    7.75    3.40
   1   7  -3  447.98   27.93
   1   7  -3  523.41   29.63
   1   7  -3  484.88   28.02
  -1   7   3  459.42   27.50
  -1   7   3  550.11   28.59
   1   7  -3  452.54   33.27
  -1   7   3  558.21   60.56
   1   7  -3  470.80   28.37
   1   7  -2 1062.88   41.70
  -1   7   2 1088.75   40.67
   1   7  -2 1006.60   49.98
  -1   7   2 1144.80   84.08
  -1   7   2  974.67   41.31
   1   7  -2  972.25   41.46
   1   7  -2 1014.35   41.25
   1   7  -2 1011.13   42.54
  -1   7   1 1227.06   47.63
   1   7  -1 1250.53   46.19
  -1   7   1 1072.36   40.48
   1   7  -1 1178.31   44.61
   1   7  -1 1150.67   43.56
   1   7  -1 1202.20   54.84
  -1   7   1 1266.15   43.27
  -1   7   1 1352.31   88.42
   1   7   0  565.87   29.12
  -1   7   0  540.70   32.05
  -1   7   0  564.14   38.05
  -1   7   0  518.24   30.37
   1   7   0  591.24   37.29
   1   7   0  606.19   31.82
   1   7   0  591.84   54.41
  -1   7   0  519.70   29.61
  -1   7   0  571.60   28.70
   1   7   1   35.89    7.73
  -1   7  -1   30.89    7.67
  -1   7  -1   53.18    9.85
  -1   7  -1   22.50    6.55
  -1   7  -1   34.75    8.17
   1   7   1   45.98   16.82
  -1   7  -1   32.65    9.33
  -1   7  -2  600.93   34.83
   1   7   2  594.93   30.98
  -1   7  -2  598.55   32.62
  -1   7  -2  675.85   35.79
  -1   7  -2  658.93   39.72
   1   7   2  727.24   63.33
  -1   7  -2  598.10   33.92
  -1   7  -3  711.90   35.27
   1   7   3  708.69   32.09
  -1   7  -3  752.56   37.41
   1   7   3  744.94   30.20
  -1   7  -3  701.35   36.77
  -1   7  -3  711.92   39.94
  -1   7  -3  692.38   35.28
   1   7   3  817.13   66.57
   1   7   4  245.19   17.39
  -1   7  -4  247.96   19.83
   1   7   4  254.46   17.07
  -1   7  -4  221.28   19.62
  -1   7  -4  223.76   19.67
  -1   7  -4  204.78   19.35
  -1   7  -4  239.33   19.66
  -1   7  -5    0.94    1.37
  -1   7  -5    1.65    2.70
  -1   7  -5    0.56    1.40
   1   7   5    3.30    2.41
   1   7   5    7.71    8.17
  -1   7  -5   -0.74    1.81
  -1   7  -5    4.56    3.53
   1   7   5    2.45    2.11
   1   8  -3  293.23   21.15
   1   8  -3  375.69   20.37
   1   8  -2   73.10    8.92
   1   8  -2   51.56    8.82
  -1   8   2   67.65    9.04
   1   8  -2   75.51    9.15
   1   8  -1   57.93    7.85
   1   8  -1   76.39    9.65
  -1   8   1   72.70    9.91
  -1   8   0  473.19   25.33
   1   8   0  513.43   25.47
   1   8   1  362.04   20.74
  -1   8  -1  442.38   25.25
  -1   8  -2  174.54   14.99
   1   8   2  165.24   13.26
  -2  -8   3  291.19   14.57
   2  -8  -3  323.22   15.43
   2  -8  -2   77.15    7.81
  -2  -8   2   92.19    8.32
   2  -8  -2   87.94    8.16
   2  -8  -1   32.51    5.25
  -2  -8   1   46.04    5.97
   2  -8  -1   42.19    5.52
   2  -8  -1   37.38    4.77
   2  -8   0  193.82   11.01
  -2  -8   0  223.08   12.78
   2  -8   0  209.23   12.15
   2  -8   1  423.93   18.38
   2  -8   1  450.07   17.00
   2  -7  -7  109.95    9.07
   2  -7  -6  946.97   29.76
   2  -7  -5  776.89   26.31
  -2  -7   5  681.04   24.96
  -2  -7   4  151.24   12.63
   2  -7  -4  172.83   13.56
  -2  -7   4  209.79   15.77
   2  -7  -4  188.44   14.64
  -2  -7   3    0.41    1.11
   2  -7  -3   -0.10    1.05
   2  -7  -3    1.07    1.54
  -2  -7   3    0.95    0.48
   2  -7  -3    0.28    1.67
   2  -7  -2  471.49   24.60
   2  -7  -2  414.74   22.44
  -2  -7   2  418.71   22.12
  -2  -7   2  455.62   23.88
  -2  -7   2  403.57   19.44
   2  -7  -2  455.08   21.50
  -2  -7   1 1207.15   37.91
   2  -7  -1 1167.31   41.37
  -2  -7   1 1295.16   40.10
   2  -7  -1 1223.41   38.51
   2  -7  -1 1252.19   37.28
  -2  -7   1 1161.83   34.29
  -2  -7   0  548.67   25.20
   2  -7   0  582.44   26.24
  -2  -7   0  623.77   27.25
  -2  -7   0  535.50   23.64
   2  -7   1    3.36    2.23
  -2  -7  -1    6.26    2.81
  -2  -7  -1    6.14    2.72
  -2  -7  -1   10.46    3.66
  -2  -7  -2  312.00   18.30
  -2  -7  -2  298.87   17.50
  -2  -7  -2  314.97   17.81
   2  -7   2  287.69   17.21
  -2  -7  -3 1156.09   32.12
  -2  -7  -3 1175.65   33.86
  -2  -7  -3 1156.82   34.30
  -2  -7  -4  422.97   19.49
  -2  -7  -4  449.93   18.46
  -2  -7  -4  460.94   20.13
  -2  -7  -5  204.80   12.17
   2  -6  -8  253.93   15.51
  -2  -6   8  120.41   10.83
   2  -6  -7  307.56   17.41
   2  -6  -7  318.89   19.32
   2  -6  -6  354.37   18.83
   2  -6  -6  369.82   21.88
  -2  -6   5   71.34    8.73
  -2  -6   5   68.02    9.65
   2  -6  -5   86.75   10.04
   2  -6  -5   88.92   10.83
   2  -6  -5   73.03    8.14
  -2  -6   4  206.72   16.91
   2  -6  -4  234.77   17.69
  -2  -6   4  196.62   14.77
   2  -6  -4  214.91   17.70
   2  -6  -4  228.24   15.45
   2  -6  -3  739.27   31.50
  -2  -6   3  720.27   32.13
  -2  -6   3  716.67   28.87
   2  -6  -3  698.29   31.65
   2  -6  -3  737.37   28.76
  -2  -6   2  344.24   22.13
  -2  -6   2  364.82   20.87
   2  -6  -2  362.98   22.00
   2  -6  -2  373.36   20.68
  -2  -6   1    5.21    2.63
  -2  -6   1    5.81    2.76
  -2  -6   1    5.75    2.85
   2  -6  -1    6.61    3.22
  -2  -6   0  500.62   26.29
  -2  -6   0  497.34   25.71
  -2  -6   0  481.18   24.24
   2  -6   0  505.63   25.82
  -2  -6  -1  607.30   28.71
  -2  -6  -1  647.01   28.70
   2  -6   1  618.96   28.56
  -2  -6  -1  628.22   27.88
  -2  -6  -2  236.76   17.30
   2  -6   2  237.09   17.46
  -2  -6  -2  238.47   17.87
  -2  -6  -2  253.06   17.44
  -2  -6  -3  152.11   14.10
  -2  -6  -3  176.71   14.99
  -2  -6  -3  174.10   14.06
  -2  -6  -4    1.29    1.36
  -2  -6  -4    1.12    1.61
  -2  -6  -4    2.34    1.76
  -2  -6  -5  258.18   15.41
  -2  -6  -5  251.16   17.06
  -2  -6  -5  276.98   17.88
  -2  -6  -6  612.58   24.76
  -2  -6  -6  638.26   25.41
  -2  -6  -7  198.87   12.62
  -2  -6  -7  162.44   11.07
   2  -5 -10  628.28   22.08
   2  -5 -10  625.56   23.56
   2  -5  -9  597.71   25.92
   2  -5  -9  612.84   25.33
   2  -5  -8   49.46    7.29
   2  -5  -8   65.00    8.94
   2  -5  -8   72.97    9.65
   2  -5  -7  133.93   13.07
   2  -5  -7  118.19   11.61
   2  -5  -7  138.68   13.57
   2  -5  -6 1086.60   35.27
   2  -5  -6 1169.30   36.33
   2  -5  -6 1130.94   39.57
   2  -5  -6 1161.73   38.14
   2  -5  -5 1482.34   44.30
   2  -5  -5 1478.18   41.04
   2  -5  -5 1437.48   41.50
   2  -5  -5 1501.11   37.73
   2  -5  -4 1231.09   39.60
   2  -5  -4 1276.75   39.97
   2  -5  -4 1271.91   36.87
   2  -5  -4 1274.68   35.93
   2  -5  -3   37.86    5.97
  -2  -5   3   33.49    6.07
   2  -5  -3   32.04    6.27
  -2  -5   2  505.21   25.77
   2  -5  -2  486.91   23.90
  -2  -5   2  482.42   23.25
   2  -5  -1 1806.69   46.01
  -2  -5   1 1778.77   44.71
  -2  -5   1 1836.91   48.25
  -2  -5   0 1679.73   43.32
  -2  -5   0 1731.89   46.82
  -2  -5   0 1675.97   44.29
   2  -5   0 1648.36   43.76
  -2  -5  -1  218.94   16.48
  -2  -5  -1  212.64   15.49
  -2  -5  -1  209.24   15.41
  -2  -5  -2  530.90   25.35
  -2  -5  -2  558.52   26.66
  -2  -5  -2  539.09   24.59
  -2  -5  -3 1628.07   42.69
  -2  -5  -3 1675.33   47.24
  -2  -5  -3 1672.65   46.12
  -2  -5  -4 1031.59   37.61
  -2  -5  -4 1014.60   36.76
  -2  -5  -4 1001.05   33.38
  -2  -5  -5  203.25   16.70
  -2  -5  -5  215.12   15.22
  -2  -5  -5  212.62   17.00
  -2  -5  -6   13.85    4.53
  -2  -5  -6   19.71    5.03
  -2  -5  -6   20.96    4.40
  -2  -5  -7  214.10   15.65
  -2  -5  -7  191.77   14.68
  -2  -5  -8  254.43   14.92
  -2  -5  -8  307.89   16.56
   2  -4 -11  298.34   17.40
   2  -4 -11  291.21   14.85
   2  -4 -10   37.85    7.13
   2  -4 -10   49.25    7.30
   2  -4 -10   35.81    6.20
   2  -4  -9  158.87   14.27
   2  -4  -9  148.59   14.52
   2  -4  -9  168.06   14.70
   2  -4  -8  575.70   28.72
   2  -4  -8  587.46   28.77
   2  -4  -8  560.68   27.01
   2  -4  -7 1401.44   41.56
   2  -4  -7 1360.35   42.70
   2  -4  -6  389.11   20.74
   2  -4  -6  400.32   22.45
   2  -4  -6  349.55   17.87
   2  -4  -6  374.55   20.20
   2  -4  -6  404.77   22.04
   2  -4  -5  171.42   12.88
   2  -4  -5  170.66    9.67
   2  -4  -5  132.68   13.18
   2  -4  -5  181.69   14.42
   2  -4  -5  175.46   13.48
   2  -4  -5  182.25   12.47
   2  -4  -4 1280.10   36.37
   2  -4  -4 1183.89   31.81
  -2  -4   4 1080.38   29.54
   2  -4  -4 1162.06   34.54
   2  -4  -4 1167.25   25.36
   2  -4  -4 1274.57   32.68
   2  -4  -4 1194.26   32.47
   2  -4  -3 2275.77   46.76
  -2  -4   3 2283.47   47.05
  -2  -4   3 2228.69   39.41
   2  -4  -3 2235.92   34.56
   2  -4  -3 2295.05   44.02
  -2  -4   2  972.69   23.83
   2  -4  -2  963.95   23.13
  -2  -4   1   25.80    4.73
  -2  -4   1   30.33    3.87
   2  -4  -1   27.41    3.92
  -2  -4   1   16.25    4.57
   2  -4  -1   23.19    4.52
   2  -4   0 1997.56   34.47
  -2  -4   0 1971.12   29.10
  -2  -4   0 2064.49   45.57
  -2  -4   0 1969.15   41.97
  -2  -4  -1  955.40   29.83
   2  -4   1  888.15   23.95
  -2  -4  -1  955.21   29.27
  -2  -4  -2 1692.18   42.65
   2  -4   2 1694.59   35.16
  -2  -4  -2 1726.09   40.92
  -2  -4  -2 1659.51   38.93
  -2  -4  -2 1747.83   41.55
  -2  -4  -3  118.97   11.21
  -2  -4  -3  115.92   11.05
  -2  -4  -3  115.10   11.48
  -2  -4  -3  119.51   10.48
  -2  -4  -4  297.41   18.79
  -2  -4  -4  295.95   17.24
  -2  -4  -4  297.76   19.25
  -2  -4  -4  272.68   18.92
  -2  -4  -4  280.98   18.68
  -2  -4  -5  459.77   26.35
  -2  -4  -5  491.78   26.77
  -2  -4  -5  471.78   25.32
  -2  -4  -5  484.38   24.95
  -2  -4  -5  477.17   22.53
  -2  -4  -6 1098.24   34.30
  -2  -4  -6 1121.81   41.81
  -2  -4  -6 1132.10   42.58
  -2  -4  -6 1167.62   39.65
  -2  -4  -6 1025.18   37.97
  -2  -4  -7  203.16   16.37
  -2  -4  -7  207.23   17.88
  -2  -4  -7  240.54   19.17
  -2  -4  -7  244.87   17.82
  -2  -4  -8   17.86    5.59
  -2  -4  -8   26.47    5.36
  -2  -4  -8   26.24    5.54
  -2  -4  -9  353.02   17.58
  -2  -4  -9  322.32   16.93
   2  -3 -11  156.09   12.33
   2  -3 -11  149.52   13.89
   2  -3 -11  137.61   12.53
   2  -3 -10  447.21   26.29
   2  -3 -10  481.76   27.04
   2  -3 -10  465.75   25.22
   2  -3 -10  482.45   24.73
   2  -3  -9  491.29   27.82
   2  -3  -9  456.54   25.43
   2  -3  -9  425.19   26.99
   2  -3  -9  493.79   26.18
   2  -3  -8  237.29   18.60
   2  -3  -8  218.92   17.19
   2  -3  -8  248.93   18.21
   2  -3  -8  211.92   18.78
   2  -3  -7  244.91   17.03
   2  -3  -7  204.68   17.57
   2  -3  -7  224.19   16.64
   2  -3  -7  228.96   14.04
   2  -3  -7  246.73   17.60
   2  -3  -6 1121.98   33.81
   2  -3  -6 1099.88   34.52
   2  -3  -6 1076.15   24.04
   2  -3  -6 1099.08   31.89
   2  -3  -6 1096.28   34.48
   2  -3  -6 1036.92   28.74
   2  -3  -5 3006.45   50.49
  -2  -3   5 2864.95   41.00
   2  -3  -5 2886.44   50.85
   2  -3  -5 2790.11   49.74
   2  -3  -5 2902.64   35.95
   2  -3  -5 2968.09   52.67
   2  -3  -5 2807.75   45.39
   2  -3  -4 1012.09   19.96
   2  -3  -4 1065.93   29.43
   2  -3  -4 1029.77   27.57
   2  -3  -4 1071.89   29.29
   2  -3  -4 1063.32   26.87
   2  -3  -3  211.62    9.12
  -2  -3   3  219.57    8.32
  -2  -3   3  207.94   10.17
   2  -3  -3  212.06   12.37
   2  -3  -3  218.83   11.78
  -2  -3   2 1951.60   28.69
  -2  -3   2 2029.04   20.18
  -2  -3   1 1490.47   23.16
  -2  -3   1 1528.47   13.93
  -2  -3   0 2630.63   27.63
   2  -3   0 2607.89   33.22
  -2  -3  -1  134.10    6.30
   2  -3   1  145.79    8.26
  -2  -3  -1  145.06    5.67
  -2  -3  -1  145.79   10.10
  -2  -3  -1  139.44   10.40
  -2  -3  -2  301.62   15.29
  -2  -3  -2  303.22   15.87
  -2  -3  -2  298.54   14.37
   2  -3   2  315.06   12.76
  -2  -3  -3 1012.35   31.53
   2  -3   3  956.13   21.61
  -2  -3  -3 1033.05   30.76
   2  -3   3  981.15   24.28
  -2  -3  -3 1000.79   29.37
  -2  -3  -3 1022.77   27.38
   2  -3   4 1234.04   31.56
  -2  -3  -4 1483.32   39.70
  -2  -3  -4 1359.87   40.91
  -2  -3  -4 1462.72   38.34
   2  -3   4 1571.47   32.38
  -2  -3  -4 1511.25   41.70
  -2  -3  -4 1506.32   35.50
  -2  -3  -4 1389.78   43.06
  -2  -3  -5  265.54   17.28
  -2  -3  -5  266.46   17.84
  -2  -3  -5  250.42   19.14
  -2  -3  -5  276.04   19.69
  -2  -3  -5  274.17   16.18
  -2  -3  -5  280.72   20.78
  -2  -3  -6   59.91    9.99
  -2  -3  -6   62.85   10.38
  -2  -3  -6   75.21   11.00
  -2  -3  -6   51.55    9.43
  -2  -3  -6   54.56    7.45
  -2  -3  -6   64.71    9.02
  -2  -3  -6   57.35    8.66
  -2  -3  -7  959.31   41.19
  -2  -3  -7 1034.92   43.23
  -2  -3  -7 1011.38   37.62
  -2  -3  -7  927.41   40.79
  -2  -3  -7  998.16   41.92
  -2  -3  -7 1055.02   37.64
  -2  -3  -8  362.60   21.52
  -2  -3  -8  319.98   20.45
  -2  -3  -8  250.83   20.44
  -2  -3  -8  297.85   22.02
  -2  -3  -8  336.25   23.57
  -2  -3  -8  293.61   22.59
  -2  -3  -9  179.85   14.02
  -2  -3  -9  167.56   15.58
  -2  -3  -9  177.81   13.60
  -2  -3  -9  202.24   16.37
  -2  -3 -10   19.34    3.98
   2  -2 -12  294.23   18.81
   2  -2 -12  267.87   16.71
   2  -2 -12  281.49   15.18
   2  -2 -11  307.11   21.93
   2  -2 -11  260.33   18.81
   2  -2 -11  271.88   21.49
   2  -2 -11  287.31   18.46
   2  -2 -11  278.18   21.17
   2  -2 -10  113.37   14.62
   2  -2 -10  121.33   14.29
   2  -2 -10  105.35   14.38
   2  -2 -10  120.00   12.81
   2  -2 -10  112.49   12.98
   2  -2  -9   99.58   14.29
   2  -2  -9  115.02   12.67
   2  -2  -9  121.31   13.30
   2  -2  -9  116.69   15.30
   2  -2  -9  110.99   13.22
   2  -2  -8  598.17   32.58
   2  -2  -8  610.41   33.76
   2  -2  -8  682.30   30.14
   2  -2  -8  703.54   34.91
   2  -2  -8  673.06   30.93
   2  -2  -8  636.06   28.62
   2  -2  -8  676.14   33.48
   2  -2  -7 1117.87   36.64
   2  -2  -7 1148.61   40.77
   2  -2  -7 1054.36   39.49
  -2  -2   7 1135.81   32.18
   2  -2  -7 1082.51   35.15
   2  -2  -7 1152.77   41.77
   2  -2  -7 1103.45   30.31
   2  -2  -7 1041.21   41.24
   2  -2  -7 1131.50   35.41
   2  -2  -7 1089.83   24.75
   2  -2  -7 1046.24   30.95
  -2  -2   6  493.50   18.85
   2  -2  -6  442.87   18.80
   2  -2  -6  485.86   24.96
   2  -2  -6  459.10   23.55
   2  -2  -6  505.59   21.52
   2  -2  -6  422.81   22.75
   2  -2  -6  465.96   14.61
   2  -2  -6  454.18   24.74
   2  -2  -6  446.85   20.69
   2  -2  -6  447.30   18.03
   2  -2  -6  482.68   21.67
   2  -2  -5 1306.41   36.73
   2  -2  -5 1213.34   21.24
   2  -2  -5 1294.14   32.14
   2  -2  -5 1269.34   36.66
   2  -2  -5 1248.07   31.47
  -2  -2   5 1309.45   27.12
   2  -2  -4 2460.72   27.60
  -2  -2   4 2670.05   33.61
   2  -2  -3 5721.26   40.43
  -2  -2   3 6025.76   44.20
  -2  -2   2 1898.57   21.94
   2  -2  -2 1933.64   21.28
   2  -2  -1  235.40    7.12
  -2  -2   1  242.71    7.21
   2  -2   0 1742.21   22.27
  -2  -2   0 1776.81   19.38
  -2  -2   0 1789.02   17.54
  -2  -2   0 1732.39   19.79
  -2  -2  -1 2154.88   25.82
  -2  -2  -1 2163.52   17.48
  -2  -2  -2 1275.89   24.05
   2  -2   2 1300.89   21.82
  -2  -2  -3  277.83   13.85
  -2  -2  -3  275.88   14.25
   2  -2   3  280.25   11.07
  -2  -2  -3  266.35   15.09
  -2  -2  -3  255.64   15.96
  -2  -2  -3  280.30   13.27
  -2  -2  -3  268.57   19.29
   2  -2   3  276.87   12.94
  -2  -2  -4  455.04   23.56
  -2  -2  -4  495.16   24.81
  -2  -2  -4  484.77   24.62
  -2  -2  -4  489.88   21.02
   2  -2   4  530.46   18.42
  -2  -2  -4  494.56   22.79
  -2  -2  -4  481.01   28.55
  -2  -2  -4  460.20   19.49
   2  -2   4  519.31   15.76
  -2  -2  -5 1631.79   57.17
  -2  -2  -5 1517.42   48.15
  -2  -2  -5 1566.53   40.73
  -2  -2  -5 1534.18   44.57
  -2  -2  -5 1585.41   48.72
   2  -2   5 1438.97   33.42
  -2  -2  -5 1473.26   46.95
  -2  -2  -5 1479.40   38.42
  -2  -2  -5 1463.98   35.48
   2  -2   5 1416.24   32.89
  -2  -2  -6 1011.67   35.29
  -2  -2  -6 1000.40   41.55
  -2  -2  -6  968.81   41.38
  -2  -2  -6  994.97   39.23
  -2  -2  -6 1070.64   49.15
  -2  -2  -6 1005.40   34.01
  -2  -2  -6  982.02   42.44
  -2  -2  -7  238.90   17.51
  -2  -2  -7  241.17   21.27
  -2  -2  -7  254.79   25.19
  -2  -2  -7  221.52   20.59
  -2  -2  -7  209.52   20.68
  -2  -2  -7  233.35   17.83
  -2  -2  -7  230.70   20.29
  -2  -2  -8   30.85    6.34
  -2  -2  -8   24.19    7.01
  -2  -2  -8   30.13    7.97
  -2  -2  -8   24.73    6.67
  -2  -2  -8   35.14    6.75
  -2  -2  -8   23.37    6.70
  -2  -2  -9  237.54   19.46
  -2  -2  -9  241.52   17.42
  -2  -2  -9  220.93   19.63
  -2  -2  -9  233.32   20.22
  -2  -2  -9  248.19   17.13
  -2  -2  -9  255.27   19.86
  -2  -2 -10  212.25   13.95
  -2  -2 -10  196.62   15.79
  -2  -2 -10  226.26   16.21
  -2  -2 -10  234.17   17.74
  -2  -2 -10  233.23   14.90
   2  -1 -12   20.30    5.83
   2  -1 -12   27.63    6.20
   2  -1 -12   25.50    6.34
   2  -1 -12   16.10    4.69
   2  -1 -12   24.08    4.63
   2  -1 -11  185.68   16.72
   2  -1 -11  190.53   18.92
   2  -1 -11  200.27   20.32
  -2  -1  11  149.76   14.57
   2  -1 -11  204.84   16.16
   2  -1 -11  212.47   18.77
   2  -1 -10  351.78   24.91
   2  -1 -10  316.91   22.58
   2  -1 -10  328.30   27.19
   2  -1 -10  323.57   26.25
   2  -1 -10  356.39   22.59
   2  -1  -9 1158.33   43.06
   2  -1  -9 1114.19   43.62
   2  -1  -9 1075.68   39.04
   2  -1  -9 1142.03   45.67
   2  -1  -9 1093.56   41.30
   2  -1  -9 1071.82   47.85
   2  -1  -9 1077.53   48.19
   2  -1  -8   32.63    7.22
   2  -1  -8   23.88    5.90
   2  -1  -8   29.17    7.59
   2  -1  -8   27.20    6.29
   2  -1  -8   20.44    6.19
   2  -1  -8   33.43    6.58
   2  -1  -8   27.70    5.79
   2  -1  -8   27.38    4.99
   2  -1  -7  270.10   20.89
   2  -1  -7  291.84   17.89
   2  -1  -7  271.01   20.39
  -2  -1   7  291.20   15.70
   2  -1  -7  266.40   17.57
   2  -1  -7  273.47   15.41
   2  -1  -7  267.47   17.01
   2  -1  -7  267.90   12.26
   2  -1  -7  260.35   14.71
   2  -1  -7  281.59   19.88
   2  -1  -7  261.21   18.26
  -2  -1   6  614.44   20.25
   2  -1  -6  630.39   24.34
   2  -1  -6  611.06   25.62
   2  -1  -6  600.26   26.39
   2  -1  -6  582.63   26.82
   2  -1  -6  602.57   16.11
   2  -1  -6  600.44   28.44
   2  -1  -6  653.31   24.15
   2  -1  -6  601.84   23.19
   2  -1  -6  580.17   20.23
  -2  -1   5 2076.57   32.85
   2  -1  -5 1968.47   26.33
   2  -1  -4   53.78    3.89
  -2  -1   4   48.93    2.24
   2  -1  -4   45.98    2.68
  -2  -1   4   45.14    2.37
  -2  -1   4   54.90    4.79
   2  -1  -3 1858.15   19.85
  -2  -1   3 1765.79   17.03
  -2  -1   2 2809.64   24.87
   2  -1  -2 2884.81   26.38
   2  -1  -2 2787.89   21.62
  -2  -1   2 2850.11   26.86
   2  -1  -1 7957.74   42.95
  -2  -1   1 8065.74   39.55
   2  -1   0 1475.37   19.69
  -2  -1   0 1456.60   18.71
   2  -1   0 1383.13   15.12
  -2  -1   0 1386.03   10.12
  -2  -1   0 1381.63   17.75
   2  -1   1 1789.94   18.53
   2  -1   1 1835.19   22.30
   2  -1   2 1549.49   23.80
  -2  -1  -2 1340.50   23.43
   2  -1   2 1497.67   20.23
   2  -1   2 1370.48   17.70
   2  -1   3 2462.86   26.02
   2  -1   3 2419.41   34.60
   2  -1   4  659.07   19.37
   2  -1   4  660.28   14.93
  -2  -1  -4  638.30   26.95
  -2  -1  -4  629.67   22.37
  -2  -1  -4  635.00   22.28
  -2  -1  -4  619.93   27.20
  -2  -1  -4  544.96   29.54
  -2  -1  -4  661.17   25.61
  -2  -1  -4  624.29   27.68
  -2  -1  -4  659.54   36.04
  -2  -1  -4  627.66   21.18
  -2  -1  -5   33.92    5.67
  -2  -1  -5   29.79    7.74
   2  -1   5   38.38    4.85
  -2  -1  -5   35.13    6.39
  -2  -1  -5   37.93    9.95
  -2  -1  -5   29.38    6.46
  -2  -1  -5   30.85    6.75
  -2  -1  -5   33.77    7.16
   2  -1   5   33.98    4.97
  -2  -1  -5   31.55    5.42
  -2  -1  -6  107.47   15.53
  -2  -1  -6  117.64   13.36
   2  -1   6   64.12    8.46
  -2  -1  -6  116.54   13.46
  -2  -1  -6  113.66   14.12
  -2  -1  -6  119.20   11.56
  -2  -1  -6  108.92   13.70
  -2  -1  -6  118.53   11.13
  -2  -1  -7  748.94   31.32
  -2  -1  -7  793.43   38.08
  -2  -1  -7  729.50   37.81
  -2  -1  -7  798.64   31.25
  -2  -1  -7  721.48   38.98
  -2  -1  -7  745.99   36.47
  -2  -1  -7  859.74   45.31
  -2  -1  -8 1150.68   45.77
  -2  -1  -8 1193.81   40.78
  -2  -1  -8 1090.09   46.61
  -2  -1  -8 1207.63   39.45
  -2  -1  -8 1090.00   46.66
  -2  -1  -8 1243.58   54.51
  -2  -1  -8 1046.35   47.75
  -2  -1  -9  600.88   30.68
  -2  -1  -9  537.72   26.49
  -2  -1  -9  610.94   27.83
  -2  -1  -9  538.70   32.22
  -2  -1  -9  554.80   31.47
  -2  -1  -9  512.73   32.01
  -2  -1 -10   92.75    9.82
  -2  -1 -10   82.21   10.69
  -2  -1 -10  100.67   12.35
  -2  -1 -10   81.60   11.10
  -2  -1 -10  114.28   11.31
   2   0 -12  583.59   29.18
   2   0 -12  492.21   25.16
   2   0 -12  498.12   22.68
   2   0 -12  546.55   29.80
  -2   0  12  469.79   23.89
   2   0 -12  536.48   27.66
   2   0 -11  306.64   23.85
  -2   0  11  284.01   21.53
   2   0 -11  306.81   22.14
   2   0 -11  293.67   25.10
   2   0 -11  315.58   24.72
  -2   0  11  296.05   20.14
   2   0 -11  306.35   20.66
   2   0 -10   16.26    5.42
   2   0 -10   15.67    7.27
  -2   0  10   17.72    5.71
   2   0 -10   16.47    6.62
   2   0 -10   16.80    5.24
   2   0 -10   16.50    5.62
   2   0 -10   22.71    6.12
   2   0  -9  160.39   13.28
   2   0  -9  171.45   19.40
   2   0  -9  174.17   16.89
   2   0  -9  166.03   16.96
   2   0  -9  158.27   18.49
   2   0  -9  174.13   15.71
   2   0  -9  164.88   17.13
   2   0  -9  167.31   15.62
   2   0  -8  690.95   23.57
   2   0  -8  722.81   37.38
   2   0  -8  750.69   31.67
   2   0  -8  706.25   33.04
   2   0  -8  732.41   30.91
   2   0  -8  727.20   32.30
   2   0  -8  764.76   34.57
   2   0  -8  677.07   36.37
   2   0  -8  707.26   27.28
   2   0  -7  911.19   34.16
   2   0  -7  898.07   34.42
  -2   0   7  976.83   28.46
   2   0  -7  871.10   22.77
   2   0  -7  936.18   33.46
   2   0  -7  836.49   37.11
   2   0  -7  886.86   29.04
   2   0  -7  839.40   31.22
   2   0  -7  880.48   38.06
   2   0  -7  887.30   31.29
   2   0  -7  883.00   28.17
   2   0  -6 1050.04   38.08
   2   0  -6 1068.12   33.16
   2   0  -6 1056.19   34.27
  -2   0   6 1101.39   27.11
   2   0  -6  982.70   30.77
   2   0  -6 1018.63   36.68
   2   0  -6 1067.69   28.32
   2   0  -6 1142.29   33.07
   2   0  -6 1135.64   32.03
   2   0  -6 1061.49   22.42
  -2   0   5   19.76    3.19
   2   0  -5   20.15    2.69
  -2   0   4 8184.62   56.32
   2   0  -2 6778.88   40.96
  -2   0   2 7708.23   35.65
  -2   0   1 2028.29   20.56
   2   0  -1 2549.79   17.50
  -2   0   1 2472.91   16.76
   2   0  -1 2333.11   15.72
   2   0  -1 1805.32   20.18
   2   0   0  422.06   10.38
   2   0   0  476.24    9.44
  -2   0   0  416.26    9.22
  -2   0   0  424.47    9.81
  -2   0   0  445.46    5.86
   2   0   0  452.59    5.59
   2   0   2   65.50    2.44
   2   0   2   61.65    2.32
  -2   0  -2   57.14    4.80
   2   0   3  561.75   15.49
   2   0   3  576.63    8.66
  -2   0  -3  535.35   17.16
   2   0   3  550.42    8.58
  -2   0  -4    8.93    3.19
   2   0   4    8.39    1.20
  -2   0  -4   10.36    3.75
  -2   0  -4    6.99    2.52
  -2   0  -4    5.80    2.73
  -2   0  -4    6.40    3.07
   2   0   4    9.85    2.40
  -2   0  -4    5.59    3.11
  -2   0  -5 2868.41   74.21
  -2   0  -5 2882.96   49.77
  -2   0  -5 2815.68   64.57
  -2   0  -5 2903.88   80.73
  -2   0  -5 2930.69   52.21
  -2   0  -5 2703.54   58.93
  -2   0  -5 2849.95   65.09
  -2   0  -5 2864.54   60.02
  -2   0  -6 1505.89   47.52
  -2   0  -6 1704.50   65.11
  -2   0  -6 1666.97   41.95
  -2   0  -6 1556.69   52.53
  -2   0  -6 1547.68   51.85
  -2   0  -6 1592.02   49.39
  -2   0  -6 1685.70   43.76
  -2   0  -6 1625.81   59.70
  -2   0  -7 1343.80   52.94
  -2   0  -7 1500.51   62.44
  -2   0  -7 1351.28   51.37
  -2   0  -7 1298.00   46.47
  -2   0  -7 1406.25   57.64
  -2   0  -7 1421.14   42.04
  -2   0  -7 1448.54   43.93
  -2   0  -7 1377.24   50.35
  -2   0  -8  111.37   14.88
  -2   0  -8  108.35   15.59
  -2   0  -8  117.98   15.41
  -2   0  -8  115.19   13.93
  -2   0  -8  116.55   16.37
  -2   0  -8  113.11   12.29
  -2   0  -8  119.62   12.82
  -2   0  -9  775.71   40.14
  -2   0  -9  763.59   31.87
  -2   0  -9  804.12   38.37
  -2   0  -9  830.89   35.14
  -2   0  -9  836.94   40.99
  -2   0  -9  899.17   42.41
  -2   0 -10  547.56   29.51
  -2   0 -10  511.43   26.40
  -2   0 -10  575.50   24.67
  -2   0 -10  466.12   27.29
   2   0  10  459.28   22.13
  -2   0 -10  461.62   22.01
   2   1 -12   16.66    4.82
  -2   1  12   26.70    5.77
   2   1 -12   18.37    4.96
  -2   1  12   18.69    5.07
   2   1 -12   31.52    6.82
   2   1 -12   28.65    5.86
   2   1 -12   24.38    4.86
  -2   1  11  171.54   16.48
   2   1 -11  140.49   17.15
   2   1 -11  180.45   18.21
  -2   1  11  155.18   16.68
   2   1 -11  185.80   17.58
   2   1 -11  174.77   17.91
   2   1 -11  165.75   15.44
   2   1 -10  359.16   23.53
   2   1 -10  326.70   24.93
   2   1 -10  256.65   24.47
   2   1 -10  336.75   26.00
  -2   1  10  332.41   25.08
   2   1 -10  366.52   27.64
   2   1 -10  347.18   20.42
   2   1 -10  334.41   23.35
   2   1  -9  967.38   34.95
   2   1  -9 1024.71   40.16
   2   1  -9  949.16   46.94
   2   1  -9 1025.65   46.76
  -2   1   9 1042.91   36.85
   2   1  -9  945.99   43.07
   2   1  -9 1015.25   42.61
   2   1  -9  964.88   39.07
   2   1  -8   36.94    6.62
  -2   1   8   33.67    6.28
   2   1  -8   29.49    6.57
   2   1  -8   26.49    6.27
   2   1  -8   35.81    8.65
   2   1  -8   29.12    7.67
   2   1  -8   33.00    7.90
   2   1  -8   29.52    6.37
   2   1  -8   36.87    7.50
   2   1  -7  229.46   20.20
   2   1  -7  229.92   18.71
  -2   1   7  252.39   14.53
   2   1  -7  248.76   17.37
   2   1  -7  245.81   16.71
  -2   1   7  234.74   15.75
   2   1  -7  240.23   18.10
   2   1  -7  224.17   19.16
   2   1  -7  232.83   16.84
   2   1  -7  222.58   13.47
   2   1  -7  237.56   15.66
   2   1  -6  645.28   24.69
  -2   1   6  641.26   20.60
   2   1  -6  619.87   26.19
   2   1  -6  585.81   28.18
   2   1  -6  578.58   29.36
   2   1  -6  579.81   26.38
  -2   1   6  600.60   23.08
   2   1  -6  626.98   25.27
   2   1  -6  637.29   19.35
   2   1  -6  635.63   23.90
  -2   1   5 1959.89   31.48
   2   1  -5 1940.74   29.94
  -2   1   4   89.33    3.68
  -2   1   4   94.05    6.14
   2   1  -4   86.28    5.71
   2   1  -3 1774.06   22.77
  -2   1   3 1789.96   16.71
   2   1  -2 2604.36   19.00
  -2   1   2 2547.55   24.72
   2   1  -2 2379.06   22.99
   2   1  -2 2528.62   24.47
  -2   1   2 2602.23   22.05
  -2   1   2 2417.12   23.43
   2   1  -1 7897.05   40.80
   2   1  -1 7626.76   41.72
   2   1   0 1700.41   12.81
  -2   1   0 1644.76   24.30
  -2   1   0 1663.11   17.85
  -2   1  -1 1651.99   21.59
   2   1   1  303.23   12.08
  -2   1  -2 1214.44   21.92
   2   1   2  412.54   14.24
   2   1   3  382.82   17.23
  -2   1  -3 2349.55   36.34
  -2   1  -4  531.19   25.20
  -2   1  -4  587.96   21.03
  -2   1  -4  556.67   23.83
  -2   1  -4  539.50   23.29
  -2   1  -4  540.12   25.12
  -2   1  -4  497.79   30.73
  -2   1  -4  520.21   29.57
   2   1   5   52.02    6.20
  -2   1  -5   41.60    7.94
  -2   1  -5   45.04    8.00
  -2   1  -5   35.81    6.46
  -2   1  -5   42.27    6.36
  -2   1  -5   31.68    8.98
  -2   1  -5   45.78    9.23
  -2   1  -5   49.65    7.59
  -2   1  -6  101.82   11.90
  -2   1  -6   89.46   12.25
   2   1   6   60.18    8.76
  -2   1  -6  104.41   11.12
  -2   1  -6  113.51   13.17
  -2   1  -6   93.74   12.79
  -2   1  -6   94.66   14.56
  -2   1  -6   81.35   14.56
  -2   1  -7  720.04   31.86
  -2   1  -7  685.86   35.78
  -2   1  -7  749.04   44.18
  -2   1  -7  723.82   36.57
  -2   1  -7  700.79   37.91
  -2   1  -7  708.90   32.76
  -2   1  -7  694.29   40.08
  -2   1  -8 1074.85   45.16
  -2   1  -8 1124.19   47.12
  -2   1  -8 1137.36   41.62
  -2   1  -8 1079.38   47.99
  -2   1  -8 1077.56   39.73
  -2   1  -8 1140.84   50.67
  -2   1  -9  560.64   30.48
  -2   1  -9  549.93   32.17
  -2   1  -9  579.42   27.06
   2   1   9  528.40   28.32
  -2   1  -9  527.64   31.79
  -2   1  -9  537.20   31.96
  -2   1  -9  476.65   25.32
  -2   1 -10   92.83   11.58
   2   1  10   79.84    9.46
  -2   1 -10   90.31   10.57
  -2   1 -10   95.98   11.80
  -2   1 -10   73.01    8.74
   2   2 -12  292.80   17.52
  -2   2  12  255.87   17.55
   2   2 -12  291.79   19.78
   2   2 -12  227.60   15.70
  -2   2  12  281.71   17.49
   2   2 -12  243.18   14.89
   2   2 -11  286.32   23.34
  -2   2  11  276.49   21.17
   2   2 -11  291.72   20.89
   2   2 -11  259.49   20.72
   2   2 -11  253.15   19.96
   2   2 -11  256.55   18.64
  -2   2  11  261.10   21.20
   2   2 -10   84.78   10.47
   2   2 -10  100.61   14.07
  -2   2  10  101.04   14.13
   2   2 -10  117.45   15.97
  -2   2  10   83.10   12.90
   2   2 -10   80.17   12.17
  -2   2  10   87.34   10.87
   2   2 -10   92.70   12.53
   2   2 -10   90.24   12.76
   2   2  -9   88.94   13.75
   2   2  -9   86.93   14.34
   2   2  -9   77.65   11.91
  -2   2   9   85.47   13.46
  -2   2   9   85.76   10.90
   2   2  -9   77.62   12.36
   2   2  -9   76.85   12.10
   2   2  -9   82.29   10.75
   2   2  -8  601.62   28.61
   2   2  -8  580.84   26.38
   2   2  -8  535.79   32.43
   2   2  -8  608.75   36.83
   2   2  -8  605.86   32.94
   2   2  -8  594.52   33.21
  -2   2   8  598.25   28.95
   2   2  -8  601.62   29.88
   2   2  -8  580.69   30.75
   2   2  -7 1012.48   35.31
  -2   2   7  972.76   34.92
   2   2  -7  909.37   40.31
  -2   2   7 1125.53   31.43
   2   2  -7  895.25   30.87
   2   2  -7  902.30   38.04
   2   2  -7  993.95   40.25
   2   2  -7 1011.72   36.67
   2   2  -7  978.71   43.61
   2   2  -7  928.08   36.63
   2   2  -7  940.70   32.20
   2   2  -6  430.54   21.50
   2   2  -6  454.62   18.79
  -2   2   6  487.53   18.41
   2   2  -6  445.53   23.29
   2   2  -6  435.22   26.92
   2   2  -6  434.46   24.21
  -2   2   6  440.16   21.76
   2   2  -6  433.84   24.26
  -2   2   6  400.78   40.30
   2   2  -6  426.55   20.33
   2   2  -6  386.38   24.56
   2   2  -6  396.07   22.05
   2   2  -5 1216.15   28.25
   2   2  -5 1155.43   32.59
  -2   2   5 1238.73   25.68
   2   2  -5 1185.17   35.72
   2   2  -5 1173.14   35.59
   2   2  -5 1088.32   39.05
   2   2  -5 1144.68   36.58
  -2   2   5 1161.36   20.65
   2   2  -5 1119.76   40.13
   2   2  -5 1166.24   31.77
  -2   2   5 1181.12   33.22
   2   2  -4 2695.33   38.32
  -2   2   4 2469.36   29.13
  -2   2   4 2567.06   31.80
   2   2  -4 2766.67   29.97
   2   2  -3 6167.77   53.06
  -2   2   3 5829.40   42.39
  -2   2   3 5868.53   44.70
   2   2  -3 6055.11   41.73
   2   2  -2 1898.34   20.89
  -2   2   2 1963.98   25.95
   2   2  -2 1970.17   23.81
   2   2  -2 1973.04   27.15
   2   2  -1  229.17    6.87
  -2   2   1  233.73    9.49
  -2   2   1  203.82    6.34
   2   2  -1  229.36    8.43
  -2   2   0 1631.14   27.23
   2   2   0 1619.07   24.52
   2   2   0 1594.80   19.93
  -2   2  -1 2317.27   36.40
   2   2   1 2409.14   32.69
  -2   2  -2 1054.50   20.80
   2   2   2 1011.50   23.46
  -2   2  -2 1011.66   27.81
   2   2   3  304.02   16.52
  -2   2  -3  302.00   13.41
  -2   2  -3  254.77   20.10
  -2   2  -3  241.37   17.13
  -2   2  -3  263.79   19.06
   2   2   3  330.57   14.89
  -2   2  -4  359.49   18.83
  -2   2  -4  367.94   21.35
  -2   2  -4  415.99   22.37
   2   2   4  472.85   18.87
  -2   2  -4  338.84   18.15
  -2   2  -4  390.21   21.21
  -2   2  -4  347.54   21.80
   2   2   4  419.15   29.38
   2   2   4  461.38   22.22
  -2   2  -4  363.17   27.16
  -2   2  -4  366.62   21.51
  -2   2  -4  343.87   24.27
   2   2   5 1514.86   37.87
   2   2   5 1514.48   34.22
  -2   2  -5 1384.29   44.50
  -2   2  -5 1272.11   50.93
   2   2   5 1389.53   58.39
  -2   2  -5 1297.93   43.82
  -2   2  -5 1276.48   38.59
  -2   2  -5 1328.19   44.26
  -2   2  -5 1239.68   54.62
  -2   2  -5 1242.63   38.54
  -2   2  -5 1250.07   43.46
   2   2   5 1576.60   42.81
  -2   2  -5 1280.61   42.35
  -2   2  -6  922.68   45.74
  -2   2  -6  893.12   34.78
  -2   2  -6  927.39   39.52
   2   2   6 1038.83   36.06
  -2   2  -6  883.27   34.07
  -2   2  -6  964.79   40.40
  -2   2  -6  899.49   37.67
  -2   2  -6  955.66   50.55
  -2   2  -6  932.88   40.56
  -2   2  -7  226.17   19.90
  -2   2  -7  231.16   20.89
  -2   2  -7  217.07   17.77
  -2   2  -7  237.72   25.52
  -2   2  -7  212.54   17.00
  -2   2  -7  231.11   21.18
  -2   2  -7  221.81   22.54
   2   2   7  264.00   17.87
  -2   2  -8   19.82    5.73
  -2   2  -8   18.47    5.65
  -2   2  -8   21.65    6.20
   2   2   8   20.35    6.21
  -2   2  -8   25.30    7.78
  -2   2  -8   23.62    6.18
  -2   2  -9  192.30   17.73
  -2   2  -9  200.24   18.03
  -2   2  -9  195.06   16.43
   2   2   9  201.54   17.14
  -2   2  -9  219.67   18.99
  -2   2 -10  197.60   13.67
  -2   2 -10  239.14   17.06
  -2   2 -10  224.33   16.11
   2   2  10  222.27   15.14
  -2   3  11  130.25   13.62
  -2   3  11  117.25   12.68
   2   3 -11  105.09   11.09
   2   3 -11  111.98   12.90
   2   3 -11  101.83   11.58
  -2   3  11   97.97    9.80
  -2   3  10  442.01   28.20
   2   3 -10  464.97   26.32
   2   3 -10  430.78   27.08
   2   3 -10  370.99   25.98
   2   3 -10  386.38   22.54
   2   3 -10  471.92   30.70
  -2   3  10  427.08   24.38
  -2   3  10  470.85   30.01
   2   3 -10  404.01   25.28
   2   3  -9  368.14   24.71
   2   3  -9  465.45   32.12
  -2   3   9  435.76   29.77
   2   3  -9  420.90   28.27
   2   3  -9  463.10   27.71
   2   3  -9  396.01   26.75
   2   3  -9  424.07   24.08
   2   3  -9  404.45   28.77
   2   3  -9  435.12   25.66
  -2   3   9  443.04   26.34
  -2   3   9  495.53   32.46
   2   3  -8  178.67   17.43
   2   3  -8  201.35   16.75
   2   3  -8  174.59   18.13
   2   3  -8  212.85   18.78
  -2   3   8  209.05   18.26
  -2   3   8  203.97   35.30
   2   3  -8  196.49   20.72
   2   3  -8  176.11   19.52
   2   3  -8  203.08   17.95
   2   3  -8  178.76   17.78
  -2   3   8  209.30   20.36
  -2   3   8  213.46   20.74
   2   3  -7  213.67   16.94
  -2   3   7  214.07   34.94
  -2   3   7  214.18   19.88
   2   3  -7  205.77   17.80
   2   3  -7  195.04   17.99
   2   3  -7  187.70   17.95
   2   3  -7  221.75   21.21
  -2   3   7  215.71   19.57
  -2   3   7  224.83   18.30
   2   3  -7  190.78   18.47
   2   3  -7  217.37   18.03
   2   3  -7  182.45   19.43
   2   3  -6  945.83   38.34
   2   3  -6 1009.48   43.20
   2   3  -6  993.54   39.95
  -2   3   6  982.47   40.19
   2   3  -6 1023.54   35.53
   2   3  -6  970.15   36.38
  -2   3   6 1084.06   74.49
  -2   3   6 1026.96   36.96
  -2   3   6 1007.69   39.51
   2   3  -6 1000.69   33.66
   2   3  -6  944.49   37.97
   2   3  -6  920.94   41.90
   2   3  -5 2620.65   66.72
   2   3  -5 2819.72   56.12
   2   3  -5 2022.71   35.53
   2   3  -5 2867.54   64.17
  -2   3   5 2793.77   39.01
  -2   3   5 2808.66   61.26
  -2   3   5 2739.50   62.01
  -2   3   5 2752.14   57.42
  -2   3   5 2924.37   41.39
   2   3  -5 2061.66   43.05
  -2   3   5 3041.61  117.55
   2   3  -5 2759.50   52.98
   2   3  -5 2765.28   62.93
   2   3  -5 2724.93   60.82
   2   3  -5 2816.43   68.03
   2   3  -5 2039.22   49.45
  -2   3   4 1192.02   22.22
   2   3  -4 1165.37   38.78
   2   3  -4 1178.37   38.66
  -2   3   4 1064.10   35.52
   2   3  -4 1047.47   40.18
   2   3  -4 1101.03   23.84
   2   3  -4 1133.82   34.87
   2   3  -4 1142.21   40.14
  -2   3   4 1108.93   35.20
  -2   3   4 1131.60   67.70
   2   3  -4 1054.92   31.52
   2   3  -4 1097.16   33.13
  -2   3   4 1085.71   33.69
  -2   3   4 1162.10   25.39
   2   3  -4 1130.99   36.74
   2   3  -3  183.33   12.82
   2   3  -3  215.67   16.07
   2   3  -3  206.62   14.63
  -2   3   3  194.11   10.46
   2   3  -3  200.69    9.72
  -2   3   3  194.78   13.63
   2   3  -3  180.06   12.51
  -2   3   3  168.86   24.38
  -2   3   3  205.71    7.58
   2   3  -3  203.85   15.13
   2   3  -3  185.85   16.13
   2   3  -3  194.49   13.54
   2   3  -2 1935.20   29.88
  -2   3   2 1960.90   32.28
   2   3  -1 1574.94   27.51
  -2   3   1 1634.34   30.72
   2   3   0 2279.83   34.95
  -2   3   0 2265.98   38.07
  -2   3   0 2277.47   20.36
  -2   3  -1  123.88    9.40
  -2   3  -1  100.60   10.95
  -2   3  -1  127.32    6.26
  -2   3  -1   95.12    9.47
   2   3   1  121.84    8.49
   2   3   1   94.88    8.99
  -2   3  -1  100.64   10.47
   2   3   1   98.16   13.47
  -2   3  -1  101.05   10.77
   2   3   2  350.37   17.59
  -2   3  -2  355.90   17.84
   2   3   2  328.26   26.54
  -2   3  -2  300.26   19.19
  -2   3  -2  289.49   19.30
   2   3   2  313.57   14.78
  -2   3  -2  335.50   21.49
   2   3   2  322.21   17.53
  -2   3  -2  299.98   19.25
  -2   3  -2  308.82   20.43
  -2   3  -2  281.77   17.05
  -2   3  -3  964.62   40.74
  -2   3  -3  914.88   36.69
   2   3   3 1102.10   22.74
  -2   3  -3  957.44   32.43
   2   3   3  981.30   27.83
  -2   3  -3  895.76   35.55
  -2   3  -3  939.33   31.68
  -2   3  -3  843.19   30.60
   2   3   3 1030.47   32.21
  -2   3  -3  919.38   36.35
   2   3   3 1048.10   50.90
   2   3   3  940.43   32.60
  -2   3  -3  950.83   37.82
  -2   3  -3  759.19   28.92
   2   3   4 1421.61   40.29
  -2   3  -4 1232.26   38.73
  -2   3  -4 1266.09   51.45
  -2   3  -4 1314.79   41.37
  -2   3  -4 1349.43   46.09
  -2   3  -4 1251.03   45.32
   2   3   4 1296.04   41.72
   2   3   4 1346.62   36.03
  -2   3  -4 1307.35   48.43
  -2   3  -4 1317.25   39.86
  -2   3  -5  192.23   18.28
  -2   3  -5  166.96   14.66
   2   3   5  223.50   16.31
  -2   3  -5  190.77   21.36
   2   3   5  212.93   26.28
  -2   3  -5  190.58   16.75
  -2   3  -5  197.66   17.16
   2   3   5  194.73   17.47
  -2   3  -5  175.02   15.43
  -2   3  -5  166.81   19.09
  -2   3  -5  196.62   18.58
   2   3   6   55.29    8.36
  -2   3  -6   45.01    9.01
  -2   3  -6   48.73    9.25
  -2   3  -6   30.69    6.22
  -2   3  -6   38.07    7.77
   2   3   6   55.45    9.84
   2   3   6   62.27   15.89
  -2   3  -6   38.17    9.12
  -2   3  -6   41.05    8.67
  -2   3  -6   43.92   11.61
  -2   3  -7  985.27   42.04
  -2   3  -7  949.15   49.93
  -2   3  -7  925.61   44.08
   2   3   7 1041.14   35.59
  -2   3  -7 1018.15   41.86
   2   3   7 1017.78   42.68
  -2   3  -7  935.52   38.18
  -2   3  -8  276.36   19.44
  -2   3  -8  297.63   21.42
   2   3   8  284.24   21.63
   2   3   9  144.84   13.86
   2   3  10   22.70    4.81
   2   3  10   13.41    3.48
  -2   4  11  243.23   15.78
   2   4 -11  207.86   13.36
  -2   4  11  277.02   17.34
   2   4 -11  188.35   13.35
   2   4 -10   31.70    6.62
  -2   4  10   34.11    6.86
   2   4 -10   31.23    5.79
  -2   4  10   43.38    8.25
  -2   4  10   34.31    7.03
   2   4 -10   27.78    6.29
   2   4 -10   38.06    6.61
   2   4  -9  137.34   14.50
   2   4  -9  110.72   14.09
   2   4  -9  137.41   15.71
  -2   4   9  163.63   17.33
   2   4  -9  103.55   12.01
  -2   4   9  134.85   14.57
  -2   4   9  134.56   15.42
   2   4  -9  148.43   16.67
   2   4  -9  139.76   15.04
   2   4  -9  119.90   14.26
   2   4  -8  461.93   30.26
  -2   4   8  513.13   57.55
   2   4  -8  479.06   28.34
   2   4  -8  495.21   31.72
  -2   4   8  531.40   31.44
   2   4  -8  486.69   27.96
   2   4  -8  450.93   29.30
   2   4  -8  455.32   29.32
  -2   4   8  578.98   33.79
   2   4  -8  451.34   30.03
  -2   4   8  505.77   29.59
  -2   4   7 1120.01   44.65
   2   4  -7 1087.08   43.68
   2   4  -7 1184.29   49.33
  -2   4   7 1145.37   44.86
   2   4  -7  976.00   45.31
   2   4  -7 1043.19   44.68
   2   4  -7 1174.98   43.81
   2   4  -7 1042.83   46.77
   2   4  -7 1142.41   41.38
  -2   4   7 1302.24   93.38
   2   4  -7  977.82   42.78
  -2   4   7 1169.81   47.55
   2   4  -6  333.27   22.51
   2   4  -6  278.00   23.68
   2   4  -6  282.24   22.82
   2   4  -6  293.78   24.41
  -2   4   6  295.10   22.72
   2   4  -6  287.40   21.93
   2   4  -6  303.50   24.25
  -2   4   6  374.06   48.87
  -2   4   6  294.50   21.70
  -2   4   6  302.05   22.20
   2   4  -6  277.29   22.07
   2   4  -6  320.11   21.30
  -2   4   5  177.83   16.18
   2   4  -5  163.55   15.73
   2   4  -5  159.07   17.43
  -2   4   5  183.38   14.41
   2   4  -5  162.02   17.80
   2   4  -5  175.25   17.35
   2   4  -5  190.40   16.30
  -2   4   5  190.04   33.29
  -2   4   5  186.28   16.58
   2   4  -5  172.70   16.97
   2   4  -5  178.19   15.30
  -2   4   5  169.32   16.14
   2   4  -5  130.66   14.58
   2   4  -4 1016.48   37.99
   2   4  -4 1031.68   43.49
   2   4  -4 1088.64   37.84
   2   4  -4 1136.72   42.01
  -2   4   4 1063.83   37.00
  -2   4   4 1013.53   37.18
  -2   4   4 1153.66   30.97
   2   4  -4 1081.67   43.83
   2   4  -4 1081.39   41.60
  -2   4   4 1134.88   35.05
   2   4  -4 1055.33   34.54
   2   4  -4  970.88   27.20
  -2   4   4 1142.37   78.78
   2   4  -4 1045.72   35.81
  -2   4   4 1038.87   37.81
   2   4  -4 1092.28   40.81
  -2   4   3 1892.72   46.63
  -2   4   3 1940.34   49.67
   2   4  -3 2060.08   37.92
   2   4  -3 2057.45   58.15
   2   4  -3 1931.86   59.90
  -2   4   3 2150.54   41.56
  -2   4   3 2062.16   47.84
   2   4  -3 1934.06   47.74
   2   4  -3 1976.89   45.08
  -2   4   3 1930.63   94.90
  -2   4   3 1896.45   61.07
   2   4  -3 2131.81   55.29
   2   4  -3 1961.11   47.84
   2   4  -3 1887.08   49.30
  -2   4   3 1833.34   46.66
   2   4  -3 2036.50   52.78
  -2   4   2  760.20   33.35
  -2   4   2  808.13   29.28
   2   4  -2  867.69   31.45
   2   4  -2  931.49   35.29
   2   4  -2  919.18   39.15
  -2   4   2  821.60   33.09
  -2   4   2  918.67   27.15
  -2   4   2  778.39   28.06
   2   4  -2  955.02   25.86
  -2   4   2  781.60   28.21
  -2   4   2  894.27   31.81
   2   4  -2  809.77   41.83
   2   4  -2  864.99   30.84
  -2   4   2  851.75   62.52
  -2   4   2  871.61   32.48
   2   4  -2  902.11   31.38
   2   4  -2  870.12   29.51
  -2   4   2  852.59   40.18
   2   4  -2  909.68   33.72
  -2   4   1   25.33    5.81
  -2   4   1   21.47    6.23
   2   4  -1   28.13    4.37
   2   4  -1   22.11    5.97
  -2   4   1   20.87    5.19
   2   4  -1   21.47    4.83
  -2   4   1   16.74    5.64
  -2   4   1   29.16    4.89
  -2   4   1   23.50    5.30
   2   4  -1   24.34    7.35
   2   4  -1   24.98    4.84
  -2   4   1   25.22   11.20
   2   4  -1   26.57    5.21
  -2   4   1   18.19    4.71
   2   4  -1   24.24    4.42
   2   4  -1   24.38    5.44
   2   4   0 1529.62   39.67
   2   4   0 1448.78   59.76
  -2   4   0 1705.41   85.12
  -2   4   0 1573.66   54.28
   2   4   0 1757.07   36.33
  -2   4   0 1454.11   43.36
  -2   4   0 1552.81   44.45
   2   4   0 1615.12   49.42
  -2   4   0 1470.43   44.77
   2   4   0 1542.37   39.77
  -2   4   0 1550.55   47.86
  -2   4   0 1519.93   44.14
  -2   4   0 1559.48   42.39
  -2   4   0 1678.69   38.84
   2   4   0 1550.09   42.12
  -2   4  -1  709.93   31.56
   2   4   1  802.51   28.26
  -2   4  -1  847.24   34.94
  -2   4  -1  728.60   32.17
   2   4   1  796.55   47.10
   2   4   1  928.49   27.41
  -2   4  -1  845.34   39.59
   2   4   1  854.41   34.78
  -2   4  -1  818.17   28.07
   2   4   1  788.76   28.13
  -2   4  -1  754.29   34.67
  -2   4  -1  781.96   32.30
   2   4   1  843.49   29.95
  -2   4  -1  787.77   30.44
   2   4   2 1418.61   37.74
  -2   4  -2 1374.85   46.45
   2   4   2 1515.61   36.91
  -2   4  -2 1405.22   39.75
   2   4   2 1452.67   40.89
  -2   4  -2 1326.80   42.98
  -2   4  -2 1488.29   50.12
   2   4   2 1412.85   40.41
  -2   4  -2 1386.43   45.81
  -2   4  -2 1343.36   47.91
  -2   4  -2 1403.38   51.67
   2   4   2 1486.89   67.39
  -2   4  -2 1476.03   42.80
  -2   4  -3   89.26   11.31
  -2   4  -3  100.90   13.44
  -2   4  -3   84.80   13.05
  -2   4  -3  108.41   14.36
   2   4   3  109.29   19.82
  -2   4  -3   95.79   12.74
   2   4   3  104.04   11.63
  -2   4  -3   87.53   12.64
  -2   4  -3   93.91   11.15
   2   4   3   89.89   10.67
   2   4   4  289.63   33.17
  -2   4  -4  252.40   22.28
   2   4   4  243.56   18.25
  -2   4  -4  239.45   21.03
  -2   4  -4  237.24   21.49
  -2   4  -4  215.08   17.50
   2   4   4  236.91   18.76
  -2   4  -4  220.90   22.48
  -2   4  -4  231.26   21.41
  -2   4  -4  244.74   18.50
  -2   4  -5  357.97   23.68
  -2   4  -5  391.07   23.58
   2   4   5  433.96   24.55
  -2   4  -5  363.87   26.95
  -2   4  -5  362.05   31.08
   2   4   5  463.93   44.96
  -2   4  -5  366.41   27.70
  -2   4  -5  388.33   27.56
   2   4   5  400.58   25.51
   2   4   6  848.12   34.66
  -2   4  -6  820.29   46.75
  -2   4  -6  908.29   41.37
  -2   4  -6  914.42   43.27
   2   4   6  854.77   38.71
  -2   4  -6  795.22   34.28
  -2   4  -6  875.93   41.68
  -2   4  -7  186.85   20.60
  -2   4  -7  234.25   19.04
   2   4   7  202.64   15.31
   2   4   7  165.09   27.06
   2   4   7  221.67   19.20
  -2   4  -7  176.21   17.15
   2   4   8   15.97    5.02
   2   4   9  281.31   17.59
   2   4   9  245.05   16.06
  -2   5  10  528.87   23.29
   2   5 -10  364.15   17.34
  -2   5  10  467.82   21.40
   2   5 -10  418.33   19.52
   2   5  -9  403.12   21.81
   2   5  -9  390.89   22.05
  -2   5   9  459.11   23.76
   2   5  -9  425.77   23.11
  -2   5   9  502.64   26.25
  -2   5   9  483.12   25.81
   2   5  -9  430.27   23.63
   2   5  -8   47.08    9.39
   2   5  -8   56.44    8.28
   2   5  -8   60.42    9.93
   2   5  -8   58.22    9.27
  -2   5   8   69.31   10.30
  -2   5   8   55.39    8.67
  -2   5   8   64.38   10.15
  -2   5   8   43.76   18.55
   2   5  -8   50.69    8.98
   2   5  -8   51.26    9.29
   2   5  -7  113.50   13.00
  -2   5   7   85.96   11.49
   2   5  -7   93.31   14.25
   2   5  -7  126.57   14.71
   2   5  -7   87.96   12.03
  -2   5   7  105.65   28.85
  -2   5   7  118.73   14.08
   2   5  -7   97.83   13.63
   2   5  -7   90.39   12.78
   2   5  -7   99.32   13.17
  -2   5   7  103.58   13.55
   2   5  -6  921.09   38.63
   2   5  -6  847.07   39.66
  -2   5   6  837.98   36.01
  -2   5   6 1000.19   87.14
   2   5  -6  953.71   43.01
   2   5  -6  797.59   38.33
   2   5  -6  819.09   44.37
  -2   5   6  889.44   38.81
  -2   5   6  886.39   40.52
   2   5  -6  891.65   40.92
   2   5  -6  802.53   39.10
   2   5  -5 1321.27   45.50
  -2   5   5 1484.93   45.61
   2   5  -5 1424.04   50.42
   2   5  -5 1245.16   55.58
   2   5  -5 1336.09   49.92
  -2   5   5 1352.24   46.49
  -2   5   5 1340.89   44.49
   2   5  -5 1500.35   54.52
   2   5  -5 1198.75   46.70
   2   5  -5 1416.42   51.11
  -2   5   5 1488.96  103.77
  -2   5   5 1364.87   49.51
   2   5  -5 1439.27   48.21
   2   5  -4 1051.51   50.17
   2   5  -4 1068.06   41.90
   2   5  -4 1084.07   39.17
   2   5  -4 1001.45   41.28
  -2   5   4 1132.41   88.16
  -2   5   4 1078.29   42.88
  -2   5   4 1082.38   39.82
   2   5  -4 1153.37   45.25
   2   5  -4 1116.74   41.97
  -2   5   4 1076.57   38.94
   2   5  -4 1110.68   44.62
   2   5  -3   30.15    6.51
   2   5  -3   16.92    5.06
   2   5  -3   17.13    6.50
  -2   5   3   35.90   15.29
  -2   5   3   23.51    5.53
  -2   5   3   26.77    6.63
   2   5  -3   26.31    6.21
   2   5  -3   23.82    5.63
   2   5  -3   27.70    6.81
   2   5  -2  417.86   23.89
   2   5  -2  499.13   33.41
  -2   5   2  510.09   27.59
   2   5  -2  497.84   26.90
  -2   5   2  504.07   35.46
  -2   5   2  410.19   28.11
  -2   5   2  453.75   24.97
  -2   5   2  453.33   27.50
   2   5  -2  493.83   25.64
   2   5  -2  433.93   36.24
  -2   5   2  535.98   56.54
  -2   5   2  465.36   26.87
   2   5  -2  495.13   26.58
   2   5  -2  508.65   28.49
   2   5  -1 1486.93   45.15
  -2   5   1 1695.07   63.81
  -2   5   1 1528.38   52.38
   2   5  -1 1545.67   45.42
   2   5  -1 1530.43   45.95
  -2   5   1 1510.94   47.66
  -2   5   1 1465.75   52.52
  -2   5   1 1551.73   49.90
   2   5  -1 1461.81   69.02
  -2   5   1 1544.39   49.16
  -2   5   1 1659.36   97.53
   2   5  -1 1628.69   46.26
   2   5  -1 1551.80   57.08
   2   5  -1 1577.95   49.34
  -2   5   0 1419.70   58.29
  -2   5   0 1308.45   46.35
   2   5   0 1335.80   42.03
  -2   5   0 1416.51   87.50
  -2   5   0 1353.09   50.88
  -2   5   0 1306.61   45.42
   2   5   0 1301.60   68.31
   2   5   0 1318.47   41.86
  -2   5   0 1378.45   50.33
   2   5   0 1401.70   53.04
  -2   5   0 1344.37   47.50
  -2   5  -1  162.03   20.37
  -2   5  -1  173.52   18.51
   2   5   1  164.71   24.86
   2   5   1  179.43   15.49
  -2   5  -1  169.86   17.72
   2   5   1  147.19   16.43
  -2   5  -1  153.80   16.23
   2   5   1  154.76   13.63
  -2   5  -1  166.29   16.40
   2   5   1  176.09   14.77
  -2   5  -1  150.51   16.90
  -2   5  -1  173.33   16.07
  -2   5  -2  449.43   28.82
  -2   5  -2  432.72   29.99
  -2   5  -2  445.70   32.38
  -2   5  -2  422.58   28.91
  -2   5  -2  445.52   29.70
   2   5   2  492.50   46.42
   2   5   2  488.46   24.13
   2   5   2  445.87   24.46
  -2   5  -2  447.54   27.82
   2   5   2  463.52   25.70
  -2   5  -2  453.77   26.19
  -2   5  -3 1240.15   52.64
  -2   5  -3 1189.91   46.80
  -2   5  -3 1223.79   47.64
  -2   5  -3 1288.24   54.64
  -2   5  -3 1251.07   52.75
   2   5   3 1458.59   82.11
   2   5   3 1214.45   42.42
  -2   5  -3 1203.23   50.30
   2   5   3 1247.77   43.49
  -2   5  -3 1251.92   43.71
   2   5   4  915.12   67.11
  -2   5  -4  796.15   39.06
  -2   5  -4  787.43   40.96
  -2   5  -4  778.80   37.50
   2   5   4  834.69   35.85
  -2   5  -4  860.37   44.22
  -2   5  -4  814.76   42.40
  -2   5  -4  785.65   43.84
   2   5   4  810.97   35.61
  -2   5  -4  799.90   34.47
  -2   5  -5  165.67   20.88
   2   5   5  206.07   17.52
  -2   5  -5  196.53   20.11
   2   5   5  235.05   35.83
  -2   5  -5  194.75   16.46
  -2   5  -5  214.78   21.37
   2   5   5  194.76   17.75
  -2   5  -5  203.43   18.72
  -2   5  -5  178.17   18.61
  -2   5  -6   20.94    6.15
   2   5   6   19.67   11.58
   2   5   6   13.26    4.51
  -2   5  -6   19.66    5.43
  -2   5  -6   17.06    7.38
   2   5   6   18.54    5.56
  -2   5  -6   16.79    5.52
   2   5   7  195.78   15.80
  -2   5  -7  138.11   12.99
  -2   5  -7  141.74   14.35
  -2   5  -7  159.99   14.48
   2   5   7  125.77   12.05
   2   5   7  202.69   16.60
   2   5   7  149.52   25.95
   2   5   8  262.21   16.70
   2   6  -8  167.57   14.50
   2   6  -8  160.48   13.48
   2   6  -8  118.18   13.14
  -2   6   8  168.98   29.57
  -2   6   8  189.75   15.70
   2   6  -8  166.27   13.36
   2   6  -8  166.01   13.91
   2   6  -7  209.59   16.77
   2   6  -7  282.89   19.65
   2   6  -7  263.54   20.41
   2   6  -7  226.72   20.59
  -2   6   7  257.31   41.24
  -2   6   7  232.90   18.79
   2   6  -7  231.88   18.40
   2   6  -6  269.89   24.72
   2   6  -6  230.29   18.81
   2   6  -6  349.39   23.63
  -2   6   6  325.85   23.69
  -2   6   6  322.40   49.49
   2   6  -6  303.39   23.61
   2   6  -6  282.90   22.03
   2   6  -5   61.42   10.06
  -2   6   5   89.98   12.68
   2   6  -5   54.74   12.85
   2   6  -5   68.16   11.41
  -2   6   5   79.24   11.37
   2   6  -5   86.64   11.58
  -2   6   5   95.87   29.05
   2   6  -5   89.90   12.36
   2   6  -5   87.07   12.41
   2   6  -4  148.79   16.14
  -2   6   4  163.96   16.46
   2   6  -4  147.40   19.90
   2   6  -4  187.99   17.21
  -2   6   4  148.50   34.23
   2   6  -4  163.50   17.11
  -2   6   4  184.55   18.19
   2   6  -4  197.08   18.49
   2   6  -4  176.48   18.22
   2   6  -3  588.32   31.47
   2   6  -3  659.07   41.74
  -2   6   3  685.34   69.47
   2   6  -3  592.21   32.92
   2   6  -3  643.56   32.13
  -2   6   3  645.80   33.87
   2   6  -3  659.63   34.06
  -2   6   3  646.83   33.51
   2   6  -3  661.67   34.81
   2   6  -2  327.33   22.78
   2   6  -2  337.08   29.74
   2   6  -2  327.77   23.80
  -2   6   2  335.14   24.96
   2   6  -2  357.62   24.91
  -2   6   2  317.90   23.56
  -2   6   2  349.63   49.29
   2   6  -2  360.78   24.55
   2   6  -2  330.23   24.38
  -2   6   1    4.65    4.30
   2   6  -1    9.95    5.02
  -2   6   1    7.33    4.55
   2   6  -1   10.29    4.36
   2   6  -1    7.02    5.28
   2   6  -1   10.65    7.41
  -2   6   1    6.46    4.18
   2   6  -1    8.29    3.78
  -2   6   1    6.14    3.54
  -2   6   1    7.62    4.21
   2   6  -1    4.73    3.67
  -2   6   1    6.08    3.91
  -2   6   1    1.02    6.11
   2   6   0  396.84   25.25
   2   6   0  379.57   30.08
  -2   6   0  390.88   28.80
  -2   6   0  382.29   26.51
  -2   6   0  396.08   29.40
   2   6   0  405.28   24.54
  -2   6   0  407.34   33.63
  -2   6   0  427.13   29.60
   2   6   0  381.15   41.31
  -2   6   0  386.55   25.77
   2   6   1  533.16   50.61
  -2   6  -1  514.67   32.79
  -2   6  -1  588.65   35.46
  -2   6  -1  586.64   39.53
  -2   6  -1  579.27   35.70
   2   6   1  558.49   34.59
  -2   6  -1  557.79   35.61
  -2   6  -1  537.75   30.67
   2   6   1  588.63   30.81
   2   6   1  623.05   29.51
  -2   6  -2  173.92   21.80
  -2   6  -2  190.61   20.00
  -2   6  -2  204.10   21.48
  -2   6  -2  155.47   17.87
  -2   6  -2  201.11   18.70
   2   6   2  189.98   17.66
   2   6   2  224.30   33.85
   2   6   2  210.29   16.90
  -2   6  -2  206.38   20.96
  -2   6  -3  117.16   16.82
  -2   6  -3  127.72   16.73
   2   6   3  121.97   14.01
  -2   6  -3  127.06   14.89
  -2   6  -3  128.56   17.32
  -2   6  -3  130.25   16.46
   2   6   3  139.64   14.16
   2   6   3  141.60   27.72
  -2   6  -3  142.00   17.11
  -2   6  -4    2.86    3.62
  -2   6  -4    2.51    2.01
  -2   6  -4    0.93    2.31
  -2   6  -4    3.03    3.64
   2   6   4    1.00    2.16
   2   6   4    0.19    3.61
   2   6   4    2.20    1.88
  -2   6  -4    1.77    3.38
  -2   6  -5  246.96   21.66
  -2   6  -5  203.11   18.24
   2   6   5  245.29   18.01
  -2   6  -5  197.57   20.62
  -2   6  -5  172.87   17.00
   2   6   5  221.81   33.78
   2   6   5  211.69   16.80
  -2   6  -5  251.19   21.03
  -2   6  -6  415.36   26.10
  -2   6  -6  430.55   23.04
   2   6   6  461.45   22.09
   2   6   6  546.85   48.49
  -2   6  -6  523.89   26.42
   2   6   6  517.71   24.39
  -2   6  -6  401.45   24.48
  -2   7   7   84.46    9.33
  -2   7   7   49.76   14.87
   2   7  -7   62.45    8.30
   2   7  -7   54.38    7.34
   2   7  -6  631.51   31.83
   2   7  -6  842.65   31.75
  -2   7   6  851.94   67.57
   2   7  -6  619.95   27.79
  -2   7   6  839.05   32.42
   2   7  -6  759.00   32.20
  -2   7   5  694.51   29.24
  -2   7   5  692.49   31.16
   2   7  -5  735.69   31.95
   2   7  -5  606.24   29.75
  -2   7   5  764.34   69.26
   2   7  -5  503.79   32.42
   2   7  -5  631.77   31.34
   2   7  -4  143.75   15.16
   2   7  -4  180.84   16.53
  -2   7   4  163.52   15.12
   2   7  -4  167.19   15.18
   2   7  -4  119.50   16.49
   2   7  -4  149.91   15.06
  -2   7   4  170.97   33.18
  -2   7   4  165.17   15.75
   2   7  -3    3.79    2.78
   2   7  -3    5.40    3.57
   2   7  -3    2.01    2.75
  -2   7   3    3.60    3.27
   2   7  -3    2.31    2.69
  -2   7   3   10.51    9.63
  -2   7   3   -0.53    0.73
   2   7  -3    3.56    2.68
   2   7  -2  402.01   25.35
   2   7  -2  376.65   29.72
   2   7  -2  357.36   23.23
  -2   7   2  397.23   49.93
  -2   7   2  376.42   26.19
   2   7  -2  423.74   25.43
  -2   7   2  438.42   26.25
   2   7  -2  357.69   23.38
   2   7  -1 1105.10   50.22
   2   7  -1 1121.59   42.05
  -2   7   1 1126.73   47.11
  -2   7   1 1056.36   40.64
  -2   7   1 1132.85   79.91
   2   7  -1  995.72   39.14
  -2   7   1 1013.89   39.43
  -2   7   0  441.31   28.96
   2   7   0  498.43   28.10
   2   7   0  464.68   46.09
   2   7   0  447.09   30.69
  -2   7   0  462.82   29.82
  -2   7   0  465.67   26.64
  -2   7   0  430.23   26.91
   2   7   0  477.34   25.62
  -2   7  -1    6.43    3.93
  -2   7  -1    3.62    3.78
  -2   7  -1    7.31    4.28
  -2   7  -1    5.99    3.52
   2   7   1   10.77    4.26
  -2   7  -1    8.55    3.81
   2   7   1    5.62    6.79
  -2   7  -1    5.18    3.61
  -2   7  -2  227.87   20.51
  -2   7  -2  258.05   22.61
  -2   7  -2  220.84   19.76
   2   7   2  260.19   36.12
  -2   7  -2  251.18   22.29
   2   7   2  237.14   18.66
  -2   7  -2  248.61   23.52
  -2   7  -3  814.70   39.42
  -2   7  -3  775.82   37.90
  -2   7  -3  830.30   36.80
  -2   7  -3  893.16   41.76
   2   7   3  839.10   33.56
  -2   7  -3  873.58   38.07
  -2   7  -4  328.56   23.60
  -2   7  -4  319.83   22.58
  -2   7  -4  304.61   20.34
  -2   7  -4  351.41   22.26
   2   7   4  331.58   19.49
   2   7   4  393.94   42.66
  -2   7  -5   95.44   11.10
  -2   7  -5  168.76   13.52
   2   7   5  171.49   26.04
  -2   7  -5   91.38    9.74
   2   8  -3  167.29   15.16
   2   8  -3  233.72   15.57
   2   8  -2   51.80    7.95
  -2   8   2   43.38    7.52
   2   8  -2   25.05    6.23
   2   8  -2   43.32    6.57
   2   8  -1   38.08    6.14
  -2   8   1   20.80    5.44
  -2   8   0  158.91   15.03
   2   8   0  189.03   14.24
  -2   8  -1  472.11   25.71
   2   8   1  470.45   22.72
   3  -8  -2  485.60   19.34
   3  -8  -1   96.79    8.54
   3  -8   0    1.88    1.27
   3  -7  -7    4.28    2.04
   3  -7  -6  322.73   15.36
   3  -7  -6  337.05   17.72
   3  -7  -5  641.18   21.23
   3  -7  -5  665.50   24.98
   3  -7  -5  681.84   26.56
  -3  -7   4  840.65   30.58
  -3  -7   4  788.87   26.09
  -3  -7   4  864.07   31.24
   3  -7  -4  881.57   31.29
   3  -7  -4  927.04   31.76
   3  -7  -4  878.06   27.76
  -3  -7   3  302.36   18.88
   3  -7  -3  333.83   20.07
   3  -7  -3  308.77   18.51
  -3  -7   3  283.88   16.41
  -3  -7   3  327.71   19.53
   3  -7  -3  333.60   17.66
   3  -7  -2  125.91   12.25
  -3  -7   2  108.42   11.37
   3  -7  -2  103.96   10.86
  -3  -7   2   99.56    9.94
  -3  -7   2  120.29   11.65
   3  -7  -2  105.12   10.77
  -3  -7   1  737.17   29.89
   3  -7  -1  620.55   30.06
  -3  -7   1  749.35   28.73
  -3  -7   1  738.92   27.87
   3  -7  -1  640.35   28.28
   3  -7  -1  725.83   27.89
   3  -7   0 1069.65   34.01
   3  -7   0 1029.70   32.11
   3  -7   0  979.67   35.02
  -3  -7   0 1045.51   35.04
  -3  -7   0 1068.79   32.85
  -3  -7   0 1070.58   33.71
  -3  -7  -1  314.47   18.17
   3  -7   1  261.98   17.33
   3  -7   1  296.11   17.44
   3  -7   1  299.27   16.46
  -3  -7  -1  321.21   17.18
  -3  -7  -1  293.84   18.02
   3  -7   2    5.76    2.77
  -3  -7  -2   15.58    3.89
  -3  -7  -2   14.11    3.81
  -3  -7  -2   12.87    3.20
  -3  -7  -3  357.57   18.29
  -3  -7  -3  376.77   18.42
  -3  -7  -4  418.69   18.10
  -3  -7  -4  461.08   18.80
   3  -6  -9   16.80    3.62
  -3  -6   8   42.42    6.82
   3  -6  -8   87.90    9.28
  -3  -6   7  282.78   19.54
   3  -6  -7  406.87   19.25
  -3  -6   7  324.71   16.95
   3  -6  -7  401.59   21.85
  -3  -6   6  230.66   18.32
   3  -6  -6  263.59   17.44
  -3  -6   6  222.26   15.30
   3  -6  -6  279.78   18.89
   3  -6  -6  265.43   15.50
   3  -6  -5  163.18   14.31
  -3  -6   5  125.16   14.32
   3  -6  -5  178.88   13.49
  -3  -6   5  143.84   12.87
   3  -6  -5  170.17   14.87
   3  -6  -4  605.84   28.60
  -3  -6   4  522.67   28.10
   3  -6  -4  543.37   26.83
   3  -6  -4  577.05   25.32
  -3  -6   4  520.53   25.24
  -3  -6   3  727.66   33.11
  -3  -6   3  732.60   30.32
   3  -6  -3  752.49   31.29
   3  -6  -3  856.28   31.53
   3  -6  -3  835.35   34.56
  -3  -6   2  527.11   28.09
  -3  -6   2  563.44   27.03
   3  -6  -2  550.14   26.31
   3  -6  -2  568.08   28.58
   3  -6  -2  508.75   26.13
  -3  -6   1   51.85    8.05
  -3  -6   1   48.97    8.51
  -3  -6   1   59.14    8.55
   3  -6  -1   60.35    8.59
  -3  -6   0   24.04    5.46
  -3  -6   0   25.41    6.08
   3  -6   0   23.28    5.30
  -3  -6   0   25.40    5.31
   3  -6   1  171.00   13.71
  -3  -6  -1  151.70   14.43
  -3  -6  -1  181.54   14.27
  -3  -6  -1  151.55   14.02
  -3  -6  -2  546.48   27.29
   3  -6   2  539.14   24.22
  -3  -6  -2  567.03   24.52
  -3  -6  -2  561.42   26.88
  -3  -6  -3  393.45   19.58
  -3  -6  -3  352.84   21.51
  -3  -6  -3  385.28   21.74
  -3  -6  -4   11.46    3.91
  -3  -6  -4   13.89    4.01
  -3  -6  -5  550.21   23.95
  -3  -6  -5  597.96   24.51
  -3  -6  -6  472.02   19.83
  -3  -6  -6  435.59   18.90
   3  -5 -10  495.91   20.79
   3  -5  -9  681.54   27.44
   3  -5  -9  712.22   28.65
   3  -5  -8  253.46   18.18
   3  -5  -8  267.19   18.23
   3  -5  -7   80.70    9.85
   3  -5  -7   94.64    9.47
  -3  -5   7   72.95    9.44
   3  -5  -7   89.94   10.16
   3  -5  -7   95.55   11.28
   3  -5  -6  608.35   27.70
  -3  -5   6  535.12   27.09
   3  -5  -6  623.36   29.26
   3  -5  -6  641.32   25.53
   3  -5  -5 1629.64   46.82
   3  -5  -5 1624.02   46.37
   3  -5  -5 1676.80   42.05
   3  -5  -4  877.10   32.85
   3  -5  -4  899.27   34.64
  -3  -5   4  853.73   32.62
   3  -5  -4  913.79   31.23
  -3  -5   3  139.74   14.63
   3  -5  -3  146.49   13.92
   3  -5  -3  159.05   13.04
  -3  -5   3  155.18   13.75
   3  -5  -3  159.18   13.48
  -3  -5   2  160.09   14.00
  -3  -5   2  141.17   13.89
   3  -5  -2  137.36   12.59
  -3  -5   1 1662.55   47.49
  -3  -5   1 1675.32   45.23
   3  -5  -1 1659.03   43.31
  -3  -5   0 1857.79   49.99
  -3  -5   0 1787.67   46.75
   3  -5   0 1821.87   45.74
  -3  -5   0 1854.44   45.99
  -3  -5  -1  748.53   31.70
  -3  -5  -1  717.46   29.84
   3  -5   1  727.52   28.37
  -3  -5  -1  743.76   28.46
  -3  -5  -2  255.67   18.49
  -3  -5  -2  273.86   18.63
  -3  -5  -2  270.28   16.91
  -3  -5  -3  842.17   29.40
  -3  -5  -3  896.33   34.46
  -3  -5  -3  847.66   34.45
  -3  -5  -4  725.04   31.81
  -3  -5  -4  797.82   32.48
  -3  -5  -5  267.29   18.78
  -3  -5  -5  299.49   19.47
  -3  -5  -6    3.48    2.55
  -3  -5  -6    3.84    2.09
  -3  -5  -7  147.88   11.64
  -3  -5  -7  141.46   11.43
   3  -4 -11  526.63   23.84
   3  -4 -11  576.25   22.59
   3  -4 -10  122.46   12.85
   3  -4 -10   98.91   10.25
   3  -4 -10  132.94   12.48
   3  -4  -9   49.55    7.62
   3  -4  -9   59.95    9.09
   3  -4  -9   79.44   10.52
   3  -4  -8  441.26   23.00
   3  -4  -8  465.05   22.63
   3  -4  -8  466.50   25.49
   3  -4  -8  436.03   25.04
   3  -4  -7 1144.67   38.78
   3  -4  -7 1162.88   35.82
   3  -4  -7 1081.17   35.78
   3  -4  -7 1099.30   38.86
   3  -4  -7 1083.00   32.92
   3  -4  -6  703.65   29.74
   3  -4  -6  731.92   29.17
   3  -4  -6  683.05   25.86
   3  -4  -6  705.36   28.32
   3  -4  -5  206.61   13.92
   3  -4  -5  210.20   15.42
   3  -4  -5  201.57   15.11
   3  -4  -5  202.08   14.05
   3  -4  -4 1339.36   28.47
  -3  -4   4 1357.01   40.37
   3  -4  -4 1421.15   39.63
  -3  -4   4 1333.26   31.82
   3  -4  -4 1352.18   37.31
   3  -4  -4 1293.24   35.27
  -3  -4   3 1693.16   42.48
   3  -4  -3 1739.07   43.20
  -3  -4   3 1568.56   32.39
   3  -4  -3 1726.44   32.36
   3  -4  -3 1684.58   39.33
   3  -4  -3 1654.03   39.70
  -3  -4   2 1560.19   39.68
  -3  -4   2 1555.98   30.91
   3  -4  -2 1578.31   31.34
  -3  -4   2 1583.33   39.75
   3  -4  -2 1666.71   38.97
  -3  -4   1  727.00   28.41
  -3  -4   1  697.72   26.16
   3  -4  -1  718.05   21.31
  -3  -4   1  719.24   18.62
  -3  -4   1  701.30   26.29
   3  -4  -1  707.98   25.13
   3  -4   0  336.21   14.76
  -3  -4   0  345.80   18.56
  -3  -4   0  365.30   19.93
  -3  -4   0  336.95   18.37
  -3  -4  -1 1774.88   43.50
   3  -4   1 1771.90   35.33
  -3  -4  -1 1705.85   43.81
  -3  -4  -1 1724.97   42.38
  -3  -4  -1 1741.27   39.11
  -3  -4  -2 1709.66   44.66
  -3  -4  -2 1729.58   39.11
  -3  -4  -2 1680.10   42.87
  -3  -4  -2 1687.91   44.06
  -3  -4  -3  276.54   18.59
  -3  -4  -3  275.60   15.85
  -3  -4  -3  276.00   17.96
  -3  -4  -3  270.31   18.25
  -3  -4  -4   24.43    5.64
  -3  -4  -4   24.27    6.03
  -3  -4  -4   24.32    5.53
  -3  -4  -4   22.98    5.78
  -3  -4  -5  499.79   26.26
  -3  -4  -5  498.67   27.53
  -3  -4  -5  503.20   27.76
  -3  -4  -5  494.55   25.44
  -3  -4  -6 1537.71   45.29
  -3  -4  -6 1570.50   49.82
  -3  -4  -6 1592.56   49.58
  -3  -4  -6 1601.49   45.30
  -3  -4  -7  153.23   13.35
  -3  -4  -7  146.02   14.41
  -3  -4  -7  154.32   14.44
  -3  -4  -7  174.71   13.86
  -3  -4  -8   84.55    9.70
  -3  -4  -8  115.18   10.39
  -3  -4  -8  114.08   10.07
   3  -3 -12   77.80    9.25
   3  -3 -12   91.96    8.60
   3  -3 -11    3.97    2.23
   3  -3 -11   12.19    4.49
   3  -3 -11   10.26    3.24
   3  -3 -10  435.73   26.07
   3  -3 -10  401.39   23.17
   3  -3 -10  456.41   24.90
   3  -3  -9  796.19   36.75
   3  -3  -9  835.53   36.08
   3  -3  -9  851.12   34.32
   3  -3  -9  894.88   35.85
   3  -3  -8  429.76   23.18
   3  -3  -8  410.03   24.17
   3  -3  -8  395.47   21.34
   3  -3  -8  400.50   23.74
   3  -3  -8  391.59   25.21
   3  -3  -8  386.55   19.69
   3  -3  -7   56.41    7.93
   3  -3  -7   41.91    7.89
   3  -3  -7   48.05    7.16
   3  -3  -7   55.89    8.43
   3  -3  -7   52.98    8.13
   3  -3  -7   48.32    6.66
   3  -3  -6  311.09   18.05
   3  -3  -6  310.90   18.28
   3  -3  -6  325.37   17.42
   3  -3  -6  321.60   18.05
   3  -3  -6  300.69   13.42
   3  -3  -6  292.66   16.10
  -3  -3   5 1248.49   27.96
   3  -3  -5 1300.06   35.21
   3  -3  -5 1197.61   30.71
   3  -3  -5 1174.29   24.11
   3  -3  -5 1191.63   33.18
   3  -3  -5 1205.39   32.41
   3  -3  -4 1366.62   35.17
  -3  -3   4 1309.67   26.07
   3  -3  -4 1353.53   31.76
   3  -3  -4 1282.00   32.48
  -3  -3   3  895.05   19.10
   3  -3  -3  885.16   27.65
   3  -3  -3  889.41   20.06
   3  -3  -3  914.94   25.80
  -3  -3   2  428.66   13.39
  -3  -3   2  398.67   11.62
   3  -3  -2  386.06   13.28
  -3  -3   1 3518.46   55.73
  -3  -3   1 3645.83   35.72
  -3  -3   1 3647.76   52.82
   3  -3  -1 3484.95   40.28
  -3  -3   1 3670.21   33.46
  -3  -3   0 2722.36   48.20
  -3  -3   0 2768.61   31.29
  -3  -3   0 2685.86   26.03
   3  -3   0 2824.73   36.51
  -3  -3   0 2830.45   49.02
  -3  -3   0 2735.08   46.06
  -3  -3  -1  751.31   25.64
  -3  -3  -1  754.65   26.25
  -3  -3  -1  750.42   24.49
  -3  -3  -1  735.78   18.40
   3  -3   1  772.30   19.66
  -3  -3  -2   61.74    7.80
  -3  -3  -2   55.36    7.01
  -3  -3  -2   57.56    5.92
  -3  -3  -2   57.63    7.53
   3  -3   2   60.00    5.75
  -3  -3  -2   71.65    7.91
  -3  -3  -3  803.76   28.83
  -3  -3  -3  838.32   31.16
  -3  -3  -3  791.62   31.52
   3  -3   3  870.39   23.13
  -3  -3  -3  818.08   27.99
  -3  -3  -4 1389.73   45.62
  -3  -3  -4 1362.41   43.17
  -3  -3  -4 1428.09   40.75
  -3  -3  -4 1433.52   43.77
  -3  -3  -4 1431.09   39.28
  -3  -3  -5  467.50   24.29
  -3  -3  -5  460.60   26.72
  -3  -3  -5  490.00   27.38
  -3  -3  -5  460.05   27.86
  -3  -3  -5  460.47   27.44
  -3  -3  -5  452.76   23.29
  -3  -3  -6   62.23   10.65
  -3  -3  -6   72.53   11.12
  -3  -3  -6   61.96   10.36
  -3  -3  -6   79.21   11.70
  -3  -3  -6   65.64    9.30
  -3  -3  -6   70.62    9.27
  -3  -3  -7  250.32   20.15
  -3  -3  -7  281.89   19.06
  -3  -3  -7  289.98   22.34
  -3  -3  -7  240.33   20.34
  -3  -3  -7  279.31   21.78
  -3  -3  -7  294.56   18.84
  -3  -3  -8  542.63   28.94
  -3  -3  -8  571.85   25.38
  -3  -3  -8  565.81   27.73
  -3  -3  -8  623.46   30.13
  -3  -3  -8  626.32   25.56
  -3  -3  -9  295.04   15.71
  -3  -3  -9  272.59   18.08
  -3  -3  -9  310.93   15.81
   3  -2 -12  253.81   18.42
   3  -2 -12  220.78   15.82
   3  -2 -12  266.51   16.15
   3  -2 -11  431.15   26.60
   3  -2 -11  403.10   26.15
   3  -2 -11  413.08   24.29
   3  -2 -11  428.91   26.99
   3  -2 -11  464.27   24.69
   3  -2 -10  182.71   18.85
   3  -2 -10  193.78   19.90
   3  -2 -10  176.72   16.42
   3  -2 -10  208.63   17.34
   3  -2 -10  205.07   19.19
   3  -2  -9    1.62    1.64
   3  -2  -9    2.56    2.29
   3  -2  -9    0.49    1.59
   3  -2  -9    4.22    3.41
   3  -2  -9    1.66    1.89
   3  -2  -9    3.20    1.78
   3  -2  -8  668.26   27.33
   3  -2  -8  737.76   31.28
   3  -2  -8  741.97   32.77
   3  -2  -8  779.71   31.82
   3  -2  -8  703.42   35.66
   3  -2  -8  727.65   35.78
   3  -2  -8  719.00   26.89
   3  -2  -7 1130.23   36.89
  -3  -2   7 1097.28   31.72
   3  -2  -7 1081.65   35.29
   3  -2  -7  977.58   38.24
   3  -2  -7 1163.68   34.37
   3  -2  -7 1054.20   40.47
   3  -2  -7 1167.60   35.48
   3  -2  -7 1051.72   25.50
   3  -2  -7 1048.80   30.75
   3  -2  -6 1643.91   40.43
   3  -2  -6 1593.90   39.26
  -3  -2   6 1597.21   34.46
   3  -2  -6 1533.08   28.06
   3  -2  -6 1495.10   44.44
   3  -2  -6 1581.86   37.90
   3  -2  -6 1696.64   38.75
   3  -2  -6 1475.79   34.20
   3  -2  -5  164.60   11.48
  -3  -2   5  164.28    9.85
   3  -2  -5  170.68   11.71
   3  -2  -5  170.73    8.53
   3  -2  -5  177.77   11.83
   3  -2  -5  136.51   10.25
  -3  -2   4  894.05   21.31
   3  -2  -4  806.71   17.05
   3  -2  -3 3579.40   34.94
  -3  -2   3 3678.88   38.70
   3  -2  -2 2735.19   29.88
  -3  -2   2 2802.51   31.53
  -3  -2   1 1294.86   20.94
   3  -2  -1 1280.65   20.36
  -3  -2   0  315.49    6.59
   3  -2   0  302.91    9.84
  -3  -2   0  283.63   10.20
  -3  -2   0  293.37    6.56
  -3  -2  -1 1739.37   27.93
   3  -2   1 1802.69   24.97
  -3  -2  -2 2921.20   41.81
  -3  -2  -2 2913.91   46.24
   3  -2   2 2878.67   41.44
  -3  -2  -2 2865.42   50.43
  -3  -2  -2 2809.18   44.17
  -3  -2  -3 1374.28   40.27
  -3  -2  -3 1505.85   34.28
   3  -2   3 1455.18   31.20
  -3  -2  -3 1346.06   40.28
  -3  -2  -3 1393.26   34.50
  -3  -2  -3 1445.25   38.64
   3  -2   3 1431.50   25.24
  -3  -2  -3 1349.63   46.91
  -3  -2  -3 1383.53   32.97
  -3  -2  -3 1389.94   40.16
   3  -2   4  150.10   10.83
  -3  -2  -4  138.85   12.00
  -3  -2  -4  152.21   14.61
  -3  -2  -4  150.54   11.53
  -3  -2  -4  151.46   13.81
  -3  -2  -4  136.76   13.93
  -3  -2  -4  140.47   14.24
  -3  -2  -4  155.08   17.41
  -3  -2  -4  144.27   12.05
  -3  -2  -5  145.92   15.48
  -3  -2  -5  143.79   15.29
  -3  -2  -5  169.34   19.37
  -3  -2  -5  159.27   13.45
  -3  -2  -5  161.09   15.36
  -3  -2  -5  144.44   16.14
  -3  -2  -5  154.86   12.76
  -3  -2  -6  540.75   26.25
  -3  -2  -6  534.23   31.17
  -3  -2  -6  505.64   30.68
  -3  -2  -6  502.21   31.53
  -3  -2  -6  610.77   38.85
  -3  -2  -6  545.45   25.19
  -3  -2  -6  560.82   30.68
  -3  -2  -7  371.70   21.11
  -3  -2  -7  357.94   21.62
  -3  -2  -7  335.14   25.26
  -3  -2  -7  339.17   25.92
  -3  -2  -7  348.25   25.15
  -3  -2  -7  344.71   25.34
  -3  -2  -7  422.41   32.72
  -3  -2  -8   97.77   12.89
  -3  -2  -8  111.07   11.62
  -3  -2  -8  106.58   13.70
  -3  -2  -8  111.60   11.21
  -3  -2  -8  101.61   13.04
  -3  -2  -8   88.43   12.63
  -3  -2  -9   17.71    4.16
  -3  -2  -9   18.21    5.25
  -3  -2  -9   17.52    5.24
  -3  -2  -9   30.76    6.37
  -3  -2  -9   21.01    5.86
   3  -1 -12  165.05   16.29
   3  -1 -12  194.78   17.36
   3  -1 -12  142.91   13.56
   3  -1 -12  191.68   16.94
   3  -1 -12  185.05   14.18
   3  -1 -11   51.70    8.60
  -3  -1  11   46.21    7.88
   3  -1 -11   74.49   12.76
   3  -1 -11   47.59    9.19
   3  -1 -11   61.00   10.72
   3  -1 -11   75.14   10.45
   3  -1 -10  524.12   31.43
   3  -1 -10  478.82   28.21
   3  -1 -10  500.74   33.37
  -3  -1  10  445.75   26.81
   3  -1 -10  546.42   28.81
   3  -1 -10  527.51   33.66
   3  -1 -10  528.53   24.31
   3  -1  -9 1870.52   53.80
   3  -1  -9 1789.88   61.42
   3  -1  -9 1926.13   58.46
   3  -1  -9 1844.90   62.27
   3  -1  -9 1894.37   52.52
   3  -1  -9 1786.85   44.67
   3  -1  -8  460.41   22.70
   3  -1  -8  481.99   26.33
   3  -1  -8  393.67   26.99
   3  -1  -8  504.54   25.79
   3  -1  -8  452.17   29.08
   3  -1  -8  476.94   24.70
   3  -1  -8  460.33   26.96
   3  -1  -8  436.86   21.14
   3  -1  -7   44.59    6.95
   3  -1  -7   46.48    7.98
   3  -1  -7   44.00    7.18
   3  -1  -7   47.05    6.63
   3  -1  -7   46.29    6.30
  -3  -1   7   43.63    6.05
   3  -1  -7   49.52    8.90
   3  -1  -7   40.32    7.90
   3  -1  -7   44.33    5.02
   3  -1  -7   41.51    6.65
   3  -1  -6  444.98   19.41
  -3  -1   6  422.83   17.14
   3  -1  -6  373.90   21.75
   3  -1  -6  432.83   20.67
   3  -1  -6  407.56   23.17
   3  -1  -6  453.00   19.97
   3  -1  -6  412.40   13.98
   3  -1  -6  441.30   19.81
   3  -1  -6  386.88   17.35
  -3  -1   5  685.04   19.65
   3  -1  -5  628.70   15.83
  -3  -1   4  931.26   20.66
   3  -1  -4  941.55   17.36
   3  -1  -3  561.80   10.08
  -3  -1   3  647.77    9.59
  -3  -1   3  619.15   15.65
   3  -1  -3  581.24   12.26
  -3  -1   2  553.47   13.86
   3  -1  -2  514.46   10.89
   3  -1  -1  835.86   13.37
  -3  -1   1  843.67   16.78
  -3  -1   1  870.73   11.16
  -3  -1   0 8467.20   54.37
   3  -1   0 9999.00   57.54
   3  -1   1  682.65   11.89
  -3  -1  -1  647.49   16.50
  -3  -1  -2   13.04    2.67
   3  -1   2   13.95    2.88
   3  -1   2   14.39    1.83
   3  -1   3 2040.23   35.04
  -3  -1  -3 1828.43   41.66
  -3  -1  -3 1878.71   36.88
  -3  -1  -3 1884.96   55.04
  -3  -1  -3 1876.71   62.24
   3  -1   3 1952.79   22.71
  -3  -1  -3 1805.41   44.80
  -3  -1  -3 1855.03   46.67
  -3  -1  -3 1881.10   46.13
  -3  -1  -3 1848.39   36.76
  -3  -1  -4 1052.25   34.95
  -3  -1  -4 1080.91   30.80
  -3  -1  -4 1137.89   52.06
  -3  -1  -4 1058.06   37.59
  -3  -1  -4 1047.66   38.66
   3  -1   4 1101.89   27.63
  -3  -1  -4 1075.89   32.39
  -3  -1  -4 1117.46   46.15
  -3  -1  -4 1016.81   28.40
  -3  -1  -4 1023.54   37.61
  -3  -1  -5  292.91   17.46
  -3  -1  -5  287.02   21.26
  -3  -1  -5  292.31   20.36
  -3  -1  -5  316.77   28.96
  -3  -1  -5  276.57   21.61
   3  -1   5  243.61   14.36
  -3  -1  -5  297.74   26.22
  -3  -1  -5  285.49   21.90
  -3  -1  -5  282.30   16.38
  -3  -1  -6  274.77   17.35
  -3  -1  -6  256.12   17.36
  -3  -1  -6  252.76   21.64
  -3  -1  -6  247.65   20.47
  -3  -1  -6  258.40   21.38
  -3  -1  -6  246.25   22.02
  -3  -1  -6  266.30   25.77
  -3  -1  -7   77.89    9.87
  -3  -1  -7   75.82   13.43
  -3  -1  -7   76.75   11.99
  -3  -1  -7   82.66   12.96
  -3  -1  -7   67.69   11.87
  -3  -1  -7   76.76    9.36
  -3  -1  -7   94.68   13.20
  -3  -1  -8  155.21   17.17
  -3  -1  -8  162.01   13.74
  -3  -1  -8  152.48   17.62
  -3  -1  -8  153.27   13.80
  -3  -1  -8  131.32   15.70
  -3  -1  -8  177.99   17.46
  -3  -1  -8  178.22   20.37
  -3  -1  -9  345.87   23.56
  -3  -1  -9  371.98   23.78
  -3  -1  -9  384.40   20.27
  -3  -1  -9  420.85   23.89
  -3  -1  -9  388.49   25.48
  -3  -1 -10  114.11   11.56
  -3  -1 -10  107.38   10.99
  -3  -1 -10  145.20   11.17
  -3  -1 -10  107.74   10.53
   3   0 -12  455.31   26.84
  -3   0  12  388.48   22.04
   3   0 -12  436.78   26.75
   3   0 -12  392.02   23.38
   3   0 -12  440.43   27.75
   3   0 -12  422.11   22.46
  -3   0  11  460.88   27.66
   3   0 -11  505.51   33.43
   3   0 -11  484.52   28.97
  -3   0  11  501.17   26.50
   3   0 -11  539.94   32.85
   3   0 -11  498.77   27.36
   3   0 -11  562.29   33.74
   3   0 -10  867.26   32.37
   3   0 -10  922.85   44.05
  -3   0  10  893.12   40.30
  -3   0  10  886.56   38.17
   3   0 -10  911.59   46.80
   3   0 -10  944.61   45.79
   3   0 -10  903.72   40.70
   3   0 -10  902.72   37.97
   3   0  -9  278.60   21.12
   3   0  -9  262.08   21.09
  -3   0   9  238.32   19.66
   3   0  -9  235.29   17.10
   3   0  -9  242.73   23.41
   3   0  -9  246.87   21.32
   3   0  -9  278.93   24.21
   3   0  -9  273.13   20.03
   3   0  -9  266.07   17.70
   3   0  -8  347.55   23.80
   3   0  -8  339.57   19.94
  -3   0   8  318.61   21.57
   3   0  -8  378.42   23.33
   3   0  -8  345.39   25.60
   3   0  -8  362.37   22.73
   3   0  -8  314.49   20.19
   3   0  -8  318.26   16.36
   3   0  -8  335.32   25.72
   3   0  -8  342.31   19.19
   3   0  -7 5056.20   82.50
   3   0  -7 5072.00   77.61
  -3   0   7 4746.86   78.17
   3   0  -7 5208.68   80.84
   3   0  -7 5064.40   72.68
   3   0  -7 4701.32   89.32
   3   0  -7 4913.95   89.26
   3   0  -7 5059.67   74.69
   3   0  -7 5262.64   57.87
  -3   0   7 5324.67   67.96
   3   0  -7 5031.65   68.53
   3   0  -6 6180.90   74.75
   3   0  -6 6133.24   80.50
  -3   0   6 6305.08   65.84
   3   0  -6 6214.79   78.18
   3   0  -6 5601.75   88.79
   3   0  -6 5951.93   90.06
   3   0  -6 6185.13   55.67
   3   0  -6 6105.58   75.00
   3   0  -6 5842.18   79.28
   3   0  -6 5931.35   69.30
  -3   0   5   65.42    6.07
   3   0  -5   76.36    5.54
  -3   0   4 2330.56   32.45
   3   0  -4 2439.47   28.29
  -3   0   3 4690.01   42.59
   3   0  -3 5813.09   39.15
   3   0  -2 4258.45   32.19
   3   0  -2 4306.33   29.08
   3   0  -1    3.62    0.93
   3   0  -1    3.84    1.23
  -3   0   1    3.07    0.91
  -3   0   1    1.69    0.63
   3   0  -1    3.74    0.80
  -3   0   0   44.39    3.86
   3   0   0   46.34    2.16
  -3   0   0   47.74    2.42
   3   0   1 7306.88   51.43
  -3   0  -1 6871.85   53.95
   3   0   2 4057.72   42.71
  -3   0  -2 3676.28   44.26
  -3   0  -3 3436.81   59.99
  -3   0  -3 3368.03   55.18
  -3   0  -3 3510.60   62.60
  -3   0  -3 3448.83   83.39
  -3   0  -3 3396.63   75.67
  -3   0  -3 3579.48   64.91
  -3   0  -3 3436.15   49.68
  -3   0  -4   60.96    8.61
  -3   0  -4   55.74    8.78
  -3   0  -4   55.12    8.38
  -3   0  -4   56.60   11.49
  -3   0  -4   51.35    7.27
  -3   0  -4   58.92    8.96
   3   0   4   76.05    7.29
  -3   0  -4   53.70   10.35
  -3   0  -4   60.39    7.94
  -3   0  -4   53.31    6.51
  -3   0  -5  852.68   38.28
  -3   0  -5  844.65   34.00
  -3   0  -5  877.39   29.76
  -3   0  -5  864.61   44.19
  -3   0  -5  824.69   34.92
  -3   0  -5  933.30   49.34
  -3   0  -5  859.82   37.80
  -3   0  -6  843.19   31.59
  -3   0  -6  881.98   49.87
  -3   0  -6  784.51   38.94
  -3   0  -6  809.99   44.79
  -3   0  -6  773.05   35.80
  -3   0  -6  782.34   39.18
  -3   0  -6  784.96   36.18
  -3   0  -7  182.56   15.52
  -3   0  -7  170.00   17.67
  -3   0  -7  193.89   23.52
  -3   0  -7  162.11   16.95
  -3   0  -7  177.74   19.62
  -3   0  -7  144.97   17.02
  -3   0  -7  193.18   22.22
  -3   0  -8   92.74   13.21
  -3   0  -8   80.96    9.96
  -3   0  -8  111.83   13.44
  -3   0  -8   93.80   13.69
  -3   0  -8   84.68   13.60
  -3   0  -8  102.82   15.43
  -3   0  -9  141.17   12.33
  -3   0  -9  151.52   15.31
  -3   0  -9  154.74   15.93
  -3   0  -9  153.54   13.85
  -3   0  -9  140.25   15.59
  -3   0  -9  164.71   16.96
  -3   0 -10   62.97    8.11
  -3   0 -10   58.80    8.08
  -3   0 -10   50.60    7.89
   3   1 -12  212.93   17.45
   3   1 -12  154.96   14.70
   3   1 -12  190.22   17.40
  -3   1  12  159.07   13.54
   3   1 -12  185.05   17.78
   3   1 -12  184.97   14.85
  -3   1  12  169.13   15.03
  -3   1  11   66.65   10.41
   3   1 -11   52.09    9.59
  -3   1  11   65.18   10.50
   3   1 -11   71.12   12.67
   3   1 -11   76.04   12.60
   3   1 -11   60.88    8.55
   3   1 -11   82.06   12.53
   3   1 -11   71.55   10.53
   3   1 -10  467.86   24.70
   3   1 -10  491.71   32.81
  -3   1  10  425.88   29.40
  -3   1  10  450.31   28.98
   3   1 -10  454.54   29.62
   3   1 -10  468.66   31.42
   3   1 -10  468.30   33.89
   3   1 -10  464.23   27.86
   3   1  -9 1871.75   49.42
   3   1  -9 1815.25   50.52
   3   1  -9 1972.14   53.74
  -3   1   9 1805.40   57.64
   3   1  -9 1861.23   66.74
   3   1  -9 1820.33   57.73
   3   1  -9 1855.86   62.34
   3   1  -9 1748.84   61.01
   3   1  -9 1876.54   55.10
   3   1  -8  443.65   24.24
   3   1  -8  457.17   24.56
  -3   1   8  426.11   26.79
   3   1  -8  449.26   30.88
   3   1  -8  406.66   27.40
   3   1  -8  447.55   26.81
   3   1  -8  419.80   27.90
   3   1  -8  387.66   23.46
   3   1  -8  467.12   23.71
   3   1  -7   42.13    6.06
  -3   1   7   39.51    5.94
   3   1  -7   37.28    6.43
   3   1  -7   31.57    6.51
   3   1  -7   38.30    6.78
   3   1  -7   23.93    6.20
   3   1  -7   36.53    8.11
   3   1  -7   37.13    7.64
  -3   1   7   29.42    6.44
   3   1  -7   39.16    6.71
   3   1  -7   30.73    5.17
   3   1  -7   36.15    6.11
   3   1  -6  399.50   23.19
   3   1  -6  417.80   25.33
  -3   1   6  419.20   22.78
  -3   1   6  463.35   17.67
   3   1  -6  440.73   22.56
   3   1  -6  433.30   18.62
   3   1  -6  441.75   24.44
   3   1  -6  461.86   21.60
   3   1  -6  418.63   20.72
   3   1  -6  430.34   16.25
   3   1  -6  446.23   20.01
   3   1  -5  490.04   15.50
  -3   1   5  496.15   16.45
  -3   1   4  807.79   18.93
  -3   1   4  794.26   10.48
   3   1  -4  791.95   17.65
  -3   1   3  545.93   14.51
  -3   1   3  567.15   11.52
   3   1  -3  548.08    8.68
   3   1  -3  519.09   12.71
  -3   1   2  631.88   14.51
  -3   1   2  649.48   14.74
   3   1  -2  646.80   12.00
   3   1  -2  603.50   12.07
  -3   1   1  741.44   15.36
   3   1  -1  854.73   12.13
   3   1   0 2210.85   34.56
  -3   1   0 8570.96   53.68
  -3   1  -1  550.52   15.07
   3   1   1  480.29   15.98
  -3   1  -2   11.44    2.58
   3   1   2    9.06    2.66
  -3   1  -3 1922.17   47.85
  -3   1  -3 1819.01   42.91
  -3   1  -3 1914.52   46.29
  -3   1  -3 1778.90   60.52
  -3   1  -3 2015.31   36.92
  -3   1  -3 1767.01   54.25
  -3   1  -3 1694.64   46.71
  -3   1  -4  953.45   33.89
  -3   1  -4  954.27   43.75
  -3   1  -4 1000.56   33.95
  -3   1  -4  975.34   37.25
  -3   1  -4  953.38   47.87
  -3   1  -4  981.35   36.45
  -3   1  -4 1047.96   30.69
  -3   1  -4  954.69   36.63
  -3   1  -5  250.90   16.43
  -3   1  -5  225.23   24.45
  -3   1  -5  242.97   18.27
  -3   1  -5  226.68   18.47
  -3   1  -5  228.07   19.27
  -3   1  -5  225.48   19.41
  -3   1  -5  222.35   22.72
  -3   1  -5  223.35   17.55
  -3   1  -6  211.12   20.05
  -3   1  -6  221.86   16.54
  -3   1  -6  211.74   18.91
  -3   1  -6  220.91   25.03
  -3   1  -6  214.08   18.22
  -3   1  -6  220.47   20.46
  -3   1  -6  206.03   22.79
  -3   1  -7   59.89    8.78
   3   1   7   85.31   11.42
  -3   1  -7   64.23   10.72
  -3   1  -7   87.81   16.73
  -3   1  -7   74.57   10.68
  -3   1  -7   73.76   12.29
  -3   1  -7   65.15   11.13
  -3   1  -7   69.91   13.15
  -3   1  -8  156.94   16.93
  -3   1  -8  153.83   14.88
  -3   1  -8  149.53   16.74
  -3   1  -8  156.16   17.60
  -3   1  -8  158.20   18.49
   3   1   9  382.74   22.70
  -3   1  -9  412.38   20.99
  -3   1  -9  390.29   25.20
  -3   1  -9  386.00   24.85
  -3   1  -9  371.62   23.28
  -3   1  -9  416.11   25.60
  -3   1 -10  113.66   10.23
  -3   1 -10  116.86   11.30
   3   1  10   96.47    9.03
   3   2 -12  227.49   17.03
   3   2 -12  235.89   17.81
  -3   2  12  258.15   17.65
   3   2 -12  272.28   20.31
  -3   2  12  212.30   15.49
  -3   2  12  224.24   16.96
   3   2 -12  229.26   15.80
  -3   2  11  410.38   27.02
   3   2 -11  483.36   27.91
  -3   2  11  428.07   26.94
   3   2 -11  418.27   26.63
   3   2 -11  409.75   27.79
   3   2 -11  467.78   31.24
   3   2 -11  387.57   24.37
   3   2 -11  397.62   21.68
   3   2 -10  162.22   17.81
   3   2 -10  159.77   18.83
  -3   2  10  170.65   18.27
  -3   2  10  141.04   17.00
   3   2 -10  176.20   20.57
   3   2 -10  121.80   13.31
   3   2 -10  161.47   14.96
   3   2 -10  152.11   16.45
   3   2 -10  174.61   18.05
   3   2  -9    2.64    2.39
   3   2  -9    1.10    2.21
  -3   2   9    1.38    2.69
  -3   2   9    0.71    1.94
   3   2  -9    4.12    4.35
   3   2  -9    2.15    3.41
   3   2  -9    1.99    1.87
  -3   2   9    1.81    1.92
   3   2  -9    2.11    3.47
   3   2  -9    2.29    2.24
   3   2  -8  701.50   31.27
   3   2  -8  625.98   36.51
   3   2  -8  654.87   34.48
  -3   2   8  697.20   36.23
   3   2  -8  701.73   32.79
  -3   2   8  679.36   36.03
   3   2  -8  650.13   27.64
   3   2  -8  684.38   39.33
   3   2  -8  668.68   34.93
  -3   2   8  694.92   30.15
   3   2  -8  643.20   32.70
   3   2  -7 1066.76   32.44
   3   2  -7 1048.04   36.46
  -3   2   7 1052.90   75.33
   3   2  -7  920.10   42.04
  -3   2   7  985.10   40.36
   3   2  -7  970.05   39.72
  -3   2   7 1014.08   41.15
  -3   2   7 1069.56   30.75
   3   2  -7 1041.01   33.64
   3   2  -7 1060.40   40.99
  -3   2   7 1026.06   34.87
   3   2  -7 1018.12   45.26
   3   2  -7 1065.31   38.78
   3   2  -7  945.65   37.07
   3   2  -6 1444.91   39.76
   3   2  -6 1453.52   37.85
   3   2  -6 1487.23   43.06
   3   2  -6 1287.42   46.46
  -3   2   6 1518.02   32.72
  -3   2   6 1373.66   44.54
  -3   2   6 1425.89   44.83
   3   2  -6 1403.64   44.23
   3   2  -6 1394.85   43.63
  -3   2   6 1443.87   38.86
   3   2  -6 1379.29   49.01
   3   2  -6 1309.27   40.78
  -3   2   6 1406.90   83.76
   3   2  -6 1503.47   34.19
   3   2  -5  135.12   12.92
   3   2  -5  133.53   14.11
  -3   2   5  140.64    8.94
  -3   2   5  125.83   12.38
   3   2  -5  127.04   13.97
  -3   2   5  130.35    6.67
   3   2  -5  130.56   10.66
   3   2  -5  127.04   11.59
  -3   2   5  128.74   10.71
  -3   2   5  108.98   23.40
  -3   2   5  131.75   12.31
   3   2  -5  132.88   11.88
   3   2  -5  137.23    9.40
   3   2  -5  125.90   10.74
  -3   2   4  994.78   21.44
   3   2  -4  988.04   16.81
  -3   2   4  986.94   18.68
  -3   2   3 3595.21   37.00
   3   2  -3 3506.36   32.11
   3   2  -3 3545.65   40.10
   3   2  -2 3029.38   33.84
  -3   2   2 2956.23   36.18
   3   2  -1 1283.63   22.36
   3   2  -1 1274.02   19.56
  -3   2   0  303.46   10.18
   3   2   0  316.43   12.39
  -3   2   0  315.55   14.33
  -3   2  -1 1373.10   33.54
  -3   2  -1 1443.19   24.66
   3   2   1 1466.57   29.67
   3   2   2 2447.63   42.22
  -3   2  -2 2798.26   54.33
  -3   2  -2 2566.16   57.52
  -3   2  -2 2973.81   40.34
  -3   2  -2 2492.62   56.96
  -3   2  -2 2673.20   67.35
   3   2   2 3099.61   73.05
  -3   2  -2 2801.56   62.40
   3   2   2 2468.91   48.78
   3   2   3 1224.23   32.70
  -3   2  -3 1334.17   38.89
  -3   2  -3 1467.91   32.38
  -3   2  -3 1175.86   50.37
  -3   2  -3 1293.23   42.97
   3   2   3 1217.06   37.08
  -3   2  -3 1323.90   36.55
  -3   2  -3 1232.98   42.75
  -3   2  -3 1309.51   47.29
  -3   2  -3 1313.83   40.61
   3   2   3 1509.42   53.97
  -3   2  -4  138.73   14.36
  -3   2  -4  130.76   14.13
  -3   2  -4  137.42   12.90
   3   2   4  164.71   14.20
  -3   2  -4  117.45   17.15
   3   2   4  144.62   12.72
   3   2   4  145.37   17.89
  -3   2  -4  134.94   11.31
  -3   2  -4  133.59   13.64
  -3   2  -4  141.53   15.12
  -3   2  -4  135.97   12.48
  -3   2  -4  124.03   15.98
  -3   2  -5  114.89   18.59
   3   2   5  179.20   15.56
  -3   2  -5  141.60   14.89
  -3   2  -5  141.59   15.35
  -3   2  -5  140.10   13.65
  -3   2  -5  132.93   18.13
  -3   2  -5  146.38   15.80
  -3   2  -5  134.28   14.92
  -3   2  -6  505.54   29.19
  -3   2  -6  506.66   29.49
  -3   2  -6  520.74   38.90
  -3   2  -6  478.88   26.46
  -3   2  -6  487.62   29.87
  -3   2  -6  491.19   29.99
  -3   2  -6  478.78   34.64
   3   2   6  538.22   28.26
  -3   2  -7  267.57   22.15
   3   2   7  270.19   19.33
  -3   2  -7  284.96   27.72
  -3   2  -7  280.13   22.02
  -3   2  -7  295.68   20.27
  -3   2  -7  273.49   22.90
  -3   2  -7  283.40   25.74
  -3   2  -8   79.74   11.20
   3   2   8  108.55   13.13
  -3   2  -8   91.58   12.35
  -3   2  -8   74.67   11.24
  -3   2  -8  102.35   14.38
  -3   2  -9   19.51    5.06
  -3   2  -9   23.98    5.75
  -3   2  -9   21.75    5.60
   3   2   9   20.53    5.02
  -3   2  -9   13.32    4.16
   3   3 -12   83.37    9.06
  -3   3  12   94.97    9.87
   3   3 -12   89.37   10.15
  -3   3  12   93.29    9.93
   3   3 -12   84.30    8.65
   3   3 -11    8.63    3.76
  -3   3  11   10.58    4.12
   3   3 -11    4.55    2.97
   3   3 -11    8.59    4.49
  -3   3  11    6.96    3.36
   3   3 -11    5.89    2.11
   3   3 -11    8.44    3.92
   3   3 -10  386.94   23.28
   3   3 -10  389.71   26.72
  -3   3  10  408.86   28.07
   3   3 -10  428.96   30.17
   3   3 -10  306.49   22.10
  -3   3  10  389.42   23.00
   3   3 -10  438.74   25.82
  -3   3  10  423.03   28.26
   3   3 -10  372.02   25.21
   3   3 -10  372.70   27.54
   3   3  -9  752.53   32.33
  -3   3   9  805.66   40.79
   3   3  -9  761.60   39.05
   3   3  -9  744.54   36.28
  -3   3   9  819.35   41.49
   3   3  -9  830.70   36.17
   3   3  -9  874.25   38.17
  -3   3   9  821.84   35.71
   3   3  -9  796.14   43.44
   3   3  -9  741.32   41.30
   3   3  -9  780.04   38.31
   3   3  -8  361.24   26.69
   3   3  -8  383.57   22.98
   3   3  -8  382.76   26.14
  -3   3   8  412.24   28.97
   3   3  -8  321.83   27.20
  -3   3   8  384.53   27.50
   3   3  -8  381.39   29.48
   3   3  -8  406.19   25.93
  -3   3   8  350.49   48.05
   3   3  -8  374.90   24.37
  -3   3   8  387.47   24.41
   3   3  -8  358.94   25.70
   3   3  -7   50.37    8.61
   3   3  -7   51.60    9.12
   3   3  -7   48.84    9.48
  -3   3   7   41.37    8.69
   3   3  -7   45.42    9.86
   3   3  -7   47.32    8.27
  -3   3   7   48.99    8.47
   3   3  -7   56.02    8.66
   3   3  -7   58.60   11.29
  -3   3   7   59.28   10.46
  -3   3   7   66.40   22.43
   3   3  -7   49.39    9.20
   3   3  -6  234.77   17.79
   3   3  -6  236.34   19.29
   3   3  -6  242.96   17.29
   3   3  -6  246.89   20.10
  -3   3   6  226.58   19.07
  -3   3   6  252.92   19.65
   3   3  -6  221.27   20.89
   3   3  -6  235.28   15.77
   3   3  -6  225.44   20.81
  -3   3   6  225.18   36.38
  -3   3   6  243.86   17.80
   3   3  -6  162.55   14.47
   3   3  -6  212.02   17.87
   3   3  -5 1060.23   35.58
   3   3  -5 1027.75   43.48
   3   3  -5 1112.57   40.18
   3   3  -5 1144.49   35.51
   3   3  -5 1140.16   41.09
  -3   3   5 1157.92   25.77
  -3   3   5 1141.99   39.84
   3   3  -5 1127.90   44.04
  -3   3   5 1069.69   39.11
  -3   3   5 1163.32   79.37
   3   3  -5 1067.76   32.77
  -3   3   5 1122.67   36.78
   3   3  -5 1148.28   39.45
   3   3  -5 1021.92   30.27
   3   3  -4 1181.08   34.97
   3   3  -4 1149.00   30.23
   3   3  -4 1242.07   40.86
   3   3  -4 1171.09   42.46
   3   3  -4 1100.18   42.51
  -3   3   4 1244.04   23.93
   3   3  -4 1233.06   24.30
  -3   3   4 1176.93   37.58
  -3   3   4 1160.65   35.86
   3   3  -4 1232.33   40.26
  -3   3   4 1301.21   27.70
   3   3  -4 1104.45   32.57
  -3   3   4 1106.98   36.98
   3   3  -4 1208.09   34.98
  -3   3   4 1199.72   77.35
   3   3  -4 1182.51   37.53
  -3   3   3  724.36   28.04
  -3   3   3  714.92   27.60
  -3   3   3  781.11   16.68
   3   3  -3  836.38   31.96
   3   3  -3  804.89   31.08
   3   3  -3  798.79   19.35
  -3   3   3  811.89   22.28
   3   3  -3  740.93   33.26
   3   3  -3  819.67   27.45
   3   3  -3  737.45   26.21
   3   3  -3  753.48   26.37
  -3   3   3  740.61   59.20
   3   3  -3  786.63   28.79
  -3   3   3  734.77   27.91
  -3   3   2  391.57   25.65
   3   3  -2  445.61   19.60
  -3   3   2  394.65   22.19
   3   3  -2  441.65   22.43
  -3   3   2  433.22   11.41
   3   3  -2  440.53   24.32
  -3   3   2  480.65   46.65
  -3   3   2  440.36   21.29
  -3   3   2  490.92   17.65
   3   3  -2  460.07   14.88
  -3   3   1 3382.72   71.96
  -3   3   1 3299.17   66.24
  -3   3   1 3223.44   61.59
  -3   3   1 3408.61   31.97
   3   3  -1 3477.93   54.91
   3   3  -1 3485.55   44.45
  -3   3   1 3647.74   50.69
  -3   3   1 3407.79   61.30
   3   3  -1 3445.68   76.35
  -3   3   1 3362.69   60.88
  -3   3   0 2695.84   63.20
  -3   3   0 2385.73   53.38
  -3   3   0 2566.38   60.26
  -3   3   0 2566.96   57.87
   3   3   0 2886.91   41.66
  -3   3   0 2951.03   49.52
   3   3   0 2716.33   48.09
   3   3   0 2817.35   72.62
  -3   3   0 2705.75   30.67
  -3   3   0 2587.31   55.31
   3   3   0 2624.23   48.14
  -3   3   0 2306.19   53.54
  -3   3  -1  625.25   30.56
  -3   3  -1  652.59   30.83
  -3   3  -1  613.91   28.91
  -3   3  -1  609.13   26.64
   3   3   1  657.21   24.75
  -3   3  -1  670.44   31.31
   3   3   1  749.49   38.92
   3   3   1  653.29   22.34
  -3   3  -1  654.49   29.38
  -3   3  -1  722.71   18.01
  -3   3  -1  692.89   26.67
  -3   3  -1  612.98   25.30
   3   3   1  663.34   24.34
  -3   3  -2   46.88    8.22
  -3   3  -2   62.44   10.07
  -3   3  -2   49.65    7.63
   3   3   2   58.75    7.22
  -3   3  -2   51.21    6.84
  -3   3  -2   49.75    9.40
   3   3   2   46.73    6.86
   3   3   2   72.53   13.25
  -3   3  -2   56.78    8.01
  -3   3  -2   58.18   10.48
  -3   3  -2   70.57    6.41
  -3   3  -2   53.51    9.47
   3   3   2   57.51    8.10
  -3   3  -3  708.30   29.51
  -3   3  -3  773.76   36.59
   3   3   3  824.23   30.89
  -3   3  -3  725.90   35.51
   3   3   3  872.83   47.94
  -3   3  -3  756.11   40.99
  -3   3  -3  795.21   32.43
  -3   3  -3  777.56   37.43
   3   3   3  798.77   27.61
  -3   3  -4 1148.06   38.51
   3   3   4 1411.33   43.29
  -3   3  -4 1322.24   49.47
  -3   3  -4 1164.87   56.00
  -3   3  -4 1290.00   43.91
   3   3   4 1450.92   66.61
  -3   3  -4 1283.08   48.82
  -3   3  -4 1292.90   42.82
  -3   3  -4 1197.34   50.71
  -3   3  -5  384.47   27.24
  -3   3  -5  358.40   32.29
  -3   3  -5  378.98   25.02
   3   3   5  446.62   24.64
   3   3   5  444.03   38.78
  -3   3  -5  407.51   25.65
  -3   3  -5  407.15   27.66
   3   3   5  437.54   26.80
  -3   3  -5  315.65   27.74
  -3   3  -6   32.09    9.64
   3   3   6   55.52    8.39
  -3   3  -6   47.73    8.99
   3   3   6   63.20   10.38
  -3   3  -6   43.91    8.77
  -3   3  -6   54.66   11.82
  -3   3  -6   50.67   10.01
  -3   3  -7  266.97   20.37
   3   3   7  295.38   19.05
  -3   3  -7  280.14   26.57
  -3   3  -7  298.99   22.08
   3   3   7  321.85   23.46
  -3   3  -7  299.01   25.11
  -3   3  -8  496.00   24.78
  -3   3  -8  505.44   25.76
  -3   3  -8  520.37   28.71
   3   3   9  253.19   15.81
   3   3   9  281.83   17.23
  -3   4  11  582.41   26.60
   3   4 -11  418.15   19.32
   3   4 -11  442.08   22.04
  -3   4  11  536.69   24.82
   3   4 -11  464.10   21.96
   3   4 -10   98.05   10.37
   3   4 -10  110.26   12.90
  -3   4  10  125.86   13.94
   3   4 -10  124.31   14.23
  -3   4  10  144.79   15.31
   3   4 -10  113.45   12.03
  -3   4  10  116.47   12.30
   3   4 -10  113.42   13.50
   3   4 -10  124.35   13.45
   3   4 -10   75.60   10.72
   3   4  -9   67.72   10.63
   3   4  -9   52.68    9.83
  -3   4   9   72.21   10.50
   3   4  -9   60.65   10.53
  -3   4   9   66.00   10.67
   3   4  -9   68.35   11.51
   3   4  -9   63.82   11.24
   3   4  -9   61.25    9.71
  -3   4   9   80.26   12.12
  -3   4   9   25.83   13.61
   3   4  -9   65.63   10.87
   3   4  -8  372.34   28.29
   3   4  -8  412.50   25.23
   3   4  -8  361.20   27.74
   3   4  -8  369.40   27.14
  -3   4   8  394.13   27.11
   3   4  -8  382.92   25.69
  -3   4   8  401.18   28.25
  -3   4   8  397.90   26.07
  -3   4   8  399.63   54.13
   3   4  -8  334.78   25.12
   3   4  -8  351.88   27.87
   3   4  -7  839.65   38.46
  -3   4   7  856.85   40.87
   3   4  -7  909.81   37.79
   3   4  -7  802.69   39.90
   3   4  -7  735.16   40.92
   3   4  -7  858.30   42.76
  -3   4   7  943.23   84.88
  -3   4   7  900.76   39.42
  -3   4   7  846.61   39.04
   3   4  -7  855.62   42.79
   3   4  -7  751.78   37.81
   3   4  -7  871.04   34.84
  -3   4   6  549.89   31.15
   3   4  -6  481.88   28.25
   3   4  -6  500.85   30.96
   3   4  -6  563.17   33.77
   3   4  -6  572.61   29.23
  -3   4   6  523.19   29.39
  -3   4   6  539.24   29.75
   3   4  -6  487.27   32.62
  -3   4   6  564.70   63.50
   3   4  -6  515.91   32.50
   3   4  -6  529.07   26.63
   3   4  -6  499.74   30.12
  -3   4   5  157.67   15.80
   3   4  -5  167.39   15.20
   3   4  -5  140.82   16.75
   3   4  -5  133.22   16.19
   3   4  -5  156.46   15.03
   3   4  -5  155.26   16.31
  -3   4   5  155.77   15.33
   3   4  -5  173.96   17.98
  -3   4   5  161.83   15.63
   3   4  -5  166.99   14.44
  -3   4   5  176.40   35.44
   3   4  -5  162.33   16.27
   3   4  -4 1106.81   37.78
  -3   4   4 1097.27   39.28
   3   4  -4 1172.50   43.80
   3   4  -4 1167.26   47.00
   3   4  -4 1154.32   39.73
  -3   4   4 1111.67   31.90
   3   4  -4 1063.89   33.36
  -3   4   4 1120.94   36.74
  -3   4   4 1156.24   85.91
   3   4  -4 1113.81   37.31
  -3   4   4 1120.10   40.19
   3   4  -4 1130.98   45.81
  -3   4   4 1088.51   38.86
   3   4  -4 1141.06   41.14
   3   4  -3 1401.09   41.15
  -3   4   3 1441.47   42.76
   3   4  -3 1596.65   49.06
  -3   4   3 1397.21   41.80
   3   4  -3 1576.27   52.95
   3   4  -3 1573.51   33.65
  -3   4   3 1594.50   37.45
   3   4  -3 1405.20   37.64
  -3   4   3 1527.27   43.60
   3   4  -3 1451.54   41.66
  -3   4   3 1438.99   90.69
   3   4  -3 1421.85   42.23
  -3   4   3 1481.61   45.33
  -3   4   3 1358.71   45.51
   3   4  -3 1472.49   50.62
   3   4  -3 1499.26   45.22
  -3   4   2 1186.69   46.08
   3   4  -2 1435.53   48.57
  -3   4   2 1431.70   54.53
  -3   4   2 1320.78   46.26
  -3   4   2 1434.84   44.10
  -3   4   2 1319.55   40.98
  -3   4   2 1446.90   41.37
  -3   4   2 1320.24   38.25
  -3   4   2 1501.37   37.22
   3   4  -2 1422.65   37.84
  -3   4   2 1475.49   44.25
   3   4  -2 1429.62   41.01
   3   4  -2 1386.40   55.22
   3   4  -2 1410.05   40.29
  -3   4   2 1467.44   90.44
   3   4  -2 1535.37   34.12
   3   4  -2 1499.51   40.19
   3   4  -2 1459.62   42.50
   3   4  -1  689.70   32.87
  -3   4   1  633.14   31.39
  -3   4   1  659.63   33.24
  -3   4   1  671.18   36.37
  -3   4   1  597.30   29.23
  -3   4   1  644.88   26.91
   3   4  -1  754.33   27.32
   3   4  -1  728.92   23.56
   3   4  -1  647.53   26.03
  -3   4   1  662.23   30.86
   3   4  -1  662.06   27.32
   3   4  -1  661.42   39.77
  -3   4   1  676.65   30.52
  -3   4   1  667.12   25.65
   3   4  -1  666.46   27.93
  -3   4   1  648.88   58.87
   3   4   0  276.89   19.99
  -3   4   0  252.01   21.02
  -3   4   0  240.38   19.54
  -3   4   0  245.81   19.59
  -3   4   0  248.38   16.50
   3   4   0  312.78   16.05
  -3   4   0  255.17   16.21
  -3   4   0  251.53   22.18
   3   4   0  282.70   17.21
  -3   4   0  275.08   20.76
   3   4   0  258.72   25.94
  -3   4   0  238.37   35.52
  -3   4   0  262.72   19.62
   3   4   0  249.98   16.54
   3   4   1 1600.94   43.61
  -3   4  -1 1540.84   56.27
  -3   4  -1 1585.72   50.11
   3   4   1 1671.40   39.31
   3   4   1 1546.67   41.82
  -3   4  -1 1709.41   55.91
  -3   4  -1 1492.26   50.05
   3   4   1 1651.63   68.55
  -3   4  -1 1574.09   54.40
   3   4   1 1529.75   40.11
  -3   4  -1 1589.65   50.51
  -3   4  -1 1504.70   43.95
  -3   4  -1 1580.62   42.77
  -3   4  -1 1587.56   43.07
  -3   4  -2 1419.74   52.88
   3   4   2 1354.24   42.54
  -3   4  -2 1365.57   53.99
   3   4   2 1572.37   71.04
   3   4   2 1421.99   41.62
  -3   4  -2 1425.60   42.12
  -3   4  -2 1433.72   50.94
  -3   4  -2 1406.39   47.66
  -3   4  -2 1429.87   53.17
   3   4   2 1495.00   40.77
  -3   4  -2 1352.96   50.72
  -3   4  -2 1409.57   41.26
  -3   4  -3  205.17   19.65
   3   4   3  221.83   27.59
   3   4   3  203.38   17.01
  -3   4  -3  201.97   16.45
  -3   4  -3  203.67   22.36
  -3   4  -3  219.92   21.44
  -3   4  -3  211.68   18.53
  -3   4  -3  203.38   20.13
   3   4   3  212.78   16.99
  -3   4  -3  205.00   20.25
  -3   4  -4   22.19    7.16
  -3   4  -4   10.28    4.62
  -3   4  -4   16.44    7.42
  -3   4  -4   15.53    4.80
  -3   4  -4   15.57    6.20
   3   4   4   23.46    5.54
   3   4   4   24.30    9.35
   3   4   4   22.70    5.91
  -3   4  -4   18.75    6.55
  -3   4  -5  332.53   22.52
   3   4   5  402.82   24.14
  -3   4  -5  333.97   30.64
  -3   4  -5  375.80   27.93
   3   4   5  408.39   41.05
  -3   4  -5  361.25   26.88
   3   4   5  363.28   24.31
  -3   4  -5  314.85   26.86
  -3   4  -6 1237.57   48.88
   3   4   6 1373.08   43.06
  -3   4  -6 1307.85   59.78
   3   4   6 1441.86   78.53
   3   4   6 1387.99   47.74
  -3   4  -6 1244.46   51.26
  -3   4  -6 1313.48   48.69
  -3   4  -7  119.94   12.98
  -3   4  -7   92.82   14.50
   3   4   7  111.23   11.19
   3   4   7  131.82   13.86
  -3   4  -7  100.31   12.83
   3   4   8  127.01   12.27
   3   4   8  106.28   11.20
  -3   5  10  346.03   18.63
   3   5 -10  330.25   17.58
   3   5 -10  363.57   19.47
  -3   5  10  373.49   19.73
   3   5 -10  369.82   19.66
   3   5  -9  525.04   26.23
   3   5  -9  523.51   27.35
  -3   5   9  588.47   28.00
   3   5  -9  515.40   25.92
  -3   5   9  613.65   29.93
   3   5  -9  578.02   28.45
   3   5  -9  443.68   26.80
  -3   5   9  477.19   51.73
  -3   5   9  596.22   28.98
   3   5  -9  522.92   27.38
   3   5  -8  223.83   19.26
  -3   5   8  231.01   19.75
   3   5  -8  177.88   19.74
   3   5  -8  217.28   18.13
  -3   5   8  238.81   19.86
   3   5  -8  222.56   17.04
   3   5  -8  195.07   18.30
  -3   5   8  223.27   18.38
   3   5  -8  221.11   19.86
  -3   5   8  232.45   40.81
   3   5  -8  197.25   18.64
   3   5  -7   90.65   12.20
   3   5  -7   72.76   12.03
   3   5  -7   61.40   12.54
   3   5  -7   66.49   11.36
  -3   5   7   73.75   10.73
  -3   5   7   78.83   11.68
   3   5  -7   93.67   11.48
   3   5  -7   71.37   11.37
  -3   5   7   87.72   12.29
  -3   5   7   78.20   25.44
   3   5  -7   61.69   10.66
  -3   5   6  519.69   28.95
   3   5  -6  523.92   29.90
  -3   5   6  512.08   29.24
   3   5  -6  504.38   31.25
   3   5  -6  448.67   33.10
  -3   5   6  464.98   61.74
   3   5  -6  431.03   27.77
  -3   5   6  536.66   31.62
   3   5  -6  514.15   32.90
   3   5  -6  537.92   28.67
   3   5  -6  491.99   30.45
   3   5  -5 1250.89   46.80
   3   5  -5 1260.74   55.84
   3   5  -5 1347.60   47.44
   3   5  -5 1381.77   51.81
  -3   5   5 1413.69   50.78
  -3   5   5 1382.22   46.93
   3   5  -5 1586.65   57.91
  -3   5   5 1431.89   45.23
  -3   5   5 1351.04   45.82
  -3   5   5 1535.49  110.50
   3   5  -5 1404.54   46.53
   3   5  -5 1305.66   49.52
   3   5  -4  715.11   33.93
   3   5  -4  767.25   37.88
  -3   5   4  728.86   35.88
   3   5  -4  724.30   42.29
  -3   5   4  697.66   31.75
  -3   5   4  696.40   31.79
   3   5  -4  694.23   33.79
   3   5  -4  715.26   30.81
  -3   5   4  724.91   32.96
  -3   5   4  751.58   75.53
   3   5  -4  750.44   33.84
   3   5  -4  755.89   36.50
   3   5  -3  104.07   12.14
   3   5  -3  105.38   15.73
   3   5  -3  119.18   12.96
   3   5  -3  108.92   11.58
  -3   5   3  120.20   13.74
   3   5  -3  118.40   13.06
  -3   5   3  109.36   13.63
  -3   5   3  105.90   28.37
   3   5  -3   96.96   12.61
  -3   5   2  145.79   16.38
   3   5  -2  150.57   14.00
   3   5  -2  131.00   12.65
  -3   5   2  105.27   17.98
   3   5  -2  148.88   17.60
  -3   5   2  125.11   14.49
  -3   5   2  139.91   15.30
   3   5  -2  136.94   14.16
  -3   5   2  143.12   15.61
   3   5  -2  115.42   18.36
  -3   5   2  113.79   28.07
   3   5  -2  139.12   13.11
   3   5  -2  134.91   14.54
  -3   5   1 1511.41   54.41
  -3   5   1 1448.77   55.18
   3   5  -1 1581.00   44.36
  -3   5   1 1453.12   60.94
  -3   5   1 1512.57   97.77
  -3   5   1 1365.18   48.45
   3   5  -1 1484.56   44.88
  -3   5   1 1470.94   51.47
   3   5  -1 1476.00   55.10
   3   5  -1 1408.31   68.93
   3   5  -1 1476.47   46.01
  -3   5   1 1449.83   50.29
   3   5  -1 1448.88   47.03
  -3   5   0 1606.23   59.32
  -3   5   0 1550.36   55.53
   3   5   0 1656.27   55.86
  -3   5   0 1629.74   63.11
  -3   5   0 1588.90   56.77
   3   5   0 1472.87   73.24
   3   5   0 1443.64   45.04
  -3   5   0 1472.19   93.87
  -3   5   0 1542.56   52.77
  -3   5   0 1402.48   51.55
   3   5   0 1565.92   46.76
  -3   5  -1  598.04   36.90
  -3   5  -1  592.92   37.50
  -3   5  -1  583.44   33.99
  -3   5  -1  588.27   35.53
  -3   5  -1  557.96   33.99
   3   5   1  570.21   28.91
   3   5   1  581.32   47.91
   3   5   1  614.68   28.84
  -3   5  -1  571.14   32.36
  -3   5  -2  203.67   22.31
  -3   5  -2  219.34   22.91
  -3   5  -2  203.49   21.16
   3   5   2  201.69   17.67
  -3   5  -2  201.53   22.23
   3   5   2  244.94   32.35
   3   5   2  224.62   17.02
   3   5   2  193.01   16.11
  -3   5  -2  181.35   19.15
  -3   5  -2  203.13   20.04
  -3   5  -3  713.16   40.76
  -3   5  -3  729.63   40.16
  -3   5  -3  614.42   34.70
  -3   5  -3  663.48   38.91
   3   5   3  675.99   31.12
  -3   5  -3  658.38   41.45
  -3   5  -3  674.95   37.52
   3   5   3  660.99   31.98
  -3   5  -4  576.54   32.26
   3   5   4  608.34   30.65
  -3   5  -4  582.92   39.31
  -3   5  -4  648.10   38.51
  -3   5  -4  639.15   37.05
   3   5   4  686.16   57.88
   3   5   4  589.55   29.65
  -3   5  -4  589.55   34.84
  -3   5  -5  206.47   22.71
  -3   5  -5  208.57   18.27
  -3   5  -5  192.45   19.89
   3   5   5  210.95   17.28
   3   5   5  236.49   32.98
  -3   5  -5  221.39   20.72
   3   5   5  220.85   17.78
  -3   5  -5  198.11   19.63
  -3   5  -6   -1.55    2.63
  -3   5  -6   -1.19    2.50
   3   5   6    1.62    2.43
  -3   5  -6    4.36    4.02
   3   5   6    0.09    0.58
  -3   5  -7  115.75   11.29
   3   5   7  138.22   12.27
   3   6  -9   14.36    3.73
  -3   6   9   10.41    3.29
   3   6  -9   12.17    3.34
   3   6  -8   80.30   11.06
   3   6  -8   71.95    9.04
   3   6  -8   79.16    9.21
  -3   6   8   96.53   11.01
  -3   6   8   86.93   23.86
   3   6  -8   81.73   10.30
   3   6  -8   81.44    9.98
   3   6  -7  323.21   25.62
   3   6  -7  284.80   19.75
   3   6  -7  379.76   24.37
   3   6  -7  374.39   22.25
  -3   6   7  373.06   51.70
  -3   6   7  382.03   24.62
   3   6  -7  319.44   21.82
   3   6  -6  183.67   20.64
   3   6  -6  171.13   15.83
   3   6  -6  227.91   20.10
   3   6  -6  261.99   19.82
  -3   6   6  229.27   19.93
  -3   6   6  216.84   40.72
   3   6  -6  205.75   18.75
   3   6  -5   93.81   15.31
   3   6  -5   82.49   11.64
   3   6  -5  113.33   14.35
  -3   6   5  116.81   13.36
  -3   6   5  128.25   15.50
  -3   6   5  129.85   31.75
   3   6  -5  127.96   14.16
   3   6  -5  104.74   13.63
   3   6  -4  358.89   24.46
   3   6  -4  388.01   26.43
   3   6  -4  437.97   25.36
  -3   6   4  393.66   26.35
  -3   6   4  470.14   61.80
   3   6  -4  378.25   31.20
  -3   6   4  419.74   28.08
   3   6  -4  481.01   28.27
   3   6  -4  419.95   27.58
   3   6  -3  590.01   39.62
   3   6  -3  652.85   33.02
   3   6  -3  684.80   31.50
  -3   6   3  662.36   34.79
   3   6  -3  614.57   31.43
  -3   6   3  698.08   36.28
   3   6  -3  715.60   34.40
  -3   6   3  707.16   72.78
   3   6  -3  656.29   34.31
   3   6  -2  430.07   32.36
   3   6  -2  443.63   26.21
   3   6  -2  425.12   25.36
  -3   6   2  418.77   29.62
   3   6  -2  422.50   25.14
  -3   6   2  441.64   29.63
   3   6  -2  415.48   39.49
  -3   6   2  435.06   56.13
  -3   6   2  422.96   28.22
   3   6  -2  423.16   26.27
   3   6  -1   45.28    9.80
  -3   6   1   50.42   10.44
  -3   6   1   44.74    9.04
   3   6  -1   51.58    8.62
  -3   6   1   37.24   17.22
  -3   6   1   57.79   11.36
   3   6  -1   49.96    8.59
   3   6  -1   42.66   13.41
  -3   6   1   53.13    9.85
  -3   6   0   13.01    5.73
   3   6   0   11.09    5.50
  -3   6   0   11.57    6.34
  -3   6   0   12.33    5.26
  -3   6   0   15.15    6.37
   3   6   0   18.08    5.28
  -3   6   0   24.29    7.34
  -3   6   0   14.42    5.87
   3   6   0   15.78    4.71
   3   6   0   25.56   12.30
  -3   6  -1  182.06   21.68
  -3   6  -1  187.80   20.19
  -3   6  -1  171.85   19.74
  -3   6  -1  197.41   19.15
   3   6   1  168.85   16.75
   3   6   1  197.63   29.85
  -3   6  -1  183.56   20.96
  -3   6  -1  161.51   18.74
   3   6   1  182.07   15.73
  -3   6  -2  483.49   34.02
  -3   6  -2  453.65   33.65
  -3   6  -2  459.38   33.06
  -3   6  -2  499.06   31.76
   3   6   2  431.87   26.43
  -3   6  -2  463.33   31.13
   3   6   2  532.13   50.88
  -3   6  -2  459.98   29.20
  -3   6  -3  278.52   23.88
  -3   6  -3  276.87   26.21
  -3   6  -3  285.83   24.96
  -3   6  -3  288.41   25.90
   3   6   3  266.08   20.51
   3   6   3  296.36   38.22
   3   6   3  298.21   19.46
  -3   6  -3  274.55   22.45
  -3   6  -3  282.03   23.45
  -3   6  -4    9.90    3.85
  -3   6  -4    6.23    3.97
  -3   6  -4   17.04    5.79
   3   6   4    6.62    3.56
  -3   6  -4    5.95    3.10
   3   6   4   17.40    9.57
   3   6   4    5.26    2.64
   3   6   5  459.52   23.25
  -3   6  -5  421.63   28.64
  -3   6  -5  416.83   26.24
  -3   6  -5  410.37   22.96
   3   6   5  473.19   22.69
  -3   6  -5  514.43   27.73
   3   6   6  366.10   35.85
  -3   6  -6  357.09   19.29
   3   7  -7    3.17    2.26
   3   7  -7    5.50    2.86
  -3   7   7    3.99    2.50
  -3   7   7    9.73    9.64
   3   7  -6  209.17   18.89
   3   7  -6  261.89   18.31
   3   7  -6  199.62   15.31
  -3   7   6  298.63   41.51
  -3   7   6  295.68   19.39
   3   7  -6  324.71   19.36
   3   7  -5  628.58   28.85
   3   7  -5  437.04   29.24
   3   7  -5  473.95   25.13
   3   7  -5  465.23   26.10
  -3   7   5  611.44   61.18
  -3   7   5  574.73   28.84
   3   7  -4  815.61   34.25
   3   7  -4  619.68   35.94
   3   7  -4  632.07   29.27
   3   7  -4  745.16   30.28
   3   7  -4  611.50   30.59
  -3   7   4  696.24   32.08
  -3   7   4  782.68   71.67
  -3   7   4  763.38   34.59
   3   7  -3  220.08   21.92
   3   7  -3  237.67   18.26
   3   7  -3  195.74   16.53
  -3   7   3  240.25   38.96
   3   7  -3  268.52   18.91
  -3   7   3  253.02   20.54
  -3   7   3  267.91   20.58
   3   7  -3  270.30   19.89
   3   7  -2   72.89   11.91
   3   7  -2   95.86   11.30
  -3   7   2   86.18   12.79
  -3   7   2   87.03   11.68
  -3   7   2   74.60   21.39
   3   7  -2   80.48   10.76
   3   7  -1  566.86   33.33
  -3   7   1  601.45   31.26
   3   7  -1  585.53   29.03
  -3   7   1  575.59   33.21
  -3   7   1  533.44   28.24
  -3   7   1  530.63   31.11
   3   7  -1  581.89   48.62
   3   7  -1  555.20   27.83
   3   7   0  924.61   36.74
  -3   7   0  847.66   41.44
  -3   7   0  817.59   36.57
   3   7   0  903.13   61.57
  -3   7   0  813.62   39.81
  -3   7   0  877.98   37.08
   3   7   0  896.73   34.28
  -3   7  -1  237.95   19.94
   3   7   1  248.79   18.34
  -3   7  -1  247.05   22.57
  -3   7  -1  247.76   19.01
   3   7   1  241.81   32.14
  -3   7  -1  231.39   20.88
  -3   7  -2   11.70    4.41
   3   7   2    7.36    3.26
  -3   7  -2    8.45    4.80
  -3   7  -2    5.16    2.99
   3   7   2   14.84    7.89
  -3   7  -3  244.14   19.95
  -3   7  -3  305.92   21.38
   3   7   3  276.35   17.92
  -3   7  -3  276.17   22.38
  -3   7  -4  268.13   19.32
   3   7   4  300.95   17.55
  -3   7  -4  293.94   21.69
   3   7   4  389.91   37.65
  -3   7  -4  372.74   20.97
  -3   8   1   84.32   10.50
  -3   8   0    4.98    3.05
  -4  -7   6    6.40    2.40
   4  -7  -6    7.14    2.72
  -4  -7   6    8.35    2.97
   4  -7  -6    9.04    3.09
  -4  -7   5  481.61   22.04
   4  -7  -5  540.36   22.98
  -4  -7   5  461.46   19.06
  -4  -7   5  532.19   22.19
   4  -7  -5  557.60   22.70
   4  -7  -5  551.70   20.54
  -4  -7   4 1048.41   33.90
   4  -7  -4 1133.78   35.37
  -4  -7   4 1020.91   30.59
  -4  -7   4 1104.11   32.74
   4  -7  -4 1082.04   32.30
   4  -7  -4 1159.59   31.32
  -4  -7   3  477.64   23.34
   4  -7  -3  458.71   24.25
  -4  -7   3  482.44   21.73
  -4  -7   3  537.65   23.09
   4  -7  -3  493.62   21.74
   4  -7  -3  502.67   22.40
   4  -7  -2    1.60    1.80
   4  -7  -2    2.64    1.96
  -4  -7   2    1.81    1.71
  -4  -7   2    2.51    1.58
  -4  -7   2    4.35    2.16
   4  -7  -2    3.35    2.19
   4  -7  -1  447.71   19.44
  -4  -7   1  457.56   22.85
   4  -7  -1  441.35   22.23
  -4  -7   1  478.27   20.76
  -4  -7   1  486.35   22.23
   4  -7  -1  478.60   22.36
   4  -7   0  950.35   32.09
  -4  -7   0 1052.50   33.93
  -4  -7   0 1089.66   29.42
   4  -7   0  952.34   31.35
  -4  -7   0 1108.34   33.42
  -4  -7  -1  646.04   25.70
   4  -7   1  603.22   23.42
  -4  -7  -1  646.91   24.92
  -4  -7  -2   55.94    7.21
   4  -7   2   57.01    6.55
  -4  -7  -2   70.70    7.71
  -4  -7  -3   36.50    5.29
  -4  -7  -3   50.62    6.04
  -4  -6   9   65.25    7.41
   4  -6  -9  115.79    9.45
  -4  -6   8    6.97    3.14
  -4  -6   8   10.59    2.71
   4  -6  -8   14.56    3.68
   4  -6  -7  271.23   16.49
  -4  -6   7  192.98   16.15
  -4  -6   7  215.22   14.48
   4  -6  -7  270.05   17.51
   4  -6  -7  284.56   15.15
  -4  -6   6  384.82   23.30
  -4  -6   6  372.62   20.66
   4  -6  -6  469.92   23.56
   4  -6  -6  428.01   23.12
   4  -6  -6  470.45   21.31
  -4  -6   5  160.37   15.37
   4  -6  -5  195.23   15.99
  -4  -6   5  164.97   14.07
   4  -6  -5  185.51   15.09
   4  -6  -5  202.97   14.61
   4  -6  -4   16.62    4.83
   4  -6  -4   14.41    4.79
  -4  -6   4   16.84    5.03
  -4  -6   4   20.29    5.36
   4  -6  -4   17.98    4.46
  -4  -6   3  380.30   23.98
   4  -6  -3  455.54   25.78
  -4  -6   3  402.28   22.85
   4  -6  -3  393.15   21.73
   4  -6  -3  466.74   23.57
   4  -6  -2  359.40   22.74
  -4  -6   2  356.92   23.10
  -4  -6   2  362.11   21.79
  -4  -6   2  361.17   21.09
   4  -6  -2  353.15   19.99
   4  -6  -2  390.29   22.18
   4  -6  -1  286.32   20.16
  -4  -6   1  299.46   18.48
  -4  -6   1  285.95   19.39
   4  -6  -1  248.04   20.11
   4  -6  -1  295.11   17.90
  -4  -6   1  281.28   20.22
  -4  -6   0  159.28   15.12
   4  -6   0  157.22   14.65
   4  -6   0  162.75   12.75
  -4  -6   0  172.04   14.93
  -4  -6   0  185.99   14.12
   4  -6   1   17.01    4.96
  -4  -6  -1   11.66    3.89
  -4  -6  -1   21.73    5.39
  -4  -6  -1   21.27    4.49
  -4  -6  -2  602.62   27.97
  -4  -6  -2  629.43   27.68
  -4  -6  -3  586.78   26.47
  -4  -6  -3  624.63   26.53
  -4  -6  -4  379.56   19.39
  -4  -6  -4  269.59   16.60
  -4  -6  -5    9.56    2.89
  -4  -6  -5    6.42    2.49
   4  -5 -10  204.25   13.66
  -4  -5   9  425.29   21.63
   4  -5  -9  600.29   26.31
   4  -5  -8  697.38   27.77
   4  -5  -8  710.05   30.40
   4  -5  -8  704.97   25.86
  -4  -5   7  223.76   17.63
   4  -5  -7  281.18   18.76
   4  -5  -7  278.17   19.61
   4  -5  -7  284.65   17.17
   4  -5  -6   92.98   11.18
  -4  -5   6   76.75   10.50
   4  -5  -6   86.65   10.78
   4  -5  -6   90.73    9.86
   4  -5  -5  709.72   31.79
   4  -5  -5  738.82   30.65
   4  -5  -5  748.96   29.22
  -4  -5   5  706.16   30.93
  -4  -5   4 1150.38   43.14
  -4  -5   4 1180.58   39.50
   4  -5  -4 1164.97   41.43
  -4  -5   4 1146.03   39.41
   4  -5  -4 1138.79   37.13
   4  -5  -4 1155.21   36.95
   4  -5  -3 2195.44   55.17
  -4  -5   3 2127.61   56.95
  -4  -5   3 2126.64   52.24
  -4  -5   3 2101.56   52.73
   4  -5  -3 2038.44   48.67
   4  -5  -3 2067.12   51.37
  -4  -5   2   86.42   11.24
  -4  -5   2   95.93   10.87
   4  -5  -2   88.63   11.23
  -4  -5   2   85.08   10.47
   4  -5  -2   92.74   10.53
   4  -5  -2   98.61   10.29
  -4  -5   1  617.49   27.87
  -4  -5   1  622.86   29.63
  -4  -5   1  638.86   28.75
  -4  -5   1  633.30   26.58
   4  -5  -1  652.95   26.43
  -4  -5   0 1563.88   46.87
  -4  -5   0 1554.29   44.77
  -4  -5   0 1604.72   45.92
  -4  -5   0 1557.65   40.38
   4  -5   0 1596.19   40.32
  -4  -5  -1  901.15   35.50
  -4  -5  -1  917.88   34.59
  -4  -5  -1  913.94   34.57
  -4  -5  -1  869.64   29.42
  -4  -5  -2  207.34   16.81
  -4  -5  -2  193.77   16.03
  -4  -5  -2  216.30   16.80
  -4  -5  -3   35.71    7.08
  -4  -5  -3   32.65    6.73
  -4  -5  -3   44.74    7.50
  -4  -5  -4  173.41   15.04
  -4  -5  -4  198.75   15.61
  -4  -5  -4  169.45   14.70
  -4  -5  -5  558.38   24.78
  -4  -5  -5  526.39   24.59
  -4  -5  -6  154.97   12.14
  -4  -5  -6  168.65   12.34
  -4  -4  11  297.21   16.64
   4  -4 -11  343.42   17.93
   4  -4 -10  369.68   22.02
   4  -4 -10  395.71   21.69
   4  -4  -9  275.17   19.79
   4  -4  -9  247.77   16.72
   4  -4  -9  276.72   19.42
   4  -4  -9  259.33   16.28
   4  -4  -8   82.87   10.00
   4  -4  -8   81.08   10.75
   4  -4  -8   91.03   11.36
   4  -4  -8   89.92    9.79
   4  -4  -7  941.65   34.39
   4  -4  -7  906.53   33.86
   4  -4  -7  881.82   34.98
   4  -4  -7  849.34   30.52
   4  -4  -6 1938.45   49.79
   4  -4  -6 1906.14   49.12
   4  -4  -6 1880.11   45.56
   4  -4  -5  533.42   26.60
  -4  -4   5  536.56   27.56
   4  -4  -5  551.66   24.99
   4  -4  -5  560.80   24.15
  -4  -4   4  112.09   10.21
   4  -4  -4  134.30   13.15
  -4  -4   4  156.64   14.02
   4  -4  -4  152.41   12.42
   4  -4  -4  156.84   12.66
  -4  -4   3  570.26   26.09
  -4  -4   3  540.98   19.50
   4  -4  -3  590.19   26.34
   4  -4  -3  568.87   19.82
   4  -4  -3  559.04   23.15
   4  -4  -3  552.05   24.22
   4  -4  -2 1854.98   45.99
  -4  -4   2 1873.50   48.19
  -4  -4   2 1852.79   46.39
   4  -4  -2 1909.67   36.36
  -4  -4   2 1821.28   44.84
   4  -4  -2 1915.74   41.25
  -4  -4   1  828.89   31.53
  -4  -4   1  831.04   31.16
   4  -4  -1  875.71   25.01
  -4  -4   1  874.31   30.80
   4  -4  -1  900.37   27.88
  -4  -4   0   60.11    8.20
  -4  -4   0   72.37    8.81
  -4  -4   0   61.41    8.40
  -4  -4   0   62.52    7.51
  -4  -4  -1  382.94   21.94
  -4  -4  -1  346.01   20.41
  -4  -4  -1  374.32   20.41
  -4  -4  -2  667.94   28.80
  -4  -4  -2  705.41   30.68
  -4  -4  -2  672.38   27.97
  -4  -4  -3 1325.33   41.73
  -4  -4  -3 1394.06   44.62
  -4  -4  -3 1381.20   40.97
  -4  -4  -4  330.70   21.09
  -4  -4  -4  310.09   21.68
  -4  -4  -4  285.03   20.25
  -4  -4  -4  327.42   20.06
  -4  -4  -5  108.41   11.85
  -4  -4  -5  105.56   12.78
  -4  -4  -5   92.40   11.39
  -4  -4  -5  103.11   11.04
  -4  -4  -6  393.77   23.96
  -4  -4  -6  388.57   21.25
  -4  -4  -6  410.08   23.42
  -4  -4  -6  420.99   21.48
  -4  -4  -7  347.61   17.60
  -4  -4  -7  312.65   19.39
  -4  -4  -7  346.87   19.27
  -4  -4  -7  323.15   17.48
   4  -3 -12  189.81   14.78
   4  -3 -12  223.21   14.11
   4  -3 -11    9.29    3.59
   4  -3 -11   15.45    5.40
  -4  -3  11    7.91    3.45
   4  -3 -11   17.13    4.50
   4  -3 -10   11.20    4.00
   4  -3 -10   17.85    5.40
  -4  -3  10   12.43    4.86
   4  -3 -10   21.24    5.42
   4  -3  -9 1106.61   36.86
   4  -3  -9 1107.36   42.29
   4  -3  -9 1041.04   36.57
   4  -3  -9 1135.81   40.81
   4  -3  -9 1143.37   35.20
   4  -3  -8 1578.21   44.23
  -4  -3   8 1482.19   46.61
   4  -3  -8 1726.73   50.56
   4  -3  -8 1656.88   48.16
   4  -3  -8 1586.62   41.78
   4  -3  -7  632.53   28.25
  -4  -3   7  552.48   27.31
   4  -3  -7  556.30   25.82
   4  -3  -7  578.38   27.21
   4  -3  -7  571.15   24.51
   4  -3  -6  314.20   19.11
   4  -3  -6  357.26   19.20
   4  -3  -6  359.82   15.20
   4  -3  -6  348.39   19.76
   4  -3  -6  358.77   18.53
   4  -3  -5 1702.08   42.46
  -4  -3   5 1673.50   34.87
   4  -3  -5 1657.84   30.64
   4  -3  -5 1631.47   39.43
   4  -3  -5 1696.74   38.66
  -4  -3   4 2815.84   41.37
   4  -3  -4 2868.74   54.19
   4  -3  -4 2724.05   38.27
   4  -3  -4 2758.41   47.92
   4  -3  -4 2652.66   48.36
   4  -3  -3  607.66   23.90
  -4  -3   3  588.03   24.55
  -4  -3   3  558.77   17.34
   4  -3  -3  566.56   17.50
   4  -3  -3  592.55   20.81
   4  -3  -3  560.75   21.78
   4  -3  -2   65.93    7.84
  -4  -3   2   60.37    5.40
  -4  -3   2   64.59    5.16
   4  -3  -2   56.32    5.35
  -4  -3   2   58.03    7.52
  -4  -3   1  551.99   23.43
  -4  -3   1  544.00   22.64
   4  -3  -1  558.61   17.12
  -4  -3   1  537.94   21.51
  -4  -3   1  559.71   16.32
  -4  -3   0 1117.92   32.47
  -4  -3   0 1157.17   24.54
  -4  -3   0 1124.97   34.17
   4  -3   0 1168.95   25.20
  -4  -3   0 1110.29   31.24
  -4  -3  -1 2584.11   50.64
  -4  -3  -1 2610.44   41.33
  -4  -3  -1 2648.75   54.30
  -4  -3  -1 2654.89   48.85
  -4  -3  -2  136.23   11.69
   4  -3   2  123.90   10.07
  -4  -3  -2  136.55   12.67
  -4  -3  -2  127.72   12.19
   4  -3   2  155.65    9.52
  -4  -3  -2  141.28   11.57
  -4  -3  -3  240.30   16.29
  -4  -3  -3  283.03   19.55
  -4  -3  -3  247.21   18.67
  -4  -3  -3  232.89   20.72
  -4  -3  -3  250.20   16.13
  -4  -3  -4 1128.33   37.28
  -4  -3  -4 1142.13   41.53
  -4  -3  -4 1114.55   42.71
  -4  -3  -4 1113.40   42.46
  -4  -3  -4 1128.39   35.42
  -4  -3  -5 1236.51   39.81
  -4  -3  -5 1260.90   44.60
  -4  -3  -5 1275.81   47.33
  -4  -3  -5 1287.27   46.52
  -4  -3  -5 1256.61   47.07
  -4  -3  -5 1286.29   38.97
  -4  -3  -6  111.49   11.80
  -4  -3  -6   95.22   12.08
  -4  -3  -6  126.78   14.57
  -4  -3  -6  114.40   13.80
  -4  -3  -6   95.68   12.95
  -4  -3  -6  122.52   11.80
  -4  -3  -7    1.25    2.32
  -4  -3  -7    5.72    3.56
  -4  -3  -7    3.35    2.61
  -4  -3  -7    1.59    2.23
  -4  -3  -7    0.15    1.54
  -4  -3  -8  291.35   18.03
  -4  -3  -8  262.35   14.73
  -4  -3  -8  263.38   18.40
   4  -2 -12   32.27    6.14
   4  -2 -12   40.76    7.95
  -4  -2  12   36.84    7.04
   4  -2 -11  294.56   22.41
   4  -2 -11  297.73   20.52
   4  -2 -11  332.46   21.59
   4  -2 -10  862.49   39.93
   4  -2 -10  775.09   33.85
   4  -2 -10  825.89   39.97
   4  -2 -10  823.72   34.92
   4  -2 -10  824.81   30.39
   4  -2  -9  168.88   16.73
   4  -2  -9  149.31   14.45
   4  -2  -9  146.31   16.79
   4  -2  -9  146.67   13.54
   4  -2  -9  164.19   15.55
   4  -2  -9  151.84   13.16
   4  -2  -8  143.55   13.40
   4  -2  -8  154.92   13.60
   4  -2  -8  146.84   15.99
   4  -2  -8  149.55   14.81
   4  -2  -8  159.96   14.54
   4  -2  -8  140.88   12.25
   4  -2  -7 1548.90   40.29
  -4  -2   7 1529.91   39.72
   4  -2  -7 1435.47   40.51
   4  -2  -7 1514.89   43.65
   4  -2  -7 1413.30   47.09
   4  -2  -7 1481.03   31.29
   4  -2  -7 1449.57   41.00
   4  -2  -7 1419.81   37.54
   4  -2  -6 3103.58   55.94
  -4  -2   6 3273.79   52.77
   4  -2  -6 2839.43   61.74
   4  -2  -6 3126.47   56.35
   4  -2  -6 3070.19   42.37
   4  -2  -6 2999.26   53.98
   4  -2  -6 2943.44   50.74
  -4  -2   5 1078.16   27.60
  -4  -2   5 1099.18   33.78
   4  -2  -5 1057.38   22.73
   4  -2  -5 1136.78   32.20
   4  -2  -5 1049.31   29.60
   4  -2  -5 1083.65   28.72
  -4  -2   4  396.26   15.39
   4  -2  -4  409.99   18.61
   4  -2  -4  371.03   12.54
   4  -2  -4  391.01   16.58
  -4  -2   3 1935.42   31.97
   4  -2  -3 1794.40   26.55
  -4  -2   2 1970.01   30.99
   4  -2  -2 1893.84   26.68
  -4  -2   1 1077.18   22.29
   4  -2  -1 1167.21   21.04
  -4  -2   0  176.99    9.52
  -4  -2   0  173.80   12.32
   4  -2   0  151.11    9.31
   4  -2   0  184.72    8.37
  -4  -2  -1  699.72   23.01
   4  -2   1  725.15   21.22
  -4  -2  -1  733.73   21.04
  -4  -2  -1  634.68   24.80
  -4  -2  -1  690.68   26.44
  -4  -2  -1  683.70   25.44
  -4  -2  -1  684.54   21.93
   4  -2   1  727.83   16.92
  -4  -2  -2 2748.50   47.99
  -4  -2  -2 2964.16   47.64
   4  -2   2 2542.65   44.56
  -4  -2  -2 2731.17   56.38
  -4  -2  -2 2823.53   55.37
  -4  -2  -2 2663.05   56.60
  -4  -2  -2 2882.44   58.44
   4  -2   2 2915.19   34.51
  -4  -2  -2 2386.52   62.15
  -4  -2  -2 2718.66   45.71
  -4  -2  -3 1199.22   33.96
  -4  -2  -3 1183.38   38.12
   4  -2   3 1155.64   31.39
  -4  -2  -3 1140.25   39.99
  -4  -2  -3 1184.03   33.70
  -4  -2  -3 1154.94   40.36
  -4  -2  -3 1174.73   47.32
  -4  -2  -3 1165.15   31.77
  -4  -2  -3 1191.06   40.73
  -4  -2  -4  418.88   25.73
  -4  -2  -4  409.92   25.96
  -4  -2  -4  413.68   24.41
  -4  -2  -4  414.28   25.83
  -4  -2  -4  373.65   20.09
  -4  -2  -4  438.64   30.86
  -4  -2  -4  417.11   20.15
  -4  -2  -5  303.94   18.94
  -4  -2  -5  278.90   22.86
  -4  -2  -5  284.33   22.60
  -4  -2  -5  322.67   22.67
  -4  -2  -5  296.57   23.30
  -4  -2  -5  315.89   27.89
  -4  -2  -5  297.05   17.88
  -4  -2  -6  568.44   32.30
  -4  -2  -6  611.43   33.04
  -4  -2  -6  594.79   33.36
  -4  -2  -6  547.95   32.84
  -4  -2  -6  660.49   40.72
  -4  -2  -6  591.94   27.02
  -4  -2  -6  645.89   26.90
  -4  -2  -7  674.63   26.72
  -4  -2  -7  604.93   26.45
  -4  -2  -7  594.43   32.15
  -4  -2  -7  605.09   32.46
  -4  -2  -7  624.28   32.86
  -4  -2  -7  570.71   32.96
  -4  -2  -8   87.85    9.02
  -4  -2  -8   69.66    9.77
  -4  -2  -8   93.66   11.19
  -4  -2  -8   88.39   11.39
  -4  -2  -8   81.41   11.43
  -4  -2  -9    1.31    0.94
  -4  -2  -9    1.82    1.72
   4  -1 -13  181.31   14.82
  -4  -1  13  173.90   12.35
   4  -1 -13  199.34   12.93
   4  -1 -12  254.05   20.68
   4  -1 -12  244.94   19.74
   4  -1 -12  213.10   16.72
   4  -1 -12  265.49   18.00
   4  -1 -11   62.66    8.30
   4  -1 -11   47.66    8.61
   4  -1 -11   47.60    9.83
   4  -1 -11   53.58   10.02
   4  -1 -11   62.41   11.01
   4  -1 -11   65.10   10.17
   4  -1 -10  261.62   22.65
   4  -1 -10  269.48   20.97
  -4  -1  10  255.72   19.47
   4  -1 -10  263.46   18.20
   4  -1 -10  237.48   22.91
   4  -1 -10  282.74   24.39
   4  -1 -10  286.48   20.90
   4  -1 -10  267.56   18.07
   4  -1  -9  260.43   21.77
   4  -1  -9  266.01   19.89
  -4  -1   9  242.55   18.78
   4  -1  -9  274.29   23.38
   4  -1  -9  238.12   22.15
   4  -1  -9  263.62   18.46
   4  -1  -9  294.67   20.59
   4  -1  -9  258.36   17.63
   4  -1  -8  805.82   38.74
   4  -1  -8  880.26   37.13
   4  -1  -8  875.17   33.74
  -4  -1   8  824.02   33.21
   4  -1  -8  845.31   32.07
   4  -1  -8  858.84   39.99
   4  -1  -8  876.39   33.62
   4  -1  -8  859.70   30.69
   4  -1  -7   32.63    5.63
  -4  -1   7   38.57    5.95
   4  -1  -7   50.12    7.31
   4  -1  -7   31.49    6.22
   4  -1  -7   37.03    7.55
   4  -1  -7   32.35    7.06
  -4  -1   7   16.41    4.67
   4  -1  -7   42.74    5.23
   4  -1  -7   39.21    6.70
   4  -1  -7   35.32    5.66
   4  -1  -6  371.94   18.20
  -4  -1   6  378.79   17.35
   4  -1  -6  365.81   19.73
   4  -1  -6  322.70   20.75
   4  -1  -6  339.87   21.28
   4  -1  -6  376.20   18.85
   4  -1  -6  364.95   13.98
   4  -1  -6  387.33   18.82
   4  -1  -6  361.05   17.42
   4  -1  -5  331.51   16.60
  -4  -1   5  335.90   15.06
   4  -1  -5  336.95   19.68
   4  -1  -5  337.02   12.42
   4  -1  -5  320.91   15.09
  -4  -1   4 2729.02   39.05
   4  -1  -4 2574.53   31.19
  -4  -1   3  465.49   15.43
   4  -1  -3  476.50   10.06
  -4  -1   3  456.72   10.22
   4  -1  -3  433.83   11.58
   4  -1  -2  377.84   10.43
  -4  -1   2  354.59   12.88
   4  -1  -2  353.76    9.82
  -4  -1   1  805.87   19.31
  -4  -1   1  826.99   11.89
   4  -1  -1  852.41   14.89
   4  -1   0 3541.62   39.99
   4  -1   0 3433.71   28.62
  -4  -1  -1   13.09    5.71
  -4  -1  -1    9.77    2.36
   4  -1   1   15.12    2.94
  -4  -1  -1   11.33    3.43
   4  -1   1   11.97    1.67
  -4  -1  -2  181.08   14.59
  -4  -1  -2  189.59   11.59
   4  -1   2  205.38   11.42
  -4  -1  -2  188.05   13.35
  -4  -1  -2  182.51   14.13
  -4  -1  -2  173.61   20.05
  -4  -1  -2  173.85   14.03
  -4  -1  -2  177.85   17.08
  -4  -1  -3  371.44   30.44
   4  -1   3  371.02   16.74
  -4  -1  -3  341.41   21.43
  -4  -1  -3  337.42   16.72
  -4  -1  -3  338.51   19.42
  -4  -1  -3  347.04   21.28
  -4  -1  -3  367.50   18.12
  -4  -1  -3  341.41   25.78
  -4  -1  -3  357.55   22.48
  -4  -1  -3  338.76   15.62
  -4  -1  -4  916.92   51.70
  -4  -1  -4  841.74   30.97
  -4  -1  -4  889.52   29.41
  -4  -1  -4  846.13   33.84
  -4  -1  -4  880.13   37.29
  -4  -1  -4  848.28   37.03
  -4  -1  -4  899.88   38.83
  -4  -1  -4  878.10   44.56
  -4  -1  -4  864.48   27.31
  -4  -1  -5  902.47   41.09
  -4  -1  -5  897.44   40.09
  -4  -1  -5  925.66   38.24
  -4  -1  -5  879.74   40.78
  -4  -1  -5  967.52   49.10
  -4  -1  -5  952.85   32.43
  -4  -1  -6  762.59   30.06
  -4  -1  -6  744.15   38.61
  -4  -1  -6  734.29   39.17
  -4  -1  -6  752.03   36.46
  -4  -1  -6  845.95   47.17
  -4  -1  -7  137.05   12.78
  -4  -1  -7  112.90   14.72
  -4  -1  -7  141.76   15.81
  -4  -1  -7  144.90   16.13
  -4  -1  -7  117.47   15.63
  -4  -1  -7  156.41   19.95
  -4  -1  -8  203.48   14.32
  -4  -1  -8  209.14   18.51
  -4  -1  -8  245.15   19.90
  -4  -1  -8  246.37   19.27
  -4  -1  -8  214.36   19.45
  -4  -1  -8  269.16   23.08
  -4  -1  -9  354.01   20.17
  -4  -1  -9  425.44   23.12
  -4  -1  -9  454.76   21.32
  -4  -1  -9  347.53   21.16
   4   0 -13    2.49    2.15
   4   0 -13    2.12    1.14
  -4   0  13    1.73    1.70
   4   0 -13    1.30    1.08
   4   0 -12  165.77   17.12
   4   0 -12  147.47   14.47
  -4   0  12  132.84   13.01
   4   0 -12  158.90   16.67
   4   0 -12  175.73   15.06
   4   0 -11  205.44   16.13
  -4   0  11  195.52   17.86
   4   0 -11  195.45   18.51
   4   0 -11  224.89   22.21
   4   0 -11  234.76   21.72
   4   0 -11  219.39   18.94
   4   0 -11  230.31   21.67
   4   0 -10  869.83   39.67
   4   0 -10  841.09   33.79
  -4   0  10  850.64   39.05
   4   0 -10  887.64   45.85
   4   0 -10  884.33   44.32
   4   0 -10  828.94   42.21
   4   0 -10  905.53   38.52
  -4   0  10  897.51   37.84
   4   0 -10  854.45   33.35
   4   0  -9   86.82   11.11
   4   0  -9  109.60   14.48
   4   0  -9   98.46   12.70
  -4   0   9  101.13   12.95
  -4   0   9  113.31   13.41
   4   0  -9  104.74   14.63
   4   0  -9  112.71   15.91
   4   0  -9  110.07   12.75
   4   0  -9  107.57   11.72
   4   0  -8    2.55    1.63
   4   0  -8    1.19    1.52
   4   0  -8    0.89    1.96
  -4   0   8    1.22    1.42
   4   0  -8    1.12    1.83
  -4   0   8    5.09    3.29
   4   0  -8    1.38    0.69
   4   0  -8    2.48    0.77
   4   0  -8    3.06    2.42
   4   0  -7 3483.98   54.55
   4   0  -7 3475.92   72.07
   4   0  -7 3660.36   66.69
  -4   0   7 3911.76   59.80
  -4   0   7 3632.52   69.36
  -4   0   7 3469.82   66.77
   4   0  -7 3422.09   76.73
   4   0  -7 3736.81   77.64
   4   0  -7 3691.21   65.44
   4   0  -7 3668.50   64.32
   4   0  -7 3835.39   51.17
   4   0  -7 3694.40   60.39
   4   0  -6 3749.66   68.63
   4   0  -6 3937.37   63.38
  -4   0   6 4014.79   54.93
  -4   0   6 3956.55   66.74
   4   0  -6 3573.08   72.32
  -4   0   6 3680.45   63.79
   4   0  -6 3945.31   73.86
   4   0  -6 3836.60   54.90
   4   0  -6 4271.12   64.72
   4   0  -6 3986.59   46.38
   4   0  -6 3919.33   61.08
   4   0  -6 3956.75   58.25
  -4   0   5  640.29   20.76
   4   0  -5  575.22   25.93
   4   0  -5  590.24   16.35
   4   0  -5  592.95   20.60
  -4   0   4  201.95   10.41
   4   0  -4  222.82    9.09
  -4   0   3 2211.52   32.75
   4   0  -3 2132.87   22.65
   4   0  -2 2940.68   26.17
   4   0  -2 2706.39   25.89
  -4   0   1  988.71   14.66
   4   0  -1  981.43   13.77
  -4   0   0   83.85    6.26
   4   0   0   91.32    5.96
  -4   0   0   91.20    3.92
   4   0   0   96.76    3.68
  -4   0  -1   37.61    4.57
   4   0   1   30.45    1.30
   4   0   2 2023.75   34.47
  -4   0  -2 1885.67   36.48
  -4   0  -2 1928.18   47.45
  -4   0  -2 1617.24   46.52
  -4   0  -2 1803.54   39.92
  -4   0  -2 1892.84   44.84
  -4   0  -2 1498.47   57.53
  -4   0  -2 1862.75   46.24
  -4   0  -2 1787.08   54.87
  -4   0  -3 1453.34   35.96
  -4   0  -3 1402.73   38.64
  -4   0  -3 1359.07   44.76
  -4   0  -3 1416.09   42.38
  -4   0  -3 1426.79   43.73
  -4   0  -3 1420.37   44.82
  -4   0  -3 1418.85   53.21
  -4   0  -3 1381.40   59.62
  -4   0  -4  313.69   29.94
  -4   0  -4  293.27   18.28
  -4   0  -4  297.95   22.40
   4   0   4  380.63   19.15
  -4   0  -4  308.44   19.81
  -4   0  -4  309.07   22.28
  -4   0  -4  314.66   22.66
  -4   0  -4  300.48   26.41
  -4   0  -4  297.43   21.01
  -4   0  -5   87.73   12.85
  -4   0  -5   99.51   12.29
  -4   0  -5   98.09   12.69
  -4   0  -5  109.52   19.00
  -4   0  -5   97.92   13.57
  -4   0  -5   98.31   16.06
  -4   0  -5   87.62    9.61
  -4   0  -6 1646.87   43.98
  -4   0  -6 1626.94   57.74
  -4   0  -6 1671.54   53.71
  -4   0  -6 1841.21   75.46
  -4   0  -6 1610.47   58.38
  -4   0  -6 1601.02   53.68
  -4   0  -6 1691.24   67.51
  -4   0  -7  258.34   21.42
  -4   0  -7  231.31   21.61
  -4   0  -7  277.66   21.84
  -4   0  -7  243.64   22.70
  -4   0  -7  283.22   26.66
  -4   0  -8   81.26   11.44
  -4   0  -8   96.24   12.45
  -4   0  -8  103.33   12.04
  -4   0  -8   71.23   11.39
  -4   0  -8  100.29   14.17
  -4   0  -9    2.93    2.39
  -4   0  -9    3.90    2.44
  -4   0  -9    1.37    1.79
  -4   0  -9    3.66    2.46
   4   1 -13  139.16   11.68
   4   1 -13  170.20   14.09
   4   1 -13  163.04   13.88
   4   1 -13  164.41   12.13
   4   1 -12  216.87   17.83
   4   1 -12  231.96   20.32
  -4   1  12  213.92   17.09
   4   1 -12  259.77   21.61
  -4   1  12  233.25   16.75
   4   1 -12  234.28   14.70
   4   1 -12  250.04   18.19
   4   1 -11   41.77    7.56
   4   1 -11   45.42    8.96
  -4   1  11   32.99    7.59
   4   1 -11   52.34   10.73
   4   1 -11   42.07    9.99
  -4   1  11   39.29    8.13
   4   1 -11   57.53   10.53
   4   1 -11   53.74    9.47
   4   1 -10  251.13   18.49
   4   1 -10  231.69   18.33
   4   1 -10  224.49   22.77
   4   1 -10  235.70   21.32
  -4   1  10  248.58   21.70
   4   1 -10  236.43   24.18
  -4   1  10  243.08   20.97
   4   1 -10  270.51   23.63
   4   1 -10  265.47   21.20
   4   1  -9  312.85   21.50
   4   1  -9  229.35   21.96
  -4   1   9  297.86   23.53
   4   1  -9  304.00   27.01
   4   1  -9  270.42   22.08
   4   1  -9  301.34   25.00
   4   1  -9  320.99   22.67
  -4   1   9  286.28   22.59
   4   1  -9  300.25   20.29
   4   1  -8  793.47   33.04
   4   1  -8  677.29   36.39
  -4   1   8  693.53   34.59
  -4   1   8  715.24   34.59
   4   1  -8  705.17   34.07
   4   1  -8  704.57   38.94
   4   1  -8  698.14   26.94
   4   1  -8  731.25   36.98
   4   1  -8  709.89   32.13
   4   1  -8  728.68   30.57
   4   1  -7   36.35    5.67
  -4   1   7   35.04    5.67
   4   1  -7   31.72    6.70
  -4   1   7   25.21    6.00
   4   1  -7   28.28    7.10
   4   1  -7   23.75    6.53
   4   1  -7   28.61    5.70
  -4   1   7   25.37    5.99
   4   1  -7   32.37    7.02
   4   1  -7   29.24    4.93
   4   1  -7   28.78    5.65
   4   1  -7   30.95    6.18
   4   1  -6  349.58   19.39
   4   1  -6  342.26   17.37
   4   1  -6  267.94   19.63
   4   1  -6  310.76   19.13
  -4   1   6  353.37   16.57
  -4   1   6  304.83   19.64
  -4   1   6  322.90   20.15
   4   1  -6  313.52   22.63
   4   1  -6  323.32   21.16
  -4   1   6  251.90   36.32
   4   1  -6  317.84   18.01
   4   1  -6  340.96   14.62
   4   1  -6  320.13   17.41
  -4   1   5  227.95   15.88
   4   1  -5  242.41   13.74
   4   1  -5  260.69   15.83
   4   1  -5  207.33   16.39
  -4   1   5  217.31   15.43
   4   1  -5  227.57   17.68
   4   1  -5  231.39   16.59
  -4   1   5  251.48   12.85
   4   1  -5  231.65   11.11
   4   1  -5  252.25   14.10
  -4   1   4 2588.68   37.37
   4   1  -4 2399.25   32.42
  -4   1   3  507.70   15.76
   4   1  -3  472.84   12.87
  -4   1   2  362.15   12.70
   4   1  -2  372.63   10.05
  -4   1   1  810.68   19.14
   4   1  -1  952.63   13.60
  -4   1   0 2958.73   37.54
   4   1   0 1130.00   25.92
  -4   1  -1   48.74    7.08
  -4   1  -1   44.45    7.45
   4   1   1   39.88    5.13
  -4   1  -1   34.46    7.98
  -4   1  -1   50.16    6.99
  -4   1  -1   55.37    5.53
  -4   1  -2  149.66   10.05
  -4   1  -2  125.85   12.13
  -4   1  -2  137.81   11.96
  -4   1  -2  105.13   15.79
  -4   1  -2  139.39   12.44
  -4   1  -2  141.96   15.18
  -4   1  -2  136.21   13.88
  -4   1  -3  312.42   18.17
  -4   1  -3  271.11   26.43
  -4   1  -3  296.26   19.14
  -4   1  -3  323.96   16.77
   4   1   3  337.74   23.88
  -4   1  -3  299.29   20.01
  -4   1  -3  314.50   21.07
  -4   1  -3  287.56   24.52
  -4   1  -3  280.33   20.84
  -4   1  -4  780.56   36.01
  -4   1  -4  881.70   33.82
  -4   1  -4  832.88   49.09
  -4   1  -4  817.62   36.95
  -4   1  -4  822.93   36.06
  -4   1  -4  815.63   34.03
  -4   1  -4  788.84   43.23
  -4   1  -5  845.82   36.89
  -4   1  -5  895.36   36.76
  -4   1  -5  814.90   39.61
  -4   1  -5  876.46   39.20
  -4   1  -5  919.87   53.66
  -4   1  -5  847.23   39.67
  -4   1  -5  827.59   46.69
  -4   1  -6  725.34   34.88
  -4   1  -6  806.93   50.24
  -4   1  -6  735.32   35.29
  -4   1  -6  663.37   36.67
  -4   1  -6  711.81   37.90
  -4   1  -6  708.05   43.14
  -4   1  -7  117.06   15.08
   4   1   7  103.50   12.56
  -4   1  -7  138.45   15.21
  -4   1  -7  162.14   21.78
  -4   1  -7  124.57   13.81
  -4   1  -7  118.41   15.12
  -4   1  -7  141.63   18.46
  -4   1  -8  215.16   18.07
  -4   1  -8  230.36   19.29
  -4   1  -8  237.15   17.13
  -4   1  -8  202.23   18.64
  -4   1  -8  250.62   21.92
  -4   1  -9  352.08   19.79
  -4   1  -9  376.12   20.52
  -4   1  -9  388.11   21.80
   4   1   9  365.31   19.25
  -4   1  -9  412.19   22.66
   4   2 -12   44.40    7.95
  -4   2  12   51.26    8.46
   4   2 -12   56.22    9.60
   4   2 -12   53.00    9.18
   4   2 -12   38.11    5.92
  -4   2  12   47.09    7.44
  -4   2  12   47.55    7.46
   4   2 -12   58.44    8.54
  -4   2  11  281.97   21.75
   4   2 -11  203.80   16.79
   4   2 -11  234.62   20.39
   4   2 -11  263.13   23.33
  -4   2  11  256.26   21.44
   4   2 -11  291.61   25.27
   4   2 -11  284.99   19.06
   4   2 -11  250.99   20.44
   4   2 -10  784.68   34.06
   4   2 -10  684.74   36.91
   4   2 -10  745.37   42.19
  -4   2  10  754.93   38.98
  -4   2  10  765.87   38.94
   4   2 -10  771.74   43.85
   4   2 -10  712.84   33.71
   4   2 -10  798.76   39.00
   4   2 -10  712.12   36.10
   4   2  -9  134.93   14.10
  -4   2   9  138.43   16.59
   4   2  -9  124.10   14.25
   4   2  -9  126.32   15.61
   4   2  -9  109.69   16.11
  -4   2   9  138.48   16.30
   4   2  -9  123.10   17.37
   4   2  -9  127.85   12.37
   4   2  -9  142.18   16.44
   4   2  -9  134.08   15.42
   4   2  -8  137.61   13.82
   4   2  -8  148.91   13.29
  -4   2   8  133.72   15.83
   4   2  -8  144.74   15.03
   4   2  -8  123.05   14.97
   4   2  -8  129.12   17.21
  -4   2   8  144.09   16.43
   4   2  -8  125.56   16.99
   4   2  -8  165.79   17.31
  -4   2   8  148.58   13.54
  -4   2   8  113.42   27.88
   4   2  -8  149.68   15.56
   4   2  -7 1498.32   43.72
   4   2  -7 1325.96   46.85
   4   2  -7 1276.13   51.04
  -4   2   7 1584.68   39.43
  -4   2   7 1470.07   49.58
  -4   2   7 1449.89   49.46
   4   2  -7 1508.78   47.34
   4   2  -7 1473.72   40.89
   4   2  -7 1399.56   53.88
   4   2  -7 1531.16   49.63
  -4   2   7 1284.70   88.84
  -4   2   7 1409.21   40.57
   4   2  -7 1290.98   43.46
  -4   2   6 3194.02   50.29
   4   2  -6 2877.15   64.14
   4   2  -6 2736.32   70.96
  -4   2   6 3014.15   66.36
  -4   2   6 2872.77   65.51
   4   2  -6 3047.83   56.45
   4   2  -6 2846.50   72.65
   4   2  -6 3134.42   63.99
   4   2  -6 3007.80   64.95
  -4   2   6 2772.53  127.04
  -4   2   6 2910.80   55.70
   4   2  -6 2770.99   58.85
   4   2  -6 2839.88   48.61
   4   2  -6 2947.38   57.29
  -4   2   5 1075.46   37.26
   4   2  -5 1146.53   37.96
   4   2  -5 1064.16   41.36
  -4   2   5 1153.97   27.19
  -4   2   5 1134.94   37.67
   4   2  -5 1120.51   42.99
   4   2  -5 1158.92   36.74
   4   2  -5 1074.45   29.48
  -4   2   5 1047.45   33.35
  -4   2   5 1021.57   74.65
  -4   2   5 1126.78   33.11
   4   2  -5 1186.99   33.75
   4   2  -5 1141.17   35.41
   4   2  -5 1057.69   26.79
   4   2  -5 1042.17   31.67
   4   2  -4  384.18   18.46
   4   2  -4  359.44   19.91
  -4   2   4  382.95   14.44
  -4   2   4  363.70   20.39
   4   2  -4  372.14   10.57
  -4   2   4  344.92   19.74
   4   2  -4  367.77   19.54
   4   2  -4  347.98   22.69
   4   2  -4  343.89   22.27
  -4   2   4  392.10   45.26
   4   2  -4  360.14   14.31
   4   2  -4  356.35   17.05
  -4   2   4  375.07   13.19
  -4   2   3 1730.04   28.77
   4   2  -3 1775.94   24.74
  -4   2   3 1808.42   31.70
   4   2  -3 1816.02   29.49
   4   2  -2 1752.93   26.35
  -4   2   2 1741.77   33.94
  -4   2   2 1658.70   27.22
  -4   2   1  965.42   20.34
  -4   2   1  999.22   27.64
  -4   2   0  156.60   12.63
  -4   2   0  151.06   14.64
   4   2   0  170.64   12.69
  -4   2   0  178.28    9.24
   4   2   0  195.16   11.02
  -4   2   0  150.23   11.91
   4   2   0  182.88   12.40
  -4   2   0  153.88   15.11
  -4   2   0  152.67   13.75
  -4   2   0  163.55   14.33
   4   2   1  485.95   21.91
  -4   2  -1  482.44   26.80
  -4   2  -1  517.83   24.09
  -4   2  -1  550.55   17.67
   4   2   1  459.50   18.80
  -4   2  -1  514.23   22.56
   4   2   1  439.35   21.52
  -4   2  -1  493.59   30.79
  -4   2  -1  512.47   22.54
  -4   2  -1  474.29   26.47
  -4   2  -1  552.65   28.27
  -4   2  -2 2854.41   44.88
   4   2   2 2496.35   52.22
  -4   2  -2 2489.23   62.90
  -4   2  -2 2718.75   59.11
   4   2   2 2087.45   49.84
  -4   2  -2 2667.77   53.82
  -4   2  -2 2395.62   73.81
   4   2   2 2440.77   49.99
   4   2   2 3137.61   78.74
  -4   2  -2 2760.91   56.35
  -4   2  -2 2391.63   62.01
  -4   2  -2 2609.95   68.37
  -4   2  -3 1089.10   43.19
   4   2   3 1045.25   34.87
  -4   2  -3 1100.26   40.59
   4   2   3 1018.72   33.24
   4   2   3  985.41   36.27
  -4   2  -3 1063.62   36.08
  -4   2  -3  939.68   50.54
   4   2   3 1179.96   50.39
  -4   2  -3 1067.69   37.87
  -4   2  -3 1031.87   42.16
  -4   2  -3  970.54   44.97
  -4   2  -3 1131.31   31.76
   4   2   4  480.09   26.97
  -4   2  -4  412.14   23.83
  -4   2  -4  381.00   34.47
   4   2   4  490.41   34.62
  -4   2  -4  441.08   27.95
  -4   2  -4  403.46   25.25
  -4   2  -4  415.29   26.44
  -4   2  -4  377.69   30.62
  -4   2  -4  435.56   28.24
  -4   2  -5  248.67   21.44
  -4   2  -5  249.49   21.56
   4   2   5  285.42   21.52
  -4   2  -5  238.83   19.40
  -4   2  -5  235.27   27.41
  -4   2  -5  231.15   18.29
  -4   2  -5  231.25   20.13
  -4   2  -5  225.55   24.38
  -4   2  -6  505.33   31.15
  -4   2  -6  581.55   32.19
   4   2   6  517.56   28.67
  -4   2  -6  545.89   29.96
  -4   2  -6  550.78   41.17
  -4   2  -6  513.09   27.63
  -4   2  -6  511.56   30.94
  -4   2  -6  514.43   36.66
  -4   2  -7  528.21   30.31
   4   2   7  547.58   25.79
  -4   2  -7  538.47   29.23
  -4   2  -7  533.89   26.21
  -4   2  -7  490.88   29.46
  -4   2  -7  605.27   39.31
  -4   2  -7  554.25   34.95
  -4   2  -8   71.98    9.85
  -4   2  -8   84.31   11.20
   4   2   8   75.97    9.95
  -4   2  -8   79.82   11.42
   4   2   9    2.98    2.18
   4   3 -12  160.18   11.74
   4   3 -12  180.77   14.34
  -4   3  12  210.72   15.05
   4   3 -12  224.18   16.77
  -4   3  12  204.19   15.32
   4   3 -12  194.25   15.12
   4   3 -12  184.72   13.61
   4   3 -11    8.43    3.47
   4   3 -11   16.79    5.65
   4   3 -11   13.20    4.70
  -4   3  11   15.46    5.29
   4   3 -11   14.13    4.15
   4   3 -11   21.27    6.11
  -4   3  11   17.01    5.28
   4   3 -11   21.48    5.52
   4   3 -10   18.67    5.56
   4   3 -10   12.76    3.81
   4   3 -10   22.42    5.97
   4   3 -10   12.41    5.35
   4   3 -10   23.82    7.84
  -4   3  10   28.28    7.43
  -4   3  10   19.02    6.18
  -4   3  10   19.02    6.09
   4   3 -10   17.66    6.29
  -4   3  10   21.17    5.39
   4   3 -10   23.38    6.65
   4   3  -9 1036.63   43.82
   4   3  -9 1008.11   36.92
   4   3  -9  982.90   44.53
  -4   3   9 1080.43   47.44
  -4   3   9 1125.61   48.55
   4   3  -9 1067.12   51.13
  -4   3   9 1013.08   39.04
  -4   3   9 1052.48   39.46
   4   3  -9  974.59   48.66
   4   3  -9 1062.42   41.63
   4   3  -9  941.96   41.93
   4   3  -8 1624.01   50.74
   4   3  -8 1543.81   55.64
   4   3  -8 1433.93   59.24
  -4   3   8 1584.10   56.07
  -4   3   8 1658.29   58.00
  -4   3   8 1563.75   47.59
   4   3  -8 1638.65   62.61
   4   3  -8 1616.92   47.51
  -4   3   8 1561.73  106.20
   4   3  -8 1639.51   55.62
  -4   3   8 1676.60   50.35
   4   3  -8 1393.92   50.97
   4   3  -7  599.02   29.92
  -4   3   7  590.19   33.26
   4   3  -7  539.28   31.90
  -4   3   7  579.72   32.14
   4   3  -7  590.03   27.94
   4   3  -7  603.60   32.54
   4   3  -7  585.07   36.16
  -4   3   7  529.49   27.01
  -4   3   7  580.82   65.01
  -4   3   7  581.84   28.90
   4   3  -7  525.93   34.87
   4   3  -7  605.41   25.91
   4   3  -7  526.89   29.95
   4   3  -6  298.02   19.84
   4   3  -6  285.45   22.09
   4   3  -6  287.10   24.65
  -4   3   6  322.31   22.91
   4   3  -6  310.95   22.39
  -4   3   6  312.02   22.59
  -4   3   6  283.33   44.00
   4   3  -6  311.05   18.72
  -4   3   6  334.00   21.05
   4   3  -6  341.04   20.44
   4   3  -6  303.69   24.76
   4   3  -6  305.24   21.59
  -4   3   5 1570.58   48.15
   4   3  -5 1538.62   42.76
   4   3  -5 1723.47   44.73
   4   3  -5 1543.83   48.03
   4   3  -5 1640.82   50.31
   4   3  -5 1565.76   54.92
  -4   3   5 1659.85   49.41
   4   3  -5 1661.01   55.59
   4   3  -5 1466.89   37.69
  -4   3   5 1563.77   99.37
  -4   3   5 1639.68   45.57
   4   3  -5 1596.71   40.91
   4   3  -5 1634.68   47.46
   4   3  -4 2677.13   53.07
   4   3  -4 2679.14   61.12
   4   3  -4 2555.25   52.39
  -4   3   4 2663.31   38.09
  -4   3   4 2481.97   57.52
  -4   3   4 2511.27   57.55
   4   3  -4 2434.23   45.25
   4   3  -4 2646.52   36.10
  -4   3   4 2663.51   42.70
   4   3  -4 2488.47   50.56
   4   3  -4 2369.84   64.42
  -4   3   4 2556.22  122.61
  -4   3   4 2483.53   55.28
   4   3  -4 2723.22   61.60
   4   3  -4 2559.28   55.72
   4   3  -3  577.02   23.16
   4   3  -3  516.93   25.74
   4   3  -3  487.95   22.04
  -4   3   3  460.42   23.51
   4   3  -3  507.02   28.31
  -4   3   3  521.16   15.68
   4   3  -3  521.81   16.57
  -4   3   3  396.04   26.01
   4   3  -3  498.50   22.18
  -4   3   3  451.32   23.04
   4   3  -3  446.67   27.41
   4   3  -3  505.57   18.42
  -4   3   3  488.69   24.34
  -4   3   3  460.07   50.81
   4   3  -3  559.78   26.09
  -4   3   3  492.54   24.30
   4   3  -3  512.97   23.17
  -4   3   3  520.94   19.81
   4   3  -2   47.09    6.47
   4   3  -2   49.35    7.54
  -4   3   2   42.08    7.08
  -4   3   2   42.49    7.07
   4   3  -2   46.61    6.87
   4   3  -2   52.90    8.88
   4   3  -2   48.50    5.31
  -4   3   2   62.15    7.23
   4   3  -2   47.38    6.17
  -4   3   2   46.30    7.58
  -4   3   2   43.70    8.19
  -4   3   2   46.14    7.46
   4   3  -2   55.16    9.50
  -4   3   2   51.48    4.62
  -4   3   2   27.53   14.72
  -4   3   2   41.15    7.18
   4   3  -2   52.66    7.02
   4   3  -1  563.24   21.45
  -4   3   1  518.06   24.48
  -4   3   1  460.39   25.59
  -4   3   1  568.17   15.92
   4   3  -1  544.12   23.18
  -4   3   1  491.06   22.77
   4   3  -1  579.00   19.20
  -4   3   1  582.45   23.36
  -4   3   1  536.17   27.66
  -4   3   1  454.15   48.03
  -4   3   1  460.67   25.17
   4   3  -1  576.26   33.59
  -4   3   1  545.33   29.71
  -4   3   1  536.13   26.45
   4   3  -1  536.63   21.70
  -4   3   0 1129.76   42.71
  -4   3   0 1066.42   35.63
   4   3   0 1242.34   51.45
  -4   3   0 1160.76   24.15
  -4   3   0 1050.10   33.03
   4   3   0 1172.51   29.80
  -4   3   0 1123.49   35.37
   4   3   0 1172.36   33.79
  -4   3   0 1105.35   42.47
  -4   3   0  988.31   38.71
  -4   3   0 1096.01   44.12
  -4   3   0  941.23   66.82
  -4   3   0 1113.86   40.45
  -4   3   0 1024.06   37.79
   4   3   0 1078.78   33.85
  -4   3  -1 2159.85   60.39
  -4   3  -1 2266.14   64.47
   4   3   1 2252.25   49.19
  -4   3  -1 2497.64   39.08
  -4   3  -1 2233.11   54.76
   4   3   1 2438.63   46.02
  -4   3  -1 2183.85   48.32
   4   3   1 2425.18   51.04
  -4   3  -1 2262.49   67.19
  -4   3  -1 2143.19   60.10
   4   3   1 2555.90   77.58
   4   3   1 2246.28   47.63
  -4   3  -1 2357.64   62.88
  -4   3  -1 2296.75   53.83
  -4   3  -2  100.78   12.03
  -4   3  -2  111.28   14.36
   4   3   2  107.87   11.47
  -4   3  -2  105.42   12.11
   4   3   2  117.44   10.91
  -4   3  -2  115.05   11.17
  -4   3  -2   88.24   15.43
  -4   3  -2   97.09   13.74
   4   3   2  127.21   17.70
  -4   3  -2   92.17   13.43
   4   3   2  122.04   11.58
  -4   3  -3  210.38   17.38
  -4   3  -3  238.30   19.15
   4   3   3  247.90   18.68
  -4   3  -3  233.88   16.92
  -4   3  -3  196.54   23.82
  -4   3  -3  247.63   22.34
   4   3   3  269.81   28.09
  -4   3  -3  234.30   17.82
  -4   3  -3  254.04   22.37
  -4   3  -3  228.69   22.62
  -4   3  -4 1098.03   48.02
  -4   3  -4 1019.97   41.54
   4   3   4 1196.50   41.72
  -4   3  -4 1057.05   37.69
  -4   3  -4  992.98   55.96
   4   3   4 1148.65   59.66
  -4   3  -4 1107.67   41.33
  -4   3  -4 1074.50   46.56
  -4   3  -4 1007.98   49.81
  -4   3  -5 1146.64   48.13
   4   3   5 1379.50   45.18
  -4   3  -5 1081.63   59.53
   4   3   5 1367.11   68.29
  -4   3  -5 1179.09   44.07
   4   3   5 1259.27   46.26
  -4   3  -5 1131.79   44.40
  -4   3  -5 1082.35   52.76
  -4   3  -5 1282.44   50.35
  -4   3  -6   91.30   12.31
  -4   3  -6   73.23   11.01
   4   3   6   96.43   11.38
  -4   3  -6   89.94   15.77
  -4   3  -6   71.91   10.82
   4   3   6   86.44   12.19
  -4   3  -6   80.62   13.79
  -4   3  -7    0.89    1.22
  -4   3  -7    4.10    2.21
   4   3   7    1.64    1.74
  -4   3  -7    5.08    2.58
   4   3   7    1.86    2.26
  -4   3  -7    1.32    2.38
  -4   3  -8  236.07   15.26
   4   3   8  269.36   17.50
  -4   3  -8  240.36   17.37
   4   4 -11  333.83   18.10
  -4   4  11  414.75   22.69
   4   4 -11  384.14   21.64
  -4   4  11  392.29   21.96
   4   4 -11  354.35   20.69
   4   4 -11  370.88   20.48
  -4   4  10  345.66   23.52
   4   4 -10  308.29   18.90
  -4   4  10  353.38   24.27
   4   4 -10  331.46   24.06
   4   4 -10  258.23   20.37
   4   4 -10  326.24   21.04
   4   4 -10  320.71   23.50
  -4   4  10  311.12   19.87
   4   4 -10  319.10   22.71
   4   4 -10  273.61   20.56
   4   4  -9  187.59   19.20
   4   4  -9  220.68   17.41
   4   4  -9  219.48   20.22
  -4   4   9  241.28   20.90
   4   4  -9  215.23   18.69
   4   4  -9  211.05   21.00
   4   4  -9  242.41   22.50
  -4   4   9  213.80   18.12
  -4   4   9  186.32   34.86
  -4   4   9  252.92   21.78
   4   4  -9  202.69   19.37
   4   4  -8   95.97   14.42
   4   4  -8  104.03   12.56
   4   4  -8   92.82   12.36
   4   4  -8   80.68   12.79
  -4   4   8   80.23   12.52
  -4   4   8   98.80   13.93
   4   4  -8   91.09   14.38
  -4   4   8   79.14   11.46
  -4   4   8   60.16   23.93
   4   4  -8  101.57   15.49
   4   4  -8   81.35   12.62
  -4   4   7  888.98   41.37
   4   4  -7  805.62   40.60
   4   4  -7  766.24   42.75
  -4   4   7  818.20   39.23
  -4   4   7  801.49   80.33
  -4   4   7  901.52   39.42
   4   4  -7  765.57   36.51
   4   4  -7  825.14   43.22
   4   4  -7  803.12   41.25
   4   4  -7  877.47   34.08
   4   4  -7  775.43   38.03
   4   4  -7  886.09   36.83
   4   4  -6 1864.33   52.89
   4   4  -6 1702.68   59.86
  -4   4   6 1833.58   57.55
   4   4  -6 1578.90   50.95
  -4   4   6 1999.30  127.32
  -4   4   6 1848.17   55.82
   4   4  -6 1821.00   49.17
   4   4  -6 1682.64   62.08
  -4   4   6 1782.06   56.03
   4   4  -6 1717.34   55.07
   4   4  -5  541.01   31.45
   4   4  -5  509.82   31.93
  -4   4   5  508.03   28.86
   4   4  -5  527.60   27.18
   4   4  -5  517.54   33.32
   4   4  -5  544.34   28.45
   4   4  -5  509.23   26.01
  -4   4   5  457.80   59.38
  -4   4   5  533.31   29.53
   4   4  -5  525.81   29.24
  -4   4   5  516.29   29.00
   4   4  -4  126.45   15.22
  -4   4   4   96.30   13.60
   4   4  -4  115.55   13.85
  -4   4   4  115.72   12.94
   4   4  -4  141.40   16.95
  -4   4   4  109.98   12.49
  -4   4   4  119.77   13.17
   4   4  -4  137.96   13.06
   4   4  -4  141.18   13.57
  -4   4   4  125.32   13.87
  -4   4   4   97.76   29.09
   4   4  -4  121.92   12.54
   4   4  -4  130.07   13.83
   4   4  -3  396.88   21.67
   4   4  -3  410.08   26.67
  -4   4   3  391.62   26.74
  -4   4   3  395.51   22.91
  -4   4   3  395.21   23.50
   4   4  -3  489.72   30.50
   4   4  -3  411.70   17.82
  -4   4   3  398.68   20.05
   4   4  -3  388.33   19.76
  -4   4   3  429.24   25.23
   4   4  -3  415.85   22.87
   4   4  -3  391.87   29.52
  -4   4   3  377.74   51.18
   4   4  -3  411.30   25.81
  -4   4   3  392.31   24.65
   4   4  -3  417.65   22.30
   4   4  -3  428.62   23.81
   4   4  -2 1683.02   52.53
  -4   4   2 1536.53   45.55
   4   4  -2 1559.94   40.41
  -4   4   2 1465.55   42.61
  -4   4   2 1506.70   53.63
   4   4  -2 1746.09   37.63
  -4   4   2 1585.64   42.57
  -4   4   2 1662.49   51.94
   4   4  -2 1584.79   44.65
  -4   4   2 1450.49   46.79
   4   4  -2 1657.63   42.95
   4   4  -2 1463.13   58.25
  -4   4   2 1650.12  101.96
  -4   4   2 1640.96   50.94
   4   4  -2 1596.72   44.49
   4   4  -1  776.75   25.65
   4   4  -1  757.95   34.16
  -4   4   1  611.39   39.76
  -4   4   1  656.06   33.82
  -4   4   1  703.80   30.39
  -4   4   1  659.56   27.71
  -4   4   1  722.82   29.89
   4   4  -1  701.88   29.93
  -4   4   1  615.46   31.81
  -4   4   1  731.92   36.06
   4   4  -1  703.69   42.42
  -4   4   1  696.98   38.17
  -4   4   1  690.29   65.29
  -4   4   1  731.19   34.58
   4   4  -1  747.89   28.83
   4   4  -1  712.60   28.69
  -4   4   0   49.64   10.08
  -4   4   0   43.50    9.90
  -4   4   0   49.94    8.84
  -4   4   0   41.78    7.27
  -4   4   0   46.27    7.27
   4   4   0   50.63    7.82
   4   4   0   39.05    7.02
  -4   4   0   41.22    8.83
  -4   4   0   48.87    9.97
   4   4   0   49.16   12.09
  -4   4   0   21.25   13.11
  -4   4   0   39.27    8.49
  -4   4  -1  263.03   24.23
  -4   4  -1  292.66   25.61
  -4   4  -1  322.35   23.23
  -4   4  -1  301.70   20.30
   4   4   1  294.70   19.61
   4   4   1  310.33   19.95
  -4   4  -1  315.17   26.72
  -4   4  -1  285.37   23.72
   4   4   1  349.05   33.34
  -4   4  -1  322.13   24.95
  -4   4  -2  580.82   33.54
  -4   4  -2  573.44   36.08
  -4   4  -2  561.78   31.04
  -4   4  -2  586.32   29.02
   4   4   2  553.37   27.57
   4   4   2  610.56   27.70
  -4   4  -2  516.69   37.90
  -4   4  -2  580.86   34.85
   4   4   2  679.53   48.79
   4   4   2  563.91   26.71
  -4   4  -2  596.17   35.30
  -4   4  -3 1188.45   44.78
  -4   4  -3 1180.48   42.77
   4   4   3 1200.44   42.50
  -4   4  -3 1198.19   52.91
  -4   4  -3 1107.14   56.89
   4   4   3 1333.10   71.10
  -4   4  -3 1186.79   50.80
   4   4   3 1107.04   39.69
  -4   4  -3 1134.37   50.97
  -4   4  -4  303.47   26.26
  -4   4  -4  265.77   20.63
   4   4   4  314.00   21.45
  -4   4  -4  252.53   27.87
   4   4   4  311.13   33.96
   4   4   4  275.23   20.31
  -4   4  -4  284.82   24.57
  -4   4  -4  272.14   25.47
  -4   4  -4  290.39   21.37
  -4   4  -5   89.53   13.53
   4   4   5   92.77   11.36
  -4   4  -5   73.55   10.62
  -4   4  -5   75.94   14.90
   4   4   5   80.67   11.17
   4   4   5   52.84   13.65
  -4   4  -5   60.44   11.87
  -4   4  -5   73.97   11.84
  -4   4  -6  328.00   22.73
   4   4   6  359.21   21.23
  -4   4  -6  320.35   28.38
   4   4   6  294.94   31.97
   4   4   6  369.83   23.16
  -4   4  -6  300.61   24.26
  -4   4  -7  212.38   20.27
   4   4   7  205.72   13.86
   4   4   7  235.95   16.61
  -4   4  -7  206.23   16.91
   4   5 -10  120.81   10.55
   4   5 -10  130.88   11.93
  -4   5  10  141.73   12.22
   4   5 -10  137.67   11.84
  -4   5  10  157.69   12.62
  -4   5  10  161.12   13.48
   4   5 -10  138.23   12.47
   4   5  -9  456.39   24.85
   4   5  -9  406.52   26.45
   4   5  -9  480.33   25.28
  -4   5   9  492.77   25.98
   4   5  -9  467.25   26.53
  -4   5   9  520.81   27.60
   4   5  -9  511.37   28.09
  -4   5   9  394.64   48.08
  -4   5   9  495.63   26.28
   4   5  -9  433.23   25.05
   4   5  -8  647.57   37.29
   4   5  -8  584.68   30.67
   4   5  -8  674.83   32.05
   4   5  -8  600.81   32.54
  -4   5   8  681.66   33.64
   4   5  -8  686.61   36.32
  -4   5   8  644.66   31.95
   4   5  -8  687.68   29.14
  -4   5   8  647.13   70.09
  -4   5   8  674.94   33.38
   4   5  -8  547.95   30.45
   4   5  -7  289.27   22.13
   4   5  -7  249.50   21.98
  -4   5   7  269.53   21.20
   4   5  -7  207.14   18.78
  -4   5   7  258.88   21.00
   4   5  -7  263.98   23.79
  -4   5   7  262.36   21.67
  -4   5   7  232.14   44.68
   4   5  -7  296.79   20.36
   4   5  -7  218.92   23.06
   4   5  -7  225.85   20.28
   4   5  -6  102.26   12.89
   4   5  -6   83.56   12.87
  -4   5   6   87.78   12.32
   4   5  -6   99.41   14.78
   4   5  -6   72.99   13.24
   4   5  -6   74.33   11.27
  -4   5   6   81.73   11.59
  -4   5   6   87.16   12.36
  -4   5   6  102.65   31.90
   4   5  -6   98.44   11.85
   4   5  -6   70.65   11.69
   4   5  -5  523.63   29.43
   4   5  -5  575.58   33.86
   4   5  -5  535.13   36.17
   4   5  -5  556.45   30.47
  -4   5   5  493.43   67.93
  -4   5   5  595.05   33.36
  -4   5   5  555.52   29.99
  -4   5   5  572.71   30.18
   4   5  -5  605.19   30.42
   4   5  -5  571.46   31.95
   4   5  -4 1069.53   40.81
   4   5  -4 1088.28   51.01
   4   5  -4 1064.58   36.28
  -4   5   4 1181.87   44.36
  -4   5   4 1098.63   40.55
   4   5  -4 1082.72   41.04
  -4   5   4 1122.77   96.54
   4   5  -4 1089.24   41.15
  -4   5   4 1155.92   46.53
  -4   5   4 1099.95   41.32
   4   5  -4 1145.42   44.03
   4   5  -3 1713.68   50.05
   4   5  -3 1613.36   46.95
   4   5  -3 1614.10   61.01
  -4   5   3 1676.13   47.81
   4   5  -3 1623.47   45.69
  -4   5   3 1644.24   54.59
   4   5  -3 1660.14   70.41
   4   5  -3 1746.71   52.25
  -4   5   3 1785.30  117.26
  -4   5   3 1631.36   59.27
  -4   5   3 1619.49   48.95
   4   5  -3 1733.65   52.35
   4   5  -2   88.06   10.90
   4   5  -2   76.88   12.53
  -4   5   2   74.52   12.63
  -4   5   2   68.28    9.96
   4   5  -2   66.93    9.16
  -4   5   2   65.83   11.52
  -4   5   2   53.82    9.77
   4   5  -2   68.34   10.20
  -4   5   2   79.52   12.52
   4   5  -2   68.81   14.97
  -4   5   2   66.57   21.75
   4   5  -2   75.21   10.60
   4   5  -1  482.06   30.49
  -4   5   1  468.30   33.18
  -4   5   1  404.99   30.26
   4   5  -1  467.40   25.32
  -4   5   1  492.00   32.78
  -4   5   1  422.83   28.29
   4   5  -1  457.35   26.00
   4   5  -1  440.92   38.65
  -4   5   1  435.42   54.14
  -4   5   1  481.50   30.61
  -4   5   1  464.34   25.10
  -4   5   0 1180.66   56.09
  -4   5   0 1224.32   56.00
  -4   5   0 1245.47   51.04
   4   5   0 1237.16   42.09
  -4   5   0 1211.11   53.35
  -4   5   0 1151.68   48.68
   4   5   0 1218.72   42.12
   4   5   0 1251.08   68.39
  -4   5   0 1258.94   49.83
  -4   5  -1  649.74   42.27
  -4   5  -1  802.11   44.81
  -4   5  -1  768.52   39.76
  -4   5  -1  721.69   39.80
   4   5   1  733.83   33.91
  -4   5  -1  740.92   42.98
   4   5   1  757.84   33.15
   4   5   1  740.37   54.00
  -4   5  -1  762.07   39.67
  -4   5  -2  169.95   19.72
  -4   5  -2  200.77   22.73
  -4   5  -2  185.17   18.86
   4   5   2  174.56   16.40
  -4   5  -2  188.05   23.02
  -4   5  -2  194.21   21.02
   4   5   2  224.37   30.73
   4   5   2  205.70   16.30
  -4   5  -2  187.71   20.59
  -4   5  -3   42.26   10.61
  -4   5  -3   39.65    8.26
   4   5   3   42.33    8.09
  -4   5  -3   32.87    9.09
   4   5   3   51.24   14.54
   4   5   3   52.91    8.20
  -4   5  -3   41.52   10.12
  -4   5  -3   56.90   11.30
  -4   5  -4  178.94   19.84
  -4   5  -4  173.04   17.02
   4   5   4  175.58   16.31
  -4   5  -4  154.04   21.09
   4   5   4  184.02   28.17
   4   5   4  164.89   14.98
  -4   5  -4  217.08   21.09
  -4   5  -4  155.69   18.01
  -4   5  -5  422.79   28.07
   4   5   5  488.78   25.56
  -4   5  -5  407.41   31.58
   4   5   5  499.79   44.09
   4   5   5  442.42   23.67
  -4   5  -5  448.94   28.53
  -4   5  -5  491.21   28.79
  -4   5  -6   74.65    9.55
  -4   5  -6  132.90   12.64
   4   5   6  102.03   10.05
  -4   5  -6  126.76   15.25
   4   5   6  119.58   11.00
   4   5   6  126.07   20.47
   4   6  -9   71.99    8.13
   4   6  -9   56.10    7.95
   4   6  -9   79.92    8.57
   4   6  -9   82.87    8.90
   4   6  -8   14.77    4.84
   4   6  -8   14.50    4.03
   4   6  -8   24.13    5.83
   4   6  -8   13.81    4.20
  -4   6   8   16.19    4.42
  -4   6   8   22.50   12.20
  -4   6   8   10.77    3.98
   4   6  -8   11.89    4.00
   4   6  -7  146.62   17.59
   4   6  -7  155.62   14.14
   4   6  -7  209.50   17.62
  -4   6   7  211.88   15.61
   4   6  -7  246.80   17.47
  -4   6   7  223.43   18.73
  -4   6   7  192.10   36.53
   4   6  -7  180.81   16.33
   4   6  -6  284.21   25.31
   4   6  -6  285.24   19.93
   4   6  -6  378.32   24.50
  -4   6   6  386.31   26.26
  -4   6   6  386.21   55.14
   4   6  -6  440.41   25.18
   4   6  -6  337.35   23.30
   4   6  -5  117.67   16.96
   4   6  -5  142.17   14.11
   4   6  -5  151.49   15.62
  -4   6   5  162.89   17.43
  -4   6   5  186.55   38.93
   4   6  -5  190.85   16.90
   4   6  -5  150.47   15.91
   4   6  -4    7.82    5.01
   4   6  -4    8.17    4.08
   4   6  -4   10.04    4.48
   4   6  -4   16.15    4.91
  -4   6   4    9.09    5.11
   4   6  -4   19.48    5.44
  -4   6   4   17.20   15.96
  -4   6   4   19.03    6.40
   4   6  -4   13.08    4.67
   4   6  -3  298.87   26.94
   4   6  -3  335.21   22.72
   4   6  -3  348.66   21.90
  -4   6   3  311.71   25.08
  -4   6   3  326.68   49.58
  -4   6   3  366.86   26.83
   4   6  -3  348.36   23.68
   4   6  -2  262.76   24.41
  -4   6   2  246.16   24.05
   4   6  -2  304.37   20.90
  -4   6   2  266.33   23.90
   4   6  -2  264.51   30.64
  -4   6   2  262.02   22.62
   4   6  -2  281.19   20.88
  -4   6   2  228.59   40.28
   4   6  -1  208.34   20.10
  -4   6   1  223.63   23.94
   4   6  -1  251.54   18.83
  -4   6   1  238.04   23.19
  -4   6   1  228.25   20.52
   4   6  -1  224.80   29.16
   4   6  -1  226.24   18.65
  -4   6   1  266.22   22.90
  -4   6   1  198.59   35.92
  -4   6   0  127.90   17.36
   4   6   0  138.07   14.12
  -4   6   0  131.26   17.55
  -4   6   0  126.81   15.95
   4   6   0  129.95   13.72
  -4   6   0  140.01   16.82
   4   6   0  121.42   21.93
  -4   6  -1   20.01    6.94
  -4   6  -1   11.81    5.41
   4   6   1   14.59    4.77
  -4   6  -1   10.51    5.71
   4   6   1   12.51    4.47
  -4   6  -1   16.68    5.81
   4   6   1   22.37   10.86
  -4   6  -1   20.33    6.21
  -4   6  -2  457.64   34.03
  -4   6  -2  459.50   29.63
   4   6   2  498.06   27.27
  -4   6  -2  517.91   36.80
  -4   6  -2  513.36   32.22
   4   6   2  607.63   51.92
  -4   6  -2  482.91   30.50
  -4   6  -3  397.00   25.95
  -4   6  -3  475.69   32.39
   4   6   3  436.98   24.70
  -4   6  -3  467.22   33.68
   4   6   3  533.61   48.72
  -4   6  -3  462.33   29.08
  -4   6  -3  438.48   27.69
  -4   6  -4  252.44   21.33
   4   6   4  258.31   17.52
  -4   6  -4  253.20   23.12
   4   6   4  321.22   35.28
  -4   6  -4  249.44   19.31
  -4   6  -4  289.61   21.16
  -4   6  -5    7.15    3.89
  -4   6  -5    8.57    3.54
   4   6   5    5.96    2.79
  -4   6  -5    6.63    3.68
   4   6   5    5.24    7.03
   4   7  -7   42.87    7.07
  -4   7   7   59.69   15.30
   4   7  -6    4.65    3.16
   4   7  -6   12.38    3.85
   4   7  -6    7.26    2.74
  -4   7   6    5.08    9.93
  -4   7   6   12.17    4.19
   4   7  -6    8.35    3.20
   4   7  -5  522.98   25.19
   4   7  -5  337.64   24.41
   4   7  -5  344.65   19.33
   4   7  -5  330.56   20.98
  -4   7   5  409.43   48.21
  -4   7   5  485.96   26.25
   4   7  -4  771.18   37.89
   4   7  -4  706.07   30.23
  -4   7   4  837.35   35.35
  -4   7   4  769.48   67.77
  -4   7   4  946.94   38.35
   4   7  -4  969.51   35.82
   4   7  -3  347.58   25.64
   4   7  -3  403.11   21.74
  -4   7   3  363.13   25.27
  -4   7   3  320.89   41.64
  -4   7   3  419.37   25.96
   4   7  -3  416.97   23.62
   4   7  -2    1.40    2.33
   4   7  -2    1.42    2.28
  -4   7   2    0.02    1.78
   4   7  -2    2.35    2.21
  -4   7   2    2.14    2.27
  -4   7   1  351.93   24.94
   4   7  -1  416.30   23.11
  -4   7   1  353.34   26.70
   4   7  -1  376.32   36.78
  -4   7   1  400.78   25.24
   4   7  -1  367.31   21.64
   4   7   0  910.50   34.30
  -4   7   0  803.74   40.25
   4   7   0  914.50   59.67
  -4   7   0  813.26   35.00
  -4   7   0  895.86   37.12
  -4   7   0  777.30   38.79
   4   7   0  920.42   32.09
  -4   7  -1  437.94   28.30
   4   7   1  453.95   23.44
  -4   7  -1  458.01   30.74
   4   7   1  522.24   45.06
  -4   7  -1  459.53   25.76
  -4   7  -1  466.50   25.90
  -4   7  -2   52.61    9.56
   4   7   2   48.34    7.50
  -4   7  -2   42.37    9.39
  -4   7  -2   42.26    7.91
   4   7   2   68.26   15.86
  -4   7  -2   34.82    6.81
  -4   7  -3   25.34    5.79
  -4   7  -3   40.29    6.78
   4   7   3   28.75    5.36
  -4   7  -3   38.06    8.35
   4   7   3   43.62   11.81
   5  -7  -6   49.25    6.21
  -5  -7   6   39.90    5.53
  -5  -7   5   46.02    6.41
   5  -7  -5   55.30    7.08
  -5  -7   5   47.54    6.07
  -5  -7   5   49.90    6.14
   5  -7  -5   63.00    6.71
   5  -7  -5   38.29    5.46
  -5  -7   4  737.76   27.37
   5  -7  -4  806.03   29.24
  -5  -7   4  777.58   26.04
  -5  -7   4  749.34   24.01
  -5  -7   3  499.02   22.74
   5  -7  -3  496.37   22.98
  -5  -7   3  522.76   21.93
  -5  -7   3  499.72   19.38
   5  -7  -3  531.69   21.44
   5  -7  -2  209.58   14.62
  -5  -7   2  201.97   14.38
  -5  -7   2  217.18   14.26
   5  -7  -2  220.95   14.01
   5  -7  -1   35.04    6.06
  -5  -7   1   56.41    7.40
  -5  -7   1   57.04    7.19
   5  -7  -1   39.72    6.47
  -5  -7   0  290.15   16.47
   5  -7   0  280.85   14.79
  -5  -7   0  318.46   16.65
  -5  -7  -1  405.03   18.00
  -5  -7  -1  388.06   18.15
  -5  -7  -2  103.20    8.62
  -5  -7  -2  119.80    8.99
   5  -6  -8    9.09    2.91
   5  -6  -8    6.94    2.61
  -5  -6   8    3.02    2.22
  -5  -6   8    4.84    2.49
   5  -6  -8    8.22    2.78
   5  -6  -7   89.37    9.67
  -5  -6   7   78.79    8.78
  -5  -6   7   62.80    8.84
   5  -6  -7   85.71    9.29
   5  -6  -7   91.16    8.74
  -5  -6   6  429.51   24.16
   5  -6  -6  508.03   24.88
  -5  -6   6  444.44   22.39
   5  -6  -6  475.15   22.98
   5  -6  -6  532.59   22.96
  -5  -6   5  263.62   19.41
  -5  -6   5  289.37   18.84
   5  -6  -5  349.82   21.22
   5  -6  -5  281.51   17.63
   5  -6  -5  337.63   19.00
   5  -6  -4   25.14    5.50
   5  -6  -4   35.26    6.24
  -5  -6   4   15.94    5.05
  -5  -6   4   30.82    6.27
   5  -6  -4   23.04    4.96
   5  -6  -3   44.54    7.68
  -5  -6   3   37.66    7.28
  -5  -6   3   40.75    7.19
   5  -6  -3   37.63    7.46
  -5  -6   3   40.38    6.73
   5  -6  -3   32.92    5.87
   5  -6  -2  203.34   16.45
  -5  -6   2  211.44   17.70
  -5  -6   2  204.40   16.18
  -5  -6   2  207.97   14.52
   5  -6  -2  228.52   16.54
   5  -6  -1  538.57   26.95
  -5  -6   1  602.09   29.18
  -5  -6   1  610.15   27.92
   5  -6  -1  604.76   26.97
   5  -6   0  355.20   21.30
  -5  -6   0  443.43   24.11
  -5  -6   0  466.56   24.00
   5  -6   0  376.98   21.68
   5  -6   1    0.45    0.99
   5  -6   1    1.11    1.44
  -5  -6  -1    3.21    2.42
  -5  -6  -1    2.66    2.16
  -5  -6  -2  351.53   19.95
   5  -6   2  301.83   16.28
  -5  -6  -2  348.03   19.15
  -5  -6  -3  754.54   27.32
  -5  -6  -3  788.04   27.03
  -5  -6  -4  298.98   15.40
  -5  -6  -4  332.75   15.96
   5  -5 -10    8.65    3.20
   5  -5  -9  294.72   16.67
   5  -5  -9  323.38   18.68
   5  -5  -9  288.03   15.35
   5  -5  -8  773.74   30.25
  -5  -5   8  683.08   29.26
   5  -5  -8  756.49   30.49
   5  -5  -8  740.81   27.16
   5  -5  -7  659.17   29.70
  -5  -5   7  581.77   28.52
   5  -5  -7  612.47   28.17
   5  -5  -7  697.84   27.76
  -5  -5   6  119.87   12.90
   5  -5  -6  135.24   13.61
   5  -5  -6  120.45   12.34
   5  -5  -6  133.49   12.59
   5  -5  -5  219.54   17.74
  -5  -5   5  198.42   17.84
  -5  -5   5  183.88   16.27
  -5  -5   5  202.55   16.99
   5  -5  -5  194.89   15.20
   5  -5  -5  192.61   15.77
  -5  -5   4 1068.40   41.32
   5  -5  -4 1183.93   41.74
  -5  -5   4 1125.47   39.97
  -5  -5   4 1140.06   40.04
   5  -5  -4 1133.96   35.90
   5  -5  -4 1205.26   38.48
   5  -5  -3 1917.71   53.82
  -5  -5   3 1898.75   53.57
  -5  -5   3 1948.49   52.54
  -5  -5   3 2031.07   52.95
   5  -5  -3 2017.04   46.43
   5  -5  -3 2046.84   51.29
   5  -5  -2  265.79   19.27
  -5  -5   2  256.14   19.49
  -5  -5   2  257.59   18.83
  -5  -5   2  204.22   16.49
  -5  -5   2  269.40   17.13
   5  -5  -2  258.63   18.75
   5  -5  -1  104.74   11.55
  -5  -5   1   97.96   11.86
  -5  -5   1  104.12   11.89
  -5  -5   1  104.71   11.84
   5  -5  -1  109.88   11.55
  -5  -5   0  798.67   33.54
  -5  -5   0  802.36   33.50
   5  -5   0  789.61   31.66
  -5  -5   0  806.23   32.53
   5  -5   0  807.20   31.28
  -5  -5  -1  610.21   28.74
  -5  -5  -1  579.31   28.35
   5  -5   1  535.22   24.98
  -5  -5  -1  617.49   28.24
  -5  -5  -2  344.54   21.32
  -5  -5  -2  331.33   21.29
  -5  -5  -2  367.93   21.39
   5  -5   3    2.45    1.78
  -5  -5  -3    2.69    2.13
  -5  -5  -3    2.55    2.29
  -5  -5  -3    3.75    3.11
  -5  -5  -4  299.53   18.12
  -5  -5  -4  305.32   19.29
  -5  -5  -4  333.28   18.63
  -5  -5  -5  423.18   19.54
  -5  -5  -5  448.28   19.58
  -5  -4  11  185.66   13.42
   5  -4 -11  229.20   14.65
   5  -4 -10  533.79   22.85
   5  -4 -10  598.42   26.59
   5  -4 -10  566.93   22.05
   5  -4  -9  399.26   22.38
  -5  -4   9  333.67   23.05
   5  -4  -9  400.21   23.15
   5  -4  -9  412.95   20.89
   5  -4  -8   38.45    7.34
  -5  -4   8   31.90    7.43
   5  -4  -8   50.05    7.69
   5  -4  -8   38.98    7.27
   5  -4  -7  519.35   26.57
  -5  -4   7  453.88   27.54
   5  -4  -7  496.08   25.77
   5  -4  -7  495.04   24.01
   5  -4  -6 1247.84   41.48
  -5  -4   6 1232.61   44.06
   5  -4  -6 1214.17   38.70
   5  -4  -6 1219.93   37.46
  -5  -4   5  600.29   29.65
   5  -4  -5  613.36   29.04
   5  -4  -5  604.16   25.82
   5  -4  -5  587.61   25.92
   5  -4  -4  321.91   21.15
  -5  -4   4  339.83   21.76
   5  -4  -4  352.94   18.83
   5  -4  -4  346.93   19.65
   5  -4  -3  380.70   22.12
  -5  -4   3  362.84   22.11
  -5  -4   3  385.48   22.81
  -5  -4   3  380.23   21.49
   5  -4  -3  377.86   18.55
   5  -4  -3  380.29   20.67
   5  -4  -2 1695.37   45.59
  -5  -4   2 1596.88   45.55
  -5  -4   2 1640.42   47.03
  -5  -4   2 1581.12   43.74
   5  -4  -2 1601.94   42.89
  -5  -4   1  942.56   34.43
  -5  -4   1  935.81   35.63
   5  -4  -1  921.01   33.29
  -5  -4   1  935.32   33.24
   5  -4  -1  988.42   33.04
  -5  -4   0  434.32   23.34
  -5  -4   0  440.48   24.60
   5  -4   0  420.39   22.61
  -5  -4   0  461.67   23.30
   5  -4   1   84.76    9.44
  -5  -4  -1   93.39   10.83
  -5  -4  -1   89.16   11.19
  -5  -4  -1   89.98   10.31
  -5  -4  -2  721.59   30.42
  -5  -4  -2  747.99   33.40
  -5  -4  -2  732.97   29.54
  -5  -4  -3 1221.26   39.57
  -5  -4  -3 1315.69   45.09
  -5  -4  -3 1369.60   40.23
  -5  -4  -4  293.32   18.89
  -5  -4  -4  281.76   20.78
  -5  -4  -4  293.97   18.20
  -5  -4  -5    4.46    2.52
  -5  -4  -5   13.67    3.77
  -5  -4  -5    9.38    4.31
  -5  -4  -5    6.25    3.31
  -5  -4  -6   81.81    8.30
  -5  -4  -6   80.90    8.44
  -5  -4  -6   76.03    9.75
  -5  -4  -6   66.30    8.20
   5  -3 -12  428.55   19.72
   5  -3 -11  127.89   13.55
   5  -3 -11  146.12   13.08
   5  -3 -10   10.51    3.64
   5  -3 -10   20.65    4.86
   5  -3 -10   15.68    5.58
  -5  -3  10   15.71    5.27
   5  -3 -10   15.38    4.57
   5  -3  -9  566.06   30.08
  -5  -3   9  521.67   27.61
   5  -3  -9  550.09   27.12
   5  -3  -9  593.52   28.93
   5  -3  -9  578.80   25.79
   5  -3  -8  358.29   22.85
   5  -3  -8  373.61   22.24
  -5  -3   8  358.86   22.67
   5  -3  -8  362.25   22.23
   5  -3  -8  342.02   20.27
   5  -3  -7  664.20   29.67
  -5  -3   7  649.97   29.70
   5  -3  -7  686.86   29.34
   5  -3  -7  666.58   27.47
   5  -3  -6  276.73   18.81
  -5  -3   6  289.19   18.58
   5  -3  -6  275.39   17.51
   5  -3  -6  271.58   16.80
   5  -3  -5  414.82   22.41
  -5  -3   5  423.69   23.92
   5  -3  -5  396.59   16.06
   5  -3  -5  386.84   19.37
   5  -3  -5  412.97   20.31
  -5  -3   4 1222.08   39.36
   5  -3  -4 1262.81   37.29
   5  -3  -4 1176.17   27.00
   5  -3  -4 1234.32   32.21
   5  -3  -4 1201.19   34.08
   5  -3  -4 1256.10   42.07
  -5  -3   3 2027.99   37.29
  -5  -3   3 2033.02   49.17
   5  -3  -3 2067.31   35.04
   5  -3  -3 2151.87   43.75
   5  -3  -2  568.53   24.24
  -5  -3   2  570.89   24.42
  -5  -3   2  542.72   18.41
  -5  -3   2  569.44   25.74
   5  -3  -2  589.53   18.57
  -5  -3   2  556.14   23.18
   5  -3  -2  553.51   22.84
  -5  -3   1   86.03    9.41
  -5  -3   1   92.42   10.41
   5  -3  -1   76.24    7.06
   5  -3  -1  103.18    9.87
   5  -3  -1  102.81    7.82
  -5  -3   1   94.40    9.65
   5  -3  -1   97.46    9.09
   5  -3   0 1056.63   31.66
  -5  -3   0 1137.99   34.17
  -5  -3   0 1115.55   37.16
  -5  -3   0 1142.18   33.13
  -5  -3  -1 1200.42   39.91
  -5  -3  -1 1185.57   35.41
   5  -3   1 1205.87   27.53
  -5  -3  -1 1195.52   34.31
  -5  -3  -2  252.97   18.72
  -5  -3  -2  264.33   17.19
  -5  -3  -2  256.92   18.86
  -5  -3  -2  301.02   20.75
  -5  -3  -2  268.57   16.59
  -5  -3  -3  202.97   17.70
  -5  -3  -3  216.90   18.18
  -5  -3  -3  201.79   17.55
  -5  -3  -3  213.50   15.10
  -5  -3  -3  189.91   14.86
  -5  -3  -4  224.18   16.50
  -5  -3  -4  233.74   19.62
  -5  -3  -4  227.39   19.41
  -5  -3  -4  213.13   18.90
  -5  -3  -4  236.73   16.08
  -5  -3  -5  474.58   23.61
  -5  -3  -5  464.15   27.78
  -5  -3  -5  501.77   28.92
  -5  -3  -5  420.75   26.84
  -5  -3  -5  526.93   23.65
  -5  -3  -6  312.43   17.27
  -5  -3  -6  305.34   17.68
  -5  -3  -6  308.18   21.59
  -5  -3  -6  331.25   22.10
  -5  -3  -7  103.54    9.13
  -5  -3  -7  117.10   12.18
  -5  -3  -7  133.88   12.20
   5  -2 -12   18.35    5.26
  -5  -2  12   12.39    3.83
   5  -2 -12   21.35    4.91
   5  -2 -11  319.94   23.60
   5  -2 -11  280.35   19.12
  -5  -2  11  294.46   21.48
   5  -2 -11  364.13   22.46
   5  -2 -11  341.77   19.01
  -5  -2  10  604.45   32.20
   5  -2 -10  617.21   33.71
   5  -2 -10  565.71   28.13
   5  -2 -10  638.35   29.43
   5  -2 -10  688.29   31.89
   5  -2 -10  676.20   28.29
   5  -2  -9  209.34   16.96
  -5  -2   9  201.29   18.53
   5  -2  -9  195.78   18.32
   5  -2  -9  222.99   17.79
   5  -2  -9  199.36   15.47
   5  -2  -8   30.88    6.39
   5  -2  -8   32.56    6.08
   5  -2  -8   24.84    6.00
  -5  -2   8   29.98    6.88
   5  -2  -8   38.11    7.08
   5  -2  -7  266.17   18.17
   5  -2  -7  268.70   18.85
  -5  -2   7  260.33   19.38
   5  -2  -7  277.66   18.14
   5  -2  -7  263.02   16.86
   5  -2  -6 1026.37   30.68
   5  -2  -6  975.34   33.37
  -5  -2   6 1011.81   30.90
  -5  -2   6  978.38   35.48
   5  -2  -6 1035.23   26.25
   5  -2  -6 1026.14   32.15
   5  -2  -6  933.84   30.20
   5  -2  -5 2309.58   50.33
  -5  -2   5 2612.21   47.26
  -5  -2   5 2587.95   54.75
  -5  -2   5 2394.15   68.24
   5  -2  -5 2603.54   38.54
   5  -2  -5 2665.71   52.58
   5  -2  -5 2535.10   46.51
   5  -2  -5 2667.71   47.58
   5  -2  -4  150.84   14.16
  -5  -2   4  162.81   13.25
   5  -2  -4  145.15   11.87
  -5  -2   4  139.00   11.99
  -5  -2   4  115.17   15.94
   5  -2  -4  146.94    8.47
  -5  -2   4  146.93   10.30
   5  -2  -4  147.35   10.49
   5  -2  -3    1.56    1.44
   5  -2  -3    7.98    2.49
  -5  -2   3    0.85    0.88
   5  -2  -3    7.69    1.89
  -5  -2   3    1.99    1.62
   5  -2  -3    5.79    1.52
  -5  -2   3    2.48    1.79
  -5  -2   3    2.20    3.75
  -5  -2   2 1847.93   34.46
  -5  -2   2 1810.63   38.24
  -5  -2   2 1743.91   41.61
   5  -2  -2 1581.99   27.73
   5  -2  -2 1961.91   39.76
  -5  -2   2 1856.75   44.00
   5  -2  -2 1927.06   28.90
  -5  -2   2 2103.32   69.28
   5  -2  -2 1898.40   36.58
   5  -2  -1 2193.97   40.64
  -5  -2   1 2080.81   40.38
   5  -2  -1 1814.06   31.99
  -5  -2   1 1615.11   40.54
  -5  -2   1 2168.42   48.13
   5  -2  -1 2311.85   31.42
  -5  -2   1 2141.01   36.95
  -5  -2   1 2090.81   39.62
   5  -2  -1 2261.33   39.37
  -5  -2   0  903.81   26.99
  -5  -2   0  961.52   26.09
  -5  -2   0  891.14   30.74
   5  -2   0  844.70   23.71
  -5  -2   0  884.76   30.14
  -5  -2   0  949.65   32.96
   5  -2   0  963.12   20.16
  -5  -2   0  920.59   26.48
   5  -2   0  911.96   24.36
  -5  -2  -1    2.97    2.17
  -5  -2  -1    4.09    2.09
  -5  -2  -1    4.23    2.11
   5  -2   1    2.79    1.43
  -5  -2  -1    7.38    3.37
  -5  -2  -1    1.84    2.41
  -5  -2  -1    3.55    2.75
  -5  -2  -2  569.30   22.99
  -5  -2  -2  613.66   24.51
  -5  -2  -2  547.05   27.22
   5  -2   2  523.77   21.71
  -5  -2  -2  560.03   28.19
  -5  -2  -2  556.15   27.29
  -5  -2  -2  590.52   29.04
  -5  -2  -2  545.03   31.50
  -5  -2  -2  565.39   21.87
  -5  -2  -3  439.93   21.35
  -5  -2  -3  467.56   26.96
  -5  -2  -3  454.21   25.69
  -5  -2  -3  460.74   27.16
  -5  -2  -3  470.75   27.75
  -5  -2  -3  459.31   31.22
  -5  -2  -3  464.24   20.72
  -5  -2  -4  464.52   22.77
  -5  -2  -4  459.89   28.16
  -5  -2  -4  488.09   28.00
  -5  -2  -4  488.68   29.46
  -5  -2  -4  503.03   30.26
  -5  -2  -4  504.39   34.53
  -5  -2  -4  481.70   22.03
  -5  -2  -5  129.13   12.09
  -5  -2  -5  120.87   14.59
  -5  -2  -5  138.32   15.44
  -5  -2  -5  136.33   15.94
  -5  -2  -5  129.53   16.10
  -5  -2  -5  161.04   19.71
  -5  -2  -5  161.63   12.75
  -5  -2  -6   18.40    4.47
  -5  -2  -6   10.68    4.23
  -5  -2  -6   15.99    5.32
  -5  -2  -6   14.50    5.21
  -5  -2  -6   11.80    4.20
  -5  -2  -6   11.69    5.29
  -5  -2  -7  370.49   18.29
  -5  -2  -7  365.25   22.52
  -5  -2  -7  390.81   24.08
  -5  -2  -7  392.75   23.81
  -5  -2  -7  364.83   24.12
  -5  -2  -8  143.51   12.63
  -5  -2  -8  162.01   12.61
   5  -1 -13  173.07   14.62
  -5  -1  13  169.88   12.41
   5  -1 -13  181.19   12.80
   5  -1 -12  431.18   20.17
   5  -1 -12  448.89   27.62
   5  -1 -12  397.88   22.33
   5  -1 -12  433.89   25.58
  -5  -1  12  441.55   25.13
   5  -1 -12  465.02   24.10
   5  -1 -11  184.44   15.04
   5  -1 -11  183.32   19.02
   5  -1 -11  166.23   15.88
   5  -1 -11  158.83   17.58
  -5  -1  11  193.08   18.45
   5  -1 -11  187.48   16.78
   5  -1 -11  182.11   15.14
   5  -1 -10  133.09   16.46
   5  -1 -10  129.39   14.23
   5  -1 -10  139.06   17.05
   5  -1 -10  164.74   14.97
   5  -1 -10  172.80   16.34
   5  -1 -10  164.70   14.54
   5  -1  -9   82.20   10.80
   5  -1  -9   83.53   12.39
   5  -1  -9   79.92   10.76
   5  -1  -9   75.06   12.62
   5  -1  -9   89.49   13.33
   5  -1  -9   97.46   11.80
   5  -1  -9   91.39   10.79
   5  -1  -8 1115.26   38.54
   5  -1  -8 1003.04   41.47
   5  -1  -8 1067.41   37.93
   5  -1  -8 1037.20   43.51
   5  -1  -8 1085.57   45.23
   5  -1  -8 1095.14   37.84
   5  -1  -8 1042.96   35.28
   5  -1  -7  430.08   19.65
   5  -1  -7  441.26   25.37
  -5  -1   7  476.94   22.32
   5  -1  -7  459.47   23.64
   5  -1  -7  407.87   25.28
   5  -1  -7  457.25   18.05
   5  -1  -7  467.08   22.73
   5  -1  -7  442.75   21.52
   5  -1  -6  253.92   14.75
   5  -1  -6  251.69   17.47
  -5  -1   6  261.87   15.36
   5  -1  -6  268.56   16.87
   5  -1  -6  222.11   17.23
  -5  -1   6  258.10   17.89
   5  -1  -6  252.59   12.36
   5  -1  -6  279.24   16.11
   5  -1  -6  255.97   15.28
   5  -1  -5   15.35    4.07
   5  -1  -5   14.42    3.85
   5  -1  -5   14.72    3.46
  -5  -1   5   16.43    3.58
  -5  -1   5   13.63    3.81
  -5  -1   5   12.94    7.16
   5  -1  -5   15.04    2.88
   5  -1  -4 2554.53   49.16
   5  -1  -4 2643.56   47.95
  -5  -1   4 2709.02   43.50
  -5  -1   4 2672.35   52.37
   5  -1  -4 2688.25   34.62
   5  -1  -4 2609.24   43.03
   5  -1  -3 3748.18   59.04
  -5  -1   3 2952.42   43.43
   5  -1  -3 2694.66   29.04
  -5  -1   3 2868.57   53.21
  -5  -1   3 2909.96   50.40
  -5  -1   3 1923.03   74.71
   5  -1  -3 2897.31   33.15
  -5  -1   2  577.88   18.67
   5  -1  -2  621.33   15.81
   5  -1  -2  576.46   13.91
   5  -1  -1  642.56   17.71
  -5  -1   1  570.69   18.45
  -5  -1   1  641.06   25.89
  -5  -1   1  526.35   37.50
   5  -1  -1  614.00   13.59
  -5  -1   1  588.99   22.55
  -5  -1   0 1327.01   29.79
  -5  -1   0 1302.73   34.79
   5  -1   0 1346.42   27.95
  -5  -1   0 1301.36   36.24
  -5  -1   0 1277.88   49.97
  -5  -1   0 1315.23   38.22
  -5  -1   0 1354.34   57.23
   5  -1   0 1392.27   19.42
  -5  -1  -1 2225.00   52.38
  -5  -1  -1 2163.67   50.81
  -5  -1  -1 2197.70   40.97
   5  -1   1 2345.49   39.84
  -5  -1  -1 2211.26   47.52
  -5  -1  -1 2160.41   49.95
  -5  -1  -1 2098.31   69.72
  -5  -1  -1 2114.00   59.28
  -5  -1  -2  949.28   29.55
  -5  -1  -2  932.09   49.62
   5  -1   2  934.10   27.21
  -5  -1  -2  877.19   31.85
  -5  -1  -2  882.37   34.44
  -5  -1  -2  893.03   35.35
  -5  -1  -2  880.81   35.34
  -5  -1  -2  862.33   41.23
  -5  -1  -3   76.72   11.18
  -5  -1  -3   77.47    8.34
  -5  -1  -3   84.94   10.50
  -5  -1  -3   81.22   11.13
  -5  -1  -3   95.18   16.79
  -5  -1  -3   84.66   11.59
  -5  -1  -3  105.63   15.41
  -5  -1  -4   70.46    8.33
  -5  -1  -4   79.19   10.81
  -5  -1  -4  103.01   18.92
  -5  -1  -4   72.70   11.08
  -5  -1  -4   64.96   10.73
  -5  -1  -4   76.76   12.07
  -5  -1  -4   86.19   14.85
  -5  -1  -5  593.44   25.34
  -5  -1  -5  603.72   34.41
  -5  -1  -5  626.95   32.59
  -5  -1  -5  603.27   33.94
  -5  -1  -5  584.42   34.36
  -5  -1  -5  660.92   41.41
  -5  -1  -6  573.11   33.15
  -5  -1  -6  628.43   32.80
  -5  -1  -6  617.23   33.38
  -5  -1  -6  530.75   33.16
  -5  -1  -6  627.28   39.87
  -5  -1  -7  162.84   16.10
  -5  -1  -7  184.11   17.06
  -5  -1  -7  198.35   17.81
  -5  -1  -7  160.36   17.14
  -5  -1  -7  190.80   20.23
  -5  -1  -8   27.50    5.89
  -5  -1  -8   43.35    7.31
  -5  -1  -8   43.07    6.82
  -5  -1  -8   34.90    7.14
   5   0 -13   70.19    9.72
  -5   0  13   84.91    9.36
   5   0 -13   69.71    8.28
   5   0 -12    4.13    2.09
   5   0 -12    3.05    2.69
  -5   0  12    2.08    2.44
   5   0 -12    7.24    4.07
   5   0 -12    0.28    0.90
  -5   0  12    7.01    3.42
   5   0 -12    4.07    2.77
   5   0 -11  418.64   23.17
   5   0 -11  365.01   28.02
   5   0 -11  381.50   25.33
  -5   0  11  387.42   24.38
   5   0 -11  405.32   29.85
   5   0 -11  434.48   23.85
   5   0 -11  432.13   26.23
   5   0 -10 1276.84   43.37
   5   0 -10 1196.32   51.50
   5   0 -10 1240.57   46.50
  -5   0  10 1275.97   46.64
  -5   0  10 1282.42   44.19
   5   0 -10 1254.40   54.11
   5   0 -10 1398.86   55.42
   5   0 -10 1341.36   46.60
   5   0 -10 1288.97   42.52
   5   0  -9 2496.30   72.81
   5   0  -9 2561.40   65.53
  -5   0   9 2515.00   65.43
   5   0  -9 2673.33   62.92
   5   0  -9 2567.12   75.97
   5   0  -9 2735.27   76.31
   5   0  -9 2734.97   64.70
  -5   0   9 2572.71   63.33
   5   0  -9 2673.63   59.52
   5   0  -8   57.82    8.92
   5   0  -8   42.69    7.87
   5   0  -8   47.22    7.42
  -5   0   8   47.73    8.46
   5   0  -8   51.96    9.76
   5   0  -8   44.07    9.61
   5   0  -8   56.45   10.29
  -5   0   8   51.54    8.57
   5   0  -8   60.41    9.03
   5   0  -8   60.23    8.43
   5   0  -7 1190.48   44.19
   5   0  -7 1225.77   35.14
   5   0  -7 1227.66   39.57
  -5   0   7 1210.97   40.52
  -5   0   7 1216.28   39.93
   5   0  -7 1141.83   45.04
   5   0  -7 1272.69   40.34
   5   0  -7 1246.55   45.85
  -5   0   7 1345.99   37.25
   5   0  -7 1350.43   31.63
   5   0  -7 1243.56   37.59
   5   0  -7 1256.90   36.32
   5   0  -6 4714.55   65.10
   5   0  -6 4218.34   77.15
   5   0  -6 4391.89   67.91
  -5   0   6 5108.69   67.13
  -5   0   6 4770.90   75.67
  -5   0   6 4569.42   73.58
   5   0  -6 4427.37   82.45
  -5   0   6 4903.86   78.96
   5   0  -6 4532.13   71.03
   5   0  -6 4992.06   55.21
   5   0  -6 4852.65   68.26
   5   0  -6 4739.95   66.27
   5   0  -5 3162.53   51.60
   5   0  -5 3281.95   57.52
  -5   0   5 3340.22   50.40
  -5   0   5 3168.50   57.80
  -5   0   5 3022.38   56.74
   5   0  -5 3081.03   64.07
  -5   0   5 3168.54   60.13
   5   0  -5 3182.34   40.58
   5   0  -5 3188.58   50.67
   5   0  -4   46.83    6.19
  -5   0   4   36.97    4.96
  -5   0   4   37.86    6.32
   5   0  -4   42.27    6.04
   5   0  -4   41.25    4.25
  -5   0   3   30.52    4.31
   5   0  -3   39.37    3.81
   5   0  -2 3211.19   32.93
   5   0  -2 2881.91   29.89
   5   0  -1 5687.56   49.20
  -5   0   1 4857.71   54.07
  -5   0   1 4469.15   68.16
  -5   0   1 4731.54   77.58
   5   0  -1 5446.51   36.29
  -5   0   0 1535.92   31.62
  -5   0   0 1628.19   41.54
   5   0   0 1728.67   30.00
  -5   0   0 1561.01   39.91
  -5   0   0 1451.80   53.37
  -5   0   0 1368.21   43.71
  -5   0   0 1523.84   40.89
  -5   0   0 1283.43   61.83
  -5   0  -1  193.40   12.07
  -5   0  -1  214.83   16.16
   5   0   1  244.45   12.42
  -5   0  -1  200.86   13.54
  -5   0  -1  212.45   15.59
  -5   0  -1  208.07   21.94
  -5   0  -1  192.50   17.33
  -5   0  -1  217.72   16.30
  -5   0  -1  188.49   21.67
  -5   0  -1  202.91   18.31
  -5   0  -2 1918.13   41.77
  -5   0  -2 1856.11   51.82
  -5   0  -2 1806.20   43.81
  -5   0  -2 1833.01   49.21
  -5   0  -2 1882.28   70.85
  -5   0  -2 1868.84   51.01
  -5   0  -2 1747.22   54.54
  -5   0  -2 1792.61   60.25
  -5   0  -3 2266.15   53.14
  -5   0  -3 2360.66   84.46
  -5   0  -3 2265.57   60.25
  -5   0  -3 2262.74   61.31
  -5   0  -3 2262.09   64.10
  -5   0  -3 2164.42   71.35
  -5   0  -4  342.25   22.18
  -5   0  -4  353.35   25.70
  -5   0  -4  326.55   23.67
  -5   0  -4  362.95   34.60
  -5   0  -4  343.62   25.22
  -5   0  -4  351.20   29.96
  -5   0  -5   36.21    7.88
  -5   0  -5   40.82   11.45
  -5   0  -5   26.59    7.58
  -5   0  -5   30.81    8.36
  -5   0  -5   31.29    7.81
  -5   0  -5   25.71    8.33
  -5   0  -6  270.91   23.33
  -5   0  -6  330.47   23.40
  -5   0  -6  374.36   34.03
  -5   0  -6  340.77   24.65
  -5   0  -6  307.30   25.18
  -5   0  -6  254.42   25.87
  -5   0  -7   60.83   10.62
  -5   0  -7   68.75   10.45
  -5   0  -7   68.97   10.24
  -5   0  -7   56.11   10.34
  -5   0  -7   81.61   13.20
  -5   0  -8  270.15   18.67
  -5   0  -8  294.79   19.20
  -5   0  -8  320.50   18.77
  -5   0  -8  261.43   19.44
  -5   0  -8  321.55   22.66
   5   1 -13  173.05   15.04
   5   1 -13  189.46   15.21
  -5   1  13  192.49   13.28
   5   1 -13  164.56   12.51
   5   1 -12  475.71   22.11
   5   1 -12  389.00   23.73
   5   1 -12  466.95   29.33
  -5   1  12  448.35   24.69
  -5   1  12  432.02   22.36
  -5   1  12  454.21   25.53
   5   1 -12  491.29   29.88
   5   1 -12  452.20   24.76
   5   1 -11  225.95   17.21
   5   1 -11  171.72   17.44
   5   1 -11  184.24   20.34
  -5   1  11  189.18   18.20
  -5   1  11  184.35   16.96
   5   1 -11  198.87   21.17
  -5   1  11  189.19   19.18
   5   1 -11  189.41   16.31
   5   1 -11  195.31   17.94
   5   1 -10  163.36   15.14
   5   1 -10  123.51   17.37
   5   1 -10  124.68   15.28
  -5   1  10  124.80   15.30
  -5   1  10  139.56   15.67
   5   1 -10  130.25   14.38
   5   1 -10  139.92   18.87
   5   1 -10  143.02   15.57
   5   1  -9   49.43    8.55
   5   1  -9   38.12    8.38
  -5   1   9   52.93    9.73
   5   1  -9   48.46   10.80
   5   1  -9   59.81    8.01
   5   1  -9   61.00   12.18
   5   1  -9   62.71   11.55
  -5   1   9   49.79    9.29
   5   1  -9   50.04    9.19
   5   1  -9   57.76    8.91
   5   1  -8  840.54   42.56
   5   1  -8  869.51   37.92
  -5   1   8  915.85   39.84
  -5   1   8  938.06   39.71
   5   1  -8  940.86   32.31
   5   1  -8  927.23   45.44
   5   1  -8  999.00   38.40
   5   1  -8  960.29   42.74
   5   1  -8  917.35   36.79
   5   1  -8  987.66   36.12
  -5   1   7  423.58   25.12
   5   1  -7  387.89   26.74
   5   1  -7  402.15   23.98
  -5   1   7  485.07   22.38
  -5   1   7  445.59   25.92
   5   1  -7  460.22   22.32
  -5   1   7  326.36   42.00
   5   1  -7  392.11   27.79
   5   1  -7  476.91   25.32
   5   1  -7  418.71   23.05
   5   1  -7  484.31   20.07
   5   1  -7  500.52   23.90
   5   1  -6  247.56   17.23
   5   1  -6  214.54   18.87
   5   1  -6  219.89   16.45
  -5   1   6  261.89   15.13
  -5   1   6  229.30   17.52
  -5   1   6  231.99   17.72
   5   1  -6  229.96   20.03
  -5   1   6  246.47   17.76
   5   1  -6  253.60   15.97
   5   1  -6  252.90   16.54
   5   1  -6  254.64   13.18
   5   1  -6  260.88   16.18
   5   1  -5   39.07    6.28
   5   1  -5   32.62    5.27
   5   1  -5   25.80    5.12
  -5   1   5   36.44    5.08
  -5   1   5   31.24    6.06
   5   1  -5   21.80    5.52
   5   1  -5   33.37    7.02
  -5   1   5   35.20    6.17
  -5   1   5   28.34    5.68
  -5   1   5   16.10   11.88
   5   1  -5   31.00    4.24
   5   1  -5   29.61    5.07
   5   1  -5   27.51    5.31
   5   1  -4 2578.36   47.82
  -5   1   4 2617.71   54.24
  -5   1   4 2545.04   53.49
   5   1  -4 2571.14   59.85
  -5   1   4 2584.72   51.30
   5   1  -4 2652.20   50.21
   5   1  -4 2567.46   35.24
   5   1  -3 2777.95   47.33
  -5   1   3 2753.41   53.97
  -5   1   3 2860.74   41.75
  -5   1   3 2724.09   51.18
   5   1  -3 2803.91   33.42
  -5   1   3 2778.30   54.45
   5   1  -2  521.60   22.30
  -5   1   2  575.64   18.35
  -5   1   2  564.55   23.96
  -5   1   2  587.20   24.79
  -5   1   1  520.40   25.46
  -5   1   1  564.28   24.71
  -5   1   1  483.80   27.26
  -5   1   1  562.82   18.05
  -5   1   1  562.29   24.08
  -5   1   1  584.76   24.66
  -5   1   1  386.91   39.45
   5   1  -1  689.47   11.93
  -5   1   0 1178.92   27.56
  -5   1   0 1015.77   39.30
  -5   1   0 1038.09   38.16
  -5   1   0 1173.91   37.04
  -5   1   0 1114.14   34.63
  -5   1   0 1062.84   46.07
  -5   1   0 1185.28   36.01
  -5   1   0 1116.66   40.33
  -5   1  -1 2347.60   41.47
  -5   1  -1 1980.37   56.58
  -5   1  -1 2324.09   54.69
  -5   1  -1 2156.18   42.78
  -5   1  -1 2243.90   50.97
  -5   1  -1 2099.79   69.97
  -5   1  -1 2254.32   52.36
  -5   1  -1 2096.65   57.16
  -5   1  -1 1753.54   71.48
  -5   1  -1 2146.82   61.04
  -5   1  -2  632.33   32.93
  -5   1  -2  698.65   34.77
  -5   1  -2  791.55   26.65
  -5   1  -2  718.95   32.64
  -5   1  -2  715.96   27.00
  -5   1  -2  720.29   30.67
  -5   1  -2  713.43   43.66
  -5   1  -2  740.73   31.81
  -5   1  -2  685.51   38.01
  -5   1  -3   90.53   12.87
  -5   1  -3   79.11   11.70
  -5   1  -3   87.36   10.21
  -5   1  -3   90.03   11.49
  -5   1  -3   76.48   15.57
   5   1   3   98.52   13.91
  -5   1  -3   84.75   11.37
  -5   1  -3   66.45   12.41
   5   1   4   57.31   10.21
  -5   1  -4   90.91   11.52
  -5   1  -4   83.42   11.52
  -5   1  -4  103.36   18.29
  -5   1  -4   85.26   12.42
  -5   1  -4   83.00   12.26
  -5   1  -4   94.35   13.23
  -5   1  -4   82.78   15.23
  -5   1  -5  618.80   35.68
  -5   1  -5  592.15   30.66
  -5   1  -5  631.22   46.29
  -5   1  -5  600.84   32.17
  -5   1  -5  600.33   34.08
  -5   1  -5  671.28   36.10
  -5   1  -5  623.58   41.67
  -5   1  -6  607.43   34.49
  -5   1  -6  624.46   31.69
  -5   1  -6  671.77   46.84
  -5   1  -6  633.96   32.22
  -5   1  -6  602.00   34.52
  -5   1  -6  651.92   41.07
   5   1   7  132.46   12.51
  -5   1  -7  173.36   15.80
  -5   1  -7  207.29   22.42
  -5   1  -7  178.98   15.55
  -5   1  -7  166.37   16.96
  -5   1  -7  172.78   16.96
  -5   1  -7  174.31   19.07
  -5   1  -8   32.90    6.55
  -5   1  -8   43.29    7.07
  -5   1  -8   41.12    7.23
   5   1   8   39.10    6.70
  -5   1  -8   40.72    6.12
  -5   1  -8   42.83    7.99
   5   2 -12   19.46    4.46
   5   2 -12    9.51    3.97
  -5   2  12   11.89    4.15
   5   2 -12   22.02    6.07
   5   2 -12   16.02    5.08
  -5   2  12   17.83    4.36
  -5   2  12   17.31    4.71
   5   2 -12   21.06    5.59
   5   2 -11  319.06   20.58
   5   2 -11  270.19   19.62
   5   2 -11  270.22   21.59
   5   2 -11  291.75   24.85
  -5   2  11  291.85   22.71
  -5   2  11  311.91   22.80
   5   2 -11  332.47   26.90
  -5   2  11  271.02   20.87
   5   2 -11  298.32   22.13
   5   2 -10  670.75   31.85
   5   2 -10  629.60   32.08
   5   2 -10  613.51   26.65
   5   2 -10  605.99   34.21
   5   2 -10  641.15   39.67
  -5   2  10  644.21   35.57
  -5   2  10  649.24   35.23
   5   2 -10  633.70   39.87
  -5   2  10  658.65   33.53
   5   2 -10  627.36   33.44
   5   2  -9  209.02   17.83
   5   2  -9  185.77   17.68
   5   2  -9  175.13   18.52
   5   2  -9  174.13   20.50
  -5   2   9  181.94   19.05
  -5   2   9  179.54   19.00
   5   2  -9  182.91   21.51
  -5   2   9  165.57   17.32
   5   2  -9  197.52   15.72
   5   2  -9  181.77   17.74
   5   2  -8   33.42    7.53
   5   2  -8   29.93    6.66
   5   2  -8   23.15    6.60
  -5   2   8   35.30    7.90
   5   2  -8   31.23    8.86
   5   2  -8   33.33    8.82
  -5   2   8   28.67    6.86
  -5   2   8   26.37    7.09
   5   2  -8   48.02    7.62
  -5   2   8   16.41   12.53
   5   2  -8   32.54    7.22
   5   2  -7  271.44   20.45
   5   2  -7  229.05   19.32
   5   2  -7  207.89   21.26
   5   2  -7  259.78   17.45
  -5   2   7  255.78   20.94
  -5   2   7  229.39   20.03
   5   2  -7  246.28   23.26
  -5   2   7  233.21   18.45
  -5   2   7  175.01   34.68
   5   2  -7  229.93   18.24
   5   2  -7  266.05   18.67
   5   2  -6  957.81   37.42
  -5   2   6 1080.37   30.79
   5   2  -6  901.43   41.83
  -5   2   6  970.04   38.53
  -5   2   6  927.27   38.02
   5   2  -6  960.32   43.40
   5   2  -6  873.64   28.53
  -5   2   6  995.46   35.74
   5   2  -6  988.39   33.43
   5   2  -6  988.80   37.29
  -5   2   6  798.96   72.82
  -5   2   6  983.50   33.29
   5   2  -6  928.51   34.44
   5   2  -6  979.38   28.81
   5   2  -6  960.14   33.51
   5   2  -5 2522.98   51.73
   5   2  -5 2376.79   55.55
  -5   2   5 2532.42   43.85
   5   2  -5 2293.04   63.26
  -5   2   5 2373.85   57.78
   5   2  -5 2324.00   46.06
   5   2  -5 2471.52   66.52
  -5   2   5 2303.04   51.54
   5   2  -5 2262.88   53.20
  -5   2   5 2025.55  112.14
  -5   2   5 2394.20   57.69
  -5   2   5 2335.66   50.75
   5   2  -5 2460.00   52.67
   5   2  -5 2390.41   41.53
   5   2  -5 2160.76   46.75
   5   2  -4  137.60   11.50
   5   2  -4  123.94   11.90
  -5   2   4  127.47    9.18
  -5   2   4  118.71   12.25
   5   2  -4  129.98   14.18
   5   2  -4  119.62   10.33
   5   2  -4  139.03   12.37
  -5   2   4  115.53   10.70
  -5   2   4  109.71   10.85
  -5   2   4  104.79   11.26
  -5   2   4   79.54   22.00
   5   2  -4  134.16    8.96
   5   2  -4  123.81   10.36
   5   2  -3    6.40    1.69
   5   2  -3    0.92    1.68
   5   2  -3    0.26    1.14
   5   2  -3    2.62    2.24
  -5   2   3    0.58    0.71
  -5   2   3    2.43    2.57
   5   2  -3    1.95    1.00
   5   2  -3   -0.87    0.76
   5   2  -3    2.21    1.25
  -5   2   3    1.90    1.94
  -5   2   3    0.20    1.34
  -5   2   3    0.81    7.56
  -5   2   3    2.40    2.14
   5   2  -2 1914.56   27.95
   5   2  -2 1393.58   36.87
  -5   2   2 1418.04   48.99
   5   2  -2 1670.01   41.31
  -5   2   2 1640.94   31.02
  -5   2   2 1585.06   43.73
  -5   2   2 1568.96   42.53
   5   2  -2 1365.57   30.23
  -5   2   2 1603.83   39.84
  -5   2   2 1275.93   82.89
  -5   2   2 1601.26   44.49
  -5   2   2 1480.19   42.97
   5   2  -2 1839.73   48.61
   5   2  -1 1812.89   40.29
  -5   2   1 1863.86   56.28
   5   2  -1 2020.46   47.00
  -5   2   1 2035.68   50.27
  -5   2   1 2072.85   34.60
  -5   2   1 1902.54   46.41
   5   2  -1 2345.31   38.34
   5   2  -1 2336.37   45.17
  -5   2   1 1931.66   58.36
  -5   2   1 2086.36   46.08
  -5   2   1 1499.80   85.30
  -5   2   1 2060.31   53.49
  -5   2   1 1867.79   51.16
   5   2   0  853.12   31.92
  -5   2   0  821.77   38.41
  -5   2   0  931.49   24.89
  -5   2   0  899.48   33.88
   5   2   0  958.50   27.61
  -5   2   0  860.80   31.46
   5   2   0  880.81   30.31
  -5   2   0  817.88   41.45
  -5   2   0  888.06   31.28
  -5   2   0  936.60   38.45
  -5   2   0  842.86   36.15
  -5   2  -1    4.29    4.16
  -5   2  -1    0.97    2.03
  -5   2  -1    2.57    1.56
  -5   2  -1    2.04    2.28
   5   2   1    0.41    1.59
   5   2   1    5.41    3.11
  -5   2  -1   -0.40    1.61
  -5   2  -1    3.62    2.64
  -5   2  -1    1.35    1.10
   5   2   1    2.04    2.12
  -5   2  -1    2.84    2.53
   5   2   1    4.65    2.74
   5   2   2  472.67   24.80
  -5   2  -2  451.17   29.43
  -5   2  -2  522.26   21.74
  -5   2  -2  489.61   27.64
   5   2   2  413.63   23.98
  -5   2  -2  476.11   24.98
  -5   2  -2  441.68   35.35
   5   2   2  534.99   34.92
  -5   2  -2  494.50   25.87
  -5   2  -2  420.09   30.19
  -5   2  -2  453.19   29.28
   5   2   3  444.20   24.77
  -5   2  -3  437.88   29.10
  -5   2  -3  427.31   27.17
   5   2   3  427.89   26.02
  -5   2  -3  422.45   24.53
  -5   2  -3  402.88   36.34
   5   2   3  491.31   35.17
  -5   2  -3  428.21   25.92
  -5   2  -3  386.07   31.04
  -5   2  -3  420.95   28.90
  -5   2  -4  398.98   28.47
  -5   2  -4  388.16   27.25
   5   2   4  493.20   28.67
  -5   2  -4  416.12   25.20
  -5   2  -4  377.00   35.86
   5   2   4  452.10   34.34
  -5   2  -4  410.74   26.49
  -5   2  -4  375.55   32.51
  -5   2  -5  154.67   17.28
   5   2   5  137.24   15.01
  -5   2  -5  123.17   20.34
  -5   2  -5  125.88   13.93
  -5   2  -5  111.34   14.78
  -5   2  -5  118.04   14.88
  -5   2  -5  123.46   18.97
  -5   2  -6   11.42    5.06
   5   2   6   15.46    4.65
  -5   2  -6    5.20    5.65
  -5   2  -6   17.61    5.62
  -5   2  -6   18.94    5.31
  -5   2  -6   28.16    8.24
  -5   2  -6   20.05    6.82
  -5   2  -7  367.62   23.28
   5   2   7  346.00   19.31
  -5   2  -7  405.31   30.04
  -5   2  -7  396.04   20.63
  -5   2  -7  358.51   22.88
   5   2   7  390.45   23.38
  -5   2  -7  359.51   26.19
  -5   2  -8  107.06   10.36
  -5   2  -8   97.97   10.02
   5   2   8  117.92   10.91
  -5   2  -8  108.23   11.31
   5   3 -12  329.06   19.29
  -5   3  12  404.18   21.78
  -5   3  12  426.95   21.39
   5   3 -12  405.59   23.01
   5   3 -12  378.86   18.53
   5   3 -12  353.05   19.18
   5   3 -11  166.09   14.15
   5   3 -11  119.36   13.06
   5   3 -11  125.00   13.86
  -5   3  11  138.72   14.66
   5   3 -11  140.78   16.05
  -5   3  11  174.22   16.44
   5   3 -11  185.43   18.52
   5   3 -11  138.19   14.23
   5   3 -10   13.11    5.12
   5   3 -10   18.80    4.79
   5   3 -10   16.39    4.69
   5   3 -10    8.28    4.03
  -5   3  10    5.82    3.50
   5   3 -10   16.82    6.34
   5   3 -10   20.21    7.23
  -5   3  10    9.48    4.39
  -5   3  10   15.24    5.30
   5   3 -10   16.82    5.38
   5   3  -9  501.89   28.56
   5   3  -9  489.91   25.81
   5   3  -9  429.26   29.36
  -5   3   9  497.74   31.96
   5   3  -9  442.15   33.30
  -5   3   9  493.89   31.71
   5   3  -9  500.20   35.16
  -5   3   9  495.22   27.02
   5   3  -9  486.49   30.40
  -5   3   9  468.82   25.80
   5   3  -9  421.48   27.65
   5   3  -8  336.08   23.12
   5   3  -8  322.46   20.98
   5   3  -8  321.91   24.62
   5   3  -8  294.94   24.14
  -5   3   8  308.65   24.85
   5   3  -8  265.79   26.06
  -5   3   8  343.44   26.23
   5   3  -8  292.93   26.75
  -5   3   8  341.49   21.60
  -5   3   8  313.05   21.38
  -5   3   8  210.42   40.17
   5   3  -8  265.18   22.08
   5   3  -7  521.80   27.88
   5   3  -7  479.16   29.37
   5   3  -7  494.67   30.50
  -5   3   7  525.01   31.44
  -5   3   7  556.74   32.53
   5   3  -7  579.02   28.10
   5   3  -7  541.72   35.59
  -5   3   7  515.70   26.17
  -5   3   7  471.99   61.07
  -5   3   7  558.02   28.80
   5   3  -7  550.62   24.87
   5   3  -7  436.86   32.10
   5   3  -7  490.56   28.60
   5   3  -6  212.21   16.72
   5   3  -6  244.73   17.95
   5   3  -6  210.28   18.72
   5   3  -6  234.00   20.10
  -5   3   6  235.99   20.25
   5   3  -6  224.15   22.14
  -5   3   6  228.56   19.96
   5   3  -6  240.90   22.81
   5   3  -6  233.12   16.16
  -5   3   6  194.61   40.00
  -5   3   6  225.12   17.77
   5   3  -6  217.27   18.09
   5   3  -5  407.99   22.13
   5   3  -5  389.58   19.48
   5   3  -5  441.47   26.19
  -5   3   5  406.41   25.28
  -5   3   5  404.19   25.15
   5   3  -5  424.54   29.37
   5   3  -5  415.67   21.67
   5   3  -5  440.62   23.34
   5   3  -5  426.35   25.78
  -5   3   5  354.55   51.01
  -5   3   5  416.86   23.95
   5   3  -5  405.46   23.46
   5   3  -4 1196.76   35.79
   5   3  -4 1214.01   41.91
   5   3  -4 1123.01   40.41
  -5   3   4 1083.17   40.24
  -5   3   4 1074.91   39.39
   5   3  -4 1125.75   45.87
   5   3  -4 1182.79   31.11
   5   3  -4 1119.06   35.55
   5   3  -4 1111.24   36.03
   5   3  -4 1124.13   46.17
  -5   3   4 1048.15   86.82
  -5   3   4 1111.75   39.39
   5   3  -4 1110.31   36.26
   5   3  -3 2318.17   55.59
  -5   3   3 1806.38   58.54
   5   3  -3 2028.83   52.80
  -5   3   3 1999.43   53.09
  -5   3   3 1907.89   50.73
   5   3  -3 1987.86   47.79
   5   3  -3 2183.41   61.14
   5   3  -3 2059.56   35.49
  -5   3   3 1907.57   44.11
  -5   3   3 2000.59   54.96
   5   3  -3 2055.92   65.09
  -5   3   3 1837.49  111.22
   5   3  -3 1927.80   45.77
  -5   3   3 2004.36   53.38
  -5   3   3 1922.88   49.30
   5   3  -2  521.90   25.02
  -5   3   2  399.18   29.64
  -5   3   2  454.08   24.87
  -5   3   2  425.26   23.32
   5   3  -2  449.41   18.25
   5   3  -2  427.64   21.55
   5   3  -2  454.09   20.37
  -5   3   2  441.42   27.11
   5   3  -2  492.79   23.99
   5   3  -2  494.71   32.78
  -5   3   2  385.95   48.97
  -5   3   2  466.98   26.30
  -5   3   2  459.13   25.60
  -5   3   1   81.25   14.03
  -5   3   1   89.25   11.00
   5   3  -1   94.73   10.59
   5   3  -1  109.26    9.92
  -5   3   1   91.28   10.67
   5   3  -1   87.18    8.80
   5   3  -1   96.42    9.71
  -5   3   1   88.59   13.00
   5   3  -1  106.34   15.13
  -5   3   1   87.02   11.73
  -5   3   1  101.12   12.79
  -5   3   1   76.65   19.96
  -5   3   0  989.65   45.11
  -5   3   0  831.35   36.65
   5   3   0  980.48   34.61
  -5   3   0  976.18   37.46
   5   3   0 1082.27   30.87
  -5   3   0  967.99   34.39
   5   3   0 1054.21   34.35
  -5   3   0  939.33   45.83
   5   3   0  823.04   44.96
  -5   3   0  915.49   40.49
  -5   3   0  723.97   59.73
  -5   3   0  991.54   42.47
  -5   3  -1  990.85   46.59
  -5   3  -1  944.86   38.40
   5   3   1 1029.32   36.30
  -5   3  -1 1047.06   39.71
   5   3   1 1126.45   37.85
  -5   3  -1 1016.24   35.53
  -5   3  -1 1013.04   51.10
  -5   3  -1 1031.00   44.68
  -5   3  -1 1063.16   46.68
  -5   3  -2  187.94   19.92
   5   3   2  194.27   15.81
  -5   3  -2  156.56   15.97
   5   3   2  180.28   15.84
  -5   3  -2  187.33   15.53
  -5   3  -2  163.03   21.60
   5   3   2  194.09   23.47
  -5   3  -2  160.67   14.67
  -5   3  -2  178.21   20.28
  -5   3  -2  178.53   19.29
  -5   3  -3  179.18   19.85
  -5   3  -3  176.68   17.69
   5   3   3  220.75   16.22
   5   3   3  198.40   17.13
  -5   3  -3  194.40   16.35
  -5   3  -3  166.38   23.05
   5   3   3  193.62   24.74
  -5   3  -3  174.34   16.02
  -5   3  -3  178.62   21.41
  -5   3  -3  152.38   17.97
  -5   3  -4  229.57   22.20
  -5   3  -4  221.49   19.73
   5   3   4  280.85   20.71
  -5   3  -4  222.75   28.29
  -5   3  -4  232.18   18.07
   5   3   4  261.55   29.04
  -5   3  -4  242.96   19.49
  -5   3  -4  219.85   24.07
  -5   3  -4  250.54   22.78
  -5   3  -5  439.54   27.61
  -5   3  -5  493.40   30.42
   5   3   5  485.85   26.60
  -5   3  -5  506.26   39.77
  -5   3  -5  466.23   24.70
   5   3   5  468.06   37.65
  -5   3  -5  482.18   27.90
   5   3   5  495.63   28.08
  -5   3  -5  444.11   33.72
   5   3   6  266.46   18.06
  -5   3  -6  288.85   20.95
  -5   3  -6  241.23   25.17
  -5   3  -6  228.40   18.70
  -5   3  -6  245.23   18.47
   5   3   6  260.49   19.16
  -5   3  -6  251.99   23.21
  -5   3  -7   95.21   10.22
   5   3   7   99.04    9.30
  -5   3  -7  114.46   14.58
   5   3   7  111.41   11.39
  -5   3  -7  125.89   13.54
   5   4 -11  221.32   15.11
   5   4 -11  139.16   12.83
   5   4 -11  174.62   14.82
  -5   4  11  238.03   17.06
   5   4 -11  215.88   16.92
  -5   4  11  225.39   16.66
   5   4 -11  191.34   14.77
   5   4 -10  460.09   25.39
   5   4 -10  431.99   22.22
   5   4 -10  440.93   26.46
  -5   4  10  458.75   27.21
  -5   4  10  512.56   28.79
   5   4 -10  449.21   28.61
   5   4 -10  385.92   25.16
   5   4 -10  406.33   24.35
   5   4  -9  289.33   23.85
  -5   4   9  319.99   24.23
   5   4  -9  338.54   21.67
   5   4  -9  310.26   22.17
   5   4  -9  281.94   22.99
  -5   4   9  359.05   25.56
   5   4  -9  289.20   25.16
  -5   4   9  315.77   21.43
   5   4  -9  279.68   22.07
   5   4  -8   40.23    8.83
   5   4  -8   39.57    7.49
   5   4  -8   34.81    7.40
   5   4  -8   29.31    7.57
  -5   4   8   23.39    7.01
   5   4  -8   37.62    9.28
  -5   4   8   37.19    8.62
  -5   4   8    6.77    6.92
  -5   4   8   32.80    7.17
   5   4  -8   32.64    7.40
   5   4  -7  351.36   24.17
   5   4  -7  395.30   28.06
  -5   4   7  402.41   27.70
   5   4  -7  363.28   29.65
   5   4  -7  407.42   25.32
   5   4  -7  381.28   28.35
  -5   4   7  367.71   56.65
  -5   4   7  409.71   26.40
   5   4  -7  404.35   22.70
   5   4  -7  371.39   25.90
  -5   4   7  375.35   26.72
   5   4  -6  974.81   38.71
   5   4  -6  829.02   41.71
   5   4  -6  990.30   44.00
  -5   4   6  922.24   41.35
   5   4  -6  971.70   47.81
  -5   4   6  972.04   42.19
   5   4  -6  861.52   37.22
  -5   4   6  900.73   88.32
   5   4  -6  954.22   35.73
  -5   4   6  964.02   40.89
   5   4  -6  914.04   39.38
   5   4  -5  544.04   28.06
   5   4  -5  566.55   28.41
   5   4  -5  536.70   32.90
   5   4  -5  548.16   31.79
  -5   4   5  534.60   30.48
  -5   4   5  530.80   30.06
   5   4  -5  546.96   27.38
  -5   4   5  585.71   69.37
  -5   4   5  536.93   30.39
   5   4  -5  583.49   36.24
   5   4  -5  551.99   29.35
   5   4  -4  284.16   19.53
   5   4  -4  286.11   22.44
  -5   4   4  297.72   21.97
  -5   4   4  309.97   21.91
   5   4  -4  324.84   24.44
   5   4  -4  370.79   28.59
   5   4  -4  326.81   20.63
   5   4  -4  326.19   21.14
   5   4  -4  296.44   26.02
  -5   4   4  264.01   47.14
  -5   4   4  320.67   23.60
   5   4  -4  307.41   20.87
   5   4  -3  278.99   18.85
   5   4  -3  295.93   22.60
  -5   4   3  284.23   24.65
  -5   4   3  300.23   21.60
  -5   4   3  284.16   20.18
   5   4  -3  275.24   17.22
  -5   4   3  294.18   22.92
   5   4  -3  319.98   20.89
   5   4  -3  283.40   26.83
  -5   4   3  262.82   44.99
  -5   4   3  290.03   22.33
   5   4  -3  307.62   19.66
   5   4  -2 1539.98   51.26
  -5   4   2 1389.71   56.79
  -5   4   2 1452.39   46.95
  -5   4   2 1370.32   43.63
   5   4  -2 1515.85   40.98
   5   4  -2 1513.76   46.28
  -5   4   2 1454.92   53.03
   5   4  -2 1363.98   59.69
   5   4  -2 1558.69   42.75
  -5   4   2 1407.83   48.76
  -5   4   2 1330.29   97.09
  -5   4   2 1487.65   52.04
  -5   4   1  766.71   42.27
  -5   4   1  798.79   34.49
  -5   4   1  759.48   31.40
   5   4  -1  784.95   33.57
   5   4  -1  783.58   31.49
  -5   4   1  753.23   40.63
   5   4  -1  824.38   48.75
  -5   4   1  751.45   37.53
  -5   4   1  651.74   64.70
  -5   4   1  828.42   40.03
  -5   4   0  335.77   29.73
  -5   4   0  293.73   24.03
  -5   4   0  337.02   22.46
   5   4   0  328.99   21.73
  -5   4   0  351.16   20.94
   5   4   0  348.71   21.38
  -5   4   0  317.19   28.33
   5   4   0  348.40   32.68
  -5   4   0  318.94   25.32
  -5   4   0  334.03   26.62
  -5   4  -1   68.09   11.46
  -5   4  -1   74.31   13.92
  -5   4  -1   77.51   10.92
   5   4   1   74.97   10.02
   5   4   1   77.71   10.31
  -5   4  -1   75.43    9.88
  -5   4  -1   80.71   15.35
  -5   4  -1   71.73   12.01
  -5   4  -1   68.49   12.50
   5   4   1   78.79   15.95
  -5   4  -2  566.62   37.64
  -5   4  -2  522.74   31.13
  -5   4  -2  566.85   30.11
   5   4   2  660.61   29.47
   5   4   2  564.12   28.98
  -5   4  -2  531.67   40.30
   5   4   2  618.83   46.60
  -5   4  -2  592.72   36.24
  -5   4  -2  542.09   36.48
  -5   4  -3 1041.21   49.81
  -5   4  -3 1004.09   40.38
   5   4   3  882.68   37.64
  -5   4  -3  935.34   55.63
   5   4   3 1055.98   63.35
   5   4   3  967.45   36.44
  -5   4  -3  968.60   49.33
  -5   4  -3 1056.16   48.59
  -5   4  -4  225.99   18.86
  -5   4  -4  225.71   22.10
   5   4   4  228.21   18.45
  -5   4  -4  235.46   27.50
   5   4   4  232.92   29.41
   5   4   4  194.23   16.50
  -5   4  -4  206.23   22.49
  -5   4  -4  238.30   21.79
  -5   4  -5   15.89    6.05
  -5   4  -5   11.36    4.32
   5   4   5    9.42    3.63
  -5   4  -5    9.50    5.83
  -5   4  -5   16.12    5.12
   5   4   5   12.59    8.27
   5   4   5   10.27    4.07
  -5   4  -5    9.54    4.17
  -5   4  -6   65.05    8.41
  -5   4  -6   46.23    7.14
   5   4   6   52.85    7.23
  -5   4  -6   53.19   10.32
   5   4   6   60.64    8.09
  -5   4  -6   52.51    9.35
   5   5 -10    8.83    3.74
   5   5 -10    4.32    2.19
   5   5 -10    1.40    1.53
   5   5 -10    2.53    2.18
  -5   5  10    6.46    3.29
  -5   5  10    8.46    3.44
   5   5 -10    4.93    2.53
   5   5  -9  203.97   16.39
   5   5  -9  215.25   19.37
   5   5  -9  231.70   16.86
   5   5  -9  216.91   17.93
  -5   5   9  238.09   17.88
  -5   5   9  243.57   18.47
   5   5  -9  244.66   20.10
  -5   5   9  226.66   17.22
  -5   5   9  156.60   30.26
   5   5  -9  201.64   16.55
   5   5  -8  645.19   27.44
   5   5  -8  536.82   28.42
   5   5  -8  628.19   30.34
   5   5  -8  599.94   32.62
   5   5  -8  549.28   33.62
   5   5  -8  630.33   35.24
  -5   5   8  620.14   31.52
  -5   5   8  595.17   30.64
  -5   5   8  534.22   64.20
  -5   5   8  584.60   30.83
   5   5  -8  532.05   29.26
   5   5  -7  422.53   26.31
   5   5  -7  462.54   32.92
   5   5  -7  562.10   30.06
   5   5  -7  475.69   30.10
  -5   5   7  509.57   29.32
  -5   5   7  543.96   30.17
   5   5  -7  575.64   35.43
  -5   5   7  522.56   65.88
  -5   5   7  540.16   31.09
   5   5  -7  568.37   27.31
   5   5  -7  462.05   27.95
   5   5  -6   76.71   10.93
   5   5  -6   72.89   13.20
   5   5  -6  105.98   12.93
   5   5  -6   72.46   11.76
  -5   5   6   87.85   12.17
  -5   5   6   95.02   12.58
  -5   5   6   98.96   13.61
   5   5  -6  116.69   12.76
  -5   5   6   75.47   24.98
   5   5  -6   95.78   12.68
   5   5  -5  177.78   16.42
   5   5  -5  178.90   16.79
   5   5  -5  156.09   19.33
  -5   5   5  160.03   16.19
  -5   5   5  183.53   17.10
   5   5  -5  197.17   17.08
  -5   5   5  170.64   18.30
  -5   5   5  146.47   37.03
   5   5  -5  180.30   17.06
   5   5  -4  966.52   36.42
   5   5  -4  917.60   37.27
   5   5  -4  963.32   47.43
  -5   5   4  979.37   39.92
  -5   5   4  939.67   37.85
  -5   5   4  996.52   43.49
   5   5  -4 1010.32   40.04
  -5   5   4  954.21   90.92
  -5   5   4  968.76   43.81
   5   5  -4  973.87   39.08
   5   5  -3 1687.44   49.29
   5   5  -3 1638.24   59.32
  -5   5   3 1603.26   61.55
  -5   5   3 1523.89   49.17
  -5   5   3 1543.88   46.68
   5   5  -3 1575.16   44.31
  -5   5   3 1627.60   57.71
   5   5  -3 1513.46   67.00
   5   5  -3 1690.67   51.91
  -5   5   3 1470.72  109.77
  -5   5   3 1614.29   57.27
   5   5  -3 1648.76   49.35
   5   5  -2  269.42   18.27
   5   5  -2  236.13   21.13
  -5   5   2  238.30   25.20
  -5   5   2  236.82   18.75
  -5   5   2  218.04   16.90
   5   5  -2  241.01   17.58
  -5   5   2  251.02   23.87
   5   5  -2  254.44   20.22
   5   5  -2  226.04   27.09
  -5   5   2  232.96   20.61
  -5   5   2  250.26   22.62
  -5   5   2  217.25   39.88
  -5   5   1   68.95   13.29
  -5   5   1   65.71    9.81
   5   5  -1   76.28   10.08
  -5   5   1   74.67   13.46
   5   5  -1   72.66   10.62
  -5   5   1   66.96   11.97
  -5   5   1   75.33   12.65
   5   5  -1   71.48   15.57
  -5   5   1   59.53   19.24
  -5   5   0  651.87   41.85
  -5   5   0  676.60   31.26
   5   5   0  655.99   30.81
  -5   5   0  614.73   40.47
   5   5   0  633.42   31.04
   5   5   0  707.27   51.10
  -5   5   0  670.96   37.63
  -5   5   0  645.76   37.61
  -5   5  -1  495.89   36.63
  -5   5  -1  529.22   27.42
   5   5   1  506.46   27.96
  -5   5  -1  480.37   37.73
   5   5   1  527.73   27.47
   5   5   1  544.36   47.03
  -5   5  -1  483.84   33.03
  -5   5  -1  515.58   34.31
  -5   5  -2  256.45   25.40
  -5   5  -2  260.42   19.05
   5   5   2  233.64   18.79
  -5   5  -2  218.94   25.07
   5   5   2  261.47   32.71
  -5   5  -2  247.27   23.15
  -5   5  -2  263.46   24.68
  -5   5  -3   -0.14    1.64
  -5   5  -3    4.51    3.64
   5   5   3    2.35    2.35
  -5   5  -3    2.87    5.31
   5   5   3    7.91    6.83
  -5   5  -3    3.63    2.94
  -5   5  -4  254.68   21.81
   5   5   4  249.88   18.17
  -5   5  -4  233.59   24.26
   5   5   4  305.03   33.76
  -5   5  -4  242.26   21.77
  -5   5  -4  306.82   22.67
  -5   5  -5  389.54   22.71
   5   5   5  332.06   18.63
  -5   5  -5  339.51   26.41
   5   5   5  370.69   33.90
  -5   5  -5  321.16   21.76
   5   6  -9  125.66   10.81
   5   6  -8    8.91    3.04
   5   6  -8    7.31    4.39
   5   6  -8    8.25    3.28
   5   6  -8    5.61    2.35
  -5   6   8    8.48    3.19
  -5   6   8   20.51   12.13
  -5   6   8    7.20    3.21
   5   6  -8    4.92    2.52
   5   6  -7   78.08    9.29
   5   6  -7   47.95    7.32
   5   6  -7   55.37    8.77
   5   6  -7   36.68    8.53
  -5   6   7   59.08    7.92
  -5   6   7   64.55    9.63
  -5   6   7   38.70   16.68
   5   6  -7   62.65    9.29
   5   6  -6  305.09   25.64
   5   6  -6  305.97   19.15
   5   6  -6  386.17   23.46
  -5   6   6  404.87   21.70
  -5   6   6  381.35   55.12
  -5   6   6  429.15   27.26
   5   6  -6  474.60   25.13
   5   6  -6  361.67   22.81
   5   6  -5  250.81   23.35
   5   6  -5  259.28   19.83
   5   6  -5  266.98   18.43
  -5   6   5  293.05   46.96
  -5   6   5  321.96   24.37
   5   6  -5  366.60   22.66
   5   6  -5  281.45   20.43
   5   6  -4   10.71    5.16
   5   6  -4    9.61    3.65
  -5   6   4    7.61    4.22
   5   6  -4   17.31    4.80
  -5   6   4   18.66   11.95
  -5   6   4    8.92    3.89
   5   6  -3   13.66    5.96
   5   6  -3   32.42    6.99
   5   6  -3   22.83    5.40
  -5   6   3   19.97    7.04
   5   6  -3   26.17    6.38
  -5   6   3   10.20   10.53
  -5   6   3   26.21    7.76
  -5   6   2  230.03   22.87
   5   6  -2  245.09   18.10
  -5   6   2  189.79   21.65
   5   6  -2  231.05   29.08
   5   6  -2  231.19   18.83
  -5   6   2  241.15   22.05
  -5   6   2  196.96   35.94
  -5   6   1  492.28   35.00
   5   6  -1  531.17   27.12
  -5   6   1  461.94   33.33
   5   6  -1  476.76   41.68
   5   6  -1  483.66   26.79
  -5   6   1  563.68   33.93
  -5   6   1  502.59   29.84
  -5   6   0  329.68   29.08
   5   6   0  344.83   22.27
  -5   6   0  316.27   28.30
   5   6   0  417.37   40.90
   5   6   0  360.30   22.52
  -5   6   0  335.41   25.29
  -5   6   0  369.52   27.51
  -5   6  -1   -2.36    4.14
   5   6   1    3.52    2.68
  -5   6  -1    3.41    4.60
   5   6   1    4.99    2.80
  -5   6  -1    3.58    3.55
   5   6   1    3.57    6.71
  -5   6  -1    4.48    3.48
  -5   6  -2  286.42   24.99
   5   6   2  272.65   19.11
  -5   6  -2  247.90   24.75
   5   6   2  348.55   37.31
  -5   6  -2  271.75   22.10
  -5   6  -2  328.06   24.04
  -5   6  -3  512.83   30.24
   5   6   3  484.64   24.29
  -5   6  -3  518.24   33.36
   5   6   3  604.26   47.23
  -5   6  -3  524.68   28.66
  -5   6  -3  596.46   30.17
  -5   6  -4  255.76   17.46
  -5   6  -4  168.00   15.13
   5   6   4  216.90   14.52
  -5   6  -4  204.12   19.72
   5   6   4  217.07   26.23
   5   7  -6   19.85    5.46
   5   7  -6   19.87    4.83
  -5   7   6   34.06   12.88
  -5   7   6   47.46    7.35
   5   7  -6   42.63    6.06
   5   7  -5   29.94    6.97
   5   7  -5   24.00    4.89
  -5   7   5   40.82   16.64
  -5   7   5   44.84    7.89
   5   7  -5   60.12    8.03
   5   7  -4  553.21   29.65
  -5   7   4  601.06   53.69
  -5   7   4  732.96   32.69
   5   7  -4  749.11   29.50
  -5   7   3  341.15   24.01
  -5   7   3  307.47   36.71
  -5   7   3  459.71   26.41
   5   7  -3  460.36   23.68
   5   7  -2  182.74   13.57
  -5   7   2  153.22   16.50
  -5   7   2  181.83   16.67
   5   7  -2  174.03   14.15
   5   7  -1   42.72    6.55
  -5   7   1   21.40    6.56
   5   7  -1   56.92   14.56
   5   7  -1   41.03    6.63
  -5   7   1   43.12    8.18
  -5   7   0  203.15   18.40
   5   7   0  242.32   16.20
  -5   7   0  206.36   19.84
   5   7   0  237.40   27.34
  -5   7   0  243.33   18.71
  -5   7   0  222.49   16.36
  -5   7  -1  267.71   20.26
   5   7   1  294.10   17.35
  -5   7  -1  271.49   22.88
   5   7   1  383.80   35.48
  -5   7  -1  335.41   20.76
  -5   7  -1  331.32   19.69
  -5   7  -2   77.02   10.73
   6  -7  -5    5.44    2.56
   6  -7  -5    6.57    2.12
  -6  -7   5    2.95    1.63
  -6  -7   5    4.11    1.86
  -6  -7   4  373.88   17.59
   6  -7  -4  433.53   19.34
  -6  -7   4  473.95   18.94
   6  -7  -4  528.34   19.45
  -6  -7   3  534.27   21.37
  -6  -7   3  522.70   20.37
   6  -7  -3  522.69   19.60
   6  -7  -2  459.41   19.34
  -6  -7   2  557.65   21.68
  -6  -7   2  578.24   21.32
   6  -7  -2  488.14   19.18
   6  -7  -1   10.08    2.66
  -6  -7   1   10.43    2.94
  -6  -7   1   14.39    3.26
  -6  -7   0  111.39    8.87
  -6  -7   0  117.16    8.72
  -6  -6   8   50.17    6.64
   6  -6  -8   53.99    6.85
  -6  -6   8   52.53    6.22
   6  -6  -8   55.42    6.95
  -6  -6   7   40.52    6.46
   6  -6  -7   55.23    7.33
  -6  -6   7   39.54    6.05
   6  -6  -7   41.62    5.98
   6  -6  -7   49.19    6.34
   6  -6  -6  218.81   15.94
  -6  -6   6  200.10   15.40
  -6  -6   6  209.54   14.92
   6  -6  -6  225.39   14.65
  -6  -6   5  293.08   19.41
   6  -6  -5  274.69   18.30
  -6  -6   5  273.68   17.65
  -6  -6   5  266.60   15.40
   6  -6  -5  309.11   17.67
   6  -6  -4  263.45   18.45
  -6  -6   4  261.44   18.38
  -6  -6   4  250.87   16.71
  -6  -6   4  288.08   18.62
   6  -6  -4  260.10   16.86
   6  -6  -3  120.25   12.85
  -6  -6   3  144.29   13.66
  -6  -6   3  114.58   11.84
  -6  -6   3  141.38   12.91
   6  -6  -3  134.33   12.60
   6  -6  -2  178.63   14.79
  -6  -6   2  194.02   15.51
  -6  -6   2  213.13   15.97
   6  -6  -2  206.83   14.68
   6  -6  -1  523.34   23.86
  -6  -6   1  600.29   26.90
  -6  -6   1  616.13   26.42
   6  -6  -1  510.72   23.49
   6  -6   0  440.44   20.71
  -6  -6   0  636.18   26.66
   6  -6   0  505.18   22.18
  -6  -6   0  669.40   26.61
  -6  -6  -1  122.26   10.96
   6  -6   1  115.21    9.62
  -6  -6  -2   26.86    4.90
  -6  -6  -2   32.22    5.17
  -6  -6  -3  282.60   14.12
  -6  -5  10    6.18    2.79
  -6  -5  10    6.05    2.07
   6  -5 -10    9.53    2.95
  -6  -5   9   82.86    9.07
   6  -5  -9   93.07    9.39
   6  -5  -9   97.72    9.60
   6  -5  -9  100.19    9.13
  -6  -5   8  435.37   23.30
   6  -5  -8  480.43   23.96
   6  -5  -8  473.72   22.71
   6  -5  -8  517.63   22.90
   6  -5  -7  830.93   33.46
  -6  -5   7  759.87   33.72
  -6  -5   7  815.44   33.46
  -6  -5   7  782.53   31.75
   6  -5  -7  821.57   30.70
   6  -5  -7  868.34   31.27
  -6  -5   6  589.11   29.56
   6  -5  -6  596.77   29.39
  -6  -5   6  573.56   28.64
  -6  -5   6  598.14   28.62
   6  -5  -6  575.16   25.52
   6  -5  -6  638.46   27.80
   6  -5  -5   72.16    9.87
  -6  -5   5  100.00   12.18
  -6  -5   5  100.20   12.13
   6  -5  -5   90.91   11.67
  -6  -5   5   96.09   11.65
   6  -5  -5  110.16   11.85
   6  -5  -4  983.36   38.55
  -6  -5   4  980.92   38.32
  -6  -5   4 1001.54   38.62
  -6  -5   4 1058.33   38.49
   6  -5  -4 1056.35   36.20
   6  -5  -3 1102.13   39.55
  -6  -5   3 1082.55   39.94
  -6  -5   3 1087.27   40.42
  -6  -5   3 1163.04   39.99
   6  -5  -3 1139.06   38.28
  -6  -5   2  491.64   26.32
  -6  -5   2  460.94   26.15
   6  -5  -2  441.33   24.56
  -6  -5   2  513.59   26.20
   6  -5  -2  432.63   23.55
   6  -5  -1   13.18    4.19
   6  -5  -1   19.05    4.58
  -6  -5   1   26.26    5.89
  -6  -5   1   20.72    5.03
  -6  -5   1   16.56    4.72
   6  -5   0  106.17   10.62
  -6  -5   0  118.21   12.37
  -6  -5   0  128.07   13.53
  -6  -5   0  140.37   13.08
   6  -5   0   98.12   11.82
  -6  -5  -1  477.65   24.30
  -6  -5  -1  466.31   25.51
  -6  -5  -1  519.71   24.59
  -6  -5  -2  562.56   25.16
  -6  -5  -2  589.29   27.74
  -6  -5  -2  604.30   25.34
  -6  -5  -3  116.04   10.60
  -6  -5  -3  118.18   11.86
  -6  -5  -3  124.16   10.65
  -6  -5  -4   14.17    3.38
  -6  -5  -4   20.75    3.80
  -6  -5  -4   21.96    5.06
  -6  -4  11   46.07    6.77
   6  -4 -11   45.64    6.14
   6  -4 -10  689.32   26.59
  -6  -4  10  644.70   28.55
   6  -4 -10  727.00   28.10
   6  -4 -10  699.22   25.47
  -6  -4   9  682.52   31.74
   6  -4  -9  729.50   30.94
   6  -4  -9  771.89   30.69
   6  -4  -9  757.07   28.81
   6  -4  -8  138.63   13.87
  -6  -4   8  133.28   14.40
   6  -4  -8  147.08   13.68
   6  -4  -8  155.18   13.60
   6  -4  -7  213.59   17.60
  -6  -4   7  198.57   17.92
   6  -4  -7  200.23   15.78
   6  -4  -7  214.14   16.32
   6  -4  -6  578.21   29.26
  -6  -4   6  576.26   30.43
   6  -4  -6  572.96   25.89
   6  -4  -6  597.29   27.20
  -6  -4   5  952.54   38.58
   6  -4  -5  997.80   38.10
   6  -4  -5 1035.98   35.38
   6  -4  -4  870.06   34.57
  -6  -4   4  808.10   34.05
  -6  -4   4  838.96   35.95
  -6  -4   4  833.56   33.32
   6  -4  -4  898.11   32.55
   6  -4  -3  117.96   12.46
  -6  -4   3   91.80   11.05
  -6  -4   3  116.10   13.23
  -6  -4   3  112.10   11.95
   6  -4  -3  136.60   12.32
   6  -4  -2  108.87   11.92
  -6  -4   2   97.00   11.30
  -6  -4   2  108.31   12.82
  -6  -4   2  115.90   11.84
   6  -4  -2  121.31   11.53
   6  -4  -1 1309.31   39.49
  -6  -4   1 1353.56   41.58
  -6  -4   1 1408.16   46.45
  -6  -4   1 1403.94   41.36
   6  -4  -1 1479.79   40.57
  -6  -4   0  965.23   34.65
  -6  -4   0 1015.02   39.54
  -6  -4   0 1006.62   34.54
   6  -4   0  972.24   33.37
  -6  -4  -1  283.21   18.49
  -6  -4  -1  297.45   21.48
   6  -4   1  296.78   17.28
  -6  -4  -1  288.69   18.18
  -6  -4  -2  129.79   12.37
  -6  -4  -2  117.88   13.55
  -6  -4  -2  123.79   11.82
  -6  -4  -3  575.05   25.48
  -6  -4  -3  564.10   29.24
  -6  -4  -3  598.73   25.12
  -6  -4  -4  463.47   21.60
  -6  -4  -4  485.97   26.03
  -6  -4  -4  528.04   22.14
  -6  -4  -5   83.81    8.23
  -6  -4  -5   80.62    9.59
  -6  -4  -5   84.79    7.86
  -6  -3  12  342.79   18.01
   6  -3 -12  389.12   18.40
  -6  -3  11  521.37   26.16
   6  -3 -11  536.24   22.94
   6  -3 -11  609.25   26.12
   6  -3 -11  577.80   22.57
   6  -3 -10  120.98   12.52
  -6  -3  10  112.43   12.36
   6  -3 -10  137.68   13.12
   6  -3 -10  119.55   11.92
   6  -3  -9   90.84   11.55
  -6  -3   9   72.88   10.19
   6  -3  -9   84.65   10.54
   6  -3  -9   90.70   10.61
   6  -3  -8 1026.79   38.72
  -6  -3   8  986.98   38.16
   6  -3  -8 1088.01   37.71
   6  -3  -8 1010.02   35.79
   6  -3  -7 1392.00   44.71
  -6  -3   7 1443.29   49.27
  -6  -3   7 1399.11   45.14
   6  -3  -7 1434.81   41.78
   6  -3  -7 1329.99   40.74
   6  -3  -6  389.32   22.62
   6  -3  -6  428.67   24.16
  -6  -3   6  411.63   25.19
  -6  -3   6  398.90   23.30
   6  -3  -6  394.36   20.79
   6  -3  -6  392.32   21.46
   6  -3  -5   58.38    8.54
   6  -3  -5   43.01    7.97
  -6  -3   5   54.72    8.95
  -6  -3   5   47.80    7.80
   6  -3  -5   53.72    7.55
   6  -3  -4  158.09   17.26
   6  -3  -4  203.98   15.72
  -6  -3   4  203.82   16.87
   6  -3  -4  193.84   14.04
   6  -3  -3 1692.57   44.08
  -6  -3   3 1645.10   43.35
  -6  -3   3 1649.33   47.30
  -6  -3   3 1693.23   42.81
   6  -3  -3 1762.03   41.58
   6  -3  -2 1122.11   34.98
  -6  -3   2 1101.46   34.81
  -6  -3   2 1109.30   38.98
   6  -3  -2 1141.69   27.54
  -6  -3   2 1126.79   34.36
   6  -3  -2 1105.12   33.07
   6  -3  -1  180.87   13.59
  -6  -3   1  190.54   14.29
  -6  -3   1  186.53   16.10
  -6  -3   1  186.22   13.79
   6  -3  -1  169.96   13.69
  -6  -3   0  365.37   19.78
  -6  -3   0  410.15   24.17
  -6  -3   0  375.96   22.44
  -6  -3   0  393.82   19.96
   6  -3   0  377.92   18.91
  -6  -3  -1 1500.40   40.61
  -6  -3  -1 1621.81   49.23
  -6  -3  -1 1558.89   47.98
  -6  -3  -1 1628.60   40.99
  -6  -3  -2 1335.37   38.83
  -6  -3  -2 1474.91   48.24
  -6  -3  -2 1391.34   45.85
  -6  -3  -2 1428.36   47.70
  -6  -3  -2 1411.76   38.41
  -6  -3  -3  221.34   15.79
  -6  -3  -3  248.44   20.02
  -6  -3  -3  208.73   18.20
  -6  -3  -3  217.46   18.72
  -6  -3  -3  251.16   15.99
  -6  -3  -4   68.00    8.69
  -6  -3  -4   78.54   11.23
  -6  -3  -4   67.44   10.03
  -6  -3  -4   50.87    9.46
  -6  -3  -4   72.02    8.34
  -6  -3  -5  216.96   14.14
  -6  -3  -5  229.26   18.12
  -6  -3  -5  218.23   17.42
  -6  -3  -6  418.15   22.65
  -6  -3  -6  413.46   21.19
   6  -2 -12   28.68    5.12
   6  -2 -12   27.09    6.48
  -6  -2  12   15.95    4.54
   6  -2 -12   27.32    5.44
   6  -2 -11   91.63   10.52
   6  -2 -11  101.46   13.42
  -6  -2  11   96.65   11.77
   6  -2 -11  109.51   11.98
   6  -2 -11  119.37   11.28
   6  -2 -10  693.22   31.05
   6  -2 -10  607.06   33.37
  -6  -2  10  599.42   31.57
   6  -2 -10  673.78   30.78
   6  -2 -10  671.66   29.07
  -6  -2   9 1241.66   46.11
   6  -2  -9 1277.53   43.07
   6  -2  -9 1315.11   42.74
   6  -2  -9 1262.60   40.60
   6  -2  -8  602.91   29.63
  -6  -2   8  538.17   29.87
   6  -2  -8  593.34   27.66
   6  -2  -8  562.82   26.52
   6  -2  -7   47.06    6.94
   6  -2  -7   44.05    8.11
  -6  -2   7   41.67    7.88
   6  -2  -7   50.04    7.69
   6  -2  -7   58.57    8.55
   6  -2  -6  727.04   28.51
   6  -2  -6  737.04   30.72
  -6  -2   6  690.51   27.61
  -6  -2   6  708.31   31.77
   6  -2  -6  726.02   27.24
   6  -2  -6  695.32   27.45
   6  -2  -5 1752.53   45.22
  -6  -2   5 1620.01   40.26
  -6  -2   5 1580.36   45.76
  -6  -2   5 1628.63   46.55
   6  -2  -5 1639.85   43.89
  -6  -2   5 1547.00   63.00
   6  -2  -5 1563.20   32.29
   6  -2  -5 1576.63   39.00
   6  -2  -4  255.47   20.61
   6  -2  -4  326.74   18.65
  -6  -2   4  315.36   16.77
  -6  -2   4  325.55   19.86
  -6  -2   4  302.56   19.49
  -6  -2   4  265.89   26.41
   6  -2  -4  319.52   13.75
   6  -2  -4  313.70   16.74
   6  -2  -3  345.48   18.47
  -6  -2   3  333.11   17.26
  -6  -2   3  355.21   20.32
  -6  -2   3  362.73   17.57
  -6  -2   3  368.96   21.68
  -6  -2   3  378.78   31.74
   6  -2  -3  376.63   14.24
   6  -2  -3  377.43   17.82
   6  -2  -3  299.39   24.95
   6  -2  -2  131.20   10.78
  -6  -2   2  110.17    9.54
  -6  -2   2  122.24    9.85
  -6  -2   2  125.52   12.04
  -6  -2   2  122.11   12.42
   6  -2  -2   85.62    7.30
  -6  -2   2  156.54   20.75
  -6  -2   2  121.65   10.08
   6  -2  -2  131.75    8.14
   6  -2  -2  133.01   10.20
  -6  -2   1 1295.53   33.06
  -6  -2   1 1411.37   34.70
  -6  -2   1 1363.84   40.90
  -6  -2   1 1371.42   42.60
   6  -2  -1 1435.38   26.07
  -6  -2   1 1366.74   33.72
   6  -2  -1 1392.27   33.14
  -6  -2   0 1904.44   41.80
  -6  -2   0 1780.24   39.54
  -6  -2   0 1790.93   47.87
  -6  -2   0 1795.88   47.60
  -6  -2   0 1824.14   50.43
  -6  -2   0 1829.85   39.20
  -6  -2  -1  176.59   12.73
  -6  -2  -1  215.33   16.99
  -6  -2  -1  213.98   17.24
  -6  -2  -1  201.00   17.48
  -6  -2  -1  193.13   18.19
  -6  -2  -1  191.84   12.69
  -6  -2  -2  278.96   16.60
  -6  -2  -2  296.93   20.99
  -6  -2  -2  289.24   21.41
  -6  -2  -2  294.29   22.28
  -6  -2  -2  283.89   23.80
  -6  -2  -3  976.45   31.84
  -6  -2  -3  945.48   40.14
  -6  -2  -3 1029.18   40.35
  -6  -2  -3 1015.37   42.47
  -6  -2  -3 1029.99   43.33
  -6  -2  -3 1010.64   47.27
  -6  -2  -4  663.52   33.50
  -6  -2  -4  741.67   35.07
  -6  -2  -4  711.35   35.76
  -6  -2  -4  687.89   36.04
  -6  -2  -4  735.48   41.14
  -6  -2  -5   73.00   10.81
  -6  -2  -5  114.61   13.47
  -6  -2  -5  101.27   13.14
  -6  -2  -5   95.51   13.05
  -6  -2  -5  119.56   16.48
  -6  -2  -6   30.07    6.31
  -6  -2  -6   47.02    8.15
  -6  -2  -6   31.96    7.29
  -6  -2  -6   36.74    7.28
  -6  -2  -7   80.94    9.48
  -6  -2  -7   77.54    8.84
  -6  -1  13   98.41    9.25
   6  -1 -13   93.11    8.89
   6  -1 -12  289.45   16.44
   6  -1 -12  245.93   20.43
   6  -1 -12  243.43   15.60
  -6  -1  12  257.73   18.58
   6  -1 -12  255.63   17.47
   6  -1 -11  288.34   19.80
   6  -1 -11  278.96   23.81
   6  -1 -11  288.67   22.34
  -6  -1  11  312.38   22.95
   6  -1 -11  309.74   21.11
   6  -1 -11  322.50   19.64
   6  -1 -10  127.32   16.21
   6  -1 -10  144.38   14.31
   6  -1 -10  127.39   15.61
  -6  -1  10  135.05   15.81
   6  -1 -10  145.34   14.57
   6  -1 -10  146.94   13.76
   6  -1  -9   29.58    6.85
   6  -1  -9   27.98    6.41
   6  -1  -9   21.48    6.92
   6  -1  -9   25.05    7.36
  -6  -1   9   20.52    6.23
   6  -1  -9   25.53    5.80
   6  -1  -8  126.13   14.78
   6  -1  -8  159.15   15.21
   6  -1  -8  130.07   15.45
  -6  -1   8  155.84   16.22
   6  -1  -8  146.60   12.89
   6  -1  -8  147.40   13.92
   6  -1  -8  156.65   13.95
   6  -1  -7  663.53   26.60
   6  -1  -7  701.75   30.72
  -6  -1   7  619.03   31.41
   6  -1  -7  687.63   27.87
   6  -1  -7  636.19   27.09
   6  -1  -6  393.43   20.35
   6  -1  -6  414.75   22.72
  -6  -1   6  400.74   20.87
  -6  -1   6  427.63   24.52
   6  -1  -6  401.03   16.83
   6  -1  -6  407.61   19.48
   6  -1  -6  391.82   19.92
   6  -1  -5   32.65    6.06
  -6  -1   5   23.97    5.32
  -6  -1   5   31.99    6.09
   6  -1  -5   35.25    6.28
  -6  -1   5   25.24    5.83
  -6  -1   5   15.39    7.97
   6  -1  -5   47.65    5.44
   6  -1  -5   44.89    6.35
   6  -1  -4  655.67   26.55
  -6  -1   4  568.47   22.15
  -6  -1   4  580.90   24.73
  -6  -1   4  588.47   27.09
   6  -1  -4  579.56   24.11
   6  -1  -4  566.46   17.50
   6  -1  -4  547.49   21.14
   6  -1  -3 1681.07   43.66
  -6  -1   3 1716.06   37.72
  -6  -1   3 1694.48   41.52
   6  -1  -3 1411.48   24.18
  -6  -1   3 1612.55   39.80
  -6  -1   3 1700.74   45.84
   6  -1  -3 1667.93   39.08
  -6  -1   3 1318.49   66.09
   6  -1  -3 1766.94   29.01
   6  -1  -3 1725.80   35.27
  -6  -1   2  195.75   12.48
  -6  -1   2  186.28   13.67
   6  -1  -2  180.98    9.48
  -6  -1   2  180.42   13.68
  -6  -1   2  179.55   18.10
  -6  -1   2  175.06   14.75
  -6  -1   2  138.84   21.02
   6  -1  -2  188.77    8.91
  -6  -1   1  208.55   12.84
  -6  -1   1  196.46   14.48
  -6  -1   1  202.05   14.49
   6  -1  -1  219.24   11.50
  -6  -1   1  207.89   15.40
  -6  -1   1  204.70   22.10
  -6  -1   1  210.47   16.40
  -6  -1   1  188.48   23.76
   6  -1  -1  259.04   18.83
  -6  -1   0  109.25    9.89
  -6  -1   0   96.14   10.83
  -6  -1   0  109.81   11.05
   6  -1   0  110.28    8.72
  -6  -1   0  111.28   11.87
  -6  -1   0  102.02   16.45
  -6  -1   0  106.85   12.02
  -6  -1   0  133.40   18.90
  -6  -1   0   81.78   11.58
   6  -1   0  115.88   13.19
  -6  -1  -1  855.22   29.19
  -6  -1  -1  839.82   34.65
   6  -1   1  802.49   25.85
  -6  -1  -1  839.02   31.98
  -6  -1  -1  858.75   34.93
  -6  -1  -1  837.12   49.07
  -6  -1  -1  854.72   35.94
  -6  -1  -1  806.02   39.32
   6  -1   1  813.37   32.99
  -6  -1  -2  521.11   29.15
  -6  -1  -2  536.01   26.85
  -6  -1  -2  553.43   29.87
  -6  -1  -2  567.91   44.14
  -6  -1  -2  547.07   30.11
  -6  -1  -2  560.12   35.07
  -6  -1  -3  582.00   32.67
  -6  -1  -3  603.11   29.87
  -6  -1  -3  623.02   33.45
  -6  -1  -3  657.07   47.44
  -6  -1  -3  604.57   33.41
  -6  -1  -3  583.21   37.81
  -6  -1  -4   23.97    6.69
  -6  -1  -4   31.83    7.02
  -6  -1  -4   28.50    7.68
  -6  -1  -4   23.45    6.64
  -6  -1  -4   40.61   10.54
  -6  -1  -5  425.46   28.11
  -6  -1  -5  474.59   27.96
  -6  -1  -5  464.17   28.96
  -6  -1  -5  438.92   29.40
  -6  -1  -5  466.74   33.53
  -6  -1  -6  361.91   24.02
  -6  -1  -6  404.26   24.49
  -6  -1  -6  386.22   24.57
  -6  -1  -6  357.20   25.18
  -6  -1  -6  411.30   28.99
  -6  -1  -7  143.74   12.92
  -6  -1  -7  177.22   14.40
  -6  -1  -7  188.91   14.81
  -6  -1  -7  146.34   14.14
   6   0 -13  387.59   22.34
  -6   0  13  433.42   21.04
   6   0 -13  373.39   18.73
   6   0 -12  141.20   12.20
   6   0 -12  105.93   10.69
   6   0 -12   89.93   10.71
   6   0 -12  135.40   15.78
   6   0 -12  123.33   14.03
  -6   0  12  152.98   14.47
   6   0 -12  136.97   13.33
   6   0 -11  347.03   22.27
   6   0 -11  340.70   27.07
   6   0 -11  301.35   21.73
  -6   0  11  321.90   21.55
   6   0 -11  351.31   27.21
  -6   0  11  393.15   25.86
   6   0 -11  353.45   23.24
   6   0 -11  368.66   22.10
   6   0 -10  696.65   39.55
   6   0 -10  719.97   34.14
  -6   0  10  696.32   33.66
   6   0 -10  780.12   34.86
   6   0 -10  768.47   41.51
  -6   0  10  855.42   40.11
   6   0 -10  801.64   35.66
   6   0 -10  848.20   34.50
   6   0  -9 2888.13   56.93
   6   0  -9 2712.89   77.41
   6   0  -9 2785.77   66.40
  -6   0   9 2903.15   69.10
  -6   0   9 2855.01   65.88
   6   0  -9 2995.70   68.89
   6   0  -9 2755.84   78.15
  -6   0   9 3006.14   74.51
   6   0  -9 3083.79   68.12
   6   0  -9 3007.46   64.65
   6   0  -8    4.11    2.67
   6   0  -8    4.33    2.76
   6   0  -8    4.55    2.60
   6   0  -8   13.24    4.51
  -6   0   8    5.14    3.41
   6   0  -8    3.50    3.49
   6   0  -8    2.47    2.96
  -6   0   8    5.14    3.83
  -6   0   8    3.72    2.46
   6   0  -8    4.23    2.67
   6   0  -7   11.26    4.13
   6   0  -7   11.94    3.78
   6   0  -7    7.47    3.34
  -6   0   7    8.97    3.72
   6   0  -7    7.40    3.37
   6   0  -7    6.34    3.50
  -6   0   7   10.80    4.41
  -6   0   7   11.54    4.15
  -6   0   7    4.57    7.22
   6   0  -7   12.47    4.11
   6   0  -6 1183.95   35.49
   6   0  -6 1259.58   39.82
   6   0  -6 1067.14   40.85
  -6   0   6 1334.00   36.96
  -6   0   6 1199.54   39.36
  -6   0   6 1154.53   38.52
   6   0  -6 1125.28   42.97
  -6   0   6 1193.61   40.91
   6   0  -6 1268.65   29.68
   6   0  -6 1236.70   34.78
   6   0  -6 1216.29   35.73
   6   0  -5 1019.44   32.18
   6   0  -5 1041.51   34.40
   6   0  -5  902.26   34.89
  -6   0   5 1056.08   31.09
  -6   0   5 1031.75   35.15
  -6   0   5  955.01   33.96
  -6   0   5  937.81   34.53
  -6   0   5  985.94   31.83
   6   0  -5 1041.20   24.99
   6   0  -5 1015.22   30.62
   6   0  -4  598.12   24.00
   6   0  -4  527.27   23.04
  -6   0   4  468.61   19.52
  -6   0   4  520.98   24.33
  -6   0   4  522.38   21.89
  -6   0   4  415.63   22.36
   6   0  -4  484.45   22.00
  -6   0   4  518.31   24.22
   6   0  -4  546.03   16.75
   6   0  -4  493.36   20.18
   6   0  -3  339.27   17.93
  -6   0   3  205.33   12.67
  -6   0   3  257.38   16.96
   6   0  -3  243.44   15.00
  -6   0   3  261.87   14.94
  -6   0   3  262.06   16.99
   6   0  -3  292.16   12.20
  -6   0   3  198.94   15.30
  -6   0   3  176.75   27.20
   6   0  -3  269.27   10.98
   6   0  -2  908.69   29.82
  -6   0   2  579.16   21.15
  -6   0   2  730.96   28.88
  -6   0   2  680.44   24.52
   6   0  -2  922.32   22.32
  -6   0   2  676.81   27.63
  -6   0   2  676.61   34.75
  -6   0   2  680.06   28.81
  -6   0   2  459.64   42.28
   6   0  -2  679.57   16.00
   6   0  -1 1425.90   37.37
  -6   0   1 1028.20   28.15
  -6   0   1 1195.06   38.01
  -6   0   1 1170.44   32.86
   6   0  -1 1305.33   28.01
  -6   0   1 1180.19   37.10
  -6   0   1 1122.11   49.08
  -6   0   1 1209.71   39.24
  -6   0   1  917.77   57.52
  -6   0   1 1036.49   39.69
  -6   0   1 1091.40   42.00
   6   0   0 1342.28   36.30
  -6   0   0 1148.48   31.31
  -6   0   0 1187.74   39.72
   6   0   0 1285.14   30.37
  -6   0   0 1217.67   34.81
  -6   0   0 1164.35   38.25
  -6   0   0 1092.68   51.91
  -6   0   0 1211.19   40.61
  -6   0   0 1023.57   56.38
  -6   0   0 1093.89   44.01
  -6   0   0 1081.99   44.69
  -6   0  -1  193.21   13.70
  -6   0  -1  195.91   17.04
   6   0   1  219.89   13.60
  -6   0  -1  187.86   14.36
  -6   0  -1  206.65   17.02
  -6   0  -1  179.45   22.23
  -6   0  -1  210.97   17.61
  -6   0  -1  206.76   23.73
  -6   0  -1  200.46   19.70
  -6   0  -1  195.30   20.02
  -6   0  -2  711.71   34.90
  -6   0  -2  696.99   29.22
  -6   0  -2  705.88   33.58
  -6   0  -2  728.38   48.62
  -6   0  -2  709.77   34.33
  -6   0  -2  717.52   41.07
  -6   0  -2  630.33   35.97
  -6   0  -3  816.71   39.19
  -6   0  -3  835.07   34.27
  -6   0  -3  870.42   39.08
  -6   0  -3  913.50   56.55
  -6   0  -3  846.41   39.48
  -6   0  -3  868.20   47.78
  -6   0  -4  133.95   16.59
  -6   0  -4  133.84   14.24
  -6   0  -4  139.51   16.04
  -6   0  -4  155.14   24.39
  -6   0  -4  127.36   16.07
  -6   0  -4  139.10   19.94
  -6   0  -5    3.14    3.63
  -6   0  -5    6.43    3.07
  -6   0  -5    3.56    4.30
  -6   0  -5    4.97    3.46
  -6   0  -5    2.75    3.39
  -6   0  -5    3.87    2.14
  -6   0  -6    2.08    2.66
   6   0   6    6.71    4.39
  -6   0  -6    2.22    2.53
  -6   0  -6   -0.02    1.68
  -6   0  -6    0.75    2.64
  -6   0  -6   -0.89    2.15
  -6   0  -7  103.31   11.64
  -6   0  -7  122.71   11.90
  -6   0  -7  132.57   12.37
  -6   0  -7  102.75   12.23
  -6   0  -7  128.62   14.63
   6   1 -13   99.01   11.36
  -6   1  13  110.00   10.00
   6   1 -13   96.48    9.25
   6   1 -12  274.58   17.35
   6   1 -12  246.76   16.43
   6   1 -12  228.57   17.32
   6   1 -12  241.93   21.16
  -6   1  12  234.04   17.29
   6   1 -12  276.30   21.94
  -6   1  12  288.59   19.31
   6   1 -12  237.94   17.61
   6   1 -11  292.38   19.72
   6   1 -11  269.47   19.82
   6   1 -11  233.23   19.41
   6   1 -11  243.79   23.30
  -6   1  11  240.32   19.71
  -6   1  11  266.34   19.83
   6   1 -11  275.71   24.39
  -6   1  11  275.21   21.82
   6   1 -11  259.18   20.33
   6   1 -10  121.47   11.73
   6   1 -10   79.82   11.68
   6   1 -10  116.65   16.81
  -6   1  10   97.34   12.98
   6   1 -10  110.55   13.03
  -6   1  10  106.13   13.40
   6   1 -10  100.74   15.42
  -6   1  10  129.97   15.48
   6   1 -10  111.96   13.62
   6   1 -10  143.77   14.13
   6   1  -9   25.48    6.59
   6   1  -9   16.10    4.87
   6   1  -9   18.68    5.13
   6   1  -9   25.52    6.73
  -6   1   9   19.54    6.05
   6   1  -9   14.51    6.12
   6   1  -9   20.79    6.73
  -6   1   9   24.69    6.98
  -6   1   9   15.77    5.23
   6   1  -9   21.33    5.77
   6   1  -8  124.07   12.40
   6   1  -8  125.61   14.37
   6   1  -8  115.49   13.52
   6   1  -8  105.54   15.13
  -6   1   8  123.07   14.47
  -6   1   8  112.92   13.59
   6   1  -8  129.45   16.88
  -6   1   8  118.15   14.40
   6   1  -8  118.16   13.37
   6   1  -8  125.92   13.09
   6   1  -7  634.36   27.77
   6   1  -7  580.24   28.65
   6   1  -7  518.07   32.10
  -6   1   7  607.46   31.27
  -6   1   7  590.01   30.51
   6   1  -7  674.86   31.70
   6   1  -7  560.24   33.99
  -6   1   7  603.46   30.41
   6   1  -7  571.97   27.24
   6   1  -7  627.93   28.11
   6   1  -6  395.48   21.20
  -6   1   6  384.99   23.86
   6   1  -6  365.35   21.34
   6   1  -6  378.36   22.85
   6   1  -6  335.80   24.47
  -6   1   6  422.35   20.77
  -6   1   6  375.96   23.49
   6   1  -6  367.43   26.14
  -6   1   6  387.88   23.19
   6   1  -6  374.49   20.39
   6   1  -6  408.44   17.56
   6   1  -6  381.49   20.58
   6   1  -5   21.54    5.17
   6   1  -5   27.93    5.43
   6   1  -5   24.37    4.37
   6   1  -5   23.85    4.74
  -6   1   5   26.06    5.10
  -6   1   5   22.64    5.67
   6   1  -5   19.82    5.70
  -6   1   5   28.30    6.10
  -6   1   5   23.22    5.77
  -6   1   5   15.12   11.80
   6   1  -5   33.65    4.57
   6   1  -4  567.58   24.15
   6   1  -4  568.34   25.05
   6   1  -4  542.62   23.57
  -6   1   4  597.86   22.06
   6   1  -4  530.73   26.94
  -6   1   4  557.82   26.76
  -6   1   4  566.39   27.07
  -6   1   4  548.36   25.89
   6   1  -4  580.89   17.97
   6   1  -4  513.98   21.24
   6   1  -3 1546.11   39.20
   6   1  -3 1521.32   41.20
  -6   1   3 1653.52   35.99
  -6   1   3 1589.66   44.85
  -6   1   3 1526.06   43.67
   6   1  -3 1540.82   42.73
   6   1  -3 1743.06   29.89
  -6   1   3 1567.04   43.31
   6   1  -3 1756.45   41.00
  -6   1   3 1507.39   45.31
   6   1  -3 1715.25   27.92
   6   1  -2  183.44   13.22
   6   1  -2  187.31   15.05
  -6   1   2  189.54   11.87
  -6   1   2  171.84   14.76
  -6   1   2  176.61   14.74
  -6   1   2  169.57   16.03
  -6   1   2  131.05   16.18
  -6   1   2  174.55   14.45
  -6   1   2  168.17   15.43
  -6   1   2  128.87   24.59
   6   1  -1  167.12   12.69
  -6   1   1  174.90   11.68
  -6   1   1  155.41   14.28
  -6   1   1  183.99   17.06
  -6   1   1  171.46   14.61
  -6   1   1  134.87   17.69
  -6   1   1  162.49   14.43
  -6   1   1  165.87   16.49
  -6   1   0  138.97   10.93
  -6   1   0  117.07   12.69
  -6   1   0  117.04   14.00
  -6   1   0  122.53   12.63
  -6   1   0   93.32   15.64
  -6   1   0  139.76   13.76
  -6   1   0  116.83   14.62
  -6   1   0   82.90   17.48
  -6   1  -1  828.97   28.50
  -6   1  -1  826.16   36.00
  -6   1  -1  752.31   38.10
  -6   1  -1  769.20   28.05
  -6   1  -1  796.07   33.75
  -6   1  -1  725.61   46.36
  -6   1  -1  766.60   33.74
  -6   1  -1  679.61   45.07
  -6   1  -1  726.76   39.48
  -6   1  -2  483.36   29.32
  -6   1  -2  473.43   23.85
  -6   1  -2  524.36   33.21
  -6   1  -2  498.74   27.82
  -6   1  -2  455.44   38.77
  -6   1  -2  491.41   28.37
  -6   1  -2  459.62   33.98
   6   1   3  508.94   30.74
  -6   1  -3  598.02   33.85
  -6   1  -3  640.81   29.52
  -6   1  -3  612.71   32.28
  -6   1  -3  466.97   39.63
   6   1   3  683.88   38.93
  -6   1  -3  672.37   38.32
  -6   1  -3  587.98   32.40
  -6   1  -3  596.77   40.24
  -6   1  -4   20.63    6.47
  -6   1  -4   29.60   10.59
  -6   1  -4   17.79    5.35
  -6   1  -4   20.81    5.92
  -6   1  -4   19.47    6.46
  -6   1  -4   25.99    6.70
  -6   1  -4   32.74    9.43
   6   1   4   16.81    5.51
  -6   1  -5  424.85   29.07
  -6   1  -5  479.02   26.49
  -6   1  -5  497.78   41.14
  -6   1  -5  472.00   28.01
  -6   1  -5  418.76   28.30
  -6   1  -5  480.66   35.72
  -6   1  -6  354.73   24.41
   6   1   6  288.37   21.20
  -6   1  -6  376.37   22.10
  -6   1  -6  434.66   34.66
  -6   1  -6  378.75   23.21
  -6   1  -6  358.89   24.66
  -6   1  -6  418.16   30.21
  -6   1  -7  143.20   13.59
   6   1   7  133.81   10.79
  -6   1  -7  161.12   12.74
  -6   1  -7  140.24   13.53
  -6   1  -7  168.81   16.40
   6   2 -12   15.23    4.35
   6   2 -12   17.93    4.39
   6   2 -12   10.04    3.69
  -6   2  12   15.33    4.39
   6   2 -12   18.56    5.67
   6   2 -12   23.82    6.22
  -6   2  12   24.45    5.44
  -6   2  12   17.96    4.66
   6   2 -12   18.84    4.62
   6   2 -11  126.91   13.41
   6   2 -11  103.86   12.89
  -6   2  11  122.12   14.21
   6   2 -11  123.04   15.96
  -6   2  11  131.66   14.32
   6   2 -11  135.91   16.91
  -6   2  11  130.65   14.03
   6   2 -11  118.59   13.31
   6   2 -11  120.81   13.61
   6   2 -10  731.66   33.41
   6   2 -10  706.13   34.74
   6   2 -10  678.34   28.22
   6   2 -10  595.28   33.00
  -6   2  10  637.64   35.31
   6   2 -10  589.11   38.23
  -6   2  10  640.45   34.32
   6   2 -10  651.59   39.97
  -6   2  10  661.27   33.00
   6   2 -10  650.46   33.47
   6   2  -9 1289.73   44.86
   6   2  -9 1236.45   47.56
   6   2  -9 1138.93   46.17
   6   2  -9 1111.94   52.96
  -6   2   9 1176.45   48.46
  -6   2   9 1170.26   47.67
   6   2  -9 1186.34   54.74
  -6   2   9 1206.91   44.31
   6   2  -9 1173.15   39.08
   6   2  -9 1070.09   42.71
   6   2  -8  572.47   29.06
   6   2  -8  556.32   27.56
   6   2  -8  549.79   31.26
   6   2  -8  498.22   29.85
  -6   2   8  508.17   31.14
   6   2  -8  492.34   34.72
  -6   2   8  523.06   31.69
   6   2  -8  517.98   35.42
  -6   2   8  521.13   29.02
   6   2  -8  500.53   28.30
   6   2  -7   47.00    8.10
   6   2  -7   51.00    8.87
   6   2  -7   30.44    7.13
  -6   2   7   40.92    8.34
   6   2  -7   37.92    8.99
   6   2  -7   35.76    9.73
  -6   2   7   42.91    7.86
  -6   2   7   43.37    8.98
  -6   2   7   32.82   14.65
   6   2  -7   35.91    7.47
   6   2  -7   47.42    7.70
   6   2  -6  695.93   29.45
   6   2  -6  652.41   31.30
   6   2  -6  608.56   30.14
  -6   2   6  678.11   26.18
  -6   2   6  624.44   32.30
   6   2  -6  572.59   34.17
  -6   2   6  621.56   32.04
   6   2  -6  609.29   25.63
  -6   2   6  635.56   29.89
   6   2  -6  621.46   28.46
   6   2  -6  628.29   27.62
   6   2  -5 1476.79   42.53
   6   2  -5 1343.62   42.84
   6   2  -5 1374.55   42.68
  -6   2   5 1432.38   35.81
   6   2  -5 1332.59   49.37
  -6   2   5 1330.97   45.45
   6   2  -5 1393.41   38.22
  -6   2   5 1400.20   42.53
  -6   2   5 1337.53   45.89
  -6   2   5 1391.55   42.03
   6   2  -5 1338.67   32.80
   6   2  -5 1325.73   38.08
   6   2  -4  333.94   19.93
   6   2  -4  311.53   19.19
  -6   2   4  304.23   15.88
  -6   2   4  307.33   21.22
   6   2  -4  317.25   18.49
  -6   2   4  294.93   20.64
   6   2  -4  313.32   22.61
   6   2  -4  310.54   19.23
  -6   2   4  308.51   19.37
  -6   2   4  297.72   19.70
   6   2  -4  332.46   14.88
   6   2  -4  325.69   17.15
   6   2  -3  337.20   19.34
   6   2  -3  376.54   20.02
   6   2  -3  378.99   20.70
  -6   2   3  345.08   16.33
  -6   2   3  322.56   21.58
  -6   2   3  335.06   21.54
  -6   2   3  322.19   21.27
   6   2  -3  380.29   23.74
  -6   2   3  330.63   20.06
  -6   2   3  340.75   21.99
   6   2  -2   97.86   10.45
  -6   2   2   95.60   12.03
   6   2  -2  102.59   11.24
  -6   2   2  109.07    9.09
  -6   2   2  120.16   12.95
  -6   2   2   99.17   11.62
   6   2  -2  119.95    9.33
   6   2  -2  118.72   10.28
  -6   2   2   94.50   13.96
  -6   2   2  104.06   11.22
  -6   2   2  110.51   13.16
  -6   2   2   57.76   15.68
   6   2  -1 1196.83   35.21
   6   2  -1 1255.52   40.39
  -6   2   1 1104.89   50.14
  -6   2   1 1231.19   45.67
  -6   2   1 1337.60   32.51
  -6   2   1 1339.20   44.36
   6   2  -1 1438.65   34.73
  -6   2   1 1230.76   40.72
   6   2  -1 1496.44   39.69
  -6   2   1 1120.19   51.67
  -6   2   1 1294.91   40.33
  -6   2   1  876.23   67.86
  -6   2   1 1273.00   46.92
  -6   2   0 1652.44   55.77
   6   2   0 1596.88   48.07
  -6   2   0 1655.03   58.88
  -6   2   0 1846.98   39.86
  -6   2   0 1746.68   52.33
   6   2   0 1933.22   44.72
  -6   2   0 1713.68   48.70
   6   2   0 1790.81   47.57
  -6   2   0 1569.83   64.33
  -6   2   0 1751.19   48.27
  -6   2   0 1690.93   58.00
  -6   2  -1  168.93   18.69
   6   2   1  152.50   15.64
  -6   2  -1  160.40   18.42
  -6   2  -1  178.73   17.13
   6   2   1  138.42   15.02
  -6   2  -1  175.71   15.78
  -6   2  -1  156.29   22.25
   6   2   1  213.64   23.41
  -6   2  -1  169.64   15.63
  -6   2  -1  156.81   19.05
  -6   2  -2  239.44   23.20
   6   2   2  244.50   19.04
  -6   2  -2  235.80   22.23
  -6   2  -2  258.84   21.76
   6   2   2  238.73   19.75
  -6   2  -2  234.51   18.95
  -6   2  -2  239.02   28.06
   6   2   2  276.57   26.90
  -6   2  -2  246.45   19.70
  -6   2  -2  231.77   24.17
   6   2   3 1108.36   39.32
  -6   2  -3  968.11   46.30
  -6   2  -3  972.60   43.42
   6   2   3 1067.80   42.93
  -6   2  -3  985.32   40.02
  -6   2  -3  957.75   57.88
   6   2   3 1086.51   54.13
  -6   2  -3  980.07   40.93
  -6   2  -3  940.90   51.77
  -6   2  -4  605.68   34.47
   6   2   4  680.74   33.87
  -6   2  -4  717.52   38.98
  -6   2  -4  631.23   31.58
  -6   2  -4  697.84   49.45
  -6   2  -4  625.59   33.24
  -6   2  -5  105.39   13.92
   6   2   5   93.24   12.52
  -6   2  -5  105.52   12.42
  -6   2  -5  118.64   19.61
  -6   2  -5   89.61   12.12
  -6   2  -5  135.97   16.04
  -6   2  -5   98.45   15.59
  -6   2  -6   35.91    7.36
   6   2   6   28.99    5.92
  -6   2  -6   45.70   10.92
  -6   2  -6   30.32    6.48
  -6   2  -6   39.70    6.79
   6   2   6   37.53    7.12
  -6   2  -6   35.61    8.20
  -6   2  -7   63.92    8.39
   6   2   7   59.57    6.39
  -6   2  -7   58.10    7.47
   6   2   7   78.73    8.78
  -6   2  -7   76.96   10.48
   6   3 -12  324.99   18.24
  -6   3  12  395.17   20.98
  -6   3  12  397.99   20.21
   6   3 -12  376.14   22.13
   6   3 -12  387.27   18.83
   6   3 -12  336.48   18.41
   6   3 -11  597.77   27.43
  -6   3  11  548.20   29.02
   6   3 -11  516.92   26.90
   6   3 -11  515.72   21.71
   6   3 -11  512.65   27.42
   6   3 -11  570.94   32.47
  -6   3  11  586.42   29.52
   6   3 -11  519.65   26.50
   6   3 -10  129.47   13.80
   6   3 -10  129.74   15.02
   6   3 -10  130.53   12.69
   6   3 -10  105.24   13.55
  -6   3  10  117.33   14.64
   6   3 -10  128.02   17.26
  -6   3  10  122.92   14.41
  -6   3  10  120.78   12.85
   6   3 -10  105.19   13.02
   6   3  -9   83.06   11.51
   6   3  -9   99.52   11.60
   6   3  -9   95.74   13.25
   6   3  -9   78.42   11.97
  -6   3   9   83.31   12.88
   6   3  -9   70.15   13.30
  -6   3   9   96.58   13.61
  -6   3   9   94.71   11.09
  -6   3   9   44.38   18.70
   6   3  -9   76.87   11.49
   6   3  -8 1056.42   40.86
   6   3  -8 1018.53   38.58
   6   3  -8 1022.36   44.93
   6   3  -8  919.31   42.27
  -6   3   8 1012.37   45.70
   6   3  -8  914.14   48.16
  -6   3   8 1033.91   45.84
  -6   3   8 1030.41   38.11
  -6   3   8  786.45   78.23
   6   3  -8  921.66   39.40
   6   3  -7 1236.90   43.06
   6   3  -7 1216.19   47.87
   6   3  -7 1199.93   47.28
  -6   3   7 1310.69   50.90
   6   3  -7 1205.64   54.25
  -6   3   7 1218.16   48.49
  -6   3   7 1349.39   43.20
   6   3  -7 1374.68   45.23
   6   3  -7 1265.49   38.49
  -6   3   7 1107.85   96.12
  -6   3   7 1346.75   45.49
   6   3  -7 1192.39   44.08
   6   3  -6  341.71   21.61
   6   3  -6  394.76   23.67
   6   3  -6  337.54   24.68
   6   3  -6  367.60   25.11
  -6   3   6  353.39   25.38
   6   3  -6  351.60   28.35
   6   3  -6  350.62   20.79
  -6   3   6  358.19   21.56
  -6   3   6  354.43   25.61
  -6   3   6  299.17   49.49
  -6   3   6  366.77   23.61
   6   3  -6  357.96   22.66
   6   3  -5   52.03    8.27
   6   3  -5   45.42    8.70
   6   3  -5   40.79    6.94
   6   3  -5   33.35    7.52
  -6   3   5   40.59    8.37
   6   3  -5   49.43    8.04
   6   3  -5   39.35    8.95
  -6   3   5   42.81    8.64
   6   3  -5   29.78    8.17
  -6   3   5   31.95   17.84
  -6   3   5   46.27    8.75
   6   3  -5   48.39    8.00
   6   3  -4  222.80   16.67
   6   3  -4  219.64   17.81
  -6   3   4  196.37   17.93
  -6   3   4  198.64   17.75
   6   3  -4  233.66   21.32
   6   3  -4  207.78   16.27
   6   3  -4  226.42   22.56
  -6   3   4  201.67   17.91
  -6   3   3 1435.48   46.72
   6   3  -3 1374.74   41.65
   6   3  -3 1661.02   47.54
  -6   3   3 1488.02   49.06
   6   3  -3 1608.00   45.53
  -6   3   3 1460.31   47.16
  -6   3   3 1349.01   51.52
   6   3  -3 1632.79   62.67
  -6   3   3 1256.61   95.46
  -6   3   3 1535.72   51.32
  -6   3   2  937.41   46.51
  -6   3   2  919.75   38.39
   6   3  -2 1018.89   37.14
   6   3  -2  894.88   33.15
  -6   3   2  914.59   36.50
   6   3  -2  737.88   28.18
   6   3  -2  995.82   31.59
  -6   3   2  839.94   42.80
   6   3  -2 1111.72   53.10
  -6   3   2  764.58   70.51
  -6   3   2  966.51   41.74
  -6   3   2  940.86   39.97
  -6   3   1  159.54   19.62
   6   3  -1  167.93   15.12
  -6   3   1  158.07   15.98
  -6   3   1  137.25   14.05
   6   3  -1  165.82   13.50
  -6   3   1  132.28   18.13
   6   3  -1  185.55   22.01
  -6   3   1  148.87   13.47
  -6   3   1  156.67   17.60
  -6   3   1   99.42   25.47
  -6   3   1  141.81   16.54
  -6   3   0  337.33   29.29
   6   3   0  427.88   24.57
  -6   3   0  381.16   24.86
  -6   3   0  404.33   23.81
   6   3   0  422.41   22.99
  -6   3   0  340.88   31.70
   6   3   0  442.86   35.29
  -6   3   0  361.95   21.63
  -6   3   0  276.97   35.90
  -6   3   0  379.79   28.96
  -6   3   0  384.26   28.15
  -6   3  -1 1465.54   60.65
   6   3   1 1636.73   48.64
  -6   3  -1 1499.53   51.09
   6   3   1 1606.18   47.20
  -6   3  -1 1560.86   47.56
  -6   3  -1 1415.88   67.57
  -6   3  -1 1531.29   46.40
  -6   3  -1 1504.91   60.20
  -6   3  -1 1585.04   59.02
  -6   3  -2 1342.54   55.35
  -6   3  -2 1372.38   57.26
   6   3   2 1531.65   46.10
  -6   3  -2 1294.83   48.73
   6   3   2 1365.18   45.70
  -6   3  -2 1306.39   43.47
  -6   3  -2 1288.06   66.53
   6   3   2 1500.50   68.05
  -6   3  -2 1378.81   45.65
  -6   3  -2 1250.77   57.71
  -6   3  -3  230.80   22.49
  -6   3  -3  229.13   23.09
  -6   3  -3  209.49   19.78
   6   3   3  233.70   16.85
   6   3   3  248.30   19.49
  -6   3  -3  228.44   18.13
  -6   3  -3  209.56   27.35
   6   3   3  245.49   27.81
  -6   3  -3  217.70   18.37
   6   3   3  215.74   17.62
  -6   3  -3  198.11   23.52
  -6   3  -4   59.88   10.73
   6   3   4   59.08    9.73
  -6   3  -4   60.67    8.98
  -6   3  -4   56.35   13.76
  -6   3  -4   51.91    9.05
   6   3   4   55.28    9.02
   6   3   4   53.00   13.25
  -6   3  -4   64.62   13.48
  -6   3  -4   67.54   11.35
  -6   3  -5  200.54   17.59
   6   3   5  203.07   16.37
  -6   3  -5  214.66   25.00
  -6   3  -5  206.63   15.15
  -6   3  -5  261.64   21.64
  -6   3  -5  196.81   16.02
   6   3   5  212.80   16.64
  -6   3  -5  224.96   22.02
  -6   3  -6  318.43   19.19
   6   3   6  349.55   18.29
  -6   3  -6  376.99   27.65
   6   3   6  369.84   19.49
  -6   3  -6  366.36   24.45
   6   4 -11   28.74    6.50
   6   4 -11   34.53    6.17
   6   4 -11   31.65    5.96
  -6   4  11   47.50    7.41
  -6   4  11   44.28    7.22
   6   4 -11   50.63    8.17
   6   4 -11   42.99    6.73
   6   4 -10  591.58   27.80
   6   4 -10  559.02   29.79
   6   4 -10  664.09   27.19
   6   4 -10  563.87   29.22
  -6   4  10  687.95   32.59
  -6   4  10  712.43   32.97
   6   4 -10  654.64   34.33
   6   4 -10  555.37   27.31
   6   4  -9  719.02   32.96
   6   4  -9  778.54   32.52
   6   4  -9  639.77   33.44
  -6   4   9  741.99   36.75
  -6   4   9  776.54   37.17
   6   4  -9  707.94   38.90
   6   4  -9  691.26   36.29
  -6   4   9  595.20   61.73
  -6   4   9  751.26   31.87
   6   4  -9  621.87   31.30
   6   4  -8  113.49   13.38
   6   4  -8  136.26   14.01
   6   4  -8  116.34   15.61
   6   4  -8  105.99   14.28
  -6   4   8  130.03   15.84
  -6   4   8  131.98   15.80
   6   4  -8  152.31   18.94
  -6   4   8  118.68   13.83
  -6   4   8   83.56   28.10
   6   4  -8  116.30   13.62
   6   4  -7  138.28   17.03
   6   4  -7  143.93   15.16
   6   4  -7  187.92   16.76
   6   4  -7  147.54   17.01
  -6   4   7  162.51   18.00
  -6   4   7  170.63   18.12
   6   4  -7  160.25   19.97
   6   4  -7  184.26   15.46
  -6   4   7  166.36   16.87
  -6   4   7  121.28   34.14
   6   4  -7  153.06   15.88
   6   4  -6  431.01   29.61
   6   4  -6  471.15   30.29
  -6   4   6  491.04   30.52
  -6   4   6  468.13   29.47
   6   4  -6  516.10   28.03
   6   4  -6  492.15   34.49
   6   4  -6  471.15   26.49
   6   4  -6  485.53   25.81
  -6   4   6  398.56   60.66
  -6   4   6  540.01   31.19
   6   4  -6  460.34   26.61
   6   4  -5  890.57   35.10
   6   4  -5  864.97   41.73
  -6   4   5  835.66   39.49
  -6   4   5  848.86   38.67
   6   4  -5  999.26   47.94
   6   4  -5  860.06   35.76
   6   4  -5  876.04   35.32
  -6   4   5  861.95   39.99
   6   4  -5  864.37   35.15
   6   4  -4  672.23   30.78
   6   4  -4  778.85   38.36
  -6   4   4  686.19   34.96
  -6   4   4  708.51   34.47
   6   4  -4  762.54   33.77
   6   4  -4  689.64   41.27
  -6   4   4  604.96   71.73
  -6   4   4  729.34   37.43
   6   4  -3   94.39   11.20
   6   4  -3   87.50   12.42
  -6   4   3   91.32   14.99
  -6   4   3   89.71   12.25
  -6   4   3   97.59   12.15
   6   4  -3   80.83    9.51
   6   4  -3  100.36   12.08
  -6   4   3   73.73   12.58
   6   4  -3   93.28   15.85
  -6   4   3  111.31   14.86
  -6   4   3   52.52   20.33
  -6   4   3   89.32   12.08
   6   4  -2   84.35    9.84
  -6   4   2   76.53   13.99
  -6   4   2   65.63   10.43
  -6   4   2   73.97   10.45
   6   4  -2   73.56   10.45
   6   4  -2   69.62    9.13
  -6   4   2   47.19   10.73
  -6   4   2   84.42   12.79
   6   4  -2   65.66   14.46
  -6   4   2   59.22   19.80
  -6   4   2   71.06   12.00
  -6   4   1 1179.02   56.74
  -6   4   1 1210.09   45.06
   6   4  -1 1139.18   42.16
  -6   4   1 1136.31   40.05
   6   4  -1 1160.54   38.80
  -6   4   1 1023.47   53.69
   6   4  -1 1288.93   64.32
  -6   4   1 1221.15   51.79
  -6   4   1 1153.99   48.40
  -6   4   0  877.62   49.57
  -6   4   0  859.11   37.95
   6   4   0  853.57   36.11
  -6   4   0  869.81   34.75
   6   4   0  896.77   34.98
  -6   4   0  789.86   49.01
   6   4   0  937.09   56.00
  -6   4   0  882.43   45.87
  -6   4   0  874.43   43.58
  -6   4  -1  258.86   26.43
  -6   4  -1  259.58   20.91
   6   4   1  278.80   20.34
   6   4   1  278.97   19.96
  -6   4  -1  267.65   18.89
  -6   4  -1  240.91   28.06
   6   4   1  331.18   33.82
  -6   4  -1  240.48   24.00
  -6   4  -1  274.82   24.86
  -6   4  -2  110.12   16.12
  -6   4  -2   94.62   12.66
   6   4   2   96.97   11.96
   6   4   2   98.92   11.56
  -6   4  -2  106.58   11.63
  -6   4  -2   79.95   15.54
   6   4   2   91.09   17.95
  -6   4  -2   89.21   15.90
  -6   4  -2   99.55   14.54
  -6   4  -3  501.99   32.95
  -6   4  -3  482.78   27.75
   6   4   3  512.23   27.18
  -6   4  -3  517.35   40.64
   6   4   3  543.13   43.12
  -6   4  -3  548.51   34.22
  -6   4  -3  472.41   34.44
  -6   4  -4  479.94   29.22
  -6   4  -4  428.05   24.57
   6   4   4  449.67   24.45
  -6   4  -4  443.30   35.31
   6   4   4  470.97   38.44
   6   4   4  425.07   22.15
  -6   4  -4  394.40   29.68
  -6   4  -5   70.14    8.86
   6   4   5   69.55    8.32
  -6   4  -5   71.68   12.35
   6   4   5   60.67    7.52
  -6   4  -5   65.31   10.23
   6   5 -10   10.80    4.13
   6   5 -10   14.92    3.90
   6   5 -10    8.13    2.81
  -6   5  10   10.56    3.41
  -6   5  10    9.06    2.87
   6   5 -10    9.77    3.15
   6   5  -9   59.83    8.41
   6   5  -9   61.46   10.33
   6   5  -9   87.24   10.14
  -6   5   9   76.19    9.74
  -6   5   9   85.45   10.38
  -6   5   9   70.65    9.00
  -6   5   9   50.15   17.34
   6   5  -9   64.90    8.94
   6   5  -8  357.91   26.84
   6   5  -8  377.78   22.60
  -6   5   8  410.36   24.98
  -6   5   8  433.16   25.42
   6   5  -8  363.33   22.18
  -6   5   8  321.36   46.61
  -6   5   8  408.55   24.66
   6   5  -8  495.42   23.04
   6   5  -8  347.27   21.92
   6   5  -7  573.04   35.47
   6   5  -7  739.67   33.46
  -6   5   7  766.36   35.42
  -6   5   7  754.00   34.70
  -6   5   7  614.61   71.22
  -6   5   7  713.64   35.06
   6   5  -7  580.03   28.82
   6   5  -7  814.29   31.84
   6   5  -7  622.78   30.40
   6   5  -6  451.75   25.35
   6   5  -6  506.30   27.93
   6   5  -6  408.84   30.83
  -6   5   6  482.11   28.60
  -6   5   6  491.57   28.20
  -6   5   6  400.49   61.00
  -6   5   6  493.88   30.46
   6   5  -6  557.38   27.88
   6   5  -6  469.15   26.39
   6   5  -5   60.63   11.67
  -6   5   5   70.81   10.81
  -6   5   5   88.16   11.59
   6   5  -5   99.83   12.27
  -6   5   5   67.46   11.64
  -6   5   5   65.72   26.69
   6   5  -5   79.35   10.58
   6   5  -5   70.81   10.40
   6   5  -4  728.32   32.44
  -6   5   4  759.82   35.60
  -6   5   4  790.56   34.62
   6   5  -4  694.21   38.40
   6   5  -4  772.94   45.53
   6   5  -4  830.99   36.13
  -6   5   4  683.80   77.06
  -6   5   4  773.18   39.65
   6   5  -3  994.31   36.25
   6   5  -3  933.22   42.29
  -6   5   3  973.99   39.78
  -6   5   3  926.66   36.25
   6   5  -3  952.91   34.09
  -6   5   3  842.12   44.16
   6   5  -3  956.78   39.41
   6   5  -3  867.73   51.80
  -6   5   3  786.24   77.35
  -6   5   3  960.69   45.37
  -6   5   2  355.70   31.33
  -6   5   2  397.38   24.80
  -6   5   2  405.53   23.06
   6   5  -2  377.41   22.15
  -6   5   2  320.71   28.36
   6   5  -2  382.05   25.01
   6   5  -2  348.15   33.70
  -6   5   2  308.05   46.18
  -6   5   2  397.06   29.45
  -6   5   2  361.19   25.83
  -6   5   1   22.39    8.04
  -6   5   1   20.23    5.46
   6   5  -1   14.13    4.70
  -6   5   1   22.91    6.77
   6   5  -1   19.12    5.51
  -6   5   1   13.68    6.83
  -6   5   1   17.90    5.08
   6   5  -1   18.06    8.37
  -6   5   1   16.78   11.74
  -6   5   1   18.77    6.98
  -6   5   0  102.73   16.80
  -6   5   0   97.75   11.86
   6   5   0  109.57   12.31
  -6   5   0   82.56   15.57
   6   5   0   92.73   11.78
   6   5   0  120.10   20.92
  -6   5   0  103.46   15.36
  -6   5   0  102.62   14.71
  -6   5  -1  503.86   35.88
  -6   5  -1  500.19   26.71
   6   5   1  455.60   25.82
  -6   5  -1  441.70   36.08
   6   5   1  487.43   26.15
   6   5   1  439.02   40.07
  -6   5  -1  483.86   33.67
  -6   5  -1  507.78   32.48
  -6   5  -2  537.34   35.21
  -6   5  -2  510.96   25.89
   6   5   2  444.00   25.17
  -6   5  -2  449.35   36.44
   6   5   2  557.42   45.66
  -6   5  -2  453.90   31.59
  -6   5  -2  554.02   32.96
  -6   5  -3  125.34   14.78
  -6   5  -3  118.51   15.23
   6   5   3  121.97   12.21
  -6   5  -3  116.75   17.51
   6   5   3  110.95   19.62
  -6   5  -3   93.11   13.81
   6   5   4   15.23    3.93
  -6   5  -4   15.60    6.15
   6   5   4   22.37    8.39
  -6   5  -4   19.93    5.55
  -6   5  -4   26.13    6.01
   6   6  -8   33.08    6.87
   6   6  -8   38.64    6.43
  -6   6   8   38.14   15.13
  -6   6   8   43.24    6.99
   6   6  -8   32.60    5.46
   6   6  -7   23.16    6.36
   6   6  -7   38.71    6.83
   6   6  -7   20.57    4.86
  -6   6   7   36.01    6.35
  -6   6   7   36.56    6.08
  -6   6   7   28.51   12.63
  -6   6   7   34.95    6.90
   6   6  -7   48.04    6.84
   6   6  -7   30.34    5.76
   6   6  -6  125.15   14.94
   6   6  -6  143.50   13.43
  -6   6   6  142.43   12.64
  -6   6   6  166.02   13.22
  -6   6   6  165.53   16.45
  -6   6   6   89.39   23.24
   6   6  -6  205.56   15.36
   6   6  -6  123.76   12.14
   6   6  -5  195.16   19.04
   6   6  -5  205.01   16.38
  -6   6   5  244.77   17.08
  -6   6   5  228.85   19.74
  -6   6   5  177.25   34.47
   6   6  -4  142.20   16.01
   6   6  -4  173.72   14.64
  -6   6   4  185.13   14.84
  -6   6   4  183.23   18.45
  -6   6   4  151.81   32.27
  -6   6   3   81.21   13.08
   6   6  -3  128.89   13.66
  -6   6   3  124.68   15.48
   6   6  -3  108.33   18.34
  -6   6   3   87.79   22.21
   6   6  -2  163.54   13.52
  -6   6   2  136.92   17.72
   6   6  -2  137.27   20.42
   6   6  -2  156.12   14.90
  -6   6   2  172.71   18.63
  -6   6   2  109.36   23.30
  -6   6   1  431.03   32.12
   6   6  -1  446.53   23.10
  -6   6   1  390.77   30.92
   6   6  -1  450.96   39.01
   6   6  -1  426.85   24.08
  -6   6   1  486.40   31.10
  -6   6   1  442.82   26.73
  -6   6   0  480.09   33.14
   6   6   0  446.93   23.33
  -6   6   0  410.15   31.92
   6   6   0  488.15   24.25
  -6   6   0  490.07   30.47
  -6   6   0  478.73   27.97
  -6   6  -1   83.56   11.38
  -6   6  -1   93.47   13.97
   6   6   1   95.49   10.34
  -6   6  -1   78.11   13.48
   6   6   1  121.92   20.75
  -6   6  -1   85.63   12.42
  -6   6  -2   16.87    5.06
   6   6   2   14.88    4.13
  -6   6  -2   11.70    5.41
  -6   6  -2   18.20    4.93
   6   6   2   12.66    7.03
  -6   6  -2   14.84    5.20
  -6   6  -3  235.01   16.33
   6   6   3  191.11   13.33
  -6   6  -3  189.22   18.75
   6   6   3  237.31   25.74
  -6   7   5    3.81    2.87
   6   7  -5    6.12    2.48
  -6   7   4  387.61   22.33
   6   7  -4  423.95   20.32
  -6   7   3  439.73   24.46
   6   7  -3  442.08   20.91
  -6   7   2  441.35   24.42
   6   7  -2  421.30   20.14
  -6   7   1    6.79    3.98
  -6   7   1   11.89    4.43
   7  -6  -7    0.45    1.29
   7  -6  -7    1.00    0.96
  -7  -6   7    3.58    2.15
  -7  -6   7    0.91    1.27
   7  -6  -6    8.14    3.26
   7  -6  -6   14.52    3.56
  -7  -6   6    7.58    2.75
  -7  -6   6    9.82    3.15
  -7  -6   6    6.73    3.20
   7  -6  -5  222.70   15.37
  -7  -6   5  226.01   15.27
  -7  -6   5  215.66   14.42
  -7  -6   5  266.99   16.34
   7  -6  -5  248.79   15.14
  -7  -6   4  330.88   18.65
   7  -6  -4  298.73   18.07
  -7  -6   4  282.31   16.92
  -7  -6   4  347.58   18.87
   7  -6  -4  359.05   18.11
  -7  -6   3  401.23   20.46
  -7  -6   3  380.49   19.65
   7  -6  -3  381.95   19.92
   7  -6  -3  420.23   19.67
   7  -6  -2    2.16    2.17
   7  -6  -2   -0.78    2.01
   7  -6  -2    1.67    1.37
  -7  -6   2    1.12    1.55
  -7  -6   2    2.08    1.86
  -7  -6   2    3.95    3.05
  -7  -6   1  149.07   11.71
  -7  -6   1  130.18   11.09
  -7  -6   1  160.80   12.00
   7  -6  -1  129.98   10.07
  -7  -6   0  542.89   21.26
  -7  -6   0  627.51   22.52
  -7  -6  -1  249.43   13.32
  -7  -6  -1  288.00   14.07
  -7  -5   9  155.45   12.15
   7  -5  -9  191.94   13.29
  -7  -5   9  176.63   12.98
  -7  -5   9  172.41   12.26
   7  -5  -9  190.87   12.38
   7  -5  -8   66.75    8.94
  -7  -5   8   44.15    7.45
  -7  -5   8   59.28    8.18
  -7  -5   8   53.67    7.52
   7  -5  -8   69.97    8.24
   7  -5  -7  729.17   30.52
  -7  -5   7  641.14   28.23
  -7  -5   7  619.31   28.33
  -7  -5   7  698.55   28.72
   7  -5  -7  735.54   28.33
   7  -5  -6  820.47   33.36
  -7  -5   6  778.72   31.96
  -7  -5   6  838.08   34.21
  -7  -5   6  878.30   33.12
   7  -5  -6  877.43   31.77
   7  -5  -5  186.30   16.28
  -7  -5   5  185.98   15.72
  -7  -5   5  182.72   16.24
  -7  -5   5  197.23   15.95
   7  -5  -5  197.77   15.23
   7  -5  -4  192.96   16.15
  -7  -5   4  195.51   16.01
  -7  -5   4  195.52   17.03
  -7  -5   4  206.73   16.17
   7  -5  -4  203.41   15.33
   7  -5  -3  271.76   18.93
  -7  -5   3  297.35   19.61
  -7  -5   3  300.99   21.14
  -7  -5   3  314.71   19.91
   7  -5  -3  301.84   18.60
   7  -5  -2  559.67   25.98
  -7  -5   2  603.60   27.33
  -7  -5   2  622.69   30.19
  -7  -5   2  650.23   28.04
   7  -5  -2  634.88   26.42
  -7  -5   1  311.03   18.95
  -7  -5   1  326.29   21.38
  -7  -5   1  364.09   20.29
   7  -5  -1  318.91   17.72
  -7  -5   0   35.25    6.16
  -7  -5   0   38.71    7.06
  -7  -5   0   48.71    7.01
   7  -5   0   41.27    5.90
  -7  -5  -1  114.95   10.48
  -7  -5  -1  140.88   13.06
  -7  -5  -1  152.83   11.91
  -7  -5  -2  360.25   17.48
  -7  -5  -2  374.28   20.33
  -7  -5  -2  397.17   17.73
  -7  -5  -3  199.51   13.51
  -7  -4  11    3.68    2.34
   7  -4 -10  178.91   13.62
  -7  -4  10  177.50   14.16
   7  -4 -10  195.84   13.42
   7  -4 -10  202.52   13.46
   7  -4  -9  428.79   23.20
  -7  -4   9  418.19   23.77
   7  -4  -9  393.57   20.27
   7  -4  -9  431.49   21.80
   7  -4  -8  392.87   23.67
  -7  -4   8  374.89   23.68
   7  -4  -8  361.51   19.76
   7  -4  -8  392.00   21.62
   7  -4  -7  124.43   13.44
  -7  -4   7  129.61   14.37
   7  -4  -7  146.67   13.52
   7  -4  -6  316.39   19.46
   7  -4  -6  280.03   20.30
  -7  -4   6  259.53   19.10
  -7  -4   6  288.91   21.73
   7  -4  -6  290.65   19.07
   7  -4  -5  650.68   30.47
   7  -4  -5  759.08   33.24
  -7  -4   5  688.32   30.70
  -7  -4   5  723.36   34.46
  -7  -4   5  715.05   30.99
   7  -4  -5  785.09   31.03
   7  -4  -4  871.57   37.87
   7  -4  -4  882.36   34.99
  -7  -4   4  844.33   33.68
  -7  -4   4  895.64   38.26
  -7  -4   4  882.29   34.17
   7  -4  -4  874.33   32.58
   7  -4  -3  193.47   15.80
  -7  -4   3  168.80   14.70
  -7  -4   3  208.20   18.34
  -7  -4   3  200.08   15.92
   7  -4  -3  211.03   15.75
   7  -4  -2   80.06   10.02
  -7  -4   2   72.54    9.33
  -7  -4   2   94.36   12.13
  -7  -4   2   83.93    9.98
   7  -4  -2   99.77   10.29
  -7  -4   1  716.34   29.16
  -7  -4   1  715.49   33.69
  -7  -4   1  712.26   28.70
   7  -4  -1  711.24   27.20
  -7  -4   0  725.85   28.89
  -7  -4   0  759.88   34.52
  -7  -4   0  767.66   29.08
  -7  -4  -1  348.24   19.49
  -7  -4  -1  365.20   23.58
  -7  -4  -1  408.66   20.55
   7  -4   2    1.50    2.27
  -7  -4  -2    3.25    2.01
  -7  -4  -2    4.73    2.11
  -7  -4  -2    3.42    2.30
  -7  -4  -3  106.19    9.51
  -7  -4  -3  115.61   12.39
  -7  -4  -4  285.63   17.64
  -7  -3  12  205.96   12.81
   7  -3 -11  340.45   18.39
  -7  -3  11  332.16   19.54
   7  -3 -11  356.39   18.77
   7  -3 -11  336.58   17.64
   7  -3 -10  115.77   12.86
  -7  -3  10   90.85   11.92
  -7  -3  10  103.68   11.23
   7  -3 -10  109.05   11.27
   7  -3 -10  120.70   11.77
   7  -3  -9  122.09   13.22
  -7  -3   9  100.32   13.10
  -7  -3   9  111.38   12.37
   7  -3  -9  123.69   12.26
   7  -3  -9  125.88   12.57
   7  -3  -8  353.99   23.35
  -7  -3   8  321.00   23.82
  -7  -3   8  333.47   22.37
   7  -3  -8  369.09   20.93
   7  -3  -8  407.85   23.03
   7  -3  -7  551.29   24.73
   7  -3  -7  541.67   28.92
  -7  -3   7  548.80   30.68
  -7  -3   7  545.82   28.72
   7  -3  -7  567.02   27.17
   7  -3  -6 1042.95   36.13
   7  -3  -6  948.90   37.50
  -7  -3   6  987.26   40.29
  -7  -3   6  910.13   37.47
   7  -3  -6  936.33   34.15
   7  -3  -5  346.14   22.89
   7  -3  -5  342.86   21.73
  -7  -3   5  300.23   19.57
  -7  -3   5  322.81   22.74
  -7  -3   5  308.77   21.63
   7  -3  -5  351.99   20.08
   7  -3  -4  316.86   24.13
   7  -3  -4  335.27   20.63
  -7  -3   4  328.54   19.76
  -7  -3   4  345.96   23.12
  -7  -3   4  331.49   22.06
  -7  -3   4  321.39   19.55
   7  -3  -4  344.01   19.39
   7  -3  -3  914.59   41.25
   7  -3  -3  849.93   32.08
  -7  -3   3  812.47   30.35
  -7  -3   3  864.52   36.53
  -7  -3   3  852.39   35.04
  -7  -3   3  874.73   31.26
   7  -3  -3  926.22   31.01
   7  -3  -2 1027.49   33.75
  -7  -3   2  976.98   32.77
  -7  -3   2 1049.14   40.19
  -7  -3   2 1044.47   38.89
  -7  -3   2 1078.64   34.22
   7  -3  -2 1118.86   33.19
   7  -3  -2 1172.54   47.85
  -7  -3   1  157.44   12.85
  -7  -3   1  196.79   17.48
  -7  -3   1  168.91   15.63
  -7  -3   1  183.94   13.75
   7  -3  -1  189.74   13.19
  -7  -3   0  161.57   13.02
  -7  -3   0  172.65   16.33
  -7  -3   0  157.53   15.31
  -7  -3   0  160.61   12.71
  -7  -3  -1  175.63   13.51
  -7  -3  -1  216.24   18.54
  -7  -3  -1  188.88   17.02
  -7  -3  -1  203.11   14.01
  -7  -3  -2  447.52   21.33
  -7  -3  -2  477.22   27.49
  -7  -3  -2  438.33   25.27
  -7  -3  -2  426.39   26.26
  -7  -3  -3  263.79   20.12
  -7  -3  -3  265.87   19.49
  -7  -3  -3  236.44   19.21
  -7  -3  -4   85.71   10.64
  -7  -3  -4   86.17   10.35
  -7  -3  -5   59.10    8.38
  -7  -3  -5   44.42    6.66
   7  -2 -12   33.45    5.50
  -7  -2  12   42.90    7.04
  -7  -2  12   46.15    6.97
   7  -2 -12   38.40    6.18
   7  -2 -12   38.29    5.83
   7  -2 -11    7.26    3.40
   7  -2 -11    5.39    2.82
  -7  -2  11    5.19    3.13
  -7  -2  11    4.89    2.99
   7  -2 -11   10.24    3.80
   7  -2 -10  281.83   20.67
  -7  -2  10  263.79   20.38
   7  -2 -10  281.60   19.24
   7  -2 -10  311.70   20.03
   7  -2  -9  850.91   36.26
  -7  -2   9  759.61   35.96
   7  -2  -9  785.16   32.08
   7  -2  -9  860.31   33.77
   7  -2  -8  775.40   29.42
   7  -2  -8  831.59   36.03
  -7  -2   8  749.83   35.96
  -7  -2   8  768.70   36.03
   7  -2  -8  800.35   31.54
   7  -2  -8  794.78   32.63
   7  -2  -7   67.43    8.75
   7  -2  -7   68.31   10.30
  -7  -2   7   65.54   10.28
  -7  -2   7   66.83   10.43
   7  -2  -7   74.02    9.78
   7  -2  -6  209.44   15.98
   7  -2  -6  188.76   16.14
  -7  -2   6  174.42   16.31
  -7  -2   6  181.52   16.77
  -7  -2   6  186.54   22.63
   7  -2  -6  188.67   14.87
   7  -2  -5  787.00   32.10
  -7  -2   5  796.61   33.81
  -7  -2   5  804.60   35.20
  -7  -2   5  769.14   47.00
   7  -2  -5  803.85   29.31
   7  -2  -4 1644.81   50.04
   7  -2  -4 1772.14   46.25
  -7  -2   4 1753.95   49.51
  -7  -2   4 1792.32   52.54
  -7  -2   4 1848.94   75.05
   7  -2  -4 1861.44   43.06
   7  -2  -3  385.64   26.04
   7  -2  -3  375.94   20.22
  -7  -2   3  382.77   22.92
  -7  -2   3  406.68   24.86
  -7  -2   3  420.43   36.96
  -7  -2   3  386.78   19.04
   7  -2  -3  381.69   15.72
   7  -2  -3  418.98   19.44
   7  -2  -2  397.72   26.03
  -7  -2   2  342.79   21.53
  -7  -2   2  328.18   22.10
  -7  -2   2  332.06   17.41
   7  -2  -2  357.93   17.41
  -7  -2   1  790.53   33.31
  -7  -2   1  796.52   32.14
  -7  -2   1  802.49   35.27
  -7  -2   0  775.52   33.60
  -7  -2   0  784.32   33.81
  -7  -2   0  809.62   36.47
   7  -2   0  730.90   36.18
  -7  -2  -1  236.44   18.90
  -7  -2  -1  231.32   19.41
  -7  -2  -1  233.86   20.08
  -7  -2  -2   97.02   12.26
  -7  -2  -2   94.48   12.61
  -7  -2  -2   83.07   12.45
  -7  -2  -2   75.80   12.41
  -7  -2  -3  233.03   19.42
  -7  -2  -3  236.99   19.96
  -7  -2  -3  225.72   20.20
  -7  -2  -3  243.01   22.41
  -7  -2  -4  255.38   19.49
  -7  -2  -4  220.82   18.60
  -7  -2  -4  211.03   18.97
  -7  -2  -4  241.53   21.32
  -7  -2  -5  319.31   20.30
  -7  -2  -5  301.43   20.03
  -7  -2  -5  256.17   19.21
  -7  -2  -6   48.44    6.87
  -7  -2  -6   42.90    6.43
   7  -1 -12   88.73    9.43
   7  -1 -12   74.90   10.60
  -7  -1  12   70.59    9.58
  -7  -1  12  106.50   11.34
   7  -1 -12   99.69   10.37
   7  -1 -12   97.57    9.84
   7  -1 -11  159.01   15.02
   7  -1 -11  142.30   16.21
  -7  -1  11  154.25   15.46
   7  -1 -11  153.04   14.33
   7  -1 -11  181.40   14.66
   7  -1 -10  338.48   22.51
   7  -1 -10  276.46   23.38
  -7  -1  10  317.27   23.81
   7  -1 -10  334.35   21.55
   7  -1 -10  343.99   21.52
   7  -1  -9   81.95    9.42
   7  -1  -9   68.12   10.67
   7  -1  -9   51.51   10.18
  -7  -1   9   78.00   11.70
   7  -1  -9   84.43   10.56
   7  -1  -9   61.84    9.20
   7  -1  -8    3.38    2.64
   7  -1  -8    6.37    2.60
   7  -1  -8    4.94    2.68
  -7  -1   8    1.45    1.54
   7  -1  -8    6.04    3.23
   7  -1  -7 2032.16   49.24
   7  -1  -7 2027.35   54.51
  -7  -1   7 1995.84   54.49
  -7  -1   7 1997.82   58.41
   7  -1  -7 1995.37   49.97
   7  -1  -6 1380.61   40.55
   7  -1  -6 1384.25   43.43
  -7  -1   6 1355.47   42.60
  -7  -1   6 1358.71   46.57
   7  -1  -6 1363.53   38.95
   7  -1  -5   75.80    9.34
   7  -1  -5   61.45    8.95
  -7  -1   5   67.83    9.21
  -7  -1   5   63.92    9.67
  -7  -1   5   37.41   13.03
   7  -1  -5   46.86    5.90
   7  -1  -5   60.51    7.94
   7  -1  -4  125.90   13.04
   7  -1  -4  110.81   11.01
  -7  -1   4  106.46   10.91
  -7  -1   4  104.74   11.12
  -7  -1   4   97.45   10.39
  -7  -1   4  113.82   13.06
  -7  -1   4   76.00   17.61
   7  -1  -4  105.80    8.32
   7  -1  -4  118.74   10.37
   7  -1  -3 1514.74   44.01
  -7  -1   3 1372.65   37.79
  -7  -1   3 1326.35   39.57
   7  -1  -3 1326.20   37.31
  -7  -1   3 1285.47   39.23
  -7  -1   3 1342.18   44.88
  -7  -1   3 1140.74   65.12
   7  -1  -3 1297.36   27.29
   7  -1  -3 1349.02   33.15
   7  -1  -2  572.56   27.55
  -7  -1   2  524.80   22.84
  -7  -1   2  544.28   25.60
   7  -1  -2  442.88   16.95
  -7  -1   2  536.88   25.94
  -7  -1   2  567.78   29.43
  -7  -1   2  543.73   43.75
   7  -1  -1  308.57   20.46
  -7  -1   1  324.97   20.78
  -7  -1   1  331.21   20.17
   7  -1  -1  276.12   14.40
  -7  -1   1  330.57   21.17
  -7  -1   1  293.38   28.30
  -7  -1   1  324.55   22.56
   7  -1   0   11.20    4.15
  -7  -1   0   10.02    4.30
  -7  -1   0   12.57    3.71
  -7  -1   0   18.72    7.78
  -7  -1   0    8.61    3.90
  -7  -1   0   13.07    4.71
  -7  -1   0   14.61    7.40
   7  -1   1  277.98   19.44
  -7  -1  -1  352.06   24.08
  -7  -1  -1  366.36   22.48
  -7  -1  -1  377.49   25.03
  -7  -1  -1  395.54   36.61
  -7  -1  -1  354.90   24.79
  -7  -1  -1  349.29   26.98
  -7  -1  -2 1187.13   46.29
  -7  -1  -2 1212.71   42.34
  -7  -1  -2 1257.75   47.43
  -7  -1  -2 1209.32   47.62
  -7  -1  -2 1263.60   53.78
  -7  -1  -3  784.95   38.02
  -7  -1  -3  864.63   36.11
  -7  -1  -3  857.82   39.92
  -7  -1  -3  855.54   40.75
  -7  -1  -3  904.01   46.13
  -7  -1  -4   98.91   12.97
  -7  -1  -4  143.16   14.55
  -7  -1  -4  131.89   15.13
  -7  -1  -4  134.42   15.98
  -7  -1  -4  132.53   17.76
  -7  -1  -5   48.62    8.28
  -7  -1  -5   55.31    8.47
  -7  -1  -5   55.05    9.02
  -7  -1  -5   51.53    9.25
  -7  -1  -5   59.53   11.01
  -7  -1  -6  339.62   19.21
  -7  -1  -6  411.35   20.70
  -7  -1  -6  388.76   20.85
  -7  -1  -6  361.05   21.58
  -7  -1  -6  409.82   24.27
  -7   0  13  554.24   22.45
   7   0 -12  305.35   17.87
   7   0 -12  251.73   20.69
  -7   0  12  209.15   14.97
  -7   0  12  338.72   21.08
   7   0 -12  286.38   17.74
   7   0 -12  269.45   17.84
   7   0 -11   10.82    4.05
   7   0 -11    9.80    3.91
   7   0 -11    5.71    3.73
   7   0 -11    9.71    4.65
  -7   0  11   10.16    4.58
   7   0 -11    8.49    3.56
   7   0 -10  686.33   33.58
   7   0 -10  580.73   35.53
  -7   0  10  592.50   29.96
   7   0 -10  614.37   35.86
  -7   0  10  688.65   35.64
   7   0 -10  619.97   30.47
   7   0 -10  733.21   32.49
   7   0  -9 1744.94   46.60
   7   0  -9 1873.12   56.33
   7   0  -9 1622.83   59.81
  -7   0   9 1693.31   52.27
   7   0  -9 1764.41   61.63
  -7   0   9 1853.15   58.81
   7   0  -9 1848.74   51.37
   7   0  -9 1913.68   52.92
   7   0  -8 1064.20   36.68
   7   0  -8 1093.18   42.66
   7   0  -8  953.68   43.89
  -7   0   8 1029.33   40.18
  -7   0   8 1059.51   40.08
   7   0  -8 1009.07   45.24
  -7   0   8 1091.17   44.49
   7   0  -8 1075.43   38.01
   7   0  -8 1125.98   39.16
   7   0  -7   89.42   10.59
   7   0  -7   90.85   11.56
   7   0  -7   65.54   11.34
  -7   0   7   87.58   11.56
  -7   0   7   81.10   10.78
  -7   0   7   74.25   10.34
  -7   0   7   93.82   12.47
   7   0  -7   92.97   10.81
   7   0  -6  173.03   14.96
  -7   0   6  166.11   15.15
  -7   0   6  173.49   14.19
  -7   0   6  154.50   14.76
  -7   0   6  150.52   15.33
   7   0  -6  174.54   15.48
   7   0  -6  164.17   13.97
   7   0  -5 1400.56   40.57
  -7   0   5 1387.19   38.68
  -7   0   5 1301.62   42.16
  -7   0   5 1313.93   37.92
  -7   0   5 1297.96   41.76
   7   0  -5 1370.01   41.44
   7   0  -5 1309.01   30.85
   7   0  -5 1351.04   36.82
   7   0  -4 2158.45   50.00
   7   0  -4 1996.57   48.18
   7   0  -4 1882.46   48.51
  -7   0   4 1851.25   43.47
  -7   0   4 1950.58   51.03
  -7   0   4 1961.69   45.32
  -7   0   4 1939.30   50.93
  -7   0   4 1492.69   47.28
  -7   0   4 1285.82   79.75
   7   0  -4 1933.72   34.20
   7   0  -4 1948.04   41.66
   7   0  -3  385.73   21.20
  -7   0   3  280.50   16.76
  -7   0   3  351.00   21.47
  -7   0   3  351.08   19.00
  -7   0   3  307.84   20.11
  -7   0   3  295.54   20.83
  -7   0   3  221.61   31.83
   7   0  -2   36.62    6.48
  -7   0   2   25.11    4.67
  -7   0   2   31.00    6.77
   7   0  -2   31.88    5.36
  -7   0   2   31.78    5.74
  -7   0   2   24.55    8.37
  -7   0   2   29.06    6.51
  -7   0   2   26.78    5.92
  -7   0   2   30.62   12.64
   7   0  -1 1907.39   46.51
  -7   0   1 1615.33   48.36
  -7   0   1 1585.16   41.85
   7   0  -1 2167.96   47.53
  -7   0   1 1581.88   47.36
  -7   0   1 1585.51   63.69
  -7   0   1 1656.81   50.73
  -7   0   1 1303.64   69.15
  -7   0   1 1343.66   50.29
  -7   0   0 2262.44   60.28
  -7   0   0 2250.62   51.21
  -7   0   0 2254.65   59.02
  -7   0   0 2173.86   79.38
  -7   0   0 2224.57   60.58
  -7   0   0 2401.69   90.65
  -7   0   0 2080.58   66.73
  -7   0  -1  248.25   20.83
  -7   0  -1  229.48   17.00
  -7   0  -1  228.51   19.38
  -7   0  -1  241.22   28.28
  -7   0  -1  236.19   20.44
  -7   0  -1  302.66   28.89
  -7   0  -1  217.78   22.74
  -7   0  -2   70.39   11.46
  -7   0  -2   80.09   10.23
  -7   0  -2   70.48   11.28
  -7   0  -2   96.90   18.00
  -7   0  -2   64.23   11.19
   7   0   2   78.56   12.97
  -7   0  -2   82.88   15.00
  -7   0  -3   79.40   12.37
  -7   0  -3   98.14   11.96
  -7   0  -3   78.19   11.89
  -7   0  -3   89.92   18.37
  -7   0  -3   72.25   12.01
  -7   0  -3   93.50   15.17
  -7   0  -4  408.11   27.92
  -7   0  -4  494.60   26.59
  -7   0  -4  468.54   28.58
  -7   0  -4  428.90   28.72
  -7   0  -4  480.02   34.50
  -7   0  -5  162.63   16.42
  -7   0  -5  192.30   15.73
  -7   0  -5  189.99   17.02
  -7   0  -5  164.71   16.74
  -7   0  -5  193.83   20.12
  -7   0  -6   45.48    7.54
  -7   0  -6   61.85    8.05
   7   0   6   29.06    5.60
  -7   0  -6   55.64    7.90
  -7   0  -6   44.58    7.77
  -7   0  -6   58.59    9.67
   7   1 -12   64.17    8.32
   7   1 -12   56.57    8.24
   7   1 -12   35.39    6.28
  -7   1  12   48.80    7.23
   7   1 -12   53.86    9.86
  -7   1  12   76.83    9.47
   7   1 -12   61.27    8.58
   7   1 -11  138.86   13.64
   7   1 -11  127.90   14.13
   7   1 -11   82.86   10.83
   7   1 -11  109.97   15.34
  -7   1  11   99.88   12.27
  -7   1  11  117.71   12.58
   7   1 -11   88.23   13.04
  -7   1  11  140.33   14.83
   7   1 -11  121.56   13.33
   7   1 -10  349.51   19.82
   7   1 -10  322.70   23.11
   7   1 -10  254.95   20.00
   7   1 -10  281.66   25.68
  -7   1  10  298.47   22.77
  -7   1  10  341.01   23.27
   7   1 -10  312.34   26.33
  -7   1  10  346.02   24.44
   7   1 -10  313.61   21.79
   7   1 -10  346.95   22.69
   7   1  -9   85.83   10.50
   7   1  -9   89.13   12.39
   7   1  -9   73.50   10.72
  -7   1   9   87.64   12.59
  -7   1   9   69.93   10.86
   7   1  -9   63.77   12.33
  -7   1   9   88.57   12.60
   7   1  -9   66.91   12.26
   7   1  -9   75.06   10.57
   7   1  -9   90.09   11.66
   7   1  -8    5.01    3.16
   7   1  -8   10.77    3.89
   7   1  -8    8.19    3.46
   7   1  -8   11.85    4.54
  -7   1   8    7.85    3.79
   7   1  -8    7.07    3.09
  -7   1   8   10.69    4.55
  -7   1   8   10.17    4.23
  -7   1   8    3.14    7.96
   7   1  -8   10.65    4.58
   7   1  -7 1942.07   51.93
   7   1  -7 2022.88   56.22
  -7   1   7 1867.32   56.89
  -7   1   7 1901.76   56.57
  -7   1   7 1906.69   56.38
   7   1  -7 2016.47   51.08
   7   1  -6 1321.13   41.70
   7   1  -6 1301.79   43.67
  -7   1   6 1266.24   45.74
   7   1  -6 1204.24   46.92
   7   1  -6 1278.55   35.44
  -7   1   6 1236.29   44.38
  -7   1   6 1267.10   45.03
   7   1  -6 1300.62   39.22
   7   1  -5   54.73    8.54
   7   1  -5   53.96    8.55
   7   1  -5   49.08    7.81
  -7   1   5   51.64    8.86
  -7   1   5   55.20    9.37
   7   1  -5   48.97    8.85
  -7   1   5   58.46    9.40
  -7   1   5   32.71   14.24
   7   1  -5   53.48    6.21
   7   1  -5   50.09    7.14
   7   1  -4   98.69   11.35
   7   1  -4   87.44   10.31
   7   1  -4   93.21   10.51
  -7   1   4  100.93   10.13
  -7   1   4   87.73   11.54
  -7   1   4   86.48   11.23
  -7   1   4   89.84   11.33
  -7   1   4   49.55   16.82
   7   1  -3 1250.91   37.94
   7   1  -3 1186.22   39.66
  -7   1   3 1318.78   36.08
  -7   1   3 1228.76   43.13
  -7   1   3 1186.12   41.43
  -7   1   3 1254.74   42.69
   7   1  -2  509.57   24.08
   7   1  -2  486.01   27.11
  -7   1   2  524.68   22.44
  -7   1   2  524.46   28.25
   7   1  -2  389.05   19.19
  -7   1   2  533.55   27.95
  -7   1   2  450.83   32.84
  -7   1   2  519.55   27.87
  -7   1   2  365.30   42.41
  -7   1   2  507.18   30.61
  -7   1   2  470.38   28.39
   7   1  -1  276.23   17.72
   7   1  -1  318.03   22.99
  -7   1   1  318.91   22.55
  -7   1   1  297.54   21.01
  -7   1   1  280.96   27.37
  -7   1   1  302.53   21.48
  -7   1   1  275.59   23.57
  -7   1   1  210.48   30.66
  -7   1   1  281.06   23.83
  -7   1   0   10.24    4.20
  -7   1   0   15.45    6.45
  -7   1   0    5.76    5.67
  -7   1   0   17.01    4.84
  -7   1   0   12.50    4.74
  -7   1   0    8.27    5.03
  -7   1   0    7.88    6.33
   7   1   0   20.46    6.69
   7   1   1  241.23   22.20
  -7   1  -1  294.60   23.18
  -7   1  -1  302.38   22.51
  -7   1  -1  275.36   30.26
  -7   1  -1  266.05   21.28
  -7   1  -1  289.42   25.96
  -7   1  -1  293.83   28.74
  -7   1  -1  300.99   27.60
   7   1   2 1049.83   44.42
  -7   1  -2 1277.72   50.10
  -7   1  -2 1319.27   48.42
  -7   1  -2 1317.80   67.87
   7   1   2 1489.25   60.83
  -7   1  -2 1215.73   46.76
  -7   1  -2 1407.04   57.04
  -7   1  -2 1220.50   58.26
  -7   1  -3  798.70   40.21
  -7   1  -3  862.36   39.09
  -7   1  -3  851.44   56.04
  -7   1  -3  817.02   39.46
  -7   1  -3  795.16   46.61
   7   1   4   94.92   11.43
  -7   1  -4  119.83   15.29
   7   1   4   70.89   12.89
  -7   1  -4  153.73   23.57
  -7   1  -4  128.75   14.59
  -7   1  -4  127.27   15.24
  -7   1  -4  100.32   16.01
  -7   1  -5   47.28    8.83
   7   1   5   43.27    7.92
  -7   1  -5   79.46   15.33
  -7   1  -5   57.20    8.92
  -7   1  -5   49.79    8.84
  -7   1  -5   49.80   10.72
  -7   1  -6  340.53   20.34
   7   1   6  305.22   16.81
  -7   1  -6  399.59   20.18
  -7   1  -6  362.97   21.33
  -7   1  -6  401.45   25.00
   7   2 -12   45.90    7.17
   7   2 -12   36.98    6.49
   7   2 -12   21.96    4.91
  -7   2  12   47.16    7.25
   7   2 -12   48.77    8.76
  -7   2  12   59.98    7.48
  -7   2  12   43.46    6.74
   7   2 -12   42.05    6.68
   7   2 -11   10.05    3.76
   7   2 -11    3.85    1.33
   7   2 -11    4.45    2.63
   7   2 -11    5.35    3.31
  -7   2  11    3.95    3.10
   7   2 -11    4.86    3.58
  -7   2  11    3.93    1.99
  -7   2  11    7.55    3.64
   7   2 -11    6.95    3.56
   7   2 -10  267.82   19.90
   7   2 -10  249.53   17.31
   7   2 -10  244.64   20.73
   7   2 -10  194.60   17.66
  -7   2  10  226.00   20.12
   7   2 -10  209.71   21.99
  -7   2  10  267.31   21.40
  -7   2  10  269.04   20.02
   7   2 -10  212.74   18.34
   7   2  -9  766.48   34.45
   7   2  -9  764.89   32.17
   7   2  -9  656.03   35.02
   7   2  -9  677.10   34.09
  -7   2   9  701.01   37.06
   7   2  -9  655.47   39.77
  -7   2   9  685.72   35.94
  -7   2   9  768.56   35.17
   7   2  -9  648.61   32.09
   7   2  -8  776.46   33.88
   7   2  -8  774.12   33.75
   7   2  -8  776.96   37.48
   7   2  -8  669.70   33.61
  -7   2   8  735.84   38.20
   7   2  -8  698.82   40.98
  -7   2   8  748.08   37.92
  -7   2   8  729.66   34.79
   7   2  -8  696.40   32.40
   7   2  -7   54.92    9.28
   7   2  -7   43.36    8.71
   7   2  -7   39.43    7.62
  -7   2   7   59.42   10.38
  -7   2   7   55.81   10.36
   7   2  -7   56.03   11.20
  -7   2   7   48.10    8.68
  -7   2   7   26.66   15.73
   7   2  -7   53.76    8.54
   7   2  -6  150.01   14.94
   7   2  -6  130.31   14.35
   7   2  -6  122.17   13.05
  -7   2   6  142.10   15.98
   7   2  -6  145.16   17.39
  -7   2   6  131.57   15.19
   7   2  -6  157.61   13.41
  -7   2   6  141.48   14.63
  -7   2   6   87.46   25.49
   7   2  -6  134.93   13.13
   7   2  -5  729.58   28.61
   7   2  -5  722.89   32.44
   7   2  -5  757.32   32.16
   7   2  -5  718.55   30.91
  -7   2   5  703.47   35.33
   7   2  -5  749.93   30.30
  -7   2   5  706.44   34.69
   7   2  -5  718.69   36.47
  -7   2   5  719.57   32.68
   7   2  -4 1665.18   47.88
   7   2  -4 1867.32   48.65
  -7   2   4 1660.40   52.92
  -7   2   4 1706.34   52.87
   7   2  -4 1890.92   49.84
   7   2  -4 1939.33   57.44
  -7   2   4 1751.16   50.32
  -7   2   4 1703.55   51.45
  -7   2   4 1611.02   50.88
   7   2  -3  368.09   21.95
   7   2  -3  436.93   24.17
  -7   2   3  364.36   24.79
  -7   2   3  379.91   24.67
  -7   2   3  385.12   26.47
  -7   2   3  408.93   24.22
  -7   2   3  384.02   25.71
   7   2  -2  254.18   18.52
   7   2  -2  298.81   20.72
  -7   2   2  268.24   21.27
  -7   2   2  281.66   20.99
  -7   2   2  286.79   23.48
   7   2  -2  309.68   17.73
  -7   2   2  244.01   24.60
  -7   2   2  296.94   20.69
  -7   2   2  275.76   22.90
   7   2  -1  676.05   32.60
  -7   2   1  691.91   34.64
  -7   2   1  629.75   36.20
  -7   2   1  659.28   31.94
   7   2  -1  771.83   30.51
  -7   2   1  592.35   40.51
  -7   2   1  641.38   30.91
  -7   2   1  639.56   37.18
   7   2   0  666.92   32.72
  -7   2   0  682.28   34.96
  -7   2   0  682.05   38.48
   7   2   0  705.38   31.48
  -7   2   0  678.85   32.67
  -7   2   0  675.45   46.37
   7   2   0  871.95   49.52
  -7   2   0  679.62   32.41
  -7   2   0  487.25   43.71
  -7   2   0  638.26   38.91
   7   2   1  185.36   17.35
  -7   2  -1  193.05   19.39
  -7   2  -1  199.43   21.88
   7   2   1  210.32   17.54
  -7   2  -1  190.74   17.62
  -7   2  -1  185.42   25.30
   7   2   1  237.23   25.80
  -7   2  -1  179.85   17.10
  -7   2  -1  158.99   20.32
   7   2   2  100.10   12.10
  -7   2  -2   60.27   10.40
  -7   2  -2   94.24   14.68
   7   2   2   98.04   12.51
  -7   2  -2   83.36   11.80
  -7   2  -2   90.01   17.53
   7   2   2   86.77   16.00
  -7   2  -2   82.81   11.95
  -7   2  -2   76.66   14.94
   7   2   3  230.28   17.42
  -7   2  -3  213.06   20.26
   7   2   3  243.09   19.88
  -7   2  -3  215.82   18.49
  -7   2  -3  219.12   27.28
   7   2   3  199.34   22.51
  -7   2  -3  209.22   18.92
  -7   2  -3  277.06   25.14
  -7   2  -3  191.95   22.94
  -7   2  -4  203.88   19.19
   7   2   4  222.70   18.08
  -7   2  -4  256.83   29.19
  -7   2  -4  241.10   18.86
  -7   2  -4  228.22   18.98
  -7   2  -4  208.01   22.55
  -7   2  -5  252.28   19.31
   7   2   5  273.44   17.89
  -7   2  -5  300.11   28.17
  -7   2  -5  284.18   17.99
  -7   2  -5  240.26   18.09
   7   2   5  279.66   17.88
  -7   2  -5  253.51   22.12
  -7   2  -6   38.42    6.33
   7   2   6   38.39    5.25
  -7   2  -6   35.60    8.54
   7   2   6   43.13    6.00
  -7   2  -6   48.03    7.87
   7   3 -12  171.78   12.11
  -7   3  12  155.46   12.40
   7   3 -12  168.28   14.25
   7   3 -11  330.83   19.67
   7   3 -11  310.93   20.90
   7   3 -11  318.94   16.81
   7   3 -11  275.40   18.58
  -7   3  11  314.47   21.00
  -7   3  11  335.85   20.97
   7   3 -11  303.38   22.62
   7   3 -11  281.33   18.24
   7   3 -10  104.14   12.01
   7   3 -10  115.43   13.96
   7   3 -10  114.82   11.58
   7   3 -10   78.76   11.18
  -7   3  10   94.67   12.49
  -7   3  10  116.65   13.92
   7   3 -10   99.89   14.37
   7   3 -10   81.54   10.95
   7   3  -9   96.46   12.11
   7   3  -9  108.24   11.76
   7   3  -9   85.27   12.50
   7   3  -9   79.64   11.77
  -7   3   9   87.99   12.69
  -7   3   9   91.48   12.89
   7   3  -9   86.44   14.14
  -7   3   9  110.61   12.09
   7   3  -9   85.41   11.61
   7   3  -8  332.83   22.36
   7   3  -8  352.74   22.73
   7   3  -8  311.97   24.69
   7   3  -8  277.17   22.11
  -7   3   8  308.79   24.94
  -7   3   8  321.38   25.14
   7   3  -8  290.61   26.34
  -7   3   8  359.67   22.53
  -7   3   8  232.64   41.19
   7   3  -8  285.38   20.83
   7   3  -7  532.97   27.96
   7   3  -7  447.58   26.11
   7   3  -7  498.05   30.79
   7   3  -7  513.91   30.02
  -7   3   7  543.35   33.20
  -7   3   7  524.03   32.36
   7   3  -7  493.07   34.57
  -7   3   7  546.52   27.98
   7   3  -7  522.95   25.26
  -7   3   7  421.50   59.05
   7   3  -7  471.92   26.11
   7   3  -6  898.06   34.60
   7   3  -6  891.46   37.26
   7   3  -6  827.08   39.08
   7   3  -6  830.37   37.58
  -7   3   6  853.51   41.07
  -7   3   6  869.33   40.91
   7   3  -6  907.63   45.41
   7   3  -6  837.83   33.32
  -7   3   6  834.32   34.76
  -7   3   6  880.35   37.94
   7   3  -5  293.68   20.98
   7   3  -5  278.63   21.43
  -7   3   5  279.82   23.15
  -7   3   5  280.57   22.62
   7   3  -5  326.37   26.36
   7   3  -5  286.41   19.76
   7   3  -5  287.78   26.15
  -7   3   5  303.85   20.61
  -7   3   5  296.84   22.77
  -7   3   5  198.10   41.45
   7   3  -4  312.65   20.80
   7   3  -4  314.40   21.71
  -7   3   4  279.46   22.76
  -7   3   4  327.08   23.85
   7   3  -4  330.81   21.47
   7   3  -4  323.54   29.01
  -7   3   4  319.53   20.82
  -7   3   4  232.15   42.99
  -7   3   4  324.41   24.39
   7   3  -3  721.25   31.09
  -7   3   3  729.04   36.38
   7   3  -3  798.18   34.44
  -7   3   3  734.07   36.04
  -7   3   3  725.95   34.82
   7   3  -3  857.21   48.64
  -7   3   3  726.72   31.43
  -7   3   3  745.60   38.25
   7   3  -2  936.26   34.72
  -7   3   2  947.69   43.02
  -7   3   2  904.92   40.41
   7   3  -2 1005.89   39.24
  -7   3   2  914.64   38.47
   7   3  -2  969.97   32.71
  -7   3   2  856.56   47.51
   7   3  -2 1076.03   56.08
  -7   3   2  927.88   35.58
  -7   3   2  949.53   44.86
  -7   3   1  110.51   15.26
   7   3  -1  124.19   14.08
  -7   3   1  105.65   13.81
  -7   3   1  114.83   13.49
   7   3  -1  112.91   11.47
  -7   3   1   84.93   16.42
   7   3  -1  138.15   20.36
  -7   3   1  109.85   12.45
  -7   3   1  101.75   15.78
  -7   3   1   60.91   18.39
  -7   3   0  139.13   17.88
   7   3   0  140.49   14.66
  -7   3   0  140.92   16.19
   7   3   0  151.28   14.19
  -7   3   0  126.95   14.04
  -7   3   0  126.69   20.43
   7   3   0  180.91   23.46
  -7   3   0  143.99   14.48
  -7   3   0  146.51   18.86
  -7   3  -1  199.35   21.44
   7   3   1  208.28   17.54
  -7   3  -1  189.74   18.63
   7   3   1  198.25   16.75
  -7   3  -1  171.02   16.12
  -7   3  -1  149.32   22.41
   7   3   1  212.45   26.11
  -7   3  -1  187.16   16.40
  -7   3  -1  166.62   20.91
  -7   3  -2  499.33   33.62
  -7   3  -2  441.54   28.60
   7   3   2  472.00   25.45
   7   3   2  452.28   25.68
  -7   3  -2  443.75   25.64
  -7   3  -2  409.28   36.58
   7   3   2  474.14   38.42
  -7   3  -2  462.41   26.38
  -7   3  -2  392.57   32.83
  -7   3  -3  184.92   18.05
   7   3   3  218.35   17.39
  -7   3  -3  233.53   21.36
  -7   3  -3  205.61   16.60
  -7   3  -3  197.63   25.38
   7   3   3  204.90   24.76
  -7   3  -3  192.89   16.73
  -7   3  -3  146.99   19.46
  -7   3  -4   70.22   10.30
   7   3   4   80.75    9.76
  -7   3  -4   77.31    9.25
  -7   3  -4   72.89   13.79
  -7   3  -4  113.71   13.80
   7   3   4   64.20    8.30
  -7   3  -4   83.24   13.39
  -7   3  -5   40.27    6.94
   7   3   5   47.75    6.67
  -7   3  -5   46.76   10.88
  -7   3  -5   65.26   10.40
   7   3   5   35.52    5.70
   7   4 -11    3.15    2.36
   7   4 -11    3.95    2.37
  -7   4  11    4.32    2.91
   7   4 -11    3.36    2.67
  -7   4  11    3.04    1.95
   7   4 -10  141.71   14.69
   7   4 -10  140.30   12.75
   7   4 -10  161.23   12.94
   7   4 -10  127.25   12.79
  -7   4  10  167.31   15.30
  -7   4  10  160.85   14.74
   7   4 -10  143.59   15.57
   7   4 -10  134.19   12.32
   7   4  -9  295.37   23.18
   7   4  -9  336.08   20.47
   7   4  -9  279.84   21.10
  -7   4   9  328.87   23.50
  -7   4   9  373.11   24.68
   7   4  -9  325.45   25.39
   7   4  -9  309.96   20.51
  -7   4   9  202.49   35.49
   7   4  -9  273.77   19.17
   7   4  -8  305.85   20.81
   7   4  -8  389.67   23.64
   7   4  -8  285.99   22.24
  -7   4   8  323.70   24.72
  -7   4   8  354.54   25.24
   7   4  -8  333.77   27.30
  -7   4   8  271.72   44.84
  -7   4   8  325.04   21.94
   7   4  -8  272.65   23.18
   7   4  -8  258.78   19.10
   7   4  -7  117.67   12.87
   7   4  -7  149.34   14.88
   7   4  -7  105.76   14.66
  -7   4   7  129.36   15.74
  -7   4   7  144.76   16.38
   7   4  -7  123.95   17.03
   7   4  -7  150.49   13.80
  -7   4   7  132.80   14.97
  -7   4   7  104.01   30.94
   7   4  -7  105.81   12.11
   7   4  -6  225.18   17.29
   7   4  -6  265.35   19.95
   7   4  -6  197.58   19.90
  -7   4   6  267.70   22.38
  -7   4   6  271.15   22.32
   7   4  -6  273.01   19.44
  -7   4   6  268.84   22.09
  -7   4   6  177.43   39.20
   7   4  -5  637.06   31.01
   7   4  -5  638.64   35.24
  -7   4   5  662.43   35.59
  -7   4   5  629.37   33.42
   7   4  -5  681.68   31.69
   7   4  -5  644.72   39.43
  -7   4   5  650.59   35.35
   7   4  -4  718.79   32.24
   7   4  -4  788.45   37.80
  -7   4   4  813.42   38.69
  -7   4   4  785.67   36.83
   7   4  -4  857.38   36.41
   7   4  -4  772.81   45.45
  -7   4   4  802.44   40.35
   7   4  -3  146.64   13.96
  -7   4   3  156.54   16.68
  -7   4   3  139.34   15.92
  -7   4   3  145.75   15.25
   7   4  -3  152.21   15.22
  -7   4   3   86.91   14.75
   7   4  -3  135.22   20.03
  -7   4   3  132.71   17.12
  -7   4   3   94.83   26.97
  -7   4   2   75.69   11.83
  -7   4   2   64.45   10.80
  -7   4   2   65.82   10.23
   7   4  -2   71.10   10.64
   7   4  -2   55.31    8.06
  -7   4   2   47.03   11.47
  -7   4   2   67.38   12.65
   7   4  -2   66.27   14.19
  -7   4   2   57.23   20.62
  -7   4   1  543.51   33.93
  -7   4   1  590.94   40.44
  -7   4   1  550.21   30.85
   7   4  -1  544.29   29.33
  -7   4   1  567.64   28.76
   7   4  -1  557.23   26.98
  -7   4   1  536.41   40.15
   7   4  -1  652.45   47.00
  -7   4   1  527.44   35.50
  -7   4   0  492.25   32.80
  -7   4   0  547.53   39.04
  -7   4   0  554.97   30.84
   7   4   0  531.16   28.36
   7   4   0  528.05   27.03
  -7   4   0  567.12   28.13
  -7   4   0  481.21   38.91
   7   4   0  592.98   44.98
  -7   4   0  526.30   36.07
  -7   4  -1  304.67   27.26
  -7   4  -1  275.27   24.45
  -7   4  -1  265.30   21.19
   7   4   1  264.61   19.84
   7   4   1  262.48   19.11
  -7   4  -1  292.76   19.62
  -7   4  -1  257.58   28.25
   7   4   1  295.08   31.33
  -7   4  -1  248.80   24.92
   7   4   2    4.42    2.53
  -7   4  -2    6.55    3.31
   7   4   2   11.75    4.06
  -7   4  -2    8.82    5.97
  -7   4  -2    5.21    2.27
   7   4   2    5.02    6.48
  -7   4  -2    4.15    2.99
  -7   4  -2   13.94    6.55
  -7   4  -3   83.30   10.80
  -7   4  -3  112.25   14.04
   7   4   3   94.44   10.64
  -7   4  -3   89.66   15.65
   7   4   3   91.58   16.07
  -7   4  -3   88.55   14.05
  -7   4  -4  221.85   15.38
   7   4   4  252.25   15.82
  -7   4  -4  265.74   23.88
  -7   4  -4  301.90   20.18
  -7   4  -4  238.42   20.09
   7   5  -9  125.37   10.92
   7   5  -9  110.36   13.05
   7   5  -9  163.52   13.29
  -7   5   9  143.84   12.93
  -7   5   9  169.41   13.82
  -7   5   9   95.92   21.71
   7   5  -9  103.63    9.76
   7   5  -8   64.29    8.74
   7   5  -8   35.46    7.76
   7   5  -8   40.35    6.52
  -7   5   8   56.07    8.56
  -7   5   8   43.05    7.64
  -7   5   8   29.61   13.92
  -7   5   8   42.01    7.52
   7   5  -8   59.65    7.32
   7   5  -8   40.77    7.01
   7   5  -7  454.11   22.85
   7   5  -7  575.98   27.94
   7   5  -7  471.34   30.17
  -7   5   7  600.77   30.34
  -7   5   7  609.40   29.73
  -7   5   7  388.78   52.52
  -7   5   7  598.13   30.64
   7   5  -7  631.70   27.30
   7   5  -6  662.04   30.46
   7   5  -6  566.30   33.24
  -7   5   6  689.67   33.55
  -7   5   6  744.09   33.13
  -7   5   6  564.02   65.54
   7   5  -6  759.89   32.02
  -7   5   6  689.71   34.86
   7   5  -5  161.25   14.84
   7   5  -5  133.35   16.28
  -7   5   5  161.64   16.27
  -7   5   5  192.93   16.79
   7   5  -5  186.76   16.55
  -7   5   5  180.68   18.47
   7   5  -4  125.30   13.43
  -7   5   4  149.01   15.65
  -7   5   4  151.50   14.63
   7   5  -4  130.17   18.71
   7   5  -4  168.98   15.73
  -7   5   4  144.38   17.29
  -7   5   4  121.66   29.13
  -7   5   3  287.81   21.51
  -7   5   3  303.06   20.27
  -7   5   3  197.53   22.41
   7   5  -3  304.90   21.82
   7   5  -3  276.43   28.63
  -7   5   3  309.66   25.76
  -7   5   3  202.86   36.33
  -7   5   2  539.58   30.97
  -7   5   2  506.24   27.98
  -7   5   2  529.19   25.86
   7   5  -2  503.07   24.46
  -7   5   2  429.62   33.20
   7   5  -2  495.02   27.66
   7   5  -2  515.53   41.19
  -7   5   2  503.87   33.20
  -7   5   1  264.28   22.14
  -7   5   1  262.59   19.73
  -7   5   1  279.15   17.92
   7   5  -1  262.52   18.05
  -7   5   1  236.06   25.28
   7   5  -1  261.21   19.96
   7   5  -1  304.29   31.55
  -7   5   1  280.06   25.31
  -7   5   0   33.12    6.61
   7   5   0   28.20    6.44
   7   5   0   32.59    6.33
  -7   5   0   17.96    6.90
  -7   5   0   31.13    7.53
   7   5   0   46.30   12.71
  -7   5   0   27.12    8.76
  -7   5  -1  139.23   15.70
  -7   5  -1  125.51   12.48
   7   5   1  108.36   11.42
  -7   5  -1  109.73   17.30
   7   5   1  114.62   11.73
   7   5   1  137.39   21.01
  -7   5  -1  117.75   15.85
  -7   5  -2  314.08   22.48
  -7   5  -2  277.01   17.26
   7   5   2  272.93   17.23
  -7   5  -2  268.86   25.45
   7   5   2  338.78   32.01
  -7   5  -2  279.60   23.31
   7   5   3  145.17   12.09
  -7   5  -3  135.76   16.91
   7   5   3  161.35   19.99
  -7   5  -3  157.62   15.36
   7   6  -7    3.45    2.41
   7   6  -7    1.84    1.95
  -7   6   7    9.70    8.85
  -7   6   7    3.59    2.40
   7   6  -7    4.19    2.16
   7   6  -6   11.02    4.25
   7   6  -6   15.66    4.23
  -7   6   6   15.21    4.00
  -7   6   6   21.58    4.59
   7   6  -6   21.37    4.98
  -7   6   6   14.55    7.28
  -7   6   6   17.47    4.77
   7   6  -5  181.94   13.63
  -7   6   5  195.78   14.53
  -7   6   5  211.50   18.07
   7   6  -5  251.01   17.05
  -7   6   5  143.37   28.09
  -7   6   4  280.29   17.47
   7   6  -4  252.74   17.96
  -7   6   4  298.46   22.33
  -7   6   3  311.02   18.20
   7   6  -3  353.64   30.35
   7   6  -3  332.53   20.57
  -7   6   3  332.38   24.31
   7   6  -2    3.58    2.54
  -7   6   2    2.60    3.29
   7   6  -2    4.64    4.44
  -7   6   2    4.06    2.49
  -7   6   1   99.57   11.41
   7   6  -1  116.90   10.64
  -7   6   1   88.04   13.28
   7   6  -1  110.45   11.04
  -7   6   1  105.08   13.49
   7   6  -1  107.15   16.81
  -7   6   0  462.31   24.45
   7   6   0  417.42   19.78
  -7   6   0  391.52   27.47
   7   6   0  433.27   20.64
  -7   6   0  443.66   27.03
  -7   6  -1  236.69   16.54
   7   6   1  220.06   13.60
  -7   6  -1  189.43   18.24
   7   6   1  251.31   25.70
  -7   6  -1  193.34   16.67
   8  -6  -6   24.70    4.78
  -8  -6   6   39.58    5.35
   8  -6  -6   42.52    5.61
   8  -6  -5   54.95    6.88
  -8  -6   5   69.52    7.29
  -8  -6   5   80.93    7.74
   8  -6  -5   71.43    7.19
   8  -6  -4  374.40   17.34
  -8  -6   4  403.19   17.41
  -8  -6   3  321.92   15.32
   8  -6  -3  325.72   15.03
   8  -6  -2    6.67    2.65
  -8  -6   2   10.45    2.78
  -8  -6   2   14.63    3.24
   8  -6  -1   61.65    7.02
   8  -5  -9  212.83   13.84
  -8  -5   9  230.42   12.84
   8  -5  -9  230.46   12.89
   8  -5  -8    7.95    3.14
   8  -5  -8    5.20    2.42
  -8  -5   8    4.35    1.80
  -8  -5   8    9.11    2.91
  -8  -5   8    5.51    2.58
   8  -5  -7  431.86   22.21
  -8  -5   7  422.90   20.08
  -8  -5   7  423.82   22.03
  -8  -5   7  465.05   21.38
   8  -5  -7  452.77   21.09
   8  -5  -6  660.95   28.43
  -8  -5   6  670.72   26.15
  -8  -5   6  661.68   28.68
  -8  -5   6  716.80   27.35
   8  -5  -6  715.80   26.97
   8  -5  -5  215.74   15.50
   8  -5  -5  208.03   15.84
  -8  -5   5  209.65   14.81
  -8  -5   5  226.44   17.19
  -8  -5   5  245.64   16.27
   8  -5  -5  239.47   15.73
   8  -5  -4    2.31    2.06
   8  -5  -4    3.14    2.67
   8  -5  -4   -0.15    0.67
  -8  -5   4    1.51    1.92
  -8  -5   4    1.51    1.97
  -8  -5   4    1.36    1.36
   8  -5  -3  123.39   11.43
  -8  -5   3  146.71   12.22
  -8  -5   3  162.54   14.64
  -8  -5   3  168.42   13.00
   8  -5  -3  153.04   12.01
  -8  -5   2  693.74   25.65
  -8  -5   2  726.35   30.51
  -8  -5   2  779.71   27.17
   8  -5  -2  702.05   24.52
  -8  -5   1  286.21   15.71
  -8  -5   1  308.64   19.15
  -8  -5   1  327.97   16.80
  -8  -5   0   33.05    5.14
  -8  -5   0   45.75    7.27
  -8  -5   0   46.25    5.91
   8  -5   1    4.23    2.35
  -8  -5  -1   39.42    6.33
   8  -4 -10   52.64    7.29
  -8  -4  10   37.31    5.85
  -8  -4  10   57.29    7.33
   8  -4 -10   50.16    6.64
   8  -4  -9  452.99   24.02
  -8  -4   9  505.18   24.65
   8  -4  -9  522.53   22.99
   8  -4  -8  488.95   25.88
  -8  -4   8  465.99   23.18
  -8  -4   8  500.77   26.34
   8  -4  -8  499.35   24.02
   8  -4  -7  205.36   14.30
  -8  -4   7  173.90   14.33
  -8  -4   7  194.27   16.96
   8  -4  -7  185.00   16.20
  -8  -4   7  207.97   15.73
   8  -4  -7  195.21   15.19
   8  -4  -6   10.30    3.91
   8  -4  -6   12.05    4.55
   8  -4  -6    9.43    3.53
  -8  -4   6    7.85    3.24
  -8  -4   6   13.38    4.02
  -8  -4   6   11.64    4.32
   8  -4  -5  322.49   21.75
   8  -4  -5  298.23   20.15
  -8  -4   5  307.01   19.15
  -8  -4   5  291.20   21.65
  -8  -4   5  301.10   19.10
   8  -4  -5  303.24   18.91
   8  -4  -4  514.13   29.25
   8  -4  -4  579.67   27.44
  -8  -4   4  593.97   26.15
  -8  -4   4  583.39   30.79
  -8  -4   4  649.94   27.81
   8  -4  -4  608.57   26.35
   8  -4  -3  688.18   34.28
   8  -4  -3  673.54   28.35
  -8  -4   3  715.83   28.39
  -8  -4   3  695.14   33.38
  -8  -4   3  771.67   29.32
   8  -4  -3  738.84   27.78
  -8  -4   2   69.19    8.48
  -8  -4   2   58.59    9.33
  -8  -4   2   72.50    8.91
   8  -4  -2   70.00    8.06
  -8  -4   1  185.74   13.51
  -8  -4   1  187.14   16.71
  -8  -4   1  199.97   13.99
  -8  -4   0  743.23   32.89
  -8  -4   0  772.95   26.25
   8  -4   1  231.81   17.64
  -8  -4  -1  528.74   26.48
   8  -4   2    9.46    3.35
  -8  -4  -2   44.57    7.13
  -8  -4  -3    0.51    0.57
   8  -3 -11  324.05   17.52
  -8  -3  11  355.15   19.29
   8  -3 -11  341.54   17.00
   8  -3 -10  365.63   21.70
  -8  -3  10  437.73   23.52
   8  -3 -10  413.80   21.16
  -8  -3   9  154.04   15.03
  -8  -3   9  124.52   12.85
   8  -3  -9  156.42   14.85
   8  -3  -9  160.32   14.08
   8  -3  -8   18.16    5.30
   8  -3  -8   28.16    6.06
  -8  -3   8   26.93    6.49
  -8  -3   8   20.81    5.64
   8  -3  -7  220.67   16.70
   8  -3  -7  210.05   18.12
  -8  -3   7  189.98   15.45
  -8  -3   7  223.94   19.13
  -8  -3   7  182.99   17.13
   8  -3  -7  223.40   17.25
   8  -3  -6  820.10   33.22
   8  -3  -6  709.89   32.80
  -8  -3   6  739.12   29.98
  -8  -3   6  783.09   35.72
  -8  -3   6  702.25   33.95
   8  -3  -6  793.53   31.43
   8  -3  -5  515.74   28.69
   8  -3  -5  501.27   26.81
  -8  -3   5  455.94   22.66
  -8  -3   5  507.27   28.75
  -8  -3   5  490.80   27.89
  -8  -3   5  520.57   24.79
   8  -3  -5  511.11   24.68
   8  -3  -4  134.53   16.92
   8  -3  -4  145.68   13.91
  -8  -3   4  172.10   16.65
  -8  -3   4  165.99   16.29
  -8  -3   4  174.91   13.96
   8  -3  -4  169.79   13.83
   8  -3  -3   55.78   10.83
   8  -3  -3   48.01    7.55
  -8  -3   3   73.29   10.95
  -8  -3   3   52.05    8.94
  -8  -3   3   65.06    8.28
   8  -3  -3   64.52    8.09
   8  -3  -2 1506.91   52.49
  -8  -3   2 1522.15   49.94
  -8  -3   2 1496.34   48.33
  -8  -3   2 1531.09   39.28
   8  -3  -1  602.42   32.66
  -8  -3   1  648.62   31.80
  -8  -3   0  187.25   17.20
  -8  -3   0  173.13   16.18
   8  -3   1    9.64    4.23
  -8  -3  -1   29.62    6.64
  -8  -3  -1   21.10    5.90
   8  -3   2  174.09   14.14
  -8  -3  -2  545.76   27.75
  -8  -3  -3  245.71   17.56
  -8  -3  -4  119.54   10.91
   8  -2 -12  468.00   20.61
   8  -2 -12  505.41   19.68
   8  -2 -11  133.12   13.58
  -8  -2  11  161.44   13.84
  -8  -2  11  147.81   13.36
   8  -2 -11  170.10   13.08
   8  -2 -10   27.97    6.50
  -8  -2  10   26.51    6.51
  -8  -2  10   21.03    5.35
   8  -2 -10   35.19    6.70
  -8  -2   9  363.25   23.69
  -8  -2   9  347.86   23.97
   8  -2  -9  369.61   24.11
   8  -2  -9  337.74   21.12
   8  -2  -8  567.64   26.17
   8  -2  -8  555.90   29.53
  -8  -2   8  539.11   29.60
  -8  -2   8  516.46   30.02
   8  -2  -8  555.52   27.10
   8  -2  -7  239.60   17.69
   8  -2  -7  232.90   19.51
  -8  -2   7  229.83   18.90
  -8  -2   7  226.11   19.92
   8  -2  -7  251.72   18.19
   8  -2  -6   82.57   10.42
  -8  -2   6   71.05   10.41
   8  -2  -6   72.58   10.84
  -8  -2   6   74.34   11.41
  -8  -2   6   81.77   15.64
   8  -2  -6   84.99   10.38
   8  -2  -5  169.82   15.48
   8  -2  -5  132.14   13.91
  -8  -2   5  125.21   13.78
  -8  -2   5  129.32   14.90
  -8  -2   5  149.52   21.89
   8  -2  -5  124.01   12.20
   8  -2  -4 1419.53   45.96
   8  -2  -4 1060.10   37.26
  -8  -2   4 1077.25   40.42
  -8  -2   4 1134.64   44.51
  -8  -2   4 1328.85   66.65
  -8  -2   4 1099.55   33.04
   8  -2  -4 1093.29   34.12
   8  -2  -3  947.06   38.80
  -8  -2   3  854.73   35.87
  -8  -2   3  876.23   38.72
   8  -2  -3  886.04   29.16
   8  -2  -2  315.99   23.44
  -8  -2   2  357.26   23.25
  -8  -2   2  369.25   25.22
   8  -2  -1   12.73    5.42
  -8  -2   1   19.90    5.48
  -8  -2   1   23.92    6.44
  -8  -2   1   17.31    5.12
  -8  -2   0  651.42   31.53
  -8  -2   0  625.50   31.12
  -8  -2   0  626.30   33.35
  -8  -2  -1  605.52   30.43
  -8  -2  -1  582.73   30.51
  -8  -2  -1  597.48   32.52
  -8  -2  -2   88.72   11.32
  -8  -2  -2   73.42   10.69
  -8  -2  -2   85.71   12.19
  -8  -2  -3   44.49    7.65
  -8  -2  -3   41.83    8.05
  -8  -2  -3   41.98    7.74
  -8  -2  -4   82.32    9.79
  -8  -2  -4   61.32    8.38
  -8  -2  -4   71.77    9.75
   8  -1 -12    4.47    2.40
   8  -1 -12    0.74    0.90
  -8  -1  12    0.59    1.30
  -8  -1  12    1.18    1.40
   8  -1 -11  149.08   14.12
  -8  -1  11  142.87   13.52
  -8  -1  11  151.21   14.58
   8  -1 -11  138.38   12.43
   8  -1 -11  146.76   13.09
   8  -1 -10  408.09   25.10
  -8  -1  10  378.25   23.51
  -8  -1  10  374.53   25.32
   8  -1 -10  385.59   22.89
   8  -1  -9  130.23   12.87
   8  -1  -9  126.41   14.74
  -8  -1   9  148.18   15.31
  -8  -1   9  140.50   15.71
   8  -1  -9  126.05   13.79
   8  -1  -8   62.13    9.48
   8  -1  -8   66.65   10.75
  -8  -1   8   60.77    9.78
  -8  -1   8   69.34   11.08
   8  -1  -8   74.13   10.22
   8  -1  -7  546.96   27.14
   8  -1  -7  549.84   29.27
  -8  -1   7  551.67   28.23
  -8  -1   7  571.45   32.52
  -8  -1   7  455.19   39.36
   8  -1  -7  550.67   26.74
   8  -1  -6  744.15   31.73
  -8  -1   6  716.12   31.45
   8  -1  -6  671.38   31.94
  -8  -1   6  695.22   35.34
   8  -1  -6  731.95   30.25
   8  -1  -5  464.16   25.31
   8  -1  -5  379.01   22.99
  -8  -1   5  397.79   23.02
  -8  -1   5  403.84   26.62
   8  -1  -5  407.94   21.21
   8  -1  -4   71.14    9.94
   8  -1  -4   41.95    7.50
  -8  -1   4   56.11    8.65
  -8  -1   4   52.43    8.24
  -8  -1   4   57.96   10.23
  -8  -1   4   55.16   15.04
   8  -1  -4   57.03    7.70
   8  -1  -3  301.85   20.68
  -8  -1   3  247.61   18.19
  -8  -1   3  246.34   18.59
  -8  -1   3  247.95   20.80
  -8  -1   3  240.91   31.26
   8  -1  -2  729.73   31.84
  -8  -1   2  613.80   28.77
  -8  -1   2  610.36   29.94
  -8  -1   2  587.97   32.05
  -8  -1   2  741.85   52.86
   8  -1  -1  927.48   36.22
  -8  -1   1  779.49   32.80
  -8  -1   1  769.52   34.79
  -8  -1   1  746.75   36.73
  -8  -1   1  995.92   57.79
   8  -1   0  408.78   23.32
  -8  -1   0  326.89   23.04
  -8  -1   0  385.97   23.20
  -8  -1   0  379.10   25.17
  -8  -1   0  381.42   26.44
   8  -1   1    8.69    3.50
  -8  -1  -1    9.15    5.00
  -8  -1  -1    9.48    3.60
  -8  -1  -1    6.69    3.53
  -8  -1  -1    8.61    4.47
  -8  -1  -1   10.32    4.93
  -8  -1  -2  362.06   25.10
  -8  -1  -2  436.51   24.96
  -8  -1  -2  397.87   26.43
  -8  -1  -2  385.22   26.78
  -8  -1  -2  429.48   30.14
  -8  -1  -3  374.51   24.43
  -8  -1  -3  476.23   25.35
  -8  -1  -3  461.69   27.42
  -8  -1  -3  429.71   27.46
  -8  -1  -3  450.77   29.98
  -8  -1  -4   85.74   10.56
  -8  -1  -4  128.79   12.25
  -8  -1  -4  123.74   12.97
  -8  -1  -4  117.62   13.33
  -8  -1  -4  123.07   14.24
   8  -1   5    1.02    1.74
  -8  -1  -5    3.15    1.82
  -8  -1  -5    3.32    2.61
  -8  -1  -5    1.12    1.48
   8   0 -12  900.65   29.61
   8   0 -12  837.30   30.31
   8   0 -12  777.04   32.49
  -8   0  12  991.69   34.57
   8   0 -12  739.86   26.59
   8   0 -11   80.49   10.91
  -8   0  11   67.24    8.63
   8   0 -11   57.90   10.35
  -8   0  11   93.32   11.86
   8   0 -11   74.82    9.58
   8   0 -11   77.18   10.64
   8   0 -10  298.38   18.85
   8   0 -10  333.23   23.55
   8   0 -10  270.14   23.06
  -8   0  10  283.50   20.00
  -8   0  10  342.85   24.36
   8   0 -10  339.48   21.75
   8   0  -9   44.89    8.86
   8   0  -9   51.55    9.22
  -8   0   9   50.63    8.42
   8   0  -9   52.93   10.01
  -8   0   9   66.04   11.45
   8   0  -9   53.63    9.11
   8   0  -8 1130.31   39.87
   8   0  -8 1217.20   45.30
  -8   0   8 1078.61   40.70
  -8   0   8 1127.82   39.11
  -8   0   8 1089.86   40.34
  -8   0   8 1146.99   46.34
   8   0  -8 1203.99   41.01
   8   0  -7   93.84   11.68
   8   0  -7   81.99   11.92
  -8   0   7   84.05   11.14
  -8   0   7   98.22   11.13
  -8   0   7   84.86   11.32
  -8   0   7   87.29   12.50
  -8   0   7   55.92   15.78
   8   0  -7   93.31   11.60
   8   0  -6   40.43    7.90
   8   0  -6   33.19    7.31
  -8   0   6   33.43    7.33
  -8   0   6   37.45    6.66
  -8   0   6   29.06    7.42
  -8   0   6   41.78    7.96
  -8   0   6   16.06   11.05
   8   0  -6   35.78    7.00
   8   0  -5  431.49   24.80
   8   0  -5  399.75   23.61
   8   0  -5  382.23   22.26
  -8   0   5  389.27   23.99
  -8   0   5  409.25   21.77
  -8   0   5  422.83   25.12
  -8   0   5  324.87   24.01
   8   0  -5  405.42   21.46
   8   0  -4 2370.79   56.84
   8   0  -4 2016.08   52.11
   8   0  -4 2003.92   55.56
  -8   0   4 2178.97   57.13
  -8   0   4 2280.57   51.44
  -8   0   4 2165.41   56.56
  -8   0   4 2046.35   60.18
  -8   0   3 1142.55   41.50
  -8   0   3 1127.13   36.16
  -8   0   3 1127.57   41.31
  -8   0   3 1182.40   45.51
   8   0  -2  288.03   19.05
  -8   0   2  233.29   19.03
  -8   0   2  246.90   16.96
  -8   0   2  252.69   19.87
  -8   0   2  213.54   24.24
  -8   0   2  261.92   21.53
  -8   0   2  211.43   29.62
   8   0  -1 1164.96   38.07
  -8   0   1 1074.88   42.69
  -8   0   1 1057.14   35.95
  -8   0   1 1095.25   42.35
  -8   0   1 1003.21   55.34
  -8   0   1 1088.95   44.26
  -8   0   1 1092.59   64.76
   8   0   0  412.51   21.66
  -8   0   0  384.11   26.25
  -8   0   0  379.68   22.00
  -8   0   0  397.93   26.09
  -8   0   0  359.00   34.89
  -8   0   0  396.95   27.24
  -8   0   0  353.70   28.02
  -8   0  -1   42.09    8.92
  -8   0  -1   54.26    8.53
  -8   0  -1   50.80    9.79
  -8   0  -1   44.26   12.95
  -8   0  -1   39.52    8.74
  -8   0  -1   38.93    9.93
  -8   0  -2    6.75    3.83
  -8   0  -2    6.31    2.68
  -8   0  -2   -0.66    2.43
  -8   0  -2    4.09    2.97
  -8   0  -2    4.88    3.02
  -8   0  -2    4.08    3.77
   8   0   2    1.48    1.40
  -8   0  -3   11.47    4.50
  -8   0  -3   14.97    4.48
  -8   0  -3    4.68    5.08
  -8   0  -3   15.72    5.47
  -8   0  -3   15.24    4.96
  -8   0  -3   13.20    5.53
   8   0   3    6.69    2.46
   8   0   4   77.83    9.66
  -8   0  -4  140.79   14.61
   8   0   4   63.29   10.49
  -8   0  -4  163.43   13.41
  -8   0  -4  159.65   15.05
  -8   0  -4  135.41   14.79
  -8   0  -4  136.45   16.25
  -8   0  -5   60.00    8.06
  -8   0  -5   91.69    9.97
  -8   0  -5   57.95    8.56
  -8   0  -5   80.73   10.56
   8   1 -12    2.36    1.52
   8   1 -12    4.43    2.04
   8   1 -12    3.39    2.76
  -8   1  12    3.44    1.89
   8   1 -11  142.84   13.46
   8   1 -11  155.37   15.19
  -8   1  11  114.11   12.13
   8   1 -11  111.64   14.43
  -8   1  11  168.72   15.49
   8   1 -11  103.52   11.47
   8   1 -10  381.88   20.64
   8   1 -10  382.06   25.15
  -8   1  10  341.12   23.30
   8   1 -10  296.81   24.90
  -8   1  10  350.16   22.45
  -8   1  10  378.50   25.05
   8   1 -10  367.67   22.82
   8   1  -9  162.31   14.74
   8   1  -9  140.06   15.94
  -8   1   9  130.12   14.88
   8   1  -9  124.75   16.26
  -8   1   9  136.51   14.98
  -8   1   9  161.86   17.02
   8   1  -9  153.66   14.92
   8   1  -8   78.02   10.61
   8   1  -8   75.77   11.73
  -8   1   8   63.50   10.59
  -8   1   8   64.38   10.50
   8   1  -8   48.04   10.02
  -8   1   8   70.91   11.44
  -8   1   8   28.82   13.50
   8   1  -8   75.35   10.26
   8   1  -7  520.26   27.80
   8   1  -7  485.66   28.63
  -8   1   7  494.08   29.62
   8   1  -7  440.48   29.07
  -8   1   7  456.20   28.13
  -8   1   7  496.30   29.90
   8   1  -7  483.61   25.77
   8   1  -6  598.78   30.04
   8   1  -6  695.57   33.40
  -8   1   6  717.53   35.38
   8   1  -6  753.96   29.15
  -8   1   6  689.85   34.30
  -8   1   6  712.78   35.46
   8   1  -6  701.42   29.52
   8   1  -5  370.55   23.09
   8   1  -5  340.52   22.52
   8   1  -5  385.28   21.93
  -8   1   5  348.70   24.35
  -8   1   5  367.98   24.83
  -8   1   5  326.37   23.77
   8   1  -4   43.56    8.48
   8   1  -4   62.65    9.17
  -8   1   4   43.98    8.76
  -8   1   4   49.87    9.12
  -8   1   4   59.78    9.99
  -8   1   4   21.02   13.14
   8   1  -3  303.52   20.25
   8   1  -3  260.50   20.12
  -8   1   3  276.63   21.42
  -8   1   3  288.08   21.78
  -8   1   3  275.89   21.81
   8   1  -2  571.24   27.27
   8   1  -2  595.70   31.51
  -8   1   2  567.45   31.45
  -8   1   2  585.40   30.92
   8   1  -2  394.43   22.69
  -8   1   2  482.02   37.14
  -8   1   2  590.45   31.84
  -8   1   2  373.72   42.47
  -8   1   2  501.23   31.71
   8   1  -1  783.32   30.54
   8   1  -1  771.69   36.83
  -8   1   1  755.02   36.96
  -8   1   1  777.02   36.44
  -8   1   1  733.30   47.06
  -8   1   1  748.65   36.35
  -8   1   1  633.59   49.39
  -8   1   1  669.88   38.90
   8   1   0  313.12   24.57
  -8   1   0  355.44   25.93
  -8   1   0  377.18   25.57
  -8   1   0  344.82   32.99
  -8   1   0  360.40   25.28
  -8   1   0  345.46   33.37
  -8   1   0  325.98   28.20
  -8   1  -1    8.07    4.56
  -8   1  -1    2.55    3.17
  -8   1  -1    5.06    3.32
  -8   1  -1   10.08    4.56
   8   1   1    3.86    3.91
  -8   1  -1    4.74    3.53
   8   1   1   -0.63    2.18
   8   1   2  353.70   24.92
  -8   1  -2  401.06   27.88
  -8   1  -2  473.22   29.02
  -8   1  -2  481.82   41.22
   8   1   2  429.17   31.45
  -8   1  -2  465.72   28.79
  -8   1  -2  394.60   31.73
   8   1   3  391.11   23.08
  -8   1  -3  342.15   24.78
   8   1   3  330.61   24.06
  -8   1  -3  437.78   26.53
  -8   1  -3  418.59   38.11
  -8   1  -3  411.88   26.27
  -8   1  -3  419.73   31.47
  -8   1  -4   90.24   11.77
   8   1   4   93.65   11.13
  -8   1  -4  146.22   20.06
  -8   1  -4  128.32   12.93
  -8   1  -4  114.35   12.98
  -8   1  -4  114.94   14.66
  -8   1  -5    0.02    1.05
   8   1   5    1.27    1.40
  -8   1  -5    2.31    2.17
  -8   1  -5    1.88    1.58
  -8   1  -5    4.94    2.93
   8   2 -12  506.03   21.41
   8   2 -12  478.10   22.84
   8   2 -12  506.82   25.32
   8   2 -11  143.57   12.83
   8   2 -11  142.50   14.43
   8   2 -11  146.60   11.38
  -8   2  11  130.39   13.49
   8   2 -11  133.74   15.27
  -8   2  11  153.70   13.71
  -8   2  11  155.48   13.52
   8   2 -10   26.09    6.85
   8   2 -10   42.02    6.74
   8   2 -10   31.79    6.60
  -8   2  10   20.90    5.77
   8   2 -10   27.91    7.92
  -8   2  10   29.70    6.41
  -8   2  10   30.22    6.89
   8   2  -9  322.16   21.33
   8   2  -9  327.72   20.97
   8   2  -9  273.41   22.24
  -8   2   9  265.77   22.15
   8   2  -9  258.87   23.72
  -8   2   9  282.19   22.26
  -8   2   9  301.48   21.70
   8   2  -8  458.15   25.15
   8   2  -8  496.01   27.25
   8   2  -8  440.77   28.15
  -8   2   8  457.23   29.45
   8   2  -8  387.24   29.05
  -8   2   8  451.83   29.26
  -8   2   8  484.94   28.29
   8   2  -7  210.92   17.24
   8   2  -7  249.57   20.01
   8   2  -7  213.72   19.60
  -8   2   7  251.86   22.00
   8   2  -7  208.82   20.96
  -8   2   7  242.25   21.17
  -8   2   7  228.78   19.63
   8   2  -6   61.00    8.71
   8   2  -6   75.23   11.26
   8   2  -6   63.51   10.74
  -8   2   6   73.64   11.79
  -8   2   6   73.83   11.62
   8   2  -6   70.39   12.26
   8   2  -6   73.30    9.50
  -8   2   6   59.07    9.75
  -8   2   6   36.35   16.99
   8   2  -5  126.11   14.21
   8   2  -5  104.42   12.70
  -8   2   5  112.01   14.32
   8   2  -5  128.70   12.92
  -8   2   5  115.44   14.39
  -8   2   5  127.83   14.38
  -8   2   5   78.80   24.47
   8   2  -4 1030.81   38.92
   8   2  -4 1093.77   39.66
  -8   2   4  989.75   42.81
  -8   2   4 1035.38   42.52
  -8   2   4 1039.36   41.04
   8   2  -3  809.11   33.65
   8   2  -3  927.53   37.55
  -8   2   3  818.15   38.82
  -8   2   3  853.04   38.80
  -8   2   3  868.67   37.16
  -8   2   3  815.59   40.42
  -8   2   3  826.21   41.04
   8   2  -2  320.45   20.46
   8   2  -2  374.00   24.54
  -8   2   2  320.91   24.40
  -8   2   2  327.33   23.67
   8   2  -2  299.45   18.35
  -8   2   2  298.21   28.86
  -8   2   2  317.46   22.49
  -8   2   2  332.26   26.88
  -8   2   2  287.73   25.11
   8   2  -1   29.32    6.73
  -8   2   1   21.80    6.41
  -8   2   1   36.80    8.44
   8   2  -1   29.51    6.16
  -8   2   1   26.43   10.36
  -8   2   1   26.98    6.55
  -8   2   1   33.08    7.47
   8   2  -1   28.07    9.00
  -8   2   1   23.16    7.60
  -8   2   1   15.15    8.27
   8   2   0  622.29   32.45
  -8   2   0  582.28   33.50
   8   2   0  550.82   28.01
  -8   2   0  601.42   31.95
  -8   2   0  564.53   43.47
  -8   2   0  550.06   30.30
  -8   2   0  623.42   38.79
  -8   2   0  545.15   43.06
  -8   2   0  521.50   36.86
   8   2   1  623.07   31.63
  -8   2  -1  510.91   31.64
   8   2   1  567.86   28.88
  -8   2  -1  609.37   32.04
  -8   2  -1  560.55   43.63
   8   2   1  586.27   40.77
  -8   2  -1  553.57   30.21
  -8   2  -1  662.12   39.33
  -8   2  -1  505.60   36.74
   8   2   2   66.56    9.64
  -8   2  -2   56.43   10.23
   8   2   2   65.79    9.98
  -8   2  -2   72.69   10.46
  -8   2  -2   59.44   15.07
  -8   2  -2   59.55    9.87
  -8   2  -2   91.22   13.98
   8   2   2   54.00   11.73
  -8   2  -2   52.20   11.49
   8   2   3   34.43    6.26
  -8   2  -3   31.21    7.65
   8   2   3   33.90    6.92
  -8   2  -3   34.42   11.58
  -8   2  -3   38.30    7.59
  -8   2  -3   40.17    7.54
  -8   2  -3   38.04    9.34
  -8   2  -4   51.92    8.29
   8   2   4   80.82    9.16
  -8   2  -4   80.54    9.41
  -8   2  -4   83.87   15.31
  -8   2  -4   70.77    9.04
   8   2   4   55.45    7.32
  -8   2  -4   63.66   10.59
  -8   2  -5  131.74   11.53
   8   3 -11  311.14   17.73
   8   3 -11  307.40   20.00
   8   3 -11  312.01   16.00
  -8   3  11  327.83   19.84
  -8   3  11  349.71   19.87
   8   3 -11  329.90   21.95
   8   3 -10  359.53   21.16
   8   3 -10  369.18   20.08
   8   3 -10  359.35   23.83
   8   3 -10  299.70   19.38
  -8   3  10  353.23   23.49
  -8   3  10  369.57   23.11
   8   3 -10  378.59   26.37
   8   3  -9  113.81   12.42
   8   3  -9  128.08   13.20
   8   3  -9  112.75   14.01
   8   3  -9   97.30   11.93
  -8   3   9  116.81   14.42
  -8   3   9  119.77   14.01
   8   3  -9  115.95   15.57
  -8   3   9  126.90   13.07
   8   3  -8   13.90    5.20
   8   3  -8   23.04    5.50
   8   3  -8   18.23    5.15
  -8   3   8   25.27    6.93
   8   3  -8   21.60    7.12
  -8   3   8   18.74    4.90
  -8   3   8   15.01    5.58
  -8   3   8   14.88   12.22
   8   3  -7  197.81   16.36
   8   3  -7  234.79   18.90
   8   3  -7  177.23   17.74
  -8   3   7  210.29   20.41
  -8   3   7  218.70   20.28
   8   3  -7  220.23   21.99
   8   3  -7  239.53   17.02
  -8   3   7  222.71   18.18
   8   3  -6  599.87   32.67
  -8   3   6  605.32   34.76
  -8   3   6  641.44   35.13
   8   3  -6  688.84   30.61
   8   3  -6  752.49   41.92
  -8   3   6  694.39   32.09
   8   3  -6  638.08   31.46
   8   3  -5  447.23   26.08
   8   3  -5  403.00   25.63
  -8   3   5  451.04   29.76
  -8   3   5  434.91   28.42
   8   3  -5  450.40   25.51
   8   3  -5  445.17   34.21
  -8   3   5  430.59   25.22
  -8   3   5  415.39   27.64
   8   3  -4  125.69   14.19
  -8   3   4  117.88   15.02
   8   3  -4  155.91   15.27
  -8   3   4  128.12   15.02
   8   3  -4  143.27   20.02
  -8   3   4  117.84   13.16
  -8   3   4  135.06   16.72
  -8   3   4   80.60   23.50
   8   3  -3   71.02   10.54
   8   3  -3   80.88   11.25
  -8   3   3   50.14    9.57
  -8   3   3   72.84   11.20
  -8   3   3   63.32    9.64
  -8   3   3   84.57   13.03
   8   3  -3   76.52   14.68
  -8   3   3   78.65   12.95
  -8   3   3   37.66   17.81
  -8   3   2 1469.10   52.90
   8   3  -2 1613.34   51.22
  -8   3   2 1514.07   50.37
   8   3  -2 1447.59   40.12
  -8   3   2 1401.16   63.18
  -8   3   2 1551.39   57.32
   8   3  -2 1709.48   72.41
  -8   3   2 1479.55   46.27
  -8   3   2 1412.09   57.21
  -8   3   1  647.25   34.96
   8   3  -1  646.86   32.39
  -8   3   1  644.95   32.41
   8   3  -1  663.41   28.37
  -8   3   1  627.23   37.63
  -8   3   1  609.69   42.84
   8   3  -1  724.29   47.71
  -8   3   1  636.07   30.25
  -8   3   1  528.98   35.91
  -8   3   0  172.64   18.15
   8   3   0  175.76   16.45
   8   3   0  174.11   14.67
  -8   3   0  167.42   16.14
  -8   3   0  150.86   22.43
  -8   3   0  186.67   21.02
   8   3   0  191.41   24.54
  -8   3   0  168.06   15.47
  -8   3   0  139.93   18.94
   8   3   1   30.07    6.43
  -8   3  -1   31.01    7.63
   8   3   1   35.17    6.95
  -8   3  -1   22.31    8.47
  -8   3  -1   22.98    5.41
  -8   3  -1   33.34    6.89
  -8   3  -1   48.82   10.92
   8   3   1   33.27    9.94
  -8   3  -1   20.53    7.59
  -8   3  -2  459.44   27.58
   8   3   2  538.28   25.11
   8   3   2  478.80   24.72
  -8   3  -2  491.22   25.46
  -8   3  -2  461.60   37.53
   8   3   2  455.81   35.19
  -8   3  -2  453.80   24.24
  -8   3  -2  576.47   33.76
  -8   3  -2  415.05   31.55
  -8   3  -3  182.52   15.87
   8   3   3  185.10   14.00
  -8   3  -3  170.74   20.95
  -8   3  -3  185.64   14.12
   8   3   3  150.81   18.81
  -8   3  -3  171.72   18.74
  -8   3  -4   92.83    9.90
   8   3   4   89.45    9.11
  -8   3  -4   80.13   13.94
  -8   3  -4   77.11   10.76
   8   4 -10   47.53    6.69
   8   4 -10   21.02    5.79
   8   4 -10   28.23    5.07
  -8   4  10   40.65    7.29
  -8   4  10   34.13    6.33
  -8   4  10   24.04   10.23
   8   4  -9  363.82   20.36
   8   4  -9  461.79   23.05
   8   4  -9  345.67   23.84
  -8   4   9  403.80   24.54
  -8   4   9  463.08   25.58
  -8   4   9  268.23   36.65
   8   4  -8  414.94   22.14
   8   4  -8  498.43   25.76
   8   4  -8  394.46   26.44
  -8   4   8  473.35   28.32
  -8   4   8  489.45   27.86
  -8   4   8  334.65   46.71
   8   4  -7  169.82   15.19
   8   4  -7  126.77   15.37
  -8   4   7  162.56   17.11
  -8   4   7  148.70   15.82
   8   4  -7  165.82   14.03
   8   4  -6    8.92    4.60
   8   4  -6    7.39    3.25
  -8   4   6    5.75    3.82
   8   4  -6   11.03    3.74
  -8   4   6   12.10    5.23
  -8   4   6    8.52   12.32
  -8   4   6    7.23    3.80
   8   4  -5  225.31   17.48
  -8   4   5  245.83   21.39
  -8   4   5  245.94   20.55
   8   4  -5  262.90   19.46
   8   4  -5  238.91   24.49
  -8   4   5  226.58   20.75
  -8   4   5  170.65   34.65
   8   4  -4  447.97   24.56
  -8   4   4  483.82   29.59
  -8   4   4  487.54   28.09
   8   4  -4  539.80   28.81
   8   4  -4  482.51   35.76
  -8   4   4  468.35   31.12
  -8   4   3  599.37   32.84
  -8   4   3  616.02   31.17
   8   4  -3  679.30   32.45
   8   4  -3  604.90   42.05
  -8   4   3  623.33   33.55
  -8   4   3  556.58   35.00
  -8   4   2   73.39   11.41
  -8   4   2   75.51   10.55
   8   4  -2   70.63   10.62
   8   4  -2   69.45    8.72
  -8   4   2   67.73   11.69
  -8   4   2   54.02   12.29
   8   4  -2   78.15   15.27
  -8   4   2   53.14   11.07
  -8   4   2   47.80   15.34
  -8   4   1  142.00   15.57
   8   4  -1  135.97   14.56
  -8   4   1  154.15   17.89
   8   4  -1  142.71   12.86
  -8   4   1  155.59   14.82
  -8   4   1  112.70   17.74
   8   4  -1  179.40   23.68
  -8   4   1  114.02   16.46
  -8   4   0  635.88   32.26
   8   4   0  631.15   27.15
   8   4   0  638.10   30.08
  -8   4   0  710.79   38.37
  -8   4   0  660.00   29.01
  -8   4   0  595.52   41.38
   8   4   0  683.21   46.99
  -8   4   0  572.92   36.45
  -8   4  -1  487.07   26.90
   8   4   1  468.01   23.14
   8   4   1  494.10   24.45
  -8   4  -1  507.02   23.87
  -8   4  -1  444.65   34.86
  -8   4  -1  515.09   31.98
   8   4   1  539.49   40.10
  -8   4  -1  448.99   31.64
  -8   4  -2   42.67    7.26
   8   4   2   40.11    6.45
  -8   4  -2   33.47    9.13
  -8   4  -2   44.16    6.74
   8   4   2   41.71   10.63
  -8   4  -2   41.31    8.86
  -8   4  -3   -1.19    0.67
   8   4   3    1.29    1.51
  -8   4  -3    4.30    3.06
  -8   4  -3    3.60    3.74
   8   5  -9  101.70   11.52
   8   5  -9  179.80   12.48
  -8   5   9  174.16   13.16
  -8   5   9  186.82   13.16
  -8   5   9   79.60   16.77
   8   5  -8    3.97    3.16
   8   5  -8    5.31    2.53
  -8   5   8    3.14    2.03
  -8   5   8    2.99    1.80
  -8   5   8    4.37    6.51
   8   5  -7  337.49   19.45
   8   5  -7  270.61   20.42
  -8   5   7  360.40   21.86
  -8   5   7  370.64   21.40
  -8   5   7  230.64   37.11
  -8   5   7  353.09   21.63
   8   5  -7  400.15   19.73
   8   5  -6  521.20   25.15
   8   5  -6  395.66   24.74
  -8   5   6  559.33   28.23
  -8   5   6  594.04   27.81
  -8   5   6  399.21   49.55
   8   5  -6  622.79   26.92
  -8   5   6  549.42   29.24
   8   5  -5  183.95   14.86
  -8   5   5  210.57   17.44
  -8   5   5  204.43   16.15
   8   5  -5  230.03   17.26
  -8   5   5  220.88   19.78
  -8   5   4    1.65    1.99
   8   5  -4    1.91    2.53
  -8   5   4    2.01    1.70
   8   5  -4   -0.42    2.76
  -8   5   4    1.84    3.30
  -8   5   3  125.89   13.31
  -8   5   3  134.02   12.52
   8   5  -3  133.04   13.94
   8   5  -3  110.44   17.47
  -8   5   3  117.75   15.28
  -8   5   3   88.39   20.42
  -8   5   2  650.39   30.08
  -8   5   2  679.08   27.26
   8   5  -2  608.75   29.44
  -8   5   2  703.18   33.28
   8   5  -2  659.19   43.58
  -8   5   2  604.50   35.05
  -8   5   1  269.45   18.45
   8   5  -1  250.29   16.21
  -8   5   1  277.81   16.49
  -8   5   1  232.13   23.16
  -8   5   1  321.10   22.68
   8   5  -1  262.35   18.52
   8   5  -1  316.15   30.90
  -8   5   1  254.26   22.46
  -8   5   0   28.30    6.02
   8   5   0   32.22    6.00
   8   5   0   22.84    4.69
  -8   5   0   13.98    5.67
  -8   5   0   40.56    7.09
   8   5   0   34.15   10.31
  -8   5   0   31.58    7.60
  -8   5  -1   26.24    5.50
   8   5   1   37.93    5.66
  -8   5  -1   38.67    9.25
   8   5   1   44.22   10.81
  -8   5  -1   29.34    7.17
  -8   5  -1   55.57    9.56
   8   6  -6   35.15    5.54
  -8   6   6   23.86    9.08
   8   6  -5   67.64    8.12
  -8   6   5   45.29   13.86
  -8   6   5   51.23    8.16
   8   6  -4  423.33   20.47
  -8   6   4  384.83   23.34
   8   6  -3  272.87   16.35
  -8   6   3  232.94   18.24
   8   6  -2    9.01    3.03
   8   6  -2    9.30    4.58
  -8   6   2   12.27    4.45
  -8   6   1  119.79   12.84
   9  -5  -8   14.87    4.26
   9  -5  -8   26.57    4.50
   9  -5  -7  108.97   10.23
  -9  -5   7  118.44   10.59
  -9  -5   7  133.38    9.70
   9  -5  -7  126.62   10.14
   9  -5  -6  212.67   12.36
   9  -5  -6  206.54   14.59
  -9  -5   6  229.11   15.26
  -9  -5   6  265.53   14.25
   9  -5  -6  268.74   14.75
   9  -5  -5  294.74   16.02
   9  -5  -5  269.29   15.75
  -9  -5   5  312.92   18.22
  -9  -5   5  335.67   16.22
   9  -5  -5  328.03   16.17
   9  -5  -4  264.46   15.91
  -9  -5   4  265.00   16.94
  -9  -5   4  288.34   14.74
   9  -5  -4  284.09   14.71
   9  -5  -3   29.92    5.85
  -9  -5   3   30.57    4.71
  -9  -5   3   23.65    4.98
   9  -5  -2   33.30    5.53
  -9  -5   2   27.47    4.37
  -9  -5   2   28.78    5.28
   9  -5  -1  107.16   10.64
  -9  -5   1  186.49   12.92
  -9  -4   9  149.78   12.26
  -9  -4   9  153.07   10.84
   9  -4  -9  151.65   11.46
   9  -4  -8  348.60   20.13
  -9  -4   8  380.08   20.92
  -9  -4   8  385.53   18.25
   9  -4  -8  380.03   19.34
   9  -4  -7  368.69   19.00
   9  -4  -7  343.16   21.14
  -9  -4   7  402.85   22.82
  -9  -4   7  416.33   19.83
   9  -4  -7  400.01   20.34
   9  -4  -6  137.86   12.02
   9  -4  -6  110.67   11.87
  -9  -4   6  122.02   12.95
  -9  -4   6  126.11   11.09
   9  -4  -6  115.84   11.09
   9  -4  -5   66.40    8.73
   9  -4  -5   48.21    7.51
  -9  -4   5   51.87    8.42
  -9  -4   5   60.10    7.66
   9  -4  -5   50.94    7.31
   9  -4  -4  255.89   16.45
  -9  -4   4  292.11   20.43
  -9  -4   4  292.11   16.52
   9  -4  -4  275.29   16.23
  -9  -4   3  759.49   32.83
  -9  -4   3  798.58   26.34
   9  -4  -2   78.92   10.77
  -9  -4   2   89.77   10.99
   9  -4  -1   33.35    6.10
  -9  -4   1   38.23    6.83
   9  -4   0   94.15   10.18
  -9  -4   0  129.04   12.02
   9  -4   1   74.97    7.90
  -9  -4  -1  205.44   14.04
   9  -3 -11   89.57    8.94
   9  -3 -11   97.61    8.67
   9  -3 -10  375.97   20.70
  -9  -3  10  423.29   20.99
   9  -3 -10  371.11   18.86
   9  -3  -9  373.46   22.12
  -9  -3   9  438.16   23.34
   9  -3  -9  402.38   20.83
   9  -3  -8  181.30   13.57
   9  -3  -8  131.80   14.77
  -9  -3   8  191.77   16.38
  -9  -3   8  128.83   13.49
  -9  -3   8  174.38   13.17
   9  -3  -8  178.31   14.49
   9  -3  -7  130.02   12.29
   9  -3  -7  108.38   12.89
  -9  -3   7  137.47   14.28
  -9  -3   7   96.79   12.00
  -9  -3   7  126.51   11.55
   9  -3  -7  121.19   12.25
   9  -3  -6  700.09   30.03
   9  -3  -6  554.12   28.86
  -9  -3   6  628.71   31.17
  -9  -3   6  557.92   29.07
  -9  -3   6  641.71   25.94
   9  -3  -6  641.24   27.25
   9  -3  -5  809.02   33.83
   9  -3  -5  608.99   28.64
  -9  -3   5  708.02   33.38
  -9  -3   5  617.09   30.48
  -9  -3   5  737.99   27.25
   9  -3  -5  683.19   27.62
   9  -3  -4  207.64   18.43
   9  -3  -4  120.33   12.47
  -9  -3   4  169.90   16.39
  -9  -3   4  118.95   13.25
   9  -3  -4  155.93   12.76
   9  -3  -3  127.38   14.06
  -9  -3   3  111.20   12.98
  -9  -3   3   84.79   11.10
   9  -3  -2  260.25   19.64
  -9  -3   2  257.00   19.69
  -9  -3   2  220.33   17.74
   9  -3  -1  461.60   25.30
  -9  -3   1  515.53   27.19
  -9  -3   1  431.79   24.47
   9  -3   0  175.28   14.55
  -9  -3   0  230.09   17.68
   9  -3   1   23.87    4.66
  -9  -3  -1   46.57    7.44
  -9  -3  -2   71.47    8.49
   9  -2 -11  153.49   13.24
  -9  -2  11  184.82   12.88
  -9  -2  11  161.59   13.17
   9  -2 -11  136.11   11.18
   9  -2 -10   19.28    5.27
   9  -2 -10   25.42    5.32
  -9  -2  10   29.79    5.87
  -9  -2  10   23.38    5.93
   9  -2  -9   87.62   10.00
   9  -2  -9   96.57   12.15
  -9  -2   9   96.84   11.44
  -9  -2   9   90.07   11.72
   9  -2  -9   92.43   10.78
   9  -2  -8  439.11   22.85
   9  -2  -8  398.44   24.57
  -9  -2   8  446.93   25.51
  -9  -2   8  381.12   25.49
   9  -2  -8  419.28   23.26
   9  -2  -7 1088.02   37.91
   9  -2  -7  918.85   38.33
  -9  -2   7 1094.77   40.38
  -9  -2   7  936.55   41.14
   9  -2  -7 1028.06   35.71
   9  -2  -6  187.71   16.25
   9  -2  -6  146.32   15.05
  -9  -2   6  179.56   16.35
  -9  -2   6  146.34   16.42
  -9  -2   6  211.22   25.19
   9  -2  -6  153.36   13.54
   9  -2  -5  216.30   17.81
   9  -2  -5  145.29   14.15
  -9  -2   5  181.89   16.75
  -9  -2   5  162.93   17.07
  -9  -2   5  234.99   27.96
   9  -2  -5  172.79   13.99
   9  -2  -4  629.96   30.63
  -9  -2   4  540.33   28.75
  -9  -2   4  480.74   29.32
  -9  -2   4  693.85   49.16
  -9  -2   3  550.85   28.90
  -9  -2   3  514.54   30.22
   9  -2  -2  253.61   19.45
  -9  -2   2  222.82   18.33
  -9  -2   2  198.38   18.55
   9  -2  -1   66.39   10.35
  -9  -2   1   67.82    9.84
  -9  -2   1   63.18   10.19
   9  -2   0  266.77   17.96
  -9  -2   0  266.77   19.33
  -9  -2   0  221.15   17.47
  -9  -2   0  238.39   19.97
  -9  -2  -1  445.61   24.24
  -9  -2  -1  412.51   23.49
  -9  -2  -1  430.45   25.85
  -9  -2  -2  206.58   15.37
  -9  -2  -2  175.17   14.25
  -9  -2  -2  177.71   15.73
  -9  -2  -3  169.62   12.86
  -9  -2  -3  115.65   11.19
   9  -1 -12   14.91    3.82
   9  -1 -12   22.93    4.26
  -9  -1  12   13.95    3.75
   9  -1 -11   84.28   10.32
  -9  -1  11  102.98    9.92
  -9  -1  11   81.24   10.17
   9  -1 -11   75.65    9.15
   9  -1 -10  475.02   26.22
  -9  -1  10  551.32   24.97
  -9  -1  10  513.22   28.30
   9  -1 -10  548.79   26.00
   9  -1  -9  787.56   30.41
   9  -1  -9  705.83   33.28
  -9  -1   9  784.48   31.80
  -9  -1   9  721.41   35.60
   9  -1  -9  769.06   31.59
   9  -1  -8    0.71    1.85
   9  -1  -8    0.94    1.77
   9  -1  -8    4.03    2.36
  -9  -1   8    4.37    2.91
  -9  -1   8    1.98    2.62
  -9  -1   8    5.54    5.49
   9  -1  -7   18.65    5.52
   9  -1  -7   24.13    6.21
   9  -1  -7   25.06    5.51
  -9  -1   7   27.43    6.10
  -9  -1   7   22.90    6.61
  -9  -1   7   22.02    9.57
   9  -1  -6  482.66   27.11
   9  -1  -6  388.39   25.78
  -9  -1   6  448.93   24.93
  -9  -1   6  483.32   30.74
  -9  -1   6  439.86   41.54
   9  -1  -6  457.52   24.23
   9  -1  -5  204.09   17.41
   9  -1  -5  191.29   18.26
  -9  -1   5  242.02   18.29
  -9  -1   5  243.52   21.62
  -9  -1   5  209.20   28.78
   9  -1  -5  202.61   15.47
   9  -1  -4    8.39    3.65
  -9  -1   4    5.79    3.45
  -9  -1   4    3.28    2.94
  -9  -1   4    3.92    3.05
  -9  -1   4   10.32    7.56
   9  -1  -4    0.88    3.42
   9  -1  -3  144.88   14.42
  -9  -1   3  112.51   12.46
  -9  -1   3  108.05   12.78
  -9  -1   3  112.42   14.56
  -9  -1   3  140.37   22.48
   9  -1  -2  519.14   27.12
  -9  -1   2  446.62   24.64
  -9  -1   2  467.79   26.84
  -9  -1   2  468.37   29.66
   9  -1  -1  790.76   32.40
  -9  -1   1  749.52   31.87
  -9  -1   1  739.91   34.64
  -9  -1   1  722.33   36.78
   9  -1   0  692.62   28.04
  -9  -1   0  697.08   30.40
  -9  -1   0  681.12   33.40
  -9  -1   0  658.13   34.65
  -9  -1  -1   71.04    9.40
  -9  -1  -1   67.98   10.44
  -9  -1  -1   64.06   10.35
  -9  -1  -2  105.10   11.10
  -9  -1  -2   90.90   11.34
  -9  -1  -2   96.35   12.17
  -9  -1  -3  458.54   21.15
  -9  -1  -3  446.05   22.94
  -9  -1  -3  443.62   24.27
   9   0 -12  367.05   17.57
   9   0 -12  399.57   19.72
   9   0 -11  206.25   16.47
  -9   0  11  247.29   18.68
   9   0 -11  204.77   14.82
   9   0 -10    5.50    3.25
   9   0 -10    4.17    2.64
   9   0 -10    2.72    2.01
  -9   0  10   10.22    4.78
   9   0  -9   47.79    7.97
   9   0  -9   38.99    7.94
  -9   0   9   52.76    9.83
   9   0  -9   43.84    7.45
   9   0  -8 1186.19   41.16
   9   0  -8 1125.18   42.95
  -9   0   8 1106.98   45.91
   9   0  -8 1241.95   40.37
   9   0  -7  381.57   24.15
   9   0  -7  316.54   23.64
  -9   0   7  349.21   22.33
  -9   0   7  281.95   23.26
  -9   0   7  280.01   35.36
   9   0  -7  353.04   21.22
   9   0  -6  228.83   19.08
  -9   0   6  189.92   16.82
  -9   0   6  208.71   15.82
  -9   0   6  213.12   18.11
  -9   0   6  155.83   17.74
  -9   0   6  132.85   25.16
   9   0  -6  200.62   18.00
   9   0  -6  181.14   15.87
   9   0  -5   16.35    4.63
   9   0  -5    6.01    3.80
   9   0  -5   19.73    5.47
  -9   0   5   10.23    4.42
  -9   0   5   15.75    4.64
  -9   0   5   17.20    6.13
  -9   0   5   13.20    4.88
  -9   0   5   10.38    9.29
   9   0  -4  755.29   33.71
   9   0  -4  627.47   31.51
  -9   0   4  708.07   33.37
  -9   0   4  685.80   28.66
  -9   0   4  708.26   33.42
  -9   0   4  743.48   37.61
  -9   0   4  611.76   53.44
   9   0  -3  603.34   29.76
   9   0  -3  496.63   30.07
  -9   0   3  556.05   30.15
  -9   0   3  578.51   26.36
  -9   0   3  605.81   31.28
  -9   0   3  637.89   34.54
  -9   0   3  520.85   47.12
   9   0  -2    4.95    2.20
  -9   0   2    3.89    2.91
  -9   0   2    6.73    3.25
  -9   0   2    2.16    1.74
  -9   0   2    2.36    2.73
  -9   0   2    6.67    4.96
   9   0  -2    1.95    4.22
   9   0  -1   23.96    5.39
  -9   0   1   26.77    7.13
  -9   0   1   21.87    5.10
  -9   0   1   29.06   10.04
  -9   0   1   18.27    5.90
  -9   0   1   28.79    6.97
  -9   0   1   26.25    9.75
   9   0  -1    4.96    4.81
   9   0   0  113.20   16.37
  -9   0   0  111.88   13.89
  -9   0   0  155.62   13.53
  -9   0   0  142.62   15.64
  -9   0   0  147.38   21.99
  -9   0   0  136.28   15.90
   9   0   1  288.42   22.38
  -9   0  -1  339.99   24.13
  -9   0  -1  402.42   21.69
  -9   0  -1  388.11   25.53
   9   0   1  382.96   28.22
  -9   0  -1  362.84   25.54
  -9   0  -1  337.56   25.78
  -9   0  -2  223.77   18.47
  -9   0  -2  259.21   19.76
  -9   0  -2  245.44   20.01
  -9   0  -2  239.93   20.72
   9   0   3    0.40    0.76
  -9   0  -3    3.35    2.89
   9   0   3    1.30    2.22
  -9   0  -3    0.92    2.24
  -9   0  -3    2.60    2.67
  -9   0  -3    3.01    3.76
   9   0   4    0.79    1.11
  -9   0  -4    1.92    1.85
  -9   0  -4    4.45    2.68
   9   1 -12   15.29    4.13
   9   1 -12   16.07    3.85
  -9   1  12   23.67    4.56
   9   1 -11   75.98    9.39
   9   1 -11   83.36    8.16
   9   1 -11   80.42    9.99
   9   1 -11   65.58    9.56
  -9   1  11   95.21   11.08
   9   1 -10  499.05   25.06
   9   1 -10  502.75   23.64
   9   1 -10  489.79   27.17
  -9   1  10  435.89   24.21
   9   1 -10  415.69   26.26
  -9   1  10  466.55   23.93
  -9   1  10  542.11   28.79
   9   1  -9  772.37   31.77
   9   1  -9  689.23   33.90
  -9   1   9  644.77   31.42
  -9   1   9  675.07   31.37
  -9   1   9  768.07   36.10
   9   1  -9  683.17   30.63
   9   1  -8    1.62    2.96
   9   1  -8    0.86    1.74
   9   1  -8    1.78    2.29
  -9   1   8    0.79    2.23
  -9   1   8    0.45    2.52
  -9   1   8    0.50    1.57
  -9   1   8    1.69    4.50
   9   1  -7   13.58    5.07
   9   1  -7   29.32    6.68
   9   1  -7   17.78    5.00
  -9   1   7   16.27    5.23
  -9   1   7   24.45    6.78
  -9   1   7   14.91    5.37
  -9   1   7   14.89   12.23
   9   1  -6  452.78   27.89
   9   1  -6  449.12   26.94
  -9   1   6  434.86   27.89
   9   1  -6  487.52   24.12
  -9   1   6  452.08   27.75
  -9   1   6  491.46   30.12
   9   1  -5  202.64   18.13
   9   1  -5  200.57   16.28
  -9   1   5  167.27   17.21
  -9   1   5  197.98   18.54
  -9   1   5  190.60   19.00
  -9   1   5  133.76   28.37
   9   1  -4    5.54    2.85
   9   1  -4    5.33    3.43
  -9   1   4    8.00    4.36
  -9   1   4    8.34    3.83
  -9   1   4    5.00    3.20
  -9   1   4    4.03    5.83
   9   1  -3  104.04   12.91
   9   1  -3  112.49   13.39
  -9   1   3   86.91   12.48
  -9   1   3  111.17   13.96
  -9   1   3  113.06   14.31
  -9   1   3   83.72   20.22
   9   1  -2  385.08   23.80
   9   1  -2  401.36   26.19
  -9   1   2  378.74   26.50
  -9   1   2  395.66   26.25
  -9   1   2  424.09   27.73
  -9   1   2  366.70   39.28
   9   1  -1  737.62   36.60
  -9   1   1  743.34   37.10
   9   1  -1  662.85   30.89
  -9   1   1  754.46   36.18
  -9   1   1  731.30   46.31
  -9   1   1  762.77   37.05
  -9   1   1  762.66   50.35
  -9   1   1  650.97   37.69
   9   1   0  659.61   33.25
  -9   1   0  634.84   34.16
   9   1   0  568.33   29.41
  -9   1   0  670.64   34.15
  -9   1   0  691.73   45.81
  -9   1   0  673.55   34.46
  -9   1   0  594.77   36.88
   9   1   1   73.57   10.92
  -9   1  -1   65.73   10.81
   9   1   1   56.60    9.43
  -9   1  -1   66.76   10.72
  -9   1  -1   61.23   13.76
  -9   1  -1   68.76   10.65
   9   1   1   64.02   12.62
  -9   1  -1   48.47   10.59
   9   1   2   83.91   10.25
  -9   1  -2   78.51   11.13
   9   1   2   70.88   10.25
  -9   1  -2   91.44   11.65
  -9   1  -2   98.70   17.09
  -9   1  -2   91.61   11.67
  -9   1  -2   89.25   13.39
   9   1   3  436.89   19.38
  -9   1  -3  382.10   22.32
   9   1   3  391.95   20.63
  -9   1  -3  459.63   23.47
  -9   1  -3  455.08   24.12
  -9   1  -3  444.72   26.42
   9   2 -11  156.35   12.21
   9   2 -11  143.08   13.56
   9   2 -11  162.67   11.34
  -9   2  11  139.75   12.43
   9   2 -11  139.29   13.57
  -9   2  11  155.60   12.20
  -9   2  11  162.33   13.24
   9   2 -10   21.77    5.51
   9   2 -10   27.09    5.69
   9   2 -10   26.90    5.47
  -9   2  10   19.48    5.09
   9   2 -10   21.51    6.25
  -9   2  10   29.24    6.02
  -9   2  10   24.83    5.94
   9   2  -9   61.79    9.04
   9   2  -9   85.81   10.68
   9   2  -9   71.44   10.76
  -9   2   9   65.72   10.30
  -9   2   9   85.30   11.59
   9   2  -9   61.55   10.58
  -9   2   9   88.19   11.48
  -9   2   9   37.63   15.19
   9   2  -8  340.15   20.64
   9   2  -8  406.94   23.93
   9   2  -8  318.40   23.14
  -9   2   8  340.42   24.48
  -9   2   8  367.94   25.04
   9   2  -8  323.27   24.72
  -9   2   8  397.20   25.32
   9   2  -7 1058.54   40.02
   9   2  -7  923.86   38.81
  -9   2   7  994.60   42.55
  -9   2   7  960.02   41.63
  -9   2   7 1004.56   41.23
   9   2  -6  134.42   15.56
   9   2  -6  114.77   13.45
  -9   2   6  158.21   17.08
  -9   2   6  146.83   16.55
   9   2  -6  175.62   14.88
  -9   2   6  168.83   17.11
  -9   2   6   99.45   25.80
   9   2  -5  139.04   15.16
  -9   2   5  131.85   15.65
   9   2  -5  140.14   14.02
  -9   2   5  146.30   16.25
  -9   2   5  149.20   15.63
  -9   2   5   86.50   23.97
   9   2  -4  395.53   25.13
  -9   2   4  402.26   27.60
   9   2  -4  487.36   27.08
  -9   2   4  408.67   26.97
  -9   2   4  418.19   26.47
   9   2  -3  447.21   25.72
  -9   2   3  449.93   29.13
  -9   2   3  483.42   29.51
  -9   2   3  467.52   27.83
  -9   2   3  387.16   45.07
   9   2  -2  214.44   18.61
  -9   2   2  161.09   17.47
  -9   2   2  170.06   17.14
  -9   2   2  118.62   18.01
   9   2  -2  203.28   24.55
  -9   2   2  157.45   16.08
  -9   2   2  126.48   24.02
  -9   2   2  130.45   17.10
   9   2  -1   71.56   10.51
  -9   2   1   54.46    9.88
   9   2  -1   71.88    9.16
  -9   2   1   68.22   10.85
  -9   2   1   43.79   11.60
   9   2  -1   81.62   15.59
  -9   2   1   61.60    9.85
  -9   2   1   48.50   10.57
  -9   2   1   58.59   13.36
   9   2   0  230.60   18.59
  -9   2   0  202.11   19.25
   9   2   0  218.03   15.96
  -9   2   0  247.26   19.89
  -9   2   0  211.62   25.16
   9   2   0  243.28   25.69
  -9   2   0  213.21   18.16
  -9   2   0  189.53   21.27
   9   2   1  464.64   24.66
  -9   2  -1  386.91   25.78
   9   2   1  395.03   21.89
  -9   2  -1  433.23   25.44
  -9   2  -1  443.77   35.66
   9   2   1  436.56   33.06
  -9   2  -1  417.12   24.54
  -9   2  -1  364.41   28.27
   9   2   2  176.70   13.54
  -9   2  -2  136.88   14.40
   9   2   2  143.18   12.29
  -9   2  -2  170.27   14.61
  -9   2  -2  173.49   21.98
   9   2   2  127.08   16.21
  -9   2  -2  149.09   13.93
  -9   2  -2  151.82   17.27
  -9   2  -3  131.81   12.41
   9   2   3  151.95   11.49
  -9   2  -3  144.81   18.22
  -9   2  -3  165.09   12.87
  -9   2  -3  142.86   11.99
  -9   2  -3  148.54   14.85
   9   3 -11   57.69    8.73
   9   3 -10  322.29   17.70
   9   3 -10  397.19   19.56
   9   3 -10  333.10   21.05
  -9   3  10  382.20   22.18
  -9   3  10  403.57   21.82
   9   3  -9  334.98   19.02
   9   3  -9  401.86   21.86
   9   3  -9  334.62   22.88
  -9   3   9  346.08   22.94
  -9   3   9  390.48   23.65
   9   3  -8  137.07   14.21
   9   3  -8  103.94   12.81
  -9   3   8  116.61   14.09
  -9   3   8  142.25   15.09
   9   3  -7  122.96   13.24
   9   3  -7   98.58   12.46
  -9   3   7  105.19   13.68
  -9   3   7  128.64   14.81
   9   3  -7  117.44   11.94
  -9   3   7  115.17   12.39
   9   3  -6  598.88   29.36
   9   3  -6  496.52   27.49
  -9   3   6  568.90   32.81
  -9   3   6  590.32   31.95
   9   3  -6  618.48   28.95
   9   3  -6  632.08   38.11
  -9   3   6  587.47   28.80
   9   3  -5  629.52   29.65
  -9   3   5  589.99   33.46
  -9   3   5  644.13   33.70
   9   3  -5  724.45   31.92
   9   3  -5  666.78   41.73
  -9   3   5  639.88   30.10
   9   3  -4  103.38   12.93
  -9   3   4  114.51   14.72
   9   3  -4  165.80   15.61
  -9   3   4  139.40   15.36
   9   3  -4  134.64   19.19
  -9   3   4  119.55   12.87
  -9   3   4  122.44   15.56
  -9   3   4   80.70   21.88
   9   3  -3   86.33   10.74
  -9   3   3   88.95   12.76
   9   3  -3  103.25   12.55
  -9   3   3   96.45   12.63
   9   3  -3   94.89   16.86
  -9   3   3   85.38   11.08
  -9   3   3   87.24   13.68
  -9   3   3   59.08   17.37
  -9   3   2  232.68   20.29
   9   3  -2  237.55   19.22
  -9   3   2  265.77   20.58
   9   3  -2  268.91   28.38
  -9   3   2  239.04   18.14
  -9   3   2  213.03   21.59
  -9   3   1  391.27   26.30
   9   3  -1  424.18   24.96
   9   3  -1  407.66   20.58
  -9   3   1  429.40   25.43
  -9   3   1  357.12   31.19
   9   3  -1  439.55   35.93
  -9   3   1  410.22   23.07
  -9   3   1  383.83   33.75
  -9   3   1  344.43   28.20
  -9   3   1  390.58   29.49
  -9   3   0  178.92   17.09
   9   3   0  182.52   15.60
   9   3   0  159.72   12.90
  -9   3   0  184.63   15.92
  -9   3   0  143.49   19.99
   9   3   0  174.73   21.78
  -9   3   0  144.44   13.28
  -9   3   0  134.59   17.37
   9   3   1   25.58    5.33
  -9   3  -1   20.18    5.52
   9   3   1   27.76    5.35
  -9   3  -1   21.30    5.87
  -9   3  -1   28.65    6.13
   9   3   1   18.75    7.02
  -9   3  -1   25.46    7.63
  -9   3  -2   53.17    8.14
   9   3   2   43.29    6.11
  -9   3  -2   59.49    7.60
  -9   3  -2   47.82   10.83
   9   3   2   39.26    9.11
  -9   3  -2   44.04    8.73
   9   4  -9  131.97   11.62
   9   4  -9   72.77    9.81
  -9   4   9  111.04   11.68
  -9   4   9  129.43   12.17
  -9   4   9   61.42   15.86
   9   4  -8  265.73   19.41
  -9   4   8  265.90   19.36
  -9   4   8  215.81   32.07
   9   4  -7  329.34   20.47
   9   4  -7  242.68   18.61
  -9   4   7  355.82   23.60
  -9   4   7  366.21   22.89
   9   4  -7  373.58   19.57
  -9   4   7  192.52   32.92
   9   4  -6   91.50   11.32
  -9   4   6  128.53   14.25
  -9   4   6  124.17   13.56
   9   4  -6  121.03   11.94
   9   4  -5   27.38    6.25
  -9   4   5   47.41    8.69
   9   4  -5   44.32    7.65
  -9   4   5   43.26    7.81
   9   4  -5   33.31    9.33
  -9   4   5   19.36    9.85
  -9   4   5   35.02    7.88
   9   4  -4  188.05   14.92
  -9   4   4  214.66   18.79
  -9   4   4  221.54   17.81
   9   4  -4  235.14   17.88
   9   4  -4  192.68   21.86
  -9   4   4  167.61   17.64
  -9   4   3  658.60   32.60
  -9   4   3  684.99   30.81
   9   4  -3  718.85   31.84
   9   4  -3  710.64   44.00
  -9   4   2   68.21   10.31
  -9   4   2   67.39    9.34
   9   4  -2   55.20    9.00
   9   4  -2   61.14   13.25
  -9   4   2   42.13    9.68
   9   4  -1   31.12    6.39
  -9   4   1   33.32    6.90
   9   4  -1   20.93    4.58
  -9   4   1   12.82    6.31
  -9   4   1   31.36    6.08
   9   4  -1   32.46   10.04
  -9   4   1   17.25    6.56
  -9   4   1   36.23    7.07
  -9   4   0   95.93   11.08
   9   4   0   89.51    8.73
   9   4   0   91.85   10.07
  -9   4   0   91.98    9.59
  -9   4   0   85.44   13.62
   9   4   0  103.60   16.51
  -9   4   0   79.29   12.57
  -9   4  -1  164.94   13.56
   9   4   1  160.60   11.02
  -9   4  -1  158.18   17.33
   9   4   1  175.53   19.49
  -9   4  -1  159.27   15.88
   9   5  -7   86.83    8.77
  -9   5   7   95.64   10.25
  -9   5   7  115.96   10.48
   9   5  -7  113.58    9.41
  -9   5   7   75.49   16.36
   9   5  -6  190.57   13.03
  -9   5   6  231.01   16.39
  -9   5   6  238.51   15.35
   9   5  -6  238.62   15.41
  -9   5   5  288.77   18.65
  -9   5   5  324.89   18.16
   9   5  -5  325.16   18.90
  -9   5   5  266.44   19.10
  -9   5   4  231.18   16.57
  -9   5   4  244.52   15.55
   9   5  -4  205.15   21.14
   9   5  -4  262.01   17.11
  -9   5   4  201.31   17.40
  -9   5   3   18.14    4.66
   9   5  -3   24.89    5.40
  -9   5   3   23.93    4.67
   9   5  -3   27.78    8.61
  -9   5   3   17.56    5.57
  -9   5   2   36.39    6.36
   9   5  -2   34.58    6.07
  -9   5   2   29.04    5.16
   9   5  -2   28.96    7.79
  -9   5   2   22.52    6.16
  -9   5   1  143.17   11.78
   9   5  -1  134.94   11.59
  -9   5   1  130.68   14.25
 -10  -4   8  186.66   13.01
  10  -4  -8  165.13   10.96
  10  -4  -7  293.34   15.27
 -10  -4   7  329.47   18.32
  10  -4  -7  290.38   15.17
  10  -4  -6  218.44   14.15
 -10  -4   6  250.94   16.46
  10  -4  -6  210.78   13.19
  10  -4  -5   13.98    3.38
 -10  -4   5   12.85    4.06
  10  -4  -4  275.51   16.49
 -10  -4   4  265.25   17.30
  10  -4  -3  522.61   22.49
 -10  -4   3  497.00   22.93
  10  -4  -2  183.37   12.89
 -10  -4   2  175.43   12.93
  10  -4  -1   29.53    5.46
 -10  -4   1   37.68    5.73
  10  -3 -10  102.81   10.23
  10  -3 -10  135.00    9.91
  10  -3  -9  219.32   15.17
  10  -3  -9  228.36   14.29
  10  -3  -8  190.66   13.55
  10  -3  -8  155.68   13.76
 -10  -3   8  212.66   15.41
  10  -3  -8  194.23   13.65
  10  -3  -7   38.02    6.55
  10  -3  -7   29.15    5.91
  10  -3  -6  176.22   14.10
 -10  -3   6  150.91   14.03
  10  -3  -5  424.44   23.04
 -10  -3   5  425.60   23.69
  10  -3  -4  304.23   19.44
 -10  -3   4  318.17   20.45
  10  -3  -3  180.63   14.59
 -10  -3   3  174.76   14.80
  10  -3  -2    0.93    1.70
 -10  -3   2    0.50    1.33
  10  -3  -1  429.45   20.06
 -10  -3   1  445.57   22.17
  10  -3   0  102.53    8.63
 -10  -3   0  137.51   11.42
  10  -2 -10   86.18    9.99
 -10  -2  10  123.36   10.42
 -10  -2  10   97.27   10.48
  10  -2 -10  110.14    9.98
  10  -2  -9   -0.14    0.61
  10  -2  -9   -0.18    1.30
  10  -2  -9    3.18    2.15
 -10  -2   9    2.55    2.00
 -10  -2   9    1.72    1.72
  10  -2  -8  202.47   15.50
  10  -2  -8  161.37   15.07
 -10  -2   8  197.75   15.27
 -10  -2   8  169.64   15.92
  10  -2  -8  161.78   14.01
  10  -2  -7  794.77   31.28
 -10  -2   7  763.19   31.28
 -10  -2   7  688.56   33.28
  10  -2  -7  676.65   27.64
  10  -2  -6  280.40   19.13
  10  -2  -6  219.62   16.76
 -10  -2   6  272.16   19.00
 -10  -2   6  233.53   19.64
  10  -2  -6  206.65   15.34
 -10  -2   5  144.31   14.01
 -10  -2   5  132.28   14.63
  10  -2  -4   41.12    7.42
 -10  -2   4   33.09    6.72
 -10  -2   4   24.98    6.35
  10  -2  -3  441.21   23.88
 -10  -2   3  402.70   23.03
 -10  -2   3  364.76   24.19
  10  -2  -2  388.15   21.93
 -10  -2   2  389.02   22.14
 -10  -2   2  364.94   23.72
  10  -2  -1   23.12    5.22
 -10  -2   1   23.83    5.04
 -10  -2   1   15.78    5.04
 -10  -2   0    5.18    2.92
 -10  -2   0    1.06    1.65
  10  -2   0    1.20    2.25
 -10  -2  -1  178.74   12.69
 -10  -2  -1  155.42   13.07
  10  -1 -11    2.10    2.12
  10  -1 -11    1.85    1.35
 -10  -1  11    3.75    2.35
  10  -1 -10  140.67   11.61
  10  -1 -10  129.94   12.67
 -10  -1  10  171.07   12.15
 -10  -1  10  147.18   14.52
  10  -1 -10  162.07   12.43
  10  -1  -9  382.39   20.72
  10  -1  -9  346.99   21.90
 -10  -1   9  400.48   20.15
 -10  -1   9  367.99   24.33
  10  -1  -9  340.45   19.99
  10  -1  -8  108.40   11.79
  10  -1  -8   64.63   10.81
 -10  -1   8  109.50   11.07
 -10  -1   8  103.17   13.56
 -10  -1   8   96.95   15.19
  10  -1  -8   96.91   10.68
  10  -1  -7   65.20   10.24
  10  -1  -7   49.60    8.64
 -10  -1   7   71.83    9.39
 -10  -1   7   56.40   10.20
 -10  -1   7   68.19   14.36
  10  -1  -7   49.31    7.74
  10  -1  -6  250.46   18.86
  10  -1  -6  169.13   15.35
 -10  -1   6  225.86   16.75
 -10  -1   6  219.35   19.91
 -10  -1   6  241.38   28.73
  10  -1  -5  651.29   30.45
 -10  -1   5  616.85   28.08
 -10  -1   5  599.53   33.27
  10  -1  -4  843.36   34.66
 -10  -1   4  824.75   32.33
 -10  -1   4  756.17   37.18
  10  -1  -3  304.63   20.32
 -10  -1   3  292.46   19.02
 -10  -1   3  266.58   19.10
 -10  -1   3  274.84   22.06
  10  -1  -2   33.71    6.14
 -10  -1   2   32.32    6.05
 -10  -1   2   32.25    7.38
 -10  -1   2   29.29    6.41
  10  -1  -2   22.90    6.55
  10  -1  -1  232.36   16.42
 -10  -1   1  271.24   17.55
 -10  -1   1  279.35   19.68
 -10  -1   1  269.68   21.19
 -10  -1   0  365.67   19.46
 -10  -1   0  329.36   20.74
 -10  -1   0  335.97   22.41
  10  -1   1   37.97    7.57
 -10  -1  -1   82.52    8.66
  10  -1   1   25.86    5.64
 -10  -1  -1   65.95    8.58
 -10  -1  -1   64.56    9.01
  10  -1   2    3.00    1.99
  10  -1   2    3.14    2.09
 -10  -1  -2    4.82    2.50
  10   0 -11  241.83   14.28
  10   0 -11  237.63   16.02
  10   0 -10  115.80   11.08
  10   0 -10   96.71   11.21
 -10   0  10  131.63   14.31
  10   0 -10  117.41   10.97
  10   0  -9   10.10    3.94
  10   0  -9   13.41    4.41
  10   0  -9   10.67    3.56
 -10   0   9   16.18    5.53
 -10   0   9   10.78    5.97
  10   0  -8  152.95   14.52
  10   0  -8  109.84   13.14
 -10   0   8  126.13   15.21
 -10   0   8  115.54   20.37
  10   0  -8  130.83   12.41
  10   0  -7 1316.76   43.13
 -10   0   7 1206.25   67.08
  10   0  -6 1248.08   43.27
 -10   0   6 1122.90   39.58
 -10   0   6  912.78   41.60
 -10   0   6 1015.70   63.72
  10   0  -5    8.98    3.59
  10   0  -5    9.29    3.85
 -10   0   5    6.60    3.24
 -10   0   5    2.36    1.80
 -10   0   5   10.90    8.49
  10   0  -4  293.37   20.53
  10   0  -4  330.04   21.88
 -10   0   4  297.78   21.17
 -10   0   4  293.67   23.18
 -10   0   4  321.10   35.02
  10   0  -3  601.69   28.61
  10   0  -3  596.10   30.75
 -10   0   3  551.67   28.79
 -10   0   3  587.88   30.14
 -10   0   3  593.72   33.00
  10   0  -2   27.09    7.18
  10   0  -2   22.16    5.66
 -10   0   2   13.90    4.80
 -10   0   2   22.69    6.14
 -10   0   2   21.34    5.86
 -10   0   2   37.90   11.21
 -10   0   1   10.27    4.28
  10   0  -1   10.02    3.86
 -10   0   1   28.86    7.00
 -10   0   1   28.45    6.84
  10   0  -1   27.87    6.95
  10   0   0   69.43   10.21
 -10   0   0   55.10    8.76
 -10   0   0   81.42   10.74
 -10   0   0   77.66   10.88
  10   0   0   64.82   11.22
  10   0   1   36.59    6.79
 -10   0  -1   32.70    6.62
 -10   0  -1   47.61    7.81
  10   0   1   29.35    6.09
 -10   0  -1   47.69    7.95
  10   0   2  192.26   12.72
 -10   0  -2  199.88   14.28
 -10   0  -2  182.53   14.56
  10   1 -11    3.64    2.21
  10   1 -11    7.13    2.56
 -10   1  11    4.86    2.60
  10   1 -10  133.49   11.43
  10   1 -10  151.61   12.75
  10   1 -10  127.83   12.75
 -10   1  10  148.94   14.26
  10   1  -9  318.32   18.67
  10   1  -9  369.62   21.18
  10   1  -9  278.77   20.31
 -10   1   9  334.20   19.73
 -10   1   9  359.26   23.76
 -10   1   9  265.82   28.58
  10   1  -8  139.51   14.15
  10   1  -8   99.19   12.35
 -10   1   8   95.51   11.56
 -10   1   8  124.75   13.15
 -10   1   8  133.84   15.13
 -10   1   8   79.60   18.35
  10   1  -7   68.61   10.21
  10   1  -7   47.08    7.96
 -10   1   7   30.72    6.98
 -10   1   7   52.78    8.98
 -10   1   7   61.14    9.88
 -10   1   7   35.12   13.10
  10   1  -6  194.10   17.35
 -10   1   6  146.08   15.10
  10   1  -6  211.37   15.61
 -10   1   6  185.11   16.96
 -10   1   6  187.43   18.48
 -10   1   6  135.89   25.06
  10   1  -5  642.88   30.87
  10   1  -5  724.01   30.53
 -10   1   5  564.56   30.53
 -10   1   5  617.41   31.24
 -10   1   5  643.98   33.93
 -10   1   5  532.71   50.46
  10   1  -4  837.56   34.17
 -10   1   4  753.86   35.34
 -10   1   4  816.39   36.26
 -10   1   4  816.76   38.12
 -10   1   4  773.58   57.93
  10   1  -3  178.16   18.11
  10   1  -3  335.25   22.45
 -10   1   3  243.78   20.07
 -10   1   3  278.43   21.29
 -10   1   3  284.22   22.08
 -10   1   3  253.81   30.76
  10   1  -2   45.99    8.40
 -10   1   2   28.60    7.03
 -10   1   2   48.90    8.87
 -10   1   2   29.83    6.90
 -10   1   2   45.89   11.99
  10   1  -1  342.19   22.42
 -10   1   1  267.33   20.76
  10   1  -1  198.81   15.25
 -10   1   1  320.37   22.21
 -10   1   1  280.68   27.11
  10   1  -1  340.34   28.72
 -10   1   1  291.97   21.54
 -10   1   1  428.87   33.12
  10   1   0  381.74   22.65
 -10   1   0  282.00   20.59
  10   1   0  255.36   16.74
 -10   1   0  355.04   22.42
  10   1   0  344.32   27.26
 -10   1   0  338.48   22.18
  10   1   1   74.35    9.21
 -10   1  -1   52.05    8.34
  10   1   1   59.62    7.22
 -10   1  -1   70.00    9.18
 -10   1  -1   74.06    9.72
  10   1   2    4.99    2.45
 -10   1  -2    7.35    2.92
 -10   1  -2    7.61    2.84
  10   2 -10   83.33    8.67
  10   2 -10  135.84   10.85
  10   2 -10   87.87   10.70
 -10   2  10   82.19    9.39
 -10   2  10  117.75   10.87
 -10   2  10  108.77   11.04
  10   2  -9    1.92    1.94
  10   2  -9    1.97    2.23
 -10   2   9    3.23    2.74
 -10   2   9    1.72    2.11
 -10   2   9    1.52    2.04
  10   2  -8  146.15   14.01
  10   2  -8  102.32   11.95
 -10   2   8  126.64   13.70
 -10   2   8  134.30   13.74
 -10   2   8  152.74   14.67
 -10   2   8  109.38   21.62
  10   2  -7  663.63   30.90
  10   2  -7  557.60   27.40
 -10   2   7  600.81   31.26
 -10   2   7  713.67   33.14
  10   2  -7  785.59   40.98
 -10   2   7  695.87   32.05
 -10   2   7  458.05   48.10
  10   2  -6  244.06   18.61
 -10   2   6  215.33   18.82
 -10   2   6  241.07   19.56
  10   2  -6  273.53   17.84
 -10   2   6  244.52   19.18
  10   2  -5  140.37   13.92
 -10   2   5  129.12   14.55
  10   2  -5  165.65   14.41
 -10   2   5  135.03   14.90
 -10   2   5  137.06   14.32
 -10   2   5   95.44   20.84
  10   2  -4   30.60    7.34
  10   2  -4   40.10    7.39
 -10   2   4   31.90    7.30
 -10   2   4   29.89    6.67
 -10   2   4   30.25    6.79
  10   2  -4   36.29    9.58
 -10   2   4   11.34    6.57
  10   2  -3  285.66   19.54
  10   2  -3  430.91   24.56
 -10   2   3  319.42   23.45
 -10   2   3  371.53   24.43
  10   2  -3  408.90   33.98
 -10   2   3  377.12   23.82
 -10   2   3  315.04   34.79
  10   2  -2  400.50   23.82
 -10   2   2  308.05   22.44
 -10   2   2  365.84   23.54
  10   2  -2  349.47   30.54
 -10   2   2  333.42   21.88
 -10   2   2  340.94   32.59
  10   2  -1   13.34    4.71
 -10   2   1    9.14    3.92
 -10   2   1    6.09    5.03
 -10   2   1   14.48    4.79
 -10   2   1   11.66    4.25
  10   2  -1   10.83    5.50
 -10   2   1   18.25    6.41
  10   2   0    1.01    1.69
 -10   2   0    3.55    2.71
  10   2   0    4.00    1.93
 -10   2   0   10.89    6.48
 -10   2   0    0.55    1.91
 -10   2   0    1.19    2.36
  10   2   0    4.06    3.83
 -10   2   0    5.75    3.99
 -10   2  -1  108.65   11.37
  10   2   1  134.34   10.90
  10   2   1  111.94    9.30
 -10   2  -1  146.93   12.36
 -10   2  -1  115.45   15.38
  10   2   1   95.57   13.03
 -10   2  -1  136.62   11.85
 -10   2  -1  102.01   11.69
  10   3 -10  153.90   10.78
  10   3  -9  230.88   14.87
  10   3  -9  121.01   11.96
 -10   3   9  195.26   14.98
 -10   3   9  234.10   16.21
 -10   3   9  112.88   18.79
  10   3  -8  136.21   13.08
  10   3  -8   97.11   10.91
 -10   3   8  139.29   13.89
 -10   3   8  157.14   14.16
 -10   3   8   83.87   18.66
  10   3  -7   22.06    5.43
 -10   3   7   25.18    6.03
  10   3  -7   25.45    5.43
 -10   3   7   28.24    6.42
 -10   3   7   10.51    8.45
  10   3  -6  111.54   13.36
 -10   3   6  121.75   13.84
 -10   3   6  158.42   15.17
  10   3  -6  157.36   13.75
  10   3  -6  155.20   17.83
 -10   3   6   92.19   20.92
  10   3  -5  315.69   20.24
 -10   3   5  373.39   24.48
 -10   3   5  388.39   24.15
  10   3  -5  419.69   22.67
  10   3  -5  376.23   29.43
 -10   3   5  274.72   36.36
  10   3  -4  207.91   16.56
 -10   3   4  272.68   20.76
  10   3  -4  316.60   20.47
 -10   3   4  318.28   21.50
  10   3  -4  272.20   26.26
 -10   3   4  215.60   29.79
 -10   3   3  111.20   13.12
  10   3  -3  145.78   13.75
 -10   3   3  119.77   13.05
  10   3  -3  118.65   17.47
  10   3  -2    2.49    2.22
 -10   3   2    1.72    2.46
 -10   3   2    0.94    1.14
  10   3  -2    3.74    3.80
 -10   3   2    3.69    3.93
 -10   3   2    1.31    3.15
 -10   3   1  374.15   22.79
  10   3  -1  391.97   21.67
 -10   3   1  442.38   22.72
  10   3  -1  420.63   31.13
 -10   3   1  350.48   23.95
 -10   3   0  101.03   11.02
  10   3   0  111.87   10.44
 -10   3   0  127.83   11.32
 -10   3   0   75.53   13.18
  10   3   0  114.36   15.24
 -10   3   0   92.15   11.35
  10   4  -8  136.49   10.63
 -10   4   8  116.71   11.16
 -10   4   8  152.07   12.22
 -10   4   8   98.23   17.27
  10   4  -7  210.00   13.72
 -10   4   7  213.95   16.05
 -10   4   7  264.15   16.93
  10   4  -7  236.24   13.55
  10   4  -6  129.90   11.51
 -10   4   6  164.16   14.44
 -10   4   6  202.82   15.26
  10   4  -6  195.93   13.62
 -10   4   6  111.97   20.07
 -10   4   5   13.82    4.45
  10   4  -5   18.67    4.71
 -10   4   5   17.36    4.41
  10   4  -5    8.96    3.96
 -10   4   5    3.00    5.85
 -10   4   4  214.91   16.55
 -10   4   4  221.70   15.74
  10   4  -4  208.34   15.50
  10   4  -4  195.26   20.38
 -10   4   3  408.85   22.63
 -10   4   3  438.67   21.50
  10   4  -3  392.04   20.70
  10   4  -3  408.94   29.72
 -10   4   3  310.18   26.45
 -10   4   3  292.50   20.42
 -10   4   2  171.87   13.97
 -10   4   2  174.75   12.97
  10   4  -2  156.80   12.67
  10   4  -2  175.53   19.32
 -10   4   1   48.13    7.04
  10   4  -1   41.36    6.26
  10   4  -1   43.58    9.38
  11  -3  -7   43.44    6.16
 -11  -3   7   51.24    6.71
  11  -3  -6   29.63    5.17
 -11  -3   6   26.35    4.99
  11  -3  -5  225.00   15.00
 -11  -3   5  219.03   14.34
  11  -3  -4  330.18   17.56
 -11  -3   4  355.73   18.16
  11  -3  -3  195.61   12.53
 -11  -3   3  191.23   12.90
  11  -2  -9   43.95    6.49
  11  -2  -8    4.62    2.31
  11  -2  -8    4.63    2.24
 -11  -2   8    6.35    2.68
 -11  -2   8    7.36    2.92
  11  -2  -7  167.64   13.66
 -11  -2   7  163.05   12.33
 -11  -2   7  138.55   12.82
  11  -2  -6  340.14   19.06
 -11  -2   6  307.47   17.53
  11  -2  -5  164.01   13.34
 -11  -2   5  154.98   12.49
 -11  -2   5  133.83   13.00
  11  -2  -4   15.99    3.82
  11  -2  -4   26.20    5.71
 -11  -2   4   29.88    5.55
 -11  -2   4   23.95    5.71
  11  -2  -3  181.00   13.82
 -11  -2   3  192.64   13.40
 -11  -2   3  164.23   14.12
  11  -2  -2  326.77   16.87
 -11  -2   2  349.61   17.47
 -11  -2   2  317.44   18.58
  11  -2  -1   78.52    8.65
 -11  -1  10   61.55    8.14
  11  -1  -9   94.88   10.05
 -11  -1   9   95.90   11.24
  11  -1  -8   86.54   10.20
 -11  -1   8   83.55   10.98
  11  -1  -7   49.44    8.18
 -11  -1   7   45.11    8.08
 -11  -1   7   72.67   13.03
  11  -1  -6   58.06    9.04
 -11  -1   6   62.86    9.65
  11  -1  -5  134.31   13.38
 -11  -1   5  128.58   13.77
  11  -1  -4  356.99   21.75
  11  -1  -4  342.69   19.72
 -11  -1   4  384.74   24.06
  11  -1  -3  245.12   16.52
  11  -1  -3  200.94   15.26
 -11  -1   3  216.20   17.57
  11  -1  -2   33.84    6.36
  11  -1  -2   40.61    6.15
 -11  -1   2   38.95    7.11
  11  -1  -1  128.62   11.90
 -11  -1   1  155.92   13.37
  11  -1   0  229.54   14.19
 -11  -1   0  281.28   16.81
  11   0 -10  222.56   13.18
 -11   0  10  242.47   16.46
  11   0  -9   41.37    6.56
  11   0  -9   23.10    5.02
 -11   0   9   36.42    7.18
  11   0  -8    4.39    2.54
  11   0  -8    6.21    2.75
 -11   0   8    7.69    4.00
 -11   0   8    8.26    5.72
  11   0  -7  415.75   23.74
 -11   0   7  461.71   36.12
  11   0  -6   26.01    5.79
 -11   0   6   18.62    5.86
 -11   0   6   27.65    9.44
  11   0  -5   15.97    5.20
  11   0  -5   15.47    4.08
 -11   0   5   15.05    4.98
 -11   0   5    8.16    3.46
 -11   0   5   19.64    8.38
  11   0  -4   15.85    4.53
  11   0  -4   10.43    4.33
 -11   0   4    8.28    3.74
 -11   0   4   13.53    4.35
 -11   0   4   15.88    8.09
  11   0  -3  144.48   13.24
  11   0  -3  194.73   15.20
 -11   0   3  179.76   14.94
 -11   0   3  162.60   15.49
  11   0  -2  167.64   14.10
 -11   0   2  149.21   13.36
  11   0  -2  142.54   17.49
 -11   0   2  132.13   13.61
  11   0  -1  179.72   14.11
 -11   0   1  141.20   12.45
  11   0  -1  136.85   15.09
 -11   0   1  142.37   13.29
  11   0   0    4.61    2.58
 -11   0   0    1.78    1.67
  11   1 -10   86.68    8.25
 -11   1  10   83.27    9.26
  11   1  -9  111.53   10.72
 -11   1   9  102.88   11.14
 -11   1   9   88.97   13.53
 -11   1   8   62.81    7.95
 -11   1   8   85.64   10.68
 -11   1   8   57.46   12.78
  11   1  -7   25.50    6.13
 -11   1   7   33.59    6.79
 -11   1   7   25.57    5.37
 -11   1   7   14.77    7.46
  11   1  -6   51.23    8.97
 -11   1   6   31.79    6.48
  11   1  -6   53.68    7.38
 -11   1   6   44.52    7.51
 -11   1   6   58.33    9.04
 -11   1   6   36.61   11.65
  11   1  -5  109.73   12.84
 -11   1   5  104.34   11.31
  11   1  -5  170.13   13.35
 -11   1   5  135.45   13.36
 -11   1   5  134.82   13.94
 -11   1   5  142.88   21.95
  11   1  -4  349.33   20.80
  11   1  -4  475.31   23.08
 -11   1   4  341.34   21.10
 -11   1   4  386.24   22.56
 -11   1   4  408.12   24.17
 -11   1   4  470.30   37.91
  11   1  -3  287.08   18.16
 -11   1   3  241.17   17.71
  11   1  -3  245.99   24.12
 -11   1   3  252.03   18.65
 -11   1   3  314.09   28.49
  11   1  -2   49.44    7.64
 -11   1   2   24.14    5.68
 -11   1   2   41.73    7.29
 -11   1   2   36.19    6.73
  11   1  -2   46.39    9.84
 -11   1   2   61.86   11.15
  11   1  -1  186.76   13.64
 -11   1   1  158.45   13.34
  11   1  -1  138.60   15.48
 -11   1   1  170.37   13.92
  11   1   0  298.13   15.60
 -11   1   0  284.33   16.39
 -11   1   0  298.36   16.98
  11   2  -9  101.87    9.41
  11   2  -8    4.98    2.51
 -11   2   8    3.79    2.36
 -11   2   8    9.58    3.80
 -11   2   8    6.11    2.87
 -11   2   8   10.92    6.85
  11   2  -7  107.23   11.52
 -11   2   7   88.71   10.33
 -11   2   7  122.33   11.91
  11   2  -7  117.41   14.89
 -11   2   7  122.78   11.83
 -11   2   7   86.39   16.96
  11   2  -6  229.88   16.89
 -11   2   6  235.54   17.62
 -11   2   6  267.75   18.28
  11   2  -6  287.68   16.44
  11   2  -6  287.75   23.82
 -11   2   6  263.25   17.68
 -11   2   6  241.74   28.87
  11   2  -5  112.44   11.68
 -11   2   5  107.26   11.91
  11   2  -5  139.87   12.09
 -11   2   5  123.62   12.42
  11   2  -5  132.17   16.92
 -11   2   5  121.50   12.11
 -11   2   5  132.86   21.39
  11   2  -4   15.24    4.33
  11   2  -4   32.77    6.17
 -11   2   4   18.83    5.30
 -11   2   4   22.72    5.14
 -11   2   4   26.23    5.87
  11   2  -4   37.49    9.07
 -11   2   4   22.26    8.01
 -11   2   3  129.17   12.74
  11   2  -3  187.23   14.33
 -11   2   3  162.46   14.17
  11   2  -3  160.99   18.77
 -11   2   3  160.48   13.38
 -11   2   3  182.53   20.38
 -11   2   2  305.30   19.00
 -11   2   2  362.36   20.13
  11   2  -2  336.29   26.12
 -11   2   2  336.36   18.58
 -11   2   1   95.86    9.92
 -11   2   1  118.94   10.85
  11   2  -1  118.23   14.25
  11   3  -8  319.85   15.77
 -11   3   8  352.94   17.71
  11   3  -7   31.25    5.09
 -11   3   7   22.53    4.92
 -11   3   7   31.88    5.65
 -11   3   7   19.65    8.41
  11   3  -6   19.88    4.41
 -11   3   6   21.37    4.97
  11   3  -6   31.91    5.32
 -11   3   6   29.83    5.68
  11   3  -6   31.40    7.38
 -11   3   6   29.38    8.83
 -11   3   5  212.83   15.81
 -11   3   5  246.64   16.39
  11   3  -5  240.23   15.45
  11   3  -5  219.40   19.99
 -11   3   5  238.46   24.93
 -11   3   4  307.00   18.84
 -11   3   4  280.83   17.13
  11   3  -4  354.91   18.82
  11   3  -4  344.05   25.83
 -11   3   4  306.55   25.66
 -11   3   3  134.53   12.18
  11   3  -3  157.97   12.37
 -11   3   3  174.95   13.33
  11   3  -3  154.08   17.22
  11   3  -2    3.30    2.00
 -11   3   2    2.98    1.96
 -11   3   2    6.69    2.74
  11   3  -2    4.59    3.43
  12  -1  -7  395.92   18.45
 -12  -1   7  331.83   18.52
  12  -1  -6  105.19    9.58
 -12  -1   6   71.44    8.73
  12  -1  -5   13.18    3.39
 -12  -1   5   12.71    3.74
 -12  -1   4  212.52   14.70
  12   0  -8    2.21    1.72
 -12   0   8    2.34    1.98
  12   0  -7  221.34   13.81
 -12   0   7  193.73   14.25
  12   0  -6  195.80   13.58
 -12   0   6  173.99   13.75
  12   0  -5  126.21   10.50
 -12   0   5  108.14   10.87
 -12   0   4    1.77    2.32
  12   0  -4    3.02    2.74
 -12   0   3    3.24    1.74
  12   1  -7  370.95   17.22
 -12   1   7  370.43   19.13
  12   1  -6   91.05    8.38
  12   1  -6  103.75   13.15
 -12   1   6   92.07    9.65
 -12   1   6  117.08   15.69
 -12   1   5   21.49    4.84
  12   1  -5   26.78    6.83
 -12   1   5   22.34    6.91
  12   1  -4  241.91   19.81
 -12   1   4  240.95   15.15
   0   0   0    0.00    0.00


TITL JM024_outrej_Freq in P2(1)
REM P2(1) (#4 in standard setting)
CELL 1.54184  10.294722   6.959252  11.058944  90.0000 115.1631  90.0000
ZERR    2.00   0.000210   0.000100   0.000216   0.0000   0.0024   0.0000
LATT -1
SYMM -x, y+1/2,-z
SFAC C H N Br
UNIT 32.00 28.00 6.00 2.00
TREF
HKLF 4
END
_computing_structure_solution     'SHELXT 2014/5 (Sheldrick, 2014)'
;
_shelx_hkl_checksum              89708
_olex2_submission_special_instructions 'No special instructions were received'
_oxdiff_exptl_absorpt_empirical_details
;
Empirical correction (ABSPACK) includes:
- Absorption correction using spherical harmonics
- Frame scaling
- Detector area scaling
;
_oxdiff_exptl_absorpt_empirical_full_max 4.598
_oxdiff_exptl_absorpt_empirical_full_min 0.365
loop_
_space_group_symop_operation_xyz
'x, y, z'
'-x, y+1/2, -z'
loop_
_atom_site_label
_atom_site_type_symbol
_atom_site_fract_x
_atom_site_fract_y
_atom_site_fract_z
_atom_site_U_iso_or_equiv
_atom_site_adp_type
_atom_site_occupancy
_atom_site_site_symmetry_order
_atom_site_calc_flag
_atom_site_refinement_flags_posn
Br1 Br 0.57159(5) 0.55288(9) 0.38610(4) 0.02609(19) Uani 1 1 d .
N2 N 0.4140(4) 0.0231(8) 0.2877(4) 0.0278(10) Uani 1 1 d .
C11 C 0.2915(6) 0.4209(9) 0.0907(5) 0.0284(12) Uani 1 1 d .
C15 C 0.3546(7) 0.4149(12) -0.0950(6) 0.0393(15) Uani 1 1 d .
H15 H 0.393945 0.347970 -0.146537 0.047 Uiso 1 1 calc R
C4 C 0.8619(6) -0.0313(9) 0.5072(6) 0.0322(12) Uani 1 1 d .
H4 H 0.821412 -0.122151 0.436890 0.039 Uiso 1 1 calc R
C10 C 0.1454(7) 0.1962(10) 0.1636(7) 0.0393(15) Uani 1 1 d .
H10A H 0.060345 0.268711 0.104696 0.059 Uiso 1 1 calc GR
H10B H 0.132783 0.151974 0.242085 0.059 Uiso 1 1 calc GR
H10C H 0.158226 0.085093 0.115370 0.059 Uiso 1 1 calc GR
C3 C 0.7776(6) 0.1167(8) 0.5205(5) 0.0242(11) Uani 1 1 d .
C2 C 0.6265(6) 0.1313(9) 0.4235(6) 0.0261(11) Uani 1 1 d .
C9 C 0.2775(6) 0.3254(8) 0.2084(5) 0.0279(11) Uani 1 1 d .
H9 H 0.266525 0.429240 0.265825 0.033 Uiso 1 1 calc R
C6 C 1.0655(6) 0.0885(9) 0.6986(6) 0.0317(15) Uani 1 1 d .
H6 H 1.164432 0.080803 0.757957 0.038 Uiso 1 1 calc R
N3 N 0.5464(5) -0.0279(8) 0.3692(5) 0.0268(10) Uani 1 1 d .
C16 C 0.3465(6) 0.3236(9) 0.0131(6) 0.0343(13) Uani 1 1 d .
H16 H 0.378476 0.194641 0.033947 0.041 Uiso 1 1 calc R
C8 C 0.8371(6) 0.2484(8) 0.6243(6) 0.0296(11) Uani 1 1 d .
H8 H 0.779578 0.348095 0.634651 0.035 Uiso 1 1 calc R
N1 N 0.4087(5) 0.2173(7) 0.2893(4) 0.0268(10) Uani 1 1 d .
C12 C 0.2477(7) 0.6105(9) 0.0604(6) 0.0361(14) Uani 1 1 d .
H12 H 0.211347 0.678467 0.113962 0.043 Uiso 1 1 calc R
C14 C 0.3071(6) 0.5992(11) -0.1287(6) 0.040(2) Uani 1 1 d .
H14 H 0.308086 0.657395 -0.206028 0.048 Uiso 1 1 calc R
C5 C 1.0052(6) -0.0455(10) 0.5973(6) 0.0384(14) Uani 1 1 d .
H5 H 1.062276 -0.147722 0.589424 0.046 Uiso 1 1 calc R
C7 C 0.9814(6) 0.2333(9) 0.7132(6) 0.0342(12) Uani 1 1 d .
H7 H 1.022208 0.323167 0.784118 0.041 Uiso 1 1 calc R
C13 C 0.2567(8) 0.7015(11) -0.0475(7) 0.0450(16) Uani 1 1 d .
H13 H 0.228968 0.832241 -0.066395 0.054 Uiso 1 1 calc R
C1 C 0.5394(6) 0.2889(9) 0.3721(5) 0.0255(11) Uani 1 1 d .
loop_
_atom_site_aniso_label
_atom_site_aniso_U_11
_atom_site_aniso_U_22
_atom_site_aniso_U_33
_atom_site_aniso_U_23
_atom_site_aniso_U_13
_atom_site_aniso_U_12
Br1 0.0340(3) 0.0169(3) 0.0289(3) 0.0000(3) 0.0150(2) -0.0009(3)
N2 0.029(2) 0.025(3) 0.030(2) -0.002(2) 0.0125(16) 0.000(2)
C11 0.027(3) 0.035(3) 0.024(3) 0.002(2) 0.010(2) -0.003(2)
C15 0.036(3) 0.053(4) 0.032(3) -0.004(3) 0.017(3) -0.005(3)
C4 0.039(3) 0.025(3) 0.035(3) -0.003(2) 0.017(2) 0.002(2)
C10 0.031(3) 0.037(3) 0.048(4) 0.010(3) 0.014(3) 0.002(3)
C3 0.030(3) 0.023(3) 0.025(2) 0.0038(19) 0.016(2) 0.000(2)
C2 0.031(3) 0.021(2) 0.029(3) -0.002(2) 0.016(2) -0.002(2)
C9 0.029(3) 0.023(3) 0.033(3) 0.003(2) 0.015(2) 0.002(2)
C6 0.029(2) 0.031(4) 0.032(3) 0.003(2) 0.011(2) 0.003(2)
N3 0.036(2) 0.016(2) 0.034(2) -0.0012(19) 0.020(2) -0.001(2)
C16 0.029(3) 0.037(3) 0.033(3) -0.004(2) 0.010(2) 0.000(2)
C8 0.034(3) 0.021(3) 0.035(3) -0.001(2) 0.016(2) 0.004(2)
N1 0.032(2) 0.021(3) 0.028(2) 0.0031(19) 0.0143(19) 0.0030(18)
C12 0.041(3) 0.035(4) 0.036(3) 0.007(2) 0.020(3) 0.010(2)
C14 0.032(3) 0.064(7) 0.030(3) 0.020(3) 0.019(2) 0.003(3)
C5 0.035(3) 0.037(3) 0.041(3) 0.003(3) 0.015(3) 0.011(3)
C7 0.036(3) 0.032(3) 0.032(3) -0.001(2) 0.012(2) -0.004(2)
C13 0.051(4) 0.041(4) 0.043(4) 0.019(3) 0.019(3) 0.009(3)
C1 0.034(3) 0.020(3) 0.027(3) 0.000(2) 0.017(2) -0.002(2)
loop_
_atom_type_symbol
_atom_type_description
_atom_type_scat_dispersion_real
_atom_type_scat_dispersion_imag
_atom_type_scat_source
C C 0.0181 0.0091 'International Tables Vol C Tables 4.2.6.8 and 6.1.1.4'
H H 0.0000 0.0000 'International Tables Vol C Tables 4.2.6.8 and 6.1.1.4'
Br Br -0.6763 1.2805 'International Tables Vol C Tables 4.2.6.8 and 6.1.1.4'
N N 0.0311 0.0180 'International Tables Vol C Tables 4.2.6.8 and 6.1.1.4'
loop_
_geom_angle_atom_site_label_1
_geom_angle_atom_site_label_2
_geom_angle_atom_site_label_3
_geom_angle
N3 N2 N1 107.1(4)
C16 C11 C9 121.8(5)
C12 C11 C9 118.8(6)
C12 C11 C16 119.3(6)
C16 C15 H15 119.3
C14 C15 H15 119.3
C14 C15 C16 121.3(6)
C3 C4 H4 120.1
C5 C4 H4 120.1
C5 C4 C3 119.7(6)
H10A C10 H10B 109.5
H10A C10 H10C 109.5
H10B C10 H10C 109.5
C9 C10 H10A 109.5
C9 C10 H10B 109.5
C9 C10 H10C 109.5
C4 C3 C2 119.2(5)
C8 C3 C4 119.9(5)
C8 C3 C2 120.9(5)
N3 C2 C3 121.4(5)
N3 C2 C1 107.5(5)
C1 C2 C3 131.1(6)
C11 C9 C10 112.0(5)
C11 C9 H9 107.8
C10 C9 H9 107.8
N1 C9 C11 110.4(4)
N1 C9 C10 110.9(5)
N1 C9 H9 107.8
C5 C6 H6 120.1
C7 C6 H6 120.1
C7 C6 C5 119.9(5)
N2 N3 C2 109.7(5)
C11 C16 H16 120.0
C15 C16 C11 119.9(6)
C15 C16 H16 120.0
C3 C8 H8 120.2
C3 C8 C7 119.7(5)
C7 C8 H8 120.2
N2 N1 C9 122.3(4)
N2 N1 C1 109.9(4)
C1 N1 C9 127.7(5)
C11 C12 H12 119.8
C11 C12 C13 120.5(6)
C13 C12 H12 119.8
C15 C14 H14 120.4
C15 C14 C13 119.1(6)
C13 C14 H14 120.4
C4 C5 H5 119.8
C6 C5 C4 120.4(6)
C6 C5 H5 119.8
C6 C7 C8 120.4(5)
C6 C7 H7 119.8
C8 C7 H7 119.8
C12 C13 C14 119.7(6)
C12 C13 H13 120.1
C14 C13 H13 120.1
C2 C1 Br1 133.6(5)
N1 C1 Br1 120.5(4)
N1 C1 C2 105.7(5)
loop_
_geom_bond_atom_site_label_1
_geom_bond_atom_site_label_2
_geom_bond_distance
Br1 C1 1.862(6)
N2 N3 1.324(7)
N2 N1 1.353(7)
C11 C9 1.521(7)
C11 C16 1.389(8)
C11 C12 1.389(9)
C15 H15 0.9500
C15 C16 1.387(9)
C15 C14 1.367(12)
C4 H4 0.9500
C4 C3 1.394(8)
C4 C5 1.389(8)
C10 H10A 0.9800
C10 H10B 0.9800
C10 H10C 0.9800
C10 C9 1.527(8)
C3 C2 1.471(8)
C3 C8 1.391(8)
C2 N3 1.359(7)
C2 C1 1.376(9)
C9 H9 1.0000
C9 N1 1.471(7)
C6 H6 0.9500
C6 C5 1.385(9)
C6 C7 1.382(9)
C16 H16 0.9500
C8 H8 0.9500
C8 C7 1.394(8)
N1 C1 1.360(7)
C12 H12 0.9500
C12 C13 1.389(9)
C14 H14 0.9500
C14 C13 1.407(10)
C5 H5 0.9500
C7 H7 0.9500
C13 H13 0.9500
