#------------------------------------------------------------------------------
#$Date: 2019-11-04 11:26:05 +0200 (Mon, 04 Nov 2019) $
#$Revision: 222598 $
#$URL: file:///home/coder/svn-repositories/cod/cif/4/03/40/4034038.cif $
#------------------------------------------------------------------------------
#
# This file is available in the Crystallography Open Database (COD),
# http://www.crystallography.net/
#
# All data on this site have been placed in the public domain by the
# contributors.
#
data_4034038
loop_
_publ_author_name
'Donikela, Sangeetha'
'Mainkar, Prathama S.'
'Nayani, Kiranmai'
'Chandrasekhar, Srivari'
_publ_section_title
;
 Metal Free Domino \b-Azidation/[3 + 2] Cycloaddition Reaction for the
 Synthesis of 1,2,3-Triazole-Fused Dihydrobenzoxazinones.
;
_journal_issue                   16
_journal_name_full               'The Journal of organic chemistry'
_journal_page_first              10546
_journal_page_last               10553
_journal_paper_doi               10.1021/acs.joc.9b01660
_journal_volume                  84
_journal_year                    2019
_chemical_formula_moiety         'C16 H14 Cl N3 O2'
_chemical_formula_sum            'C16 H14 Cl N3 O2'
_chemical_formula_weight         315.75
_space_group_crystal_system      triclinic
_space_group_IT_number           2
_space_group_name_Hall           '-P 1'
_space_group_name_H-M_alt        'P -1'
_atom_sites_solution_hydrogens   geom
_audit_creation_method           SHELXL-2018/3
_cell_angle_alpha                70.5234(5)
_cell_angle_beta                 84.0295(5)
_cell_angle_gamma                84.7558(5)
_cell_formula_units_Z            2
_cell_length_a                   6.79503(10)
_cell_length_b                   9.34296(15)
_cell_length_c                   12.13842(19)
_cell_measurement_reflns_used    9964
_cell_measurement_temperature    294(2)
_cell_measurement_theta_max      30.45
_cell_measurement_theta_min      2.36
_cell_volume                     721.255(19)
_computing_cell_refinement       '<i>SAINT</i> (Bruker, 2016)'
_computing_data_collection       '<i>APEX3</i> (Bruker, 2016)'
_computing_data_reduction        'Bruker SAINT'
_computing_molecular_graphics    'DIAMOND (Brandenburg & Putz, 2005)'
_computing_publication_material  'Bruker SHELXTL'
_computing_structure_refinement  '<i>SHELXL2014</i> (Sheldrick, 2015)'
_computing_structure_solution    '<i>SHELXT</i> (Sheldrick, 2015)'
_diffrn_ambient_temperature      294(2)
_diffrn_measured_fraction_theta_full 0.998
_diffrn_measured_fraction_theta_max 0.996
_diffrn_measurement_device_type  'Bruker D8 QUEST PHOTON-100'
_diffrn_measurement_method       '\w and \f'
_diffrn_radiation_type           MoK\a
_diffrn_radiation_wavelength     0.71073
_diffrn_reflns_av_R_equivalents  0.0329
_diffrn_reflns_av_unetI/netI     0.0312
_diffrn_reflns_Laue_measured_fraction_full 0.998
_diffrn_reflns_Laue_measured_fraction_max 0.996
_diffrn_reflns_limit_h_max       9
_diffrn_reflns_limit_h_min       -7
_diffrn_reflns_limit_k_max       13
_diffrn_reflns_limit_k_min       -13
_diffrn_reflns_limit_l_max       17
_diffrn_reflns_limit_l_min       -17
_diffrn_reflns_number            18508
_diffrn_reflns_point_group_measured_fraction_full 0.998
_diffrn_reflns_point_group_measured_fraction_max 0.996
_diffrn_reflns_theta_full        25.242
_diffrn_reflns_theta_max         30.503
_diffrn_reflns_theta_min         2.316
_exptl_absorpt_coefficient_mu    0.276
_exptl_absorpt_correction_T_max  0.7461
_exptl_absorpt_correction_T_min  0.5900
_exptl_absorpt_correction_type   multi-scan
_exptl_absorpt_process_details   'SADABS, Bruker, 2016'
_exptl_crystal_colour            colorless
_exptl_crystal_density_diffrn    1.454
_exptl_crystal_description       block
_exptl_crystal_F_000             328
_exptl_crystal_size_max          0.250
_exptl_crystal_size_mid          0.220
_exptl_crystal_size_min          0.140
_refine_diff_density_max         0.270
_refine_diff_density_min         -0.498
_refine_diff_density_rms         0.055
_refine_ls_extinction_method     none
_refine_ls_goodness_of_fit_ref   1.025
_refine_ls_hydrogen_treatment    constr
_refine_ls_matrix_type           full
_refine_ls_number_parameters     200
_refine_ls_number_reflns         4389
_refine_ls_number_restraints     0
_refine_ls_restrained_S_all      1.025
_refine_ls_R_factor_all          0.0555
_refine_ls_R_factor_gt           0.0429
_refine_ls_shift/su_max          0.001
_refine_ls_shift/su_mean         0.000
_refine_ls_structure_factor_coef Fsqd
_refine_ls_weighting_details
'w=1/[\s^2^(Fo^2^)+(0.0524P)^2^+0.2356P] where P=(Fo^2^+2Fc^2^)/3'
_refine_ls_weighting_scheme      calc
_refine_ls_wR_factor_gt          0.1093
_refine_ls_wR_factor_ref         0.1170
_reflns_Friedel_coverage         0.000
_reflns_number_gt                3547
_reflns_number_total             4389
_reflns_threshold_expression     'I > 2\s(I)'
_cod_data_source_file            jo9b01660_si_002.cif
_cod_data_source_block           KA679_0m-auto
_cod_original_cell_volume        721.256(19)
_cod_database_code               4034038
_shelx_shelxl_version_number     2018/3
_shelx_space_group_comment
;
The symmetry employed for this shelxl refinement is uniquely defined
by the following loop, which should always be used as a source of
symmetry information in preference to the above space-group names.
They are only intended as comments.
;
_shelx_estimated_absorpt_t_min   0.934
_shelx_estimated_absorpt_t_max   0.962
_shelx_res_file
;
TITL KA679_0m_a.res in P-1
    KA679_0m-auto.res
    created by SHELXL-2018/3 at 11:40:50 on 08-May-2019
CELL 0.71073 6.79503   9.34296  12.13842   70.5234   84.0295   84.7558
ZERR 2.00 0.00010   0.00015   0.00019    0.0005    0.0005    0.0005
LATT 1
SFAC C  H  N  O  Cl
UNIT 32  28  6  4  2
LIST 6 ! automatically inserted. Change 6 to 4 for CHECKCIF!!
SIZE 0.25 0.22 0.14
L.S. 10
ACTA
BOND $H
CONF
FMAP 2
PLAN 5
TEMP 21.000
WGHT    0.052400    0.235600
FVAR       0.76915
C1    1    0.733850    0.855623    0.353284    11.00000    0.02366    0.03461 =
         0.03130   -0.01418    0.00078   -0.00480
C2    1    0.557885    0.855136    0.283840    11.00000    0.02494    0.03013 =
         0.02661   -0.00913   -0.00162   -0.00003
AFIX  13
H2    2    0.556575    0.946877    0.214638    11.00000   -1.20000
AFIX   0
C3    1    0.360593    0.852106    0.356790    11.00000    0.02272    0.03685 =
         0.03559   -0.01447   -0.00118    0.00242
AFIX  23
H3A   2    0.333504    0.948848    0.370395    11.00000   -1.20000
H3B   2    0.255696    0.839676    0.312891    11.00000   -1.20000
AFIX   0
C4    1    0.358306    0.726263    0.472893    11.00000    0.02742    0.04033 =
         0.03496   -0.01426    0.00406   -0.00391
C5    1    0.547051    0.679823    0.527538    11.00000    0.03465    0.04247 =
         0.02974   -0.00576   -0.00065   -0.00156
AFIX  43
H4    2    0.548198    0.607408    0.601844    11.00000   -1.20000
AFIX   0
C6    1    0.716842    0.738458    0.473723    11.00000    0.02833    0.04424 =
         0.03024   -0.01212   -0.00593    0.00024
AFIX  43
H6    2    0.831595    0.705036    0.512866    11.00000   -1.20000
AFIX   0
C7    1    0.750860    1.012495    0.362810    11.00000    0.04291    0.04176 =
         0.05516   -0.02560    0.00453   -0.01168
AFIX 137
H7A   2    0.856378    1.008326    0.410801    11.00000   -1.50000
H7B   2    0.628425    1.043942    0.397584    11.00000   -1.50000
H7C   2    0.778496    1.084055    0.286048    11.00000   -1.50000
AFIX   0
C8    1    0.939403    0.678224    0.280869    11.00000    0.02114    0.04283 =
         0.04105   -0.02138   -0.00294   -0.00138
AFIX  23
H8A   2    0.961400    0.604919    0.357435    11.00000   -1.20000
H8B   2    1.054759    0.671627    0.228146    11.00000   -1.20000
AFIX   0
C9    1    0.760518    0.641430    0.236597    11.00000    0.02134    0.03485 =
         0.02723   -0.01173   -0.00064   -0.00173
C10   1    0.717564    0.537745    0.185163    11.00000    0.02550    0.03372 =
         0.02648   -0.01072   -0.00239   -0.00199
C11   1    0.847542    0.421301    0.153069    11.00000    0.03098    0.03086 =
         0.02757   -0.00989   -0.00065   -0.00220
C12   1    1.033681    0.377413    0.195721    11.00000    0.03743    0.04203 =
         0.04541   -0.02208   -0.01047    0.00475
AFIX  43
H12   2    1.074575    0.419841    0.248170    11.00000   -1.20000
AFIX   0
C13   1    1.159492    0.271628    0.161571    11.00000    0.03785    0.04159 =
         0.04811   -0.01647   -0.00802    0.00782
AFIX  43
H13   2    1.284716    0.244853    0.189358    11.00000   -1.20000
AFIX   0
C14   1    1.095990    0.206822    0.085808    11.00000    0.04792    0.03085 =
         0.03278   -0.00900    0.00379    0.00441
C15   1    0.911975    0.246230    0.043191    11.00000    0.05478    0.03950 =
         0.03435   -0.01783   -0.00569    0.00179
AFIX  43
H15   2    0.870760    0.200756   -0.007260    11.00000   -1.20000
AFIX   0
C16   1    0.788152    0.354108    0.075804    11.00000    0.03874    0.03882 =
         0.03378   -0.01509   -0.00724    0.00028
AFIX  43
H16   2    0.664505    0.382012    0.046019    11.00000   -1.20000
AFIX   0
N1    3    0.587080    0.721021    0.245281    11.00000    0.02007    0.03666 =
         0.02908   -0.01418   -0.00328   -0.00091
N2    3    0.441671    0.672888    0.200241    11.00000    0.02369    0.04668 =
         0.03758   -0.02023   -0.00728   -0.00125
N3    3    0.521522    0.560913    0.164765    11.00000    0.02783    0.04306 =
         0.03667   -0.01850   -0.00601   -0.00252
O1    4    0.205792    0.669034    0.521647    11.00000    0.03324    0.07660 =
         0.05436   -0.00469    0.00674   -0.01761
O2    4    0.914391    0.827540    0.289175    11.00000    0.02306    0.04100 =
         0.03924   -0.01856    0.00438   -0.00893
CL1   5    1.254126    0.073812    0.043222    11.00000    0.06996    0.04949 =
         0.04938   -0.02161   -0.00111    0.02116
HKLF 4 1 1 0 0 0 1 0 0 0 1




REM  KA679_0m_a.res in P-1
REM wR2 = 0.1170, GooF = S = 1.025, Restrained GooF = 1.025 for all data
REM R1 = 0.0429 for 3547 Fo > 4sig(Fo) and 0.0555 for all 4389 data
REM 200 parameters refined using 0 restraints

END

WGHT      0.0524      0.2356

REM Highest difference peak  0.270,  deepest hole -0.498,  1-sigma level  0.055
Q1    1   0.6393  0.8596  0.3206  11.00000  0.05    0.27
Q2    1   0.7824  0.4835  0.1654  11.00000  0.05    0.25
Q3    1   1.3382  0.1401  0.0420  11.00000  0.05    0.24
Q4    1   1.0940  0.3220  0.1821  11.00000  0.05    0.21
Q5    1   0.4595  0.8537  0.3186  11.00000  0.05    0.21
;
_shelx_res_checksum              13845
_shelx_hkl_file
;
  -1   0   0    8.03    0.36
   1   0   0    7.73    0.35
   1   0   0    7.10    0.37
   2   0   0  454.09   18.03
   3   0   0  106.76    4.59
   3   0   0  116.80    4.54
   4   0   0  190.23    7.94
   4   0   0  197.62    7.77
   4   0   0  199.66    7.86
   4   0   0  193.87    7.75
   5   0   0   10.21    0.61
   5   0   0    9.82    0.63
   5   0   0   10.20    0.74
   5   0   0    9.76    0.51
   6   0   0  228.08    9.14
   6   0   0  224.30    9.24
   7   0   0    0.11    0.28
   7   0   0    0.17    0.54
   7   0   0    0.66    0.37
   7   0   0    0.33    0.28
   8   0   0    0.58    0.37
   8   0   0   -0.06    1.07
   8   0   0    0.17    0.39
   8   0   0   -0.21    0.33
   9   0   0   -1.40    1.34
   9   0   0    0.38    0.46
   9  -1   0   -0.13    1.33
   9  -1   0    0.06    0.53
   8  -1   0   57.58    2.86
   8  -1   0   56.72    2.52
   8  -1   0   63.45    2.72
   8  -1   0   59.44    3.28
   7  -1   0   10.54    0.98
   7  -1   0    9.25    0.80
   7  -1   0    9.87    0.92
   7  -1   0   10.05    1.31
   6  -1   0  230.38    9.84
   6  -1   0  246.03    9.70
   6  -1   0  232.61    9.49
   6  -1   0  246.27    9.58
   5  -1   0  218.44    8.15
   5  -1   0  199.42    8.09
   5  -1   0  204.79    8.28
   5  -1   0  192.38    8.41
   4  -1   0   56.39    2.71
   4  -1   0   64.87    2.62
   3  -1   0  266.55   11.01
   3  -1   0  278.11   10.91
  -2   1   0  254.87   11.41
  -2   1   0  264.45   11.46
   1  -1   0  392.07   15.07
  -1   1   0  364.68   15.06
   0  -1   0   49.47    2.37
   0  -1   0   66.31    2.36
   0  -1   0   61.59    2.39
   0   1   0   55.35    2.41
  -1  -1   0  519.97   23.18
   1   1   0  559.64   23.41
  -2  -1   0  831.99   36.37
   2   1   0  891.37   36.78
  -3  -1   0   21.40    1.00
   3   1   0   20.95    0.96
   3   1   0   21.84    0.94
   3   1   0   19.99    0.95
   3   1   0   23.65    0.96
  -4  -1   0   75.12    3.33
   4   1   0   77.18    3.28
   4   1   0   82.91    3.26
   4   1   0   80.67    3.24
   4   1   0   81.73    3.28
   5   1   0  403.77   15.62
   5   1   0  351.14   15.69
   5   1   0  400.52   15.60
   5   1   0  414.64   15.66
   6   1   0    0.55    0.24
   6   1   0    1.67    0.32
   6   1   0    2.18    0.49
   6   1   0    1.37    0.32
   7   1   0    8.01    0.59
   7   1   0    6.56    0.56
   7   1   0    7.34    0.65
   8   1   0    3.42    0.46
   8   1   0    4.48    0.56
   9   1   0    4.31    1.60
   9   1   0    4.76    0.61
   9  -2   0   15.71    1.40
   8  -2   0   10.24    1.05
   8  -2   0   11.73    1.39
   8  -2   0   12.09    1.63
   7  -2   0    2.46    0.77
   7  -2   0    2.59    0.52
   7  -2   0    3.26    0.69
   7  -2   0    2.61    0.57
   6  -2   0    0.27    0.50
   6  -2   0    0.32    0.22
   6  -2   0    1.09    0.40
   6  -2   0    0.28    0.50
   6  -2   0    0.51    0.37
   5  -2   0    4.92    0.50
   5  -2   0    5.51    0.39
   5  -2   0    4.98    0.74
   5  -2   0    6.11    0.62
   4  -2   0   97.92    3.87
   4  -2   0   87.73    4.20
   4  -2   0   95.51    4.06
   4  -2   0  102.81    3.92
   3  -2   0   96.56    4.53
   3  -2   0  108.24    4.26
   3  -2   0  113.13    4.30
   2  -2   0   33.57    1.36
   2  -2   0   30.27    1.56
   2  -2   0   33.27    1.35
   2  -2   0   34.51    1.39
  -2   2   0   27.75    1.54
   1  -2   0  250.06   11.26
   1  -2   0  281.62   11.15
   1  -2   0  286.48   11.16
  -1   2   0  292.84   11.16
  -1   2   0  290.58   11.15
   0  -2   0 1421.97   57.13
   0   2   0 1306.26   56.80
  -1  -2   0 1047.23   46.47
   1   2   0 1130.90   46.71
   2   2   0  766.00   30.33
  -3  -2   0  103.60    4.03
  -3  -2   0   98.78    4.00
  -3  -2   0  100.87    4.04
   3   2   0  100.82    4.08
   3   2   0   96.64    4.10
   3   2   0   97.42    4.00
  -4  -2   0  585.37   22.66
   4   2   0  565.29   22.68
   4   2   0  572.47   22.65
   4   2   0  559.12   22.58
  -5  -2   0   30.70    1.50
   5   2   0   31.42    1.45
   5   2   0   31.31    1.36
   5   2   0   30.18    1.53
  -6  -2   0   47.09    2.41
   6   2   0   57.86    2.50
   6   2   0   53.28    2.34
   6   2   0   52.41    2.24
   7   2   0   21.43    1.08
   7   2   0   21.79    1.65
   7   2   0   22.72    1.24
   8   2   0   36.99    1.67
   8   2   0   33.68    1.82
   9   2   0    1.71    1.51
   9   2   0    2.34    0.52
   9  -3   0   21.51    1.65
   9  -3   0   18.25    2.04
   8  -3   0   27.02    2.12
   8  -3   0   26.13    1.69
   8  -3   0   27.69    1.94
   7  -3   0    7.08    1.06
   7  -3   0    7.03    0.87
   7  -3   0    5.40    0.72
   7  -3   0    8.06    0.92
   7  -3   0    6.65    0.59
   6  -3   0    2.30    0.36
   6  -3   0    2.61    0.50
   6  -3   0    2.71    0.54
   6  -3   0    2.07    0.53
   6  -3   0    2.30    0.68
   5  -3   0  541.58   22.00
   5  -3   0  555.05   21.83
   5  -3   0  533.59   22.23
   5  -3   0  564.66   21.92
   4  -3   0  206.48    8.98
   4  -3   0  222.19    8.64
   3  -3   0  323.60   12.44
   3  -3   0  313.65   12.36
   3  -3   0  295.71   12.71
   2  -3   0  189.30    7.26
   2  -3   0  184.55    7.25
   2  -3   0  168.03    7.46
  -2   3   0  192.43    7.21
  -2   3   0  192.44    7.22
  -2   3   0  151.14    7.42
   1  -3   0   36.15    1.51
   1  -3   0   30.51    1.62
  -1   3   0   36.34    1.51
  -1   3   0   28.34    1.61
  -1   3   0   35.91    1.50
   0  -3   0  512.44   21.65
   0  -3   0  559.56   21.59
   0  -3   0  578.45   21.59
   0   3   0  558.40   21.59
   0   3   0  579.77   21.60
   0   3   0  472.37   21.65
  -1  -3   0   72.30    2.91
  -1  -3   0   71.96    2.82
  -1  -3   0   67.47    2.92
   1   3   0   71.57    2.94
   1   3   0   60.00    2.91
   1   3   0   74.22    2.93
  -2  -3   0    2.45    0.30
  -2  -3   0    2.38    0.21
  -2  -3   0    2.11    0.23
  -2  -3   0    2.39    0.32
   2   3   0    2.58    0.36
   2   3   0    2.48    0.32
   2   3   0    2.39    0.22
  -3  -3   0    1.71    0.25
  -3  -3   0    1.81    0.21
  -3  -3   0    2.21    0.29
   3   3   0    2.07    0.31
   3   3   0    1.85    0.20
   3   3   0    2.21    0.37
  -4  -3   0   21.49    1.00
  -4  -3   0   21.49    0.94
  -4  -3   0   20.91    0.98
   4   3   0   20.99    0.93
   4   3   0   17.56    1.44
   4   3   0   19.94    1.07
  -5  -3   0   10.65    0.73
   5   3   0    9.64    0.55
   5   3   0   10.51    0.74
   5   3   0    9.62    0.92
  -6  -3   0    2.07    0.49
   6   3   0    1.97    0.62
   6   3   0    1.85    0.26
   6   3   0    2.90    0.47
  -7  -3   0    0.69    0.56
   7   3   0    0.28    0.23
   7   3   0    0.21    0.43
   7   3   0    0.36    0.81
   8   3   0    1.46    0.37
   8   3   0    1.18    0.62
   9   3   0    0.93    1.50
   8  -4   0   17.86    1.55
   8  -4   0   16.70    2.11
   7  -4   0   -0.32    0.48
   7  -4   0    0.57    0.82
   7  -4   0    0.03    0.59
   7  -4   0    0.45    0.51
   7  -4   0    0.47    0.37
   6  -4   0   11.62    0.79
   6  -4   0   12.05    1.39
   6  -4   0   11.07    0.82
   6  -4   0    9.33    1.02
   6  -4   0    9.80    0.98
   5  -4   0   17.80    1.08
   5  -4   0   16.71    1.45
   5  -4   0   17.84    0.98
   4  -4   0   96.04    3.97
   4  -4   0   87.51    4.32
   4  -4   0   97.95    3.94
   3  -4   0   50.09    2.11
   3  -4   0   48.89    2.14
   3  -4   0   43.08    2.39
   2  -4   0    2.74    0.38
   2  -4   0    2.71    0.49
   2  -4   0    3.13    0.41
  -2   4   0    2.26    0.36
  -2   4   0    3.12    0.38
   1  -4   0    8.36    0.60
   1  -4   0    7.98    0.72
   1  -4   0    9.61    0.63
  -1   4   0    6.72    0.77
  -1   4   0    8.38    0.63
  -1   4   0    8.66    0.61
   0  -4   0  101.33    4.26
   0  -4   0  111.61    4.26
   0  -4   0   98.12    4.35
   0   4   0  106.73    4.28
   0   4   0  105.55    4.27
   0   4   0   89.18    4.34
  -1  -4   0   10.22    0.69
  -1  -4   0   11.58    0.55
  -1  -4   0   10.59    0.68
   1   4   0   11.38    0.74
   1   4   0    9.64    0.66
   1   4   0    8.84    0.71
  -2  -4   0    1.65    0.31
  -2  -4   0    1.52    0.31
  -2  -4   0    1.39    0.18
  -2  -4   0    1.13    0.28
   2   4   0    1.43    0.29
  -3  -4   0   85.45    3.48
  -3  -4   0   88.02    3.43
  -3  -4   0   85.35    3.61
  -3  -4   0   85.76    3.59
   3   4   0   83.64    3.65
   3   4   0   85.36    3.69
   3   4   0   85.25    3.49
  -4  -4   0   54.13    2.30
  -4  -4   0   53.85    2.33
  -4  -4   0   53.61    2.30
   4   4   0   53.37    2.41
   4   4   0   53.35    2.23
   4   4   0   51.38    2.47
  -5  -4   0    3.91    0.45
  -5  -4   0    3.62    0.39
  -5  -4   0    4.55    0.54
   5   4   0    4.43    0.37
   5   4   0    3.65    0.51
   5   4   0    4.33    0.69
  -6  -4   0    0.71    0.43
   6   4   0    0.15    0.19
   6   4   0    0.18    0.67
   6   4   0   -0.26    0.37
  -7  -4   0   11.55    1.12
   7   4   0   10.20    1.07
   7   4   0   11.47    1.30
   7   4   0   11.31    0.70
   8   4   0   14.52    0.89
   8   4   0   13.55    1.44
   9   4   0   13.78    1.12
   9   4   0   23.61    2.93
   8  -5   0    8.59    1.15
   8  -5   0    8.05    1.53
   7  -5   0    9.97    1.47
   7  -5   0    9.35    0.93
   7  -5   0    9.84    1.13
   6  -5   0    2.51    0.53
   6  -5   0    2.51    0.89
   6  -5   0    3.64    0.68
   6  -5   0    3.05    0.93
   5  -5   0    8.68    0.91
   5  -5   0    7.60    0.77
   5  -5   0    8.82    1.26
   4  -5   0   95.10    4.06
   4  -5   0   88.81    4.45
   4  -5   0   99.37    4.04
   3  -5   0  177.50    8.04
   3  -5   0  187.25    7.70
   3  -5   0  193.63    7.71
  -3   5   0  185.77    7.55
  -3   5   0  195.12    7.63
   2  -5   0    0.63    0.35
   2  -5   0    0.46    0.39
   2  -5   0    0.32    0.29
  -2   5   0    0.47    0.30
   1  -5   0  587.35   25.01
   1  -5   0  626.91   24.83
   1  -5   0  643.39   24.82
  -1   5   0  616.55   24.65
  -1   5   0  618.90   24.82
  -1   5   0  641.55   24.82
   0  -5   0   88.42    4.15
   0  -5   0   94.66    4.05
   0  -5   0   97.82    4.08
   0   5   0   95.20    4.06
   0   5   0  101.06    4.10
  -1  -5   0   28.27    1.39
  -1  -5   0   25.83    1.21
  -1  -5   0   27.11    1.39
  -1  -5   0   25.97    1.40
   1   5   0   27.52    1.45
   1   5   0   26.95    1.38
  -2  -5   0  195.33    8.03
  -2  -5   0  195.75    7.97
  -2  -5   0  197.42    7.85
  -2  -5   0  195.77    8.00
   2   5   0  194.40    8.05
   2   5   0  197.23    8.08
  -3  -5   0  105.63    4.11
  -3  -5   0   96.14    4.22
  -3  -5   0  101.94    4.30
  -3  -5   0  105.01    4.28
   3   5   0  103.24    4.39
   3   5   0   98.40    4.32
   3   5   0   97.12    4.13
  -4  -5   0   24.46    1.15
  -4  -5   0   24.94    1.32
  -4  -5   0   24.32    1.28
   4   5   0   22.83    1.49
   4   5   0   24.64    1.15
   4   5   0   26.31    1.40
  -5  -5   0   10.41    0.76
  -5  -5   0    9.82    0.72
  -5  -5   0    9.45    0.75
   5   5   0   10.98    1.20
   5   5   0   10.59    0.92
   5   5   0   10.28    0.63
  -6  -5   0    1.45    0.24
  -6  -5   0    2.48    0.50
   6   5   0    2.07    0.58
   6   5   0    2.19    0.33
   6   5   0    1.86    0.84
  -7  -5   0   12.85    1.20
   7   5   0   11.98    1.25
   7   5   0   13.68    0.82
   8   5   0    2.10    1.15
   8   5   0    2.07    0.45
   9   5   0    3.29    1.94
   9   5   0    1.95    1.23
   8  -6   0   28.39    3.10
   8  -6   0   32.52    2.34
   7  -6   0   25.48    2.60
   7  -6   0   23.19    1.64
   7  -6   0   27.28    2.00
   6  -6   0    3.95    0.79
   6  -6   0    6.77    0.91
   6  -6   0    4.45    1.15
   6  -6   0    6.56    0.81
   5  -6   0    0.41    0.71
   5  -6   0   -0.18    0.59
   5  -6   0   -0.83    0.43
   4  -6   0   14.69    1.17
   4  -6   0   14.98    1.49
   4  -6   0   13.98    1.04
   3  -6   0    0.37    0.44
   3  -6   0    0.43    0.51
   3  -6   0    0.90    0.38
  -3   6   0    0.23    0.39
  -3   6   0    1.20    0.38
   2  -6   0  123.05    5.15
   2  -6   0  117.61    5.45
   2  -6   0  124.42    5.18
  -2   6   0  120.97    5.14
   1  -6   0   10.42    0.84
   1  -6   0    9.98    0.84
   1  -6   0    8.74    0.98
  -1   6   0   10.37    0.92
  -1   6   0    9.73    0.66
  -1   6   0    9.47    0.81
  -1   6   0    9.36    0.56
   0  -6   0    3.51    0.56
   0  -6   0    6.94    0.80
   0  -6   0    6.01    0.72
   0   6   0    4.23    0.65
   0   6   0    6.28    0.74
  -1  -6   0    5.28    0.69
  -1  -6   0    3.87    0.56
  -1  -6   0    4.86    0.43
  -1  -6   0    5.28    0.65
   1   6   0    4.58    0.69
   1   6   0    4.66    0.63
  -2  -6   0   -0.20    0.39
  -2  -6   0    0.69    0.30
  -2  -6   0    0.35    0.20
  -2  -6   0   -0.10    0.32
   2   6   0   -0.69    0.48
   2   6   0    0.08    0.30
  -3  -6   0   10.25    0.68
  -3  -6   0    9.71    0.60
  -3  -6   0   10.70    0.89
  -3  -6   0    9.45    0.88
   3   6   0    9.30    0.88
   3   6   0    8.35    1.08
  -4  -6   0    5.12    0.65
  -4  -6   0    5.25    0.33
  -4  -6   0    5.65    0.50
  -4  -6   0    6.14    0.71
   4   6   0    6.54    0.96
   4   6   0    6.38    0.78
  -5  -6   0   34.88    1.78
  -5  -6   0   35.76    1.77
  -5  -6   0   34.62    1.64
   5   6   0   34.13    1.92
   5   6   0   34.54    1.60
   5   6   0   36.44    2.18
  -6  -6   0  116.59    4.76
  -6  -6   0  116.88    4.74
  -6  -6   0  112.77    4.82
   6   6   0  113.00    4.75
   6   6   0  115.05    5.09
   7   6   0    6.18    0.68
   8   6   0   -0.27    0.41
   8   6   0    0.43    1.04
   7  -7   0    2.09    1.47
   7  -7   0    2.56    1.02
   6  -7   0   13.26    1.42
   6  -7   0   12.19    1.76
   5  -7   0    1.55    0.74
   5  -7   0    1.18    0.93
   5  -7   0    0.37    0.60
   4  -7   0   18.71    1.36
   4  -7   0   16.51    1.37
   3  -7   0   24.67    1.61
   3  -7   0   26.61    1.61
   3  -7   0   26.33    1.95
  -3   7   0   26.34    1.52
  -3   7   0   27.67    1.48
   2  -7   0  120.07    5.19
   2  -7   0  118.20    5.50
   2  -7   0  116.40    5.15
  -2   7   0  124.58    5.19
  -2   7   0  118.91    5.15
   1  -7   0   84.44    3.73
   1  -7   0   77.33    3.94
   1  -7   0   85.57    3.76
  -1   7   0   81.58    3.73
  -1   7   0   83.86    3.45
  -1   7   0   86.46    3.80
   0  -7   0    8.48    0.66
   0  -7   0    8.22    0.95
   0  -7   0    8.88    1.05
   0  -7   0   11.69    1.00
   0   7   0   10.28    1.02
   0   7   0    9.40    1.06
  -1  -7   0   70.47    3.10
  -1  -7   0   62.77    3.09
  -1  -7   0   64.18    2.80
  -1  -7   0   66.05    3.04
   1   7   0   63.90    3.13
   1   7   0   67.63    3.09
  -2  -7   0    4.03    0.65
  -2  -7   0    5.30    0.49
  -2  -7   0    4.62    0.70
  -2  -7   0    4.77    0.72
   2   7   0    5.04    0.88
   2   7   0    5.23    0.77
  -3  -7   0   42.56    1.90
  -3  -7   0   42.55    2.17
  -3  -7   0   44.11    2.00
  -3  -7   0   43.55    2.21
   3   7   0   41.17    2.43
   3   7   0   43.51    2.25
  -4  -7   0  120.90    5.42
  -4  -7   0  131.47    5.15
  -4  -7   0  131.66    5.50
  -4  -7   0  124.79    5.21
   4   7   0  127.94    5.58
  -5  -7   0    3.18    0.67
  -5  -7   0    3.18    0.65
  -5  -7   0    3.19    0.46
   5   7   0    3.50    0.77
  -6  -7   0   15.04    1.12
  -6  -7   0   15.87    1.52
  -6  -7   0   11.74    1.05
   6   7   0   13.14    1.44
   7   7   0    9.68    1.30
   8   7   0    6.25    1.41
   7  -8   0    3.54    1.20
   7  -8   0    5.30    1.65
   6  -8   0   -0.02    1.30
   6  -8   0    1.97    0.94
   5  -8   0   11.82    1.54
   5  -8   0   15.22    2.17
   4  -8   0   43.39    3.01
   4  -8   0   51.10    2.59
   3  -8   0   67.43    3.07
   3  -8   0   56.01    3.37
   3  -8   0   63.43    3.71
  -3   8   0   58.08    2.86
   2  -8   0   -0.23    0.59
   2  -8   0   -0.28    0.49
   2  -8   0   -1.17    0.62
  -2   8   0   -0.15    0.57
  -2   8   0   -0.74    0.70
   1  -8   0    2.43    0.71
   1  -8   0    2.30    0.75
   1  -8   0    2.42    0.61
  -1   8   0    3.30    0.41
  -1   8   0    3.17    0.68
  -1   8   0    2.39    0.84
  -1   8   0    3.14    0.47
   0  -8   0   18.54    1.43
   0  -8   0   19.47    1.39
   0  -8   0   16.99    1.49
   0  -8   0   16.38    1.05
   0   8   0   17.69    1.53
   0   8   0   18.89    1.45
   0   8   0   20.47    1.23
  -1  -8   0   12.49    1.29
  -1  -8   0   11.41    1.14
  -1  -8   0   10.70    1.14
  -1  -8   0   10.40    0.76
   1   8   0    9.97    1.36
   1   8   0   11.51    1.21
  -2  -8   0   16.46    1.37
  -2  -8   0   15.08    1.38
  -2  -8   0   16.29    1.27
  -2  -8   0   16.92    0.95
   2   8   0   19.03    1.40
  -3  -8   0    0.67    0.62
  -3  -8   0    0.47    0.70
  -3  -8   0    0.91    0.40
  -3  -8   0    0.96    0.34
   3   8   0   -0.17    0.58
  -4  -8   0   25.14    1.73
  -4  -8   0   25.01    1.30
  -4  -8   0   25.94    1.72
  -4  -8   0   25.84    1.22
   4   8   0   24.08    1.96
  -5  -8   0   -0.23    0.38
  -5  -8   0   -0.88    0.69
  -5  -8   0    0.35    0.65
   5   8   0    1.78    0.73
  -6  -8   0    0.70    0.67
   6   8   0    0.93    0.91
   7   8   0   -0.19    1.13
   6  -9   0    0.74    1.63
   6  -9   0    3.43    1.31
   5  -9   0    6.64    1.47
   5  -9   0    8.44    1.41
   4  -9   0    1.28    1.12
   4  -9   0   -0.53    0.80
   3  -9   0   14.15    1.90
   3  -9   0    9.84    1.60
  -3   9   0   11.69    1.55
  -3   9   0   13.01    1.35
   2  -9   0    1.83    0.91
  -2   9   0    1.47    0.79
  -2   9   0    2.03    1.01
   1  -9   0    5.33    1.03
  -1   9   0    6.33    0.98
  -1   9   0    5.88    0.71
  -1   9   0    6.98    0.69
   0  -9   0    4.40    0.87
   0   9   0    5.36    0.71
   0   9   0    5.21    0.96
  -1  -9   0   -0.04    0.85
  -1  -9   0    0.49    0.66
   1   9   0    0.22    0.73
  -2  -9   0    7.26    0.91
  -2  -9   0    5.88    0.95
   2   9   0    5.94    0.94
  -3  -9   0    2.72    0.59
  -3  -9   0    4.16    0.90
   3   9   0    2.66    0.78
  -4  -9   0   23.97    1.24
  -4  -9   0   22.29    1.77
   4   9   0   24.60    1.92
  -5  -9   0    0.33    0.78
   5   9   0    1.10    0.95
  -6  -9   0   11.87    1.60
   6   9   0    9.05    1.40
   7   9   0    3.58    1.37
   5 -10   0    3.78    1.79
   5 -10   0    5.29    1.45
   4 -10   0    4.71    1.34
   4 -10   0    3.08    1.33
   3 -10   0    9.49    1.56
   3 -10   0   14.14    1.80
  -3  10   0   11.90    1.34
   2 -10   0    0.32    0.94
   2 -10   0    0.47    0.91
  -2  10   0   -1.79    1.18
  -2  10   0    0.52    0.92
   1 -10   0   22.56    2.15
   1 -10   0   23.41    1.93
   0 -10   0   35.85    2.35
   0 -10   0   39.72    2.50
   0  10   0   37.53    2.43
   0  10   0   35.82    2.00
   0  10   0   34.78    2.00
  -1 -10   0   77.29    3.82
  -1 -10   0   76.17    3.85
   1  10   0   76.88    3.94
   1  10   0   74.83    3.69
  -2 -10   0   23.41    1.76
  -2 -10   0   22.56    1.96
   2  10   0   20.89    2.02
  -3 -10   0    6.02    1.13
  -3 -10   0    5.29    0.83
   3  10   0    6.14    1.22
  -4 -10   0    9.24    0.90
  -4 -10   0    9.09    1.28
   4  10   0    8.45    1.33
  -5 -10   0    2.86    1.14
   5  10   0    2.38    1.13
  -6 -10   0   -1.05    1.20
   6  10   0   -1.77    1.24
   4 -11   0    2.48    1.71
   3 -11   0   26.66    2.58
   3 -11   0   28.11    2.86
   2 -11   0    4.68    1.31
   2 -11   0    4.83    1.34
  -2  11   0    4.80    1.44
   1 -11   0   -0.72    0.97
   1 -11   0    1.12    1.14
  -1  11   0    0.60    1.23
   0 -11   0    4.29    1.26
   0 -11   0    5.50    1.26
   0  11   0    3.79    1.23
   0  11   0    6.60    0.87
  -1 -11   0    5.22    1.16
  -1 -11   0    2.17    1.00
   1  11   0    3.34    1.03
   1  11   0    1.79    1.20
  -2 -11   0   20.20    2.14
  -2 -11   0   19.13    2.19
   2  11   0   21.27    2.21
   2  11   0   20.82    2.32
  -3 -11   0    3.51    1.19
  -3 -11   0    2.92    0.94
   3  11   0    4.34    1.29
   3  11   0    2.92    1.40
  -4 -11   0    1.03    1.19
   4  11   0    0.21    1.56
   4  11   0    0.50    1.24
  -5 -11   0    4.53    1.43
   5  11   0    6.43    1.68
   5  11   0    3.63    1.86
   2 -12   0   -0.79    1.39
   2 -12   0    0.74    1.54
  -2  12   0   -1.00    1.68
   1 -12   0    1.93    1.41
   1 -12   0    2.27    1.32
  -1  12   0    1.21    1.65
   0 -12   0    2.40    1.34
   0 -12   0    3.83    1.42
   0  12   0    3.82    1.59
  -1 -12   0    4.55    1.41
  -1 -12   0    3.29    1.35
   1  12   0    4.96    1.60
  -2 -12   0    1.25    1.27
  -2 -12   0    3.27    1.30
   2  12   0   -1.81    1.41
   2  12   0    1.32    1.49
  -3 -12   0    6.73    1.60
   3  12   0    8.10    1.90
   3  12   0    6.14    1.98
   2  12  -1    6.15    1.78
  -2 -12   1    5.86    1.66
  -2 -12   1    8.60    1.60
   1  12  -1    0.15    1.52
  -1 -12   1    0.19    1.40
  -1 -12   1    1.46    1.41
   0  12  -1    0.89    1.50
   0 -12   1   -0.72    1.32
   0 -12   1    2.43    1.47
  -1  12  -1    0.20    1.72
   1 -12   1    1.12    1.50
   1 -12   1    2.34    1.43
   4  11  -1    4.13    1.40
  -4 -11   1    0.51    1.22
   3  11  -1    3.91    1.32
  -3 -11   1    1.86    0.97
  -3 -11   1    3.67    1.26
   2  11  -1    2.54    1.20
  -2 -11   1    2.51    1.16
  -2 -11   1    2.99    1.08
   1  11  -1    5.83    1.21
   1  11  -1    6.13    1.41
  -1 -11   1    8.45    1.37
  -1 -11   1    5.98    1.32
   0  11  -1   14.65    1.76
   0 -11   1   11.44    1.49
   0 -11   1   14.52    1.83
  -1  11  -1   -0.10    1.24
   1 -11   1   -0.22    1.14
   1 -11   1   -0.43    1.04
  -2  11  -1    0.78    1.33
   2 -11   1    0.10    1.08
   2 -11   1    1.61    1.33
   3 -11   1    3.09    1.49
   3 -11   1    0.40    1.25
   5  10  -1    1.16    1.22
  -5 -10   1    1.96    1.22
   4  10  -1    7.85    1.25
  -4 -10   1    9.96    1.41
   3  10  -1   -0.36    0.96
  -3 -10   1    1.00    0.68
  -3 -10   1    0.49    0.94
   2  10  -1    7.73    1.26
  -2 -10   1    7.75    1.11
  -2 -10   1    7.69    1.17
   1  10  -1   26.09    1.96
   1  10  -1   27.84    2.23
  -1 -10   1   24.36    2.09
  -1 -10   1   25.11    2.18
   0  10  -1   -0.65    0.57
   0  10  -1    0.03    0.89
   0 -10   1    0.29    0.84
   0 -10   1   -0.45    0.79
  -1  10  -1   33.03    2.31
   1 -10   1   31.71    2.60
   1 -10   1   35.19    2.40
  -2  10  -1    2.84    1.06
   2 -10   1    1.23    1.09
   2 -10   1    3.01    1.07
  -3  10  -1   11.83    1.36
   3 -10   1   14.57    2.23
   3 -10   1   10.40    1.51
   4 -10   1    6.70    1.52
   4 -10   1    2.38    1.30
   5 -10   1   26.84    3.45
   6   9  -1   -0.48    1.07
  -6  -9   1   -0.02    1.04
   5   9  -1    0.59    0.93
  -5  -9   1    2.19    0.95
   4   9  -1    8.68    1.28
  -4  -9   1    9.26    1.23
  -4  -9   1    8.48    0.78
   3   9  -1    7.49    1.12
  -3  -9   1    8.10    1.03
  -3  -9   1    7.88    1.14
   2   9  -1   27.94    1.94
  -2  -9   1   25.66    1.93
  -2  -9   1   25.47    1.77
   1   9  -1   10.42    1.25
  -1  -9   1    7.50    1.09
  -1  -9   1   11.88    1.28
   0   9  -1   10.65    1.21
   0   9  -1   11.80    1.31
   0  -9   1   13.58    1.41
   0  -9   1   12.20    1.53
  -1   9  -1    1.36    0.75
  -1   9  -1    1.50    0.46
  -1   9  -1    1.90    1.11
  -1   9  -1    1.30    0.49
   1  -9   1   -0.33    1.00
   1  -9   1    2.46    0.83
  -2   9  -1   31.14    2.27
  -2   9  -1   33.52    2.11
   2  -9   1   35.29    2.20
   2  -9   1   32.42    2.48
  -3   9  -1    3.01    0.80
   3  -9   1    3.45    0.95
   3  -9   1    2.47    1.06
   4  -9   1   11.64    1.80
   4  -9   1   12.29    1.48
   5  -9   1   28.76    2.40
   5  -9   1   29.62    2.96
   6  -9   1   20.03    2.46
   6  -9   1   17.68    2.62
   7   8  -1    2.13    1.19
   6   8  -1    2.98    1.07
  -6  -8   1    1.24    0.82
   5   8  -1    0.66    0.75
  -5  -8   1    1.01    0.74
   4   8  -1   17.99    1.56
  -4  -8   1   15.43    0.91
  -4  -8   1   15.99    1.49
  -3  -8   1    2.48    0.54
  -3  -8   1    2.67    0.43
  -3  -8   1    2.42    0.73
   2   8  -1   71.57    3.36
  -2  -8   1   64.50    3.23
  -2  -8   1   67.20    2.94
  -2  -8   1   69.99    3.34
   1   8  -1   35.67    1.95
   1   8  -1   27.39    2.12
  -1  -8   1   30.33    1.54
  -1  -8   1   32.30    1.98
  -1  -8   1   31.87    1.91
   0   8  -1   51.04    2.60
   0   8  -1   50.06    2.40
   0  -8   1   46.83    2.26
   0  -8   1   53.31    2.61
   0  -8   1   47.29    2.74
  -1   8  -1    9.75    0.81
  -1   8  -1   10.87    1.43
  -1   8  -1   11.88    0.87
  -1   8  -1   10.80    1.19
   1  -8   1   10.45    1.16
   1  -8   1   10.81    1.38
  -2   8  -1    1.56    0.85
  -2   8  -1    0.25    0.62
   2  -8   1   -0.19    0.59
   2  -8   1   -0.14    0.61
  -3   8  -1   10.11    1.07
   3  -8   1    6.13    1.13
   3  -8   1   10.39    1.21
   4  -8   1   40.57    2.91
   4  -8   1   42.43    2.42
   5  -8   1    0.31    0.91
   5  -8   1   -0.11    0.99
   6  -8   1   21.41    2.84
   6  -8   1   30.86    2.41
   8   7  -1    3.12    0.66
   8   7  -1    5.52    1.44
   7   7  -1    4.49    0.60
   7   7  -1    3.13    1.14
   6   7  -1   71.55    3.17
  -6  -7   1   74.09    3.31
  -5  -7   1    0.67    0.41
  -5  -7   1    1.59    0.66
  -5  -7   1    0.61    0.62
   4   7  -1    3.96    0.75
  -4  -7   1    4.55    0.78
  -4  -7   1    5.90    0.62
  -4  -7   1    5.60    0.80
  -4  -7   1    6.20    0.50
   3   7  -1   21.54    1.43
   3   7  -1   18.57    1.68
  -3  -7   1   19.72    1.39
  -3  -7   1   22.05    1.08
  -3  -7   1   21.17    1.21
  -3  -7   1   19.86    1.46
   2   7  -1    4.90    0.92
   2   7  -1    4.99    0.75
  -2  -7   1    4.56    0.66
  -2  -7   1    4.05    0.68
  -2  -7   1    4.82    0.50
  -2  -7   1    4.26    0.68
   1   7  -1   81.61    3.85
   1   7  -1   83.92    3.77
  -1  -7   1   83.42    3.77
  -1  -7   1   83.15    3.72
  -1  -7   1   83.31    3.48
  -1  -7   1   80.37    3.81
   0   7  -1  503.46   20.42
   0   7  -1  517.99   20.38
   0  -7   1  536.05   20.43
   0  -7   1  488.88   20.14
   0  -7   1  507.94   20.34
   0  -7   1  478.78   20.53
  -1   7  -1   11.06    0.74
  -1   7  -1   10.45    1.02
  -1   7  -1   10.18    1.24
   1  -7   1   11.45    1.03
   1  -7   1    9.16    1.21
   1  -7   1   10.32    1.04
  -2   7  -1   37.76    2.09
  -2   7  -1   38.31    1.98
   2  -7   1   35.74    2.35
   2  -7   1   36.76    2.00
   2  -7   1   39.85    2.05
  -3   7  -1    7.68    0.95
  -3   7  -1    7.44    0.84
   3  -7   1    7.41    0.89
   3  -7   1    6.65    1.11
   3  -7   1    8.55    1.04
   4  -7   1   15.79    1.77
   4  -7   1   18.68    1.37
   4  -7   1   14.85    1.36
   5  -7   1   49.36    2.74
   5  -7   1   59.50    2.81
   5  -7   1   55.23    3.44
   6  -7   1    1.75    0.82
   6  -7   1    2.54    1.25
   7  -7   1   -1.67    1.37
   7  -7   1    0.46    0.86
   8   6  -1    0.64    0.49
   8   6  -1   -0.51    1.04
   7   6  -1   36.83    1.79
   7   6  -1   36.33    2.29
   6   6  -1    0.64    0.64
   6   6  -1    0.19    0.30
  -6  -6   1    0.47    0.47
  -6  -6   1   -0.43    0.48
  -6  -6   1   -0.93    0.41
   5   6  -1   83.15    3.58
   5   6  -1   84.42    3.89
  -5  -6   1   83.73    3.60
  -5  -6   1   90.60    3.78
  -5  -6   1   83.29    3.70
   4   6  -1   43.56    2.35
   4   6  -1   41.31    1.89
   4   6  -1   44.20    2.18
  -4  -6   1   41.90    1.87
  -4  -6   1   40.80    2.12
  -4  -6   1   40.54    2.04
   3   6  -1  178.39    7.46
   3   6  -1  178.94    7.54
  -3  -6   1  179.51    7.26
  -3  -6   1  175.21    7.36
  -3  -6   1  182.56    7.18
  -3  -6   1  172.38    7.42
   2   6  -1    1.05    0.43
   2   6  -1    0.36    0.52
  -2  -6   1    0.75    0.22
  -2  -6   1    0.83    0.36
  -2  -6   1    1.16    0.43
  -2  -6   1    1.17    0.46
   1   6  -1  231.08    9.50
   1   6  -1  230.92    9.44
  -1  -6   1  231.98    9.22
  -1  -6   1  229.76    9.40
  -1  -6   1  232.08    9.45
  -1  -6   1  220.38    9.49
   0   6  -1    5.94    0.72
   0   6  -1    6.62    0.82
   0  -6   1    5.12    0.64
   0  -6   1    5.68    0.83
   0  -6   1    5.46    0.75
   0  -6   1    6.76    0.52
  -1   6  -1    2.06    0.32
  -1   6  -1    1.54    0.45
   1  -6   1    1.32    0.48
   1  -6   1    1.80    0.56
   1  -6   1    1.48    0.45
  -2   6  -1  271.41   10.85
  -2   6  -1  259.75   11.39
   2  -6   1  282.58   10.92
   2  -6   1  272.66   10.87
   2  -6   1  245.99   11.20
  -3   6  -1    0.81    0.41
  -3   6  -1    1.47    0.40
   3  -6   1    2.22    0.78
   3  -6   1    1.47    0.50
   3  -6   1    2.80    0.53
   4  -6   1    7.74    1.13
   4  -6   1    8.29    0.92
   4  -6   1    7.65    0.83
   5  -6   1   92.09    4.07
   5  -6   1   81.65    4.93
   5  -6   1  100.45    4.11
   6  -6   1    0.23    0.61
   6  -6   1   -0.16    0.69
   6  -6   1    1.16    1.00
   7  -6   1    4.09    0.94
   7  -6   1    5.99    1.53
   7  -6   1    4.80    0.82
   8  -6   1    2.66    1.63
   8  -6   1    0.47    0.97
   8   5  -1    3.15    1.02
   7   5  -1    1.24    0.75
   7   5  -1    2.19    0.40
  -7  -5   1    1.50    0.70
   6   5  -1    3.03    0.40
   6   5  -1    2.02    1.00
   6   5  -1    2.52    0.67
  -6  -5   1    4.04    0.58
  -6  -5   1    2.83    0.39
  -6  -5   1    3.53    0.43
   5   5  -1   18.89    0.97
   5   5  -1   19.00    1.28
   5   5  -1   19.43    1.55
  -5  -5   1   18.44    1.08
  -5  -5   1   18.12    1.11
  -5  -5   1   19.03    1.06
   4   5  -1    2.07    0.67
   4   5  -1    2.44    0.52
   4   5  -1    2.18    0.31
  -4  -5   1    2.81    0.47
  -4  -5   1    2.37    0.34
  -4  -5   1    2.10    0.48
   3   5  -1    2.09    0.47
   3   5  -1    1.87    0.57
   3   5  -1    2.75    0.31
  -3  -5   1    2.15    0.44
  -3  -5   1    2.35    0.27
  -3  -5   1    2.09    0.44
   2   5  -1   17.50    1.04
   2   5  -1   18.19    1.18
  -2  -5   1   16.22    0.99
  -2  -5   1   17.73    0.85
  -2  -5   1   17.23    1.07
  -2  -5   1   17.48    1.05
   1   5  -1   47.58    2.21
   1   5  -1   50.42    2.29
  -1  -5   1   49.26    2.21
  -1  -5   1   48.15    2.23
  -1  -5   1   49.47    2.04
  -1  -5   1   42.03    2.23
   0   5  -1  304.66   11.94
   0   5  -1  298.12   11.89
   0  -5   1  304.46   11.88
   0  -5   1  293.25   11.91
   0  -5   1  270.20   12.01
   0  -5   1  292.21   11.74
  -1   5  -1  373.70   14.55
  -1   5  -1  377.96   14.72
   1  -5   1  366.09   14.74
   1  -5   1  378.27   14.72
   1  -5   1  332.57   14.92
  -2   5  -1    8.30    0.76
  -2   5  -1    9.32    0.70
   2  -5   1    9.42    0.75
   2  -5   1    7.66    0.99
   2  -5   1    9.32    0.75
  -3   5  -1  140.19    5.73
  -3   5  -1  141.07    5.68
   3  -5   1  141.80    5.83
   3  -5   1  148.43    5.87
   3  -5   1  129.94    6.23
   4  -5   1  161.86    7.87
   4  -5   1  183.96    7.41
   4  -5   1  193.87    7.44
   5  -5   1   15.66    1.14
   5  -5   1   15.98    1.63
   5  -5   1   16.31    1.07
   6  -5   1   23.22    1.53
   6  -5   1   27.06    1.45
   7  -5   1   10.51    0.99
   7  -5   1    8.68    1.52
   7  -5   1    9.04    1.12
   8  -5   1    9.39    1.76
   8  -5   1    9.00    1.13
   9   4  -1   -0.30    0.51
   9   4  -1   -0.47    1.67
   8   4  -1    3.45    0.47
   8   4  -1    2.07    0.86
   7   4  -1   -0.16    0.57
   7   4  -1    0.07    0.27
  -7  -4   1    0.21    0.60
   6   4  -1   25.08    1.84
   6   4  -1   25.56    1.50
   6   4  -1   25.48    1.22
  -6  -4   1   25.65    1.46
   5   4  -1   36.47    2.02
   5   4  -1   36.81    1.85
   5   4  -1   35.80    1.61
  -5  -4   1   37.23    1.63
  -5  -4   1   36.12    1.67
  -5  -4   1   36.98    1.71
   4   4  -1   -0.51    0.43
   4   4  -1    0.09    0.16
   4   4  -1    0.29    0.31
  -4  -4   1    0.14    0.21
  -4  -4   1    0.02    0.27
  -4  -4   1   -0.25    0.28
   3   4  -1   19.17    1.20
   3   4  -1   19.04    1.08
   3   4  -1   18.85    0.91
  -3  -4   1   20.16    0.91
  -3  -4   1   19.37    0.86
  -3  -4   1   18.71    1.06
   2   4  -1   30.15    1.44
   2   4  -1   28.25    1.28
   2   4  -1   30.84    1.52
  -2  -4   1   29.26    1.27
  -2  -4   1   26.40    1.44
  -2  -4   1   29.68    1.44
  -1  -4   1   81.58    3.88
  -1  -4   1  102.66    3.91
  -1  -4   1   90.92    3.72
   0   4  -1   20.04    1.07
   0   4  -1   23.28    1.17
   0  -4   1   21.18    1.09
   0  -4   1   20.27    1.11
   0  -4   1   19.76    1.21
   0  -4   1   21.10    0.97
  -1   4  -1  198.93    7.85
  -1   4  -1  198.51    7.73
   1  -4   1  195.67    7.85
   1  -4   1  170.44    8.03
   1  -4   1  202.72    7.89
  -2   4  -1   16.57    0.90
  -2   4  -1   16.57    0.88
   2  -4   1   15.48    0.91
   2  -4   1   15.94    0.90
   2  -4   1   14.62    1.16
   3  -4   1  192.86    8.73
   3  -4   1  211.38    8.38
   3  -4   1  214.30    8.37
   4  -4   1   16.06    0.94
   4  -4   1   14.39    0.94
   4  -4   1   17.96    1.48
   5  -4   1   18.42    0.97
   5  -4   1   15.17    0.86
   5  -4   1   15.71    0.99
   5  -4   1   14.08    1.50
   6  -4   1   17.33    1.01
   6  -4   1   16.61    1.67
   6  -4   1   14.69    1.23
   6  -4   1   15.32    0.98
   6  -4   1   16.47    1.08
   7  -4   1   20.75    1.26
   7  -4   1   20.88    1.17
   7  -4   1   20.24    1.50
   8  -4   1   24.17    2.49
   8  -4   1   24.71    1.80
   9   3  -1    3.13    0.54
   8   3  -1    0.69    0.63
   8   3  -1   -0.31    0.32
   7   3  -1   37.40    1.70
   7   3  -1   37.84    1.95
  -7  -3   1   36.29    2.04
   6   3  -1   56.29    2.76
   6   3  -1   53.54    2.51
   6   3  -1   54.38    2.33
  -6  -3   1   54.00    2.53
   5   3  -1    0.17    0.50
   5   3  -1    0.20    0.16
   5   3  -1    0.04    0.29
  -5  -3   1   -0.01    0.29
  -5  -3   1   -0.19    0.20
  -5  -3   1    0.03    0.14
   4   3  -1   81.20    3.49
   4   3  -1   77.01    3.26
   4   3  -1   80.63    3.40
  -4  -3   1   82.35    3.33
  -4  -3   1   80.15    3.28
  -4  -3   1   76.06    3.30
   3   3  -1  632.63   27.61
   3   3  -1  709.16   27.47
  -3  -3   1  703.63   27.35
  -3  -3   1  697.28   27.44
  -3  -3   1  711.98   27.40
   2   3  -1    6.86    0.52
   2   3  -1    6.41    0.59
   2   3  -1    6.29    0.37
  -2  -3   1    6.47    0.49
  -2  -3   1    5.81    0.50
  -2  -3   1    6.13    0.43
  -2  -3   1    6.43    0.37
   1   3  -1   68.47    2.83
   1   3  -1   70.93    2.94
   1   3  -1   70.66    2.97
  -1  -3   1   69.20    2.92
  -1  -3   1   68.87    2.82
  -1  -3   1   68.01    2.95
   0   3  -1   59.82    2.55
   0   3  -1   62.75    2.60
   0  -3   1   60.92    2.58
   0  -3   1   60.30    2.55
   0  -3   1   56.83    2.46
  -1   3  -1  457.50   17.47
  -1   3  -1  458.33   17.50
  -1   3  -1  448.42   17.38
   1  -3   1  446.04   17.47
   1  -3   1  451.17   17.50
   1  -3   1  371.93   17.62
  -2   3  -1   17.51    0.82
  -2   3  -1   16.55    0.81
   2  -3   1   15.29    1.10
   2  -3   1   16.88    0.86
   2  -3   1   17.33    0.87
   3  -3   1  115.36    5.45
   3  -3   1  125.77    5.11
   3  -3   1  124.84    5.05
   3  -3   1  136.63    5.27
   4  -3   1   10.51    0.64
   4  -3   1    7.45    0.85
   4  -3   1   10.03    1.00
   5  -3   1  171.32    6.83
   5  -3   1  167.88    6.91
   5  -3   1  160.36    7.31
   5  -3   1  173.14    6.81
   6  -3   1    2.47    0.49
   6  -3   1    2.73    0.76
   6  -3   1    3.14    0.54
   6  -3   1    3.31    0.46
   7  -3   1   17.39    1.29
   7  -3   1   17.89    1.11
   7  -3   1   18.35    1.74
   7  -3   1   18.15    1.29
   8  -3   1   -0.30    0.80
   8  -3   1   -0.02    0.57
   9  -3   1    0.82    0.77
   9  -3   1   -0.97    1.17
   9   2  -1   28.93    1.54
   8   2  -1    1.21    0.38
   8   2  -1    0.88    0.59
   7   2  -1    4.78    1.10
   7   2  -1    4.39    0.59
   7   2  -1    3.73    0.43
   6   2  -1   18.16    1.05
   6   2  -1   17.83    0.91
  -6  -2   1   17.09    1.18
   5   2  -1    3.13    0.57
   5   2  -1    3.51    0.42
   5   2  -1    3.00    0.31
  -5  -2   1    2.00    0.42
   4   2  -1  405.33   16.19
   4   2  -1  405.78   16.11
   4   2  -1  407.79   16.25
  -4  -2   1  397.31   16.05
  -4  -2   1  412.76   16.08
   3   2  -1  108.10    4.45
   3   2  -1  105.86    4.31
   3   2  -1  108.70    4.40
  -3  -2   1  106.66    4.36
  -3  -2   1  105.58    4.34
  -3  -2   1  107.05    4.32
   2   2  -1   99.59    4.04
   2   2  -1  101.18    3.91
   2   2  -1   95.94    3.99
  -2  -2   1   84.81    3.88
  -2  -2   1  100.65    3.92
  -2  -2   1   98.89    4.00
  -2  -2   1  100.46    3.96
   1   2  -1 2727.24  111.39
  -1  -2   1 2695.45  111.28
   0   2  -1  210.25    7.96
   0  -2   1  199.26    7.91
   0  -2   1  184.08    7.86
  -1   2  -1   47.14    1.96
  -1   2  -1   45.02    1.93
  -1   2  -1   46.11    1.89
   1  -2   1   47.39    1.97
   1  -2   1   46.29    1.93
   1  -2   1   44.88    1.88
   2  -2   1  394.48   14.87
   2  -2   1  384.37   14.85
   2  -2   1  375.37   14.83
   2  -2   1  342.14   15.08
   3  -2   1   31.80    1.41
   3  -2   1   32.30    1.33
   3  -2   1   28.21    1.64
   4  -2   1  150.17    5.71
   4  -2   1  127.78    6.09
   4  -2   1  149.31    5.72
   4  -2   1  142.54    5.89
   5  -2   1    5.72    0.66
   5  -2   1    5.70    0.61
   5  -2   1    6.31    0.85
   6  -2   1   68.02    3.20
   6  -2   1   69.46    3.40
   6  -2   1   69.47    3.09
   7  -2   1    2.99    0.73
   7  -2   1    3.43    0.80
   7  -2   1    3.49    0.56
   8  -2   1    0.93    0.83
   8  -2   1    0.47    0.84
   9  -2   1    6.14    0.86
   9  -2   1    3.04    1.18
   9  -2   1    7.50    1.16
   9   1  -1   -0.56    0.45
   8   1  -1    9.16    0.96
   8   1  -1   10.28    0.78
   7   1  -1    0.55    0.34
   7   1  -1    0.40    0.26
   7   1  -1    0.76    0.78
   6   1  -1    0.86    0.29
   5   1  -1   34.58    1.53
   5   1  -1   32.16    1.52
   5   1  -1   36.83    1.70
   5   1  -1   34.86    1.46
  -5  -1   1   32.71    1.67
   4   1  -1   25.13    1.10
   4   1  -1   23.58    1.11
   4   1  -1   24.22    1.03
   4   1  -1   24.57    1.21
  -4  -1   1   23.47    1.20
   3   1  -1   81.52    3.32
   3   1  -1   82.44    3.39
   3   1  -1   82.22    3.26
  -3  -1   1   83.99    3.28
  -3  -1   1   82.54    3.27
  -3  -1   1   77.13    3.36
   2   1  -1  361.85   14.28
   2   1  -1  356.79   14.24
  -2  -1   1  357.89   14.23
  -2  -1   1  359.26   14.24
   1   1  -1 1046.38   44.63
  -1  -1   1 1067.00   44.52
   0   1  -1 1252.95   52.65
   0  -1   1 1300.02   52.74
  -1   1  -1  620.15   27.60
   1  -1   1  696.13   27.91
   2  -1   1  491.87   19.52
   3  -1   1    7.79    0.70
   3  -1   1   10.46    0.65
   4  -1   1   38.50    1.78
   4  -1   1   31.16    1.61
   4  -1   1   29.73    1.50
   5  -1   1    0.85    0.40
   5  -1   1    0.87    0.27
   5  -1   1    0.05    0.38
   6  -1   1  138.26    6.03
   6  -1   1  140.17    5.79
   6  -1   1  140.19    6.05
   7  -1   1    0.03    0.32
   7  -1   1    0.06    0.51
   7  -1   1    0.79    0.68
   8  -1   1   -0.47    0.40
   8  -1   1    0.22    0.69
   8  -1   1    0.52    0.93
   9  -1   1    1.49    0.56
   9  -1   1   -0.82    1.18
   9   0  -1    3.06    0.57
   9   0  -1    3.77    1.50
   8   0  -1   -0.36    0.40
   8   0  -1    0.46    0.30
   8   0  -1   -0.13    0.34
   7   0  -1   40.23    1.85
   7   0  -1   40.08    1.83
   7   0  -1   38.22    1.79
   7   0  -1   40.16    2.43
   6   0  -1   -0.59    0.23
   6   0  -1    0.19    0.45
   6   0  -1    0.02    0.27
   6   0  -1   -0.02    0.22
   5   0  -1  246.42   10.22
   5   0  -1  278.89   10.36
   5   0  -1  252.89   10.30
   5   0  -1  248.23   10.33
   4   0  -1   23.04    1.02
   4   0  -1   23.56    1.13
   4   0  -1   23.27    1.09
   3   0  -1   87.14    3.39
   3   0  -1   82.92    3.33
   3   0  -1   81.38    3.39
   3   0  -1   82.33    3.40
  -3   0   1   79.42    3.43
   2   0  -1   55.15    2.07
   2   0  -1   52.27    2.10
   2   0  -1   51.29    2.10
  -2   0   1   51.05    2.12
  -2   0   1   51.20    2.04
  -2   0   1   44.57    2.11
   1   0  -1   45.72    1.84
   1   0  -1   46.62    1.88
   1   0  -1   44.98    1.83
   1   0  -1   44.82    1.84
  -1   0   1   45.94    1.83
  -1   0   1   44.30    1.84
  -1   0   1   45.67    1.85
  -1   0  -1 2627.43  103.70
   1   0   1 2597.01  103.68
   2   0   1   24.55    1.06
   3   0   1  140.42    6.09
   3   0   1  155.75    5.97
   4   0   1   14.74    0.73
   4   0   1   12.61    0.88
   5   0   1   55.22    2.68
   5   0   1   62.15    2.52
   6   0   1   29.95    1.28
   6   0   1   25.66    1.55
   6   0   1   28.34    1.21
   6   0   1   29.82    1.82
   6   0   1   27.86    1.36
   7   0   1    4.66    0.88
   7   0   1    5.04    0.50
   7   0   1    5.64    0.57
   7   0   1    4.81    0.68
   8   0   1    2.28    0.39
   8   0   1    1.56    0.99
   8   0   1    0.80    0.51
   8   0   1    2.54    0.44
   9   0   1    7.21    1.65
   9   0   1    6.56    0.69
   9  -1  -1   15.93    1.26
   9  -1  -1   17.16    2.01
   8  -1  -1   11.18    0.98
   8  -1  -1   11.47    0.96
   8  -1  -1   10.13    0.78
   7  -1  -1    5.28    0.51
   7  -1  -1    6.20    0.66
   7  -1  -1    5.29    0.72
   7  -1  -1    6.52    0.81
   6  -1  -1   39.79    1.81
   6  -1  -1   37.77    1.63
   6  -1  -1   36.47    1.88
   6  -1  -1   36.64    1.82
   5  -1  -1   89.24    3.72
   5  -1  -1   86.03    3.56
   5  -1  -1   86.33    3.67
   5  -1  -1   90.35    3.82
   4  -1  -1   22.64    1.25
   4  -1  -1   26.30    1.14
   4  -1  -1   24.34    1.19
   4  -1  -1   24.29    1.05
   3  -1  -1  105.12    4.45
   3  -1  -1  111.72    4.53
   3  -1  -1  114.78    4.35
   3  -1  -1  118.78    4.40
  -3   1   1   92.21    4.52
   2  -1  -1    1.78    0.26
   2  -1  -1    1.88    0.22
   2  -1  -1    1.65    0.16
   2  -1  -1    1.93    0.24
  -2   1   1    1.16    0.24
   1  -1  -1   12.80    0.59
   1  -1  -1   12.65    0.56
   1  -1  -1   12.02    0.55
  -1   1   1   12.29    0.54
  -1   1   1   12.11    0.57
  -1   1   1   11.55    0.62
  -1  -1  -1 1857.04   74.93
   1   1   1 1851.34   74.90
  -2  -1  -1   85.27    3.48
   2   1   1   89.57    3.48
   2   1   1   86.32    3.47
   2   1   1   86.13    3.46
  -3  -1  -1  549.09   21.75
   4   1   1   38.69    1.69
   4   1   1   41.22    1.71
   4   1   1   42.43    1.73
   5   1   1   85.13    3.43
   5   1   1   87.21    3.40
   5   1   1   76.54    3.54
   5   1   1   84.20    3.42
   6   1   1  378.07   16.01
   6   1   1  423.87   15.99
   6   1   1  396.83   16.09
   6   1   1  405.45   15.98
   7   1   1   -0.66    0.49
   7   1   1    0.15    0.30
   7   1   1    0.08    0.22
   7   1   1   -0.63    0.72
   7   1   1   -0.13    0.32
   8   1   1    1.05    0.99
   8   1   1   -0.15    0.38
   8   1   1    0.08    0.34
   8   1   1    0.28    0.31
   9   1   1    2.64    0.46
   9   1   1    2.39    1.52
   9  -2  -1   12.57    1.24
   9  -2  -1    8.47    1.54
   8  -2  -1    0.20    0.89
   8  -2  -1    0.17    0.58
   8  -2  -1    0.27    0.50
   8  -2  -1    0.01    0.30
   7  -2  -1   14.02    1.19
   7  -2  -1   13.63    0.77
   7  -2  -1   13.91    1.03
   7  -2  -1   13.58    1.23
   6  -2  -1   34.93    1.81
   6  -2  -1   37.11    1.96
   6  -2  -1   36.46    1.59
   6  -2  -1   37.07    1.78
   5  -2  -1   61.98    2.61
   5  -2  -1   65.10    2.69
   5  -2  -1   58.32    2.87
   5  -2  -1   63.05    2.77
   4  -2  -1   18.31    0.84
   4  -2  -1   18.39    0.93
   4  -2  -1   17.25    0.99
   4  -2  -1   17.18    1.10
   3  -2  -1   85.69    3.25
   3  -2  -1   77.83    3.46
   3  -2  -1   85.82    3.30
  -3   2   1   68.44    3.46
   2  -2  -1  272.62   10.29
   2  -2  -1  247.02   10.40
   2  -2  -1  262.97   10.24
  -2   2   1  231.25   10.41
  -2   2   1  272.71   10.20
   1  -2  -1    4.69    0.42
   1  -2  -1    5.25    0.37
   1  -2  -1    5.56    0.28
   1  -2  -1    5.19    0.34
  -1   2   1    6.69    0.41
  -1   2   1    5.14    0.32
  -1   2   1    4.12    0.44
  -1   2   1    5.37    0.27
   0  -2  -1  837.98   35.99
   0   2   1  826.13   35.88
  -1  -2  -1  261.34   10.57
  -1  -2  -1  270.00   10.58
   1   2   1  264.95   10.58
   1   2   1  257.13   10.56
   1   2   1  274.82   10.59
  -2  -2  -1   74.44    3.00
  -2  -2  -1   71.24    2.94
  -2  -2  -1   76.73    3.00
   2   2   1   72.79    2.94
   2   2   1   71.96    3.02
   2   2   1   74.92    3.03
   2   2   1   73.50    2.96
  -3  -2  -1   -0.06    0.09
  -3  -2  -1    0.26    0.14
  -3  -2  -1   -0.01    0.08
   3   2   1    0.17    0.07
   3   2   1    0.02    0.17
  -4  -2  -1    8.38    0.57
   4   2   1    8.28    0.56
   4   2   1    8.69    0.46
   4   2   1    9.74    0.42
   4   2   1    9.95    0.60
  -5  -2  -1   22.22    1.18
   5   2   1   23.54    1.17
   5   2   1   22.20    1.09
   5   2   1   23.17    1.13
   5   2   1   25.01    1.05
   6   2   1    0.64    0.24
   6   2   1    0.56    0.14
   6   2   1    0.76    0.32
   6   2   1    0.60    0.21
   6   2   1    0.23    0.40
   7   2   1   17.00    1.30
   7   2   1   15.96    0.84
   7   2   1   15.85    0.98
   8   2   1    0.75    0.31
   8   2   1    0.09    1.06
   8   2   1    0.79    0.45
   9   2   1    3.05    1.53
   9   2   1    1.92    0.44
   9  -3  -1   -0.24    0.70
   8  -3  -1   12.87    1.26
   8  -3  -1   14.95    1.62
   8  -3  -1   13.86    1.56
   7  -3  -1    0.36    0.29
   7  -3  -1   -0.19    0.57
   7  -3  -1    0.24    0.61
   7  -3  -1    0.04    0.50
   7  -3  -1    0.41    0.88
   6  -3  -1   93.17    4.11
   6  -3  -1   94.18    3.86
   6  -3  -1   94.03    4.01
   6  -3  -1   91.19    4.28
   6  -3  -1   93.51    4.09
   5  -3  -1  147.08    6.28
   5  -3  -1  156.02    6.08
   5  -3  -1  141.80    6.43
   5  -3  -1  154.07    6.18
   4  -3  -1   37.35    2.02
   4  -3  -1   41.34    1.83
   4  -3  -1   39.50    1.73
   3  -3  -1    9.77    0.82
   3  -3  -1   11.99    0.58
   3  -3  -1   10.04    0.62
   3  -3  -1   11.71    0.70
   2  -3  -1   37.78    1.92
   2  -3  -1   42.19    1.80
   2  -3  -1   41.45    1.76
  -2   3   1   35.93    1.96
  -2   3   1   42.66    1.72
  -2   3   1   41.87    1.76
   1  -3  -1   89.66    3.51
   1  -3  -1   87.23    3.48
   1  -3  -1   79.07    3.58
  -1   3   1   84.72    3.46
  -1   3   1   90.10    3.52
  -1   3   1   74.23    3.59
   0  -3  -1   91.08    3.94
   0  -3  -1   94.59    3.89
   0  -3  -1   99.31    3.91
   0   3   1   96.92    3.89
   0   3   1   84.21    3.95
   0   3   1   98.60    3.92
   0   3   1   97.89    3.87
  -1  -3  -1  376.70   15.86
  -1  -3  -1  406.62   15.96
  -1  -3  -1  405.72   15.96
  -1  -3  -1  406.15   15.95
   1   3   1  383.50   15.97
   1   3   1  411.97   15.98
   1   3   1  416.20   15.98
  -2  -3  -1    7.10    0.35
  -2  -3  -1    7.11    0.36
  -2  -3  -1    7.13    0.48
  -2  -3  -1    6.98    0.48
   2   3   1    6.45    0.43
   2   3   1    6.96    0.51
   2   3   1    6.47    0.47
  -3  -3  -1    0.54    0.20
  -3  -3  -1    0.50    0.19
  -3  -3  -1    0.81    0.15
   3   3   1    1.11    0.27
   3   3   1    0.64    0.22
   3   3   1    0.95    0.13
   3   3   1    0.64    0.14
  -4  -3  -1    4.28    0.37
  -4  -3  -1    4.03    0.32
  -4  -3  -1    3.65    0.28
   4   3   1    4.05    0.28
   4   3   1    4.02    0.52
  -5  -3  -1  403.55   15.70
   5   3   1  393.81   15.73
   5   3   1  382.45   15.60
  -6  -3  -1  158.48    6.86
   6   3   1  167.57    6.72
   6   3   1  171.80    6.87
   6   3   1  171.05    6.94
   7   3   1    2.80    0.33
   7   3   1    3.17    0.54
   7   3   1    4.32    0.82
   8   3   1    0.87    0.30
   8   3   1    2.95    1.20
   8   3   1    1.95    0.60
   9   3   1    1.25    0.38
   9   3   1    3.40    1.55
   8  -4  -1   10.55    1.35
   8  -4  -1   12.19    1.76
   7  -4  -1    7.70    0.72
   7  -4  -1    9.78    1.08
   7  -4  -1    9.01    0.97
   7  -4  -1    9.37    1.25
   7  -4  -1    8.83    1.22
   7  -4  -1    9.17    0.99
   6  -4  -1   -0.25    0.43
   6  -4  -1    0.71    0.62
   6  -4  -1    0.32    0.42
   6  -4  -1   -0.64    0.53
   6  -4  -1    0.05    0.31
   6  -4  -1   -0.53    0.44
   5  -4  -1   12.98    0.81
   5  -4  -1   14.03    1.02
   5  -4  -1   16.20    0.89
   5  -4  -1   12.42    1.25
   5  -4  -1   12.71    1.03
   5  -4  -1   13.38    0.84
   4  -4  -1  188.72    7.57
   4  -4  -1  191.34    7.72
   4  -4  -1  193.48    7.66
   4  -4  -1  189.35    7.55
   4  -4  -1  180.89    8.00
   3  -4  -1  402.93   15.13
   3  -4  -1  411.99   15.09
   3  -4  -1  362.10   15.35
  -3   4   1  330.49   15.35
   2  -4  -1  969.06   38.54
   2  -4  -1  991.77   38.57
   2  -4  -1  906.62   38.74
  -2   4   1 1009.24   38.55
  -2   4   1  986.60   38.50
   1  -4  -1  747.38   28.84
   1  -4  -1  687.64   28.96
   1  -4  -1  767.34   28.86
  -1   4   1  766.97   28.87
  -1   4   1  731.46   28.82
  -1   4   1  655.91   28.98
   0  -4  -1   95.93    4.26
   0  -4  -1  104.53    4.20
   0  -4  -1  106.41    4.21
   0   4   1  102.48    4.20
   0   4   1  102.91    4.16
   0   4   1  104.00    4.22
   0   4   1   89.73    4.28
  -1  -4  -1  190.36    7.49
  -1  -4  -1  189.48    7.48
  -1  -4  -1  179.66    7.35
  -1  -4  -1  183.27    7.48
   1   4   1  189.35    7.50
   1   4   1  170.79    7.51
   1   4   1  186.06    7.50
  -2  -4  -1    3.85    0.26
  -2  -4  -1    3.60    0.46
  -2  -4  -1    3.34    0.42
   2   4   1    2.72    0.40
   2   4   1    4.01    0.44
   2   4   1    3.56    0.42
  -3  -4  -1  178.78    6.97
  -3  -4  -1  175.10    6.98
  -3  -4  -1  173.68    6.85
  -3  -4  -1  178.91    6.82
   3   4   1  169.91    6.86
   3   4   1  151.45    6.89
   3   4   1  174.60    7.05
   3   4   1  169.74    7.02
  -4  -4  -1   53.30    2.14
  -4  -4  -1   51.63    2.19
  -4  -4  -1   49.14    2.17
   4   4   1   47.32    2.32
   4   4   1   51.28    2.29
   4   4   1   51.51    2.11
  -5  -4  -1   26.53    1.12
  -5  -4  -1   26.31    1.16
   5   4   1   26.71    1.50
   5   4   1   25.41    1.17
   5   4   1   26.99    1.39
  -6  -4  -1   13.81    0.96
   6   4   1   11.76    1.21
   6   4   1   12.83    0.69
   6   4   1   14.35    0.98
  -7  -4  -1   15.34    1.22
   7   4   1   19.22    1.65
   7   4   1   18.82    1.23
   7   4   1   16.55    0.88
   8   4   1    3.21    1.42
   8   4   1    3.01    0.40
   8   4   1    3.30    0.74
   9   4   1    1.16    1.55
   8  -5  -1    1.08    1.16
   8  -5  -1    1.63    0.83
   7  -5  -1    3.19    0.76
   7  -5  -1    2.81    1.03
   7  -5  -1    3.50    0.54
   6  -5  -1   62.18    2.70
   6  -5  -1   63.81    3.30
   6  -5  -1   57.26    2.84
   6  -5  -1   55.73    3.03
   5  -5  -1   65.31    3.38
   5  -5  -1   68.70    2.92
   5  -5  -1   61.10    3.09
   5  -5  -1   67.14    3.01
   4  -5  -1   13.48    1.03
   4  -5  -1   13.87    0.88
   4  -5  -1   12.08    1.23
   3  -5  -1    0.91    0.39
   3  -5  -1    0.32    0.29
   3  -5  -1    0.32    0.42
  -3   5   1    0.84    0.60
  -3   5   1    0.54    0.26
   2  -5  -1   25.92    1.29
   2  -5  -1   25.32    1.34
   2  -5  -1   22.76    1.47
  -2   5   1   27.10    1.29
  -2   5   1   20.38    1.54
  -2   5   1   27.55    1.33
   1  -5  -1    0.18    0.30
   1  -5  -1    0.46    0.28
   1  -5  -1   -0.11    0.29
  -1   5   1    0.51    0.27
  -1   5   1   -0.02    0.40
  -1   5   1    0.11    0.17
  -1   5   1   -0.08    0.29
   0  -5  -1  178.75    7.19
   0  -5  -1  167.04    7.26
   0  -5  -1  182.85    7.19
   0   5   1  183.34    7.13
   0   5   1  156.60    7.31
   0   5   1  181.67    7.22
  -1  -5  -1  106.13    4.35
  -1  -5  -1  106.86    4.34
  -1  -5  -1  105.77    4.19
  -1  -5  -1  103.75    4.36
   1   5   1  103.47    4.36
   1   5   1   92.43    4.40
   1   5   1  101.77    4.36
  -2  -5  -1  405.67   15.49
  -2  -5  -1  379.33   15.37
  -2  -5  -1  390.55   15.55
  -2  -5  -1  398.35   15.53
   2   5   1  346.23   15.54
   2   5   1  391.22   15.59
   2   5   1  400.69   15.60
  -3  -5  -1    0.56    0.16
  -3  -5  -1    0.45    0.33
  -3  -5  -1    0.36    0.19
  -3  -5  -1    0.26    0.31
   3   5   1    0.29    0.27
   3   5   1    0.16    0.31
   3   5   1    0.21    0.39
  -4  -5  -1    8.57    0.70
   4   5   1    9.31    0.52
   4   5   1    8.23    0.75
   4   5   1    7.93    0.91
  -5  -5  -1   22.50    1.06
  -5  -5  -1   19.91    1.05
  -5  -5  -1   19.88    1.04
   5   5   1   17.64    1.39
   5   5   1   19.82    1.25
   5   5   1   21.58    0.98
  -6  -5  -1   52.57    2.35
   6   5   1   48.92    2.66
   6   5   1   50.82    2.51
   6   5   1   52.76    2.20
  -7  -5  -1    1.01    0.56
   7   5   1   -0.11    0.24
   7   5   1    0.36    0.98
   7   5   1    0.67    0.62
   8   5   1    5.41    1.52
   8   5   1    5.64    0.54
   8   5   1    2.98    0.93
   9   5   1   -0.44    1.58
   8  -6  -1    0.85    1.30
   8  -6  -1    0.57    0.91
   7  -6  -1    0.03    0.63
   7  -6  -1    0.06    1.03
   7  -6  -1    1.58    0.83
   6  -6  -1    6.69    0.96
   6  -6  -1    7.13    0.82
   6  -6  -1    7.09    1.23
   6  -6  -1    5.14    0.84
   5  -6  -1    4.44    0.63
   5  -6  -1    5.32    1.06
   5  -6  -1    4.36    0.75
   4  -6  -1  108.99    5.26
   4  -6  -1  120.45    4.90
   4  -6  -1  113.31    4.92
   3  -6  -1   15.12    1.34
   3  -6  -1   16.17    1.05
   3  -6  -1   15.59    1.09
  -3   6   1   14.53    0.95
  -3   6   1   15.30    0.96
   2  -6  -1    3.50    0.64
   2  -6  -1    5.02    0.64
   2  -6  -1    5.50    0.68
  -2   6   1    3.37    0.73
  -2   6   1    4.86    0.61
  -2   6   1    4.60    0.61
   1  -6  -1    2.62    0.55
   1  -6  -1    2.76    0.44
   1  -6  -1    4.71    0.59
  -1   6   1    2.59    0.61
  -1   6   1    3.83    0.41
  -1   6   1    4.08    0.60
  -1   6   1    3.83    0.55
   0  -6  -1 1121.29   43.09
   0  -6  -1 1143.96   43.12
   0  -6  -1 1037.16   43.19
   0   6   1 1106.15   43.10
   0   6   1  962.53   43.23
   0   6   1 1103.91   43.13
   0   6   1 1118.36   43.01
  -1  -6  -1   68.43    2.89
  -1  -6  -1   69.09    3.10
  -1  -6  -1   72.02    3.10
  -1  -6  -1   71.71    3.09
   1   6   1   71.48    3.12
   1   6   1   59.17    3.16
   1   6   1   71.98    3.14
  -2  -6  -1   38.64    1.59
  -2  -6  -1   36.24    1.81
  -2  -6  -1   36.94    1.82
  -2  -6  -1   38.87    1.76
   2   6   1   35.94    1.90
   2   6   1   30.78    1.83
   2   6   1   36.94    1.86
  -3  -6  -1    2.67    0.54
  -3  -6  -1    2.70    0.53
  -3  -6  -1    3.60    0.36
  -3  -6  -1    3.07    0.39
   3   6   1    2.49    0.52
   3   6   1    3.47    0.61
  -4  -6  -1    2.28    0.27
  -4  -6  -1    2.42    0.49
  -4  -6  -1    3.04    0.33
  -4  -6  -1    1.83    0.49
   4   6   1    1.79    0.62
   4   6   1    1.76    0.51
  -5  -6  -1    2.49    0.47
  -5  -6  -1    2.41    0.39
  -5  -6  -1    2.77    0.49
   5   6   1    2.43    0.77
   5   6   1    2.37    0.60
  -6  -6  -1   77.63    3.33
  -6  -6  -1   83.40    3.45
  -6  -6  -1   78.68    3.34
   6   6   1   81.47    3.37
   6   6   1   80.75    3.74
   7   6   1    3.72    0.87
   7   6   1    3.92    0.46
   8   6   1    1.21    1.02
   8   6   1    2.25    0.46
   8   6   1    1.46    1.47
   7  -7  -1   -0.66    0.84
   7  -7  -1    0.26    0.90
   7  -7  -1    0.16    1.23
   6  -7  -1   71.57    3.32
   6  -7  -1   65.26    3.95
   5  -7  -1   46.77    2.71
   5  -7  -1   55.13    3.21
   5  -7  -1   58.86    2.69
   4  -7  -1    5.60    0.84
   4  -7  -1    4.78    0.94
   4  -7  -1    5.14    0.76
   3  -7  -1   95.96    4.18
   3  -7  -1   92.44    4.19
   3  -7  -1   88.63    4.49
  -3   7   1   96.75    4.07
  -3   7   1   96.63    4.09
   2  -7  -1  291.43   12.39
   2  -7  -1  304.55   12.14
   2  -7  -1  287.04   12.10
  -2   7   1  301.26   12.08
  -2   7   1  298.42   12.12
   1  -7  -1    5.78    0.78
   1  -7  -1    6.34    0.78
   1  -7  -1    6.32    0.89
  -1   7   1    4.95    0.86
  -1   7   1    5.00    0.74
  -1   7   1    5.86    0.76
  -1   7   1    5.21    0.54
   0  -7  -1    9.87    0.95
   0  -7  -1    8.35    0.96
   0  -7  -1    8.19    0.91
   0   7   1   10.40    0.80
   0   7   1    7.99    1.14
   0   7   1    9.35    0.93
   0   7   1   10.06    1.07
  -1  -7  -1   20.22    1.35
  -1  -7  -1   23.15    1.36
  -1  -7  -1   22.62    1.36
  -1  -7  -1   23.02    1.10
   1   7   1   21.72    1.47
   1   7   1   19.77    1.50
   1   7   1   22.74    1.43
  -2  -7  -1   78.48    3.55
  -2  -7  -1   80.22    3.28
  -2  -7  -1   78.67    3.53
  -2  -7  -1   78.92    3.48
   2   7   1   77.32    3.62
   2   7   1   78.86    3.60
  -3  -7  -1   16.49    0.96
  -3  -7  -1   16.09    1.21
  -3  -7  -1   15.87    1.19
  -3  -7  -1   17.31    0.87
   3   7   1   16.95    1.26
   3   7   1   16.64    1.36
  -4  -7  -1   40.78    2.08
  -4  -7  -1   41.10    1.74
  -4  -7  -1   41.55    1.80
  -4  -7  -1   40.28    2.09
   4   7   1   39.65    2.19
   4   7   1   40.18    2.36
  -5  -7  -1    4.97    0.68
  -5  -7  -1    5.14    0.60
  -5  -7  -1    4.65    0.69
   5   7   1    3.61    0.74
  -6  -7  -1    3.26    0.58
  -6  -7  -1    1.85    0.50
  -6  -7  -1    3.33    0.54
   7   7   1    4.15    1.05
   8   7   1    4.83    1.34
   8   7   1    8.37    1.95
   7  -8  -1    3.77    1.60
   7  -8  -1    5.63    1.28
   6  -8  -1   18.35    2.45
   6  -8  -1   19.07    1.82
   6  -8  -1   15.75    1.84
   5  -8  -1   17.61    2.17
   5  -8  -1   17.00    1.57
   4  -8  -1   23.66    2.10
   4  -8  -1   25.59    1.71
   3  -8  -1   72.86    3.65
   3  -8  -1   85.39    3.69
  -3   8   1   78.59    3.54
  -3   8   1   75.32    3.63
   2  -8  -1   93.52    4.59
   2  -8  -1  100.96    4.33
   2  -8  -1   91.50    4.31
  -2   8   1   96.57    4.32
  -2   8   1   94.93    4.32
   1  -8  -1   28.90    1.74
   1  -8  -1   26.28    1.85
   1  -8  -1   27.10    1.69
  -1   8   1   27.37    1.73
  -1   8   1   29.57    1.83
   0  -8  -1   10.53    1.17
   0  -8  -1    9.60    1.04
   0  -8  -1    9.99    1.15
   0   8   1    9.33    1.07
   0   8   1    9.70    1.11
   0   8   1    8.86    0.86
  -1  -8  -1   22.52    1.13
  -1  -8  -1   20.19    1.44
  -1  -8  -1   21.78    1.47
  -1  -8  -1   21.02    1.49
   1   8   1   20.88    1.53
   1   8   1   19.74    1.63
   1   8   1   21.33    1.45
  -2  -8  -1   50.85    2.66
  -2  -8  -1   55.23    2.60
  -2  -8  -1   52.89    2.33
  -2  -8  -1   54.85    2.68
   2   8   1   55.45    2.73
   2   8   1   51.43    2.84
  -3  -8  -1   59.74    2.89
  -3  -8  -1   53.34    2.84
  -3  -8  -1   59.23    2.53
  -3  -8  -1   61.57    2.67
   3   8   1   59.61    2.97
  -4  -8  -1   51.28    2.66
  -4  -8  -1   53.95    2.67
  -4  -8  -1   52.64    2.32
  -4  -8  -1   54.76    2.29
   4   8   1   52.93    2.83
  -5  -8  -1   47.91    2.51
  -5  -8  -1   53.09    2.55
  -5  -8  -1   48.61    2.25
   5   8   1   52.68    2.76
  -6  -8  -1   25.40    1.58
   6   8   1   25.19    2.02
   7   8   1   26.13    2.33
   7   8   1   30.39    3.01
   6  -9  -1   -0.59    1.30
   6  -9  -1    1.05    1.07
   6  -9  -1    3.23    1.24
   5  -9  -1   30.71    2.79
   5  -9  -1   31.56    2.29
   4  -9  -1   25.87    2.40
   4  -9  -1   17.70    1.98
   3  -9  -1   88.03    4.43
  -3   9   1   84.29    3.89
  -3   9   1   80.43    3.90
   2  -9  -1   30.75    1.91
   2  -9  -1   28.42    2.19
  -2   9   1   29.37    1.97
   1  -9  -1  102.24    4.78
   1  -9  -1  104.78    4.57
  -1   9   1   96.98    4.09
  -1   9   1   98.25    4.58
  -1   9   1   94.83    4.62
   0  -9  -1   18.37    1.62
   0  -9  -1   22.46    1.57
   0   9   1   20.03    1.29
   0   9   1   21.35    1.64
   0   9   1   21.09    1.79
  -1  -9  -1    4.44    0.80
  -1  -9  -1    4.09    0.80
  -1  -9  -1    4.60    0.55
   1   9   1    3.27    0.87
   1   9   1    4.69    0.82
  -2  -9  -1    0.23    0.52
  -2  -9  -1    1.03    0.39
   2   9   1    0.73    0.72
  -3  -9  -1   23.36    1.25
  -3  -9  -1   23.24    1.41
   3   9   1   23.32    1.81
  -4  -9  -1    0.47    0.38
  -4  -9  -1    0.23    0.30
  -4  -9  -1    0.56    0.83
   4   9   1    0.83    0.83
  -5  -9  -1    1.07    0.84
   5   9   1    2.12    0.93
  -6  -9  -1   -0.19    0.83
   6   9   1    0.01    1.34
   6   9   1    0.29    1.01
   7   9   1    2.03    1.33
   7   9   1    3.57    1.80
   5 -10  -1    1.86    1.47
   5 -10  -1   -2.99    1.18
   4 -10  -1    1.29    1.08
   4 -10  -1    0.50    1.18
   3 -10  -1    6.75    1.20
   3 -10  -1    7.27    1.47
  -3  10   1    6.78    1.12
   2 -10  -1    7.89    1.39
   2 -10  -1    8.23    1.19
  -2  10   1    9.58    1.27
  -2  10   1    7.02    1.35
   1 -10  -1    7.18    1.15
   1 -10  -1    6.00    1.17
  -1  10   1    6.61    1.27
   0 -10  -1    0.30    0.75
   0 -10  -1    0.05    0.80
   0  10   1    1.46    0.88
   0  10   1   -0.05    0.52
  -1 -10  -1    0.60    0.74
  -1 -10  -1    0.82    0.79
   1  10   1    0.63    0.85
   1  10   1   -0.01    0.68
  -2 -10  -1   -0.51    0.78
  -2 -10  -1    0.77    0.63
   2  10   1    0.26    0.86
   2  10   1    0.39    0.80
  -3 -10  -1    6.75    1.13
  -3 -10  -1    6.74    1.04
   3  10   1    5.85    1.46
   3  10   1    7.81    1.27
  -4 -10  -1    0.33    0.38
  -4 -10  -1   -0.17    0.81
   4  10   1   -1.48    0.94
   4  10   1   -0.60    1.08
  -5 -10  -1    7.80    1.19
   5  10   1    5.73    1.62
   5  10   1    6.75    1.36
  -6 -10  -1    7.40    1.34
   6  10   1    9.37    1.52
   6  10   1    7.10    1.93
   4 -11  -1    6.72    1.84
   4 -11  -1    6.61    1.49
   3 -11  -1    6.51    1.35
   3 -11  -1    3.67    1.50
  -3  11   1    5.12    1.37
   2 -11  -1    1.89    1.19
  -2  11   1    1.27    1.21
   1 -11  -1    2.73    1.12
   1 -11  -1    1.97    1.07
  -1  11   1    2.77    1.20
   0 -11  -1    0.26    0.91
   0 -11  -1   -1.30    0.90
   0  11   1    0.85    0.63
   0  11   1   -0.22    1.04
  -1 -11  -1    1.25    0.98
  -1 -11  -1   -1.12    0.80
   1  11   1   -1.04    1.07
   1  11   1   -0.02    0.80
  -2 -11  -1   29.41    2.30
  -2 -11  -1   27.87    2.88
   2  11   1   34.13    2.62
   2  11   1   28.24    2.45
  -3 -11  -1    9.22    1.07
  -3 -11  -1    8.11    1.36
   3  11   1    9.74    1.60
   3  11   1    9.60    1.59
  -4 -11  -1   -1.27    0.99
   4  11   1    0.25    1.43
   4  11   1    2.79    1.24
  -5 -11  -1    3.17    1.31
   5  11   1    1.78    1.45
   5  11   1    1.24    1.73
   2 -12  -1   10.93    1.68
   2 -12  -1   12.15    1.75
  -2  12   1   14.87    2.11
   1 -12  -1    1.36    1.17
   1 -12  -1    2.16    1.26
  -1  12   1    0.72    1.55
   0 -12  -1    3.92    1.27
   0 -12  -1    1.01    1.13
   0  12   1   -0.34    1.44
  -1 -12  -1    2.14    1.19
  -1 -12  -1   -0.11    1.07
   1  12   1    0.84    1.37
  -2 -12  -1   12.17    1.64
  -2 -12  -1   14.80    2.16
   2  12   1   14.70    1.95
   2  12   1   17.11    2.25
  -3 -12  -1   -2.94    1.17
  -3 -12  -1   -0.35    0.87
   3  12   1    0.62    1.44
   3  12   1   -1.88    1.59
   4  11  -2    1.07    1.74
   3  11  -2   -1.36    1.25
  -3 -11   2    0.39    1.23
   2  11  -2    1.46    1.36
  -2 -11   2    1.97    1.25
  -2 -11   2    5.11    1.25
   1  11  -2    0.50    1.19
  -1 -11   2   -0.46    1.10
  -1 -11   2   -0.45    1.27
   0  11  -2    5.42    1.44
   0 -11   2    3.66    1.29
   0 -11   2    7.66    1.54
  -1  11  -2    2.78    1.48
   1 -11   2    3.21    1.19
   1 -11   2    5.19    1.51
  -2  11  -2    5.00    1.67
   2 -11   2   11.40    1.62
   2 -11   2    7.93    1.72
   3 -11   2    3.10    1.48
   3 -11   2    5.99    1.94
   5  10  -2   -0.70    1.21
  -5 -10   2   -1.01    1.30
   4  10  -2    0.20    1.12
  -4 -10   2   -0.40    1.11
   3  10  -2    5.79    1.20
  -3 -10   2    6.43    1.24
  -3 -10   2    7.84    1.05
   2  10  -2    4.62    1.19
  -2 -10   2    3.82    1.07
  -2 -10   2    3.62    1.13
   1  10  -2   -0.62    0.89
  -1 -10   2    0.12    0.88
  -1 -10   2    0.15    0.93
   0  10  -2   -0.98    0.93
   0 -10   2    0.01    0.95
   0 -10   2    1.30    0.92
  -1  10  -2    4.98    1.02
  -1  10  -2    3.52    1.12
   1 -10   2    4.52    1.21
   1 -10   2    5.03    1.15
  -2  10  -2    0.51    1.02
   2 -10   2    0.10    1.02
   2 -10   2    0.49    1.12
  -3  10  -2    8.70    1.31
   3 -10   2    7.07    1.53
   3 -10   2    9.86    1.52
   4 -10   2   17.08    2.62
   4 -10   2   11.71    1.76
   6   9  -2   -0.30    1.15
  -6  -9   2    1.79    1.23
   5   9  -2   15.87    1.98
  -5  -9   2   13.92    1.90
   4   9  -2    5.17    1.16
  -4  -9   2    8.45    0.86
  -4  -9   2    7.44    1.20
   3   9  -2    2.05    0.87
  -3  -9   2    1.98    0.96
  -3  -9   2    1.89    0.68
   2   9  -2    7.56    1.17
  -2  -9   2    7.83    1.07
  -2  -9   2   10.38    1.25
   1   9  -2    9.86    1.16
   1   9  -2    9.93    1.25
  -1  -9   2    8.43    1.22
  -1  -9   2   11.36    1.44
   0   9  -2    0.42    0.67
   0  -9   2   -0.11    0.72
   0  -9   2   -0.23    0.72
  -1   9  -2   27.36    1.94
  -1   9  -2   25.67    1.47
  -1   9  -2   33.02    2.56
  -1   9  -2   22.61    1.45
   1  -9   2   24.94    2.14
   1  -9   2   29.83    1.99
  -2   9  -2   36.35    2.22
  -2   9  -2   36.97    2.55
   2  -9   2   32.90    2.66
   2  -9   2   36.95    2.39
  -3   9  -2    0.50    0.74
   3  -9   2    1.46    1.01
   3  -9   2    0.15    0.91
   4  -9   2    4.98    1.21
   4  -9   2    4.53    1.37
   5  -9   2   -1.03    1.35
   5  -9   2    0.56    1.31
   7   8  -2    2.63    1.30
   6   8  -2    4.86    1.19
   5   8  -2    6.11    1.12
  -5  -8   2    5.71    1.04
   4   8  -2   42.82    2.55
  -4  -8   2   44.48    2.03
  -4  -8   2   45.98    2.53
   3   8  -2   33.00    2.07
  -3  -8   2   32.53    1.80
  -2  -8   2    0.90    0.58
  -2  -8   2    1.16    0.74
   1   8  -2    0.66    0.62
  -1  -8   2   -0.80    0.59
  -1  -8   2   -0.28    0.58
   0   8  -2    7.08    0.97
   0   8  -2    5.12    1.16
   0   8  -2    5.30    0.80
   0  -8   2    4.67    0.94
   0  -8   2    4.32    0.80
  -1   8  -2    1.54    0.48
  -1   8  -2    2.44    0.97
  -1   8  -2    1.53    0.67
   1  -8   2    0.58    0.70
   1  -8   2    0.04    0.63
  -2   8  -2   47.98    2.74
  -2   8  -2   48.69    2.54
   2  -8   2   50.58    2.65
  -3   8  -2   10.22    1.36
  -3   8  -2   12.76    1.14
   3  -8   2   12.20    1.36
   3  -8   2   11.80    1.69
   4  -8   2    8.10    1.15
   4  -8   2    9.19    1.58
   5  -8   2   10.81    1.41
   5  -8   2    7.59    1.60
   6  -8   2   38.89    3.30
   6  -8   2   26.80    2.43
   7   7  -2   22.45    2.23
   7   7  -2   25.71    1.49
   6   7  -2    2.45    0.49
   6   7  -2    1.93    0.92
  -6  -7   2    3.82    0.80
   5   7  -2    9.06    1.12
  -5  -7   2    9.81    1.05
  -5  -7   2    9.62    1.24
   4   7  -2    0.11    0.71
  -4  -7   2   -0.02    0.34
  -4  -7   2   -0.18    0.60
  -4  -7   2   -0.08    0.28
  -4  -7   2    0.38    0.65
   3   7  -2    9.33    1.11
  -3  -7   2    8.31    0.84
  -3  -7   2    9.68    0.71
  -3  -7   2    9.12    1.13
  -3  -7   2    9.22    1.12
   2   7  -2   41.28    2.15
   2   7  -2   36.55    2.34
  -2  -7   2   40.14    2.12
  -2  -7   2   41.07    1.81
  -2  -7   2   40.03    2.18
  -2  -7   2   37.94    2.10
   1   7  -2   23.67    1.50
  -1  -7   2   22.08    1.13
  -1  -7   2   20.62    1.53
  -1  -7   2   21.67    1.44
  -1  -7   2   22.62    1.51
   0   7  -2  242.55    9.75
   0   7  -2  247.90    9.65
   0   7  -2  233.68    9.84
   0  -7   2  237.71    9.49
   0  -7   2  214.49    9.91
   0  -7   2  230.07    9.69
   0  -7   2  235.63    9.76
  -1   7  -2    4.66    0.65
  -1   7  -2    5.82    0.79
  -1   7  -2    4.66    0.87
   1  -7   2    8.93    1.02
   1  -7   2    4.75    0.56
   1  -7   2    6.38    0.83
   1  -7   2    5.63    0.94
  -2   7  -2    1.43    0.56
  -2   7  -2    0.64    0.70
   2  -7   2    0.79    0.55
   2  -7   2    0.40    0.61
   2  -7   2    1.19    0.79
  -3   7  -2  125.47    5.26
  -3   7  -2  123.76    5.21
   3  -7   2  113.45    5.84
   3  -7   2  127.40    5.41
   3  -7   2  126.41    5.36
   4  -7   2   27.46    2.34
   4  -7   2   29.97    1.85
   4  -7   2   31.54    1.89
   5  -7   2    1.14    0.80
   5  -7   2    1.69    1.03
   5  -7   2    2.15    0.76
   6  -7   2    7.88    1.68
   6  -7   2   11.78    1.55
   7  -7   2    8.12    1.90
   7  -7   2    5.39    1.10
   8   6  -2    4.94    1.36
   8   6  -2    6.15    0.75
   7   6  -2    0.34    0.43
   7   6  -2   -1.55    0.82
   6   6  -2   20.90    1.11
   6   6  -2   16.15    1.48
  -6  -6   2   18.78    1.27
  -6  -6   2   18.06    1.20
   5   6  -2   33.82    1.61
   5   6  -2   35.48    2.00
  -5  -6   2   33.13    1.79
  -5  -6   2   33.43    1.88
  -5  -6   2   32.40    1.67
   4   6  -2   -0.33    0.83
   4   6  -2    0.17    0.46
   4   6  -2    0.82    0.28
  -4  -6   2    1.16    0.33
  -4  -6   2    0.39    0.53
  -4  -6   2    1.20    0.55
  -4  -6   2    0.87    0.22
   3   6  -2   18.60    1.26
   3   6  -2   20.32    1.57
  -3  -6   2   17.96    1.31
  -3  -6   2   20.62    1.26
  -3  -6   2   19.00    0.98
  -3  -6   2   16.78    1.09
   2   6  -2  140.81    6.25
   2   6  -2  147.36    6.17
  -2  -6   2  142.81    6.10
  -2  -6   2  136.28    6.12
  -2  -6   2  152.55    6.19
  -2  -6   2  150.23    5.90
   1   6  -2    7.75    1.03
   1   6  -2   10.22    0.87
  -1  -6   2    7.32    0.93
  -1  -6   2    8.20    0.94
  -1  -6   2    9.86    0.61
  -1  -6   2    8.78    0.87
   0   6  -2   85.72    3.52
   0   6  -2   82.49    3.72
   0   6  -2   84.29    3.61
   0  -6   2   80.96    3.59
   0  -6   2   80.70    3.40
   0  -6   2   70.80    3.75
  -1   6  -2   12.84    1.17
  -1   6  -2   13.54    0.83
  -1   6  -2   12.20    0.97
   1  -6   2   13.07    1.04
   1  -6   2   12.73    0.78
   1  -6   2   12.82    1.03
   1  -6   2   14.19    1.30
  -2   6  -2    1.21    0.60
  -2   6  -2    1.07    0.41
   2  -6   2    1.21    0.51
   2  -6   2    1.53    0.71
   2  -6   2    1.37    0.47
  -3   6  -2  102.43    4.17
  -3   6  -2   99.87    4.18
   3  -6   2   98.57    4.33
   3  -6   2   99.48    4.29
   3  -6   2   92.04    4.77
   4  -6   2    2.03    0.56
   4  -6   2    1.86    0.58
   4  -6   2    2.12    0.85
   5  -6   2    1.60    1.00
   5  -6   2    3.58    0.70
   5  -6   2    3.42    0.70
   6  -6   2   22.88    1.70
   6  -6   2   26.69    2.59
   6  -6   2   29.36    1.77
   7  -6   2    2.36    0.86
   7  -6   2    3.13    1.41
   8   5  -2    9.01    1.40
   8   5  -2    8.52    0.97
   7   5  -2   12.87    0.90
   6   5  -2    1.18    0.34
   6   5  -2    0.92    0.59
  -6  -5   2    2.39    0.44
  -6  -5   2    1.72    0.57
  -6  -5   2    0.67    0.41
   5   5  -2    6.51    0.56
   5   5  -2    4.57    0.72
   5   5  -2    6.12    1.03
  -5  -5   2    6.85    0.71
  -5  -5   2    5.73    0.78
  -5  -5   2    6.07    0.81
   4   5  -2   19.95    1.51
   4   5  -2   19.39    1.23
   4   5  -2   17.76    0.97
  -4  -5   2   17.97    1.22
  -4  -5   2   18.88    0.98
  -4  -5   2   18.22    1.14
   3   5  -2   76.54    3.52
   3   5  -2   77.22    3.64
   3   5  -2   79.77    3.32
  -3  -5   2   80.85    3.53
  -3  -5   2   83.47    3.30
  -3  -5   2   80.68    3.46
  -3  -5   2   75.37    3.35
   2   5  -2   13.97    1.15
   2   5  -2   15.58    0.99
  -2  -5   2   15.27    0.77
  -2  -5   2   12.97    0.95
  -2  -5   2   14.42    0.98
   1   5  -2  114.47    4.75
   1   5  -2  113.37    4.84
  -1  -5   2  117.27    4.79
  -1  -5   2  111.80    4.72
  -1  -5   2  101.86    4.81
   0   5  -2  138.26    5.86
   0   5  -2  146.94    5.81
   0   5  -2  150.62    5.98
   0  -5   2  124.77    6.00
   0  -5   2  141.70    5.71
   0  -5   2  142.17    5.91
   0  -5   2  137.88    5.84
  -1   5  -2  278.62   10.84
  -1   5  -2  270.15   10.63
  -1   5  -2  266.50   10.74
   1  -5   2  231.85   10.98
   1  -5   2  271.38   10.75
   1  -5   2  270.35   10.80
  -2   5  -2  159.91    6.29
  -2   5  -2  148.16    6.04
  -2   5  -2  153.52    6.22
   2  -5   2  135.14    6.58
   2  -5   2  152.98    6.25
   2  -5   2  153.33    6.29
  -3   5  -2  327.14   12.95
   3  -5   2  333.88   13.09
   3  -5   2  331.55   13.13
   3  -5   2  303.96   13.55
   4  -5   2  103.10    5.13
   4  -5   2  105.75    4.55
   4  -5   2  113.03    4.61
   5  -5   2   66.48    3.74
   5  -5   2   66.87    3.03
   5  -5   2   69.92    3.07
   6  -5   2    0.56    0.55
   6  -5   2    0.52    0.49
   6  -5   2   -0.94    0.86
   7  -5   2    4.79    1.42
   7  -5   2    6.56    0.96
   7  -5   2    6.33    0.78
   8  -5   2    0.23    0.86
   8  -5   2    1.57    1.48
   9   4  -2   -0.12    0.55
   8   4  -2    2.19    0.46
   7   4  -2    2.91    0.41
   7   4  -2    3.88    0.75
   6   4  -2   98.86    3.97
   6   4  -2   96.76    4.22
  -6  -4   2   94.91    3.85
  -6  -4   2   95.88    3.88
  -6  -4   2   88.37    4.10
   5   4  -2  282.98   11.29
   5   4  -2  283.13   11.65
   5   4  -2  274.09   11.48
  -5  -4   2  284.03   11.35
  -5  -4   2  284.47   11.29
  -5  -4   2  281.19   11.36
   4   4  -2    0.19    0.37
   4   4  -2   -0.26    0.55
   4   4  -2   -0.06    0.17
  -4  -4   2    0.30    0.33
  -4  -4   2    0.08    0.35
  -4  -4   2   -0.07    0.21
   3   4  -2   17.00    0.82
   3   4  -2   17.15    1.20
   3   4  -2   15.45    1.02
  -3  -4   2   18.17    0.84
  -3  -4   2   15.42    1.00
  -3  -4   2   15.26    0.84
  -3  -4   2   16.08    0.98
   2   4  -2   56.00    2.30
   2   4  -2   55.94    2.46
   2   4  -2   58.32    2.58
  -2  -4   2   54.36    2.47
  -2  -4   2   55.23    2.42
  -2  -4   2   47.04    2.39
  -2  -4   2   53.89    2.27
   1   4  -2    1.18    0.45
   1   4  -2    0.79    0.28
  -1  -4   2    1.02    0.31
  -1  -4   2    0.58    0.16
  -1  -4   2    0.74    0.29
  -1  -4   2    0.97    0.33
   0   4  -2   57.36    2.75
   0   4  -2   59.93    2.53
   0   4  -2   59.29    2.56
   0  -4   2   59.27    2.44
   0  -4   2   51.90    2.68
   0  -4   2   59.03    2.61
   0  -4   2   59.53    2.56
  -1   4  -2   13.09    0.91
  -1   4  -2   12.90    0.70
  -1   4  -2   12.50    0.78
   1  -4   2   13.58    0.86
   1  -4   2   10.74    1.00
  -2   4  -2   38.88    1.60
  -2   4  -2   39.66    1.70
  -2   4  -2   39.41    1.75
   2  -4   2   38.52    1.77
   2  -4   2   31.28    2.00
   2  -4   2   34.40    1.79
   3  -4   2    9.66    0.73
   3  -4   2   10.34    0.72
   3  -4   2    9.47    1.09
   4  -4   2  142.97    5.65
   4  -4   2  127.33    6.14
   4  -4   2  137.02    5.60
   5  -4   2  102.36    3.87
   5  -4   2   76.57    3.86
   5  -4   2   94.11    3.82
   5  -4   2   87.77    4.47
   6  -4   2   87.03    3.62
   6  -4   2   75.64    3.73
   6  -4   2   96.70    3.68
   6  -4   2   81.48    4.39
   7  -4   2    6.56    0.92
   7  -4   2    7.96    1.42
   7  -4   2    6.53    0.84
   7  -4   2    7.08    0.81
   8  -4   2    3.74    1.46
   8  -4   2    3.66    0.82
   9   3  -2   11.00    1.01
   8   3  -2    0.63    0.75
   8   3  -2    0.30    0.36
   7   3  -2   19.80    2.07
   7   3  -2   16.38    0.95
   7   3  -2   16.57    1.28
  -7  -3   2   16.26    1.44
   6   3  -2    1.45    0.29
   6   3  -2    1.61    0.53
   6   3  -2    2.13    0.84
  -6  -3   2    2.02    0.57
   5   3  -2   31.76    1.45
   5   3  -2   31.92    1.64
  -5  -3   2   32.58    1.59
  -5  -3   2   31.83    1.47
  -5  -3   2   33.00    1.41
   4   3  -2   12.39    1.04
   4   3  -2   13.22    0.85
   4   3  -2   12.44    0.66
  -4  -3   2   13.31    0.74
  -4  -3   2   12.24    0.74
  -4  -3   2   12.40    0.79
   3   3  -2   38.90    1.78
   3   3  -2   36.18    1.62
   3   3  -2   37.23    1.89
  -3  -3   2   40.18    1.72
  -3  -3   2   37.79    1.76
  -3  -3   2   37.27    1.64
   2   3  -2  456.74   17.96
   2   3  -2  470.87   18.09
  -2  -3   2  463.66   17.95
  -2  -3   2  382.70   18.01
  -2  -3   2  462.83   18.10
  -2  -3   2  479.89   18.05
   1   3  -2   74.58    3.24
   1   3  -2   73.62    3.14
  -1  -3   2   78.59    3.28
  -1  -3   2   75.91    3.12
  -1  -3   2   80.69    3.24
   0   3  -2  177.65    6.98
   0   3  -2  177.35    7.06
   0   3  -2  162.48    6.97
   0  -3   2  169.88    6.97
   0  -3   2  173.36    7.03
  -1   3  -2   14.46    0.85
  -1   3  -2   14.49    0.71
  -1   3  -2   13.34    0.74
   1  -3   2   13.91    0.77
   1  -3   2   12.80    0.79
  -2   3  -2  110.38    4.80
  -2   3  -2  123.46    4.81
  -2   3  -2  121.97    4.76
   2  -3   2  119.05    4.75
   2  -3   2  121.75    4.82
   2  -3   2  120.28    4.86
   2  -3   2  105.89    5.10
   3  -3   2    0.16    0.27
   3  -3   2    0.08    0.33
   3  -3   2    0.29    0.21
   3  -3   2    0.08    0.20
   4  -3   2   14.14    0.80
   4  -3   2   16.03    0.85
   4  -3   2   13.05    1.26
   4  -3   2   15.56    0.83
   5  -3   2    2.81    0.77
   5  -3   2    3.60    0.51
   5  -3   2    4.29    0.42
   6  -3   2    0.75    0.41
   6  -3   2    0.71    0.34
   6  -3   2    0.69    0.39
   6  -3   2    0.15    0.67
   7  -3   2   27.22    2.14
   7  -3   2   24.76    1.52
   7  -3   2   21.97    1.20
   7  -3   2   22.03    1.50
   8  -3   2    2.24    1.15
   8  -3   2    0.73    0.81
   8  -3   2    1.14    0.64
   9  -3   2    0.01    1.36
   9  -3   2   -0.90    0.73
   9   2  -2    1.15    0.52
   8   2  -2    3.03    0.73
   8   2  -2    3.46    0.49
   7   2  -2   -0.06    0.27
   7   2  -2    1.80    0.99
   7   2  -2   -0.36    0.45
  -7  -2   2    0.20    0.68
   6   2  -2  213.49    8.90
   6   2  -2  215.93    8.78
   6   2  -2  235.16    9.17
  -6  -2   2  208.06    8.95
   5   2  -2   15.15    0.90
   5   2  -2   17.02    1.22
   5   2  -2   14.72    0.78
  -5  -2   2   13.64    0.96
   4   2  -2    6.83    0.57
   4   2  -2    8.43    0.48
  -4  -2   2    7.41    0.55
  -4  -2   2    7.89    0.59
  -4  -2   2    7.59    0.46
   3   2  -2  208.46    8.26
   3   2  -2  196.98    8.06
   3   2  -2  201.96    8.16
  -3  -2   2  200.35    8.15
  -3  -2   2  199.47    8.09
  -3  -2   2  203.99    8.09
   2   2  -2  114.57    4.44
   2   2  -2  100.46    4.34
   2   2  -2  102.41    4.25
  -2  -2   2  105.53    4.25
  -2  -2   2  106.23    4.36
  -2  -2   2  103.92    4.31
   1   2  -2 2350.06   96.41
  -1  -2   2 2256.54   96.05
   0   2  -2  412.43   16.01
   0   2  -2  409.49   15.95
   0  -2   2  374.74   15.98
   0  -2   2  406.41   15.94
  -1   2  -2   76.34    3.11
  -1   2  -2   76.58    3.06
   1  -2   2   73.51    3.04
   1  -2   2   73.95    3.06
   1  -2   2   70.82    3.13
  -2   2  -2  199.48    7.82
  -2   2  -2  195.50    7.82
  -2   2  -2  196.74    7.90
   2  -2   2  199.26    7.89
   2  -2   2  190.36    7.88
   2  -2   2  200.88    7.93
   3  -2   2  109.58    5.26
   3  -2   2  123.43    4.93
   3  -2   2  130.95    4.91
   4  -2   2   73.29    3.12
   4  -2   2   68.33    3.44
   4  -2   2   76.61    2.96
   4  -2   2   71.06    2.97
   5  -2   2    3.67    0.51
   5  -2   2    3.27    0.70
   6  -2   2   46.68    2.28
   6  -2   2   48.83    2.38
   6  -2   2   48.98    2.71
   7  -2   2    1.19    0.77
   7  -2   2    2.74    0.52
   7  -2   2    2.05    0.65
   8  -2   2    8.77    1.32
   8  -2   2    7.48    1.13
   8  -2   2    7.95    1.00
   9  -2   2    4.91    1.30
   9  -2   2    3.57    0.76
   9   1  -2   18.01    1.27
   8   1  -2    3.56    0.50
   8   1  -2    2.27    0.60
   7   1  -2   12.62    0.81
   7   1  -2   15.37    1.66
   7   1  -2   12.51    0.93
   6   1  -2    1.44    0.30
   6   1  -2    0.80    0.34
   6   1  -2    1.81    0.66
  -6  -1   2    0.05    0.50
   5   1  -2   10.00    0.64
   5   1  -2    9.55    0.59
   5   1  -2   10.03    0.46
  -5  -1   2    8.85    0.81
   4   1  -2    2.53    0.44
   4   1  -2    2.63    0.18
   4   1  -2    2.15    0.30
   4   1  -2    2.09    0.25
  -4  -1   2    1.75    0.20
  -4  -1   2    3.09    0.39
  -4  -1   2    1.76    0.20
   3   1  -2   77.88    3.36
   3   1  -2   87.54    3.49
   3   1  -2   83.26    3.33
  -3  -1   2   80.72    3.41
  -3  -1   2   82.99    3.31
  -3  -1   2   75.23    3.31
  -3  -1   2   84.37    3.38
   2   1  -2    1.70    0.18
   2   1  -2    1.65    0.23
   2   1  -2    2.26    0.34
  -2  -1   2    1.69    0.15
  -2  -1   2    1.72    0.22
  -2  -1   2    1.32    0.18
  -2  -1   2    1.95    0.27
   1   1  -2 5299.50  209.13
  -1  -1   2 5098.04  208.68
   0   1  -2 3505.49  139.87
   0  -1   2 3415.56  139.63
  -1   1  -2  478.76   19.29
  -1   1  -2  493.61   19.28
   1  -1   2  486.89   19.30
  -2   1  -2 1218.80   52.14
   2  -1   2 1325.28   52.55
   3  -1   2   61.35    2.65
   4  -1   2   32.91    1.86
   4  -1   2   37.42    1.73
   5  -1   2  179.85    7.73
   5  -1   2  177.48    7.41
   5  -1   2  187.41    7.57
   6  -1   2   56.77    2.48
   6  -1   2   51.95    2.82
   6  -1   2   56.63    2.73
   7  -1   2   14.44    0.97
   7  -1   2   14.50    1.39
   7  -1   2   12.84    1.34
   8  -1   2   20.09    1.25
   8  -1   2   18.83    1.85
   8  -1   2   21.62    1.80
   9  -1   2    9.21    1.06
   9  -1   2   12.56    1.94
   9  -1   2   11.29    1.61
   9   0  -2   -0.59    0.49
   8   0  -2   24.12    1.11
   8   0  -2   22.54    1.37
   8   0  -2   24.91    1.32
   7   0  -2   40.18    1.78
   7   0  -2   42.04    2.33
   7   0  -2   39.81    1.88
   7   0  -2   39.64    1.87
   6   0  -2    9.81    1.06
   6   0  -2    8.20    0.61
   6   0  -2    9.01    0.58
   6   0  -2    7.04    0.64
   5   0  -2  166.54    6.60
   5   0  -2  153.18    6.42
   5   0  -2  158.21    6.47
   5   0  -2  164.92    6.44
  -5   0   2  151.99    6.59
   4   0  -2   97.27    3.82
   4   0  -2   93.02    3.77
   4   0  -2   95.16    3.80
   4   0  -2   98.69    3.91
  -4   0   2   77.76    3.85
  -4   0   2   92.69    3.91
   3   0  -2   36.43    1.59
   3   0  -2   35.31    1.48
   3   0  -2   35.94    1.47
   3   0  -2   33.53    1.49
  -3   0   2   34.02    1.41
  -3   0   2   36.09    1.56
  -3   0   2   30.06    1.52
  -3   0   2   33.53    1.43
   2   0  -2  425.56   17.05
   2   0  -2  448.79   17.14
   2   0  -2  427.67   17.06
  -2   0   2  433.33   17.08
  -2   0   2  426.78   17.07
  -2   0   2  419.99   17.08
   1   0  -2  372.35   15.11
   1   0  -2  391.07   15.12
   1   0  -2  378.94   15.03
  -1   0   2  376.58   15.10
   0   0  -2  113.61    4.55
   0   0  -2  108.61    4.52
   0   0  -2  116.62    4.60
   0   0  -2  122.17    4.62
   0   0   2  105.47    4.52
   0   0   2  110.56    4.59
   0   0   2  118.09    4.62
   0   0   2  115.86    4.55
  -1   0  -2  243.54    9.42
  -1   0  -2  238.21    9.47
   1   0   2  235.31    9.43
   1   0   2  234.40    9.39
   1   0   2  233.83    9.47
  -2   0  -2 2476.85   98.98
   2   0   2 2470.18   98.90
   3   0   2   15.87    0.93
   4   0   2    1.54    0.39
   4   0   2    1.63    0.23
   5   0   2  136.36    5.61
   5   0   2  118.56    5.56
   5   0   2  134.74    5.32
   6   0   2   38.86    2.19
   6   0   2   40.56    1.78
   6   0   2   37.37    2.08
   7   0   2    0.33    0.27
   7   0   2    1.04    0.53
   7   0   2   -0.35    0.62
   8   0   2    1.23    0.37
   8   0   2   -0.17    0.62
   8   0   2    0.97    0.98
   9   0   2    6.07    0.77
   9   0   2    6.83    1.54
   9  -1  -2    5.09    0.70
   9  -1  -2    4.88    1.64
   8  -1  -2    8.97    0.83
   8  -1  -2    9.81    0.83
   8  -1  -2   11.10    0.95
   7  -1  -2    3.49    0.42
   7  -1  -2    2.82    0.49
   7  -1  -2    3.25    0.88
   7  -1  -2    4.04    0.51
   6  -1  -2  213.52    8.75
   6  -1  -2  222.82    8.94
   6  -1  -2  217.33    8.89
   6  -1  -2  218.36    8.87
   5  -1  -2   44.16    2.06
   5  -1  -2   43.31    1.87
   5  -1  -2   43.94    1.99
   5  -1  -2   43.85    2.02
   4  -1  -2  146.00    5.76
   4  -1  -2  137.84    5.63
   4  -1  -2  140.05    5.73
   4  -1  -2  136.50    5.76
   3  -1  -2  719.96   28.43
   3  -1  -2  791.85   28.46
  -3   1   2  686.61   28.46
  -3   1   2  669.77   28.50
   2  -1  -2   20.24    0.98
   2  -1  -2   20.09    0.94
   2  -1  -2   19.63    0.89
  -2   1   2   21.14    1.01
  -2   1   2   20.91    0.92
  -2   1   2   19.94    0.87
  -2   1   2   19.17    0.96
   1  -1  -2   72.84    2.99
   1  -1  -2   71.60    2.94
   1  -1  -2   73.70    3.02
   1  -1  -2   71.21    2.97
   1  -1  -2   71.08    2.97
  -1   1   2   73.98    2.99
  -1   1   2   76.59    3.02
  -1   1   2   73.61    2.99
  -1   1   2   73.35    2.95
  -1   1   2   70.21    2.97
   0  -1  -2  538.82   21.36
   1   1   2 1005.43   42.13
   2   1   2  179.69    7.27
   2   1   2  172.59    7.24
   2   1   2  186.10    7.25
   2   1   2  193.42    7.45
   3   1   2  716.06   28.53
   4   1   2  364.19   14.53
   4   1   2  358.02   14.48
   4   1   2  385.23   14.86
   4   1   2  357.35   14.49
   5   1   2   27.24    1.21
   5   1   2   28.39    1.65
   5   1   2   30.05    1.26
   5   1   2   28.46    1.22
   5   1   2   25.63    1.48
   6   1   2  184.14    7.38
   6   1   2  187.30    7.92
   6   1   2  190.61    7.41
   6   1   2  187.20    7.43
   6   1   2  172.31    7.65
   7   1   2   26.20    1.20
   7   1   2   26.97    1.92
   7   1   2   25.78    1.30
   7   1   2   22.92    1.19
   7   1   2   24.14    1.45
   8   1   2    2.14    0.42
   8   1   2    2.43    0.36
   8   1   2    2.02    0.55
   8   1   2    1.22    1.02
   9   1   2   13.14    0.89
   9   1   2   13.76    1.91
   9  -2  -2    2.50    1.40
   9  -2  -2    5.79    0.82
   8  -2  -2   12.90    0.90
   8  -2  -2   13.78    1.13
   8  -2  -2   13.41    1.18
   7  -2  -2   17.06    1.51
   7  -2  -2   18.34    1.16
   7  -2  -2   17.22    0.93
   7  -2  -2   15.92    1.19
   6  -2  -2  162.20    6.89
   6  -2  -2  158.07    6.62
   6  -2  -2  168.85    6.81
   6  -2  -2  167.50    6.83
   5  -2  -2  219.69    8.92
   5  -2  -2  215.57    8.76
   5  -2  -2  215.56    9.00
   5  -2  -2  223.93    8.91
   4  -2  -2    1.67    0.33
   4  -2  -2    2.24    0.26
   4  -2  -2    1.56    0.36
   4  -2  -2    1.34    0.35
  -4   2   2    1.72    0.46
   3  -2  -2  955.59   37.38
   3  -2  -2  996.57   37.30
   3  -2  -2  963.11   37.32
  -3   2   2  848.95   37.40
   2  -2  -2   23.05    1.20
   2  -2  -2   27.21    1.17
   2  -2  -2   26.77    1.28
   2  -2  -2   27.34    1.25
   2  -2  -2   27.36    1.19
  -2   2   2   27.23    1.19
  -2   2   2   26.50    1.13
  -2   2   2   24.75    1.32
  -1   2   2 2198.27   90.48
   0   2   2  967.00   41.77
  -1  -2  -2    7.58    0.38
  -1  -2  -2    7.20    0.53
  -1  -2  -2    6.90    0.43
   1   2   2    7.09    0.42
   1   2   2    7.75    0.47
   1   2   2    7.74    0.40
  -2  -2  -2  109.22    4.43
  -2  -2  -2  113.73    4.42
  -2  -2  -2  105.88    4.37
   2   2   2  114.33    4.41
   2   2   2  110.54    4.47
   2   2   2  112.92    4.45
   2   2   2  110.39    4.61
   2   2   2  104.14    4.36
   3   2   2  941.06   37.45
   4   2   2  122.17    4.96
   5   2   2   39.35    1.64
   5   2   2   40.74    1.72
   5   2   2   39.86    2.16
   5   2   2   41.18    1.75
   5   2   2   34.41    1.81
   6   2   2  233.04    9.46
   6   2   2  205.80    8.99
   6   2   2  226.84    8.92
   6   2   2  218.82    8.85
   6   2   2  224.25    8.94
   7   2   2   42.39    1.79
   7   2   2   42.74    1.82
   7   2   2   40.60    1.90
   7   2   2   40.78    1.95
   7   2   2   44.84    2.65
   8   2   2    3.15    0.52
   8   2   2    3.98    0.50
   8   2   2    4.44    1.32
   9   2   2   10.18    1.80
   9   2   2    7.64    0.71
   9  -3  -2    4.29    0.84
   8  -3  -2    0.16    0.54
   8  -3  -2   -0.22    0.89
   8  -3  -2   -0.10    0.68
   7  -3  -2   17.69    1.20
   7  -3  -2   14.83    1.28
   7  -3  -2   14.58    0.89
   7  -3  -2   17.78    1.52
   7  -3  -2   15.41    1.52
   6  -3  -2   45.74    2.25
   6  -3  -2   45.28    2.02
   6  -3  -2   48.81    2.33
   6  -3  -2   45.23    2.38
   5  -3  -2   75.90    3.51
   5  -3  -2   76.70    3.20
   5  -3  -2   77.65    3.35
   5  -3  -2   76.12    3.39
   5  -3  -2   75.83    3.36
   4  -3  -2   14.42    0.82
   4  -3  -2   12.46    0.87
   4  -3  -2   12.90    0.96
   4  -3  -2   13.32    0.90
   4  -3  -2   13.57    0.74
  -4   3   2    9.91    1.07
   3  -3  -2  111.26    4.84
   3  -3  -2  114.39    4.64
   3  -3  -2  115.64    4.73
   3  -3  -2  112.87    4.63
   2  -3  -2   36.63    1.51
   2  -3  -2   36.44    1.71
   2  -3  -2   35.98    1.64
   2  -3  -2   35.87    1.56
  -2   3   2   35.46    1.52
  -2   3   2   30.04    1.72
   1  -3  -2  104.80    4.48
   1  -3  -2  110.98    4.40
   1  -3  -2  105.69    4.44
   1  -3  -2  109.95    4.34
  -1   3   2  108.06    4.33
  -1   3   2  102.63    4.52
  -1   3   2  104.58    4.38
  -1   3   2  112.44    4.46
   0  -3  -2  260.57   10.30
   0  -3  -2  262.73   10.30
   0  -3  -2  258.48   10.33
   0  -3  -2  251.88   10.33
   0   3   2  245.72   10.36
   0   3   2  254.83   10.29
   0   3   2  262.57   10.31
   0   3   2  262.56   10.35
  -1  -3  -2  825.70   32.89
   1   3   2  821.10   32.97
   1   3   2  840.81   32.90
   1   3   2  835.19   32.93
  -2  -3  -2    4.37    0.38
  -2  -3  -2    4.34    0.24
  -2  -3  -2    4.89    0.29
  -2  -3  -2    4.77    0.38
   2   3   2    4.66    0.43
   2   3   2    4.37    0.41
   2   3   2    5.36    0.56
   2   3   2    5.01    0.34
  -3  -3  -2  113.71    4.48
  -3  -3  -2  107.74    4.43
  -3  -3  -2  112.83    4.49
   3   3   2  108.03    4.42
   3   3   2  110.80    4.47
   3   3   2  114.10    4.57
   3   3   2  108.90    4.56
  -4  -3  -2    2.58    0.30
   4   3   2    2.71    0.38
   4   3   2    2.23    0.23
   4   3   2    2.64    0.34
   4   3   2    2.45    0.21
  -5  -3  -2   16.23    0.89
   5   3   2   18.13    1.01
   5   3   2   16.72    0.76
   5   3   2   14.12    0.86
   5   3   2   17.59    0.75
   5   3   2   16.83    0.91
   6   3   2   11.52    1.35
   6   3   2    8.65    0.52
   6   3   2   10.33    0.87
   6   3   2    9.86    0.72
   7   3   2    5.30    0.68
   7   3   2    5.97    0.80
   7   3   2    3.89    0.39
   7   3   2    3.85    1.15
   8   3   2    2.75    0.36
   8   3   2    1.80    0.57
   8   3   2    5.40    1.32
   9   3   2    1.93    1.58
   8  -4  -2    4.27    1.00
   8  -4  -2    6.86    0.91
   7  -4  -2    3.79    0.95
   7  -4  -2    3.92    0.75
   7  -4  -2    3.12    0.78
   7  -4  -2    4.06    0.87
   7  -4  -2    5.14    0.61
   7  -4  -2    4.09    0.74
   6  -4  -2   66.52    3.11
   6  -4  -2   70.60    3.01
   6  -4  -2   69.85    3.42
   6  -4  -2   72.28    3.27
   6  -4  -2   70.32    3.27
   5  -4  -2    1.10    0.40
   5  -4  -2    2.70    0.66
   5  -4  -2    1.89    0.41
   5  -4  -2    2.06    0.36
   5  -4  -2    2.22    0.59
   4  -4  -2  169.12    6.65
   4  -4  -2  164.12    6.74
   4  -4  -2  157.15    6.80
   4  -4  -2  166.16    6.59
   4  -4  -2  157.32    6.93
   3  -4  -2    5.60    0.70
   3  -4  -2    7.72    0.69
   3  -4  -2    6.97    0.53
   3  -4  -2    7.00    0.44
  -3   4   2    7.00    0.50
  -3   4   2    5.32    0.78
   2  -4  -2  180.12    6.96
   2  -4  -2  177.08    7.01
   2  -4  -2  165.59    7.12
   2  -4  -2  172.89    6.82
  -2   4   2  176.39    6.98
  -2   4   2  153.41    7.16
  -2   4   2  170.44    6.91
   1  -4  -2  630.70   24.52
   1  -4  -2  642.87   24.49
   1  -4  -2  600.85   24.59
  -1   4   2  540.38   24.60
  -1   4   2  629.91   24.37
  -1   4   2  641.29   24.54
  -1   4   2  623.56   24.46
   0  -4  -2  339.76   14.13
   0  -4  -2  367.88   14.11
   0  -4  -2  361.74   14.09
   0   4   2  356.74   14.09
   0   4   2  356.97   14.13
   0   4   2  328.51   14.17
  -1  -4  -2    0.00    0.18
  -1  -4  -2    0.43    0.18
  -1  -4  -2    0.19    0.21
   1   4   2    0.47    0.25
   1   4   2    0.34    0.26
   1   4   2    0.49    0.24
   1   4   2    0.11    0.23
  -2  -4  -2  224.81    8.93
  -2  -4  -2  227.61    8.93
  -2  -4  -2  228.76    8.85
  -2  -4  -2  216.82    8.79
   2   4   2  207.38    8.92
   2   4   2  215.55    8.96
   2   4   2  228.28    8.97
  -3  -4  -2   85.06    3.37
  -3  -4  -2   82.69    3.47
  -3  -4  -2   83.34    3.47
  -3  -4  -2   84.45    3.35
   3   4   2   81.84    3.54
   3   4   2   81.68    3.45
  -4  -4  -2   46.44    1.85
  -4  -4  -2   45.20    1.89
  -4  -4  -2   42.62    1.88
   4   4   2   43.91    2.02
   4   4   2   42.51    1.86
   4   4   2   42.31    2.05
   4   4   2   44.70    1.83
  -5  -4  -2   50.15    2.11
   5   4   2   49.93    2.02
   5   4   2   46.34    2.27
   5   4   2   47.40    2.23
   6   4   2    9.70    0.87
   6   4   2   11.85    0.58
   6   4   2    9.14    1.02
   7   4   2    0.12    0.19
   7   4   2   -0.20    0.88
   7   4   2    0.22    0.73
   7   4   2    0.25    0.47
   8   4   2    3.77    0.77
   8   4   2    3.49    1.29
   8   4   2    4.11    0.41
   9   4   2    0.57    1.58
   8  -5  -2    8.35    1.06
   8  -5  -2   11.05    1.49
   7  -5  -2   21.81    1.60
   7  -5  -2   20.11    1.83
   7  -5  -2   18.52    1.20
   7  -5  -2   18.15    1.19
   6  -5  -2   10.66    1.11
   6  -5  -2   10.57    0.88
   6  -5  -2    9.35    1.37
   6  -5  -2   10.95    0.81
   6  -5  -2   11.23    0.84
   6  -5  -2    9.53    1.31
   5  -5  -2   68.55    3.46
   5  -5  -2   70.10    3.23
   5  -5  -2   72.97    3.09
   5  -5  -2   68.71    3.29
   4  -5  -2    6.63    0.95
   4  -5  -2    6.60    0.85
   4  -5  -2    7.61    0.64
  -4   5   2    6.06    1.02
   3  -5  -2   32.98    1.59
   3  -5  -2   33.82    1.86
   3  -5  -2   32.46    1.68
  -3   5   2   27.60    1.96
  -3   5   2   34.07    1.56
  -3   5   2   34.36    1.50
   2  -5  -2  481.79   20.04
   2  -5  -2  517.07   19.86
   2  -5  -2  507.60   19.90
  -2   5   2  530.15   19.90
  -2   5   2  497.90   19.80
  -2   5   2  446.04   20.09
   1  -5  -2    5.29    0.63
   1  -5  -2    5.57    0.63
   1  -5  -2    5.20    0.54
  -1   5   2    3.63    0.61
  -1   5   2    6.59    0.44
  -1   5   2    5.80    0.60
  -1   5   2    5.57    0.61
   0  -5  -2   10.22    0.71
   0  -5  -2   10.51    0.78
   0  -5  -2   10.37    0.77
   0   5   2   10.18    0.76
   0   5   2   10.35    0.68
   0   5   2    8.98    0.97
  -1  -5  -2  376.31   14.66
  -1  -5  -2  366.42   14.65
  -1  -5  -2  373.16   14.66
   1   5   2  370.51   14.67
   1   5   2  365.23   14.69
   1   5   2  340.68   14.71
   1   5   2  361.92   14.69
  -2  -5  -2    0.96    0.17
  -2  -5  -2    0.89    0.35
   2   5   2    1.43    0.33
   2   5   2    1.81    0.41
   2   5   2    1.28    0.35
  -3  -5  -2  208.96    8.45
  -3  -5  -2  220.58    8.49
  -3  -5  -2  214.07    8.62
   3   5   2  197.03    8.60
   3   5   2  214.80    8.70
   3   5   2  218.66    8.70
  -4  -5  -2   75.24    3.10
  -4  -5  -2   75.35    2.98
  -4  -5  -2   73.77    3.09
   4   5   2   74.43    3.26
   4   5   2   71.28    3.21
   4   5   2   65.63    3.03
  -5  -5  -2   84.18    3.38
  -5  -5  -2   81.42    3.37
  -5  -5  -2   81.98    3.38
   5   5   2   79.83    3.65
   5   5   2   80.33    3.61
   5   5   2   81.36    3.34
  -6  -5  -2   43.83    2.00
   6   5   2   44.89    1.86
   6   5   2   42.56    2.30
   6   5   2   41.58    2.17
  -7  -5  -2   15.28    1.15
   7   5   2   17.57    0.88
   7   5   2   15.96    1.32
   7   5   2   16.85    1.65
   7   5   2   18.47    2.02
   8   5   2    1.15    0.33
   8   5   2    0.63    1.24
   8   5   2    1.80    0.80
   9   5   2    1.35    1.66
   8  -6  -2   -0.20    0.83
   8  -6  -2    0.47    1.15
   7  -6  -2    1.40    0.62
   7  -6  -2    0.51    0.98
   7  -6  -2   -0.10    0.69
   6  -6  -2   22.83    1.40
   6  -6  -2   22.37    1.92
   6  -6  -2   19.37    1.71
   6  -6  -2   22.35    1.68
   5  -6  -2   71.41    3.43
   5  -6  -2   77.25    3.33
   5  -6  -2   73.48    3.75
   4  -6  -2   82.97    3.58
   4  -6  -2   79.87    3.94
   4  -6  -2   81.38    3.67
   3  -6  -2   14.17    1.10
   3  -6  -2   13.17    1.24
   3  -6  -2   15.79    1.00
  -3   6   2   11.37    1.38
  -3   6   2   14.85    0.98
  -3   6   2   16.09    0.97
   2  -6  -2    0.98    0.45
   2  -6  -2    0.75    0.37
   2  -6  -2    0.09    0.46
  -2   6   2    0.82    0.46
  -2   6   2    0.41    0.42
  -2   6   2    1.54    0.61
   1  -6  -2    2.02    0.46
   1  -6  -2    2.88    0.46
   1  -6  -2    3.07    0.58
  -1   6   2    1.03    0.59
  -1   6   2    2.53    0.48
  -1   6   2    3.16    0.36
  -1   6   2    2.18    0.50
   0  -6  -2  395.14   16.03
   0  -6  -2  408.49   15.96
   0  -6  -2  407.49   15.95
   0   6   2  400.72   15.87
   0   6   2  348.97   16.08
   0   6   2  404.77   16.01
   0   6   2  407.16   15.95
  -1  -6  -2  113.55    4.69
  -1  -6  -2  110.49    4.67
  -1  -6  -2  104.70    4.65
   1   6   2  112.19    4.70
   1   6   2  101.46    4.77
   1   6   2  113.70    4.70
   1   6   2  112.50    4.72
  -2  -6  -2    0.36    0.30
  -2  -6  -2    0.17    0.30
  -2  -6  -2    0.36    0.25
  -2  -6  -2   -0.40    0.34
   2   6   2    0.65    0.41
   2   6   2    0.17    0.31
   2   6   2    0.62    0.39
   2   6   2    0.60    0.45
  -3  -6  -2  233.32    8.78
  -3  -6  -2  220.89    8.93
  -3  -6  -2  224.11    8.93
   3   6   2  191.87    8.91
   3   6   2  222.43    9.02
   3   6   2  217.38    9.01
  -4  -6  -2    9.82    0.59
  -4  -6  -2    8.25    0.82
  -4  -6  -2    8.36    0.77
  -4  -6  -2    9.75    0.50
   4   6   2    8.51    1.01
   4   6   2    8.68    0.89
   4   6   2    7.85    0.71
  -5  -6  -2   30.54    1.37
  -5  -6  -2   29.12    1.45
   5   6   2   29.18    1.68
   5   6   2   27.75    1.78
  -6  -6  -2  119.23    4.91
  -6  -6  -2  116.82    4.79
  -6  -6  -2  121.41    4.79
   6   6   2  116.79    5.30
   6   6   2  118.26    5.21
   7   6   2    3.29    0.39
   7   6   2    4.30    1.18
   7   6   2    3.48    0.82
   8   6   2   -0.10    1.26
   8   6   2   -0.83    0.88
   8   6   2    0.56    0.35
   7  -7  -2    0.45    1.11
   7  -7  -2    2.20    0.90
   6  -7  -2   23.91    2.25
   6  -7  -2   22.91    1.88
   6  -7  -2   22.12    1.95
   6  -7  -2   22.16    1.58
   5  -7  -2   -0.22    0.71
   5  -7  -2    0.66    0.75
   5  -7  -2   -1.10    0.51
   4  -7  -2   39.47    1.98
   4  -7  -2   35.21    2.07
   4  -7  -2   36.67    2.34
   3  -7  -2   19.29    1.37
   3  -7  -2   20.43    1.58
   3  -7  -2   16.80    1.27
  -3   7   2   20.86    1.27
  -3   7   2   17.79    1.88
   2  -7  -2    0.18    0.48
   2  -7  -2    0.17    0.50
   2  -7  -2   -0.05    0.40
  -2   7   2   -0.28    0.46
  -2   7   2   -0.46    0.47
  -2   7   2   -1.28    0.59
   1  -7  -2   30.24    1.79
   1  -7  -2   29.98    1.66
   1  -7  -2   32.08    1.66
  -1   7   2   29.48    1.47
  -1   7   2   25.46    1.91
  -1   7   2   30.34    1.68
  -1   7   2   30.87    1.70
   0  -7  -2   27.35    1.59
   0  -7  -2   26.14    1.54
   0  -7  -2   26.88    1.53
   0   7   2   26.91    1.57
   0   7   2   28.69    1.40
   0   7   2   28.00    1.59
   0   7   2   22.05    1.72
  -1  -7  -2   14.49    1.04
  -1  -7  -2   14.51    1.05
  -1  -7  -2   15.70    1.10
   1   7   2   14.10    1.14
   1   7   2   12.52    1.26
   1   7   2   15.71    1.09
   1   7   2   14.44    1.15
  -2  -7  -2   14.98    1.11
  -2  -7  -2   15.90    0.81
  -2  -7  -2   16.63    0.99
  -2  -7  -2   15.72    1.09
   2   7   2   13.97    1.17
   2   7   2   13.66    1.22
   2   7   2   14.69    1.24
   2   7   2   14.84    1.15
  -3  -7  -2   12.89    1.06
  -3  -7  -2   13.27    0.70
  -3  -7  -2   13.28    1.04
  -3  -7  -2   13.75    0.79
   3   7   2   12.11    1.10
   3   7   2    9.99    1.07
   3   7   2   11.88    1.19
  -4  -7  -2   58.10    2.68
  -4  -7  -2   57.41    2.66
  -4  -7  -2   59.60    2.38
  -4  -7  -2   56.35    2.39
   4   7   2   57.96    2.80
   4   7   2   49.83    2.81
  -5  -7  -2    7.43    0.84
  -5  -7  -2    7.41    0.63
  -5  -7  -2    7.50    0.92
   5   7   2    7.44    0.90
  -6  -7  -2   17.00    1.04
  -6  -7  -2   18.68    1.08
   6   7   2   17.37    1.50
   6   7   2   18.10    2.13
   7   7   2    3.98    1.00
   7   7   2    3.37    1.41
   8   7   2   -1.73    1.39
   8   7   2   -0.18    1.13
   7  -8  -2    1.18    1.31
   7  -8  -2   -0.65    0.96
   6  -8  -2    0.99    0.96
   6  -8  -2    1.47    0.86
   6  -8  -2    0.88    1.09
   5  -8  -2   33.71    2.55
   5  -8  -2   30.60    2.04
   4  -8  -2    7.66    1.18
   4  -8  -2    7.05    0.90
   3  -8  -2   21.62    1.69
   3  -8  -2   20.82    2.05
   3  -8  -2   25.87    1.56
  -3   8   2   21.61    1.46
   2  -8  -2   55.73    2.81
   2  -8  -2   59.54    3.07
   2  -8  -2   57.82    2.80
  -2   8   2   60.16    2.85
  -2   8   2   51.64    3.79
  -2   8   2   56.84    2.85
   1  -8  -2   -0.45    0.54
   1  -8  -2    0.93    0.55
   1  -8  -2    0.05    0.45
  -1   8   2    0.40    0.69
  -1   8   2    0.52    0.51
  -1   8   2    0.21    0.57
  -1   8   2    1.03    0.69
   0  -8  -2   40.26    2.25
   0  -8  -2   44.48    2.19
   0  -8  -2   41.96    2.19
   0   8   2   43.49    2.26
   0   8   2   34.27    2.39
   0   8   2   41.46    2.00
   0   8   2   41.06    2.23
  -1  -8  -2   37.79    1.73
  -1  -8  -2   37.39    2.06
  -1  -8  -2   39.49    2.06
  -1  -8  -2   38.26    2.04
   1   8   2   35.23    2.10
   1   8   2   38.55    2.02
   1   8   2   35.25    2.09
  -2  -8  -2    3.71    0.65
  -2  -8  -2    2.97    0.72
  -2  -8  -2    3.32    0.56
  -2  -8  -2    4.19    0.49
   2   8   2    3.41    0.89
   2   8   2    3.46    0.79
   2   8   2    3.67    0.74
   2   8   2    4.62    0.81
  -3  -8  -2   94.63    3.79
  -3  -8  -2   85.59    3.96
  -3  -8  -2   88.50    3.97
  -3  -8  -2   92.04    3.65
   3   8   2   87.17    4.23
   3   8   2   92.75    4.11
   3   8   2   73.58    3.98
  -4  -8  -2    4.61    0.46
  -4  -8  -2    6.38    0.82
  -4  -8  -2    6.63    0.90
  -4  -8  -2    5.21    0.54
   4   8   2    3.52    0.99
   4   8   2    4.41    0.81
  -5  -8  -2    7.82    0.70
  -5  -8  -2    8.90    1.04
  -5  -8  -2   10.46    1.18
   5   8   2    9.69    1.40
   5   8   2    7.24    1.32
  -6  -8  -2    0.32    0.52
   6   8   2    0.08    1.16
   6   8   2   -0.67    0.83
   7   8   2   16.14    2.21
   7   8   2   17.04    2.08
   8   8   2   11.29    1.74
   8   8   2   14.87    2.38
   6  -9  -2    0.79    1.15
   6  -9  -2    2.35    1.15
   6  -9  -2    1.92    1.12
   5  -9  -2   37.99    2.98
   5  -9  -2   41.13    2.57
   4  -9  -2    0.38    1.14
   4  -9  -2   -0.50    0.90
   3  -9  -2    6.56    1.16
   3  -9  -2    6.54    0.99
  -3   9   2    6.21    1.02
  -3   9   2    5.97    0.97
   2  -9  -2    1.04    0.79
   2  -9  -2    0.64    0.63
  -2   9   2    1.47    0.75
  -2   9   2    1.82    0.86
   1  -9  -2   25.38    1.68
   1  -9  -2   22.75    1.80
  -1   9   2   22.29    1.32
  -1   9   2   24.16    1.86
  -1   9   2   24.77    1.77
   0  -9  -2    0.49    0.61
   0  -9  -2   -0.04    0.52
   0   9   2    0.51    0.88
   0   9   2    0.56    0.62
   0   9   2   -0.25    0.41
   0   9   2   -0.42    0.87
  -1  -9  -2  191.26    8.01
  -1  -9  -2  184.00    7.68
  -1  -9  -2  192.12    8.00
   1   9   2  188.43    7.94
   1   9   2  185.21    8.08
  -2  -9  -2    8.68    0.74
  -2  -9  -2   10.18    1.16
  -2  -9  -2   11.31    1.08
   2   9   2    7.90    1.09
   2   9   2   11.13    1.24
  -3  -9  -2   26.22    1.74
  -3  -9  -2   23.85    1.29
  -3  -9  -2   27.80    1.46
   3   9   2   26.36    1.98
   3   9   2   24.59    1.86
  -4  -9  -2   25.29    1.28
  -4  -9  -2   25.61    1.73
  -4  -9  -2   25.81    1.27
   4   9   2   24.40    1.92
   4   9   2   22.95    2.23
  -5  -9  -2   16.53    1.04
  -5  -9  -2   16.89    1.47
   5   9   2   17.93    2.18
   5   9   2   19.85    1.84
  -6  -9  -2   19.85    1.60
   6   9   2   20.76    2.15
   6   9   2   26.71    2.70
   7   9   2   -0.84    1.50
   7   9   2    0.32    1.24
   5 -10  -2    6.41    1.45
   5 -10  -2    3.56    1.30
   4 -10  -2    6.64    1.50
   4 -10  -2    8.07    1.28
   3 -10  -2   31.68    2.54
   3 -10  -2   31.54    2.16
  -3  10   2   29.34    2.13
   2 -10  -2    2.12    0.81
   2 -10  -2    0.82    0.86
  -2  10   2    0.04    1.12
  -2  10   2    1.87    0.92
   1 -10  -2    2.28    0.94
   1 -10  -2    3.26    0.85
  -1  10   2    1.41    0.88
   0 -10  -2   23.10    1.75
   0  10   2   19.78    1.82
   0  10   2   24.52    1.43
  -1 -10  -2   28.24    1.92
  -1 -10  -2   28.44    1.95
   1  10   2   25.72    1.77
   1  10   2   28.31    2.11
  -2 -10  -2    2.22    0.83
  -2 -10  -2    2.20    0.69
   2  10   2    2.67    0.89
   2  10   2    0.72    0.91
  -3 -10  -2   41.08    2.39
  -3 -10  -2   40.61    2.08
   3  10   2   34.56    2.55
   3  10   2   40.68    2.64
  -4 -10  -2    7.23    1.10
  -4 -10  -2    8.38    0.78
   4  10   2    6.19    1.21
   4  10   2    7.08    1.37
  -5 -10  -2    0.01    0.91
   5  10   2    0.31    1.25
   5  10   2   -0.88    1.07
  -6 -10  -2    1.87    1.11
   6  10   2    3.31    1.38
   6  10   2    3.71    1.59
   4 -11  -2    1.64    1.40
   4 -11  -2    3.10    1.36
   3 -11  -2   24.45    2.41
   3 -11  -2   21.43    2.28
  -3  11   2   20.59    2.21
   2 -11  -2    1.99    1.11
   2 -11  -2    2.65    1.05
  -2  11   2    3.61    1.27
   1 -11  -2    3.34    1.09
   1 -11  -2    3.90    1.05
  -1  11   2    3.26    1.18
   0 -11  -2   11.39    1.70
   0 -11  -2   13.33    1.52
   0  11   2   12.24    1.58
   0  11   2   12.57    1.24
  -1 -11  -2    0.38    0.75
  -1 -11  -2   -0.26    0.93
   1  11   2   -0.17    1.10
   1  11   2    1.15    0.83
  -2 -11  -2   67.84    3.40
  -2 -11  -2   67.47    3.52
   2  11   2   60.47    3.73
   2  11   2   62.88    3.47
  -3 -11  -2    1.90    1.00
  -3 -11  -2    0.66    0.65
   3  11   2    1.64    1.24
   3  11   2    3.97    1.26
  -4 -11  -2    1.11    1.00
  -4 -11  -2    0.16    0.51
   4  11   2   -0.98    1.18
   4  11   2    2.32    1.46
  -5 -11  -2    1.34    1.22
   5  11   2    0.12    1.31
   5  11   2    3.79    1.68
   3 -12  -2    0.06    1.35
   2 -12  -2    9.91    1.62
   2 -12  -2    7.22    1.48
  -2  12   2   13.65    2.04
   1 -12  -2   13.70    2.12
   1 -12  -2   16.62    2.12
  -1  12   2   11.06    1.89
   0 -12  -2   13.50    1.63
   0 -12  -2   13.64    2.01
   0  12   2   10.49    1.79
  -1 -12  -2    1.12    1.06
  -1 -12  -2    1.62    1.08
   1  12   2    2.47    1.03
   1  12   2   -1.26    1.23
  -2 -12  -2    1.18    1.08
  -2 -12  -2    2.24    1.11
   2  12   2    1.46    1.53
  -3 -12  -2    6.24    1.40
  -3 -12  -2    7.97    1.08
   3  12   2    7.73    1.75
   3  12   2    8.60    1.66
  -4 -12  -2    2.78    1.25
   4  12   2    4.04    1.87
   4  12   2    4.58    1.61
  -1 -13  -2    2.75    1.45
   3  11  -3    4.86    1.66
  -3 -11   3    6.79    1.58
   2  11  -3    1.48    1.43
  -2 -11   3   -2.19    1.24
  -2 -11   3    2.88    1.37
   1  11  -3    8.90    1.68
  -1 -11   3    7.81    1.55
  -1 -11   3   10.47    1.82
   0  11  -3    7.93    1.63
   0 -11   3    8.72    1.51
   0 -11   3    8.91    1.77
  -1  11  -3    6.93    1.74
   1 -11   3    6.41    1.67
   1 -11   3    5.66    1.44
  -2  11  -3   -1.02    1.51
   2 -11   3    1.44    1.44
   2 -11   3    0.52    1.24
   4  10  -3    3.47    1.28
  -4 -10   3    5.44    1.34
   3  10  -3   -0.33    1.10
  -3 -10   3    0.57    1.14
  -3 -10   3    0.08    0.88
   2  10  -3    1.82    1.11
  -2 -10   3    1.19    1.08
  -2 -10   3    2.21    1.12
   1  10  -3   -0.56    1.02
  -1 -10   3    0.13    1.01
  -1 -10   3    1.56    0.99
   0  10  -3    2.03    1.09
   0 -10   3    0.88    1.11
   0 -10   3    1.63    1.05
  -1  10  -3   -0.72    1.06
   1 -10   3   -1.37    0.95
   1 -10   3   -0.02    1.04
   2 -10   3    2.47    1.25
   2 -10   3    4.81    1.15
   3 -10   3    0.66    1.24
   3 -10   3   -0.49    1.16
   4 -10   3    3.84    1.74
   4 -10   3    1.42    1.42
   6   9  -3   -0.81    1.39
  -6  -9   3    0.13    1.36
   5   9  -3    0.32    1.09
  -5  -9   3    1.97    1.24
   4   9  -3    8.41    1.28
  -4  -9   3    9.74    1.40
   3   9  -3    0.24    0.90
  -3  -9   3   -0.17    0.69
  -3  -9   3    0.64    0.91
   2   9  -3    3.75    1.02
  -2  -9   3    4.93    1.06
  -2  -9   3    4.27    0.94
   1   9  -3   13.54    1.43
   1   9  -3   12.91    1.60
  -1  -9   3   12.23    1.66
  -1  -9   3   11.32    1.66
   0   9  -3   17.99    1.68
   0   9  -3   17.94    1.56
   0  -9   3   18.13    1.76
   0  -9   3   14.71    1.83
  -1   9  -3    0.72    0.92
   1  -9   3    0.60    0.89
   1  -9   3    2.12    0.84
  -2   9  -3    9.66    1.45
  -2   9  -3   11.96    1.52
   2  -9   3    9.88    1.36
   2  -9   3   10.02    1.70
   3  -9   3    2.69    1.08
   3  -9   3    3.05    1.23
   4  -9   3   31.22    2.96
   4  -9   3   33.45    2.60
   5  -9   3    5.51    1.79
   5  -9   3    5.49    1.54
   6   8  -3    5.06    1.23
  -6  -8   3    5.77    1.24
   5   8  -3    2.55    0.98
  -5  -8   3    2.51    0.99
   4   8  -3   36.66    2.33
  -4  -8   3   34.65    2.26
  -4  -8   3   32.02    1.67
   3   8  -3   28.86    1.94
  -3  -8   3   23.64    1.63
  -3  -8   3   27.55    1.92
   2   8  -3   10.39    1.22
  -2  -8   3   10.27    1.22
  -2  -8   3    8.88    1.22
   1   8  -3   75.89    3.64
   1   8  -3   82.36    4.05
  -1  -8   3   76.07    3.75
  -1  -8   3   70.89    3.77
   0   8  -3    8.48    1.00
   0   8  -3    7.56    1.01
   0  -8   3    9.17    1.27
  -1   8  -3    4.08    0.69
  -1   8  -3    4.82    0.84
  -1   8  -3    3.72    1.15
   1  -8   3    3.44    1.03
   1  -8   3    2.71    0.83
  -2   8  -3  104.53    4.57
  -2   8  -3  101.62    4.73
   2  -8   3  105.80    4.81
   2  -8   3   93.49    5.05
  -3   8  -3   14.61    1.23
  -3   8  -3   14.93    1.53
   3  -8   3   12.53    1.96
   3  -8   3   16.85    1.82
   4  -8   3    0.01    1.03
   5  -8   3   13.52    1.98
   5  -8   3   16.73    1.92
   6  -8   3    0.38    1.20
   7   7  -3    1.02    0.58
   7   7  -3    0.73    1.13
   6   7  -3   22.71    1.38
   6   7  -3   22.15    1.98
  -6  -7   3   23.40    1.78
   5   7  -3    8.23    0.81
   5   7  -3    9.09    1.14
  -5  -7   3   10.21    1.34
   4   7  -3    2.19    0.73
  -4  -7   3    1.80    0.40
  -4  -7   3    1.85    0.74
   3   7  -3   42.94    2.39
  -3  -7   3   38.55    2.09
  -3  -7   3   43.41    2.35
   2   7  -3   31.68    1.88
  -2  -7   3   30.68    1.50
  -2  -7   3   31.94    1.90
  -2  -7   3   28.05    1.80
   1   7  -3    9.71    1.08
   1   7  -3    8.80    1.27
   1   7  -3    8.74    1.17
  -1  -7   3   10.72    1.14
  -1  -7   3   10.52    0.74
  -1  -7   3    8.13    1.16
  -1  -7   3    9.17    1.17
   0   7  -3    5.32    0.81
   0   7  -3    6.93    0.81
   0   7  -3    6.12    1.04
   0  -7   3    5.17    0.94
   0  -7   3    4.13    0.72
   0  -7   3    5.08    0.83
   0  -7   3    6.76    0.64
  -1   7  -3   25.33    1.40
  -1   7  -3   27.43    1.61
  -1   7  -3   26.46    1.87
   1  -7   3   25.67    1.65
   1  -7   3   25.20    1.64
   1  -7   3   22.22    1.90
  -2   7  -3  141.57    6.06
  -2   7  -3  141.06    5.80
  -2   7  -3  145.98    6.20
   2  -7   3  132.67    6.54
   2  -7   3  149.01    6.19
   2  -7   3  144.43    6.14
  -3   7  -3    1.07    0.51
  -3   7  -3    0.38    0.66
   3  -7   3    1.16    0.85
   3  -7   3    1.06    0.60
   3  -7   3    0.24    0.70
   4  -7   3   19.95    1.93
   4  -7   3   22.36    1.63
   4  -7   3   19.46    2.22
   5  -7   3   18.20    1.62
   5  -7   3   14.78    2.29
   6  -7   3    6.15    1.59
   6  -7   3    9.18    1.21
   7  -7   3   14.93    2.35
   8   6  -3    8.21    1.53
   8   6  -3    9.38    0.95
   7   6  -3    7.82    1.36
   7   6  -3    9.51    1.01
   6   6  -3    1.68    0.89
   6   6  -3    1.84    0.44
  -6  -6   3    1.14    0.67
   5   6  -3   10.49    0.83
  -5  -6   3   10.83    1.23
  -5  -6   3   12.47    1.16
   4   6  -3    4.49    0.72
   4   6  -3    5.34    0.58
  -4  -6   3    4.48    0.77
  -4  -6   3    5.80    0.79
  -4  -6   3    5.12    0.63
   3   6  -3   81.38    4.01
   3   6  -3   81.69    3.73
  -3  -6   3   83.83    3.44
  -3  -6   3   74.45    3.55
  -3  -6   3   88.19    3.78
  -3  -6   3   79.51    3.62
   2   6  -3    2.38    0.55
   2   6  -3    2.11    0.75
  -2  -6   3    4.00    0.42
  -2  -6   3    2.70    0.59
  -2  -6   3    2.74    0.65
  -2  -6   3    2.09    0.53
   1   6  -3   -0.20    0.46
   1   6  -3    0.14    0.44
   1   6  -3   -0.13    0.64
  -1  -6   3   -0.70    0.41
  -1  -6   3    0.00    0.49
  -1  -6   3    0.10    0.22
  -1  -6   3   -0.57    0.40
   0   6  -3   47.64    2.20
   0   6  -3   45.91    2.24
   0   6  -3   45.75    2.42
   0  -6   3   43.91    2.21
   0  -6   3   39.57    2.41
   0  -6   3   45.03    2.00
   0  -6   3   45.54    2.29
  -1   6  -3  104.02    4.47
  -1   6  -3  102.30    4.34
  -1   6  -3  110.63    4.64
   1  -6   3  105.81    4.48
   1  -6   3  106.10    4.56
   1  -6   3  103.24    4.30
   1  -6   3   88.82    4.76
  -2   6  -3   86.22    3.51
  -2   6  -3   85.36    3.69
  -2   6  -3   85.93    3.81
   2  -6   3   81.31    3.57
   2  -6   3   82.72    3.80
   2  -6   3   86.75    3.75
   2  -6   3   78.44    4.15
  -3   6  -3   89.40    3.68
  -3   6  -3   86.87    3.73
   3  -6   3   88.66    3.89
   3  -6   3   86.54    3.83
   3  -6   3   77.30    4.33
   4  -6   3   50.74    2.46
   4  -6   3   47.18    4.09
   4  -6   3   46.98    2.41
   5  -6   3    6.24    1.33
   5  -6   3    6.79    0.89
   5  -6   3    5.63    0.86
   6  -6   3    1.14    0.76
   6  -6   3    0.91    1.16
   7  -6   3   21.95    2.90
   8   5  -3    0.21    1.12
   8   5  -3   -0.35    0.55
   7   5  -3    2.25    0.48
   7   5  -3    1.13    0.91
   6   5  -3   36.13    1.69
   6   5  -3   35.31    2.06
  -6  -5   3   32.65    1.77
  -6  -5   3   34.83    1.71
   5   5  -3   17.25    1.33
   5   5  -3   15.55    0.94
  -5  -5   3   14.70    1.06
  -5  -5   3   16.14    1.22
  -5  -5   3   17.02    1.16
   4   5  -3    1.56    0.33
   4   5  -3    2.44    0.82
   4   5  -3    1.84    0.52
  -4  -5   3    2.18    0.39
  -4  -5   3    1.64    0.57
  -4  -5   3    1.91    0.51
   3   5  -3   23.20    1.10
   3   5  -3   20.02    1.34
   3   5  -3   22.23    1.62
  -3  -5   3   21.12    1.27
  -3  -5   3   22.32    1.06
  -3  -5   3   18.42    1.15
  -3  -5   3   19.52    1.35
   2   5  -3   28.68    1.51
   2   5  -3   26.33    1.30
   2   5  -3   27.43    1.71
  -2  -5   3   27.02    1.26
  -2  -5   3   25.77    1.49
  -2  -5   3   28.11    1.56
   1   5  -3    6.45    0.70
   1   5  -3    7.06    0.86
  -1  -5   3    7.01    0.78
  -1  -5   3    6.50    0.49
  -1  -5   3    6.10    0.80
  -1  -5   3    6.28    0.74
   0   5  -3    1.88    0.42
   0   5  -3    1.78    0.61
   0   5  -3    1.62    0.44
   0  -5   3    1.78    0.28
   0  -5   3    1.45    0.47
   0  -5   3    1.02    0.48
   0  -5   3    1.45    0.42
  -1   5  -3    1.66    0.37
  -1   5  -3    2.05    0.43
  -1   5  -3    1.23    0.55
   1  -5   3    2.35    0.49
   1  -5   3    1.43    0.55
   1  -5   3    1.06    0.41
   1  -5   3    2.65    0.34
  -2   5  -3   74.69    3.19
  -2   5  -3   72.73    3.08
  -2   5  -3   71.98    2.97
   2  -5   3   71.58    3.13
   2  -5   3   59.77    3.47
   2  -5   3   70.34    3.17
  -3   5  -3    5.40    0.59
  -3   5  -3    4.70    0.53
   3  -5   3    5.94    0.68
   3  -5   3    5.97    0.69
   3  -5   3    5.62    1.03
   4  -5   3   14.45    1.68
   4  -5   3   16.85    1.14
   4  -5   3   17.88    1.17
   5  -5   3    4.26    0.69
   5  -5   3    5.53    1.25
   5  -5   3    4.57    0.65
   6  -5   3   40.35    2.00
   6  -5   3   34.98    1.96
   6  -5   3   36.79    2.91
   7  -5   3   -0.38    0.63
   7  -5   3    1.10    1.29
   7  -5   3    1.57    0.77
   8  -5   3    3.94    1.07
   8  -5   3    5.03    1.83
   8   4  -3    4.94    0.63
   8   4  -3    4.42    1.12
   7   4  -3    0.49    0.70
   7   4  -3   -0.16    0.35
   6   4  -3    9.34    0.68
   6   4  -3   10.04    1.12
  -6  -4   3    8.75    0.72
  -6  -4   3    8.98    0.68
  -6  -4   3    9.35    1.08
   5   4  -3    7.51    1.09
   5   4  -3    5.91    0.75
   5   4  -3    5.57    0.54
  -5  -4   3    6.77    0.68
  -5  -4   3    5.62    0.76
  -5  -4   3    5.11    0.59
   4   4  -3   35.82    2.12
   4   4  -3   35.62    1.87
   4   4  -3   36.09    1.63
  -4  -4   3   35.58    1.73
  -4  -4   3   36.53    1.67
  -4  -4   3   37.47    1.85
   3   4  -3    4.03    0.56
   3   4  -3    4.65    0.78
   3   4  -3    3.24    0.38
  -3  -4   3    4.02    0.51
  -3  -4   3    3.48    0.66
  -3  -4   3    4.49    0.59
  -3  -4   3    3.75    0.42
   2   4  -3   30.35    1.38
   2   4  -3   31.61    1.56
   2   4  -3   31.84    1.75
  -2  -4   3   31.47    1.36
  -2  -4   3   31.18    1.52
  -2  -4   3   25.62    1.50
  -2  -4   3   30.89    1.59
   1   4  -3   67.07    3.04
   1   4  -3   61.55    2.74
   1   4  -3   65.64    2.89
  -1  -4   3   66.30    2.94
  -1  -4   3   66.28    2.87
  -1  -4   3   65.65    2.72
   0   4  -3    7.56    0.61
   0   4  -3    7.77    0.68
   0   4  -3    6.65    0.83
   0  -4   3    7.24    0.47
   0  -4   3    6.97    0.70
   0  -4   3    7.00    0.66
  -1   4  -3  105.74    4.44
  -1   4  -3  104.44    4.29
  -1   4  -3  101.58    4.32
   1  -4   3  101.94    4.41
   1  -4   3  100.72    4.23
   1  -4   3  104.40    4.34
  -2   4  -3   21.87    1.25
  -2   4  -3   23.37    1.17
  -2   4  -3   23.64    1.13
   2  -4   3   21.68    1.56
   2  -4   3   23.04    1.26
   2  -4   3   23.74    1.23
  -3   4  -3  181.45    7.24
   3  -4   3  177.57    7.21
   3  -4   3  187.07    7.40
   3  -4   3  164.19    7.79
   3  -4   3  185.77    7.33
   4  -4   3  159.33    6.29
   4  -4   3  142.87    6.18
   4  -4   3  158.73    6.23
   4  -4   3  143.81    6.83
   5  -4   3  213.07    8.23
   5  -4   3  197.25    8.16
   5  -4   3  194.60    8.90
   5  -4   3  197.41    8.10
   6  -4   3   16.21    1.00
   6  -4   3   14.83    1.94
   6  -4   3   17.73    1.11
   6  -4   3   15.90    1.08
   7  -4   3    8.22    0.93
   7  -4   3    7.24    1.46
   7  -4   3    6.57    0.87
   7  -4   3    8.09    0.87
   8  -4   3   12.11    2.03
   8  -4   3   14.76    1.52
   9   3  -3    1.03    0.56
   8   3  -3    6.37    0.66
   8   3  -3    6.09    1.12
   7   3  -3    3.17    0.44
   7   3  -3    3.99    0.76
   6   3  -3   35.01    1.66
   6   3  -3   37.13    1.93
   6   3  -3   37.21    2.41
  -6  -3   3   35.42    1.92
   5   3  -3   15.46    0.83
   5   3  -3   14.90    1.05
   5   3  -3   17.41    1.51
  -5  -3   3   15.25    0.93
  -5  -3   3   14.04    0.99
  -5  -3   3   14.61    0.84
   4   3  -3  183.78    7.63
   4   3  -3  184.09    7.47
   4   3  -3  195.47    7.84
  -4  -3   3  179.43    7.58
  -4  -3   3  185.11    7.52
   3   3  -3   25.09    1.27
   3   3  -3   24.71    1.46
   3   3  -3   22.89    1.10
  -3  -3   3   24.37    1.29
  -3  -3   3   24.98    1.02
  -3  -3   3   22.63    1.12
  -3  -3   3   23.93    1.21
   2   3  -3 1169.49   44.79
   2   3  -3 1111.36   44.65
  -2  -3   3 1098.93   44.68
  -2  -3   3 1125.48   44.61
   1   3  -3  402.51   15.73
   1   3  -3  376.19   15.61
  -1  -3   3  399.94   15.79
   0   3  -3  276.78   11.50
   0   3  -3  296.21   11.62
   0   3  -3  296.08   11.53
   0  -3   3  288.63   11.52
   0  -3   3  290.41   11.58
   0  -3   3  270.18   11.40
  -1   3  -3  293.62   11.40
  -1   3  -3  278.67   11.29
  -1   3  -3  273.87   11.30
   1  -3   3  284.47   11.38
   1  -3   3  277.95   11.31
  -2   3  -3   56.69    2.45
  -2   3  -3   56.44    2.42
  -2   3  -3   56.39    2.40
   2  -3   3   56.36    2.44
  -3   3  -3    0.34    0.25
   3  -3   3    1.16    0.25
   3  -3   3    0.32    0.44
   3  -3   3    0.67    0.26
   4  -3   3   98.71    3.93
   4  -3   3   97.53    3.97
   4  -3   3   86.98    4.50
   5  -3   3    6.94    0.70
   5  -3   3    7.49    0.69
   5  -3   3    7.40    1.14
   5  -3   3    7.36    0.60
   6  -3   3   19.06    1.89
   6  -3   3   17.32    1.15
   6  -3   3   19.62    1.11
   6  -3   3   18.10    1.00
   7  -3   3    1.94    0.57
   7  -3   3    0.88    0.54
   7  -3   3   -0.20    0.36
   7  -3   3    1.38    0.98
   7  -3   3    0.46    0.42
   8  -3   3   19.60    1.50
   8  -3   3   17.49    1.57
   8  -3   3   20.79    2.48
   9  -3   3   15.33    1.63
   9  -3   3   16.28    2.15
   9   2  -3    1.16    0.57
   8   2  -3    0.10    0.39
   8   2  -3   -0.03    0.73
   7   2  -3   24.40    2.23
   7   2  -3   22.80    1.20
   7   2  -3   22.12    1.45
   6   2  -3    7.35    0.61
   6   2  -3   10.42    1.20
   6   2  -3    7.27    0.82
  -6  -2   3    7.90    0.97
   5   2  -3   79.73    3.56
   5   2  -3   71.83    3.25
   5   2  -3   77.14    3.15
  -5  -2   3   76.16    3.28
  -5  -2   3   73.44    3.11
  -5  -2   3   72.01    3.06
   4   2  -3    7.85    0.62
   4   2  -3   10.15    0.99
   4   2  -3    6.57    0.47
  -4  -2   3    7.19    0.60
  -4  -2   3    7.69    0.52
  -4  -2   3    7.98    0.60
   3   2  -3   52.63    2.35
   3   2  -3   46.65    2.04
   3   2  -3   48.85    2.16
  -3  -2   3   48.80    2.09
  -3  -2   3   49.52    1.99
  -3  -2   3   46.74    2.08
  -3  -2   3   46.65    2.16
   2   2  -3   61.97    2.60
   2   2  -3   66.41    2.86
   2   2  -3   60.89    2.71
  -2  -2   3   65.07    2.68
  -2  -2   3   62.20    2.76
  -2  -2   3   63.26    2.61
   1   2  -3   33.59    1.65
   1   2  -3   33.22    1.60
   1   2  -3   33.11    1.43
  -1  -2   3   31.13    1.58
  -1  -2   3   35.14    1.43
  -1  -2   3   34.94    1.52
   0   2  -3   67.19    2.85
   0   2  -3   63.80    2.74
   0   2  -3   62.88    2.66
   0   2  -3   71.35    2.79
   0  -2   3   63.52    2.65
   0  -2   3   64.00    2.73
   0  -2   3   61.41    2.81
  -1   2  -3   42.89    1.90
  -1   2  -3   42.61    1.81
  -1   2  -3   42.95    1.84
   1  -2   3   39.58    1.75
   1  -2   3   39.98    1.83
   1  -2   3   42.39    1.90
   1  -2   3   42.78    1.82
  -2   2  -3  126.15    5.09
  -2   2  -3  127.19    5.00
  -2   2  -3  127.09    5.03
   2  -2   3  125.18    5.11
   2  -2   3  114.14    5.14
   2  -2   3  124.97    5.04
  -3   2  -3  190.51    7.77
   3  -2   3  191.07    7.67
   3  -2   3  192.26    7.75
   4  -2   3   37.59    1.54
   4  -2   3   32.32    2.04
   4  -2   3   35.77    1.69
   4  -2   3   35.90    1.60
   5  -2   3   68.64    2.92
   5  -2   3   71.48    3.12
   5  -2   3   72.47    2.88
   5  -2   3   67.15    3.54
   6  -2   3   20.16    1.32
   6  -2   3   21.15    1.24
   6  -2   3   19.33    1.74
   7  -2   3    2.56    0.71
   7  -2   3    3.00    0.98
   7  -2   3    2.43    0.52
   8  -2   3    1.68    1.11
   8  -2   3    1.98    0.58
   8  -2   3    1.00    0.85
   9  -2   3    0.43    0.68
   9  -2   3    1.18    1.30
   9   1  -3    3.16    0.66
   8   1  -3    1.70    0.47
   8   1  -3    2.30    0.67
   7   1  -3    6.61    0.64
   7   1  -3    8.05    1.36
   7   1  -3    7.30    0.78
   6   1  -3  220.69    9.12
   6   1  -3  243.04    9.44
   6   1  -3  221.71    9.06
  -6  -1   3  212.00    9.24
   5   1  -3   10.56    0.67
   5   1  -3   12.74    1.15
   5   1  -3   12.12    0.76
  -5  -1   3   11.49    0.92
   4   1  -3  135.26    5.38
   4   1  -3  132.61    5.43
   4   1  -3  140.62    5.66
  -4  -1   3  115.38    5.36
  -4  -1   3  134.51    5.37
  -4  -1   3  134.63    5.33
  -4  -1   3  134.60    5.47
   3   1  -3  207.80    8.59
   3   1  -3  226.59    8.75
   3   1  -3  209.35    8.54
  -3  -1   3  204.53    8.52
  -3  -1   3  212.44    8.54
  -3  -1   3  212.51    8.61
  -3  -1   3  221.30    8.59
   2   1  -3   41.55    1.75
   2   1  -3   41.14    1.82
   2   1  -3   42.46    1.96
  -2  -1   3   40.98    1.77
  -2  -1   3   41.08    1.78
  -2  -1   3   43.39    1.73
  -2  -1   3   41.32    1.87
   1   1  -3   17.98    0.94
   1   1  -3   20.16    1.03
   1   1  -3   20.74    1.09
   1   1  -3   20.78    0.87
  -1  -1   3   18.75    0.93
  -1  -1   3   20.48    0.87
  -1  -1   3   20.05    1.03
   0   1  -3 9999.00  388.60
   0  -1   3 9479.70  388.07
  -1   1  -3  145.70    5.55
  -1   1  -3  143.27    5.55
  -1   1  -3  117.41    5.50
   1  -1   3  143.80    5.49
   1  -1   3  130.12    5.43
  -2   1  -3  124.22    5.07
  -2   1  -3  106.26    4.90
  -2   1  -3  127.49    4.90
   2  -1   3  128.47    4.97
   2  -1   3  128.54    5.06
   2  -1   3  125.28    5.03
  -3   1  -3  389.41   15.24
   3  -1   3  378.32   15.22
   3  -1   3  374.51   15.10
   3  -1   3  377.81   15.06
   4  -1   3  117.03    4.80
   4  -1   3  120.14    4.77
   4  -1   3  121.37    5.03
   5  -1   3    1.67    0.54
   5  -1   3    0.63    0.35
   5  -1   3    0.53    0.25
   6  -1   3  127.41    5.87
   6  -1   3  126.92    5.63
   6  -1   3  135.07    5.43
   7  -1   3    0.56    0.35
   7  -1   3    0.29    0.61
   7  -1   3    0.96    0.76
   8  -1   3    5.67    1.18
   8  -1   3    4.73    1.08
   8  -1   3    5.30    0.64
   9  -1   3   -1.85    1.15
   9  -1   3    1.30    0.58
   9  -1   3    0.47    1.07
   9   0  -3   -0.51    0.52
   8   0  -3    0.11    0.39
   8   0  -3    1.02    0.55
   7   0  -3   67.60    2.99
   7   0  -3   69.94    3.49
   7   0  -3   68.74    2.81
   7   0  -3   65.11    2.95
   6   0  -3  123.02    5.19
   6   0  -3  126.64    5.09
   6   0  -3  124.85    5.20
   6   0  -3  127.54    5.48
   5   0  -3    3.60    0.35
   5   0  -3    5.01    0.74
   5   0  -3    4.08    0.46
   5   0  -3    3.66    0.43
  -5   0   3    2.73    0.46
  -5   0   3    3.66    0.55
   4   0  -3    9.89    0.58
   4   0  -3    9.16    0.57
   4   0  -3    9.49    0.51
   4   0  -3    8.85    0.84
  -4   0   3    9.07    0.67
  -4   0   3    8.75    0.49
  -4   0   3    9.74    0.73
  -4   0   3    8.49    0.45
   3   0  -3  663.50   24.94
   3   0  -3  620.40   24.79
   3   0  -3  607.75   24.78
  -3   0   3  628.19   24.75
  -3   0   3  634.70   24.80
  -3   0   3  597.81   24.82
   2   0  -3  330.43   13.22
   2   0  -3  324.73   13.08
   2   0  -3  326.48   13.10
   2   0  -3  345.15   13.23
  -2   0   3  327.79   13.08
  -2   0   3  322.44   13.09
  -2   0   3  332.90   13.17
  -2   0   3  323.69   13.11
   1   0  -3 1032.33   44.17
  -1   0   3  985.17   43.89
   0   0  -3  252.45    9.59
   0   0  -3  232.51    9.44
   0   0   3  229.25    9.44
   0   0   3  238.91    9.48
  -1   0  -3    4.78    0.38
  -1   0  -3    5.40    0.32
  -1   0  -3    4.49    0.25
  -1   0  -3    4.82    0.41
   1   0   3    4.41    0.24
   1   0   3    5.16    0.30
   1   0   3    3.93    0.39
  -2   0  -3    1.51    0.31
   2   0   3    1.78    0.30
   2   0   3    1.87    0.25
   3   0   3   23.15    1.23
   3   0   3   23.79    1.03
   3   0   3   24.28    1.00
   4   0   3    7.39    0.50
   4   0   3    8.50    0.72
   5   0   3   89.70    4.07
   5   0   3   92.96    3.80
   6   0   3   89.66    4.01
   6   0   3   77.90    4.00
   6   0   3   90.82    3.63
   7   0   3    0.32    0.28
   7   0   3   -0.93    0.52
   7   0   3   -0.92    0.60
   8   0   3   11.98    0.86
   8   0   3   11.06    1.30
   8   0   3    9.40    1.36
   9   0   3    1.01    0.44
   9   0   3   -0.81    1.24
   9  -1  -3   19.88    1.38
   8  -1  -3    7.11    0.76
   8  -1  -3    6.76    0.85
   8  -1  -3    5.27    0.64
   7  -1  -3    1.73    0.42
   7  -1  -3    1.33    0.90
   7  -1  -3    2.49    0.38
   7  -1  -3    1.58    0.40
   6  -1  -3   95.17    4.27
   6  -1  -3   97.69    4.08
   6  -1  -3   97.40    4.04
   6  -1  -3   93.69    3.99
   5  -1  -3    7.76    0.63
   5  -1  -3    7.77    0.54
   5  -1  -3    8.91    0.61
   5  -1  -3    8.50    1.04
  -5   1   3    6.17    0.83
   4  -1  -3   62.66    2.55
   4  -1  -3   63.02    2.60
   4  -1  -3   62.51    2.61
   4  -1  -3   63.55    2.73
  -4   1   3   52.63    2.70
  -4   1   3   58.97    2.71
   3  -1  -3   51.09    2.31
   3  -1  -3   55.86    2.32
   3  -1  -3   54.81    2.27
   3  -1  -3   56.30    2.43
  -3   1   3   49.46    2.46
  -3   1   3   53.63    2.41
  -3   1   3   56.76    2.29
  -3   1   3   55.69    2.24
   2  -1  -3  260.21   10.17
   2  -1  -3  264.46   10.19
   2  -1  -3  247.30   10.08
   2  -1  -3  246.81   10.06
   2  -1  -3  254.05   10.08
  -2   1   3  244.55   10.11
  -2   1   3  246.45   10.12
  -2   1   3  257.64   10.13
  -2   1   3  249.76   10.05
   1  -1  -3   11.11    0.67
   1  -1  -3    9.74    0.61
  -1   1   3   11.44    0.56
  -1   1   3   10.75    0.63
  -1   1   3   10.07    0.69
  -1   1   3   10.92    0.54
   0  -1  -3  169.59    7.79
   0  -1  -3  183.52    7.79
   0  -1  -3  205.97    7.87
   0  -1  -3  202.39    7.85
   0  -1  -3  200.29    7.73
   0   1   3  203.39    7.78
   0   1   3  182.47    7.91
   0   1   3  194.39    7.74
   0   1   3  199.24    7.86
   0   1   3  207.18    7.77
  -2  -1  -3  736.53   28.52
   2   1   3  697.58   28.50
   3   1   3   47.04    2.18
   3   1   3   45.04    1.92
   3   1   3   46.75    1.95
   3   1   3   48.46    1.91
   4   1   3  249.94   10.10
   4   1   3  249.45   10.12
   4   1   3  252.53   10.08
   4   1   3  265.09   10.46
   5   1   3  105.49    4.31
   5   1   3  103.83    4.27
   5   1   3  105.44    4.26
   5   1   3  109.86    4.72
   6   1   3   26.43    1.69
   6   1   3   29.53    1.32
   6   1   3   26.84    1.86
   6   1   3   29.73    1.30
   6   1   3   31.01    1.30
   7   1   3    8.93    0.59
   7   1   3   10.08    1.36
   7   1   3    8.24    1.03
   7   1   3    8.71    0.71
   7   1   3    8.95    0.68
   8   1   3   73.50    3.52
   8   1   3   77.39    4.01
   8   1   3   76.00    3.16
   8   1   3   73.21    3.15
   9   1   3    0.61    0.37
   9   1   3    0.61    1.33
   9  -2  -3    5.03    0.78
   8  -2  -3    3.66    0.64
   8  -2  -3    3.71    0.65
   8  -2  -3    3.89    0.57
   7  -2  -3    1.78    0.93
   7  -2  -3    0.41    0.88
   7  -2  -3    1.90    0.47
   7  -2  -3    2.19    0.65
   7  -2  -3    1.54    0.37
   6  -2  -3   42.77    2.01
   6  -2  -3   39.74    2.17
   6  -2  -3   41.02    1.83
   6  -2  -3   40.02    1.97
   5  -2  -3  621.08   24.45
   5  -2  -3  590.44   24.24
   5  -2  -3  613.75   24.38
   5  -2  -3  619.05   24.42
   4  -2  -3   96.91    3.95
   4  -2  -3   92.02    3.90
   4  -2  -3   97.14    3.98
   4  -2  -3   92.54    3.79
   4  -2  -3   96.86    3.97
  -4   2   3   77.91    4.03
   3  -2  -3  754.77   30.66
   3  -2  -3  786.77   30.71
   3  -2  -3  788.47   30.69
   3  -2  -3  786.04   30.72
  -3   2   3  797.50   30.57
  -3   2   3  721.65   30.77
   2  -2  -3  626.62   24.61
   2  -2  -3  658.13   24.67
   2  -2  -3  616.99   24.55
   2  -2  -3  631.63   24.63
  -2   2   3  605.51   24.61
  -2   2   3  596.31   24.68
  -2   2   3  602.54   24.54
   1  -2  -3   62.28    2.57
   1  -2  -3   65.08    2.61
   1  -2  -3   60.99    2.61
   1  -2  -3   62.79    2.68
   1  -2  -3   59.19    2.58
  -1   2   3   60.49    2.66
  -1   2   3   60.80    2.62
  -1   2   3   62.76    2.57
  -1   2   3   64.00    2.65
   0  -2  -3  453.33   17.82
   0  -2  -3  470.73   17.91
   0  -2  -3  463.76   17.88
   0  -2  -3  429.61   17.79
   0   2   3  418.78   17.93
   0   2   3  459.16   17.82
  -1  -2  -3  678.94   26.68
  -1  -2  -3  681.87   26.75
   1   2   3  671.33   26.74
   1   2   3  660.24   26.79
  -2  -2  -3  660.85   26.81
   2   2   3  685.47   26.82
   3   2   3  412.96   16.43
   3   2   3  407.70   16.42
   3   2   3  421.46   16.69
   4   2   3    1.35    0.23
   4   2   3    0.99    0.44
   4   2   3    1.18    0.14
   5   2   3   -0.17    0.45
   5   2   3    0.08    0.12
   5   2   3    0.29    0.22
   6   2   3   69.84    2.87
   6   2   3   70.94    3.44
   6   2   3   59.99    3.05
   6   2   3   66.16    2.85
   6   2   3   69.59    2.76
   7   2   3    1.62    0.36
   7   2   3    1.25    0.50
   7   2   3    1.79    0.25
   7   2   3    1.86    0.77
   7   2   3    1.27    0.49
   8   2   3    2.69    0.56
   8   2   3    3.67    0.53
   8   2   3    5.48    1.26
   8   2   3    3.78    0.38
   9   2   3   -1.25    1.30
   9  -3  -3    2.38    0.77
   8  -3  -3   20.18    1.49
   8  -3  -3   18.23    1.18
   8  -3  -3   21.41    1.49
   7  -3  -3   13.81    1.21
   7  -3  -3   14.92    1.17
   7  -3  -3   14.67    0.92
   7  -3  -3   13.53    1.55
   7  -3  -3   13.96    1.67
   6  -3  -3    3.86    0.85
   6  -3  -3    4.26    0.46
   6  -3  -3    4.98    0.77
   6  -3  -3    5.07    0.65
   6  -3  -3    3.83    0.62
   5  -3  -3    0.92    0.38
   5  -3  -3    0.92    0.29
   5  -3  -3    1.29    0.47
   5  -3  -3    0.51    0.36
   5  -3  -3    0.43    0.60
  -5   3   3    0.71    0.61
   4  -3  -3   75.13    3.32
   4  -3  -3   77.13    3.12
   4  -3  -3   70.51    3.23
   4  -3  -3   77.50    3.29
   4  -3  -3   78.77    3.23
  -4   3   3   65.24    3.43
   3  -3  -3  136.49    5.87
   3  -3  -3  141.29    5.94
   3  -3  -3  147.98    5.82
   3  -3  -3  149.22    5.91
   3  -3  -3  143.90    5.78
  -3   3   3  141.27    5.70
  -3   3   3  129.80    6.03
  -3   3   3  146.17    5.75
   2  -3  -3  563.70   21.65
   2  -3  -3  554.43   21.54
   2  -3  -3  514.83   21.59
   2  -3  -3  550.94   21.54
   2  -3  -3  544.78   21.66
  -2   3   3  541.52   21.52
  -2   3   3  518.05   21.71
  -2   3   3  549.24   21.60
   1  -3  -3  431.67   17.40
   1  -3  -3  454.05   17.49
   1  -3  -3  440.94   17.39
   1  -3  -3  424.16   17.46
  -1   3   3  435.47   17.39
  -1   3   3  441.77   17.48
  -1   3   3  429.25   17.51
  -1   3   3  441.28   17.39
   0   3   3 1239.84   55.15
   0   3   3 1284.62   55.48
  -1  -3  -3   43.75    1.76
  -1  -3  -3   40.02    1.77
  -1  -3  -3   39.24    1.87
  -1  -3  -3   40.41    1.82
   1   3   3   38.69    1.86
   1   3   3   41.90    1.79
   1   3   3   42.72    1.80
  -2  -3  -3  127.77    5.16
  -2  -3  -3  130.13    5.10
  -2  -3  -3  119.95    5.02
  -2  -3  -3  126.69    5.13
   2   3   3  127.80    5.33
   2   3   3  128.13    5.21
   2   3   3  123.62    5.16
   2   3   3  130.44    5.13
  -3  -3  -3  292.86   11.63
  -3  -3  -3  288.93   11.69
  -3  -3  -3  287.83   11.69
   3   3   3  301.89   11.70
   3   3   3  291.07   11.76
   3   3   3  300.56   12.01
   3   3   3  294.30   11.79
   4   3   3   18.96    1.02
   4   3   3   19.85    1.04
   4   3   3   19.83    0.84
   4   3   3   20.25    1.33
   4   3   3   21.28    0.92
   5   3   3   11.87    0.83
   5   3   3   12.74    0.58
   5   3   3   13.42    1.24
   5   3   3   13.64    0.65
   5   3   3   11.70    0.76
   6   3   3   18.36    0.86
   6   3   3   18.10    1.02
   6   3   3   16.48    1.08
   6   3   3   17.77    1.11
   6   3   3   17.02    1.56
   6   3   3   18.70    0.81
   7   3   3   10.99    1.46
   7   3   3   10.56    0.54
   7   3   3    9.64    1.05
   7   3   3    9.14    0.81
   7   3   3    9.61    0.57
   7   3   3    9.54    0.82
   8   3   3   38.80    2.86
   8   3   3   38.18    1.66
   8   3   3   38.25    1.94
   9   3   3   11.75    1.91
   8  -4  -3    1.11    0.68
   8  -4  -3    0.34    0.89
   8  -4  -3    0.36    0.78
   7  -4  -3    1.18    0.60
   7  -4  -3   -1.28    0.99
   7  -4  -3    1.06    0.59
   7  -4  -3   -0.30    0.38
   7  -4  -3    1.09    0.76
   6  -4  -3   62.02    2.70
   6  -4  -3   61.29    2.93
   6  -4  -3   59.94    2.86
   6  -4  -3   61.36    3.06
   6  -4  -3   63.55    3.04
   5  -4  -3    0.55    0.30
   5  -4  -3   -0.31    0.36
   5  -4  -3    0.18    0.61
   5  -4  -3    0.30    0.41
   5  -4  -3    0.73    0.45
  -5   4   3   -0.17    0.62
   4  -4  -3  100.22    4.07
   4  -4  -3  100.83    4.07
   4  -4  -3   92.90    4.20
   4  -4  -3   98.43    4.23
   4  -4  -3  102.03    4.33
  -4   4   3   87.34    4.45
   3  -4  -3   67.78    2.79
   3  -4  -3   61.42    3.04
   3  -4  -3   66.81    2.74
   3  -4  -3   66.13    2.98
  -3   4   3   69.14    2.78
  -3   4   3   64.13    2.70
  -3   4   3   56.76    3.06
   2  -4  -3   61.40    2.83
   2  -4  -3   64.18    2.70
   2  -4  -3   65.29    2.81
   2  -4  -3   62.33    2.63
  -2   4   3   63.35    2.68
  -2   4   3   60.45    2.94
  -2   4   3   62.69    2.76
   1  -4  -3  596.17   23.41
   1  -4  -3  591.86   23.52
   1  -4  -3  579.57   23.45
   1  -4  -3  586.26   23.55
  -1   4   3  565.56   23.60
  -1   4   3  607.41   23.40
  -1   4   3  606.17   23.55
  -1   4   3  584.96   23.45
   0  -4  -3 1015.48   39.22
   0  -4  -3  987.86   39.17
   0   4   3  947.00   39.25
   0   4   3 1010.20   39.25
   0   4   3  982.06   39.17
  -1  -4  -3  200.69    7.91
  -1  -4  -3  198.32    7.94
  -1  -4  -3  195.19    7.89
   1   4   3  198.24    7.93
   1   4   3  190.99    7.95
   1   4   3  189.54    7.98
  -2  -4  -3  825.88   31.99
  -2  -4  -3  818.90   32.01
   2   4   3  811.54   32.03
   2   4   3  771.72   31.99
   2   4   3  803.50   32.06
   2   4   3  809.44   32.18
  -3  -4  -3    2.74    0.20
  -3  -4  -3    3.11    0.38
  -3  -4  -3    2.83    0.37
   3   4   3    3.40    0.44
   3   4   3    3.21    0.37
   3   4   3    2.52    0.51
  -4  -4  -3   10.06    0.58
  -4  -4  -3   10.26    0.52
  -4  -4  -3    9.60    0.58
   4   4   3   10.07    0.60
   4   4   3    9.16    0.80
   4   4   3   10.60    1.05
   4   4   3   10.54    0.74
  -5  -4  -3   20.29    0.97
   5   4   3   18.73    1.21
   5   4   3   20.65    0.89
   5   4   3   19.48    1.15
   5   4   3   19.31    1.58
   5   4   3   20.82    0.96
   6   4   3    5.37    0.63
   6   4   3    5.87    1.06
   6   4   3    5.46    0.37
   6   4   3    4.83    0.70
   7   4   3   16.25    1.86
   7   4   3   15.76    1.16
   7   4   3   15.89    1.38
   7   4   3   18.05    0.81
   8   4   3   -0.13    0.22
   8   4   3   -0.06    0.59
   8   4   3    0.67    1.24
   9   4   3    5.71    1.60
   8  -5  -3   51.43    3.10
   8  -5  -3   52.48    2.81
   7  -5  -3   10.88    1.43
   7  -5  -3   11.71    1.11
   7  -5  -3   12.63    1.33
   7  -5  -3   12.86    1.01
   6  -5  -3   23.13    1.39
   6  -5  -3   22.14    1.68
   6  -5  -3   25.00    1.80
   6  -5  -3   25.25    1.60
   6  -5  -3   23.03    1.31
   5  -5  -3   46.14    2.06
   5  -5  -3   47.21    2.14
   5  -5  -3   43.69    2.45
   5  -5  -3   45.99    2.34
   5  -5  -3   45.95    2.38
   4  -5  -3    5.62    0.60
   4  -5  -3    4.48    0.71
   4  -5  -3    4.29    0.49
   4  -5  -3    5.83    0.72
   4  -5  -3    4.99    0.79
  -4   5   3    5.23    0.94
   3  -5  -3   29.00    1.27
   3  -5  -3   28.94    1.64
   3  -5  -3   28.91    1.42
   3  -5  -3   29.81    1.59
  -3   5   3   23.31    1.77
  -3   5   3   27.15    1.33
  -3   5   3   30.01    1.43
   2  -5  -3   46.52    2.18
   2  -5  -3   46.10    1.93
   2  -5  -3   46.32    2.08
   2  -5  -3   42.87    2.21
  -2   5   3   40.68    2.33
  -2   5   3   46.30    2.06
  -2   5   3   48.67    2.16
   1  -5  -3  397.72   15.74
   1  -5  -3  410.84   15.81
   1  -5  -3  393.37   15.65
   1  -5  -3  378.36   15.84
  -1   5   3  372.09   15.68
  -1   5   3  396.52   15.73
  -1   5   3  383.60   15.94
  -1   5   3  408.70   15.84
   0  -5  -3   90.69    3.75
   0  -5  -3   90.45    3.79
   0  -5  -3   89.45    3.79
   0   5   3   79.26    3.80
   0   5   3   89.18    3.71
  -1  -5  -3  118.85    5.06
  -1  -5  -3  129.90    5.08
  -1  -5  -3  126.68    5.11
   1   5   3  125.45    5.14
   1   5   3  117.20    5.15
   1   5   3  121.16    5.09
   1   5   3  114.35    5.13
  -2  -5  -3   -0.10    0.22
  -2  -5  -3    0.01    0.12
  -2  -5  -3   -0.35    0.27
  -2  -5  -3    0.01    0.14
   2   5   3    0.12    0.26
   2   5   3   -0.13    0.35
   2   5   3    0.10    0.26
   2   5   3   -0.19    0.29
  -3  -5  -3   45.68    2.23
  -3  -5  -3   48.46    2.15
  -3  -5  -3   50.54    2.04
  -3  -5  -3   50.38    1.98
   3   5   3   48.63    2.25
   3   5   3   48.12    2.43
   3   5   3   47.44    2.16
   3   5   3   45.65    2.24
  -4  -5  -3    5.44    0.57
  -4  -5  -3    5.93    0.38
  -4  -5  -3    5.86    0.52
   4   5   3    6.24    0.57
   4   5   3    6.95    0.75
   4   5   3    5.03    0.63
   4   5   3    5.85    0.84
  -5  -5  -3  133.08    5.26
  -5  -5  -3  129.38    5.24
  -5  -5  -3  134.26    5.24
   5   5   3  129.62    5.52
   5   5   3  130.93    5.88
   5   5   3  123.65    5.28
   5   5   3  127.58    5.49
  -6  -5  -3   52.85    2.35
   6   5   3   55.41    2.59
   6   5   3   56.45    2.67
   6   5   3   51.07    3.05
   6   5   3   53.26    2.24
   7   5   3    5.19    0.94
   7   5   3    2.76    0.67
   7   5   3    3.15    0.38
   7   5   3    3.13    1.14
   8   5   3   -0.09    0.24
   8   5   3   -1.43    1.21
   8   5   3    0.34    0.75
   9   5   3    8.96    1.95
   8  -6  -3    8.43    1.14
   8  -6  -3   10.57    1.49
   7  -6  -3   16.85    1.67
   7  -6  -3   19.57    1.38
   7  -6  -3   19.97    1.95
   6  -6  -3    3.39    0.83
   6  -6  -3    5.38    0.70
   6  -6  -3    5.29    1.08
   6  -6  -3    4.68    0.86
   5  -6  -3    7.79    0.90
   5  -6  -3    8.65    1.20
   5  -6  -3    7.96    1.02
   4  -6  -3   16.40    1.07
   4  -6  -3   16.20    1.22
   4  -6  -3   16.26    1.32
   4  -6  -3   17.02    1.38
  -4   6   3   12.70    1.69
   3  -6  -3  100.96    4.48
   3  -6  -3  106.82    4.41
   3  -6  -3  106.44    4.67
  -3   6   3   88.62    4.76
  -3   6   3  107.65    4.39
  -3   6   3  103.54    4.31
   2  -6  -3  267.51   10.67
   2  -6  -3  269.34   10.73
   2  -6  -3  272.87   10.88
  -2   6   3  228.66   10.92
  -2   6   3  271.88   10.74
   1  -6  -3   39.24    1.80
   1  -6  -3   37.31    1.86
   1  -6  -3   39.23    1.93
  -1   6   3   37.21    1.80
  -1   6   3   31.29    1.99
  -1   6   3   33.50    1.86
  -1   6   3   37.42    1.90
   0  -6  -3    2.39    0.49
   0  -6  -3    3.13    0.51
   0  -6  -3    2.92    0.44
   0   6   3    2.58    0.41
   0   6   3    2.99    0.64
   0   6   3    3.87    0.53
   0   6   3    3.26    0.53
  -1  -6  -3    0.69    0.32
  -1  -6  -3    1.68    0.37
  -1  -6  -3    0.72    0.40
   1   6   3    1.01    0.41
   1   6   3    1.06    0.48
   1   6   3    1.01    0.38
  -2  -6  -3   33.92    1.41
  -2  -6  -3   32.12    1.65
  -2  -6  -3   31.77    1.61
  -2  -6  -3   34.08    1.54
   2   6   3   30.16    1.71
   2   6   3   33.00    1.80
   2   6   3   30.96    1.69
   2   6   3   32.54    1.72
  -3  -6  -3   35.13    1.51
  -3  -6  -3   33.91    1.44
  -3  -6  -3   33.07    1.69
  -3  -6  -3   35.55    1.68
   3   6   3   32.34    1.76
   3   6   3   31.38    1.70
   3   6   3   33.19    1.77
   3   6   3   34.72    1.95
  -4  -6  -3  132.34    5.25
  -4  -6  -3  133.03    5.44
  -4  -6  -3  135.67    5.44
   4   6   3  125.69    5.57
   4   6   3  122.13    5.43
   4   6   3  135.16    5.87
   4   6   3  130.61    5.59
  -5  -6  -3    0.11    0.29
  -5  -6  -3    0.00    0.24
  -5  -6  -3    0.17    0.35
   5   6   3   -1.08    0.65
   5   6   3    0.58    0.32
   5   6   3    0.30    0.49
   5   6   3    0.93    0.59
  -6  -6  -3   45.34    1.95
   6   6   3   41.86    2.27
   6   6   3   40.66    2.37
   7   6   3    4.27    0.86
   7   6   3    3.29    1.19
   8   6   3   -0.67    0.98
   8   6   3    0.57    1.36
   7  -7  -3   17.01    2.02
   7  -7  -3   13.99    1.43
   7  -7  -3   14.07    1.52
   6  -7  -3   10.77    1.27
   6  -7  -3   11.41    1.26
   6  -7  -3   12.59    1.74
   5  -7  -3    0.24    0.53
   5  -7  -3   -0.08    0.69
   5  -7  -3    0.09    0.61
   5  -7  -3    0.36    0.77
   4  -7  -3   24.75    1.65
   4  -7  -3   22.00    1.43
   4  -7  -3   22.28    1.72
   3  -7  -3  287.59   12.11
   3  -7  -3  280.56   11.89
   3  -7  -3  292.86   11.85
  -3   7   3  301.74   11.80
  -3   7   3  287.16   11.82
   2  -7  -3   11.64    1.10
   2  -7  -3    9.96    0.89
   2  -7  -3    8.61    0.96
  -2   7   3    7.61    1.16
  -2   7   3    9.35    0.96
  -2   7   3    8.76    1.01
   1  -7  -3   36.78    2.01
   1  -7  -3   38.33    1.95
   1  -7  -3   36.99    1.88
  -1   7   3   36.02    1.98
  -1   7   3   38.99    1.70
  -1   7   3   38.55    1.91
  -1   7   3   32.09    2.16
   0  -7  -3  179.03    7.43
   0  -7  -3  182.01    7.39
   0  -7  -3  181.98    7.36
   0   7   3  174.50    7.44
   0   7   3  174.57    7.36
   0   7   3  159.16    7.53
   0   7   3  183.85    7.28
  -1  -7  -3    1.39    0.49
  -1  -7  -3    1.49    0.45
  -1  -7  -3    1.18    0.37
   1   7   3    1.33    0.54
   1   7   3    1.44    0.56
   1   7   3    0.79    0.42
   1   7   3    0.73    0.52
  -2  -7  -3    2.50    0.52
  -2  -7  -3    2.43    0.42
  -2  -7  -3    2.11    0.29
  -2  -7  -3    2.10    0.52
   2   7   3    1.22    0.55
   2   7   3    1.83    0.56
   2   7   3    2.08    0.60
   2   7   3    2.58    0.61
  -3  -7  -3   98.87    3.84
  -3  -7  -3   88.97    3.99
  -3  -7  -3   93.77    3.73
  -3  -7  -3   93.54    3.99
   3   7   3   76.26    4.14
   3   7   3   93.79    4.28
   3   7   3   94.90    4.14
   3   7   3   88.89    4.09
  -4  -7  -3    4.89    0.42
  -4  -7  -3    5.73    0.69
  -4  -7  -3    5.07    0.71
  -4  -7  -3    5.39    0.44
   4   7   3    6.23    0.81
   4   7   3    3.96    0.64
   4   7   3    7.17    0.92
   4   7   3    2.93    0.77
  -5  -7  -3    8.81    0.85
  -5  -7  -3    7.73    0.95
  -5  -7  -3    9.29    0.63
   5   7   3    7.99    0.80
   5   7   3   10.03    1.29
   5   7   3    9.28    1.31
   5   7   3    9.53    1.11
  -6  -7  -3   28.39    1.45
  -6  -7  -3   28.74    1.45
  -6  -7  -3   29.71    1.39
   6   7   3   30.54    2.41
   6   7   3   28.82    1.91
   7   7   3    1.97    0.90
   7   7   3    4.36    1.33
   8   7   3    5.60    1.28
   8   7   3    4.61    1.73
   7  -8  -3    0.46    1.08
   7  -8  -3    1.36    1.03
   6  -8  -3    3.46    0.87
   6  -8  -3    3.06    0.96
   6  -8  -3    1.49    1.05
   5  -8  -3   40.67    2.56
   5  -8  -3   41.38    2.76
   5  -8  -3   45.43    2.37
   4  -8  -3    1.87    0.69
   4  -8  -3    2.26    0.77
  -4   8   3    2.82    0.55
  -4   8   3    2.38    0.47
   3  -8  -3    1.08    0.56
   3  -8  -3    0.96    0.63
   3  -8  -3    0.01    0.69
  -3   8   3    0.81    0.69
  -3   8   3    1.19    0.61
   2  -8  -3   30.73    1.91
   2  -8  -3   33.54    2.03
   2  -8  -3   34.60    1.84
  -2   8   3   32.78    1.95
  -2   8   3   31.58    1.88
  -2   8   3   27.22    2.56
   1  -8  -3  130.87    5.61
   1  -8  -3  131.69    5.73
   1  -8  -3  138.07    5.59
  -1   8   3  134.90    5.31
  -1   8   3  130.31    5.68
  -1   8   3  125.29    5.56
  -1   8   3  111.11    5.85
   0  -8  -3   54.38    2.60
   0  -8  -3   54.68    2.68
   0  -8  -3   52.24    2.64
   0   8   3   51.02    2.63
   0   8   3   55.14    2.47
   0   8   3   46.75    2.86
   0   8   3   54.84    2.71
  -1  -8  -3    8.03    1.06
  -1  -8  -3    7.66    0.92
  -1  -8  -3    8.31    0.90
   1   8   3    8.16    1.23
   1   8   3    8.34    0.91
   1   8   3    6.58    0.91
   1   8   3    6.22    0.88
  -2  -8  -3    4.00    0.78
  -2  -8  -3    3.71    0.53
  -2  -8  -3    3.71    0.40
  -2  -8  -3    3.48    0.66
   2   8   3    3.73    0.77
   2   8   3    4.16    0.78
   2   8   3    2.96    0.73
   2   8   3    3.95    0.83
  -3  -8  -3   36.17    1.92
  -3  -8  -3   37.25    1.71
  -3  -8  -3   38.02    1.59
  -3  -8  -3   32.69    1.96
   3   8   3   30.95    2.04
   3   8   3   36.76    2.23
   3   8   3   33.44    2.26
   3   8   3   34.14    2.07
  -4  -8  -3   44.93    2.40
  -4  -8  -3   48.04    2.36
  -4  -8  -3   46.84    2.04
  -4  -8  -3   49.04    2.07
   4   8   3   47.07    2.55
   4   8   3   47.31    2.78
  -5  -8  -3    3.97    0.44
  -5  -8  -3    3.65    0.75
  -5  -8  -3    4.62    0.70
   5   8   3    2.33    0.98
  -6  -8  -3   10.97    0.98
   6   8   3    9.78    1.54
   6   8   3   12.30    1.56
   7   8   3    2.17    1.35
   7   8   3    2.14    1.05
   8   8   3    1.67    1.87
   8   8   3    2.21    1.36
   6  -9  -3   -2.19    0.99
   6  -9  -3   -1.47    1.12
   6  -9  -3   -0.38    1.08
   5  -9  -3    5.47    1.31
   5  -9  -3    6.19    1.10
   5  -9  -3    3.47    0.98
   4  -9  -3    1.86    0.89
   4  -9  -3    0.62    0.99
  -4   9   3    2.29    0.60
   3  -9  -3   49.24    2.95
   3  -9  -3   56.22    2.73
  -3   9   3   48.80    2.65
  -3   9   3   49.59    2.69
   2  -9  -3   -0.13    0.54
   2  -9  -3    1.01    0.64
  -2   9   3    1.51    0.82
  -2   9   3    0.57    0.75
   1  -9  -3   48.77    2.68
   1  -9  -3   49.52    2.53
  -1   9   3   46.51    2.61
  -1   9   3   48.58    2.17
  -1   9   3   48.45    2.67
   0  -9  -3    1.37    0.63
   0  -9  -3    2.20    0.65
   0   9   3    1.70    1.02
   0   9   3    2.04    0.82
   0   9   3    1.70    0.52
   0   9   3    2.12    0.77
  -1  -9  -3  247.86   10.01
  -1  -9  -3  228.91    9.69
  -1  -9  -3  247.36   10.01
   1   9   3  237.20    9.95
   1   9   3  237.43   10.12
  -2  -9  -3    0.55    0.33
  -2  -9  -3    0.13    0.55
  -2  -9  -3    0.75    0.47
   2   9   3   -0.40    0.61
   2   9   3   -0.81    0.61
   2   9   3   -0.44    0.79
  -3  -9  -3   22.13    1.49
  -3  -9  -3   20.42    1.20
  -3  -9  -3   19.65    1.05
   3   9   3   18.09    1.75
   3   9   3   16.13    1.72
   3   9   3   20.69    2.35
  -4  -9  -3   12.43    0.79
  -4  -9  -3   13.06    0.80
  -4  -9  -3   11.41    1.23
   4   9   3   11.74    1.51
  -5  -9  -3    1.08    0.68
  -5  -9  -3    0.25    0.38
  -5  -9  -3   -0.14    0.79
   5   9   3    0.61    1.04
   5   9   3   -0.66    0.78
  -6  -9  -3    5.66    0.83
   6   9   3    4.02    1.40
   6   9   3    8.71    1.39
   7   9   3    2.54    1.58
   7   9   3    2.65    1.36
   5 -10  -3    1.85    1.03
   5 -10  -3    2.53    1.20
   5 -10  -3    4.79    1.28
   4 -10  -3   18.62    2.18
   4 -10  -3   21.08    2.10
   3 -10  -3    4.43    1.08
   3 -10  -3    7.29    1.15
  -3  10   3    4.28    1.02
   2 -10  -3    2.47    0.87
   2 -10  -3    1.80    0.87
  -2  10   3    1.30    1.07
  -2  10   3    0.00    0.91
   1 -10  -3    1.71    0.83
   1 -10  -3    2.39    0.81
  -1  10   3    1.80    0.85
  -1  10   3    2.00    0.46
   0 -10  -3    1.91    0.71
   0  10   3    0.16    0.49
   0  10   3    1.29    0.99
  -1 -10  -3    2.69    0.76
  -1 -10  -3    2.67    0.78
   1  10   3    1.59    0.70
   1  10   3    2.09    0.83
  -2 -10  -3   74.30    3.31
  -2 -10  -3   68.21    3.42
   2  10   3   66.89    3.61
   2  10   3   63.22    3.41
  -3 -10  -3    3.79    0.62
  -3 -10  -3    3.66    0.50
  -3 -10  -3    4.36    0.83
   3  10   3    5.23    1.15
   3  10   3    5.63    1.15
  -4 -10  -3    7.74    0.76
  -4 -10  -3    9.35    1.12
  -4 -10  -3    7.50    0.78
   4  10   3    9.94    1.54
   4  10   3    7.65    1.21
  -5 -10  -3    0.25    0.85
   5  10   3    0.52    1.08
   5  10   3   -1.33    1.21
  -6 -10  -3    1.32    0.95
   6  10   3   -0.47    1.18
   6  10   3    0.23    1.59
   4 -11  -3    7.48    1.48
   4 -11  -3    6.00    1.36
   3 -11  -3    3.19    1.19
   3 -11  -3    3.56    1.16
  -3  11   3    1.68    1.25
   2 -11  -3    6.04    1.21
   2 -11  -3    5.20    1.21
  -2  11   3    6.15    1.42
   1 -11  -3    1.95    0.91
   1 -11  -3   -0.25    0.90
  -1  11   3   -1.55    1.08
   0 -11  -3   -0.31    0.76
   0 -11  -3   -0.99    0.82
   0  11   3    0.05    1.00
   0  11   3   -0.50    0.57
  -1 -11  -3   10.99    1.49
  -1 -11  -3   11.68    1.36
   1  11   3   11.11    1.41
   1  11   3   14.85    1.98
  -2 -11  -3    5.01    0.94
  -2 -11  -3    4.30    1.03
   2  11   3    5.00    1.29
   2  11   3    5.64    1.16
  -3 -11  -3   22.77    1.56
  -3 -11  -3   23.32    1.93
   3  11   3   20.29    2.14
   3  11   3   22.15    2.35
  -4 -11  -3   -0.03    0.48
  -4 -11  -3    0.41    0.96
   4  11   3   -0.82    1.08
   4  11   3    1.22    1.29
  -5 -11  -3    7.78    1.34
   5  11   3   11.50    1.95
   5  11   3    8.22    1.55
   3 -12  -3   10.37    1.56
   3 -12  -3    2.62    1.39
   2 -12  -3    2.06    1.25
   2 -12  -3    0.83    1.04
  -2  12   3    0.01    1.64
   1 -12  -3    2.19    1.14
   1 -12  -3    0.71    1.12
  -1  12   3    2.41    1.57
   0 -12  -3    3.53    1.14
   0 -12  -3    3.67    1.17
   0  12   3    3.43    1.49
  -1 -12  -3   12.09    1.83
  -1 -12  -3   12.49    1.54
   1  12   3   11.73    1.39
   1  12   3    7.57    1.58
  -2 -12  -3    1.52    1.01
  -2 -12  -3    2.74    1.08
   2  12   3    0.28    1.25
   2  12   3    1.20    1.47
  -3 -12  -3    1.82    0.82
  -3 -12  -3    1.97    1.13
   3  12   3    0.78    1.46
   3  12   3    0.83    1.41
  -4 -12  -3    0.91    1.15
   4  12   3    2.66    1.68
   4  12   3   -0.51    1.60
   0 -13  -3   13.28    1.83
   0 -13  -3   19.17    2.53
   0  13   3   15.13    2.21
  -1 -13  -3    1.64    1.26
  -1 -13  -3    2.60    1.37
   1  13   3   -0.40    1.65
  -2 -13  -3   10.26    1.48
   2  13   3   12.43    2.20
  -2 -11   4    7.76    1.68
   1  11  -4   -1.26    1.38
  -1 -11   4    5.54    1.57
  -1 -11   4    2.86    1.67
   0  11  -4    2.88    1.60
   0 -11   4    0.63    1.44
   0 -11   4   -0.56    1.50
  -1  11  -4    3.42    1.73
   1 -11   4    1.30    1.57
   4  10  -4   -0.43    1.40
  -4 -10   4    1.27    1.35
   3  10  -4   -0.25    1.15
  -3 -10   4    1.90    1.30
   2  10  -4   22.11    2.28
  -2 -10   4   19.89    2.34
  -2 -10   4   21.25    2.34
   1  10  -4    0.41    1.03
  -1 -10   4    3.79    1.20
  -1 -10   4    2.20    1.31
   0  10  -4    9.66    1.48
   0 -10   4    9.52    1.56
   0 -10   4    7.74    1.54
  -1  10  -4   -0.06    1.27
   1 -10   4    4.05    1.20
   1 -10   4    0.74    1.28
  -2  10  -4    8.77    1.50
   2 -10   4    4.45    1.46
   2 -10   4    2.72    1.29
   3 -10   4    1.26    1.43
   3 -10   4    1.12    1.35
   5   9  -4    1.99    1.23
  -5  -9   4    2.41    1.33
   4   9  -4    5.33    1.19
  -4  -9   4    0.17    1.08
   3   9  -4    0.86    0.96
  -3  -9   4   -0.33    0.78
  -3  -9   4    0.23    1.01
   2   9  -4    3.92    1.13
  -2  -9   4    4.66    1.04
  -2  -9   4    5.20    1.22
   1   9  -4    5.59    1.26
   1   9  -4    7.83    1.28
  -1  -9   4    7.10    1.48
  -1  -9   4    6.20    1.21
   0   9  -4    8.80    1.25
   0  -9   4    7.39    1.22
   0  -9   4    5.86    1.23
  -1   9  -4    2.41    0.94
   1  -9   4    3.82    1.18
   1  -9   4    2.38    0.96
  -2   9  -4    8.63    1.27
   2  -9   4    7.66    1.28
   2  -9   4    5.97    1.51
  -3   9  -4    4.30    1.02
   3  -9   4    5.73    1.24
   3  -9   4    2.70    1.22
   4  -9   4    3.52    1.42
   4  -9   4    6.24    1.49
   5  -9   4    1.21    1.71
   6   8  -4    8.81    1.40
  -6  -8   4    7.61    1.50
   5   8  -4    4.45    1.06
  -5  -8   4   -0.54    1.00
   4   8  -4    1.53    0.93
  -4  -8   4   -0.08    0.46
  -4  -8   4   -0.07    0.85
   3   8  -4    0.06    0.80
  -3  -8   4    0.05    0.61
  -3  -8   4   -0.58    0.83
   2   8  -4    1.76    0.85
  -2  -8   4    1.69    0.76
  -2  -8   4    2.69    0.84
   1   8  -4   30.53    1.99
   1   8  -4   31.82    2.12
  -1  -8   4   27.54    1.95
  -1  -8   4   25.36    2.07
   0   8  -4   76.82    3.80
   0   8  -4   75.57    3.52
   0  -8   4   75.15    3.68
   0  -8   4   68.08    3.85
  -1   8  -4   14.86    1.47
  -1   8  -4   14.58    1.33
  -1   8  -4   16.80    1.78
   1  -8   4   16.31    1.56
   1  -8   4   13.85    1.78
  -2   8  -4   28.19    1.82
  -2   8  -4   30.39    2.20
  -2   8  -4   27.64    1.43
   2  -8   4   21.79    1.89
   2  -8   4   20.49    2.26
  -3   8  -4    7.70    0.93
   3  -8   4    7.07    1.43
   3  -8   4    6.28    1.07
   4  -8   4    9.19    1.81
   4  -8   4   10.89    1.35
   5  -8   4    1.03    1.17
   5  -8   4    2.83    1.42
   6  -8   4    2.53    1.40
   6  -8   4    1.83    1.68
   7   7  -4   24.82    2.48
   7   7  -4   24.53    1.61
   6   7  -4    2.37    1.05
   6   7  -4    2.29    0.60
  -6  -7   4    2.92    1.32
   5   7  -4    1.61    0.45
   5   7  -4    2.78    0.95
  -5  -7   4    2.12    0.86
   4   7  -4   21.91    1.74
  -4  -7   4   22.91    1.71
  -4  -7   4   21.68    1.26
   3   7  -4   -1.18    0.53
  -3  -7   4   -0.18    0.47
   2   7  -4   23.97    1.78
   2   7  -4   22.15    1.83
  -2  -7   4   21.11    1.65
  -2  -7   4   26.06    1.76
   1   7  -4   54.59    2.71
   1   7  -4   57.34    2.78
  -1  -7   4   51.54    2.74
  -1  -7   4   46.86    2.82
   0   7  -4   29.25    2.18
   0   7  -4   28.89    1.76
   0   7  -4   27.28    1.76
   0  -7   4   28.32    1.82
   0  -7   4   25.95    2.01
  -1   7  -4    1.22    0.63
  -1   7  -4    1.19    0.60
  -1   7  -4    1.79    0.98
   1  -7   4    0.76    0.74
   1  -7   4    1.77    0.62
  -2   7  -4   42.97    2.24
  -2   7  -4   42.82    2.53
  -2   7  -4   43.60    2.02
   2  -7   4   38.88    2.79
   2  -7   4   44.08    2.37
  -3   7  -4   -0.82    0.48
  -3   7  -4    0.38    0.91
   3  -7   4    0.91    0.96
   3  -7   4    0.35    0.61
   4  -7   4    1.86    1.15
   4  -7   4    1.33    0.79
   5  -7   4   19.51    1.84
   5  -7   4   19.99    2.59
   6  -7   4   -1.64    1.31
   6  -7   4    1.24    1.09
   7   6  -4    0.57    0.56
   7   6  -4    0.22    1.05
   6   6  -4    3.19    1.00
   6   6  -4    4.54    0.62
  -6  -6   4    3.08    0.85
   5   6  -4   21.99    1.69
   5   6  -4   22.13    1.23
  -5  -6   4   20.21    1.53
  -5  -6   4   20.79    1.61
   4   6  -4    0.26    0.31
  -4  -6   4    1.86    0.72
  -4  -6   4    0.34    0.68
  -4  -6   4    1.04    0.39
   3   6  -4   13.00    0.86
   3   6  -4   14.38    1.24
  -3  -6   4   12.61    1.18
  -3  -6   4   14.48    1.28
  -3  -6   4   10.50    1.02
  -3  -6   4   13.68    0.87
   2   6  -4    4.15    0.70
   2   6  -4    3.40    0.78
   2   6  -4    4.10    1.02
  -2  -6   4    3.70    0.46
  -2  -6   4    3.29    0.68
  -2  -6   4    4.48    0.73
  -2  -6   4    3.75    0.77
   1   6  -4   27.07    1.69
   1   6  -4   27.78    1.92
   1   6  -4   28.98    1.61
  -1  -6   4   27.28    1.68
  -1  -6   4   26.55    1.29
  -1  -6   4   21.60    1.69
  -1  -6   4   26.46    1.58
   0   6  -4   10.92    1.00
   0   6  -4   10.30    1.07
   0   6  -4   10.79    1.25
   0  -6   4    7.49    1.03
   0  -6   4    8.70    1.02
   0  -6   4    8.04    1.20
  -1   6  -4  171.96    6.95
  -1   6  -4  170.23    6.95
  -1   6  -4  175.99    7.14
   1  -6   4  166.68    7.04
   1  -6   4  138.49    7.22
   1  -6   4  164.35    6.75
   1  -6   4  168.32    6.96
  -2   6  -4   12.77    0.92
  -2   6  -4   14.45    1.36
  -2   6  -4   12.93    1.04
   2  -6   4   12.55    1.19
   2  -6   4   11.06    0.88
   2  -6   4   13.29    1.15
   2  -6   4   11.07    1.50
  -3   6  -4  307.90   12.12
  -3   6  -4  300.49   12.28
  -3   6  -4  312.89   12.24
   3  -6   4  306.61   12.46
   3  -6   4  289.65   12.97
   3  -6   4  300.66   12.37
   4  -6   4   12.42    1.24
   4  -6   4   12.40    1.78
   4  -6   4   11.53    1.23
   5  -6   4   96.25    5.09
   5  -6   4   94.62    4.20
   5  -6   4   84.63    4.09
   6  -6   4    6.41    1.68
   6  -6   4    7.77    1.05
   7  -6   4   -0.06    1.61
   8   5  -4   11.06    1.67
   8   5  -4   13.10    1.23
   7   5  -4    0.88    0.96
   7   5  -4    1.92    0.55
   6   5  -4    4.58    0.53
   6   5  -4    4.19    0.81
  -6  -5   4    4.23    0.75
   5   5  -4   78.38    3.74
   5   5  -4   84.55    3.45
  -5  -5   4   79.22    3.53
  -5  -5   4   77.62    3.65
   4   5  -4    0.53    0.53
   4   5  -4    1.01    0.33
  -4  -5   4    1.19    0.54
  -4  -5   4    0.87    0.40
  -4  -5   4    1.33    0.19
  -4  -5   4    0.71    0.57
   3   5  -4  363.97   14.41
   3   5  -4  360.96   13.96
   3   5  -4  357.11   14.18
  -3  -5   4  347.21   14.07
  -3  -5   4  297.05   14.03
  -3  -5   4  347.33   14.18
  -3  -5   4  363.95   13.94
   2   5  -4    1.66    0.79
   2   5  -4    0.69    0.25
   2   5  -4    0.72    0.63
   2   5  -4    1.24    0.49
  -2  -5   4    1.65    0.47
  -2  -5   4    2.04    0.57
  -2  -5   4    1.61    0.30
  -2  -5   4    1.03    0.45
   1   5  -4    5.82    0.92
   1   5  -4    5.71    0.76
   1   5  -4    5.21    0.70
  -1  -5   4    4.61    0.48
  -1  -5   4    5.31    0.68
  -1  -5   4    5.94    0.78
  -1  -5   4    4.49    0.70
   0   5  -4   14.41    1.02
   0   5  -4   15.50    1.32
   0   5  -4   16.68    1.10
   0  -5   4   11.71    1.20
   0  -5   4   14.69    1.11
   0  -5   4   15.40    0.81
   0  -5   4   15.54    1.06
  -1   5  -4   53.92    2.40
  -1   5  -4   51.81    2.35
  -1   5  -4   53.90    2.59
   1  -5   4   49.80    2.23
   1  -5   4   52.97    2.42
   1  -5   4   52.44    2.50
   1  -5   4   41.78    2.65
  -2   5  -4    0.61    0.38
  -2   5  -4    0.66    0.36
   2  -5   4    1.13    0.65
   2  -5   4    1.12    0.29
   2  -5   4    1.09    0.45
   2  -5   4    0.99    0.45
  -3   5  -4   82.28    3.43
  -3   5  -4   82.48    3.39
  -3   5  -4   81.49    3.38
   3  -5   4   80.81    3.54
   3  -5   4   79.10    3.61
   3  -5   4   71.20    4.04
   4  -5   4   45.86    2.29
   4  -5   4   46.10    2.99
   4  -5   4   50.21    2.39
   5  -5   4    2.75    0.64
   5  -5   4    1.89    0.99
   5  -5   4    1.96    0.64
   6  -5   4    7.39    1.50
   6  -5   4    7.74    0.91
   6  -5   4    6.03    0.84
   7  -5   4   20.86    2.82
   8  -5   4   36.72    2.47
   8  -5   4   33.67    3.74
   8   4  -4    2.17    0.57
   8   4  -4    0.88    1.10
   7   4  -4   15.21    1.64
   7   4  -4   16.85    1.07
   6   4  -4    2.32    0.71
   6   4  -4    3.23    0.45
  -6  -4   4    2.59    0.53
  -6  -4   4    2.78    0.71
   5   4  -4    0.71    0.95
   5   4  -4    0.25    0.26
   5   4  -4   -0.51    0.49
  -5  -4   4   -0.45    0.45
  -5  -4   4   -0.41    0.40
  -5  -4   4    0.36    0.43
   4   4  -4   27.62    1.29
   4   4  -4   27.53    1.95
   4   4  -4   28.69    1.57
  -4  -4   4   26.16    1.34
  -4  -4   4   26.99    1.45
  -4  -4   4   27.72    1.14
  -4  -4   4   26.94    1.55
  -4  -4   4   21.97    1.22
   3   4  -4  120.12    4.69
   3   4  -4  109.77    4.87
   3   4  -4  115.70    5.11
  -3  -4   4  110.33    4.89
  -3  -4   4  112.62    4.79
  -3  -4   4  112.92    4.67
   2   4  -4   12.65    0.73
   2   4  -4   14.69    0.97
   2   4  -4   13.37    1.21
  -2  -4   4   12.56    0.70
  -2  -4   4    9.77    0.98
  -2  -4   4   10.58    0.89
   1   4  -4   53.70    2.50
   1   4  -4   59.28    2.67
   1   4  -4   60.32    2.85
   1   4  -4   60.18    2.74
  -1  -4   4   58.14    2.64
  -1  -4   4   61.32    2.49
  -1  -4   4   58.90    2.75
   0   4  -4   74.19    3.23
   0   4  -4   68.67    3.17
   0   4  -4   75.78    3.37
   0  -4   4   71.51    3.18
   0  -4   4   72.78    3.28
   0  -4   4   72.89    3.03
  -1   4  -4    1.79    0.37
  -1   4  -4    2.32    0.43
  -1   4  -4    2.00    0.53
   1  -4   4    1.95    0.40
   1  -4   4    3.06    0.37
   1  -4   4    1.92    0.47
  -2   4  -4   77.56    3.34
  -2   4  -4   79.83    3.45
  -2   4  -4   79.65    3.35
   2  -4   4   79.79    3.40
   2  -4   4   76.58    3.47
   2  -4   4   77.30    3.29
  -3   4  -4    2.49    0.46
  -3   4  -4    2.52    0.36
  -3   4  -4    2.93    0.44
   3  -4   4    3.00    0.49
   3  -4   4    2.66    0.38
   3  -4   4    1.68    0.69
   3  -4   4    2.39    0.50
   4  -4   4    1.84    0.48
   4  -4   4    2.53    0.39
   4  -4   4    1.47    0.81
   4  -4   4    2.38    0.50
   5  -4   4   14.72    1.06
   5  -4   4   14.23    1.09
   5  -4   4   16.02    0.93
   5  -4   4   14.66    1.84
   6  -4   4   10.06    0.99
   6  -4   4    8.23    0.80
   6  -4   4    5.94    1.32
   6  -4   4    9.10    0.80
   7  -4   4    4.21    0.70
   7  -4   4    4.01    0.77
   7  -4   4    5.01    0.61
   7  -4   4    4.86    1.46
   8  -4   4    1.67    1.59
   8  -4   4    1.19    0.86
   8   3  -4    4.28    0.59
   8   3  -4    3.60    1.05
   7   3  -4   18.62    1.57
   7   3  -4   20.37    1.14
   6   3  -4   10.86    1.09
   6   3  -4    7.84    1.38
   6   3  -4    9.70    0.71
  -6  -3   4   10.20    0.72
  -6  -3   4    8.58    0.65
   5   3  -4   21.73    1.09
   5   3  -4   19.26    1.32
   5   3  -4   22.60    1.77
  -5  -3   4   21.16    1.14
  -5  -3   4   21.43    1.24
  -5  -3   4   21.89    1.27
   4   3  -4  124.38    4.97
   4   3  -4  118.20    5.15
   4   3  -4  122.74    5.39
  -4  -3   4  122.19    5.02
  -4  -3   4  117.47    5.12
  -4  -3   4  121.25    4.86
  -4  -3   4  122.28    5.02
   3   3  -4   26.92    1.24
   3   3  -4   27.27    1.69
   3   3  -4   26.28    1.43
  -3  -3   4   26.92    1.28
  -3  -3   4   25.61    1.45
  -3  -3   4   28.21    1.18
  -3  -3   4   26.98    1.36
   2   3  -4  242.90    9.96
   2   3  -4  239.95    9.80
   2   3  -4  246.25    9.91
   2   3  -4  237.25    9.65
  -2  -3   4  240.46    9.75
  -2  -3   4  243.45    9.65
  -2  -3   4  237.12    9.86
   1   3  -4  545.86   20.68
   1   3  -4  489.96   20.39
   1   3  -4  530.70   20.60
   1   3  -4  514.18   20.52
  -1  -3   4  493.33   20.37
  -1  -3   4  508.56   20.59
   0   3  -4  486.91   18.76
   0   3  -4  465.32   18.95
   0   3  -4  471.50   18.70
   0  -3   4  469.64   18.80
   0  -3   4  441.52   18.57
   0  -3   4  473.73   18.70
  -1   3  -4    4.12    0.49
  -1   3  -4    3.24    0.54
  -1   3  -4    3.53    0.43
   1  -3   4    4.08    0.51
   1  -3   4    3.28    0.44
   1  -3   4    3.21    0.35
  -2   3  -4   89.28    3.69
  -2   3  -4   85.90    3.59
  -2   3  -4   89.69    3.67
   2  -3   4   85.77    3.57
   2  -3   4   83.19    3.73
   2  -3   4   84.64    3.63
  -3   3  -4    1.00    0.35
   3  -3   4    1.41    0.31
   3  -3   4    1.29    0.33
   3  -3   4    1.01    0.34
   4  -3   4  132.94    5.29
   4  -3   4  119.56    5.89
   4  -3   4  129.80    5.37
   4  -3   4  131.12    5.33
   5  -3   4    0.52    0.35
   5  -3   4   -0.11    0.33
   5  -3   4    0.69    0.73
   6  -3   4    0.62    0.44
   6  -3   4    1.43    0.43
   6  -3   4   -0.87    0.82
   6  -3   4    1.21    0.41
   7  -3   4    2.02    0.62
   7  -3   4    1.95    0.54
   7  -3   4    2.10    0.63
   7  -3   4    3.73    1.19
   8  -3   4    1.81    0.70
   8  -3   4   -1.99    1.36
   8   2  -4   12.84    0.99
   8   2  -4   11.53    1.55
   7   2  -4    0.48    0.32
   7   2  -4    0.43    0.60
   6   2  -4    0.08    0.26
   6   2  -4   -0.81    0.90
   6   2  -4    0.70    0.46
  -6  -2   4    0.60    0.67
   5   2  -4   46.40    2.00
   5   2  -4   44.89    2.16
   5   2  -4   47.45    2.53
  -5  -2   4   44.47    1.97
  -5  -2   4   42.93    2.14
  -5  -2   4   45.49    2.04
   4   2  -4    9.05    1.15
   4   2  -4    8.43    0.56
   4   2  -4    8.55    0.70
  -4  -2   4    8.24    0.62
  -4  -2   4    8.84    0.53
  -4  -2   4    9.50    0.69
  -4  -2   4    7.43    0.72
   3   2  -4   14.34    0.87
   3   2  -4   15.81    1.16
   3   2  -4   13.59    0.72
  -3  -2   4   13.46    0.90
  -3  -2   4   15.20    0.68
  -3  -2   4   13.09    0.89
  -3  -2   4   13.70    0.78
   2   2  -4    2.59    0.47
   2   2  -4    2.43    0.51
   2   2  -4    2.87    0.28
   2   2  -4    2.49    0.35
  -2  -2   4    2.46    0.41
  -2  -2   4    2.67    0.31
   1   2  -4 1129.29   43.71
   1   2  -4 1066.80   43.63
  -1  -2   4 1107.55   43.71
   0   2  -4  616.15   24.24
   0   2  -4  623.87   24.29
   0   2  -4  647.75   24.38
   0   2  -4  587.57   24.14
   0  -2   4  600.38   24.33
   0  -2   4  591.00   24.13
   0  -2   4  601.18   24.22
  -1   2  -4   52.68    2.28
  -1   2  -4   53.39    2.34
  -1   2  -4   52.72    2.39
   1  -2   4   51.92    2.31
   1  -2   4   55.30    2.30
   1  -2   4   52.40    2.39
   1  -2   4   51.89    2.20
  -2   2  -4  254.49   10.31
  -2   2  -4  252.78   10.20
  -2   2  -4  260.50   10.27
   2  -2   4  238.52   10.18
   2  -2   4  260.63   10.30
   2  -2   4  260.76   10.34
   2  -2   4  260.51   10.25
  -3   2  -4    0.72    0.33
   3  -2   4    0.70    0.30
   3  -2   4    0.32    0.22
   3  -2   4    0.34    0.25
   4  -2   4    7.67    0.65
   4  -2   4    8.18    0.68
   4  -2   4    8.12    0.57
   5  -2   4   28.77    1.51
   5  -2   4   29.33    2.10
   5  -2   4   31.22    1.37
   5  -2   4   30.56    1.58
   6  -2   4   41.95    2.04
   6  -2   4   44.27    2.21
   6  -2   4   47.39    1.91
   6  -2   4   40.06    2.72
   7  -2   4    0.09    0.44
   7  -2   4   -0.26    0.43
   7  -2   4    1.44    0.64
   7  -2   4    0.72    0.91
   8  -2   4   -0.41    0.84
   8  -2   4    0.99    1.17
   8  -2   4    0.02    0.56
   9  -2   4    8.00    0.96
   9  -2   4    9.77    1.81
   9   1  -4    2.35    0.63
   8   1  -4    0.59    0.69
   8   1  -4   -0.19    0.44
   7   1  -4   10.57    0.85
   7   1  -4   10.69    1.06
   7   1  -4   13.18    1.63
   6   1  -4   26.49    1.40
   6   1  -4   26.31    1.96
   6   1  -4   23.66    1.24
  -6  -1   4   21.79    1.60
   5   1  -4   66.28    3.14
   5   1  -4   62.25    2.69
   5   1  -4   60.76    2.77
  -5  -1   4   63.43    2.88
  -5  -1   4   61.68    2.59
  -5  -1   4   63.47    2.64
   4   1  -4    7.48    0.98
   4   1  -4    7.98    0.51
   4   1  -4    6.81    0.59
  -4  -1   4    6.46    0.54
  -4  -1   4    6.04    0.50
  -4  -1   4    7.49    0.61
   3   1  -4  103.20    4.46
   3   1  -4  109.07    4.39
   3   1  -4  113.61    4.69
  -3  -1   4  105.82    4.51
  -3  -1   4  106.97    4.44
  -3  -1   4  108.41    4.38
  -3  -1   4  106.83    4.41
   2   1  -4   21.45    1.21
   2   1  -4   18.13    0.88
   2   1  -4   18.30    0.98
  -2  -1   4   20.17    0.88
  -2  -1   4   19.52    1.08
  -2  -1   4   18.90    0.95
   1   1  -4  128.30    5.30
   1   1  -4  123.04    5.07
   1   1  -4  130.78    5.26
   1   1  -4  126.28    5.16
  -1  -1   4  127.81    5.14
  -1  -1   4  122.34    5.07
  -1  -1   4  124.47    5.26
   0   1  -4    2.69    0.38
   0   1  -4    2.55    0.23
   0   1  -4    2.99    0.35
   0   1  -4    1.98    0.39
   0  -1   4    3.91    0.42
   0  -1   4    3.33    0.25
   0  -1   4    2.84    0.34
   0  -1   4    2.99    0.45
  -1   1  -4   48.90    2.09
  -1   1  -4   45.43    1.99
  -1   1  -4   48.75    2.10
   1  -1   4   45.47    1.99
   1  -1   4   47.45    2.07
   1  -1   4   44.63    1.92
   1  -1   4   45.78    2.10
  -2   1  -4  131.24    5.27
  -2   1  -4  127.87    5.22
  -2   1  -4  133.31    5.39
   2  -1   4  133.44    5.27
   2  -1   4  129.23    5.36
   2  -1   4  123.35    5.21
   2  -1   4  131.79    5.36
  -3   1  -4    2.87    0.48
   3  -1   4    3.12    0.33
   3  -1   4    4.11    0.48
   4  -1   4    8.16    0.60
   4  -1   4    7.76    0.47
   4  -1   4    6.92    0.69
   5  -1   4    2.07    0.25
   5  -1   4    2.16    0.50
   5  -1   4    1.81    0.34
   6  -1   4   22.21    1.00
   6  -1   4   21.81    1.08
   6  -1   4   23.55    1.49
   6  -1   4   23.86    1.24
   6  -1   4   19.85    1.80
   7  -1   4    1.62    0.70
   7  -1   4    1.39    0.42
   7  -1   4    1.52    0.88
   8  -1   4    8.45    0.91
   8  -1   4    8.58    1.28
   8  -1   4    9.94    1.50
   9  -1   4   -1.49    1.19
   9  -1   4   -1.25    0.53
   9  -1   4    0.82    1.27
   9   0  -4    9.41    0.92
   8   0  -4    3.95    0.57
   8   0  -4    5.31    0.78
   7   0  -4   20.20    1.24
   7   0  -4   15.22    2.01
   7   0  -4   19.54    1.16
   7   0  -4   19.44    0.91
   6   0  -4  129.64    5.44
   6   0  -4  122.01    5.06
   6   0  -4  122.76    4.89
   6   0  -4  122.02    5.02
  -6   0   4  106.69    5.22
   5   0  -4    1.88    0.34
   5   0  -4    1.65    0.31
   5   0  -4    1.77    0.70
   5   0  -4    2.15    0.29
  -5   0   4    2.73    0.57
  -5   0   4    1.76    0.46
   4   0  -4   15.19    0.84
   4   0  -4   16.39    1.18
   4   0  -4   13.63    0.80
   4   0  -4   17.86    0.76
  -4   0   4   15.20    0.84
  -4   0   4   13.93    0.91
  -4   0   4   14.33    0.97
  -4   0   4   15.41    0.77
   3   0  -4  567.64   22.55
   3   0  -4  578.11   22.76
   3   0  -4  597.35   22.78
   3   0  -4  555.28   22.57
   3   0  -4  576.45   22.51
  -3   0   4  541.58   22.57
  -3   0   4  559.58   22.60
  -3   0   4  561.93   22.53
  -3   0   4  576.21   22.62
   2   0  -4    4.62    0.57
   2   0  -4    5.12    0.41
   2   0  -4    6.82    0.69
   2   0  -4    6.18    0.37
  -2   0   4    4.67    0.39
  -2   0   4    5.48    0.41
  -2   0   4    5.38    0.53
  -2   0   4    5.36    0.38
   1   0  -4   28.32    1.39
   1   0  -4   26.98    1.34
   1   0  -4   25.82    1.22
  -1   0   4   27.76    1.18
  -1   0   4   28.43    1.18
  -1   0   4   27.06    1.31
  -1   0   4   26.49    1.21
  -1   0   4   25.26    1.33
   0   0  -4  787.60   30.86
   0   0  -4  774.59   30.83
   0   0   4  787.33   30.83
   0   0   4  757.11   30.85
  -1   0  -4  150.95    6.05
  -1   0  -4  157.00    6.15
  -1   0  -4  154.64    6.17
   1   0   4  151.76    6.16
   1   0   4  143.70    5.98
   1   0   4  146.60    6.04
   1   0   4  149.09    6.16
  -2   0  -4  100.56    3.94
  -2   0  -4   98.33    4.13
  -2   0  -4  100.35    3.97
   2   0   4   96.30    3.96
   2   0   4   96.22    4.11
   2   0   4   95.63    3.92
  -3   0  -4  880.32   34.64
   3   0   4  870.69   34.63
   3   0   4  861.23   34.48
   4   0   4    8.50    0.54
   4   0   4    7.44    0.43
   4   0   4    8.38    0.74
   5   0   4   26.71    1.22
   5   0   4   25.98    1.55
   5   0   4   26.46    1.28
   5   0   4   28.43    1.15
   6   0   4   38.58    1.74
   6   0   4   40.21    2.14
   6   0   4   35.72    2.26
   6   0   4   37.35    1.64
   7   0   4   18.96    1.58
   7   0   4   19.66    1.73
   7   0   4   20.69    1.08
   8   0   4   43.62    2.75
   8   0   4   45.98    2.06
   8   0   4   43.82    2.74
   9   0   4    3.21    1.45
   9  -1  -4    0.50    0.57
   8  -1  -4    5.24    0.72
   8  -1  -4    3.85    0.59
   7  -1  -4    1.18    1.00
   7  -1  -4    0.22    0.38
   7  -1  -4    0.18    0.36
   7  -1  -4    0.15    0.24
   6  -1  -4   61.82    3.04
   6  -1  -4   60.82    2.66
   6  -1  -4   56.86    2.62
   6  -1  -4   60.30    3.08
   6  -1  -4   59.44    2.58
   5  -1  -4   70.55    2.95
   5  -1  -4   74.65    2.94
   5  -1  -4   70.33    3.23
   5  -1  -4   71.25    3.00
   5  -1  -4   73.78    3.28
  -5   1   4   63.17    3.15
  -5   1   4   58.90    3.12
   4  -1  -4   13.55    0.72
   4  -1  -4   14.93    1.03
   4  -1  -4   12.59    1.11
   4  -1  -4   13.70    0.77
   4  -1  -4   13.08    0.73
  -4   1   4   12.01    0.92
  -4   1   4   12.58    0.65
  -4   1   4   11.56    0.93
   3  -1  -4   31.37    1.64
   3  -1  -4   33.03    1.42
   3  -1  -4   31.90    1.44
   3  -1  -4   32.55    1.45
  -3   1   4   33.06    1.55
  -3   1   4   31.02    1.41
  -3   1   4   30.11    1.54
   2  -1  -4   20.63    1.18
   2  -1  -4   21.09    0.99
   2  -1  -4   19.99    0.98
   2  -1  -4   22.18    1.14
   2  -1  -4   22.55    0.98
  -2   1   4   21.34    1.04
  -2   1   4   19.78    1.04
  -2   1   4   20.42    1.10
  -2   1   4   21.43    0.99
   1  -1  -4  654.46   25.45
   1  -1  -4  627.87   25.40
   1  -1  -4  649.85   25.31
  -1   1   4  636.38   25.40
  -1   1   4  614.35   25.30
  -1   1   4  649.77   25.43
   0  -1  -4  127.66    5.09
   0  -1  -4  127.90    5.22
   0  -1  -4  126.12    5.19
   0   1   4  129.61    5.23
   0   1   4  129.11    5.09
   0   1   4  125.99    5.08
   0   1   4  119.99    5.17
   0   1   4  121.94    5.04
  -1  -1  -4    4.79    0.45
  -1  -1  -4    4.38    0.32
  -1  -1  -4    5.17    0.24
  -1  -1  -4    4.32    0.48
   1   1   4    4.40    0.46
   1   1   4    4.45    0.24
   1   1   4    4.39    0.32
   1   1   4    3.85    0.44
  -2  -1  -4  752.63   29.90
   2   1   4  749.88   29.89
  -3  -1  -4  204.18    8.38
   3   1   4  203.16    8.19
   3   1   4  200.93    8.36
   3   1   4  205.50    8.11
   4   1   4   22.35    1.38
   4   1   4   25.65    1.06
   4   1   4   24.19    1.13
   5   1   4   98.54    4.04
   5   1   4   98.55    4.45
   5   1   4   99.57    4.06
   5   1   4   99.90    4.00
   6   1   4    1.73    0.33
   6   1   4    1.09    0.24
   6   1   4    1.11    0.23
   6   1   4    1.57    0.62
   7   1   4    9.31    1.14
   7   1   4    7.06    0.52
   7   1   4    5.42    0.90
   7   1   4    6.65    0.63
   8   1   4   16.11    0.86
   8   1   4   13.83    1.15
   8   1   4   15.63    1.85
   8   1   4   15.42    1.63
   9   1   4    3.01    1.46
   9  -2  -4    5.39    0.79
   8  -2  -4    5.63    0.80
   8  -2  -4    7.95    0.98
   8  -2  -4    6.34    0.75
   7  -2  -4    2.99    0.49
   7  -2  -4    2.42    0.45
   7  -2  -4    1.71    1.03
   7  -2  -4    2.14    0.50
   7  -2  -4    2.63    1.02
   6  -2  -4    0.82    0.65
   6  -2  -4    0.27    0.29
   6  -2  -4   -0.33    0.29
   6  -2  -4   -0.19    0.69
   6  -2  -4    0.80    0.38
  -6   2   4    0.50    0.67
   5  -2  -4    0.53    0.27
   5  -2  -4    0.09    0.51
   5  -2  -4    0.23    0.57
   5  -2  -4    0.97    0.30
   5  -2  -4    0.56    0.29
  -5   2   4   -0.29    0.55
   4  -2  -4   20.41    1.02
   4  -2  -4   17.85    1.16
   4  -2  -4   19.28    0.93
   4  -2  -4   18.86    1.02
  -4   2   4   14.22    1.29
  -4   2   4   17.94    0.82
   3  -2  -4   33.27    1.58
   3  -2  -4   31.49    1.47
   3  -2  -4   32.43    1.43
   3  -2  -4   31.59    1.64
  -3   2   4   31.51    1.40
  -3   2   4   28.38    1.55
  -3   2   4   30.79    1.62
  -3   2   4   31.97    1.48
   2  -2  -4   18.52    1.08
   2  -2  -4   18.38    0.91
   2  -2  -4   17.99    0.99
  -2   2   4   16.30    0.96
  -2   2   4   17.73    1.00
  -2   2   4   17.08    1.00
  -2   2   4   18.23    0.89
   1  -2  -4  223.60    8.96
   1  -2  -4  223.51    8.95
   1  -2  -4  226.28    9.03
   1  -2  -4  219.01    8.94
   1  -2  -4  234.04    9.10
  -1   2   4  231.81    9.09
  -1   2   4  225.13    9.01
  -1   2   4  220.96    8.96
  -1   2   4  210.80    8.97
  -1   2   4  220.81    9.02
   0  -2  -4  852.44   33.77
   0  -2  -4  877.95   33.80
   0   2   4  848.13   33.80
   0   2   4  826.23   33.76
  -1  -2  -4 1263.93   55.76
   1   2   4 1304.33   55.77
  -2  -2  -4   48.71    2.08
  -2  -2  -4   50.16    2.29
  -2  -2  -4   49.10    2.10
   2   2   4   48.89    2.08
   2   2   4   51.33    2.28
   2   2   4   46.99    2.16
   2   2   4   51.18    2.08
  -3  -2  -4  133.41    5.34
  -3  -2  -4  136.71    5.34
   3   2   4  134.50    5.42
   3   2   4  132.86    5.69
   3   2   4  134.29    5.49
   4   2   4   -0.24    0.16
   4   2   4    0.30    0.23
   4   2   4   -0.40    0.32
   5   2   4   32.88    1.97
   5   2   4   35.48    1.56
   5   2   4   35.75    1.60
   6   2   4   14.96    0.91
   6   2   4   16.01    0.91
   6   2   4   15.73    0.73
   6   2   4   16.36    1.44
   7   2   4   14.15    0.95
   7   2   4   11.85    0.63
   7   2   4   13.72    0.86
   7   2   4   11.14    1.53
   7   2   4    9.95    1.11
   8   2   4   27.48    2.32
   8   2   4   27.32    1.74
   8   2   4   27.53    1.45
   8   2   4   25.12    1.20
   9   2   4    4.50    1.53
   8  -3  -4    6.66    0.83
   8  -3  -4    7.17    0.94
   8  -3  -4    6.60    0.85
   7  -3  -4   35.02    2.28
   7  -3  -4   34.51    1.86
   7  -3  -4   33.20    1.69
   7  -3  -4   30.50    2.36
   7  -3  -4   36.86    1.88
   6  -3  -4    7.25    0.83
   6  -3  -4    9.25    1.14
   6  -3  -4    6.92    0.98
   6  -3  -4    8.14    0.84
   6  -3  -4    7.50    0.64
  -6   3   4    5.51    1.05
   5  -3  -4    0.17    0.31
   5  -3  -4    0.67    0.48
   5  -3  -4   -0.13    0.60
   5  -3  -4    0.26    0.25
   5  -3  -4    0.64    0.36
  -5   3   4    0.50    0.65
   4  -3  -4   72.07    3.13
   4  -3  -4   69.65    3.12
   4  -3  -4   70.86    3.21
   4  -3  -4   75.36    3.11
   4  -3  -4   72.50    2.98
  -4   3   4   59.92    3.25
   3  -3  -4    0.46    0.22
   3  -3  -4    0.94    0.29
   3  -3  -4    0.52    0.42
   3  -3  -4    1.33    0.31
   3  -3  -4    1.88    0.39
  -3   3   4    0.36    0.39
  -3   3   4    1.06    0.23
  -3   3   4    1.41    0.32
   2  -3  -4  666.90   26.00
   2  -3  -4  665.24   26.09
   2  -3  -4  663.87   25.95
   2  -3  -4  621.84   25.98
   2  -3  -4  670.21   26.03
  -2   3   4  655.61   25.98
  -2   3   4  631.87   25.93
  -2   3   4  631.22   26.10
  -2   3   4  677.20   26.06
   1  -3  -4   87.72    3.75
   1  -3  -4   91.79    3.77
   1  -3  -4   82.20    3.71
   1  -3  -4   93.69    3.73
   1  -3  -4   97.97    3.88
  -1   3   4   90.30    3.76
  -1   3   4   85.04    3.81
  -1   3   4   89.45    3.72
  -1   3   4   91.98    3.85
   0  -3  -4  269.23   10.52
   0  -3  -4  274.96   10.63
   0  -3  -4  234.90   10.47
   0  -3  -4  264.80   10.59
   0   3   4  270.03   10.57
   0   3   4  265.36   10.58
   0   3   4  258.76   10.52
  -1  -3  -4   46.16    2.07
  -1  -3  -4   45.64    1.98
  -1  -3  -4   48.94    1.97
  -1  -3  -4   46.88    2.13
  -1  -3  -4   42.15    1.91
   1   3   4   47.44    2.01
   1   3   4   45.42    2.10
   1   3   4   50.35    2.02
   1   3   4   43.97    2.10
  -2  -3  -4    8.12    0.57
  -2  -3  -4    7.35    0.74
  -2  -3  -4    7.84    0.48
   2   3   4    8.34    0.61
   2   3   4    8.49    0.56
   2   3   4    8.28    0.50
   2   3   4    7.65    0.67
  -3  -3  -4  292.66   11.39
  -3  -3  -4  275.53   11.41
   3   3   4  281.88   11.71
   3   3   4  287.76   11.46
   3   3   4  284.83   11.52
   3   3   4  295.15   11.43
   4   3   4  120.06    4.99
   4   3   4  122.45    5.33
   4   3   4  117.29    5.03
   4   3   4  126.52    4.94
   5   3   4  103.90    4.28
   5   3   4  100.70    4.29
   5   3   4   98.57    4.09
   5   3   4  101.20    4.70
   5   3   4  108.76    4.21
   6   3   4   10.95    0.84
   6   3   4    9.62    0.72
   6   3   4    7.38    0.42
   6   3   4    8.46    0.57
   6   3   4    6.59    1.00
   7   3   4   13.17    0.75
   7   3   4   12.33    1.11
   7   3   4   11.76    1.04
   7   3   4   12.02    0.92
   7   3   4   16.52    2.11
   7   3   4   12.08    0.60
   8   3   4    5.09    0.40
   8   3   4    5.91    0.86
   8   3   4    5.55    0.73
   8   3   4    5.34    1.30
   9   3   4    1.01    1.42
   8  -4  -4    1.95    0.78
   8  -4  -4    1.59    0.72
   7  -4  -4    1.62    0.47
   7  -4  -4    2.37    0.64
   7  -4  -4    1.93    0.64
   7  -4  -4    3.40    1.08
   6  -4  -4   10.05    1.22
   6  -4  -4    8.40    1.01
   6  -4  -4    8.31    1.05
   6  -4  -4    9.12    0.74
   6  -4  -4    8.79    1.00
  -6   4   4    6.51    1.20
   5  -4  -4  160.49    6.77
   5  -4  -4  155.64    6.74
   5  -4  -4  159.29    6.68
   5  -4  -4  156.31    6.63
   5  -4  -4  162.42    6.52
   4  -4  -4   53.87    2.54
   4  -4  -4   53.03    2.35
   4  -4  -4   53.08    2.29
   4  -4  -4   51.32    2.48
  -4   4   4   44.89    2.65
   3  -4  -4   17.03    0.92
   3  -4  -4   17.29    0.95
   3  -4  -4   16.83    1.15
   3  -4  -4   15.31    0.98
   3  -4  -4   15.96    1.05
  -3   4   4   17.43    0.98
  -3   4   4   15.49    0.88
  -3   4   4   15.83    1.26
   2  -4  -4   37.67    1.78
   2  -4  -4   32.80    1.69
   2  -4  -4   37.83    1.67
   2  -4  -4   34.10    1.88
   2  -4  -4   37.57    1.67
  -2   4   4   37.10    1.78
  -2   4   4   35.68    1.66
  -2   4   4   37.22    1.65
  -2   4   4   35.50    1.92
   1  -4  -4    0.18    0.34
   1  -4  -4    0.03    0.22
   1  -4  -4    0.05    0.17
   1  -4  -4   -0.09    0.24
   1  -4  -4    0.11    0.20
  -1   4   4    0.22    0.22
  -1   4   4   -0.07    0.28
  -1   4   4    0.14    0.25
   0  -4  -4  248.53   10.04
   0  -4  -4  254.01   10.02
   0  -4  -4  257.21   10.09
   0  -4  -4  234.91    9.98
   0   4   4  254.23   10.01
   0   4   4  249.66   10.03
   0   4   4  242.96   10.07
   0   4   4  243.62   10.10
  -1  -4  -4  162.88    6.73
  -1  -4  -4  167.99    6.60
  -1  -4  -4  167.46    6.68
  -1  -4  -4  165.72    6.62
   1   4   4  150.46    6.71
   1   4   4  157.99    6.63
   1   4   4  162.59    6.72
   1   4   4  165.66    6.66
  -2  -4  -4  403.72   15.75
  -2  -4  -4  394.83   15.79
  -2  -4  -4  409.23   15.84
  -2  -4  -4  360.75   15.65
   2   4   4  411.17   15.89
   2   4   4  401.81   16.00
   2   4   4  387.22   15.90
   2   4   4  399.79   15.82
  -3  -4  -4   36.88    1.64
  -3  -4  -4   37.16    1.59
  -3  -4  -4   36.53    1.45
   3   4   4   37.32    1.63
   3   4   4   35.50    1.73
   3   4   4   35.84    1.91
   3   4   4   32.63    1.87
  -4  -4  -4   91.47    3.73
  -4  -4  -4   93.23    3.71
   4   4   4   93.50    3.78
   4   4   4   90.13    4.20
   4   4   4   89.51    3.88
   4   4   4   90.05    3.91
   5   4   4  364.53   15.06
   5   4   4  382.31   15.46
   5   4   4  373.29   15.04
   5   4   4  377.16   14.91
   6   4   4  122.46    5.33
   6   4   4  122.51    5.34
   6   4   4  128.04    5.15
   6   4   4  134.11    5.85
   7   4   4   -0.66    0.84
   7   4   4   -0.79    0.42
   7   4   4    0.21    0.16
   7   4   4    0.14    0.42
   7   4   4   -0.61    0.62
   7   4   4   -0.21    0.27
   8   4   4    6.55    0.86
   8   4   4    6.35    0.45
   8   4   4    7.47    1.56
   9   4   4    8.85    1.87
   8  -5  -4    5.93    1.14
   8  -5  -4    4.41    0.90
   7  -5  -4   -0.17    0.70
   7  -5  -4   -0.16    0.62
   7  -5  -4    0.87    0.53
   6  -5  -4   16.54    1.43
   6  -5  -4   20.71    1.42
   6  -5  -4   17.66    1.81
   6  -5  -4   17.72    1.15
   5  -5  -4   10.24    0.99
   5  -5  -4    9.44    0.81
   5  -5  -4    9.94    1.13
   5  -5  -4    8.72    1.02
   5  -5  -4    9.79    0.89
  -5   5   4    8.78    1.38
   4  -5  -4  191.50    7.92
   4  -5  -4  196.68    7.69
   4  -5  -4  196.95    7.75
   4  -5  -4  185.89    7.88
   4  -5  -4  193.37    7.98
  -4   5   4  167.46    8.12
   3  -5  -4   19.31    1.22
   3  -5  -4   17.48    1.03
   3  -5  -4   18.49    1.25
   3  -5  -4   16.67    1.12
   3  -5  -4   17.57    0.96
  -3   5   4   18.68    1.10
  -3   5   4   13.54    1.36
  -3   5   4   17.28    0.98
   2  -5  -4    4.93    0.51
   2  -5  -4    6.17    0.71
   2  -5  -4    3.85    0.51
   2  -5  -4    4.25    0.59
  -2   5   4    3.79    0.48
  -2   5   4    3.71    0.62
  -2   5   4    5.13    0.48
  -2   5   4    5.03    0.67
   1  -5  -4   16.79    0.95
   1  -5  -4   17.79    1.05
   1  -5  -4   18.07    0.99
   1  -5  -4   16.86    1.11
  -1   5   4   16.88    1.21
  -1   5   4   17.95    0.95
  -1   5   4   16.82    1.07
  -1   5   4   17.92    1.12
   0  -5  -4 2061.42   79.77
   0   5   4 1969.97   79.82
  -1  -5  -4   58.55    2.62
  -1  -5  -4   61.72    2.69
  -1  -5  -4   63.10    2.61
   1   5   4   56.55    2.84
   1   5   4   61.41    2.67
   1   5   4   57.39    2.69
  -2  -5  -4   11.80    0.65
  -2  -5  -4   11.28    0.72
  -2  -5  -4   12.07    0.81
   2   5   4   11.00    0.82
   2   5   4   10.21    0.82
   2   5   4   10.26    0.87
   2   5   4   11.04    0.79
  -3  -5  -4   10.61    0.48
  -3  -5  -4    8.70    0.79
  -3  -5  -4   10.44    0.58
   3   5   4   10.47    0.72
   3   5   4   10.57    0.85
   3   5   4   10.99    0.84
   3   5   4   10.13    1.01
  -4  -5  -4    0.15    0.13
  -4  -5  -4    0.30    0.29
  -4  -5  -4   -0.07    0.22
   4   5   4    0.16    0.34
   4   5   4    0.36    0.39
   4   5   4    0.43    0.55
   4   5   4   -0.02    0.26
  -5  -5  -4   53.25    2.11
  -5  -5  -4   49.19    2.09
  -5  -5  -4   49.42    2.09
   5   5   4   50.07    2.40
   5   5   4   45.53    2.77
   5   5   4   52.24    2.22
   5   5   4   48.82    2.42
   6   5   4  115.51    4.79
   6   5   4  116.12    5.05
   6   5   4  117.02    5.06
   6   5   4  118.61    5.54
   7   5   4    0.67    0.56
   7   5   4    2.26    0.98
   7   5   4   -0.16    0.74
   8   5   4   15.10    1.48
   8   5   4   16.56    2.08
   9   5   4    6.75    1.74
   8  -6  -4   15.49    2.09
   8  -6  -4   14.58    1.75
   7  -6  -4    1.29    0.63
   7  -6  -4    1.30    0.86
   7  -6  -4   -0.30    0.68
   6  -6  -4   95.55    3.99
   6  -6  -4   93.59    4.07
   6  -6  -4   93.52    4.32
   6  -6  -4   92.89    3.91
   6  -6  -4   87.17    4.40
   6  -6  -4   92.09    4.40
   5  -6  -4   87.06    4.24
   5  -6  -4   94.29    4.22
   5  -6  -4   93.41    4.02
   5  -6  -4   92.34    4.32
   5  -6  -4   92.26    3.81
   4  -6  -4    0.22    0.37
   4  -6  -4    0.42    0.29
   4  -6  -4    0.31    0.59
   4  -6  -4    0.42    0.43
   4  -6  -4    0.20    0.47
  -4   6   4   -0.42    0.91
  -4   6   4   -0.04    0.29
   3  -6  -4   87.55    3.94
   3  -6  -4   94.57    3.83
   3  -6  -4   88.47    3.61
   3  -6  -4   88.32    4.01
  -3   6   4   74.98    4.15
  -3   6   4   85.36    3.72
  -3   6   4   91.56    3.85
   2  -6  -4  369.01   14.44
   2  -6  -4  359.84   14.49
   2  -6  -4  365.09   14.34
   2  -6  -4  350.97   14.19
  -2   6   4  308.08   14.57
  -2   6   4  369.83   14.43
  -2   6   4  362.47   14.30
   1  -6  -4   42.95    2.02
   1  -6  -4   44.52    2.13
   1  -6  -4   41.42    2.13
   1  -6  -4   44.15    1.96
  -1   6   4   40.81    2.03
  -1   6   4   41.33    2.28
  -1   6   4   41.85    2.15
  -1   6   4   43.31    1.93
   0  -6  -4   21.04    1.22
   0  -6  -4   22.68    1.26
   0  -6  -4   21.59    1.32
   0   6   4   22.49    1.21
   0   6   4   21.51    1.34
   0   6   4   22.53    1.45
   0   6   4   21.46    1.25
  -1  -6  -4   76.60    3.13
  -1  -6  -4   71.26    3.13
  -1  -6  -4   72.66    3.18
   1   6   4   70.66    3.24
   1   6   4   70.62    3.17
   1   6   4   69.97    3.19
   1   6   4   66.37    3.24
  -2  -6  -4  173.51    6.99
  -2  -6  -4  182.31    6.89
  -2  -6  -4  169.60    6.95
  -2  -6  -4  162.86    6.74
   2   6   4  156.22    7.00
   2   6   4  164.14    7.06
   2   6   4  169.39    7.00
   2   6   4  168.66    7.11
  -3  -6  -4   39.06    1.67
  -3  -6  -4   36.56    1.84
  -3  -6  -4   37.91    1.79
  -3  -6  -4   38.32    1.56
   3   6   4   37.85    2.12
   3   6   4   34.32    1.93
   3   6   4   36.27    1.85
   3   6   4   37.81    1.92
  -4  -6  -4   14.80    0.68
  -4  -6  -4   15.42    0.92
  -4  -6  -4   13.49    0.98
   4   6   4   12.65    1.38
   4   6   4   14.27    1.12
   4   6   4   14.07    0.98
   4   6   4   16.13    1.16
  -5  -6  -4   40.24    1.65
  -5  -6  -4   39.40    1.73
  -5  -6  -4   38.09    1.78
   5   6   4   38.65    2.05
   5   6   4   38.63    2.44
   5   6   4   37.05    2.06
   5   6   4   36.33    1.82
  -6  -6  -4    0.66    0.32
   6   6   4    0.95    0.36
   6   6   4    0.68    0.56
   6   6   4    0.64    0.90
   6   6   4    1.62    0.72
   7   6   4    2.46    1.13
   7   6   4    1.45    0.76
   8   6   4    6.42    1.09
   8   6   4    8.77    1.66
   9   6   4    8.92    2.01
   7  -7  -4    2.56    1.13
   7  -7  -4    2.38    0.94
   7  -7  -4    4.33    0.84
   6  -7  -4    1.44    0.69
   6  -7  -4   -0.36    0.77
   6  -7  -4    2.08    0.75
   5  -7  -4   29.91    1.96
   5  -7  -4   29.72    2.00
   5  -7  -4   32.62    1.75
   5  -7  -4   25.55    2.12
   4  -7  -4   56.87    2.68
   4  -7  -4   52.21    2.85
   4  -7  -4   54.86    2.92
   4  -7  -4   54.41    3.13
  -4   7   4   59.37    2.49
   3  -7  -4  154.00    6.35
   3  -7  -4  147.73    6.43
   3  -7  -4  151.85    6.57
  -3   7   4  144.08    6.24
  -3   7   4  151.87    6.36
   2  -7  -4  121.33    4.94
   2  -7  -4  116.71    5.10
   2  -7  -4  112.44    5.01
  -2   7   4  100.96    5.24
  -2   7   4  119.87    5.05
  -2   7   4  111.11    4.89
  -2   7   4  118.48    4.67
   1  -7  -4   38.68    1.98
   1  -7  -4   39.03    2.08
   1  -7  -4   41.22    2.10
  -1   7   4   41.56    1.84
  -1   7   4   35.06    2.26
  -1   7   4   42.72    2.17
  -1   7   4   38.30    2.01
   0  -7  -4   37.85    1.90
   0  -7  -4   40.74    1.96
   0  -7  -4   38.70    1.98
   0   7   4   37.38    1.83
   0   7   4   35.25    1.91
   0   7   4   36.14    2.03
   0   7   4   34.28    2.12
  -1  -7  -4   57.82    2.75
  -1  -7  -4   59.78    2.70
  -1  -7  -4   61.41    2.70
   1   7   4   59.41    2.84
   1   7   4   58.68    2.74
   1   7   4   54.55    2.73
   1   7   4   57.23    2.89
  -2  -7  -4   64.78    2.98
  -2  -7  -4   65.69    2.70
  -2  -7  -4   71.62    2.88
  -2  -7  -4   65.78    2.94
   2   7   4   61.52    3.06
   2   7   4   59.18    3.04
   2   7   4   62.16    3.01
   2   7   4   64.74    3.09
  -3  -7  -4   18.34    1.27
  -3  -7  -4   21.30    1.03
  -3  -7  -4   19.23    1.21
  -3  -7  -4   19.65    0.90
   3   7   4   17.63    1.52
   3   7   4   18.20    1.34
   3   7   4   17.91    1.35
   3   7   4   19.11    1.34
  -4  -7  -4  128.58    5.02
  -4  -7  -4  120.11    5.20
  -4  -7  -4  127.09    5.19
  -4  -7  -4  128.71    4.94
   4   7   4  118.90    5.33
   4   7   4  112.30    5.41
   4   7   4  121.17    5.39
   4   7   4  123.35    5.62
  -5  -7  -4    1.25    0.42
  -5  -7  -4    0.73    0.27
  -5  -7  -4    1.32    0.54
   5   7   4    1.70    0.64
   5   7   4    0.25    0.85
   5   7   4    1.40    0.51
   5   7   4    1.03    0.72
  -6  -7  -4   19.39    1.07
  -6  -7  -4   20.97    1.02
  -6  -7  -4   20.09    1.09
   6   7   4   19.23    2.12
   6   7   4   20.90    1.61
   7   7   4   30.66    2.74
   8   7   4    9.22    1.76
   8   7   4    6.20    1.36
   7  -8  -4   14.53    2.18
   7  -8  -4   11.47    1.53
   7  -8  -4   17.75    2.23
   6  -8  -4    1.23    0.92
   6  -8  -4    2.47    0.88
   6  -8  -4    1.90    1.09
   5  -8  -4   30.82    2.22
   5  -8  -4   30.08    2.15
   5  -8  -4   33.42    1.97
   4  -8  -4    2.10    0.65
   4  -8  -4    1.65    0.69
   4  -8  -4    1.42    0.66
  -4   8   4    0.59    0.51
   3  -8  -4   65.70    3.46
   3  -8  -4   65.12    3.28
   3  -8  -4   67.81    3.13
  -3   8   4   65.55    3.09
  -3   8   4   65.27    3.16
   2  -8  -4   16.48    1.40
   2  -8  -4   17.70    1.28
   2  -8  -4   14.59    1.40
  -2   8   4   18.49    1.36
  -2   8   4   17.85    1.44
   1  -8  -4   43.49    2.34
   1  -8  -4   46.67    2.38
   1  -8  -4   46.96    2.28
  -1   8   4   36.24    2.57
  -1   8   4   47.44    2.45
  -1   8   4   42.83    2.27
  -1   8   4   44.01    2.01
   0  -8  -4   85.83    3.71
   0  -8  -4   84.45    3.76
   0  -8  -4   81.05    3.75
   0   8   4   82.20    3.84
   0   8   4   84.18    3.59
   0   8   4   78.64    3.72
   0   8   4   72.85    3.93
  -1  -8  -4   45.26    2.15
  -1  -8  -4   41.19    2.22
  -1  -8  -4   41.67    2.17
   1   8   4   36.88    2.35
   1   8   4   39.57    2.22
   1   8   4   44.02    2.17
   1   8   4   41.38    2.30
  -2  -8  -4    3.56    0.70
  -2  -8  -4    4.77    0.58
  -2  -8  -4    4.08    0.66
  -2  -8  -4    4.78    0.49
   2   8   4    3.05    0.74
   2   8   4    3.57    0.77
   2   8   4    4.07    0.75
   2   8   4    4.23    0.77
  -3  -8  -4  143.35    5.62
  -3  -8  -4  140.97    5.91
  -3  -8  -4  151.74    5.77
  -3  -8  -4  135.35    5.92
   3   8   4  124.74    5.99
   3   8   4  130.55    6.02
   3   8   4  136.71    6.08
   3   8   4  144.53    6.21
  -4  -8  -4    0.31    0.62
  -4  -8  -4    0.40    0.24
  -4  -8  -4    0.49    0.48
  -4  -8  -4    0.11    0.23
   4   8   4    1.04    0.67
   4   8   4    0.49    0.71
   4   8   4    0.42    0.62
  -5  -8  -4    1.67    0.64
  -5  -8  -4    2.57    0.58
  -5  -8  -4    1.49    0.33
   5   8   4    1.33    0.63
   5   8   4    2.07    0.91
   5   8   4    1.97    0.81
  -6  -8  -4    0.41    0.43
   6   8   4    0.22    1.10
   6   8   4    0.03    0.79
   7   8   4   11.56    1.51
   7   8   4    7.19    1.49
   8   8   4    4.10    1.74
   8   8   4   -2.07    1.26
   6  -9  -4   -0.42    1.00
   6  -9  -4    1.63    1.02
   6  -9  -4    0.67    0.97
   5  -9  -4    3.60    1.03
   5  -9  -4    3.67    1.13
   5  -9  -4    5.49    1.08
   4  -9  -4    6.49    0.98
   4  -9  -4    7.22    1.21
  -4   9   4    8.01    0.87
   3  -9  -4   14.41    1.52
   3  -9  -4   17.07    1.73
  -3   9   4   12.31    1.49
  -3   9   4   13.21    1.44
   2  -9  -4   -0.46    0.51
   2  -9  -4   -0.49    0.54
  -2   9   4   -0.44    0.73
  -2   9   4   -0.05    0.75
   1  -9  -4    3.78    0.80
   1  -9  -4    5.39    0.82
  -1   9   4    4.32    0.54
  -1   9   4    5.81    1.02
  -1   9   4    5.21    0.94
   0  -9  -4    5.83    0.86
   0  -9  -4    4.10    0.73
   0   9   4    3.15    1.11
   0   9   4    4.76    0.67
   0   9   4    4.46    0.87
   0   9   4    5.74    0.92
  -1  -9  -4    1.44    0.58
  -1  -9  -4    0.84    0.57
   1   9   4    0.57    0.56
   1   9   4    1.49    0.75
   1   9   4    0.23    0.79
  -2  -9  -4    1.43    0.60
  -2  -9  -4    1.02    0.44
  -2  -9  -4    0.64    0.33
   2   9   4    0.55    0.77
   2   9   4    1.89    0.71
   2   9   4    1.61    0.74
  -3  -9  -4    2.67    0.38
  -3  -9  -4    2.99    0.49
  -3  -9  -4    2.51    0.69
   3   9   4    2.97    0.86
   3   9   4    3.69    0.87
  -4  -9  -4   -0.13    0.28
  -4  -9  -4    0.21    0.63
  -4  -9  -4   -0.10    0.26
  -4  -9  -4   -0.01    0.80
   4   9   4   -0.04    0.77
   4   9   4    0.44    0.74
  -5  -9  -4    5.88    0.84
  -5  -9  -4    5.14    0.91
   5   9   4    6.48    1.18
   5   9   4    6.49    1.42
   5   9   4    4.57    0.96
  -6  -9  -4    1.86    0.62
   6   9   4    2.55    1.37
   6   9   4    0.32    0.98
   7   9   4    1.07    1.44
   7   9   4    2.31    1.33
   5 -10  -4    4.19    1.30
   5 -10  -4    5.60    1.31
   5 -10  -4    9.05    1.50
   4 -10  -4    3.09    1.00
   4 -10  -4    2.45    1.02
   3 -10  -4   44.80    2.57
   3 -10  -4   44.55    2.78
  -3  10   4   36.70    2.64
   2 -10  -4    9.23    1.44
   2 -10  -4   10.87    1.42
  -2  10   4    9.86    1.33
  -2  10   4   13.64    1.76
   1 -10  -4   26.28    1.84
   1 -10  -4   27.89    1.92
  -1  10   4   23.61    2.08
  -1  10   4   25.25    1.35
   0 -10  -4    5.06    0.93
   0  10   4    4.85    1.25
   0  10   4    3.60    0.66
  -1 -10  -4    8.27    1.04
  -1 -10  -4    7.89    1.00
  -1 -10  -4    5.95    0.85
   1  10   4    6.51    1.09
   1  10   4    8.55    1.15
  -2 -10  -4   64.18    2.97
  -2 -10  -4   70.54    3.39
  -2 -10  -4   71.72    3.26
   2  10   4   66.22    3.46
   2  10   4   69.67    3.62
  -3 -10  -4    0.16    0.70
  -3 -10  -4    0.16    0.36
  -3 -10  -4    0.38    0.44
   3  10   4    0.03    0.88
   3  10   4   -0.61    1.02
   3  10   4   -0.20    0.82
  -4 -10  -4    1.55    0.43
  -4 -10  -4    2.88    0.79
  -4 -10  -4    2.14    0.46
   4  10   4    0.21    1.00
   4  10   4    1.10    0.98
   4  10   4    1.13    0.95
  -5 -10  -4   11.16    1.48
   5  10   4    9.58    1.45
   5  10   4   11.80    1.74
   6  10   4    4.77    1.67
   6  10   4    2.30    1.27
   4 -11  -4    8.29    1.48
   4 -11  -4   10.52    1.58
   3 -11  -4    1.52    1.07
   3 -11  -4    0.88    1.09
  -3  11   4    1.22    1.26
   2 -11  -4   52.16    3.16
   2 -11  -4   58.37    3.12
  -2  11   4   50.42    3.27
   1 -11  -4    3.98    1.03
   1 -11  -4    4.06    0.99
  -1  11   4    3.02    1.19
   0 -11  -4   16.67    1.64
   0 -11  -4   14.61    1.73
   0  11   4   15.68    1.26
   0  11   4   15.56    2.07
  -1 -11  -4   -1.08    0.73
  -1 -11  -4   -0.47    0.60
   1  11   4    0.41    0.74
   1  11   4    1.61    1.16
  -2 -11  -4    0.70    0.87
   2  11   4    1.86    1.07
   2  11   4    1.29    0.92
  -3 -11  -4    6.87    1.03
  -3 -11  -4    6.29    1.08
   3  11   4    8.02    1.35
   3  11   4    9.68    1.54
  -4 -11  -4    4.35    0.67
  -4 -11  -4    5.83    1.12
   4  11   4    5.55    1.44
   4  11   4    4.76    1.36
  -5 -11  -4   17.21    1.99
   5  11   4   11.41    1.85
   5  11   4   12.41    1.76
   6  11   4    6.57    1.80
   6  11   4    5.36    1.60
   3 -12  -4   26.40    2.59
   3 -12  -4   26.92    2.70
   2 -12  -4    3.90    1.28
   2 -12  -4    1.78    1.17
  -2  12   4    2.58    1.70
   1 -12  -4   11.73    1.55
   1 -12  -4   12.27    1.61
  -1  12   4   12.82    1.86
   0 -12  -4   -0.84    0.93
   0 -12  -4   -0.12    0.99
   0  12   4    1.15    1.34
  -1 -12  -4    1.47    1.00
  -1 -12  -4    2.82    0.97
   1  12   4    2.68    1.42
   1  12   4    5.41    1.09
  -2 -12  -4    0.44    1.05
  -2 -12  -4    0.23    0.80
   2  12   4    1.36    1.37
   2  12   4    1.05    1.38
  -3 -12  -4   21.76    2.08
  -3 -12  -4   23.28    1.73
   3  12   4   17.85    2.14
   3  12   4   22.06    2.58
  -4 -12  -4    2.35    1.17
   4  12   4    0.59    1.56
   4  12   4   -1.24    1.48
   1 -13  -4   12.94    1.74
  -1  13   4   12.59    2.35
   0 -13  -4   -0.28    1.20
   0 -13  -4    3.64    1.45
   0  13   4    1.69    1.71
  -1 -13  -4   -0.32    1.25
  -1 -13  -4   -0.34    1.07
   1  13   4   -1.94    1.62
  -2 -13  -4    1.21    1.32
  -2 -13  -4    0.46    1.06
   2  13   4   -4.52    1.78
   3  10  -5    3.13    1.43
  -3 -10   5    3.57    1.46
   2  10  -5    3.22    1.34
  -2 -10   5    1.47    1.30
  -2 -10   5   -0.64    1.32
   1  10  -5    2.51    1.21
  -1 -10   5    0.24    1.44
  -1 -10   5    2.02    1.22
   0  10  -5   -1.01    1.23
   0 -10   5   -0.38    1.19
   0 -10   5    1.00    1.33
  -1  10  -5   23.66    2.75
   1 -10   5   24.34    2.49
   1 -10   5   25.61    2.88
  -2  10  -5    2.06    1.43
   2 -10   5    3.77    1.51
   2 -10   5    2.78    1.34
   3 -10   5    0.21    1.68
   4   9  -5   21.65    2.23
  -4  -9   5   14.93    1.78
   3   9  -5    6.62    1.26
  -3  -9   5    8.46    1.23
  -3  -9   5    5.28    1.30
   2   9  -5    2.05    1.12
  -2  -9   5    2.60    1.15
  -2  -9   5    1.74    1.06
   1   9  -5   -0.65    0.99
  -1  -9   5    1.30    1.07
  -1  -9   5    2.20    1.09
   0   9  -5    0.52    1.01
   0  -9   5    1.74    1.00
   0  -9   5   -0.03    1.07
  -1   9  -5   -0.52    0.99
   1  -9   5   -0.04    0.96
   1  -9   5    2.07    1.22
  -2   9  -5    9.84    1.47
   2  -9   5    8.62    1.76
   2  -9   5    9.94    1.44
   3  -9   5    2.23    1.17
   3  -9   5    3.15    1.43
   4  -9   5    0.15    1.30
   4  -9   5    2.52    1.40
   5   8  -5    0.29    1.09
  -5  -8   5   -0.76    1.20
   4   8  -5    0.26    0.93
  -4  -8   5    0.60    0.98
   3   8  -5   -0.35    0.93
  -3  -8   5    1.39    0.97
  -3  -8   5    0.39    0.75
   2   8  -5    4.57    0.98
  -2  -8   5    4.60    1.04
  -2  -8   5    3.69    0.96
   1   8  -5    3.63    1.19
   1   8  -5    3.60    0.89
  -1  -8   5    4.91    1.03
  -1  -8   5    3.60    1.02
   0   8  -5   21.29    1.77
   0   8  -5   22.35    1.78
   0  -8   5   23.62    1.87
  -1   8  -5   41.79    2.27
  -1   8  -5   39.65    2.40
   1  -8   5   39.41    2.45
   1  -8   5   38.39    2.84
  -2   8  -5   12.73    1.58
  -2   8  -5   10.75    1.47
   2  -8   5   12.65    1.80
   2  -8   5   12.12    1.61
  -3   8  -5   19.18    1.54
   3  -8   5   19.58    1.88
   3  -8   5   16.55    2.51
   4  -8   5    4.52    1.23
   4  -8   5    3.50    1.61
   5  -8   5   -0.11    1.43
   5  -8   5   -0.10    1.24
   6   7  -5    5.79    1.29
   6   7  -5    6.07    0.79
  -6  -7   5    4.19    1.25
   5   7  -5    8.82    1.28
   5   7  -5    8.34    0.94
  -5  -7   5    5.16    1.14
   4   7  -5    0.28    0.73
  -4  -7   5    0.64    0.50
  -4  -7   5    0.68    0.85
   3   7  -5    0.02    0.69
  -3  -7   5    0.89    0.62
  -3  -7   5    0.21    0.75
   2   7  -5    0.96    0.62
  -2  -7   5    0.30    0.65
  -2  -7   5    1.62    0.79
   1   7  -5    1.22    0.86
  -1  -7   5    1.55    0.77
  -1  -7   5    0.64    0.71
   0   7  -5    3.06    0.77
   0   7  -5    2.15    0.76
   0  -7   5    3.75    0.91
  -1   7  -5   -0.81    0.96
  -1   7  -5   -0.01    0.67
  -1   7  -5   -0.48    0.55
   1  -7   5   -0.21    0.66
   1  -7   5   -0.64    0.76
  -2   7  -5   26.91    2.06
  -2   7  -5   24.35    1.64
  -2   7  -5   26.92    1.81
   2  -7   5   23.65    1.79
   2  -7   5   21.24    2.15
  -3   7  -5   47.24    2.19
  -3   7  -5   47.03    2.72
  -3   7  -5   49.45    2.35
   3  -7   5   47.73    3.26
   3  -7   5   48.87    2.65
   4  -7   5    0.71    1.24
   4  -7   5    2.10    0.89
   5  -7   5    1.40    1.25
   6  -7   5    3.34    1.75
   6  -7   5    0.67    1.09
   7   6  -5    0.30    0.59
   7   6  -5   -0.88    1.12
   6   6  -5    6.18    1.19
   6   6  -5    6.49    0.74
  -6  -6   5    7.80    1.10
   5   6  -5    1.01    0.46
   5   6  -5    1.49    0.84
  -5  -6   5    1.11    1.25
   4   6  -5   -0.12    0.68
   4   6  -5   -0.04    0.34
  -4  -6   5   -0.08    0.41
  -4  -6   5   -0.17    0.69
  -4  -6   5    0.06    0.24
   3   6  -5   16.44    0.98
  -3  -6   5   11.75    1.18
  -3  -6   5   14.15    1.41
   2   6  -5    1.45    0.60
   2   6  -5    3.47    0.90
  -2  -6   5    2.70    0.76
  -2  -6   5    2.03    0.66
   1   6  -5   31.20    2.29
   1   6  -5   33.89    1.85
   1   6  -5   31.95    1.95
  -1  -6   5   32.41    1.93
  -1  -6   5   27.77    1.97
   0   6  -5   10.33    1.18
   0   6  -5    8.90    1.05
   0   6  -5    9.42    1.25
   0  -6   5   10.89    0.75
   0  -6   5   10.45    1.18
   0  -6   5    7.75    1.11
   0  -6   5    9.14    1.08
  -1   6  -5   11.12    1.10
  -1   6  -5   12.40    1.13
  -1   6  -5   10.20    1.23
   1  -6   5   14.44    1.10
   1  -6   5   10.16    1.47
   1  -6   5   10.75    1.18
   1  -6   5   12.09    1.22
  -2   6  -5    1.81    0.58
  -2   6  -5    2.54    0.60
  -2   6  -5    1.85    0.83
   2  -6   5    1.33    0.88
   2  -6   5    1.19    0.64
   2  -6   5    3.34    0.76
  -3   6  -5    2.54    0.53
  -3   6  -5    2.82    0.58
  -3   6  -5    1.90    0.71
   3  -6   5    1.80    0.73
   3  -6   5    1.43    1.06
   3  -6   5    2.24    0.72
   4  -6   5   28.60    2.57
   4  -6   5   27.81    1.87
   4  -6   5   26.75    1.82
   5  -6   5   22.29    2.66
   5  -6   5   26.98    1.88
   6  -6   5   11.89    1.92
   6  -6   5    9.31    1.22
   7  -6   5    7.73    2.04
   7   5  -5    5.41    1.20
   7   5  -5    5.70    0.73
   6   5  -5    7.81    0.87
   6   5  -5    8.39    1.21
  -6  -5   5    7.55    0.94
   5   5  -5   19.43    1.53
   5   5  -5   17.80    1.10
  -5  -5   5   19.57    1.50
  -5  -5   5   15.57    1.32
   4   5  -5   12.24    0.86
   4   5  -5   12.53    1.25
  -4  -5   5   13.76    1.29
  -4  -5   5   13.85    1.16
  -4  -5   5   12.60    0.66
  -4  -5   5    9.91    0.90
   3   5  -5   12.33    1.12
   3   5  -5    6.56    1.82
   3   5  -5   10.51    1.46
   3   5  -5   11.16    0.78
  -3  -5   5   11.71    0.82
  -3  -5   5    8.59    0.93
  -3  -5   5   11.87    1.24
  -3  -5   5   11.87    1.04
   2   5  -5   90.80    4.13
   2   5  -5   89.79    3.79
   2   5  -5   94.46    4.31
   2   5  -5   92.25    4.03
  -2  -5   5   93.48    4.10
  -2  -5   5   89.16    3.75
  -2  -5   5   91.73    3.96
  -2  -5   5   74.96    4.00
   1   5  -5    0.34    0.39
   1   5  -5    0.19    0.72
   1   5  -5   -0.14    0.53
  -1  -5   5    0.22    0.44
  -1  -5   5    0.30    0.46
  -1  -5   5   -0.26    0.26
   0   5  -5    0.54    0.68
   0   5  -5   -0.03    0.40
   0   5  -5   -0.04    0.50
   0  -5   5    1.04    0.49
   0  -5   5    0.02    0.43
   0  -5   5   -0.06    0.24
  -1   5  -5    9.70    0.97
  -1   5  -5   11.52    1.30
  -1   5  -5    9.94    0.90
   1  -5   5    9.57    0.95
   1  -5   5    9.99    1.04
  -2   5  -5   17.87    1.16
  -2   5  -5   17.95    1.13
  -2   5  -5   17.11    1.39
   2  -5   5   17.11    1.22
   2  -5   5   17.13    1.64
   2  -5   5   18.30    0.99
   2  -5   5   17.93    1.32
  -3   5  -5    3.18    0.58
  -3   5  -5    1.41    0.55
  -3   5  -5    1.86    0.43
   3  -5   5    1.40    0.56
   3  -5   5    1.41    0.57
   3  -5   5    1.61    0.86
   3  -5   5    1.96    0.38
   4  -5   5   79.61    3.58
   4  -5   5   74.63    3.48
   5  -5   5    6.39    0.86
   5  -5   5    6.81    0.87
   5  -5   5    4.85    1.35
   6  -5   5   30.25    1.98
   6  -5   5   30.80    3.03
   7  -5   5    6.27    1.82
   8   4  -5   19.20    1.37
   8   4  -5   18.03    2.25
   7   4  -5    6.41    1.18
   7   4  -5    9.09    0.92
   6   4  -5    0.34    0.63
   6   4  -5    0.04    0.34
  -6  -4   5    0.74    0.57
  -6  -4   5    0.66    0.75
   5   4  -5   17.57    1.38
   5   4  -5   18.57    1.02
  -5  -4   5   15.98    1.18
  -5  -4   5   16.49    1.34
   4   4  -5    4.72    0.53
   4   4  -5    5.25    0.76
   4   4  -5    6.07    1.17
  -4  -4   5    3.26    0.50
  -4  -4   5    4.32    0.65
  -4  -4   5    3.44    0.38
  -4  -4   5    3.00    0.66
  -4  -4   5    3.57    0.51
   3   4  -5   89.15    4.35
   3   4  -5   94.92    4.08
   3   4  -5   89.80    4.23
   3   4  -5   92.94    3.84
  -3  -4   5   91.04    4.12
  -3  -4   5   90.61    3.83
  -3  -4   5   91.39    3.97
   2   4  -5  253.56   10.17
   2   4  -5  253.98   10.46
   2   4  -5  258.61   10.37
   2   4  -5  257.22   10.57
  -2  -4   5  241.21   10.40
  -2  -4   5  251.74   10.14
  -2  -4   5  251.85   10.29
   1   4  -5    3.41    0.43
   1   4  -5    1.66    0.65
   1   4  -5    2.95    0.59
   1   4  -5    2.76    0.53
  -1  -4   5    2.63    0.60
  -1  -4   5    2.81    0.32
  -1  -4   5    2.96    0.53
   0   4  -5    7.37    0.74
   0   4  -5    9.24    1.05
   0   4  -5    9.66    0.92
   0  -4   5    7.28    0.85
   0  -4   5    8.70    0.56
   0  -4   5    8.05    0.76
  -1   4  -5   54.22    2.64
  -1   4  -5   51.91    2.41
   1  -4   5   54.46    2.45
   1  -4   5   52.86    2.56
   1  -4   5   51.43    2.27
  -2   4  -5    0.20    0.38
  -2   4  -5    0.40    0.49
  -2   4  -5    0.22    0.32
   2  -4   5    0.37    0.39
   2  -4   5   -0.18    0.37
   2  -4   5   -0.28    0.21
  -3   4  -5   51.88    2.41
  -3   4  -5   53.01    2.25
  -3   4  -5   51.04    2.29
   3  -4   5   49.80    2.27
   3  -4   5   53.99    2.42
   3  -4   5   50.01    2.31
   3  -4   5   52.20    2.50
  -4   4  -5   19.75    1.27
   4  -4   5   19.44    1.30
   4  -4   5   19.71    1.08
   4  -4   5   16.43    1.79
   4  -4   5   19.53    1.23
   5  -4   5   -0.25    0.48
   5  -4   5    0.27    0.47
   5  -4   5    0.64    1.03
   5  -4   5    0.52    0.34
   6  -4   5   14.10    1.22
   6  -4   5   13.67    1.00
   6  -4   5   12.96    1.19
   6  -4   5   14.81    2.03
   7  -4   5    2.29    0.68
   7  -4   5    2.17    1.47
   8  -4   5    1.87    1.71
   8  -4   5    0.02    0.87
   8   3  -5    2.55    0.58
   8   3  -5    2.48    1.14
   7   3  -5    8.51    1.11
   7   3  -5    9.99    0.86
   6   3  -5   15.80    1.35
   6   3  -5   15.64    1.07
  -6  -3   5   16.77    1.06
  -6  -3   5   17.64    1.24
   5   3  -5   82.39    4.20
   5   3  -5   84.29    3.81
   5   3  -5   86.93    3.57
  -5  -3   5   84.45    3.60
  -5  -3   5   82.69    3.71
   4   3  -5    0.90    0.45
   4   3  -5    0.35    0.76
   4   3  -5    0.76    0.26
  -4  -3   5    1.26    0.39
  -4  -3   5    0.02    0.46
  -4  -3   5    0.54    0.21
  -4  -3   5    0.65    0.39
   3   3  -5  110.94    4.84
   3   3  -5  117.51    5.12
   3   3  -5  111.86    5.01
   3   3  -5  113.77    4.66
  -3  -3   5  114.81    4.76
  -3  -3   5  108.79    4.87
  -3  -3   5  118.22    4.60
  -3  -3   5  109.20    4.67
   2   3  -5   70.38    3.20
   2   3  -5   70.43    3.32
   2   3  -5   69.99    2.89
   2   3  -5   66.37    3.05
  -2  -3   5   68.98    3.01
  -2  -3   5   69.01    2.88
  -2  -3   5   64.78    3.13
   1   3  -5  382.26   15.39
   1   3  -5  396.86   15.49
   1   3  -5  401.50   15.59
   1   3  -5  370.17   15.24
  -1  -3   5  365.83   15.21
  -1  -3   5  378.84   15.35
  -1  -3   5  382.25   15.48
   0   3  -5  403.12   15.69
   0   3  -5  358.10   15.38
   0   3  -5  394.77   15.51
   0   3  -5  397.02   15.58
   0  -3   5  377.75   15.36
   0  -3   5  388.05   15.49
   0  -3   5  384.72   15.62
  -1   3  -5   14.74    0.99
  -1   3  -5   13.74    0.86
   1  -3   5   14.28    0.75
   1  -3   5   15.16    0.91
   1  -3   5   14.33    1.01
   1  -3   5   13.95    0.89
  -2   3  -5   59.12    2.64
  -2   3  -5   58.86    2.62
  -2   3  -5   57.39    2.50
   2  -3   5   57.06    2.45
   2  -3   5   58.40    2.57
   2  -3   5   57.39    2.57
   2  -3   5   56.64    2.67
  -3   3  -5   11.24    0.93
  -3   3  -5   11.62    0.66
  -3   3  -5   11.79    0.66
   3  -3   5   11.77    0.79
   3  -3   5   11.02    0.88
   3  -3   5   11.95    0.83
   3  -3   5   10.94    0.69
  -4   3  -5   49.63    2.39
   4  -3   5   50.52    2.29
   4  -3   5   50.51    2.26
   4  -3   5   48.78    2.34
   5  -3   5   39.17    1.95
   5  -3   5   40.96    1.88
   5  -3   5   40.61    1.95
   5  -3   5   37.10    2.62
   6  -3   5   37.38    1.75
   6  -3   5   35.59    1.87
   6  -3   5   31.13    3.00
   6  -3   5   35.89    1.83
   7  -3   5    3.61    0.63
   7  -3   5    2.80    0.72
   7  -3   5    5.20    0.76
   7  -3   5    4.67    1.37
   8  -3   5   13.44    1.49
   8  -3   5   13.43    2.16
   8   2  -5   12.33    1.40
   8   2  -5   10.55    1.01
   7   2  -5   10.65    0.87
   7   2  -5   11.02    1.29
   6   2  -5   12.70    1.11
   6   2  -5   11.45    0.81
   6   2  -5   12.50    1.63
  -6  -2   5   11.61    0.71
  -6  -2   5   11.62    0.76
   5   2  -5    3.94    0.49
   5   2  -5    5.83    1.05
   5   2  -5    4.56    0.63
  -5  -2   5    3.21    0.53
  -5  -2   5    4.32    0.64
   4   2  -5    1.50    0.73
   4   2  -5    2.05    0.46
   4   2  -5    1.48    0.28
   4   2  -5    1.87    0.63
  -4  -2   5    0.51    0.34
  -4  -2   5    1.86    0.29
  -4  -2   5    1.17    0.44
  -4  -2   5    1.68    0.38
   3   2  -5   23.54    1.27
   3   2  -5   24.80    1.60
   3   2  -5   23.40    1.11
   3   2  -5   21.93    1.46
  -3  -2   5   22.28    1.33
  -3  -2   5   22.68    1.20
  -3  -2   5   23.45    1.07
  -3  -2   5   23.52    1.15
   2   2  -5   53.96    2.57
   2   2  -5   50.21    2.40
   2   2  -5   54.85    2.27
   2   2  -5   52.48    2.64
  -2  -2   5   55.49    2.38
  -2  -2   5   53.10    2.51
  -2  -2   5   54.70    2.29
   1   2  -5 1119.65   44.94
   1   2  -5 1194.61   45.13
   1   2  -5 1146.36   45.04
  -1  -2   5 1095.05   44.80
  -1  -2   5 1112.84   44.90
   0   2  -5  999.11   41.24
   0   2  -5 1056.32   41.00
   0   2  -5 1051.18   41.08
   0  -2   5 1020.60   41.05
   0  -2   5 1044.45   41.12
   0  -2   5 1031.23   40.97
  -1   2  -5  569.62   22.38
  -1   2  -5  589.83   22.44
  -1   2  -5  558.58   22.29
   1  -2   5  540.37   22.20
   1  -2   5  554.82   22.30
   1  -2   5  555.68   22.42
   1  -2   5  552.32   22.36
  -2   2  -5  800.55   31.17
  -2   2  -5  763.81   31.03
  -2   2  -5  805.00   31.13
   2  -2   5  774.26   31.19
   2  -2   5  750.65   30.99
   2  -2   5  804.27   31.15
  -3   2  -5  116.78    4.68
   3  -2   5  104.29    4.62
   3  -2   5  104.61    4.46
   3  -2   5  112.59    4.53
   3  -2   5  108.61    4.61
   4  -2   5   17.71    0.97
   4  -2   5   19.28    1.09
   4  -2   5   16.34    1.05
   5  -2   5  108.69    4.39
   5  -2   5  105.98    4.48
   5  -2   5  103.89    4.59
   6  -2   5   41.09    1.85
   6  -2   5   40.31    1.94
   6  -2   5   42.33    2.13
   6  -2   5   39.84    2.77
   7  -2   5    3.84    0.59
   7  -2   5    2.99    0.60
   7  -2   5    2.75    0.77
   7  -2   5    2.83    0.55
   8  -2   5    6.59    0.83
   8  -2   5    6.49    1.10
   8  -2   5    4.76    1.57
   9  -2   5    9.34    2.00
   8   1  -5    1.15    0.52
   7   1  -5   92.79    3.88
   7   1  -5   87.14    4.05
   6   1  -5    4.87    1.22
   6   1  -5    4.69    0.51
   6   1  -5    4.33    0.64
   5   1  -5  188.38    7.66
   5   1  -5  184.37    7.19
   5   1  -5  179.69    7.30
   5   1  -5  183.00    7.62
  -5  -1   5  176.16    7.34
  -5  -1   5  150.59    7.17
  -5  -1   5  175.48    7.12
  -5  -1   5  176.15    7.18
   4   1  -5  137.82    5.45
   4   1  -5  140.69    5.86
   4   1  -5  128.00    5.54
   4   1  -5  132.24    5.79
  -4  -1   5  129.08    5.52
  -4  -1   5  134.01    5.54
  -4  -1   5  131.68    5.45
  -4  -1   5  131.20    5.54
   3   1  -5    9.05    0.69
   3   1  -5    8.25    0.92
   3   1  -5    8.67    1.01
   3   1  -5    9.14    0.56
  -3  -1   5    9.19    0.56
  -3  -1   5   10.38    0.65
  -3  -1   5    7.63    0.74
  -3  -1   5    9.11    0.63
   2   1  -5  100.93    4.20
   2   1  -5   97.94    4.25
   2   1  -5   94.57    4.03
   2   1  -5   92.19    3.92
  -2  -1   5   93.10    3.99
  -2  -1   5   96.44    3.95
  -2  -1   5   97.33    3.92
   1   1  -5  206.34    8.26
   1   1  -5  209.76    8.38
  -1  -1   5  203.83    8.49
   0   1  -5    7.99    0.68
   0   1  -5    8.61    0.80
   0   1  -5    7.94    0.45
   0   1  -5    8.11    0.58
   0  -1   5    8.22    0.45
   0  -1   5    8.45    0.65
   0  -1   5    7.94    0.58
   0  -1   5    7.75    0.72
  -1   1  -5  131.85    5.67
  -1   1  -5  148.66    5.88
  -1   1  -5  143.46    5.88
  -1   1  -5  144.04    5.76
   1  -1   5  137.59    5.88
   1  -1   5  140.82    5.75
   1  -1   5  142.24    5.85
   1  -1   5  141.05    5.66
  -2   1  -5  336.84   13.08
  -2   1  -5  333.57   13.17
  -2   1  -5  322.90   12.99
   2  -1   5  326.58   13.03
   2  -1   5  331.66   13.15
   2  -1   5  308.74   12.95
   2  -1   5  323.35   13.15
  -3   1  -5    0.72    0.38
   3  -1   5    0.15    0.15
   3  -1   5    0.29    0.22
   3  -1   5    0.15    0.28
   3  -1   5    0.47    0.29
  -4   1  -5    2.04    0.56
   4  -1   5    1.13    0.35
   4  -1   5    1.46    0.38
   4  -1   5    1.22    0.26
   5  -1   5  145.61    6.00
   5  -1   5  149.25    5.89
   5  -1   5  141.96    6.17
   6  -1   5   13.46    1.61
   6  -1   5   15.59    0.80
   6  -1   5   14.77    0.96
   6  -1   5   14.08    1.24
   6  -1   5   14.37    1.07
   7  -1   5    1.12    0.91
   7  -1   5    0.33    0.51
   7  -1   5    0.17    0.31
   7  -1   5    1.70    0.73
   7  -1   5   -0.13    0.37
   8  -1   5    8.83    1.39
   8  -1   5    8.24    0.92
   9  -1   5   17.34    2.29
   9  -1   5   11.49    1.87
   8   0  -5   14.60    1.11
   8   0  -5   16.07    1.46
   7   0  -5   17.23    1.08
   7   0  -5   17.32    2.33
   7   0  -5   17.35    1.25
   6   0  -5   18.34    1.14
   6   0  -5   18.89    1.03
   6   0  -5   17.01    1.82
  -6   0   5   16.06    1.22
   5   0  -5   21.10    1.56
   5   0  -5   21.55    1.18
   5   0  -5   23.33    1.67
   5   0  -5   22.02    1.10
  -5   0   5   20.14    1.04
  -5   0   5   17.73    1.23
  -5   0   5   20.87    1.01
  -5   0   5   23.07    1.39
   4   0  -5   74.15    3.20
   4   0  -5   75.23    3.15
   4   0  -5   75.34    3.47
   4   0  -5   79.17    3.52
  -4   0   5   72.95    3.23
  -4   0   5   74.48    3.12
  -4   0   5   76.19    3.22
  -4   0   5   70.60    3.27
   3   0  -5   96.18    4.17
   3   0  -5   94.85    4.19
   3   0  -5   95.53    3.97
   3   0  -5   92.72    3.90
  -3   0   5   97.03    3.98
  -3   0   5   94.99    3.94
  -3   0   5   92.44    4.04
  -3   0   5   93.99    3.92
   2   0  -5   19.00    1.11
   2   0  -5   16.25    0.82
   2   0  -5   17.36    0.91
   2   0  -5   17.87    1.16
  -2   0   5   17.41    0.89
  -2   0   5   18.00    1.04
  -2   0   5   17.03    0.85
  -2   0   5   17.11    0.88
   1   0  -5   50.20    2.14
   1   0  -5   50.45    2.23
   1   0  -5   53.83    2.38
   1   0  -5   53.47    2.43
  -1   0   5   52.58    2.38
  -1   0   5   50.00    2.21
  -1   0   5   51.68    2.16
  -1   0   5   50.68    2.33
  -1   0   5   52.15    2.18
   0   0  -5   23.89    1.15
   0   0  -5   23.75    1.27
   0   0  -5   26.67    1.35
   0   0  -5   24.48    1.05
   0   0   5   24.44    1.06
   0   0   5   23.97    1.14
   0   0   5   23.95    1.30
  -1   0  -5  161.27    6.55
  -1   0  -5  164.19    6.67
  -1   0  -5  163.18    6.69
  -1   0  -5  158.00    6.48
   1   0   5  167.43    6.71
   1   0   5  158.27    6.47
   1   0   5  162.25    6.55
   1   0   5  164.33    6.69
  -2   0  -5    8.51    0.73
  -2   0  -5    8.23    0.49
  -2   0  -5    7.99    0.57
   2   0   5    7.30    0.64
   2   0   5    8.12    0.40
   2   0   5    7.84    0.50
   2   0   5    7.43    0.63
  -3   0  -5  334.40   13.17
   3   0   5  329.91   13.02
   3   0   5  303.67   12.84
   3   0   5  321.85   12.89
   3   0   5  329.86   13.11
  -4   0  -5   19.74    1.38
   4   0   5   20.56    1.27
   4   0   5   21.38    0.97
   4   0   5   20.98    1.10
   5   0   5   11.51    0.64
   5   0   5   13.69    1.07
   6   0   5   76.50    3.38
   6   0   5   77.61    3.28
   6   0   5   78.15    3.16
   6   0   5   76.70    3.65
   7   0   5   22.05    2.04
   7   0   5   28.23    1.36
   7   0   5   27.39    1.24
   7   0   5   29.25    1.44
   7   0   5   28.12    1.93
   8   0   5    4.94    1.25
   8   0   5    4.41    1.35
   8   0   5    5.20    0.54
   9   0   5   24.73    3.87
   9   0   5   30.08    2.83
   8  -1  -5    1.56    0.69
   8  -1  -5    1.07    0.48
   7  -1  -5   20.62    1.22
   7  -1  -5   19.61    1.30
   7  -1  -5   21.59    1.06
   7  -1  -5   20.36    2.17
   6  -1  -5   96.20    4.44
   6  -1  -5  101.21    3.91
   6  -1  -5   93.75    4.01
   6  -1  -5   94.68    4.43
   6  -1  -5   98.61    4.02
  -6   1   5   78.10    4.19
   5  -1  -5  108.21    4.73
   5  -1  -5  106.00    4.42
   5  -1  -5  107.71    4.35
   5  -1  -5  102.67    4.41
   5  -1  -5  107.18    4.76
  -5   1   5  100.51    4.61
   4  -1  -5  115.94    4.74
   4  -1  -5  106.24    4.73
   4  -1  -5  113.88    4.42
   4  -1  -5  106.40    4.47
   4  -1  -5  107.09    4.46
  -4   1   5  107.79    4.46
  -4   1   5  106.24    4.40
  -4   1   5  101.83    4.58
  -4   1   5  101.82    4.58
   3  -1  -5 1213.52   47.40
   3  -1  -5 1203.35   47.22
   3  -1  -5 1173.19   47.20
   3  -1  -5 1254.99   47.44
  -3   1   5 1193.63   47.30
  -3   1   5 1136.16   47.27
  -3   1   5 1176.14   47.28
   2  -1  -5   16.94    0.80
   2  -1  -5   15.73    0.79
   2  -1  -5   14.33    1.19
   2  -1  -5   16.00    1.15
   2  -1  -5   15.95    0.84
  -2   1   5   16.39    0.84
  -2   1   5   15.97    0.86
  -2   1   5   15.78    0.98
   1  -1  -5  356.67   13.97
   1  -1  -5  342.25   13.77
   1  -1  -5  355.44   13.92
   1  -1  -5  342.81   13.74
   1  -1  -5  339.15   13.79
  -1   1   5  346.38   13.91
  -1   1   5  348.01   13.95
  -1   1   5  348.26   13.78
  -1   1   5  346.85   13.78
  -1   1   5  331.53   13.76
   0  -1  -5  127.92    5.26
   0  -1  -5  122.78    5.05
   0  -1  -5  126.01    5.28
   0  -1  -5  125.57    5.13
   0   1   5  129.83    5.13
   0   1   5  124.48    5.29
   0   1   5  130.62    5.26
   0   1   5  120.61    5.07
   0   1   5  128.35    5.12
  -1  -1  -5  299.51   12.13
  -1  -1  -5  318.84   12.26
  -1  -1  -5  316.55   12.29
   1   1   5  291.80   12.05
   1   1   5  309.82   12.28
   1   1   5  294.71   12.27
   1   1   5  298.82   12.13
  -2  -1  -5   40.85    1.74
  -2  -1  -5   38.82    1.67
  -2  -1  -5   41.44    1.92
   2   1   5   37.51    1.81
   2   1   5   37.30    1.85
   2   1   5   38.82    1.59
   2   1   5   39.57    1.68
  -3  -1  -5 1528.66   60.24
   3   1   5 1507.01   60.19
   4   1   5   41.72    1.75
   4   1   5   41.36    1.87
   4   1   5   39.56    2.08
   5   1   5   10.82    0.75
   5   1   5   10.50    0.61
   5   1   5    9.99    1.02
   5   1   5   11.91    0.61
   6   1   5   77.71    3.17
   6   1   5   75.44    3.16
   6   1   5   76.39    3.70
   6   1   5   77.48    3.27
   7   1   5   38.24    1.80
   7   1   5   36.18    1.69
   7   1   5   33.65    2.28
   7   1   5   37.04    2.30
   7   1   5   40.12    1.65
   8   1   5    9.87    1.37
   8   1   5    9.97    0.66
   8   1   5   11.62    1.17
   8   1   5   10.58    1.49
   9   1   5   10.18    1.82
   8  -2  -5   -0.29    0.58
   8  -2  -5    0.39    0.44
   8  -2  -5    0.11    0.52
   7  -2  -5   17.91    1.09
   7  -2  -5   17.91    1.18
   7  -2  -5   17.51    2.17
   7  -2  -5   18.95    1.23
   6  -2  -5    7.93    0.75
   6  -2  -5    9.46    1.20
   6  -2  -5    8.42    0.80
   6  -2  -5   10.09    0.72
   6  -2  -5    8.01    1.08
  -6   2   5    8.37    1.10
   5  -2  -5    5.20    0.60
   5  -2  -5    4.69    0.55
   5  -2  -5    4.69    0.53
   5  -2  -5    4.94    0.88
   5  -2  -5    4.68    0.80
  -5   2   5    3.90    0.75
   4  -2  -5    8.73    0.64
   4  -2  -5    9.89    0.71
   4  -2  -5    9.27    1.04
   4  -2  -5    8.65    0.91
  -4   2   5    9.17    0.60
  -4   2   5   10.49    0.96
  -4   2   5   11.44    0.71
  -4   2   5    8.76    0.96
   3  -2  -5  173.68    6.82
   3  -2  -5  172.18    6.97
   3  -2  -5  167.90    6.80
   3  -2  -5  170.41    7.03
   3  -2  -5  170.74    6.82
  -3   2   5  157.61    6.89
  -3   2   5  166.39    6.78
  -3   2   5  160.55    6.87
   2  -2  -5  142.99    5.83
   2  -2  -5  139.25    5.82
   2  -2  -5  143.53    5.96
   2  -2  -5  139.74    6.17
   2  -2  -5  152.25    5.85
  -2   2   5  141.18    5.94
  -2   2   5  146.87    5.84
  -2   2   5  143.31    5.92
  -2   2   5  148.07    5.98
  -2   2   5  135.53    5.88
   1  -2  -5  244.02    9.60
   1  -2  -5  229.15    9.44
   1  -2  -5  242.05    9.47
   1  -2  -5  231.02    9.47
   1  -2  -5  237.48    9.65
  -1   2   5  232.02    9.63
  -1   2   5  231.97    9.57
  -1   2   5  239.36    9.48
  -1   2   5  232.23    9.48
  -1   2   5  241.79    9.52
   0  -2  -5   69.76    3.01
   0  -2  -5   71.10    2.81
   0  -2  -5   68.23    2.86
   0  -2  -5   71.00    3.04
   0  -2  -5   66.59    2.87
   0   2   5   66.17    3.03
   0   2   5   66.81    2.98
   0   2   5   70.37    2.89
   0   2   5   69.00    2.85
  -1  -2  -5  378.97   15.00
  -1  -2  -5  387.82   14.95
  -1  -2  -5  371.82   14.83
   1   2   5  380.06   14.99
   1   2   5  359.02   14.76
   1   2   5  366.73   14.98
   1   2   5  370.60   14.84
   1   2   5  366.06   14.83
  -2  -2  -5  240.03    9.56
  -2  -2  -5  241.79    9.74
  -2  -2  -5  241.21    9.49
   2   2   5  222.37    9.40
   2   2   5  237.76    9.65
   2   2   5  238.67    9.52
   2   2   5  239.50    9.72
   2   2   5  241.14    9.53
  -3  -2  -5    3.65    0.31
  -3  -2  -5    3.45    0.61
  -3  -2  -5    3.52    0.30
   3   2   5    3.31    0.51
   3   2   5    3.72    0.49
   3   2   5    3.59    0.37
   4   2   5   40.59    2.12
   4   2   5   41.30    1.79
   4   2   5   42.23    1.90
   5   2   5  130.60    5.41
   5   2   5  131.31    5.21
   5   2   5  129.33    5.32
   5   2   5  132.44    5.78
   6   2   5   41.83    2.38
   6   2   5   40.04    1.90
   6   2   5   41.22    1.69
   6   2   5   40.66    1.84
   7   2   5    3.08    0.78
   7   2   5    2.07    0.82
   7   2   5    3.15    0.30
   7   2   5    3.43    0.53
   7   2   5    4.80    0.88
   8   2   5   69.16    2.73
   8   2   5   65.61    3.00
   8   2   5   68.67    3.79
   8   2   5   62.49    3.38
   9   2   5    0.23    1.32
   8  -3  -5   15.00    1.20
   8  -3  -5   15.41    1.26
   8  -3  -5   13.33    1.29
   7  -3  -5    2.83    1.25
   7  -3  -5    1.43    0.51
   7  -3  -5    1.12    1.08
   7  -3  -5    2.59    0.51
   7  -3  -5    2.81    0.60
   6  -3  -5   16.93    1.47
   6  -3  -5   15.17    1.06
   6  -3  -5   14.87    0.96
   6  -3  -5   17.34    1.73
  -6   3   5   12.27    1.63
   5  -3  -5    5.60    0.69
   5  -3  -5    5.35    0.56
   5  -3  -5    6.83    0.96
   5  -3  -5    5.80    0.64
   5  -3  -5    5.61    0.82
  -5   3   5    5.15    0.88
   4  -3  -5   33.10    1.54
   4  -3  -5   32.57    1.61
   4  -3  -5   32.13    1.61
   4  -3  -5   32.09    1.75
   4  -3  -5   33.06    1.85
  -4   3   5   31.27    1.45
  -4   3   5   32.52    1.87
   3  -3  -5    6.97    0.56
   3  -3  -5    5.42    0.50
   3  -3  -5    6.93    0.81
   3  -3  -5    5.81    0.71
   3  -3  -5    7.00    0.58
  -3   3   5    6.48    0.64
  -3   3   5    5.99    0.52
  -3   3   5    6.36    0.79
   2  -3  -5  486.24   20.44
   2  -3  -5  526.02   20.54
   2  -3  -5  540.53   20.66
   2  -3  -5  495.77   20.46
   2  -3  -5  534.93   20.51
  -2   3   5  503.43   20.59
  -2   3   5  505.18   20.52
  -2   3   5  524.14   20.60
  -2   3   5  508.59   20.45
   1  -3  -5  334.86   13.61
   1  -3  -5  353.90   13.72
   1  -3  -5  337.02   13.63
   1  -3  -5  352.44   13.80
   1  -3  -5  325.87   13.59
  -1   3   5  330.80   13.70
  -1   3   5  348.00   13.63
  -1   3   5  339.01   13.69
  -1   3   5  344.85   13.78
   0  -3  -5  351.04   14.74
   0  -3  -5  377.33   14.80
   0  -3  -5  368.10   14.80
   0  -3  -5  392.93   14.93
   0   3   5  369.43   14.90
   0   3   5  376.47   14.85
   0   3   5  368.13   14.81
   0   3   5  364.75   14.95
  -1  -3  -5  265.51   10.49
  -1  -3  -5  270.57   10.67
  -1  -3  -5  259.90   10.48
  -1  -3  -5  268.84   10.60
  -1  -3  -5  256.86   10.40
   1   3   5  262.87   10.64
   1   3   5  259.47   10.51
   1   3   5  260.04   10.51
   1   3   5  253.59   10.64
  -2  -3  -5  720.13   28.89
  -2  -3  -5  740.92   28.97
   2   3   5  732.50   29.13
   2   3   5  716.00   28.93
   2   3   5  756.29   28.93
   2   3   5  711.32   29.05
  -3  -3  -5  118.18    4.73
  -3  -3  -5  115.82    5.09
  -3  -3  -5  116.59    4.76
   3   3   5  122.22    4.79
   3   3   5  112.18    4.79
   3   3   5  116.77    4.91
   4   3   5  287.82   11.92
   4   3   5  299.83   11.81
   4   3   5  292.24   11.83
   4   3   5  301.38   12.20
   5   3   5   38.87    2.17
   5   3   5   37.21    1.78
   5   3   5   35.54    1.71
   6   3   5    0.00    0.24
   6   3   5    0.22    0.41
   6   3   5   -0.51    0.63
   6   3   5    0.51    0.37
   7   3   5    1.87    0.52
   7   3   5    2.18    0.39
   7   3   5    2.25    0.60
   8   3   5   -0.12    0.58
   8   3   5    0.50    0.65
   8   3   5    0.77    1.11
   9   3   5   16.10    2.11
   8  -4  -5   68.34    3.50
   8  -4  -5   85.85    3.80
   8  -4  -5   70.34    3.53
   7  -4  -5   18.12    2.34
   7  -4  -5   18.67    1.39
   7  -4  -5   18.69    1.38
   7  -4  -5   16.38    1.20
   6  -4  -5   75.56    3.38
   6  -4  -5   71.68    3.67
   6  -4  -5   67.59    3.46
   6  -4  -5   74.36    3.34
   6  -4  -5   71.77    3.17
   5  -4  -5   25.67    1.46
   5  -4  -5   22.42    1.55
   5  -4  -5   26.93    1.81
   5  -4  -5   26.13    1.49
   5  -4  -5   24.47    1.30
  -5   4   5   21.75    1.87
   4  -4  -5   33.85    1.85
   4  -4  -5   33.05    1.64
   4  -4  -5   30.26    1.48
   4  -4  -5   28.89    1.74
   4  -4  -5   31.58    1.60
  -4   4   5   24.88    1.83
  -4   4   5   32.02    1.45
  -4   4   5   28.38    1.37
   3  -4  -5   10.03    1.01
   3  -4  -5   10.20    0.79
   3  -4  -5   10.84    0.83
   3  -4  -5   10.06    0.78
   3  -4  -5   10.24    0.70
  -3   4   5    9.48    1.03
  -3   4   5    9.85    0.80
  -3   4   5    9.82    0.70
   2  -4  -5  226.48    9.55
   2  -4  -5  242.14    9.71
   2  -4  -5  242.86    9.61
   2  -4  -5  238.77    9.53
   2  -4  -5  245.34    9.58
  -2   4   5  235.02    9.54
  -2   4   5  235.18    9.66
  -2   4   5  235.09    9.52
  -2   4   5  220.29    9.70
   1  -4  -5    0.31    0.22
   1  -4  -5    0.27    0.29
   1  -4  -5    0.24    0.39
   1  -4  -5    0.20    0.17
   1  -4  -5    0.48    0.22
  -1   4   5   -0.04    0.23
  -1   4   5    0.53    0.32
  -1   4   5    0.31    0.31
  -1   4   5    0.47    0.34
   0  -4  -5    4.26    0.57
   0  -4  -5    4.20    0.40
   0  -4  -5    3.83    0.38
   0  -4  -5    4.49    0.44
   0  -4  -5    4.24    0.60
   0   4   5    2.66    0.47
   0   4   5    4.34    0.52
   0   4   5    2.71    0.58
  -1  -4  -5  175.87    7.08
  -1  -4  -5  182.61    7.08
  -1  -4  -5  179.55    7.25
  -1  -4  -5  159.79    7.00
  -1  -4  -5  181.56    7.21
   1   4   5  178.71    7.23
   1   4   5  176.71    7.14
   1   4   5  162.56    7.18
  -2  -4  -5    3.31    0.32
  -2  -4  -5    3.54    0.61
  -2  -4  -5    2.84    0.23
  -2  -4  -5    2.95    0.37
  -2  -4  -5    2.52    0.39
   2   4   5    3.30    0.43
   2   4   5    2.87    0.42
   2   4   5    1.76    0.39
   2   4   5    2.60    0.42
  -3  -4  -5   10.71    0.69
  -3  -4  -5   10.38    0.60
   3   4   5    9.53    0.76
   3   4   5    9.65    0.71
   3   4   5    9.75    0.63
   3   4   5    9.57    0.89
  -4  -4  -5   13.48    0.68
  -4  -4  -5   13.40    0.71
   4   4   5   12.66    0.90
   4   4   5   13.91    0.77
   4   4   5   13.18    0.89
   4   4   5   10.94    1.12
   5   4   5    6.19    0.77
   5   4   5    5.95    0.71
   5   4   5    6.32    1.02
   5   4   5    6.45    0.55
   6   4   5  113.80    5.01
   6   4   5  123.26    4.89
   6   4   5  118.39    5.48
   6   4   5  114.66    4.99
   7   4   5    3.14    0.94
   7   4   5    3.23    0.43
   7   4   5    2.43    0.72
   7   4   5    2.64    0.61
   8   4   5   47.78    3.31
   8   4   5   48.82    2.53
   9   4   5    5.72    1.59
   8  -5  -5    0.21    0.84
   8  -5  -5    0.69    0.76
   7  -5  -5    8.34    1.01
   7  -5  -5    8.53    1.08
   7  -5  -5    9.94    1.22
   6  -5  -5   15.90    1.37
   6  -5  -5   19.40    1.99
   6  -5  -5   18.53    1.56
   6  -5  -5   16.33    1.15
   6  -5  -5   16.48    1.33
   5  -5  -5   41.19    2.37
   5  -5  -5   38.37    2.12
   5  -5  -5   41.52    2.09
   5  -5  -5   36.68    2.00
   5  -5  -5   38.61    1.91
  -5   5   5   38.03    2.62
   4  -5  -5   89.49    4.13
   4  -5  -5   93.24    3.88
   4  -5  -5   88.77    3.88
   4  -5  -5   95.26    4.08
   4  -5  -5   94.62    4.01
  -4   5   5   89.99    3.72
  -4   5   5   75.25    4.23
  -4   5   5   92.24    3.79
   3  -5  -5  384.30   15.26
   3  -5  -5  390.06   15.29
   3  -5  -5  374.44   15.18
   3  -5  -5  374.86   15.08
   3  -5  -5  389.53   15.11
  -3   5   5  345.76   15.39
  -3   5   5  365.57   15.04
  -3   5   5  380.01   15.17
   2  -5  -5   16.54    1.02
   2  -5  -5   15.17    0.93
   2  -5  -5   14.87    0.96
   2  -5  -5   15.07    1.17
   2  -5  -5   14.73    0.95
  -2   5   5   15.41    0.91
  -2   5   5   14.89    0.96
  -2   5   5   15.45    1.24
  -2   5   5   16.45    1.11
   1  -5  -5   19.51    1.23
   1  -5  -5   17.29    1.01
   1  -5  -5   19.35    1.04
   1  -5  -5   18.29    1.06
   1  -5  -5   19.31    1.08
  -1   5   5   18.26    1.25
  -1   5   5   17.47    1.07
  -1   5   5   18.23    1.21
  -1   5   5   17.80    1.02
   0  -5  -5    0.77    0.37
   0  -5  -5    0.56    0.36
   0  -5  -5    0.91    0.25
   0  -5  -5    0.86    0.27
   0   5   5    0.67    0.32
   0   5   5    0.56    0.34
   0   5   5    0.66    0.33
   0   5   5    0.54    0.33
  -1  -5  -5   59.67    2.69
  -1  -5  -5   59.17    2.59
  -1  -5  -5   63.04    2.57
   1   5   5   56.74    2.62
   1   5   5   58.16    2.74
   1   5   5   58.65    2.67
   1   5   5   56.25    2.69
  -2  -5  -5   23.72    1.16
  -2  -5  -5   21.34    1.23
  -2  -5  -5   23.08    1.09
   2   5   5   22.53    1.35
   2   5   5   21.13    1.29
   2   5   5   23.21    1.23
   2   5   5   20.86    1.29
  -3  -5  -5  200.17    7.88
  -3  -5  -5  194.48    7.84
  -3  -5  -5  192.59    7.69
   3   5   5  194.52    8.05
   3   5   5  187.18    8.05
   3   5   5  194.50    8.21
   3   5   5  196.88    7.98
  -4  -5  -5    1.06    0.34
  -4  -5  -5    1.08    0.26
   4   5   5    1.30    0.41
   4   5   5    1.17    0.45
   4   5   5    0.82    0.32
   4   5   5    1.31    0.61
  -5  -5  -5   58.91    2.49
   5   5   5   59.54    2.81
   5   5   5   62.89    3.21
   5   5   5   59.73    2.84
   5   5   5   63.60    2.67
   6   5   5  113.52    4.65
   6   5   5  112.56    5.40
   6   5   5  111.31    4.87
   6   5   5  109.30    4.85
   7   5   5    4.90    1.19
   7   5   5    2.29    0.69
   7   5   5    2.35    0.46
   7   5   5    3.02    0.83
   8   5   5    0.45    1.19
   8   5   5    0.78    0.82
   9   5   5    2.64    1.65
   7  -6  -5   13.81    1.32
   7  -6  -5   12.99    1.66
   7  -6  -5   13.37    1.47
   6  -6  -5    4.91    1.39
   6  -6  -5    3.70    0.67
   6  -6  -5    3.73    0.81
   6  -6  -5    5.26    0.89
   5  -6  -5    0.32    0.52
   5  -6  -5    0.23    0.82
   5  -6  -5   -0.40    0.47
   5  -6  -5   -0.09    0.43
   5  -6  -5   -0.08    0.44
   4  -6  -5    0.79    0.45
   4  -6  -5    0.36    0.70
   4  -6  -5    0.93    0.43
   4  -6  -5    0.61    0.46
   4  -6  -5    0.99    0.40
  -4   6   5    0.18    0.84
  -4   6   5    0.77    0.42
  -4   6   5    0.86    0.37
   3  -6  -5   70.01    3.46
   3  -6  -5   73.76    3.38
   3  -6  -5   74.20    3.18
   3  -6  -5   77.23    3.29
   3  -6  -5   79.09    3.47
  -3   6   5   76.06    3.36
  -3   6   5   64.56    3.64
   2  -6  -5   14.85    1.11
   2  -6  -5   17.34    1.02
   2  -6  -5   14.71    1.23
   2  -6  -5   14.23    1.04
   2  -6  -5   15.50    0.96
  -2   6   5   15.83    1.20
  -2   6   5   15.67    0.90
  -2   6   5   14.24    1.02
  -2   6   5   14.09    1.35
   1  -6  -5  351.57   14.28
   1  -6  -5  369.97   14.40
   1  -6  -5  364.76   14.43
  -1   6   5  341.64   14.30
  -1   6   5  340.35   14.53
  -1   6   5  355.77   14.46
  -1   6   5  358.92   14.26
   0  -6  -5  166.05    6.49
   0  -6  -5  153.62    6.48
   0  -6  -5  154.11    6.44
   0  -6  -5  159.67    6.55
   0   6   5  160.07    6.62
   0   6   5  142.81    6.58
   0   6   5  152.51    6.46
   0   6   5  153.47    6.45
  -1  -6  -5    0.94    0.27
  -1  -6  -5    1.18    0.37
  -1  -6  -5    1.43    0.42
   1   6   5    1.30    0.47
   1   6   5    1.26    0.41
   1   6   5    1.45    0.50
   1   6   5    0.96    0.42
  -2  -6  -5    3.65    0.43
  -2  -6  -5    2.83    0.53
  -2  -6  -5    3.21    0.44
   2   6   5    3.32    0.59
   2   6   5    4.15    0.61
   2   6   5    3.25    0.55
   2   6   5    3.76    0.65
  -3  -6  -5    3.40    0.27
  -3  -6  -5    4.76    0.43
  -3  -6  -5    4.30    0.52
  -3  -6  -5    4.70    0.61
   3   6   5    3.97    0.55
   3   6   5    4.56    0.70
   3   6   5    3.07    0.67
   3   6   5    6.09    0.74
  -4  -6  -5   57.08    2.35
  -4  -6  -5   52.73    2.40
  -4  -6  -5   53.33    2.13
   4   6   5   44.86    2.57
   4   6   5   54.30    2.59
   4   6   5   54.76    2.83
   4   6   5   51.27    2.54
  -5  -6  -5   50.78    2.19
  -5  -6  -5   50.83    2.12
   5   6   5   51.76    2.86
   5   6   5   45.99    2.26
   5   6   5   46.14    2.45
   5   6   5   49.27    2.49
   6   6   5    9.76    0.88
   6   6   5   12.34    1.53
   6   6   5    8.38    1.15
   6   6   5   12.00    1.29
   7   6   5    3.77    0.83
   7   6   5    3.93    1.16
   8   6   5    2.81    1.01
   8   6   5    5.72    1.62
   7  -7  -5    3.31    0.95
   7  -7  -5    4.20    0.87
   7  -7  -5    3.21    1.08
   6  -7  -5    3.96    0.87
   6  -7  -5    3.11    0.91
   6  -7  -5    4.37    0.79
   5  -7  -5   41.72    2.49
   5  -7  -5   44.56    2.24
   4  -7  -5    5.34    1.05
   4  -7  -5    8.10    1.02
   4  -7  -5    7.51    0.92
   4  -7  -5    6.34    1.39
  -4   7   5    7.79    0.86
  -4   7   5    7.60    0.82
   3  -7  -5   88.09    4.15
   3  -7  -5   91.44    3.78
   3  -7  -5   99.50    4.03
   3  -7  -5   95.76    4.20
   3  -7  -5   88.73    4.08
  -3   7   5   75.21    4.39
  -3   7   5   92.25    4.07
  -3   7   5   88.72    3.92
   2  -7  -5    6.01    0.80
   2  -7  -5    5.23    0.78
   2  -7  -5    6.42    0.81
   2  -7  -5    5.14    0.67
  -2   7   5    8.10    0.95
  -2   7   5    6.13    0.78
  -2   7   5    6.17    0.60
  -2   7   5    4.12    0.90
   1  -7  -5   13.17    1.17
   1  -7  -5   12.85    1.04
   1  -7  -5   12.03    0.96
  -1   7   5   11.61    1.33
  -1   7   5   10.43    1.16
  -1   7   5   12.18    0.86
  -1   7   5   12.33    1.03
   0  -7  -5   28.36    1.61
   0  -7  -5   29.40    1.73
   0  -7  -5   33.04    1.65
   0   7   5   29.04    1.86
   0   7   5   28.02    1.64
   0   7   5   31.28    1.59
   0   7   5   30.19    1.82
  -1  -7  -5  126.90    5.48
  -1  -7  -5  126.36    5.54
  -1  -7  -5  141.62    5.49
   1   7   5  131.18    5.56
   1   7   5  126.89    5.52
   1   7   5  120.00    5.64
   1   7   5  133.11    5.67
  -2  -7  -5    1.13    0.30
  -2  -7  -5    1.00    0.39
  -2  -7  -5    2.46    0.59
   2   7   5    2.48    0.58
   2   7   5    1.15    0.56
   2   7   5    0.77    0.49
   2   7   5    0.62    0.49
  -3  -7  -5  167.35    6.51
  -3  -7  -5  161.55    6.80
  -3  -7  -5  169.49    6.78
  -3  -7  -5  173.07    6.65
   3   7   5  149.17    6.84
   3   7   5  168.35    6.98
   3   7   5  159.21    6.86
   3   7   5  151.41    7.03
  -4  -7  -5   -0.45    0.50
  -4  -7  -5    0.06    0.39
  -4  -7  -5    0.31    0.16
   4   7   5   -0.53    0.65
   4   7   5    0.11    0.53
   4   7   5   -0.17    0.50
   4   7   5   -0.40    0.46
  -5  -7  -5    0.39    0.33
  -5  -7  -5    0.24    0.21
  -5  -7  -5    0.59    0.51
   5   7   5    0.43    0.66
   5   7   5   -0.74    0.77
   5   7   5    0.92    0.62
  -6  -7  -5   -0.07    0.33
  -6  -7  -5    0.16    0.26
   6   7   5   -0.72    0.62
   6   7   5    0.65    0.86
   6   7   5    0.58    0.54
   7   7   5    5.37    1.36
   8   7   5    0.64    1.41
   8   7   5    1.73    1.12
   7  -8  -5    4.75    1.27
   7  -8  -5    5.48    1.17
   6  -8  -5    0.67    0.83
   6  -8  -5   -0.11    0.90
   6  -8  -5   -0.16    0.80
   5  -8  -5   30.25    2.15
   5  -8  -5   27.60    2.03
   5  -8  -5   29.96    1.97
   4  -8  -5    1.22    0.69
   4  -8  -5    1.07    0.60
   4  -8  -5    0.20    0.63
  -4   8   5    0.54    0.57
  -4   8   5    0.83    0.60
   3  -8  -5   29.10    1.69
  -3   8   5   26.14    1.79
  -3   8   5   26.54    1.66
   2  -8  -5   -0.16    0.49
   2  -8  -5    0.65    0.77
   2  -8  -5    0.63    0.47
  -2   8   5    0.59    0.65
  -2   8   5   -0.09    0.69
  -2   8   5    0.18    0.33
   1  -8  -5   28.36    1.68
   1  -8  -5   25.43    1.77
   1  -8  -5   27.31    1.59
  -1   8   5   26.57    1.67
  -1   8   5   21.50    1.94
  -1   8   5   26.53    1.82
  -1   8   5   28.49    1.42
   0  -8  -5  148.41    6.01
   0  -8  -5  141.53    5.95
   0  -8  -5  137.00    6.01
   0   8   5  134.09    5.95
   0   8   5  142.53    5.88
   0   8   5  142.54    6.15
   0   8   5  127.60    6.20
  -1  -8  -5  378.14   15.06
  -1  -8  -5  398.92   15.06
  -1  -8  -5  363.65   15.10
   1   8   5  382.61   15.27
   1   8   5  342.59   15.23
   1   8   5  351.37   15.08
   1   8   5  378.13   15.09
  -2  -8  -5    4.16    0.63
  -2  -8  -5    3.81    0.72
  -2  -8  -5    3.39    0.39
  -2  -8  -5    4.17    0.66
   2   8   5    3.87    0.75
   2   8   5    2.66    0.70
   2   8   5    3.61    0.76
   2   8   5    4.41    0.84
  -3  -8  -5   51.42    2.22
  -3  -8  -5   44.78    2.43
  -3  -8  -5   48.58    2.06
  -3  -8  -5   48.66    2.39
   3   8   5   45.91    2.55
   3   8   5   49.01    2.78
   3   8   5   48.99    2.71
   3   8   5   50.31    2.62
  -4  -8  -5   21.96    1.35
  -4  -8  -5   21.45    1.06
  -4  -8  -5   18.83    1.43
  -4  -8  -5   19.92    0.94
   4   8   5   19.60    1.78
   4   8   5   16.36    1.51
   4   8   5   22.02    1.63
  -5  -8  -5   15.35    0.75
  -5  -8  -5   12.88    1.23
  -5  -8  -5   14.21    1.04
   5   8   5   12.97    1.43
   5   8   5   11.44    1.31
   5   8   5   13.13    1.74
  -6  -8  -5   25.63    1.35
   6   8   5   28.79    2.04
   6   8   5   26.13    2.38
   7   8   5    0.02    1.06
   7   8   5    0.48    1.16
   8   8   5    4.52    1.77
   8   8   5    6.22    1.58
   6  -9  -5   19.03    2.22
   6  -9  -5   19.87    1.99
   6  -9  -5   17.20    2.04
   5  -9  -5    5.63    1.05
   5  -9  -5    6.14    1.14
   5  -9  -5    4.41    0.98
   4  -9  -5   23.37    1.77
   4  -9  -5   23.72    1.97
   4  -9  -5   25.21    2.01
  -4   9   5   26.37    1.64
   3  -9  -5   28.09    1.96
  -3   9   5   27.18    1.96
  -3   9   5   26.29    1.83
   2  -9  -5    5.63    0.83
   2  -9  -5    4.65    0.82
  -2   9   5    5.70    0.63
  -2   9   5    5.94    1.05
  -2   9   5    5.87    0.97
   1  -9  -5   17.59    1.42
   1  -9  -5   20.08    1.41
  -1   9   5   18.66    1.12
  -1   9   5   17.95    1.69
  -1   9   5   15.18    1.53
   0  -9  -5   10.99    1.12
   0  -9  -5   10.46    1.08
   0   9   5    9.07    1.07
   0   9   5    6.33    1.17
   0   9   5   10.95    0.98
   0   9   5   10.29    1.37
  -1  -9  -5   70.25    3.28
  -1  -9  -5   76.23    3.29
   1   9   5   67.48    3.28
   1   9   5   60.29    3.54
   1   9   5   70.86    3.54
  -2  -9  -5   11.87    0.81
  -2  -9  -5   13.88    1.04
  -2  -9  -5   12.14    1.15
   2   9   5   11.17    1.50
   2   9   5   12.63    1.41
   2   9   5   12.02    1.29
  -3  -9  -5   34.58    1.70
  -3  -9  -5   34.53    1.90
  -3  -9  -5   33.26    1.52
   3   9   5   27.48    2.11
   3   9   5   34.96    2.21
  -4  -9  -5   16.52    1.64
  -4  -9  -5   20.80    1.01
  -4  -9  -5   21.16    1.47
  -4  -9  -5   21.34    1.12
   4   9   5   16.04    1.73
   4   9   5   23.19    1.85
   4   9   5   22.44    2.90
  -5  -9  -5   13.71    1.19
  -5  -9  -5   12.21    1.42
   5   9   5   10.60    1.24
   5   9   5   12.74    1.69
   5   9   5    9.07    1.42
  -6  -9  -5    0.62    0.59
   6   9   5    1.63    1.05
   6   9   5    0.73    1.24
   7   9   5   -1.63    1.29
   7   9   5   -0.41    1.22
   5 -10  -5    2.49    1.01
   5 -10  -5    4.80    1.28
   5 -10  -5    2.68    1.15
   4 -10  -5   27.91    2.14
   4 -10  -5   23.46    2.14
   4 -10  -5   27.12    2.22
   3 -10  -5   -0.70    0.75
   3 -10  -5    0.52    0.75
  -3  10   5    1.39    0.99
   2 -10  -5   10.45    1.23
   2 -10  -5    9.50    1.41
  -2  10   5   10.23    1.38
  -2  10   5    8.10    1.21
   1 -10  -5    1.72    0.76
   1 -10  -5    1.30    0.74
  -1  10   5    1.83    1.03
  -1  10   5    2.10    0.48
   0 -10  -5   -0.68    0.63
   0 -10  -5    0.47    0.68
   0  10   5    1.27    0.53
   0  10   5   -0.41    0.79
  -1 -10  -5    4.31    0.82
  -1 -10  -5    5.03    0.79
   1  10   5    6.11    1.15
   1  10   5    4.51    0.82
  -2 -10  -5   53.92    2.80
  -2 -10  -5   52.92    2.42
  -2 -10  -5   61.77    2.73
   2  10   5   44.00    3.15
   2  10   5   55.07    2.94
   2  10   5   57.54    3.13
  -3 -10  -5    0.08    0.42
  -3 -10  -5   -0.08    0.65
  -3 -10  -5   -0.19    0.32
   3  10   5    0.27    1.01
   3  10   5    0.13    0.86
   3  10   5   -0.67    0.79
  -4 -10  -5    3.01    0.78
   4  10   5    2.51    1.10
   4  10   5    3.95    1.14
   4  10   5    2.40    1.11
  -5 -10  -5   10.96    1.40
   5  10   5   10.69    1.65
   5  10   5   12.61    1.60
  -6 -10  -5    0.96    0.80
   6  10   5    1.03    1.18
   6  10   5   -1.08    1.30
   7  10   5    7.93    1.68
   7  10   5    8.26    2.11
   4 -11  -5   55.28    3.50
   4 -11  -5   59.58    3.61
   4 -11  -5   60.25    3.44
   3 -11  -5    5.19    1.23
   3 -11  -5    5.49    1.21
  -3  11   5    6.80    1.50
   2 -11  -5   28.86    2.20
   2 -11  -5   26.79    2.22
  -2  11   5   27.22    2.56
   1 -11  -5    6.22    1.07
   1 -11  -5    5.95    1.08
  -1  11   5    6.53    1.39
  -1  11   5    6.40    0.65
   0 -11  -5   38.12    2.44
   0 -11  -5   39.12    2.35
   0  11   5   36.74    2.05
   0  11   5   38.15    2.80
  -1 -11  -5   -0.44    0.74
  -1 -11  -5    0.32    0.63
   1  11   5    0.02    0.70
   1  11   5    0.34    1.00
  -2 -11  -5    1.37    0.67
  -2 -11  -5    2.30    0.85
   2  11   5    0.07    1.14
   2  11   5    0.89    0.90
  -3 -11  -5    8.29    1.15
  -3 -11  -5    7.08    0.86
   3  11   5    6.12    1.28
   3  11   5    7.08    1.30
  -4 -11  -5    1.13    0.48
  -4 -11  -5    0.49    0.91
   4  11   5    1.09    1.23
   4  11   5   -0.13    1.17
  -5 -11  -5    0.28    1.04
   5  11   5    1.35    1.43
   5  11   5    0.95    1.37
  -6 -11  -5    2.71    1.08
   6  11   5   -1.09    1.46
   6  11   5   -0.94    1.58
   3 -12  -5    1.22    1.23
   3 -12  -5    0.06    1.15
   2 -12  -5   36.94    2.68
   2 -12  -5   41.09    2.74
  -2  12   5   32.79    3.35
   1 -12  -5    1.77    1.00
   1 -12  -5    2.27    1.07
  -1  12   5    0.50    1.50
   0 -12  -5   23.49    1.97
   0 -12  -5   17.84    2.00
   0  12   5   19.74    2.57
  -1 -12  -5   10.55    1.31
  -1 -12  -5   11.12    1.59
   1  12   5   13.94    1.90
   1  12   5   14.41    1.47
  -2 -12  -5    6.33    1.16
  -2 -12  -5    7.08    1.03
   2  12   5    7.77    1.59
  -3 -12  -5    0.28    1.00
  -3 -12  -5   -0.33    0.73
   3  12   5    0.19    1.30
   3  12   5    1.64    1.35
  -4 -12  -5    9.59    1.41
   4  12   5   12.81    2.08
   4  12   5   15.44    2.03
   1 -13  -5    8.11    1.48
  -1  13   5    8.13    2.22
   0 -13  -5    7.01    1.34
   0 -13  -5    5.43    1.41
   0  13   5   10.04    1.95
  -1 -13  -5   -2.02    0.96
  -1 -13  -5   -0.84    1.12
   1  13   5   -0.98    1.56
  -2 -13  -5    2.39    1.00
  -2 -13  -5    3.74    1.29
   2  13   5    1.43    1.82
   2  13   5    4.05    1.91
  -2 -10   6    9.13    1.84
   1  10  -6    2.17    1.41
  -1 -10   6   -1.88    1.39
  -1 -10   6   -0.23    1.58
   0  10  -6   15.99    1.92
   0 -10   6   14.33    2.11
   0 -10   6   14.63    1.94
  -1  10  -6    2.05    1.55
   1 -10   6    4.15    1.48
   1 -10   6    1.48    1.55
   4   9  -6    2.34    1.48
  -4  -9   6    1.36    1.38
   3   9  -6    2.74    1.12
  -3  -9   6    3.38    1.38
   2   9  -6    0.51    1.12
  -2  -9   6    1.70    1.28
  -2  -9   6    3.36    1.23
   1   9  -6   27.44    2.31
  -1  -9   6   27.75    2.40
  -1  -9   6   23.64    2.67
   0   9  -6    1.50    1.09
   0  -9   6    1.14    1.29
   0  -9   6   -0.33    1.11
  -1   9  -6   -1.40    1.09
   1  -9   6   -0.34    1.31
   1  -9   6   -0.43    1.07
  -2   9  -6   40.81    2.83
   2  -9   6   36.38    3.28
   2  -9   6   42.25    2.86
   3  -9   6   12.08    2.04
   3  -9   6   10.68    1.59
   5   8  -6    7.30    1.41
  -5  -8   6    7.51    1.53
   4   8  -6    4.15    1.19
  -4  -8   6    4.16    1.22
   3   8  -6   21.41    1.98
  -3  -8   6   15.72    1.81
  -3  -8   6   17.71    2.16
   2   8  -6   16.71    1.89
  -2  -8   6   17.19    2.04
  -2  -8   6   16.76    1.90
   1   8  -6    5.93    1.08
  -1  -8   6    6.41    1.23
   0   8  -6    0.03    0.96
   0   8  -6    0.93    0.87
   0  -8   6    0.98    0.88
   0  -8   6    0.84    1.01
  -1   8  -6    9.33    1.22
   1  -8   6   11.89    1.40
   1  -8   6    9.82    1.58
  -2   8  -6   36.42    2.29
   2  -8   6   35.57    2.48
   2  -8   6   33.17    2.98
  -3   8  -6    0.51    0.84
   3  -8   6    0.36    1.29
   3  -8   6    1.88    1.07
   4  -8   6   -0.52    1.45
   4  -8   6   -0.48    1.12
   5  -8   6    1.48    1.36
   5  -8   6    2.52    1.98
   6   7  -6    0.26    0.56
   6   7  -6   -2.66    1.19
  -6  -7   6    1.85    1.44
   5   7  -6    8.81    1.04
   5   7  -6    6.06    1.21
  -5  -7   6    7.83    1.35
   4   7  -6   -0.67    0.83
  -4  -7   6    2.91    1.00
  -4  -7   6    1.04    0.61
   3   7  -6    2.51    0.82
  -3  -7   6    2.54    0.96
  -3  -7   6    2.56    0.83
   2   7  -6   -0.06    0.74
  -2  -7   6    0.97    0.79
  -2  -7   6    1.34    0.78
   1   7  -6    3.59    1.11
   1   7  -6    1.76    0.75
  -1  -7   6    2.72    0.93
  -1  -7   6    2.38    0.84
   0   7  -6    7.59    1.08
   0  -7   6    6.81    1.23
   0  -7   6    7.68    1.15
  -1   7  -6   40.39    2.85
  -1   7  -6   42.26    2.33
  -1   7  -6   43.39    2.34
   1  -7   6   33.94    2.68
   1  -7   6   41.45    2.45
  -2   7  -6   28.83    1.76
  -2   7  -6   25.82    1.76
  -2   7  -6   26.08    2.27
   2  -7   6   23.48    2.45
   2  -7   6   28.01    2.02
  -3   7  -6   46.02    2.30
   3  -7   6   43.10    3.31
   3  -7   6   46.33    2.66
   4  -7   6    0.16    0.90
   4  -7   6   -1.46    1.28
   5  -7   6    5.72    1.59
   5  -7   6    1.97    1.11
   6  -7   6    1.33    2.03
   6  -7   6    0.67    1.24
   6   6  -6    5.80    1.28
   6   6  -6    5.13    0.72
  -6  -6   6    3.64    1.18
   5   6  -6    1.56    0.49
   5   6  -6    2.80    1.02
  -5  -6   6    1.90    0.95
   4   6  -6   17.76    1.13
   4   6  -6   18.25    1.68
  -4  -6   6   17.95    1.65
  -4  -6   6   13.74    1.18
   3   6  -6   63.07    3.01
   3   6  -6   59.64    2.64
  -3  -6   6   48.02    2.83
  -3  -6   6   60.68    3.03
   2   6  -6    3.84    0.91
  -2  -6   6    4.49    1.47
  -2  -6   6    2.59    0.77
   1   6  -6    3.12    0.69
   1   6  -6    4.93    1.07
  -1  -6   6    2.91    0.83
  -1  -6   6    4.02    0.84
   0   6  -6    3.41    0.70
   0   6  -6    2.13    1.11
   0   6  -6    3.46    0.82
   0  -6   6    4.52    0.82
   0  -6   6    2.70    0.82
  -1   6  -6    0.87    0.72
  -1   6  -6    0.31    0.89
  -1   6  -6    0.50    0.54
   1  -6   6    0.10    0.70
   1  -6   6    0.15    0.61
  -2   6  -6   22.36    1.48
  -2   6  -6   23.82    1.93
  -2   6  -6   22.29    1.54
   2  -6   6   24.12    1.71
  -3   6  -6   17.62    1.19
   3  -6   6   16.48    2.12
   3  -6   6   15.19    1.49
   4  -6   6    0.59    1.09
   4  -6   6   -0.43    0.72
   5  -6   6    1.98    1.38
   5  -6   6    3.32    0.98
   6  -6   6    1.00    1.04
   6  -6   6    0.60    1.66
   7   5  -6   -0.04    0.56
   7   5  -6   -0.02    1.11
   6   5  -6    0.09    0.46
   6   5  -6   -1.13    0.86
  -6  -5   6   -0.31    0.81
   5   5  -6    4.67    1.01
   5   5  -6    4.57    0.60
  -5  -5   6    3.62    0.92
   4   5  -6   10.83    0.83
   4   5  -6    9.35    1.28
  -4  -5   6    9.93    1.32
  -4  -5   6    9.84    0.65
  -4  -5   6    8.77    0.91
   3   5  -6   54.35    2.71
   3   5  -6   52.38    2.40
  -3  -5   6   52.67    2.78
   2   5  -6   18.09    1.34
   2   5  -6   18.03    1.61
   2   5  -6   17.64    1.03
  -2  -5   6   17.83    1.48
  -2  -5   6   15.91    1.28
   1   5  -6   84.35    3.76
   1   5  -6   81.87    4.08
   1   5  -6   86.17    3.91
  -1  -5   6   82.11    3.87
  -1  -5   6   80.85    3.73
  -1  -5   6   80.95    3.49
   0   5  -6   19.62    1.69
   0   5  -6   19.28    1.28
   0   5  -6   20.04    1.44
   0  -5   6   18.12    1.03
   0  -5   6   17.52    1.30
   0  -5   6   18.47    1.41
  -1   5  -6    2.03    0.56
  -1   5  -6    1.65    0.84
  -1   5  -6    3.12    0.72
   1  -5   6    2.21    0.37
   1  -5   6    2.05    0.61
   1  -5   6    1.37    0.57
  -2   5  -6   39.71    2.05
  -2   5  -6   37.50    2.23
  -2   5  -6   40.15    1.97
   2  -5   6   38.31    2.05
   2  -5   6   38.36    2.13
   2  -5   6   38.34    1.81
  -3   5  -6   20.40    1.38
  -3   5  -6   15.77    1.57
  -3   5  -6   18.85    1.14
   3  -5   6   20.50    1.45
   3  -5   6   16.47    1.90
   3  -5   6   19.51    1.39
  -4   5  -6   17.19    1.29
   4  -5   6   17.32    1.35
   4  -5   6   16.07    2.03
   4  -5   6   14.15    1.37
   5  -5   6   18.65    2.46
   5  -5   6   21.57    1.67
   5  -5   6   24.26    1.60
   6  -5   6   11.42    2.07
   6  -5   6   14.39    1.59
   7  -5   6    0.69    1.78
   7   4  -6    0.44    1.09
   7   4  -6    2.00    0.57
   6   4  -6    0.55    0.80
   6   4  -6   -0.22    0.38
  -6  -4   6    0.73    0.67
   5   4  -6    1.87    0.72
   5   4  -6    1.75    0.41
  -5  -4   6    1.67    0.63
  -5  -4   6    1.08    0.67
   4   4  -6   20.20    1.14
   4   4  -6   20.82    1.47
  -4  -4   6   20.58    1.03
  -4  -4   6   22.27    1.38
  -4  -4   6   20.38    1.52
   3   4  -6   13.38    1.53
   3   4  -6   15.24    1.21
   3   4  -6   12.98    1.78
   3   4  -6   15.68    0.90
  -3  -4   6   14.13    1.32
  -3  -4   6   16.49    1.15
  -3  -4   6   12.55    1.00
  -3  -4   6   15.30    0.94
   2   4  -6  378.03   15.24
   2   4  -6  371.66   15.10
   2   4  -6  374.49   14.90
   2   4  -6  383.45   15.37
  -2  -4   6  362.19   15.01
  -2  -4   6  361.16   15.17
  -2  -4   6  372.37   14.87
   1   4  -6    3.87    0.77
   1   4  -6    4.44    0.87
   1   4  -6    4.60    0.65
  -1  -4   6    4.06    0.65
  -1  -4   6    4.40    0.63
  -1  -4   6    3.86    0.48
   0   4  -6   17.05    1.49
   0   4  -6   16.54    1.14
   0   4  -6   16.79    1.26
   0  -4   6   18.01    0.92
   0  -4   6   17.89    1.30
   0  -4   6   16.87    1.13
  -1   4  -6   69.73    3.17
  -1   4  -6   68.77    3.07
  -1   4  -6   69.91    3.33
   1  -4   6   68.48    3.09
   1  -4   6   68.74    2.91
   1  -4   6   66.33    3.23
  -2   4  -6  121.68    5.09
  -2   4  -6  119.51    5.17
  -2   4  -6  123.42    5.00
   2  -4   6  116.60    5.18
   2  -4   6  117.10    5.05
   2  -4   6  113.40    4.88
  -3   4  -6  140.19    5.87
  -3   4  -6  138.78    5.73
  -3   4  -6  137.41    5.65
   3  -4   6  140.25    5.67
   3  -4   6  137.54    5.81
   3  -4   6  135.55    5.93
   3  -4   6  136.04    5.77
  -4   4  -6   44.32    2.68
   4  -4   6   48.70    2.27
   4  -4   6   49.22    2.34
   4  -4   6   52.83    2.49
   4  -4   6   49.57    2.20
   4  -4   6   44.33    3.02
   5  -4   6   22.58    1.50
   5  -4   6   22.53    2.32
   5  -4   6   23.56    1.37
   5  -4   6   24.59    1.61
   5  -4   6   29.65    1.70
   6  -4   6   -0.61    1.16
   6  -4   6    1.41    0.66
   6  -4   6    0.02    0.59
   6  -4   6    0.63    0.50
   7  -4   6    2.19    1.51
   8  -4   6    2.93    1.93
   8  -4   6    2.40    0.97
   8   3  -6    2.47    0.64
   8   3  -6    2.50    1.26
   7   3  -6    8.99    0.89
   7   3  -6    7.44    1.20
   6   3  -6   -0.34    0.33
   6   3  -6   -0.09    0.61
  -6  -3   6    0.54    0.52
   5   3  -6    1.43    0.40
   5   3  -6    0.59    0.58
  -5  -3   6    0.87    0.49
  -5  -3   6    1.22    0.61
   4   3  -6    7.65    1.34
   4   3  -6    7.48    0.61
   4   3  -6    8.01    0.91
  -4  -3   6    6.94    0.81
  -4  -3   6    8.04    0.59
  -4  -3   6    8.82    0.96
  -4  -3   6    7.52    0.78
   3   3  -6  185.15    7.93
   3   3  -6  178.76    7.80
   3   3  -6  188.55    7.43
   3   3  -6  182.14    7.64
  -3  -3   6  182.28    7.53
  -3  -3   6  187.57    7.38
  -3  -3   6  178.43    7.44
  -3  -3   6  179.64    7.69
   2   3  -6   82.69    3.56
   2   3  -6   82.35    3.84
   2   3  -6   81.90    3.36
   2   3  -6   78.79    3.69
  -2  -3   6   78.40    3.48
  -2  -3   6   78.24    3.34
  -2  -3   6   75.70    3.62
   1   3  -6    0.54    0.60
   1   3  -6    0.64    0.52
   1   3  -6    0.94    0.41
   1   3  -6    0.79    0.26
  -1  -3   6    0.56    0.33
  -1  -3   6    0.30    0.22
  -1  -3   6    0.71    0.48
   0   3  -6    4.84    0.78
   0   3  -6    3.76    0.59
   0  -3   6    4.71    0.43
   0  -3   6    5.61    0.65
  -1   3  -6   -0.37    0.26
  -1   3  -6   -0.03    0.41
  -1   3  -6   -0.28    0.51
   1  -3   6    0.38    0.34
   1  -3   6    0.35    0.30
   1  -3   6   -0.20    0.17
   1  -3   6    0.20    0.40
  -2   3  -6   16.23    1.14
  -2   3  -6   16.83    0.97
  -2   3  -6   18.17    1.22
   2  -3   6   17.31    0.87
   2  -3   6   16.68    1.04
   2  -3   6   15.87    1.04
   2  -3   6   14.23    1.12
  -3   3  -6   16.12    0.95
  -3   3  -6   16.80    0.88
  -3   3  -6   16.65    1.18
   3  -3   6   14.63    1.12
   3  -3   6   15.71    1.02
   3  -3   6   16.67    1.05
   3  -3   6   15.66    0.87
  -4   3  -6    8.49    0.96
   4  -3   6    7.81    0.64
   4  -3   6    6.78    0.80
   4  -3   6    8.52    0.80
   4  -3   6    6.61    0.86
   5  -3   6    8.33    0.89
   5  -3   6    8.68    0.88
   5  -3   6   11.10    1.67
   5  -3   6    8.85    0.95
   6  -3   6    0.72    0.53
   6  -3   6    1.20    0.55
   6  -3   6   -0.84    0.88
   7  -3   6   -0.07    0.61
   7  -3   6   -0.44    1.28
   7  -3   6    0.25    0.68
   8  -3   6   27.83    1.96
   8  -3   6   30.98    3.41
   8   2  -6   14.22    1.15
   8   2  -6   15.23    2.03
   7   2  -6   16.12    1.59
   7   2  -6   16.01    1.10
   6   2  -6   56.29    2.81
   6   2  -6   61.67    2.56
  -6  -2   6   54.97    2.48
  -6  -2   6   54.23    2.53
   5   2  -6   20.47    2.09
   5   2  -6   21.36    1.38
   5   2  -6   21.73    1.12
  -5  -2   6   21.44    1.21
  -5  -2   6   21.28    1.32
  -5  -2   6   18.96    1.11
   4   2  -6   19.83    1.25
   4   2  -6   19.83    1.79
   4   2  -6   17.87    1.61
   4   2  -6   20.89    1.04
  -4  -2   6   20.12    1.03
  -4  -2   6   18.73    1.14
  -4  -2   6   18.89    1.29
  -4  -2   6   20.08    1.15
   3   2  -6   28.03    1.74
   3   2  -6   29.32    1.32
   3   2  -6   27.16    1.88
   3   2  -6   26.36    1.50
  -3  -2   6   25.92    1.57
  -3  -2   6   27.39    1.42
  -3  -2   6   28.29    1.37
  -3  -2   6   28.46    1.29
   2   2  -6    2.77    0.58
   2   2  -6    1.75    0.66
   2   2  -6    2.56    0.44
   2   2  -6    3.26    0.36
  -2  -2   6    3.96    0.42
  -2  -2   6    2.54    0.56
  -2  -2   6    3.07    0.38
  -2  -2   6    5.03    0.56
   1   2  -6   22.85    1.12
   1   2  -6   23.15    1.47
   1   2  -6   24.40    1.30
   1   2  -6   24.81    1.60
  -1  -2   6   24.50    1.44
  -1  -2   6   23.29    1.12
  -1  -2   6   25.56    1.29
   0   2  -6  364.79   14.64
   0   2  -6  356.77   14.53
   0   2  -6  347.65   14.40
   0   2  -6  383.56   14.74
   0  -2   6  361.63   14.51
   0  -2   6  359.98   14.61
   0  -2   6  354.20   14.38
   0  -2   6  363.70   14.69
  -1   2  -6   20.99    1.25
  -1   2  -6   21.40    1.44
  -1   2  -6   20.40    1.12
   1  -2   6   19.92    1.27
   1  -2   6   21.19    1.13
   1  -2   6   22.79    0.99
   1  -2   6   20.02    1.19
  -2   2  -6   -0.04    0.23
  -2   2  -6    0.08    0.40
  -2   2  -6   -0.21    0.39
   2  -2   6    0.03    0.16
   2  -2   6   -0.20    0.29
   2  -2   6    0.20    0.38
   2  -2   6   -0.09    0.29
  -3   2  -6  139.46    5.83
  -3   2  -6  139.58    5.56
   3  -2   6  135.45    5.76
   3  -2   6  136.55    5.65
   3  -2   6  136.17    5.80
   3  -2   6  136.37    5.57
  -4   2  -6   37.25    2.07
   4  -2   6   37.35    1.90
   4  -2   6   37.94    1.90
   4  -2   6   38.38    1.77
   4  -2   6   37.53    1.69
   5  -2   6    0.74    0.41
   5  -2   6   -0.23    0.37
   5  -2   6    0.28    0.41
   6  -2   6   66.73    3.13
   6  -2   6   75.48    3.34
   6  -2   6   73.53    3.04
   6  -2   6   63.86    3.93
   7  -2   6    5.08    1.33
   7  -2   6    6.93    1.01
   7  -2   6    6.39    0.73
   7  -2   6    5.81    0.73
   8  -2   6    3.85    1.57
   8  -2   6    2.98    0.74
   8  -2   6    1.79    0.98
   8   1  -6    3.68    1.07
   8   1  -6    4.66    0.66
   7   1  -6   62.25    2.83
   7   1  -6   63.31    3.21
   6   1  -6   18.09    1.06
   6   1  -6   18.50    1.30
  -6  -1   6   17.80    0.92
  -6  -1   6   16.96    0.96
   5   1  -6    1.17    0.98
   5   1  -6    1.51    0.34
   5   1  -6    1.35    0.46
  -5  -1   6    1.39    0.45
  -5  -1   6    1.02    0.45
  -5  -1   6    1.99    0.47
   4   1  -6   -0.12    0.77
   4   1  -6    0.38    0.24
   4   1  -6    0.31    0.35
   4   1  -6   -0.21    0.64
  -4  -1   6    0.04    0.33
  -4  -1   6   -0.18    0.30
  -4  -1   6    0.72    0.43
  -4  -1   6   -0.20    0.34
   3   1  -6  210.96    8.65
   3   1  -6  198.25    8.36
   3   1  -6  203.15    8.23
   3   1  -6  202.94    8.57
  -3  -1   6  209.54    8.24
  -3  -1   6  208.57    8.29
  -3  -1   6  201.33    8.45
  -3  -1   6  199.17    8.29
   2   1  -6   91.49    4.20
   2   1  -6   96.81    4.30
   2   1  -6   91.74    4.03
   2   1  -6   95.38    3.91
  -2  -1   6   96.48    3.94
  -2  -1   6   99.09    3.92
  -2  -1   6   95.41    4.18
  -2  -1   6   93.84    3.98
   1   1  -6  594.62   23.17
   1   1  -6  616.93   23.26
   1   1  -6  563.94   22.90
   1   1  -6  559.92   23.02
  -1  -1   6  570.71   22.99
  -1  -1   6  560.64   22.90
  -1  -1   6  577.23   23.17
   0   1  -6    3.57    0.58
   0   1  -6    3.09    0.58
   0   1  -6    3.19    0.42
   0   1  -6    3.32    0.31
   0  -1   6    3.20    0.45
   0  -1   6    3.63    0.48
   0  -1   6    4.09    0.61
  -1   1  -6    0.06    0.21
  -1   1  -6    0.32    0.15
  -1   1  -6    0.11    0.40
  -1   1  -6    0.45    0.40
   1  -1   6   -0.11    0.34
   1  -1   6   -0.09    0.24
   1  -1   6    0.29    0.30
  -2   1  -6    8.50    0.59
  -2   1  -6    7.47    0.72
  -2   1  -6    8.20    0.93
   2  -1   6    6.99    0.59
   2  -1   6    8.03    0.46
   2  -1   6    6.36    0.74
   2  -1   6    8.65    0.71
  -3   1  -6   78.74    3.18
  -3   1  -6   78.67    3.16
  -3   1  -6   79.77    3.53
   3  -1   6   76.25    3.20
   3  -1   6   75.68    3.45
   3  -1   6   78.76    3.44
  -4   1  -6    0.28    0.54
   4  -1   6   -0.09    0.26
   4  -1   6    0.33    0.39
   4  -1   6    0.07    0.19
   4  -1   6   -0.15    0.31
   5  -1   6   22.52    1.31
   5  -1   6   23.56    1.16
   5  -1   6   22.43    1.44
   6  -1   6   47.62    2.30
   6  -1   6   50.19    2.17
   6  -1   6   50.77    2.57
   7  -1   6    1.58    0.76
   7  -1   6    0.34    0.52
   7  -1   6    1.29    1.00
   7  -1   6    1.07    0.45
   7  -1   6    1.40    0.40
   8  -1   6    6.86    1.62
   8  -1   6    7.91    1.36
   8  -1   6    7.28    0.92
   9  -1   6    0.18    1.70
   8   0  -6    0.03    0.50
   8   0  -6    1.77    0.86
   7   0  -6   10.29    1.16
   7   0  -6   12.69    0.93
   6   0  -6   54.86    2.51
   6   0  -6   54.60    2.38
   6   0  -6   55.96    3.20
  -6   0   6   44.81    2.50
   5   0  -6   11.63    1.52
   5   0  -6    8.34    0.81
   5   0  -6    9.17    1.15
   5   0  -6    9.95    0.67
  -5   0   6    6.39    0.87
  -5   0   6    8.25    0.68
  -5   0   6    7.77    0.72
  -5   0   6    7.96    0.92
   4   0  -6   14.25    0.93
   4   0  -6   15.37    1.31
   4   0  -6   16.26    1.46
   4   0  -6   14.25    0.82
  -4   0   6   14.82    0.91
  -4   0   6   14.20    0.96
  -4   0   6   15.16    1.04
  -4   0   6   12.89    0.99
   3   0  -6    1.91    0.65
   3   0  -6    1.70    0.57
   3   0  -6    1.15    0.31
   3   0  -6    1.84    0.27
  -3   0   6    1.39    0.32
  -3   0   6    0.96    0.33
   2   0  -6    0.51    0.41
   2   0  -6    1.05    0.20
   2   0  -6    0.65    0.25
   2   0  -6    1.00    0.50
  -2   0   6    0.68    0.38
  -2   0   6    1.07    0.30
  -2   0   6    1.65    0.27
  -2   0   6    1.29    0.28
   1   0  -6   46.38    1.95
   1   0  -6   44.41    2.28
   1   0  -6   46.91    2.07
  -1   0   6   44.22    2.17
  -1   0   6   47.38    1.99
  -1   0   6   44.81    2.22
  -1   0   6   47.59    2.05
  -1   0   6   47.74    2.00
   0   0  -6  202.37    8.11
   0   0  -6  205.56    8.22
   0   0  -6  194.84    8.48
   0   0   6  205.19    8.12
   0   0   6  208.92    8.21
   0   0   6  199.90    8.33
   0   0   6  203.78    8.39
  -1   0  -6  343.81   13.49
  -1   0  -6  353.65   13.64
  -1   0  -6  326.73   13.39
   1   0   6  337.65   13.63
   1   0   6  333.35   13.65
   1   0   6  329.07   13.38
  -2   0  -6   75.27    3.12
  -2   0  -6   74.88    3.36
  -2   0  -6   75.19    3.21
   2   0   6   74.58    3.31
   2   0   6   72.80    3.29
   2   0   6   74.96    3.13
   2   0   6   75.01    3.03
  -3   0  -6   35.68    1.89
  -3   0  -6   35.34    1.50
  -3   0  -6   36.72    1.49
   3   0   6   36.80    1.60
   3   0   6   34.49    1.75
   3   0   6   34.39    1.81
   3   0   6   35.69    1.50
  -4   0  -6    8.09    1.00
   4   0   6    7.09    0.45
   4   0   6    8.03    0.55
   4   0   6    8.17    0.82
   4   0   6    7.05    0.69
   5   0   6  117.66    4.74
   5   0   6  113.90    5.09
   5   0   6  116.39    4.89
   6   0   6   51.58    2.74
   6   0   6   53.43    2.42
   6   0   6   52.49    2.25
   6   0   6   52.04    2.32
   7   0   6   -0.18    0.35
   7   0   6   -1.11    0.84
   7   0   6    0.09    0.31
   7   0   6    0.07    0.75
   7   0   6   -0.75    0.49
   8   0   6    1.45    0.40
   8   0   6    1.74    1.17
   8   0   6    0.04    1.05
   9   0   6    5.22    1.60
   9   0   6    4.93    1.62
   8  -1  -6    3.91    0.66
   7  -1  -6    0.31    0.39
   7  -1  -6    0.83    0.28
   7  -1  -6    0.49    0.56
   6  -1  -6   15.24    1.10
   6  -1  -6   17.99    1.87
   6  -1  -6   17.97    0.89
   6  -1  -6   15.43    0.98
  -6   1   6   13.27    1.39
   5  -1  -6  128.63    5.02
   5  -1  -6  126.42    4.94
   5  -1  -6  125.01    5.40
   5  -1  -6  119.95    5.04
   5  -1  -6  119.38    5.41
  -5   1   6  113.53    5.19
  -5   1   6  110.34    5.20
  -5   1   6  115.78    4.89
  -5   1   6  120.68    4.93
   4  -1  -6   16.18    1.25
   4  -1  -6   15.86    0.86
   4  -1  -6   16.69    1.39
   4  -1  -6   14.40    0.78
   4  -1  -6   14.15    0.89
  -4   1   6   13.41    1.06
  -4   1   6   13.94    0.86
  -4   1   6   13.98    1.05
  -4   1   6   14.38    0.97
   3  -1  -6  248.01   10.04
   3  -1  -6  240.05    9.83
   3  -1  -6  241.11    9.76
   3  -1  -6  241.90    9.78
   3  -1  -6  249.37   10.10
  -3   1   6  242.30    9.94
  -3   1   6  240.22    9.87
   2  -1  -6  112.02    4.54
   2  -1  -6  112.51    4.56
   2  -1  -6  115.09    4.79
   2  -1  -6  107.54    4.83
   2  -1  -6  111.85    4.61
  -2   1   6  110.06    4.59
  -2   1   6  109.74    4.60
  -2   1   6  112.03    4.77
  -2   1   6  109.32    4.60
   1  -1  -6   28.53    1.34
   1  -1  -6   30.59    1.54
   1  -1  -6   28.49    1.25
   1  -1  -6   28.90    1.60
  -1   1   6   26.57    1.52
  -1   1   6   25.98    1.37
  -1   1   6   28.51    1.47
  -1   1   6   29.22    1.32
  -1   1   6   28.02    1.48
   0  -1  -6  353.84   14.38
   0  -1  -6  359.02   14.48
   0  -1  -6  376.48   14.67
   0   1   6  351.31   14.40
   0   1   6  363.21   14.62
   0   1   6  371.85   14.68
   0   1   6  363.03   14.46
  -1  -1  -6  282.69   11.40
  -1  -1  -6  285.32   11.50
  -1  -1  -6  299.97   11.66
   1   1   6  289.90   11.67
   1   1   6  294.08   11.50
   1   1   6  277.30   11.41
   1   1   6  282.82   11.68
  -2  -1  -6   57.44    2.35
  -2  -1  -6   55.24    2.60
  -2  -1  -6   58.16    2.45
   2   1   6   55.53    2.36
   2   1   6   54.59    2.56
   2   1   6   53.03    2.25
   2   1   6   54.08    2.52
  -3  -1  -6  142.54    5.44
  -3  -1  -6  129.85    5.78
  -3  -1  -6  135.37    5.45
   3   1   6  133.38    5.40
   3   1   6  134.74    5.76
   3   1   6  138.86    5.51
   3   1   6  133.74    5.66
  -4  -1  -6   13.94    1.20
   4   1   6   12.67    0.61
   4   1   6   13.71    0.74
   4   1   6   15.00    0.91
   4   1   6   12.79    1.05
   5   1   6   65.83    2.68
   5   1   6   64.68    2.91
   5   1   6   66.06    3.19
   5   1   6   68.16    2.76
   5   1   6   64.39    2.74
   6   1   6   20.30    1.20
   6   1   6   19.74    1.03
   6   1   6   21.12    0.98
   6   1   6   20.50    1.59
   7   1   6    0.28    0.38
   7   1   6    0.41    0.79
   7   1   6    0.36    0.22
   7   1   6   -0.05    0.47
   8   1   6    3.01    0.34
   8   1   6    4.25    1.22
   8   1   6    2.91    1.05
   9   1   6    4.28    1.67
   8  -2  -6    6.81    0.83
   8  -2  -6    5.98    0.92
   7  -2  -6   28.04    1.41
   7  -2  -6   25.37    1.56
   7  -2  -6   26.46    1.52
   6  -2  -6   17.82    1.71
   6  -2  -6   15.78    1.07
   6  -2  -6   16.92    0.96
   6  -2  -6   15.65    1.03
   6  -2  -6   14.88    1.83
  -6   2   6   12.79    1.56
   5  -2  -6   12.58    1.31
   5  -2  -6   11.72    1.28
   5  -2  -6   10.90    0.74
   5  -2  -6   10.75    0.81
   5  -2  -6   12.28    0.82
  -5   2   6   12.73    1.36
  -5   2   6   10.59    0.63
  -5   2   6    9.72    1.22
   4  -2  -6   68.53    2.82
   4  -2  -6   66.73    3.11
   4  -2  -6   65.41    3.18
   4  -2  -6   63.95    2.84
   4  -2  -6   65.45    2.84
  -4   2   6   62.69    3.03
  -4   2   6   65.84    2.80
  -4   2   6   62.51    3.01
   3  -2  -6   11.42    1.00
   3  -2  -6   11.34    1.10
   3  -2  -6   10.58    0.72
   3  -2  -6   11.78    0.72
   3  -2  -6   12.36    0.69
  -3   2   6   11.02    0.90
  -3   2   6   12.05    0.89
  -3   2   6   11.04    0.89
  -3   2   6   10.81    0.74
   2  -2  -6  168.06    6.88
   2  -2  -6  171.11    7.12
   2  -2  -6  173.52    6.87
   2  -2  -6  169.96    6.85
   2  -2  -6  172.81    7.05
  -2   2   6  169.66    6.96
  -2   2   6  169.01    7.02
  -2   2   6  161.21    6.92
  -2   2   6  166.46    7.05
   1  -2  -6   45.90    1.98
   1  -2  -6   48.74    2.03
   1  -2  -6   45.86    2.04
   1  -2  -6   46.68    2.28
  -1   2   6   45.41    2.16
  -1   2   6   44.45    2.23
  -1   2   6   48.24    2.06
   0  -2  -6  196.88    8.00
   0  -2  -6  194.54    7.75
   0  -2  -6  186.55    8.02
   0  -2  -6  193.55    7.84
   0   2   6  192.88    7.80
   0   2   6  196.02    8.04
   0   2   6  189.27    7.87
   0   2   6  203.61    8.03
  -1  -2  -6    3.66    0.37
  -1  -2  -6    2.81    0.22
  -1  -2  -6    3.94    0.53
   1   2   6    3.08    0.49
   1   2   6    3.54    0.40
   1   2   6    2.93    0.28
   1   2   6    3.15    0.48
  -2  -2  -6  109.18    4.48
  -2  -2  -6  113.50    4.87
  -2  -2  -6  115.03    4.69
  -2  -2  -6  114.62    4.59
   2   2   6  110.18    4.82
   2   2   6  114.63    4.62
   2   2   6  113.62    4.50
   2   2   6  114.41    4.63
   2   2   6  107.75    4.77
  -3  -2  -6  233.18    9.45
  -3  -2  -6  236.51    9.43
  -3  -2  -6  246.77    9.80
   3   2   6  231.49    9.63
   3   2   6  233.78    9.48
   3   2   6  236.36    9.76
  -4  -2  -6    0.52    0.58
   4   2   6    0.71    0.49
   4   2   6    1.24    0.37
   4   2   6    0.50    0.25
   5   2   6    8.73    1.05
   5   2   6    8.52    0.62
   5   2   6    7.84    0.76
   6   2   6    0.06    0.39
   6   2   6    0.08    0.57
   7   2   6    0.43    0.48
   7   2   6    0.07    0.48
   7   2   6    0.37    0.79
   8   2   6    1.77    0.93
   8   2   6   -0.55    1.06
   8   2   6    2.18    0.61
   9   2   6   28.98    2.93
   8  -3  -6    0.40    0.70
   8  -3  -6    0.66    0.62
   8  -3  -6    2.49    0.68
   7  -3  -6   -0.35    0.49
   7  -3  -6    0.30    0.51
   7  -3  -6   -0.04    0.41
   6  -3  -6   26.08    2.15
   6  -3  -6   26.10    1.40
   6  -3  -6   24.61    1.39
   6  -3  -6   27.52    1.45
   6  -3  -6   23.95    1.93
  -6   3   6   18.57    1.95
   5  -3  -6    8.92    1.24
   5  -3  -6   10.70    1.23
   5  -3  -6   10.55    0.80
   5  -3  -6    9.47    0.77
   5  -3  -6    9.77    0.84
  -5   3   6    8.41    1.27
   4  -3  -6   78.97    3.43
   4  -3  -6   83.16    3.67
   4  -3  -6   84.17    3.48
   4  -3  -6   81.37    3.76
   4  -3  -6   82.25    3.48
  -4   3   6   76.30    3.71
  -4   3   6   76.98    3.37
  -4   3   6   78.32    3.45
   3  -3  -6    1.01    0.58
   3  -3  -6    0.92    0.25
   3  -3  -6    0.61    0.25
   3  -3  -6    0.42    0.47
   3  -3  -6    0.64    0.26
  -3   3   6    0.66    0.40
  -3   3   6    1.20    0.48
  -3   3   6    1.11    0.32
   2  -3  -6   28.36    1.37
   2  -3  -6   29.04    1.55
   2  -3  -6   29.09    1.38
   2  -3  -6   29.51    1.37
   2  -3  -6   29.17    1.67
  -2   3   6   29.01    1.58
  -2   3   6   28.62    1.47
  -2   3   6   28.95    1.63
  -2   3   6   27.54    1.46
  -2   3   6   27.54    1.51
   1  -3  -6   38.99    1.67
   1  -3  -6   37.86    1.90
   1  -3  -6   34.15    1.64
   1  -3  -6   36.03    1.81
   1  -3  -6   35.18    1.61
  -1   3   6   38.26    1.76
  -1   3   6   35.02    1.76
   0  -3  -6   75.44    3.02
   0  -3  -6   72.40    3.17
   0  -3  -6   73.15    2.94
   0  -3  -6   65.79    3.26
   0   3   6   66.66    2.98
   0   3   6   74.44    3.07
   0   3   6   70.45    3.14
   0   3   6   72.60    3.22
   0   3   6   69.89    3.04
  -1  -3  -6   90.29    3.75
  -1  -3  -6   87.92    3.58
  -1  -3  -6   88.64    3.47
  -1  -3  -6   86.62    3.58
  -1  -3  -6   86.41    3.94
   1   3   6   80.34    3.51
   1   3   6   83.57    3.67
   1   3   6   84.06    3.77
   1   3   6   86.74    3.68
   1   3   6   85.21    3.75
  -2  -3  -6  177.50    7.43
  -2  -3  -6  187.78    7.83
  -2  -3  -6  192.15    7.57
  -2  -3  -6  196.32    7.68
   2   3   6  186.66    7.76
   2   3   6  185.63    7.80
   2   3   6  182.38    7.66
   2   3   6  193.33    7.61
  -3  -3  -6    3.15    0.33
  -3  -3  -6    1.92    0.52
  -3  -3  -6    2.02    0.32
   3   3   6    2.03    0.31
   3   3   6    2.04    0.41
   3   3   6    2.20    0.49
   3   3   6    1.75    0.37
   4   3   6  166.37    7.42
   4   3   6  170.42    7.08
   4   3   6  174.86    7.22
   4   3   6  184.78    7.09
   5   3   6  151.17    5.95
   5   3   6  142.09    5.95
   5   3   6  144.33    6.39
   5   3   6  142.18    6.07
   6   3   6    5.62    0.62
   6   3   6    4.41    0.63
   6   3   6    4.02    0.86
   6   3   6    4.89    0.58
   7   3   6    3.50    0.65
   7   3   6    2.27    0.87
   7   3   6    2.55    0.45
   7   3   6    3.10    0.63
   8   3   6   15.64    1.69
   8   3   6   20.11    1.46
   8   3   6   19.16    2.21
   9   3   6    2.88    1.60
   8  -4  -6    8.89    1.00
   8  -4  -6    7.69    1.17
   7  -4  -6    0.68    0.53
   7  -4  -6    0.14    0.52
   7  -4  -6    1.18    0.59
   6  -4  -6   -0.16    0.46
   6  -4  -6    0.50    0.46
   6  -4  -6    1.60    0.45
   6  -4  -6    1.43    0.94
   6  -4  -6    1.41    1.06
  -6   4   6    0.91    1.07
   5  -4  -6   32.75    2.17
   5  -4  -6   33.05    1.97
   5  -4  -6   33.13    1.74
   5  -4  -6   35.08    1.76
   5  -4  -6   32.87    1.63
  -5   4   6   27.47    2.15
   4  -4  -6    4.87    0.57
   4  -4  -6    6.49    0.82
   4  -4  -6    5.12    0.61
   4  -4  -6    6.09    0.68
   4  -4  -6    4.24    0.87
  -4   4   6    5.02    0.86
  -4   4   6    5.36    0.68
  -4   4   6    5.53    0.62
   3  -4  -6  223.19    9.23
   3  -4  -6  231.14    9.11
   3  -4  -6  237.54    9.08
   3  -4  -6  215.49    8.98
  -3   4   6  201.56    9.21
  -3   4   6  216.78    9.09
  -3   4   6  221.87    9.10
   2  -4  -6  291.46   12.23
   2  -4  -6  298.58   12.00
   2  -4  -6  306.49   12.05
   2  -4  -6  305.67   12.22
   2  -4  -6  300.11   12.01
  -2   4   6  293.25   12.00
  -2   4   6  304.04   12.18
  -2   4   6  287.89   12.17
  -2   4   6  294.15   12.06
   1  -4  -6  228.16    9.29
   1  -4  -6  228.62    9.41
   1  -4  -6  229.21    9.32
   1  -4  -6  240.05    9.52
   1  -4  -6  243.82    9.35
  -1   4   6  221.85    9.50
  -1   4   6  226.01    9.39
  -1   4   6  227.08    9.34
  -1   4   6  227.23    9.44
   0  -4  -6    6.29    0.82
   0  -4  -6    5.90    0.48
   0  -4  -6    4.86    0.48
   0  -4  -6    4.52    0.62
   0  -4  -6    5.60    0.44
   0   4   6    5.86    0.64
   0   4   6    5.67    0.59
   0   4   6    5.67    0.60
   0   4   6    6.21    0.72
  -1  -4  -6   70.82    3.02
  -1  -4  -6   71.33    3.23
  -1  -4  -6   71.55    3.01
  -1  -4  -6   73.90    3.18
  -1  -4  -6   74.67    2.93
   1   4   6   71.11    3.08
   1   4   6   69.07    3.07
   1   4   6   67.79    3.17
   1   4   6   69.32    3.22
  -2  -4  -6    0.01    0.15
  -2  -4  -6    0.25    0.37
  -2  -4  -6   -0.06    0.36
  -2  -4  -6   -0.06    0.19
  -2  -4  -6    0.12    0.09
   2   4   6   -0.37    0.31
   2   4   6    0.12    0.22
   2   4   6    0.57    0.31
   2   4   6    0.88    0.36
  -3  -4  -6   13.02    0.71
  -3  -4  -6   12.77    0.83
  -3  -4  -6   13.77    1.17
   3   4   6   12.12    0.85
   3   4   6   13.00    0.94
   3   4   6   11.82    1.03
   3   4   6   13.57    0.78
  -4  -4  -6   -0.11    0.22
  -4  -4  -6    0.09    0.19
   4   4   6   -0.47    0.38
   4   4   6    0.30    0.37
   4   4   6   -0.20    0.23
   4   4   6    0.02    0.34
   5   4   6   65.79    3.44
   5   4   6   64.85    3.02
   5   4   6   66.34    3.12
   5   4   6   76.00    2.97
   6   4   6    2.10    0.59
   6   4   6    1.73    0.55
   6   4   6    3.03    0.43
   6   4   6    1.65    0.72
   7   4   6    0.27    0.37
   7   4   6    1.50    0.88
   7   4   6   -0.77    0.63
   7   4   6    0.10    0.57
   8   4   6   19.31    1.57
   8   4   6   20.51    2.39
   8   4   6   19.95    1.66
   9   4   6   23.26    2.83
   8  -5  -6   20.67    1.74
   8  -5  -6   20.66    1.85
   7  -5  -6   22.08    1.64
   7  -5  -6   23.94    1.72
   7  -5  -6   22.11    1.53
   6  -5  -6    1.71    0.62
   6  -5  -6    2.75    0.62
   6  -5  -6    2.38    0.55
   6  -5  -6    2.63    1.46
   6  -5  -6    1.88    0.94
   5  -5  -6    9.92    0.99
   5  -5  -6   10.86    0.89
   5  -5  -6   10.87    1.01
   5  -5  -6   11.33    1.22
   5  -5  -6   10.22    1.34
  -5   5   6    6.88    1.28
   4  -5  -6   15.30    1.56
   4  -5  -6   19.42    1.15
   4  -5  -6   19.94    1.24
   4  -5  -6   19.09    1.29
   4  -5  -6   20.19    1.26
  -4   5   6   18.58    1.15
  -4   5   6   18.13    1.08
  -4   5   6   16.85    1.69
   3  -5  -6   50.34    2.60
   3  -5  -6   52.87    2.42
   3  -5  -6   51.79    2.37
   3  -5  -6   51.39    2.30
  -3   5   6   48.80    2.43
  -3   5   6   47.80    2.29
  -3   5   6   45.34    2.63
   2  -5  -6  279.70   10.87
   2  -5  -6  260.69   10.79
   2  -5  -6  269.27   10.81
   2  -5  -6  271.52   10.78
   2  -5  -6  268.16   10.97
  -2   5   6  266.49   10.78
  -2   5   6  262.06   10.77
  -2   5   6  248.33   10.99
  -2   5   6  265.57   10.94
   1  -5  -6    0.27    0.30
   1  -5  -6   -0.12    0.22
   1  -5  -6   -0.20    0.44
   1  -5  -6    0.25    0.25
   1  -5  -6    0.10    0.36
  -1   5   6   -0.32    0.27
  -1   5   6    0.33    0.40
  -1   5   6   -0.12    0.35
  -1   5   6    0.26    0.42
   0  -5  -6  203.55    8.03
   0  -5  -6  204.52    8.04
   0  -5  -6  198.70    8.17
   0  -5  -6  192.47    7.97
   0   5   6  191.73    8.21
   0   5   6  196.15    8.05
   0   5   6  198.97    8.11
   0   5   6  186.43    8.13
  -1  -5  -6  109.50    4.81
  -1  -5  -6  111.59    4.75
  -1  -5  -6  119.49    4.62
  -1  -5  -6  108.28    4.61
  -1  -5  -6  107.43    4.52
   1   5   6  112.32    4.72
   1   5   6  111.24    4.83
   1   5   6  106.62    4.75
   1   5   6  108.88    4.67
  -2  -5  -6  294.23   11.72
  -2  -5  -6  279.58   11.86
  -2  -5  -6  294.46   11.60
  -2  -5  -6  290.08   11.62
   2   5   6  297.54   11.70
   2   5   6  284.41   11.68
   2   5   6  284.90   11.85
   2   5   6  284.79   11.83
  -3  -5  -6   63.01    2.69
  -3  -5  -6   63.68    2.60
   3   5   6   58.08    2.69
   3   5   6   56.12    2.91
   3   5   6   60.25    2.67
   3   5   6   56.89    2.81
  -4  -5  -6   37.88    1.76
  -4  -5  -6   39.72    1.70
   4   5   6   39.96    1.82
   4   5   6   36.14    2.18
   4   5   6   36.48    1.89
   4   5   6   37.00    1.97
  -5  -5  -6   24.69    1.10
   5   5   6   24.74    1.49
   5   5   6   25.85    1.33
   5   5   6   24.04    1.82
   5   5   6   25.66    1.53
   6   5   6   16.23    1.33
   6   5   6   15.46    1.32
   6   5   6   18.45    1.09
   7   5   6    1.20    0.81
   7   5   6    2.02    0.51
   7   5   6    1.09    0.99
   7   5   6    1.92    0.73
   8   5   6    2.86    1.33
   8   5   6    3.32    0.97
   9   5   6    9.33    1.86
   7  -6  -6   12.26    1.56
   7  -6  -6   11.95    1.43
   6  -6  -6   33.56    2.08
   6  -6  -6   32.84    1.88
   6  -6  -6   34.73    2.04
   5  -6  -6   27.15    1.62
   5  -6  -6   23.43    2.13
   5  -6  -6   26.93    1.69
   5  -6  -6   27.04    1.74
   5  -6  -6   27.18    1.55
   4  -6  -6   15.86    1.61
   4  -6  -6   16.16    1.23
   4  -6  -6   15.61    1.18
   4  -6  -6   18.40    1.27
   4  -6  -6   18.59    1.14
  -4   6   6   14.69    1.10
  -4   6   6   15.57    1.05
  -4   6   6   12.60    1.74
   3  -6  -6  608.91   24.61
   3  -6  -6  629.30   24.57
   3  -6  -6  627.22   24.39
   3  -6  -6  602.53   24.49
   3  -6  -6  633.42   24.43
  -3   6   6  583.78   24.35
  -3   6   6  638.32   24.54
  -3   6   6  559.73   24.75
   2  -6  -6    3.55    0.54
   2  -6  -6    3.12    0.48
   2  -6  -6    3.08    0.56
   2  -6  -6    2.52    0.67
   2  -6  -6    2.03    0.43
  -2   6   6    2.05    0.50
  -2   6   6    3.10    0.47
  -2   6   6    2.93    0.74
  -2   6   6    3.22    0.67
   1  -6  -6  284.93   11.04
   1  -6  -6  273.60   11.17
   1  -6  -6  272.12   11.05
   1  -6  -6  266.68   11.00
   1  -6  -6  282.54   11.09
  -1   6   6  273.12   11.22
  -1   6   6  272.23   11.01
  -1   6   6  267.08   11.02
  -1   6   6  246.32   11.20
   0  -6  -6  129.72    5.58
   0  -6  -6  122.60    5.38
   0  -6  -6  134.58    5.47
   0  -6  -6  142.35    5.49
   0  -6  -6  126.59    5.53
   0   6   6  126.84    5.62
   0   6   6  127.25    5.48
   0   6   6  129.48    5.50
   0   6   6  129.04    5.66
  -1  -6  -6   10.42    1.01
  -1  -6  -6   11.57    1.02
  -1  -6  -6   11.05    0.81
  -1  -6  -6   11.49    0.76
   1   6   6   10.16    0.95
   1   6   6    9.91    0.90
   1   6   6   10.34    1.02
   1   6   6   10.12    0.91
  -2  -6  -6   26.20    1.26
  -2  -6  -6   23.94    1.43
  -2  -6  -6   25.21    1.33
   2   6   6   24.64    1.42
   2   6   6   24.25    1.53
   2   6   6   26.20    1.58
   2   6   6   24.54    1.43
  -3  -6  -6  479.35   18.59
  -3  -6  -6  470.05   18.51
  -3  -6  -6  425.98   18.33
  -3  -6  -6  462.67   18.46
  -3  -6  -6  446.69   18.29
   3   6   6  477.24   18.87
   3   6   6  476.36   18.62
   3   6   6  474.10   18.77
   3   6   6  455.08   18.62
  -4  -6  -6    4.59    0.58
  -4  -6  -6    5.17    0.64
   4   6   6    4.70    0.73
   4   6   6    6.06    0.77
   4   6   6    6.08    0.78
   4   6   6    4.87    0.91
  -5  -6  -6   38.72    1.81
  -5  -6  -6   40.07    1.74
   5   6   6   38.87    1.96
   5   6   6   37.68    2.10
   5   6   6   40.86    2.18
   5   6   6   39.38    2.47
   6   6   6   87.43    4.01
   6   6   6   82.91    3.94
   6   6   6   84.73    3.73
   6   6   6   87.63    4.41
   7   6   6   10.05    1.64
   7   6   6    9.74    1.20
   8   6   6    3.74    1.48
   8   6   6    5.01    1.16
   7  -7  -6    6.76    1.04
   7  -7  -6    5.67    1.12
   7  -7  -6    5.91    1.02
   6  -7  -6   -0.35    0.67
   6  -7  -6   -1.02    0.72
   5  -7  -6   46.94    2.42
   5  -7  -6   48.67    2.68
   5  -7  -6   47.01    2.28
   5  -7  -6   50.68    2.63
   4  -7  -6    1.72    0.54
   4  -7  -6    2.39    1.15
   4  -7  -6    0.93    0.52
   4  -7  -6    1.16    0.54
  -4   7   6    1.09    0.51
  -4   7   6    1.67    0.58
   3  -7  -6   48.84    2.49
   3  -7  -6   50.30    2.43
   3  -7  -6   50.81    2.33
   3  -7  -6   50.41    2.57
   3  -7  -6   51.81    2.72
  -3   7   6   48.51    2.56
  -3   7   6   47.61    2.41
   2  -7  -6   93.76    4.02
   2  -7  -6   94.87    4.10
   2  -7  -6   99.21    4.22
   2  -7  -6   91.06    4.13
   2  -7  -6   93.92    4.29
  -2   7   6   92.62    4.28
  -2   7   6   90.16    4.09
  -2   7   6   85.21    4.44
  -2   7   6   95.84    3.97
   1  -7  -6  163.31    6.59
   1  -7  -6  160.87    6.72
   1  -7  -6  149.02    6.71
   1  -7  -6  143.67    6.53
   1  -7  -6  164.99    6.65
  -1   7   6  150.95    6.86
  -1   7   6  159.96    6.79
  -1   7   6  155.99    6.58
  -1   7   6  159.44    6.51
   0  -7  -6  329.91   13.68
   0  -7  -6  348.22   13.65
   0  -7  -6  338.73   13.75
   0  -7  -6  356.72   13.68
   0   7   6  314.80   13.83
   0   7   6  333.57   13.65
   0   7   6  345.63   13.87
   0   7   6  323.15   13.66
  -1  -7  -6   11.43    1.10
  -1  -7  -6   12.03    0.95
  -1  -7  -6   13.76    0.91
   1   7   6   11.24    1.04
   1   7   6   12.89    1.19
   1   7   6   12.28    1.18
   1   7   6   10.61    1.02
  -2  -7  -6   25.50    1.43
  -2  -7  -6   25.31    1.54
  -2  -7  -6   27.22    1.33
   2   7   6   24.86    1.61
   2   7   6   25.04    1.53
   2   7   6   24.33    1.58
   2   7   6   23.56    1.64
  -3  -7  -6   86.59    3.53
  -3  -7  -6   84.63    3.63
  -3  -7  -6   79.53    3.69
  -3  -7  -6   89.44    3.36
   3   7   6   84.85    3.97
   3   7   6   79.49    3.75
   3   7   6   78.64    3.87
   3   7   6   77.16    3.74
  -4  -7  -6   58.40    2.53
  -4  -7  -6   56.63    2.63
  -4  -7  -6   56.10    2.24
   4   7   6   54.36    2.82
   4   7   6   53.84    2.75
   4   7   6   51.26    2.66
   4   7   6   57.08    3.03
  -5  -7  -6    3.55    0.64
  -5  -7  -6    3.55    0.46
   5   7   6    3.25    0.77
   5   7   6    2.51    0.63
   5   7   6    2.14    0.94
  -6  -7  -6   25.59    1.22
  -6  -7  -6   27.71    1.20
   6   7   6   26.54    1.93
   6   7   6   28.60    2.33
   6   7   6   25.17    1.64
   7   7   6   -0.94    1.09
   8   7   6   18.01    2.24
   8   7   6   14.88    1.76
   6  -8  -6    3.08    0.95
   6  -8  -6    2.64    0.94
   6  -8  -6    2.18    0.97
   5  -8  -6   13.35    1.39
   5  -8  -6   13.53    1.59
   5  -8  -6   13.99    1.55
   4  -8  -6    0.82    0.60
   4  -8  -6   -0.54    0.61
   4  -8  -6   -0.56    0.54
  -4   8   6    0.17    0.60
  -4   8   6   -0.60    0.79
   3  -8  -6   44.29    2.21
   3  -8  -6   40.66    2.35
  -3   8   6   37.99    2.21
  -3   8   6   44.99    2.41
   2  -8  -6   19.94    1.42
   2  -8  -6   19.59    1.32
  -2   8   6   18.46    1.10
  -2   8   6   17.33    1.43
  -2   8   6   18.93    1.60
   1  -8  -6   17.99    1.22
   1  -8  -6   15.57    1.54
   1  -8  -6   16.05    1.23
  -1   8   6   15.56    1.76
  -1   8   6   15.82    1.51
  -1   8   6   17.19    1.10
  -1   8   6   18.36    1.36
   0  -8  -6    8.18    0.91
   0  -8  -6    7.62    0.98
   0  -8  -6    9.00    0.89
   0   8   6    8.62    0.94
   0   8   6    7.94    1.17
   0   8   6    8.65    0.99
   0   8   6    9.68    1.20
  -1  -8  -6  252.09   10.75
  -1  -8  -6  269.37   10.69
  -1  -8  -6  284.21   10.69
   1   8   6  257.71   10.75
   1   8   6  249.90   10.72
   1   8   6  241.56   10.88
   1   8   6  263.84   10.92
  -2  -8  -6   12.79    1.23
  -2  -8  -6   15.49    0.98
  -2  -8  -6   14.05    1.08
   2   8   6   12.65    1.32
   2   8   6   11.38    1.26
   2   8   6   13.67    1.30
   2   8   6   10.42    1.31
  -3  -8  -6   44.38    2.16
  -3  -8  -6   41.24    2.25
  -3  -8  -6   43.87    2.00
  -3  -8  -6   42.47    1.83
   3   8   6   42.01    2.47
   3   8   6   39.64    2.33
   3   8   6   44.63    2.44
  -4  -8  -6    4.85    0.55
  -4  -8  -6    5.12    0.84
  -4  -8  -6    4.96    0.66
  -4  -8  -6    4.84    0.38
   4   8   6    5.91    1.11
   4   8   6    4.78    0.85
   4   8   6    5.84    0.95
  -5  -8  -6    3.33    0.73
  -5  -8  -6    3.88    0.59
   5   8   6    4.19    1.11
   5   8   6    3.35    0.81
   5   8   6    4.45    1.05
  -6  -8  -6    5.45    0.63
   6   8   6    3.82    1.32
   6   8   6    3.87    1.06
   7   8   6   10.91    1.79
   7   8   6    8.01    1.44
   8   8   6   -1.49    1.69
   8   8   6   -0.25    1.36
   6  -9  -6   13.14    1.55
   6  -9  -6   13.87    1.96
   6  -9  -6   16.50    1.93
   5  -9  -6   13.99    1.63
   5  -9  -6   12.44    1.64
   5  -9  -6   12.22    1.49
   4  -9  -6   24.10    1.90
   4  -9  -6   22.15    1.91
   4  -9  -6   21.13    1.69
  -4   9   6   22.80    1.66
   3  -9  -6   13.22    1.29
   3  -9  -6   12.85    1.41
   3  -9  -6   10.45    1.39
  -3   9   6   13.08    1.56
  -3   9   6   12.63    1.41
   2  -9  -6   10.35    1.19
  -2   9   6    8.91    0.79
  -2   9   6    9.21    1.11
  -2   9   6   10.74    1.27
   1  -9  -6   23.53    1.66
   1  -9  -6   25.54    1.62
  -1   9   6   23.26    1.93
  -1   9   6   26.42    1.41
  -1   9   6   22.95    1.81
   0  -9  -6    2.52    0.67
   0  -9  -6    1.65    0.49
   0   9   6    2.30    0.57
   0   9   6    0.83    0.80
  -1  -9  -6   19.62    1.28
  -1  -9  -6   20.93    1.37
   1   9   6   18.35    1.67
   1   9   6   16.57    1.40
   1   9   6   14.02    1.78
  -2  -9  -6   20.59    1.12
  -2  -9  -6   24.46    1.37
  -2  -9  -6   22.25    1.49
   2   9   6   23.52    1.83
   2   9   6   21.26    1.65
   2   9   6   17.51    1.78
  -3  -9  -6    2.72    0.47
  -3  -9  -6    1.90    0.34
  -3  -9  -6    3.25    0.66
   3   9   6    1.91    0.80
   3   9   6    1.78    1.00
   3   9   6    2.91    0.89
  -4  -9  -6   18.36    1.38
  -4  -9  -6   17.64    0.92
  -4  -9  -6   20.17    1.08
  -4  -9  -6   14.71    1.60
   4   9   6   19.26    1.84
   4   9   6   16.75    1.72
   4   9   6   19.24    1.80
  -5  -9  -6    2.04    0.62
  -5  -9  -6    2.61    0.81
   5   9   6    3.45    1.17
   5   9   6    2.17    0.91
   5   9   6    3.51    1.03
   6   9   6    0.91    1.32
   6   9   6    1.36    1.16
   7   9   6    3.79    1.65
   7   9   6    5.78    1.54
   5 -10  -6   10.06    1.48
   5 -10  -6   12.42    1.61
   4 -10  -6   21.26    1.98
   4 -10  -6   20.91    2.01
   4 -10  -6   18.92    1.88
  -4  10   6   26.62    2.33
   3 -10  -6    0.95    0.81
   3 -10  -6    0.94    0.77
   3 -10  -6    0.93    0.77
  -3  10   6    4.21    1.16
   2 -10  -6   24.67    1.85
   2 -10  -6   27.33    1.95
  -2  10   6   25.81    2.17
  -2  10   6   25.37    1.37
   1 -10  -6    1.28    0.71
   1 -10  -6    1.38    0.68
  -1  10   6    1.57    0.51
   0 -10  -6   22.39    1.56
   0 -10  -6   22.13    1.59
   0  10   6   19.79    1.45
   0  10   6   20.70    2.00
  -1 -10  -6    9.64    1.20
  -1 -10  -6    8.84    1.04
   1  10   6    9.87    1.39
   1  10   6   11.11    1.23
  -2 -10  -6    0.35    0.46
  -2 -10  -6    1.10    0.64
  -2 -10  -6   -0.13    0.39
   2  10   6   -0.03    0.87
   2  10   6    0.17    0.71
  -3 -10  -6    2.39    0.55
  -3 -10  -6    2.67    0.76
  -3 -10  -6    2.71    0.41
   3  10   6    1.55    1.09
   3  10   6    1.16    0.96
   3  10   6    4.01    1.03
  -4 -10  -6    0.08    0.38
  -4 -10  -6    0.29    0.65
   4  10   6    0.32    1.03
   4  10   6   -0.35    1.04
   4  10   6    0.00    0.99
  -5 -10  -6    2.10    0.77
   5  10   6    1.95    1.22
   5  10   6    3.23    1.29
  -6 -10  -6    1.32    0.76
   6  10   6    0.42    1.31
   6  10   6    3.36    1.49
   7  10   6    0.72    1.86
   4 -11  -6    9.68    1.45
   4 -11  -6   14.32    1.67
   4 -11  -6    9.15    1.44
   3 -11  -6    2.82    0.98
   3 -11  -6    4.01    1.15
   3 -11  -6    5.81    1.15
  -3  11   6    3.03    1.55
   2 -11  -6   -0.58    0.87
   2 -11  -6    0.68    0.87
  -2  11   6   -1.32    1.20
   1 -11  -6   -0.36    0.65
   1 -11  -6   -0.66    0.82
  -1  11   6   -0.46    1.12
  -1  11   6   -0.33    0.49
   0 -11  -6    3.22    0.91
   0 -11  -6    4.34    0.90
   0  11   6    3.31    0.81
   0  11   6    3.41    1.23
  -1 -11  -6   11.82    1.31
  -1 -11  -6   11.75    1.51
   1  11   6   11.63    1.56
   1  11   6   12.45    1.48
  -2 -11  -6    3.82    0.91
   2  11   6    3.82    1.28
   2  11   6    1.80    0.96
  -3 -11  -6    2.82    0.70
  -3 -11  -6    2.06    0.88
   3  11   6    3.45    1.12
   3  11   6    2.91    1.26
  -4 -11  -6    3.78    0.97
  -4 -11  -6    3.47    0.62
   4  11   6    2.65    1.30
   4  11   6    6.12    1.43
  -5 -11  -6    4.29    1.10
   5  11   6    6.35    1.60
   5  11   6    8.54    1.63
   6  11   6   -1.87    1.46
   6  11   6    0.34    1.66
   3 -12  -6   13.69    1.61
   3 -12  -6   17.95    2.21
   3 -12  -6   14.71    1.82
   2 -12  -6   -0.64    0.98
   2 -12  -6    0.22    0.96
  -2  12   6   -0.39    1.67
   1 -12  -6   10.23    1.41
   1 -12  -6   17.40    1.77
  -1  12   6   14.29    2.06
   0 -12  -6    4.42    1.00
   0 -12  -6    3.09    0.99
   0  12   6    4.27    1.35
   0  12   6    2.94    1.45
  -1 -12  -6    1.15    0.93
  -1 -12  -6    0.58    0.75
   1  12   6    0.66    0.99
   1  12   6    2.66    1.45
  -2 -12  -6   -0.09    0.85
  -2 -12  -6   -0.38    0.68
   2  12   6    0.92    1.10
   2  12   6    0.55    1.33
  -3 -12  -6    9.93    1.28
  -3 -12  -6   11.11    1.40
   3  12   6    8.00    1.69
   3  12   6   11.94    1.80
  -4 -12  -6    0.59    0.63
  -4 -12  -6    0.36    1.10
   4  12   6    0.96    1.54
   4  12   6    2.51    1.56
   1 -13  -6   -0.28    1.08
  -1  13   6    2.86    2.01
   0 -13  -6   -1.10    0.96
   0 -13  -6    1.73    1.25
   0  13   6    4.05    1.79
  -1 -13  -6   11.10    1.55
  -1 -13  -6   14.92    1.87
   1  13   6   14.29    2.23
  -2 -13  -6    2.45    0.97
  -2 -13  -6    0.16    1.19
   2  13   6    0.97    1.42
   2  13   6   -0.78    1.81
  -3 -13  -6    3.21    0.97
   3   9  -7    1.48    1.48
   2   9  -7    3.17    1.35
  -2  -9   7    1.60    1.51
  -2  -9   7    2.25    1.35
   1   9  -7    2.94    1.29
  -1  -9   7    4.73    1.39
  -1  -9   7    2.13    1.59
   0   9  -7    3.03    1.35
   0  -9   7    2.50    1.53
   0  -9   7    2.70    1.34
  -1   9  -7   15.62    1.85
   1  -9   7   13.17    1.78
   1  -9   7   12.78    2.10
  -2   9  -7    6.17    1.56
   2  -9   7    8.42    1.50
   2  -9   7    3.06    1.62
   4   8  -7    7.95    1.34
  -4  -8   7    7.51    1.54
   3   8  -7    5.87    1.22
  -3  -8   7    5.56    1.30
  -3  -8   7    6.53    1.35
   2   8  -7   15.47    2.02
  -2  -8   7   15.33    1.75
   1   8  -7    6.68    1.20
  -1  -8   7    6.09    1.23
  -1  -8   7    5.14    1.40
   0   8  -7    6.57    1.20
   0  -8   7    6.71    1.40
   0  -8   7    5.63    1.17
  -1   8  -7    0.70    0.95
   1  -8   7    0.04    1.17
   1  -8   7    1.34    1.00
  -2   8  -7   -0.48    1.27
   2  -8   7    0.01    1.27
   2  -8   7    2.48    1.04
   3  -8   7    1.96    1.19
   3  -8   7    1.17    1.41
   4  -8   7    0.73    1.26
   4  -8   7    2.25    1.72
   5   7  -7    4.37    0.77
   5   7  -7    4.10    1.24
  -5  -7   7    3.35    1.36
   4   7  -7   -0.12    0.93
  -4  -7   7   -0.84    1.00
   3   7  -7    1.63    0.93
  -3  -7   7    1.57    0.89
  -3  -7   7    2.00    1.10
   2   7  -7    1.48    0.86
  -2  -7   7    1.12    0.91
  -2  -7   7    0.16    0.96
   1   7  -7   13.81    1.62
  -1  -7   7   16.89    1.79
   0   7  -7    3.22    1.13
   0   7  -7    4.14    0.91
   0  -7   7    4.01    1.03
   0  -7   7    2.63    1.09
  -1   7  -7   18.96    1.73
   1  -7   7   15.12    2.13
   1  -7   7   19.77    1.88
  -2   7  -7    2.39    1.43
  -2   7  -7    3.57    0.89
   2  -7   7    4.56    1.11
   2  -7   7    2.88    1.28
  -3   7  -7   58.25    2.76
   3  -7   7   46.23    3.78
   3  -7   7   58.29    3.22
   4  -7   7    5.25    1.27
   4  -7   7    2.97    1.52
   5  -7   7   34.19    3.64
   5  -7   7   31.50    2.69
   6   6  -7    8.61    0.93
   6   6  -7    8.98    1.51
  -6  -6   7    6.54    1.47
   5   6  -7    7.43    1.26
   5   6  -7    6.19    0.77
  -5  -6   7    4.91    1.27
   4   6  -7    1.76    0.50
   4   6  -7    2.84    0.98
  -4  -6   7    1.43    0.93
  -4  -6   7    1.51    0.68
   3   6  -7  108.72    4.74
   3   6  -7  114.58    5.11
  -3  -6   7  108.12    5.13
   2   6  -7   -0.09    0.66
  -2  -6   7   -0.22    0.64
  -2  -6   7    0.08    0.75
   1   6  -7    0.57    0.61
   1   6  -7    1.79    1.02
  -1  -6   7   -0.53    0.66
  -1  -6   7   -0.50    0.73
   0   6  -7   -0.45    0.55
   0   6  -7    1.12    0.85
   0  -6   7   -0.35    0.80
   0  -6   7   -0.08    0.68
  -1   6  -7    9.24    1.13
  -1   6  -7    9.19    1.40
  -1   6  -7    8.92    1.03
   1  -6   7    5.80    1.07
  -2   6  -7    1.20    0.63
  -2   6  -7    1.30    0.78
  -2   6  -7   -0.11    1.01
   2  -6   7    0.52    0.93
  -3   6  -7    4.84    0.93
  -3   6  -7    4.84    0.71
  -3   6  -7    6.17    1.11
   3  -6   7    2.93    1.31
   4  -6   7   16.27    2.25
   5  -6   7   14.66    1.63
   5  -6   7   15.38    2.25
   6  -6   7    1.96    1.16
   6  -6   7    4.86    1.75
   7   5  -7    6.06    0.84
   6   5  -7    0.30    0.54
   6   5  -7    0.41    1.06
  -6  -5   7    0.97    1.05
   5   5  -7   -0.45    0.45
   5   5  -7    0.50    0.87
  -5  -5   7    0.31    0.80
   4   5  -7    9.21    0.89
   4   5  -7    8.84    1.12
  -4  -5   7    8.89    1.12
  -4  -5   7    9.27    0.71
  -4  -5   7    6.74    1.01
   3   5  -7    6.20    0.97
   3   5  -7    6.43    0.69
  -3  -5   7    3.96    1.15
   2   5  -7    1.69    0.56
   2   5  -7    2.45    1.03
  -2  -5   7   -0.53    0.64
   1   5  -7    1.64    0.88
   1   5  -7   -0.38    0.54
  -1  -5   7    0.52    0.65
   0   5  -7    3.12    0.79
   0   5  -7   -0.43    0.87
   0   5  -7    1.36    0.56
   0  -5   7    1.16    0.68
  -1   5  -7    0.79    0.85
  -1   5  -7   -0.24    0.47
  -1   5  -7    1.32    0.74
   1  -5   7    0.74    0.65
  -2   5  -7    6.70    0.81
  -2   5  -7    7.38    0.96
  -2   5  -7    7.15    1.13
   2  -5   7    7.12    0.97
  -3   5  -7    6.76    0.99
  -3   5  -7    5.96    0.92
  -3   5  -7    5.74    0.66
   3  -5   7    3.33    1.13
   3  -5   7    4.12    0.81
  -4   5  -7   10.43    1.42
   4  -5   7    9.22    1.10
   4  -5   7    6.37    1.47
   5  -5   7   -0.12    1.19
   5  -5   7    3.84    0.92
   6  -5   7    8.63    1.23
   6  -5   7    7.55    1.92
   7  -5   7    1.69    1.83
   7   4  -7    1.69    0.59
   7   4  -7    3.51    1.25
   6   4  -7   -1.45    0.84
   6   4  -7   -0.32    0.48
  -6  -4   7    0.96    0.83
   5   4  -7    1.82    0.44
   5   4  -7    2.92    0.86
  -5  -4   7    2.23    0.82
  -5  -4   7    1.98    0.71
   4   4  -7   18.03    1.52
   4   4  -7   21.88    1.18
  -4  -4   7   20.73    1.52
  -4  -4   7   18.88    1.61
   3   4  -7    3.56    0.49
   3   4  -7    2.67    0.70
  -3  -4   7    3.37    0.79
  -3  -4   7    3.60    0.45
  -3  -4   7    3.72    0.74
   2   4  -7  140.17    5.94
   2   4  -7  137.55    6.39
   2   4  -7  136.11    6.11
   2   4  -7  141.97    5.71
  -2  -4   7  132.71    5.85
  -2  -4   7  136.63    6.03
   1   4  -7   38.01    2.18
   1   4  -7   36.72    2.39
   1   4  -7   36.98    1.99
   1   4  -7   36.10    1.74
  -1  -4   7   35.88    1.91
  -1  -4   7   35.59    1.70
  -1  -4   7   37.42    2.11
   0   4  -7  170.35    7.08
   0   4  -7  171.76    7.20
   0   4  -7  168.58    7.34
   0  -4   7  162.02    7.03
   0  -4   7  167.08    7.24
   0  -4   7  171.34    6.86
  -1   4  -7   15.44    1.12
  -1   4  -7   11.99    1.49
  -1   4  -7   15.99    1.33
   1  -4   7   14.38    1.15
   1  -4   7   16.84    1.33
   1  -4   7   15.40    0.87
  -2   4  -7    3.15    0.83
  -2   4  -7    2.63    0.54
  -2   4  -7    1.64    0.65
   2  -4   7    2.17    0.66
   2  -4   7    3.48    0.41
   2  -4   7    2.10    0.55
  -3   4  -7   19.07    1.11
  -3   4  -7   19.80    1.35
  -3   4  -7   21.07    1.50
   3  -4   7   18.55    1.07
   3  -4   7   19.66    1.34
   3  -4   7   18.98    1.23
  -4   4  -7  114.40    4.93
   4  -4   7  106.75    4.63
   4  -4   7  109.86    4.95
   4  -4   7  113.67    4.78
   4  -4   7  109.30    4.79
   5  -4   7   22.58    1.38
   5  -4   7   23.02    1.53
   5  -4   7   21.60    1.66
   5  -4   7   16.76    2.38
   6  -4   7    7.21    1.65
   6  -4   7    9.72    1.14
   6  -4   7    9.90    1.07
   7  -4   7    1.65    1.64
   7   3  -7    2.04    0.57
   7   3  -7    1.50    1.06
   6   3  -7   -0.34    0.78
   6   3  -7   -0.19    0.38
  -6  -3   7   -0.23    0.69
   5   3  -7   -0.13    0.30
   5   3  -7   -0.22    0.61
  -5  -3   7    1.54    0.63
  -5  -3   7   -0.05    0.38
  -5  -3   7    0.03    0.51
   4   3  -7   -0.93    0.51
   4   3  -7    0.11    0.26
  -4  -3   7   -0.16    0.50
  -4  -3   7    0.49    0.32
  -4  -3   7   -0.31    0.55
   3   3  -7   91.40    4.55
   3   3  -7   90.35    4.10
   3   3  -7   93.82    3.87
   3   3  -7   85.92    4.33
  -3  -3   7   97.75    3.84
  -3  -3   7   89.23    3.90
  -3  -3   7   91.50    4.00
  -3  -3   7   91.97    4.20
   2   3  -7   62.43    2.68
   2   3  -7   59.94    2.92
   2   3  -7   63.60    3.34
   2   3  -7   61.08    3.10
  -2  -3   7   61.92    2.85
  -2  -3   7   60.59    2.68
  -2  -3   7   63.45    3.05
   1   3  -7  226.75    9.09
   1   3  -7  215.29    9.21
   1   3  -7  223.20    8.90
   1   3  -7  221.85    9.35
  -1  -3   7  215.24    8.86
  -1  -3   7  216.97    9.01
  -1  -3   7  220.00    9.22
   0   3  -7   25.41    1.61
   0   3  -7   24.41    1.24
   0   3  -7   25.37    1.80
   0   3  -7   24.85    1.45
   0  -3   7   24.84    1.40
   0  -3   7   25.83    1.20
  -1   3  -7   33.21    1.65
  -1   3  -7   32.91    1.82
  -1   3  -7   33.68    1.98
   1  -3   7   31.88    1.46
   1  -3   7   31.86    1.85
   1  -3   7   29.17    1.69
   1  -3   7   30.68    1.63
  -2   3  -7  151.80    6.37
  -2   3  -7  147.19    6.19
  -2   3  -7  150.97    6.38
   2  -3   7  153.69    6.26
   2  -3   7  146.90    6.30
   2  -3   7  148.19    6.43
   2  -3   7  148.85    6.08
  -3   3  -7   75.82    3.20
  -3   3  -7   75.63    3.31
  -3   3  -7   78.27    3.52
   3  -3   7   76.00    3.19
   3  -3   7   74.11    3.39
   3  -3   7   75.99    3.34
   3  -3   7   73.25    3.51
  -4   3  -7    0.22    0.73
   4  -3   7    0.01    0.52
   4  -3   7    0.02    0.40
   4  -3   7    0.11    0.29
   4  -3   7    0.70    0.46
   5  -3   7   52.24    2.47
   5  -3   7   49.80    2.31
   5  -3   7   52.09    2.53
   5  -3   7   51.95    2.58
   6  -3   7    4.09    0.78
   6  -3   7    4.86    0.60
   6  -3   7    4.70    0.73
   6  -3   7    5.67    0.86
   6  -3   7    3.86    1.45
   7  -3   7    0.35    1.36
   7  -3   7    1.36    0.90
   7  -3   7   -0.70    0.74
   8  -3   7    3.50    1.76
   8  -3   7    1.69    0.88
   8   2  -7    1.90    0.58
   8   2  -7    0.65    1.24
   7   2  -7    0.34    0.47
   7   2  -7    2.07    0.94
   6   2  -7   12.42    1.29
   6   2  -7   11.60    0.89
  -6  -2   7   10.32    1.08
   5   2  -7    5.14    0.60
   5   2  -7    6.42    0.86
  -5  -2   7    5.78    0.70
  -5  -2   7    5.77    0.63
  -5  -2   7    5.11    0.77
   4   2  -7   14.27    1.89
   4   2  -7   16.14    0.91
   4   2  -7   15.71    1.19
  -4  -2   7   15.68    1.09
  -4  -2   7   14.04    1.27
  -4  -2   7   15.49    0.95
   3   2  -7  146.25    6.14
   3   2  -7  146.95    5.92
  -3  -2   7  137.27    6.19
  -3  -2   7  139.97    6.01
  -3  -2   7  152.30    5.91
  -3  -2   7  143.62    5.97
   2   2  -7   41.07    2.07
   2   2  -7   42.39    2.28
   2   2  -7   44.06    2.47
   2   2  -7   41.53    1.86
  -2  -2   7   39.85    1.98
  -2  -2   7   40.85    2.22
  -2  -2   7   43.49    1.88
  -2  -2   7   41.42    1.89
   1   2  -7   25.74    1.22
   1   2  -7   26.10    1.62
   1   2  -7   26.14    1.42
   1   2  -7   26.11    1.77
  -1  -2   7   25.01    1.37
  -1  -2   7   25.48    1.23
  -1  -2   7   25.98    1.59
   0   2  -7    6.34    0.51
   0   2  -7    6.24    0.79
   0   2  -7    6.91    0.69
   0   2  -7    6.81    0.89
   0  -2   7    7.42    0.72
   0  -2   7    6.55    0.49
   0  -2   7    6.13    0.79
   0  -2   7    6.79    0.77
  -1   2  -7  177.05    7.27
  -1   2  -7  171.70    7.11
  -1   2  -7  178.76    7.33
   1  -2   7  166.85    7.29
   1  -2   7  167.70    7.10
   1  -2   7  173.34    7.23
   1  -2   7  175.14    6.97
  -2   2  -7  107.77    4.69
  -2   2  -7  108.99    4.81
  -2   2  -7  109.32    4.50
   2  -2   7  106.01    4.64
   2  -2   7  105.91    4.52
   2  -2   7  108.46    4.39
   2  -2   7  104.86    4.71
  -3   2  -7  165.85    6.90
  -3   2  -7  162.55    6.58
  -3   2  -7  164.42    6.65
   3  -2   7  159.61    6.87
   3  -2   7  161.86    6.57
   3  -2   7  161.63    6.83
   3  -2   7  162.07    6.69
  -4   2  -7    6.65    0.93
   4  -2   7    5.76    0.73
   4  -2   7    5.94    0.78
   4  -2   7    5.16    0.53
   4  -2   7    5.03    0.73
   5  -2   7   55.06    2.67
   5  -2   7   54.57    2.47
   5  -2   7   53.99    2.36
   5  -2   7   53.20    2.63
   6  -2   7    1.18    0.40
   6  -2   7    1.56    0.57
   6  -2   7    0.80    0.61
   6  -2   7    0.68    0.50
   7  -2   7   11.71    1.85
   7  -2   7   13.45    1.53
   7  -2   7   10.95    1.22
   8  -2   7    5.44    1.68
   8  -2   7    7.33    1.22
   8  -2   7    3.73    0.79
   8   1  -7    0.73    0.54
   8   1  -7    0.25    1.10
   7   1  -7    5.90    1.05
   7   1  -7    6.15    0.71
   6   1  -7   69.00    2.94
   6   1  -7   68.12    3.21
  -6  -1   7   57.83    3.09
  -6  -1   7   63.62    2.90
  -6  -1   7   72.64    3.07
   5   1  -7   68.65    3.10
   5   1  -7   70.25    2.98
  -5  -1   7   65.94    3.03
  -5  -1   7   61.14    2.96
  -5  -1   7   65.05    2.91
   4   1  -7   19.53    1.75
   4   1  -7   14.57    1.60
   4   1  -7   15.09    1.09
   4   1  -7   15.48    0.87
  -4  -1   7   15.01    1.02
  -4  -1   7   13.59    1.06
  -4  -1   7   13.32    1.15
   3   1  -7  457.15   18.32
   3   1  -7  450.00   18.01
   3   1  -7  454.36   18.23
   3   1  -7  443.55   17.85
  -3  -1   7  435.59   17.91
  -3  -1   7  450.25   17.86
  -3  -1   7  440.20   18.10
  -3  -1   7  450.81   17.92
   2   1  -7    4.33    0.83
   2   1  -7    3.51    0.51
   2   1  -7    5.29    0.81
   2   1  -7    3.72    0.40
  -2  -1   7    4.59    0.70
  -2  -1   7    4.39    0.44
  -2  -1   7    3.72    0.48
  -2  -1   7    3.64    0.48
   1   1  -7  113.80    4.67
   1   1  -7  116.80    5.01
   1   1  -7  115.92    5.09
   1   1  -7  111.90    4.82
  -1  -1   7  116.75    4.69
  -1  -1   7  109.99    4.77
  -1  -1   7  113.01    4.99
  -1  -1   7  116.32    4.72
   0   1  -7   56.19    2.52
   0   1  -7   59.03    2.79
   0   1  -7   55.43    2.37
   0   1  -7   55.64    2.69
   0  -1   7   55.27    2.63
   0  -1   7   54.00    2.70
   0  -1   7   56.66    2.37
   0  -1   7   57.86    2.50
  -1   1  -7    6.99    0.86
  -1   1  -7    6.96    0.92
  -1   1  -7    6.32    0.47
  -1   1  -7    5.84    0.59
   1  -1   7    9.38    0.66
   1  -1   7    8.10    0.75
   1  -1   7    7.23    0.47
   1  -1   7    7.30    0.80
  -2   1  -7   17.43    1.16
  -2   1  -7   17.95    1.24
  -2   1  -7   17.62    0.96
   2  -1   7   17.42    0.99
   2  -1   7   15.12    1.08
   2  -1   7   17.86    0.83
   2  -1   7   16.00    1.16
  -3   1  -7  167.38    6.81
  -3   1  -7  175.38    7.17
  -3   1  -7  171.81    6.86
   3  -1   7  167.17    6.90
   3  -1   7  166.82    6.79
   3  -1   7  167.00    7.09
   3  -1   7  168.55    7.09
  -4   1  -7    5.74    0.93
   4  -1   7    4.64    0.45
   4  -1   7    6.73    0.82
   4  -1   7    6.49    0.79
   4  -1   7    5.56    0.64
   5  -1   7   18.72    1.37
   5  -1   7   20.13    1.00
   5  -1   7   20.24    1.29
   5  -1   7   19.32    1.11
   6  -1   7    1.73    0.68
   6  -1   7    1.32    0.57
   6  -1   7    1.34    0.45
   6  -1   7    1.56    0.36
   7  -1   7   16.38    2.22
   7  -1   7   21.01    1.76
   7  -1   7   19.06    1.33
   7  -1   7   19.34    1.25
   8  -1   7   50.43    3.79
   8  -1   7   56.40    2.61
   8   0  -7   10.59    1.07
   8   0  -7   11.50    1.38
   7   0  -7    0.99    0.69
   7   0  -7    1.37    0.49
   6   0  -7   32.24    1.59
   6   0  -7   32.11    1.78
  -6   0   7   29.45    1.42
  -6   0   7   30.50    1.46
   5   0  -7    0.92    0.32
   5   0  -7    1.08    0.48
   5   0  -7    0.74    1.06
  -5   0   7    0.11    0.55
  -5   0   7    0.26    0.44
  -5   0   7    0.96    0.48
   4   0  -7  172.02    7.01
   4   0  -7  166.87    7.27
   4   0  -7  172.08    6.88
   4   0  -7  172.80    7.38
  -4   0   7  160.71    6.96
  -4   0   7  169.24    7.03
  -4   0   7  171.52    6.91
  -4   0   7  163.40    7.04
   3   0  -7   41.37    2.25
   3   0  -7   42.34    1.84
   3   0  -7   42.79    2.37
   3   0  -7   40.85    1.98
  -3   0   7   41.01    1.91
  -3   0   7   39.92    1.91
  -3   0   7   41.10    1.94
  -3   0   7   39.87    2.10
   2   0  -7   37.11    2.00
   2   0  -7   37.39    2.11
   2   0  -7   35.60    1.77
   2   0  -7   36.48    1.63
  -2   0   7   40.02    1.70
  -2   0   7   35.78    1.70
  -2   0   7   36.84    1.95
  -2   0   7   35.70    1.72
   1   0  -7  188.10    7.78
   1   0  -7  185.92    7.85
   1   0  -7  187.29    7.48
   1   0  -7  187.85    7.62
  -1   0   7  186.60    7.80
  -1   0   7  189.99    7.54
  -1   0   7  179.59    7.74
  -1   0   7  189.31    7.51
  -1   0   7  179.88    7.56
   0   0  -7  277.94   11.06
   0   0  -7  277.30   11.01
   0   0  -7  260.82   10.70
   0   0  -7  276.11   10.85
   0   0   7  266.09   10.71
   0   0   7  267.36   10.80
   0   0   7  265.14   10.97
   0   0   7  255.92   11.01
  -1   0  -7    5.62    0.72
  -1   0  -7    5.09    0.36
  -1   0  -7    4.48    0.69
  -1   0  -7    4.03    0.48
   1   0   7    4.30    0.64
   1   0   7    4.04    0.56
   1   0   7    4.64    0.35
   1   0   7    4.31    0.49
  -2   0  -7  582.22   22.78
  -2   0  -7  575.61   22.66
  -2   0  -7  576.69   22.89
   2   0   7  554.53   22.66
   2   0   7  569.05   22.87
   2   0   7  577.34   22.88
   2   0   7  552.80   22.55
  -3   0  -7   43.79    2.24
  -3   0  -7   42.45    1.83
  -3   0  -7   42.62    1.88
   3   0   7   42.73    1.78
   3   0   7   41.79    2.10
   3   0   7   42.48    1.91
   3   0   7   41.89    2.12
  -4   0  -7    2.62    0.70
   4   0   7    2.21    0.25
   4   0   7    1.62    0.46
   4   0   7    2.63    0.57
   4   0   7    2.65    0.40
   5   0   7   80.95    3.31
   5   0   7   78.46    3.58
   5   0   7   82.08    3.40
   5   0   7   81.30    3.77
   6   0   7   -0.14    0.59
   6   0   7    0.06    0.26
   6   0   7    0.45    0.32
   6   0   7    0.18    0.38
   6   0   7    0.69    0.50
   7   0   7    1.63    0.36
   7   0   7    2.57    0.63
   7   0   7    1.54    0.38
   7   0   7    1.14    0.50
   7   0   7    2.78    0.90
   8   0   7   12.56    1.59
   8   0   7   10.53    1.71
   9   0   7   12.46    1.86
   9   0   7    9.61    1.96
   8  -1  -7   17.02    1.30
   8  -1  -7   17.08    1.68
   7  -1  -7    0.84    0.47
   6  -1  -7    6.35    0.69
   6  -1  -7    6.50    0.78
  -6   1   7    5.14    0.91
   5  -1  -7    0.35    0.87
   5  -1  -7   -0.38    0.82
   5  -1  -7   -0.43    0.24
   5  -1  -7    0.09    0.38
  -5   1   7   -0.16    0.36
  -5   1   7    0.35    0.40
  -5   1   7   -0.28    0.58
   4  -1  -7   20.42    1.20
   4  -1  -7   21.97    1.59
   4  -1  -7   22.01    1.11
   4  -1  -7   22.68    1.72
  -4   1   7   20.06    1.31
  -4   1   7   20.30    1.31
  -4   1   7   23.94    1.41
  -4   1   7   20.43    1.18
   3  -1  -7   16.96    0.99
   3  -1  -7   16.62    1.31
   3  -1  -7   17.44    1.43
   3  -1  -7   17.19    0.88
  -3   1   7   14.40    1.14
  -3   1   7   14.82    1.04
  -3   1   7   14.97    0.96
  -3   1   7   16.86    1.03
   2  -1  -7   61.40    2.87
   2  -1  -7   61.54    2.55
   2  -1  -7   59.05    2.65
   2  -1  -7   60.10    2.96
  -2   1   7   59.45    2.63
  -2   1   7   56.61    2.81
  -2   1   7   59.81    2.62
  -2   1   7   62.09    2.64
   1  -1  -7  142.27    6.01
   1  -1  -7  140.17    5.82
   1  -1  -7  145.32    6.08
   1  -1  -7  143.11    5.71
  -1   1   7  140.07    5.79
  -1   1   7  145.92    5.79
  -1   1   7  134.97    5.95
  -1   1   7  140.86    5.76
  -1   1   7  138.31    6.02
   0  -1  -7  207.75    8.34
   0  -1  -7  202.12    8.21
   0  -1  -7  205.31    8.54
   0  -1  -7  208.46    8.51
   0   1   7  202.58    8.24
   0   1   7  205.53    8.32
   0   1   7  206.23    8.55
   0   1   7  206.57    8.31
   0   1   7  205.35    8.50
  -1  -1  -7  336.50   13.53
  -1  -1  -7  334.05   13.41
  -1  -1  -7  352.36   13.74
   1   1   7  336.83   13.52
   1   1   7  342.88   13.72
   1   1   7  333.21   13.74
   1   1   7  326.40   13.42
   1   1   7  341.46   13.53
  -2  -1  -7   42.36    2.15
  -2  -1  -7   43.38    2.01
  -2  -1  -7   40.27    1.75
  -2  -1  -7   42.62    1.86
   2   1   7   41.39    1.87
   2   1   7   41.07    2.08
   2   1   7   41.45    2.08
   2   1   7   42.92    1.74
  -3  -1  -7   17.22    1.28
  -3  -1  -7   16.94    0.86
  -3  -1  -7   17.16    0.91
   3   1   7   16.78    1.11
   3   1   7   17.52    0.75
   3   1   7   15.79    1.17
   3   1   7   16.85    0.92
  -4  -1  -7    0.81    0.60
   4   1   7   -0.26    0.39
   4   1   7    0.22    0.28
   4   1   7    0.51    0.37
   4   1   7    0.17    0.12
   5   1   7   21.78    1.35
   5   1   7   23.57    1.60
   5   1   7   24.09    1.18
   5   1   7   23.56    1.01
   6   1   7    3.18    0.45
   6   1   7    2.77    0.81
   6   1   7    2.85    0.28
   6   1   7    3.63    0.42
   6   1   7    2.84    0.58
   7   1   7    6.51    1.11
   7   1   7    5.20    0.47
   7   1   7    5.00    0.59
   7   1   7    5.78    0.74
   7   1   7    5.74    0.47
   8   1   7    1.39    1.25
   8   1   7    0.28    1.10
   9   1   7    8.72    2.04
   9   1   7   13.98    2.06
   8  -2  -7    3.07    0.94
   8  -2  -7    2.49    0.61
   7  -2  -7    7.69    0.76
   7  -2  -7   10.12    0.92
   7  -2  -7    8.63    1.14
   6  -2  -7    6.52    0.88
   6  -2  -7    8.43    0.80
   6  -2  -7    8.64    0.68
  -6   2   7    6.50    1.07
   5  -2  -7   12.12    0.78
   5  -2  -7   13.02    1.48
   5  -2  -7   10.79    0.89
   5  -2  -7   13.91    1.47
   5  -2  -7   12.12    0.86
  -5   2   7   11.99    0.87
  -5   2   7   10.84    1.32
  -5   2   7   11.67    0.83
   4  -2  -7    1.30    0.39
   4  -2  -7    0.76    0.73
   4  -2  -7    0.49    0.29
   4  -2  -7    1.48    0.61
   4  -2  -7    1.13    0.28
  -4   2   7    0.48    0.53
  -4   2   7    1.23    0.47
  -4   2   7    1.01    0.41
  -4   2   7    1.35    0.58
   3  -2  -7   19.24    1.09
   3  -2  -7   18.82    1.40
   3  -2  -7   20.72    1.52
   3  -2  -7   21.07    1.03
   3  -2  -7   19.41    1.03
  -3   2   7   19.18    1.22
  -3   2   7   19.71    1.22
  -3   2   7   19.08    1.10
  -3   2   7   21.44    1.31
   2  -2  -7  242.51    9.78
   2  -2  -7  241.61    9.85
   2  -2  -7  253.61   10.05
   2  -2  -7  249.03   10.13
   2  -2  -7  242.46    9.81
  -2   2   7  243.92    9.90
  -2   2   7  241.99    9.88
  -2   2   7  235.75   10.00
  -2   2   7  239.99    9.83
  -2   2   7  244.75   10.05
   1  -2  -7   -0.42    0.42
   1  -2  -7    0.16    0.14
   1  -2  -7    0.21    0.22
   1  -2  -7   -0.08    0.38
   1  -2  -7    0.21    0.16
  -1   2   7    0.28    0.27
  -1   2   7   -0.41    0.36
  -1   2   7    0.75    0.28
  -1   2   7    0.79    0.23
  -1   2   7    0.24    0.28
   0  -2  -7   18.06    0.98
   0  -2  -7   19.53    1.27
   0  -2  -7   19.50    1.22
   0  -2  -7   18.37    0.87
   0   2   7   18.08    1.14
   0   2   7   18.71    1.01
   0   2   7   20.08    0.95
   0   2   7   19.47    0.99
   0   2   7   19.08    1.23
  -1  -2  -7   17.35    0.97
  -1  -2  -7   19.18    0.83
  -1  -2  -7   19.22    1.33
  -1  -2  -7   18.80    1.24
   1   2   7   17.38    0.99
   1   2   7   17.64    1.19
   1   2   7   20.27    0.98
   1   2   7   18.92    1.17
   1   2   7   18.48    0.88
  -2  -2  -7    4.34    0.34
  -2  -2  -7    5.03    0.66
  -2  -2  -7    5.04    0.44
  -2  -2  -7    3.72    0.56
   2   2   7    4.65    0.65
   2   2   7    5.06    0.33
   2   2   7    4.92    0.49
   2   2   7    5.64    0.71
   2   2   7    5.48    0.48
  -3  -2  -7    9.87    0.59
  -3  -2  -7    9.30    0.68
  -3  -2  -7   11.22    1.09
   3   2   7    9.13    0.66
   3   2   7    9.79    0.67
   3   2   7   10.36    0.46
   3   2   7    9.21    0.92
   3   2   7   10.29    0.85
  -4  -2  -7  229.19    9.75
   4   2   7  228.26    9.55
   4   2   7  236.98    9.73
   4   2   7  235.79    9.37
   5   2   7   47.52    2.10
   5   2   7   46.81    2.28
   5   2   7   47.33    2.55
   6   2   7    1.32    0.43
   6   2   7    1.70    0.74
   6   2   7    2.12    0.55
   7   2   7    6.33    0.70
   7   2   7    5.75    1.13
   7   2   7    5.12    0.76
   8   2   7   -0.49    0.99
   8   2   7   -0.15    1.11
   9   2   7    0.24    1.60
   8  -3  -7    6.18    0.82
   8  -3  -7    4.45    0.94
   7  -3  -7    0.21    0.51
   7  -3  -7    0.85    0.44
   7  -3  -7    0.51    0.60
   6  -3  -7    4.74    1.18
   6  -3  -7    6.21    0.70
   6  -3  -7    5.41    0.68
   6  -3  -7    4.77    0.66
  -6   3   7    3.18    1.06
   5  -3  -7    9.00    1.26
   5  -3  -7   10.50    1.39
   5  -3  -7    6.37    0.75
   5  -3  -7    7.88    0.79
   5  -3  -7    8.23    0.72
  -5   3   7    8.09    0.71
  -5   3   7    7.13    0.66
  -5   3   7    8.34    1.12
   4  -3  -7  141.50    5.93
   4  -3  -7  133.80    5.66
   4  -3  -7  136.11    6.01
   4  -3  -7  144.80    5.68
   4  -3  -7  142.86    5.69
  -4   3   7  121.70    5.88
  -4   3   7  131.46    5.73
   3  -3  -7   69.52    3.06
   3  -3  -7   71.02    3.08
   3  -3  -7   71.11    3.42
   3  -3  -7   74.49    3.08
   3  -3  -7   73.94    3.31
  -3   3   7   72.03    3.25
  -3   3   7   67.21    3.25
  -3   3   7   65.49    3.19
  -3   3   7   71.60    3.09
   2  -3  -7   11.34    1.00
   2  -3  -7   11.64    0.75
   2  -3  -7   11.65    0.71
   2  -3  -7   11.71    0.72
   2  -3  -7   11.31    1.16
  -2   3   7   12.11    0.90
  -2   3   7   10.30    0.88
  -2   3   7   11.56    0.90
  -2   3   7   10.97    0.79
  -2   3   7   10.52    0.97
   1  -3  -7   12.46    1.11
   1  -3  -7   12.44    1.01
   1  -3  -7   13.39    0.75
   1  -3  -7   12.91    0.70
   1  -3  -7   12.56    0.76
  -1   3   7   12.73    0.81
  -1   3   7   13.45    1.05
  -1   3   7   12.43    0.85
  -1   3   7   11.78    0.91
  -1   3   7   11.08    0.81
   0  -3  -7  437.72   17.41
   0  -3  -7  434.23   17.40
   0  -3  -7  456.04   17.63
   0  -3  -7  442.72   17.59
   0  -3  -7  432.50   17.31
   0   3   7  426.64   17.42
   0   3   7  448.53   17.45
   0   3   7  437.54   17.65
   0   3   7  408.88   17.37
   0   3   7  435.10   17.57
  -1  -3  -7   24.62    1.44
  -1  -3  -7   25.25    1.49
  -1  -3  -7   24.82    1.21
  -1  -3  -7   26.02    1.08
   1   3   7   26.83    1.49
   1   3   7   26.39    1.25
   1   3   7   25.11    1.25
   1   3   7   22.21    1.14
   1   3   7   24.31    1.40
  -2  -3  -7  440.80   17.75
  -2  -3  -7  454.04   17.90
  -2  -3  -7  483.70   18.05
   2   3   7  458.76   18.15
   2   3   7  463.33   17.94
   2   3   7  442.21   17.93
   2   3   7  402.04   17.79
   2   3   7  451.02   18.16
  -3  -3  -7   30.62    1.36
  -3  -3  -7   30.89    1.81
  -3  -3  -7   29.10    1.45
   3   3   7   31.48    1.44
   3   3   7   28.30    1.60
   3   3   7   29.35    1.44
   3   3   7   29.57    1.71
  -4  -3  -7   47.27    1.99
  -4  -3  -7   50.38    2.61
  -4  -3  -7   44.88    1.99
   4   3   7   51.72    2.16
   4   3   7   47.39    2.15
   4   3   7   46.78    2.32
   4   3   7   46.84    2.51
   5   3   7   93.42    4.09
   5   3   7   96.23    3.92
   5   3   7   89.65    4.35
   5   3   7   90.58    3.92
   6   3   7   53.11    2.61
   6   3   7   54.84    2.99
   6   3   7   53.83    2.47
   6   3   7   53.68    2.42
   7   3   7    0.22    0.59
   7   3   7   -0.04    0.80
   7   3   7    0.07    0.61
   7   3   7    0.36    0.41
   8   3   7    8.91    1.54
   8   3   7    8.32    1.03
   9   3   7   21.30    2.87
   8  -4  -7    5.09    0.89
   8  -4  -7    4.72    0.95
   7  -4  -7    0.44    0.59
   7  -4  -7    0.46    0.54
   7  -4  -7   -0.12    0.66
   6  -4  -7   85.01    4.33
   6  -4  -7   88.09    3.95
   6  -4  -7   92.79    4.00
   6  -4  -7   93.56    4.03
   5  -4  -7   11.41    1.21
   5  -4  -7    7.82    0.80
   5  -4  -7    7.20    1.27
   5  -4  -7    7.78    0.88
   5  -4  -7    8.80    0.82
  -5   4   7    7.59    1.17
  -5   4   7    8.08    0.63
  -5   4   7    8.85    0.73
   4  -4  -7  116.71    5.38
   4  -4  -7  129.78    5.11
   4  -4  -7  124.46    5.27
   4  -4  -7  122.01    5.08
   4  -4  -7  119.24    5.04
  -4   4   7  117.68    5.09
  -4   4   7  107.23    5.34
   3  -4  -7   66.86    3.12
   3  -4  -7   66.87    2.95
   3  -4  -7   62.62    3.23
   3  -4  -7   67.66    2.94
   3  -4  -7   71.00    2.99
  -3   4   7   65.76    2.94
  -3   4   7   68.72    3.13
  -3   4   7   62.63    3.20
   2  -4  -7   18.34    1.00
   2  -4  -7   17.78    0.98
   2  -4  -7   16.97    0.99
   2  -4  -7   15.53    1.32
   2  -4  -7   16.72    1.20
  -2   4   7   16.42    1.11
  -2   4   7   14.87    1.21
  -2   4   7   16.19    1.03
  -2   4   7   15.88    1.20
   1  -4  -7    0.35    0.27
   1  -4  -7    0.75    0.51
   1  -4  -7    0.49    0.24
   1  -4  -7    0.12    0.20
   1  -4  -7   -0.08    0.39
  -1   4   7    0.06    0.32
  -1   4   7    0.43    0.45
  -1   4   7   -0.03    0.33
  -1   4   7    0.26    0.34
   0  -4  -7  401.92   15.96
   0  -4  -7  391.25   15.87
   0  -4  -7  412.11   16.16
   0  -4  -7  415.75   16.18
   0  -4  -7  397.55   15.97
   0   4   7  400.76   16.05
   0   4   7  390.98   15.99
   0   4   7  387.51   16.10
   0   4   7  391.81   16.20
  -1  -4  -7   11.43    0.70
  -1  -4  -7   11.70    0.59
  -1  -4  -7   12.16    1.00
  -1  -4  -7   12.48    0.73
   1   4   7   11.36    0.97
   1   4   7   11.89    0.94
   1   4   7   11.06    0.78
   1   4   7   10.80    0.79
  -2  -4  -7    2.56    0.49
  -2  -4  -7    1.53    0.19
  -2  -4  -7    2.14    0.33
  -2  -4  -7    2.44    0.62
   2   4   7    1.60    0.33
   2   4   7    1.95    0.50
   2   4   7    1.92    0.39
   2   4   7    2.89    0.58
  -3  -4  -7    1.74    0.42
  -3  -4  -7    1.30    0.54
  -3  -4  -7    1.61    0.30
   3   4   7    0.92    0.42
   3   4   7    1.10    0.29
   3   4   7    2.18    0.42
   3   4   7    1.78    0.51
  -4  -4  -7    5.39    0.55
  -4  -4  -7    7.25    0.48
   4   4   7    5.83    0.75
   4   4   7    6.44    0.70
   4   4   7    6.76    0.97
   4   4   7    6.87    0.61
   5   4   7  193.53    7.45
   5   4   7  172.23    7.47
   5   4   7  178.32    7.91
   5   4   7  183.04    7.65
   6   4   7    3.99    0.67
   6   4   7    4.72    0.68
   6   4   7    2.99    0.66
   6   4   7    3.26    0.89
   7   4   7    9.72    1.27
   7   4   7   10.01    0.93
   7   4   7   12.14    1.56
   7   4   7    9.18    1.26
   8   4   7    2.28    0.93
   8   4   7    1.28    1.26
   9   4   7    4.71    1.66
   7  -5  -7    1.66    0.69
   7  -5  -7    0.65    0.69
   7  -5  -7    0.50    0.66
   6  -5  -7   20.19    1.43
   6  -5  -7   20.37    1.82
   6  -5  -7   17.52    1.31
   5  -5  -7   25.77    2.27
   5  -5  -7   26.31    1.53
   5  -5  -7   30.11    1.65
   5  -5  -7   25.92    1.88
   5  -5  -7   27.96    1.61
   4  -5  -7   20.11    1.23
   4  -5  -7   21.92    1.81
   4  -5  -7   18.89    1.25
   4  -5  -7   21.36    1.29
   4  -5  -7   20.04    1.45
  -4   5   7   18.21    1.30
  -4   5   7   18.99    1.74
   3  -5  -7   66.57    3.08
   3  -5  -7   69.05    2.97
   3  -5  -7   61.72    3.26
   3  -5  -7   71.52    3.05
   3  -5  -7   65.25    2.98
  -3   5   7   64.60    2.96
  -3   5   7   68.53    3.14
  -3   5   7   59.92    3.28
   2  -5  -7   17.39    1.07
   2  -5  -7   18.66    1.38
   2  -5  -7   16.66    1.20
   2  -5  -7   17.23    1.04
   2  -5  -7   17.02    1.04
  -2   5   7   15.72    1.35
  -2   5   7   18.46    1.31
  -2   5   7   15.56    1.11
  -2   5   7   14.97    1.08
   1  -5  -7  588.64   22.92
   1  -5  -7  580.73   22.89
   1  -5  -7  561.81   22.85
   1  -5  -7  591.61   23.02
   1  -5  -7  580.34   23.10
  -1   5   7  564.60   23.12
  -1   5   7  568.63   22.91
  -1   5   7  556.69   23.05
  -1   5   7  566.13   22.97
   0  -5  -7   15.46    0.89
   0  -5  -7   14.88    1.19
   0  -5  -7   15.88    1.14
   0  -5  -7   14.02    0.82
   0   5   7   14.65    1.03
   0   5   7   14.58    1.06
   0   5   7   14.26    1.17
   0   5   7   13.17    0.96
  -1  -5  -7   42.60    2.15
  -1  -5  -7   44.48    1.94
  -1  -5  -7   41.33    1.94
  -1  -5  -7   41.68    1.82
  -1  -5  -7   44.51    2.22
   1   5   7   42.28    2.02
   1   5   7   43.60    2.07
   1   5   7   41.14    2.13
   1   5   7   37.56    2.18
  -2  -5  -7    6.68    0.53
  -2  -5  -7    6.26    0.59
  -2  -5  -7    6.04    0.82
  -2  -5  -7    5.00    0.78
   2   5   7    6.64    0.86
   2   5   7    6.52    0.80
   2   5   7    5.95    0.72
   2   5   7    7.47    0.69
  -3  -5  -7  144.04    6.47
  -3  -5  -7  153.69    6.08
  -3  -5  -7  152.62    6.18
   3   5   7  139.77    6.42
   3   5   7  148.27    6.36
   3   5   7  145.06    6.19
   3   5   7  154.57    6.18
  -4  -5  -7    8.29    0.72
  -4  -5  -7    8.34    0.60
   4   5   7    7.24    0.73
   4   5   7    7.90    0.92
   4   5   7    7.11    0.83
   4   5   7    7.83    1.08
  -5  -5  -7    1.83    0.27
   5   5   7    1.76    0.56
   5   5   7    1.74    0.58
   5   5   7    1.93    0.43
   5   5   7    1.30    0.77
   6   5   7    4.04    0.76
   6   5   7    4.74    0.60
   6   5   7    3.58    0.78
   6   5   7    3.15    0.94
   7   5   7    1.19    0.55
   7   5   7   -0.25    1.02
   7   5   7    2.24    0.89
   7   5   7    1.26    0.83
   8   5   7    2.77    1.33
   8   5   7    0.22    0.97
   9   5   7    8.53    2.01
   7  -6  -7    0.84    0.77
   7  -6  -7    0.93    0.72
   7  -6  -7   -0.28    0.80
   6  -6  -7   40.91    2.46
   6  -6  -7   53.49    2.97
   6  -6  -7   43.32    2.43
   5  -6  -7    2.34    0.60
   5  -6  -7    3.39    0.82
   5  -6  -7    3.06    0.86
   5  -6  -7    3.90    0.65
   4  -6  -7   61.45    2.74
   4  -6  -7   61.77    2.86
   4  -6  -7   60.15    2.83
   4  -6  -7   54.01    3.16
   4  -6  -7   54.54    3.23
  -4   6   7   57.75    2.77
  -4   6   7   54.77    2.67
   3  -6  -7    4.01    0.86
   3  -6  -7    4.92    0.73
   3  -6  -7    3.79    0.60
   3  -6  -7    5.09    0.76
   3  -6  -7    3.80    0.60
  -3   6   7    3.72    0.77
  -3   6   7    4.06    0.68
  -3   6   7    2.39    0.90
   2  -6  -7  130.67    5.35
   2  -6  -7  128.22    5.29
   2  -6  -7  125.82    5.27
   2  -6  -7  122.69    5.50
   2  -6  -7  127.76    5.35
  -2   6   7  120.80    5.28
  -2   6   7  112.46    5.53
  -2   6   7  124.97    5.50
  -2   6   7  125.50    5.27
   1  -6  -7   -0.59    0.47
   1  -6  -7   -0.35    0.33
   1  -6  -7    0.46    0.28
   1  -6  -7   -0.05    0.52
   1  -6  -7   -0.09    0.27
  -1   6   7    0.14    0.38
  -1   6   7    0.93    0.56
  -1   6   7   -0.38    0.54
  -1   6   7    0.51    0.44
   0  -6  -7   85.74    3.59
   0  -6  -7   84.06    3.79
   0  -6  -7   87.61    3.61
   0  -6  -7   80.99    3.73
   0  -6  -7   83.19    3.52
   0   6   7   82.48    3.68
   0   6   7   76.73    3.74
   0   6   7   80.78    3.64
   0   6   7   77.84    3.82
  -1  -6  -7  128.41    5.67
  -1  -6  -7  131.58    5.54
  -1  -6  -7  132.02    5.75
  -1  -6  -7  133.62    5.43
  -1  -6  -7  143.98    5.54
   1   6   7  130.09    5.69
   1   6   7  133.49    5.81
   1   6   7  132.66    5.68
   1   6   7  124.60    5.58
  -2  -6  -7  101.86    4.64
  -2  -6  -7  107.16    4.32
  -2  -6  -7  102.83    4.18
  -2  -6  -7  101.08    4.46
  -2  -6  -7  105.84    4.35
   2   6   7   95.47    4.41
   2   6   7  102.90    4.63
   2   6   7   99.45    4.59
   2   6   7  103.98    4.47
  -3  -6  -7    6.70    0.77
  -3  -6  -7    5.68    0.66
  -3  -6  -7    5.69    0.29
   3   6   7    5.86    0.94
   3   6   7    5.41    0.71
   3   6   7    5.40    0.82
   3   6   7    5.75    0.80
  -4  -6  -7   84.49    3.44
  -4  -6  -7   80.17    3.52
   4   6   7   81.88    3.59
   4   6   7   81.95    3.95
   4   6   7   80.57    3.81
   4   6   7   75.74    3.62
  -5  -6  -7   12.36    0.72
  -5  -6  -7   12.32    0.86
   5   6   7   10.70    1.42
   5   6   7   12.74    1.22
   5   6   7   11.94    1.01
   5   6   7   10.82    1.24
   6   6   7    2.87    0.94
   6   6   7    2.02    0.59
   6   6   7    2.34    0.81
   6   6   7    2.81    0.83
   7   6   7    0.93    0.89
   7   6   7    1.14    1.05
   8   6   7   22.69    2.70
   8   6   7   23.83    2.37
   7  -7  -7   13.59    1.41
   7  -7  -7   12.36    1.76
   7  -7  -7   12.42    1.61
   6  -7  -7    0.00    0.64
   6  -7  -7   -0.14    0.74
   6  -7  -7    0.49    0.76
   5  -7  -7   17.64    1.50
   5  -7  -7   16.39    1.47
   5  -7  -7   17.85    1.50
   4  -7  -7    6.60    0.79
   4  -7  -7    5.84    0.87
   4  -7  -7    6.04    0.87
   4  -7  -7    6.50    0.96
  -4   7   7    5.68    0.85
  -4   7   7    5.96    0.78
   3  -7  -7   38.72    2.03
   3  -7  -7   37.11    1.97
   3  -7  -7   39.24    2.08
   3  -7  -7   38.18    2.65
  -3   7   7   37.63    2.19
  -3   7   7   33.48    1.97
   2  -7  -7   11.55    1.28
   2  -7  -7   11.71    0.99
   2  -7  -7   10.56    0.97
   2  -7  -7   11.73    1.00
   2  -7  -7   10.69    1.07
  -2   7   7    9.56    0.88
  -2   7   7    9.37    1.14
  -2   7   7   10.63    1.08
  -2   7   7    9.83    1.53
   1  -7  -7    8.10    1.03
   1  -7  -7    8.71    0.98
   1  -7  -7    7.76    0.83
   1  -7  -7    8.16    0.85
   1  -7  -7    7.82    0.81
  -1   7   7    7.39    0.82
  -1   7   7    8.16    1.04
  -1   7   7    7.73    1.14
  -1   7   7    7.93    0.89
   0  -7  -7  175.48    6.92
   0  -7  -7  161.46    7.01
   0  -7  -7  172.16    6.91
   0  -7  -7  160.28    7.06
   0  -7  -7  162.34    6.83
   0   7   7  163.75    6.95
   0   7   7  156.16    6.93
   0   7   7  169.27    7.18
   0   7   7  163.87    7.15
  -1  -7  -7   40.81    2.20
  -1  -7  -7   40.00    1.91
  -1  -7  -7   42.81    2.05
  -1  -7  -7   42.04    2.26
  -1  -7  -7   42.61    2.00
   1   7   7   41.23    2.17
   1   7   7   39.65    2.24
   1   7   7   38.18    2.10
   1   7   7   40.69    2.32
  -2  -7  -7   15.77    0.96
  -2  -7  -7   14.43    0.86
  -2  -7  -7   16.17    1.23
  -2  -7  -7   15.37    1.06
   2   7   7   17.48    1.38
   2   7   7   14.59    1.20
   2   7   7   14.60    1.25
   2   7   7   14.58    1.28
  -3  -7  -7  357.22   14.26
  -3  -7  -7  372.78   14.53
  -3  -7  -7  368.84   14.62
  -3  -7  -7  373.17   14.47
  -3  -7  -7  346.24   14.31
   3   7   7  344.74   14.63
   3   7   7  361.67   14.84
   3   7   7  356.27   14.66
   3   7   7  359.35   14.87
  -4  -7  -7    0.10    0.38
  -4  -7  -7    0.59    0.57
   4   7   7    0.38    0.67
   4   7   7   -0.19    0.51
   4   7   7   -1.11    0.57
   4   7   7    0.39    0.72
  -5  -7  -7    0.00    0.52
  -5  -7  -7    1.07    0.34
   5   7   7    0.40    0.69
   5   7   7    0.67    0.60
   5   7   7    0.89    0.79
   6   7   7   14.66    1.77
   6   7   7   11.44    1.26
   6   7   7   13.13    1.60
   7   7   7    0.75    1.17
   7   7   7    0.38    1.21
   8   7   7    4.83    1.67
   8   7   7    2.17    1.33
   6  -8  -7    1.74    0.90
   6  -8  -7    0.19    0.87
   6  -8  -7    0.11    0.73
   5  -8  -7   15.62    1.59
   5  -8  -7   14.15    1.51
   5  -8  -7   12.72    1.41
   4  -8  -7   17.84    1.52
   4  -8  -7   14.36    1.54
   4  -8  -7   17.80    1.54
   4  -8  -7   18.81    1.27
  -4   8   7   15.55    1.47
  -4   8   7   17.97    1.54
   3  -8  -7   28.29    1.73
   3  -8  -7   27.13    1.65
   3  -8  -7   28.79    1.76
   3  -8  -7   25.52    1.59
  -3   8   7   23.37    1.74
  -3   8   7   24.26    1.88
   2  -8  -7   19.07    1.36
   2  -8  -7   18.70    1.35
   2  -8  -7   21.38    1.38
   2  -8  -7   20.17    1.40
  -2   8   7   18.15    1.47
  -2   8   7   17.80    1.64
  -2   8   7   19.07    1.18
   1  -8  -7   28.38    1.63
   1  -8  -7   28.92    1.64
   1  -8  -7   26.86    1.68
   1  -8  -7   27.40    1.62
  -1   8   7   27.03    1.72
  -1   8   7   25.53    1.53
  -1   8   7   27.55    1.98
   0  -8  -7   14.65    1.08
   0  -8  -7   16.27    1.51
   0  -8  -7   15.01    1.17
   0  -8  -7   16.87    1.15
   0   8   7   13.55    1.19
   0   8   7   14.17    1.61
   0   8   7   15.55    1.55
   0   8   7   14.02    1.30
  -1  -8  -7    9.43    1.30
  -1  -8  -7   10.94    1.06
  -1  -8  -7   13.58    0.99
   1   8   7   11.32    1.38
   1   8   7   10.56    1.25
   1   8   7   13.07    1.19
   1   8   7   10.94    1.37
  -2  -8  -7   13.00    1.30
  -2  -8  -7   14.96    1.10
  -2  -8  -7   13.29    0.95
   2   8   7   10.89    1.34
   2   8   7   11.99    1.26
   2   8   7   11.79    1.51
   2   8   7   12.54    1.38
  -3  -8  -7   14.60    1.11
  -3  -8  -7   14.71    0.73
  -3  -8  -7   14.55    0.94
  -3  -8  -7   14.67    1.33
   3   8   7   14.09    1.39
   3   8   7   13.23    1.47
   3   8   7   12.12    1.43
  -4  -8  -7    0.65    0.69
  -4  -8  -7   -0.29    0.44
  -4  -8  -7    0.28    0.15
   4   8   7   -0.01    0.66
   4   8   7   -0.16    0.70
   4   8   7   -0.02    0.71
  -5  -8  -7   12.68    1.26
  -5  -8  -7   14.62    1.02
   5   8   7   13.48    1.82
   5   8   7   11.66    1.41
  -6  -8  -7   -0.04    0.47
   6   8   7   -0.97    0.98
   6   8   7    0.43    0.94
   7   8   7   -0.69    1.14
   7   8   7   -0.84    1.21
   8   8   7    8.48    1.92
   8   8   7    4.68    1.58
   6  -9  -7    0.98    0.99
   6  -9  -7    1.18    0.99
   5  -9  -7    4.44    1.01
   5  -9  -7    6.15    1.14
   5  -9  -7    5.99    1.03
   4  -9  -7    6.08    1.04
   4  -9  -7    5.04    0.94
   4  -9  -7    4.48    0.93
  -4   9   7    6.65    1.07
   3  -9  -7   25.53    1.87
   3  -9  -7   26.02    1.87
   3  -9  -7   29.08    1.84
  -3   9   7   25.32    1.89
  -3   9   7   28.60    2.11
   2  -9  -7   32.32    1.98
   2  -9  -7   34.90    1.93
   2  -9  -7   27.18    2.13
  -2   9   7   35.72    2.32
  -2   9   7   32.04    1.65
  -2   9   7   28.49    2.09
   1  -9  -7   25.35    1.61
   1  -9  -7   24.51    1.82
  -1   9   7   27.75    2.12
  -1   9   7   24.82    1.48
   0  -9  -7   10.20    1.36
   0  -9  -7    8.71    0.99
   0   9   7    8.19    0.94
   0   9   7    9.24    1.33
  -1  -9  -7    4.41    0.73
  -1  -9  -7    5.34    0.80
   1   9   7    5.07    0.86
   1   9   7    7.53    1.19
  -2  -9  -7   29.30    1.74
  -2  -9  -7   31.71    1.63
   2   9   7   23.97    2.14
   2   9   7   30.29    1.95
  -3  -9  -7   15.61    1.26
  -3  -9  -7   15.75    0.82
  -3  -9  -7   15.26    1.02
   3   9   7   12.27    1.56
   3   9   7   16.13    1.64
   3   9   7   12.54    1.62
  -4  -9  -7   31.76    1.58
  -4  -9  -7   30.05    1.77
  -4  -9  -7   28.55    2.02
  -4  -9  -7   31.62    1.34
   4   9   7   33.15    2.28
   4   9   7   27.96    2.15
   4   9   7   31.17    2.31
  -5  -9  -7    1.34    0.85
  -5  -9  -7    3.07    0.65
   5   9   7    2.19    1.04
   5   9   7    1.07    0.98
   5   9   7    3.87    1.10
  -6  -9  -7   12.31    1.04
   6   9   7   10.83    1.79
   6   9   7   10.67    1.61
   7   9   7   -1.86    1.32
   7   9   7    0.94    1.45
   5 -10  -7   48.44    3.07
   5 -10  -7   49.45    3.13
   5 -10  -7   49.59    3.02
   4 -10  -7   30.80    2.27
   4 -10  -7   35.79    2.36
   4 -10  -7   32.80    2.30
  -4  10   7   32.80    2.57
   3 -10  -7    0.93    0.75
   3 -10  -7    0.17    0.80
   3 -10  -7    0.25    0.82
  -3  10   7    0.49    1.16
   2 -10  -7   95.38    4.42
   2 -10  -7   94.08    4.39
   2 -10  -7   92.24    4.32
  -2  10   7   89.27    3.92
   1 -10  -7    3.60    0.79
   1 -10  -7    2.27    0.67
  -1  10   7    2.89    0.61
  -1  10   7    3.61    1.05
   0 -10  -7   31.44    2.00
   0 -10  -7   35.45    2.02
   0  10   7   33.37    1.96
   0  10   7   32.77    2.52
  -1 -10  -7    2.40    0.69
  -1 -10  -7    3.67    0.96
   1  10   7    2.11    1.00
   1  10   7    2.79    0.80
  -2 -10  -7    0.57    0.49
  -2 -10  -7    0.08    0.37
  -2 -10  -7    0.49    0.62
   2  10   7    0.58    0.92
   2  10   7    0.89    0.78
  -3 -10  -7   -0.04    0.33
  -3 -10  -7    0.28    0.42
  -3 -10  -7    1.77    0.69
   3  10   7    2.64    1.13
   3  10   7    0.03    0.93
  -4 -10  -7    2.82    0.51
  -4 -10  -7    2.22    0.71
   4  10   7    1.55    1.27
   4  10   7    3.62    1.15
   4  10   7    3.96    1.23
  -5 -10  -7    7.07    0.93
   5  10   7    8.23    1.58
   5  10   7    5.80    1.43
  -6 -10  -7   -0.44    0.68
   6  10   7    2.12    1.41
   6  10   7    1.55    1.37
   4 -11  -7    0.06    1.05
   4 -11  -7    1.08    1.11
   4 -11  -7    1.20    1.08
   3 -11  -7   36.60    2.48
   3 -11  -7   31.63    2.32
  -3  11   7   29.24    2.83
   2 -11  -7    6.11    1.12
   2 -11  -7    5.81    1.08
   2 -11  -7    5.67    1.07
  -2  11   7    6.74    1.55
   1 -11  -7   18.14    1.72
   1 -11  -7   20.19    1.74
  -1  11   7   18.32    2.36
  -1  11   7   17.23    1.33
   0 -11  -7    2.91    0.77
   0 -11  -7    3.38    0.84
   0  11   7    0.62    1.22
   0  11   7    2.27    0.79
  -1 -11  -7    3.24    0.87
  -1 -11  -7    1.72    0.66
   1  11   7    2.24    1.23
   1  11   7    2.67    0.86
  -2 -11  -7    9.92    1.13
  -2 -11  -7    9.09    1.00
  -2 -11  -7    6.66    1.01
   2  11   7    6.23    1.15
   2  11   7    7.30    1.51
  -3 -11  -7   21.34    1.44
  -3 -11  -7   19.43    1.75
   3  11   7   20.82    2.39
   3  11   7   18.25    2.06
  -4 -11  -7    1.27    0.87
  -4 -11  -7   -0.44    0.50
   4  11   7    0.38    1.28
  -5 -11  -7    0.63    0.98
   5  11   7    2.49    1.49
   5  11   7   -1.97    1.26
   6  11   7    4.16    1.76
   6  11   7    5.17    1.70
   3 -12  -7   22.82    2.50
   3 -12  -7   24.37    2.54
  -3  12   7   24.13    3.70
   2 -12  -7    0.99    0.92
   2 -12  -7    0.49    1.00
   2 -12  -7   -1.11    0.96
  -2  12   7    2.29    1.78
   1 -12  -7   29.61    2.21
   1 -12  -7   27.03    2.23
  -1  12   7   30.32    3.10
   0 -12  -7    9.33    1.23
   0 -12  -7    8.23    1.13
   0  12   7    8.63    1.81
   0  12   7   11.89    1.27
  -1 -12  -7    0.22    0.93
  -1 -12  -7    0.32    0.71
   1  12   7    0.42    1.03
   1  12   7    0.00    1.37
  -2 -12  -7    1.49    0.90
  -2 -12  -7    1.30    0.76
   2  12   7    1.35    1.31
   2  12   7    1.87    1.13
  -3 -12  -7   27.93    1.86
  -3 -12  -7   24.39    2.10
   3  12   7   27.13    2.70
   3  12   7   24.53    2.84
  -4 -12  -7    0.24    0.66
  -4 -12  -7    0.25    1.00
   4  12   7    1.31    1.49
   4  12   7   -2.33    1.47
   1 -13  -7    2.44    1.19
   0 -13  -7    2.53    1.18
   0 -13  -7    1.06    0.99
   0  13   7    3.78    1.90
  -1 -13  -7    6.98    1.17
  -1 -13  -7    5.31    1.23
   1  13   7    5.74    1.94
  -2 -13  -7    7.00    1.30
  -2 -13  -7    6.54    1.12
   2  13   7    9.12    2.16
   2  13   7    8.96    1.67
  -1  -9   8    0.42    1.69
   0   9  -8    0.02    1.38
   0  -9   8   -2.45    1.64
   1  -9   8    9.51    2.09
   3   8  -8    3.92    1.37
  -3  -8   8    2.00    1.36
   2   8  -8    3.23    1.28
  -2  -8   8   -0.40    1.22
  -2  -8   8    0.38    1.46
   1   8  -8    2.74    1.19
  -1  -8   8    1.13    1.43
  -1  -8   8   -0.74    1.08
   0   8  -8   16.90    2.15
   0  -8   8   13.43    1.98
   0  -8   8   12.92    1.66
  -1   8  -8   -0.15    1.18
   1  -8   8    2.20    1.18
   1  -8   8   -0.32    1.38
  -2   8  -8   14.53    1.65
   2  -8   8   13.76    2.02
   2  -8   8   12.62    1.76
   3  -8   8    0.39    1.28
   3  -8   8    3.22    1.81
   4   7  -8    5.98    1.35
  -4  -7   8    7.41    1.45
   3   7  -8   -0.38    0.92
  -3  -7   8    1.55    1.11
  -3  -7   8    1.35    1.10
   2   7  -8    1.66    0.98
  -2  -7   8    0.87    1.03
  -2  -7   8    0.62    1.04
   1   7  -8    5.63    1.12
  -1  -7   8    5.67    1.18
  -1  -7   8    4.61    1.20
   0   7  -8    2.62    0.98
   0  -7   8    2.19    1.07
   0  -7   8    4.24    1.29
  -1   7  -8    0.41    0.92
   1  -7   8   -1.57    0.93
   1  -7   8   -0.02    1.13
  -2   7  -8    9.65    1.21
   2  -7   8    8.91    1.43
   2  -7   8    5.88    1.57
  -3   7  -8    4.15    1.08
   3  -7   8    1.91    1.58
   3  -7   8    3.55    1.26
   4  -7   8    6.80    1.48
   4  -7   8    5.42    1.73
   5  -7   8    4.21    2.86
   5   6  -8    3.01    1.25
   5   6  -8    2.47    0.60
  -5  -6   8    2.46    1.34
   4   6  -8    6.50    0.75
   4   6  -8    7.72    1.24
  -4  -6   8    5.86    1.26
  -4  -6   8    6.10    1.12
   3   6  -8    5.00    1.11
   3   6  -8    4.00    0.63
  -3  -6   8    7.69    1.25
  -3  -6   8    4.84    1.06
   2   6  -8    1.79    0.86
  -2  -6   8    3.64    0.97
  -2  -6   8    3.04    1.02
   1   6  -8    8.72    1.14
  -1  -6   8    9.62    1.28
   0   6  -8    2.64    1.42
   0   6  -8   -0.14    0.67
   0  -6   8   -0.05    0.75
  -1   6  -8    1.03    0.92
  -1   6  -8   -0.34    0.68
   1  -6   8    1.37    0.86
   1  -6   8    0.14    0.97
  -2   6  -8   10.92    1.55
  -2   6  -8   10.44    1.28
  -2   6  -8   10.59    1.26
   2  -6   8    9.54    1.62
   2  -6   8   13.15    1.71
  -3   6  -8    4.34    0.77
   3  -6   8    4.27    1.44
   3  -6   8    4.73    1.11
   4  -6   8   24.76    2.21
   4  -6   8   21.61    2.96
   5  -6   8    0.76    1.28
   5  -6   8   -0.44    1.49
   6  -6   8    5.29    2.37
   6   5  -8    3.17    1.24
   6   5  -8    2.13    0.69
  -6  -5   8    1.47    1.34
   5   5  -8    7.58    0.85
   5   5  -8    7.66    1.28
  -5  -5   8    5.54    1.20
   4   5  -8    0.32    0.84
   4   5  -8    0.33    0.47
  -4  -5   8    0.59    0.89
  -4  -5   8   -0.20    0.65
   3   5  -8   24.57    1.40
   3   5  -8   25.87    1.95
  -3  -5   8   22.75    2.00
  -3  -5   8   23.29    1.32
   2   5  -8   59.71    2.79
   2   5  -8   63.22    3.17
  -2  -5   8   62.54    3.28
   1   5  -8    4.28    1.00
  -1  -5   8    3.51    0.89
   0   5  -8   50.50    2.51
   0   5  -8   52.52    2.81
   0  -5   8   37.47    2.89
  -1   5  -8    4.29    0.77
  -1   5  -8    4.77    0.95
  -1   5  -8    2.95    1.17
   1  -5   8    5.61    1.48
  -2   5  -8   -0.10    0.76
  -2   5  -8   -0.12    1.04
  -2   5  -8    0.02    0.55
   2  -5   8   -0.21    0.70
  -3   5  -8    3.35    0.95
  -3   5  -8    2.80    0.58
  -3   5  -8    3.91    0.94
   3  -5   8    3.73    0.87
   4  -5   8   11.87    1.90
   4  -5   8   14.44    1.61
   5  -5   8   10.69    2.00
   5  -5   8   17.56    2.16
   6  -5   8    3.56    1.78
   6   4  -8   11.11    1.42
   6   4  -8    9.65    1.04
  -6  -4   8    5.02    1.61
   5   4  -8    4.70    0.66
   5   4  -8    2.97    0.99
  -5  -4   8    3.08    0.74
  -5  -4   8    3.54    0.95
   4   4  -8    0.23    0.38
   4   4  -8    0.61    0.70
  -4  -4   8    0.76    0.40
  -4  -4   8   -0.41    0.75
   3   4  -8    0.45    0.36
   3   4  -8    0.28    0.62
  -3  -4   8    0.23    0.36
   2   4  -8    1.96    0.44
   2   4  -8    3.21    0.83
  -2  -4   8    3.16    0.79
   1   4  -8   20.34    1.47
   1   4  -8   19.81    1.76
   1   4  -8   19.26    1.14
  -1  -4   8   18.95    1.61
   0   4  -8   35.75    2.28
   0   4  -8   37.37    2.05
   0   4  -8   38.96    2.50
   0  -4   8   38.60    2.25
  -1   4  -8    0.93    0.53
  -1   4  -8    1.78    0.73
  -1   4  -8    0.05    0.88
   1  -4   8    0.56    0.64
   1  -4   8    0.96    0.33
  -2   4  -8   -0.08    0.69
  -2   4  -8    1.69    0.90
  -2   4  -8    1.80    0.54
   2  -4   8    2.32    0.71
  -3   4  -8    2.32    0.96
  -3   4  -8    2.00    0.84
  -3   4  -8    1.48    0.46
   3  -4   8    0.55    0.71
   3  -4   8    1.57    0.55
  -4   4  -8   11.43    1.29
   4  -4   8    8.76    1.06
   5  -4   8    1.02    1.16
   5  -4   8    1.21    0.64
   5  -4   8   -0.09    0.78
   6  -4   8    2.78    1.03
   6  -4   8    2.95    0.80
   6  -4   8    5.15    1.70
   7  -4   8   -2.58    1.56
   7   3  -8    2.15    0.59
   7   3  -8    3.96    1.31
   6   3  -8    9.71    1.27
   6   3  -8   10.46    0.97
  -6  -3   8    9.68    1.15
   5   3  -8    1.40    0.43
   5   3  -8   -0.22    0.76
  -5  -3   8    0.68    0.79
  -5  -3   8    1.14    0.66
   4   3  -8    1.03    0.64
   4   3  -8    1.10    0.36
  -4  -3   8    1.62    0.44
  -4  -3   8    1.17    0.69
  -4  -3   8    1.20    0.75
   3   3  -8    5.97    0.86
   3   3  -8    4.76    0.61
  -3  -3   8    6.05    0.92
  -3  -3   8    4.56    0.72
  -3  -3   8    5.98    0.62
   2   3  -8   31.38    2.19
   2   3  -8   32.83    1.50
   2   3  -8   28.60    2.53
   2   3  -8   32.16    1.80
  -2  -3   8   27.50    1.70
  -2  -3   8   30.06    1.50
  -2  -3   8   27.96    1.89
   1   3  -8  185.20    7.66
   1   3  -8  188.28    7.45
   1   3  -8  179.32    7.83
   1   3  -8  185.07    7.98
  -1  -3   8  181.42    7.41
  -1  -3   8  175.26    7.56
  -1  -3   8  181.20    7.81
   0   3  -8   18.91    1.74
   0   3  -8   21.81    1.62
   0   3  -8   19.24    1.07
   0   3  -8   17.84    1.32
   0  -3   8   19.79    1.30
   0  -3   8   19.32    1.50
   0  -3   8   18.88    1.02
  -1   3  -8   60.47    3.14
  -1   3  -8   62.73    2.83
  -1   3  -8   57.12    2.98
   1  -3   8   61.33    2.91
   1  -3   8   62.28    2.61
   1  -3   8   59.61    2.79
   1  -3   8   59.17    3.02
  -2   3  -8   58.68    2.86
  -2   3  -8   56.98    2.59
  -2   3  -8   57.35    2.89
   2  -3   8   53.38    2.86
   2  -3   8   56.25    2.63
   2  -3   8   55.12    2.72
   2  -3   8   55.93    2.43
  -3   3  -8    0.36    0.36
  -3   3  -8    1.03    0.74
  -3   3  -8    0.35    0.60
   3  -3   8    0.33    0.29
   3  -3   8    0.18    0.44
   3  -3   8    0.94    0.52
   3  -3   8    0.36    0.58
  -4   3  -8   10.64    1.23
   4  -3   8    9.12    1.06
   4  -3   8    7.91    0.69
   4  -3   8    7.99    0.99
   4  -3   8    6.88    0.97
  -5   3  -8   12.24    1.71
   5  -3   8   14.55    1.40
   5  -3   8   12.91    1.23
   5  -3   8   13.08    0.94
   5  -3   8   10.92    1.19
   6  -3   8    9.67    1.18
   6  -3   8    7.85    1.65
   6  -3   8   11.48    1.35
   7  -3   8    6.00    1.06
   7  -3   8    4.59    1.64
   7   2  -8   35.10    2.51
   7   2  -8   35.96    1.87
   6   2  -8    3.82    0.55
   6   2  -8    3.85    0.89
  -6  -2   8    4.57    0.80
   5   2  -8   20.90    1.53
   5   2  -8   19.63    1.15
  -5  -2   8   18.34    1.53
  -5  -2   8   19.92    1.38
   4   2  -8   40.22    2.12
  -4  -2   8   39.24    2.19
  -4  -2   8   35.89    1.95
  -4  -2   8   37.39    1.84
   3   2  -8   30.45    1.48
   3   2  -8   29.90    1.75
   3   2  -8   38.49    3.76
  -3  -2   8   31.71    1.91
  -3  -2   8   29.94    1.49
  -3  -2   8   30.00    1.66
   2   2  -8   22.58    1.94
   2   2  -8   20.96    1.10
   2   2  -8   22.37    1.38
  -2  -2   8   21.46    1.60
  -2  -2   8   20.77    1.29
  -2  -2   8   21.79    1.14
  -2  -2   8   19.25    1.13
   1   2  -8  105.47    4.39
   1   2  -8  107.86    4.79
   1   2  -8  111.17    4.94
   1   2  -8  104.90    4.60
  -1  -2   8  103.61    4.52
  -1  -2   8  101.99    4.76
  -1  -2   8  105.66    4.39
   0   2  -8    0.87    0.28
   0   2  -8    0.35    0.39
   0   2  -8    1.34    0.62
   0   2  -8    1.26    0.73
   0  -2   8    0.48    0.21
   0  -2   8    0.58    0.44
   0  -2   8    0.05    0.38
   0  -2   8   -0.25    0.50
  -1   2  -8   24.08    1.39
  -1   2  -8   26.57    1.77
  -1   2  -8   25.20    1.63
   1  -2   8   22.72    1.61
   1  -2   8   26.37    1.52
   1  -2   8   23.36    1.38
   1  -2   8   25.97    1.19
  -2   2  -8    1.05    0.62
  -2   2  -8   -0.07    0.33
  -2   2  -8   -0.39    0.61
   2  -2   8    0.45    0.23
   2  -2   8   -0.60    0.54
   2  -2   8    0.40    0.41
   2  -2   8   -0.76    0.39
  -3   2  -8   22.90    1.39
  -3   2  -8   24.46    1.22
  -3   2  -8   25.60    1.70
   3  -2   8   23.65    1.36
   3  -2   8   23.10    1.59
   3  -2   8   22.42    1.46
   3  -2   8   24.09    1.15
  -4   2  -8    9.88    1.19
   4  -2   8    9.79    0.91
   4  -2   8    8.26    1.07
   4  -2   8    8.75    0.64
   4  -2   8    7.94    0.97
  -5   2  -8   30.37    2.19
   5  -2   8   30.26    1.86
   5  -2   8   31.51    1.49
   5  -2   8   31.27    1.86
   5  -2   8   31.49    1.68
   6  -2   8   -0.53    0.68
   6  -2   8    1.18    0.61
   6  -2   8    0.03    0.72
   6  -2   8    0.50    0.42
   7  -2   8   -0.03    1.32
   7  -2   8   -0.08    0.84
   7  -2   8    2.89    0.84
   8  -2   8   28.81    3.35
   7   1  -8   21.14    1.95
   7   1  -8   20.46    1.32
   6   1  -8    1.80    0.45
   6   1  -8    1.90    0.76
  -6  -1   8    1.36    0.62
   5   1  -8   -0.08    0.57
   5   1  -8    0.06    0.33
  -5  -1   8    0.61    0.53
  -5  -1   8    0.69    0.61
  -5  -1   8    0.06    0.56
   4   1  -8   18.55    1.00
   4   1  -8   17.70    1.29
  -4  -1   8   17.33    1.36
  -4  -1   8   16.40    1.13
  -4  -1   8   16.17    1.17
   3   1  -8    4.36    0.51
   3   1  -8    6.29    0.77
   3   1  -8    3.41    1.02
   3   1  -8    3.53    0.90
  -3  -1   8    6.15    0.67
  -3  -1   8    4.26    0.84
  -3  -1   8    3.89    0.53
  -3  -1   8    4.14    0.59
   2   1  -8   40.40    2.37
   2   1  -8   39.49    1.95
   2   1  -8   38.01    2.19
   2   1  -8   36.60    1.70
  -2  -1   8   37.07    1.77
  -2  -1   8   38.31    1.75
  -2  -1   8   37.03    2.10
  -2  -1   8   36.49    1.85
   1   1  -8    0.44    0.36
   1   1  -8    0.79    0.23
   1   1  -8    0.80    0.52
   1   1  -8    0.89    0.68
  -1  -1   8    0.36    0.26
  -1  -1   8   -0.05    0.49
  -1  -1   8    0.45    0.22
  -1  -1   8    0.54    0.35
   0   1  -8   18.80    1.56
   0   1  -8   19.30    0.98
   0   1  -8   20.85    1.19
   0   1  -8   19.43    1.42
   0  -1   8   19.83    1.14
   0  -1   8   21.16    1.31
   0  -1   8   19.75    0.99
   0  -1   8   19.50    1.41
  -1   1  -8  109.18    4.73
  -1   1  -8  109.25    4.59
  -1   1  -8  114.97    4.97
  -1   1  -8  115.95    4.96
   1  -1   8  107.19    4.94
   1  -1   8  113.05    4.71
   1  -1   8  110.07    4.88
   1  -1   8  116.00    4.57
  -2   1  -8  133.47    5.52
  -2   1  -8  130.32    5.33
  -2   1  -8  126.15    5.58
   2  -1   8  125.02    5.53
   2  -1   8  127.78    5.35
   2  -1   8  124.71    5.58
   2  -1   8  130.41    5.20
  -3   1  -8  128.01    5.38
  -3   1  -8  130.48    5.30
  -3   1  -8  127.84    5.67
   3  -1   8  131.29    5.59
   3  -1   8  127.70    5.62
   3  -1   8  130.63    5.24
   3  -1   8  129.42    5.38
  -4   1  -8   24.02    1.73
   4  -1   8   19.49    1.41
   4  -1   8   21.43    1.45
   4  -1   8   21.23    1.03
   4  -1   8   21.29    1.22
  -5   1  -8    3.13    0.97
   5  -1   8    1.54    0.48
   5  -1   8    1.87    0.33
   5  -1   8    1.16    0.61
   5  -1   8    1.37    0.60
   6  -1   8   15.77    1.15
   6  -1   8   15.93    1.37
   6  -1   8   17.72    1.51
   6  -1   8   16.14    0.94
   7  -1   8   -0.01    0.89
   7  -1   8    1.43    0.53
   7  -1   8    2.47    0.72
   8  -1   8    2.36    1.57
   8  -1   8    0.24    1.19
   8   0  -8   25.81    1.63
   7   0  -8   19.81    1.29
   7   0  -8   18.90    1.81
   6   0  -8    3.77    0.76
   6   0  -8    3.23    0.51
  -6   0   8    2.39    0.53
   5   0  -8   45.97    2.09
   5   0  -8   46.68    2.30
  -5   0   8   41.13    2.30
  -5   0   8   45.99    2.28
  -5   0   8   44.98    2.16
   4   0  -8   31.82    1.69
   4   0  -8   31.53    1.51
   4   0  -8   27.67    2.27
  -4   0   8   29.88    1.66
  -4   0   8   30.60    1.62
  -4   0   8   32.21    1.83
   3   0  -8  601.34   24.02
   3   0  -8  592.55   23.60
   3   0  -8  582.48   23.75
   3   0  -8  614.50   24.12
  -3   0   8  584.57   23.67
  -3   0   8  585.14   23.70
  -3   0   8  593.54   23.91
  -3   0   8  593.19   23.67
   2   0  -8    4.99    0.80
   2   0  -8    8.44    1.12
   2   0  -8    6.87    0.52
   2   0  -8    6.82    0.72
  -2   0   8    6.76    0.60
  -2   0   8    6.20    0.67
  -2   0   8    6.43    0.62
  -2   0   8    7.18    0.91
   1   0  -8    2.44    0.60
   1   0  -8    2.57    0.77
   1   0  -8    2.89    0.49
   1   0  -8    2.81    0.31
  -1   0   8    3.32    0.48
  -1   0   8    3.29    0.42
  -1   0   8    1.78    0.45
  -1   0   8    2.07    0.32
  -1   0   8    2.86    0.67
   0   0  -8   36.87    1.78
   0   0  -8   35.64    2.06
   0   0  -8   35.91    1.59
   0   0  -8   38.51    2.00
   0   0   8   35.02    1.73
   0   0   8   37.85    1.71
   0   0   8   36.11    1.91
   0   0   8   38.70    1.63
   0   0   8   32.95    1.97
  -1   0  -8  127.81    5.19
  -1   0  -8  127.99    5.55
  -1   0  -8  130.66    5.34
  -1   0  -8  128.96    5.56
   1   0   8  127.67    5.56
   1   0   8  128.15    5.51
   1   0   8  127.54    5.18
   1   0   8  125.39    5.30
  -2   0  -8    4.22    0.76
  -2   0  -8    4.33    0.53
   2   0   8    3.94    0.59
   2   0   8    3.99    0.36
   2   0   8    4.28    0.67
   2   0   8    3.49    0.46
  -3   0  -8  804.41   30.97
  -3   0  -8  780.21   30.66
  -3   0  -8  761.85   30.58
   3   0   8  786.71   30.92
   3   0   8  776.17   30.90
   3   0   8  721.96   30.57
   3   0   8  771.03   30.65
  -4   0  -8    5.33    0.95
   4   0   8    5.90    0.68
   4   0   8    6.17    0.82
   4   0   8    5.04    0.44
   4   0   8    5.30    0.76
  -5   0  -8    7.98    1.22
   5   0   8    8.13    0.93
   5   0   8    9.64    0.81
   5   0   8    7.59    1.03
   6   0   8    2.57    0.72
   6   0   8    2.37    0.53
   6   0   8    2.06    0.32
   6   0   8    1.81    0.79
   7   0   8   17.68    1.04
   7   0   8   17.36    1.47
   7   0   8   17.56    2.02
   8   0   8    4.60    1.49
   8   0   8    9.65    1.56
   8  -1  -8    1.79    0.67
   8  -1  -8   -0.52    0.93
   7  -1  -8    6.02    1.01
   7  -1  -8    5.82    0.70
   6  -1  -8   17.00    1.05
   6  -1  -8   17.69    1.61
  -6   1   8   13.90    2.06
  -6   1   8   14.80    0.96
   5  -1  -8   23.89    1.40
   5  -1  -8   23.44    1.23
  -5   1   8   23.68    1.39
  -5   1   8   19.71    1.30
  -5   1   8   20.70    1.60
   4  -1  -8    8.10    1.14
   4  -1  -8    8.69    0.85
   4  -1  -8    9.22    0.68
   4  -1  -8   10.25    1.28
  -4   1   8    9.79    0.89
  -4   1   8    8.43    1.00
   3  -1  -8   49.49    2.56
   3  -1  -8   46.81    2.70
   3  -1  -8   49.13    2.11
   3  -1  -8   47.43    2.26
  -3   1   8   45.51    2.44
  -3   1   8   46.84    2.26
  -3   1   8   47.83    2.25
  -3   1   8   47.30    2.21
   2  -1  -8   85.42    3.71
   2  -1  -8   86.66    3.95
   2  -1  -8   82.53    4.03
   2  -1  -8   84.73    3.58
  -2   1   8   89.42    3.69
  -2   1   8   85.56    3.93
  -2   1   8   86.63    3.68
   1  -1  -8   92.17    3.89
   1  -1  -8   91.57    4.19
   1  -1  -8   90.77    3.74
   1  -1  -8   90.01    4.09
  -1   1   8   89.56    4.11
  -1   1   8   89.83    3.80
  -1   1   8   95.84    3.84
  -1   1   8   87.21    3.84
  -1   1   8   89.52    4.05
   0  -1  -8    5.85    0.81
   0  -1  -8    6.52    0.86
   0  -1  -8    5.46    0.58
   0  -1  -8    5.86    0.40
   0   1   8    5.55    0.48
   0   1   8    6.52    0.54
   0   1   8    4.05    0.67
   0   1   8    6.10    0.76
   0   1   8    6.10    0.58
  -1  -1  -8   18.63    1.03
  -1  -1  -8   18.21    1.31
  -1  -1  -8   19.86    1.32
  -1  -1  -8   18.64    0.88
   1   1   8   19.12    1.29
   1   1   8   18.01    0.90
   1   1   8   18.54    1.24
   1   1   8   19.82    1.05
   1   1   8   19.15    1.02
  -2  -1  -8  402.66   15.95
  -2  -1  -8  401.03   15.66
  -2  -1  -8  375.26   15.53
   2   1   8  393.08   15.91
   2   1   8  373.37   15.52
   2   1   8  399.48   15.91
   2   1   8  395.55   15.66
  -3  -1  -8    0.66    0.58
  -3  -1  -8    1.26    0.31
  -3  -1  -8    0.39    0.35
   3   1   8    1.38    0.19
   3   1   8    0.89    0.47
   3   1   8    0.36    0.48
   3   1   8    0.92    0.36
  -4  -1  -8   50.21    2.76
   4   1   8   54.21    2.69
   4   1   8   52.09    2.55
   4   1   8   51.41    2.14
   4   1   8   53.23    2.33
  -5  -1  -8   69.17    3.62
   5   1   8   71.54    3.04
   5   1   8   72.15    3.29
   5   1   8   67.58    3.42
   5   1   8   71.08    2.86
   6   1   8   20.74    0.94
   6   1   8   22.42    1.47
   6   1   8   20.09    1.69
   6   1   8   22.19    1.04
   6   1   8   20.85    1.21
   7   1   8    5.45    0.46
   7   1   8    2.80    1.01
   7   1   8    4.83    0.85
   8   1   8   38.81    2.82
   8   1   8   35.86    2.99
   8  -2  -8    7.86    1.27
   8  -2  -8   10.88    1.16
   7  -2  -8   -0.35    0.71
   7  -2  -8    0.50    0.44
   6  -2  -8    1.95    0.39
   6  -2  -8    2.19    0.61
   6  -2  -8    1.79    0.45
  -6   2   8    1.15    0.89
   5  -2  -8    0.04    0.31
   5  -2  -8    0.06    0.26
   5  -2  -8   -0.60    0.37
  -5   2   8   -0.09    0.47
  -5   2   8    0.70    0.73
  -5   2   8    0.31    0.46
   4  -2  -8   14.22    1.61
   4  -2  -8   12.59    0.78
   4  -2  -8   11.23    1.40
   4  -2  -8   12.95    0.94
   4  -2  -8   11.88    0.80
  -4   2   8   10.97    1.18
  -4   2   8   10.99    0.95
  -4   2   8   11.12    1.09
   3  -2  -8    1.87    0.68
   3  -2  -8    3.00    0.78
   3  -2  -8    3.18    0.43
   3  -2  -8    2.87    0.48
   3  -2  -8    2.96    0.40
  -3   2   8    3.40    0.61
  -3   2   8    3.00    0.68
  -3   2   8    2.66    0.50
  -3   2   8    3.29    0.59
   2  -2  -8  193.71    7.81
   2  -2  -8  192.13    8.22
   2  -2  -8  202.25    8.16
   2  -2  -8  195.38    7.92
  -2   2   8  186.09    7.92
  -2   2   8  190.43    8.09
  -2   2   8  193.57    7.90
  -2   2   8  188.06    8.13
  -2   2   8  197.33    7.96
   1  -2  -8   27.53    1.39
   1  -2  -8   27.63    1.74
   1  -2  -8   28.57    1.64
   1  -2  -8   27.36    1.26
  -1   2   8   28.04    1.40
  -1   2   8   28.44    1.68
  -1   2   8   28.02    1.37
  -1   2   8   24.96    1.52
  -1   2   8   27.43    1.39
   0  -2  -8  143.04    5.87
   0  -2  -8  148.02    6.27
   0  -2  -8  147.76    6.02
   0   2   8  142.04    6.19
   0   2   8  147.28    5.94
   0   2   8  143.24    6.27
   0   2   8  145.62    6.01
   0   2   8  149.49    6.01
  -1  -2  -8  206.16    8.28
  -1  -2  -8  205.29    8.52
  -1  -2  -8  198.05    8.13
  -1  -2  -8  209.62    8.49
   1   2   8  201.47    8.28
   1   2   8  211.32    8.28
   1   2   8  196.99    8.52
   1   2   8  201.15    8.17
  -2  -2  -8   86.39    3.50
  -2  -2  -8   82.94    3.35
  -2  -2  -8   77.57    3.74
   2   2   8   84.66    3.37
   2   2   8   82.09    3.51
   2   2   8   78.99    3.73
   2   2   8   86.90    3.52
   2   2   8   79.92    3.74
  -3  -2  -8  140.87    5.78
  -3  -2  -8  138.48    6.11
  -3  -2  -8  138.11    5.70
   3   2   8  139.21    6.00
   3   2   8  139.92    6.06
   3   2   8  143.91    5.77
   3   2   8  137.75    5.59
   3   2   8  141.31    5.78
  -4  -2  -8  390.51   16.07
   4   2   8  386.37   15.87
   4   2   8  391.00   15.65
   4   2   8  396.14   16.02
   5   2   8   14.98    1.35
   5   2   8   13.46    1.14
   5   2   8   11.64    0.87
   6   2   8    1.62    0.81
   6   2   8    1.55    0.59
   6   2   8    2.06    0.48
   7   2   8    1.21    0.90
   7   2   8    0.30    0.53
   7   2   8   -0.23    0.70
   8   2   8    3.46    1.35
   7  -3  -8    3.30    0.65
   7  -3  -8    3.63    0.81
   7  -3  -8    3.03    0.55
   6  -3  -8    7.37    0.78
   6  -3  -8    9.27    1.01
   6  -3  -8    6.95    0.88
  -6   3   8    7.98    1.22
   5  -3  -8   30.96    1.55
   5  -3  -8   32.87    1.59
   5  -3  -8   32.68    2.24
   5  -3  -8   30.41    1.63
  -5   3   8   23.15    2.04
  -5   3   8   28.82    1.55
  -5   3   8   30.87    1.61
   4  -3  -8   24.54    1.25
   4  -3  -8   23.13    1.30
   4  -3  -8   22.73    1.90
   4  -3  -8   21.40    1.71
   4  -3  -8   23.28    1.26
  -4   3   8   21.71    1.67
  -4   3   8   20.92    1.32
  -4   3   8   22.16    1.48
   3  -3  -8    2.58    0.75
   3  -3  -8    3.07    0.41
   3  -3  -8    2.97    0.45
   3  -3  -8    2.82    0.42
   3  -3  -8    3.45    0.91
  -3   3   8    2.45    0.57
  -3   3   8    3.41    0.69
  -3   3   8    3.27    0.61
  -3   3   8    2.92    0.54
   2  -3  -8  192.75    8.13
   2  -3  -8  201.62    7.91
   2  -3  -8  195.00    7.85
   2  -3  -8  196.75    7.93
   2  -3  -8  193.51    8.23
  -2   3   8  194.56    7.93
  -2   3   8  190.65    8.08
  -2   3   8  196.77    8.04
  -2   3   8  193.44    8.17
  -2   3   8  180.31    7.96
   1  -3  -8    6.48    0.49
   1  -3  -8    7.84    0.93
   1  -3  -8    7.38    0.56
   1  -3  -8    8.65    0.97
   1  -3  -8    6.74    0.62
  -1   3   8    6.03    0.67
  -1   3   8    7.59    0.72
  -1   3   8    7.36    0.96
  -1   3   8    7.66    0.69
  -1   3   8    6.67    0.77
   0  -3  -8    5.21    0.81
   0  -3  -8    2.73    0.58
   0  -3  -8    4.45    0.36
   0  -3  -8    4.05    0.51
   0   3   8    3.10    0.55
   0   3   8    4.26    0.57
   0   3   8    5.15    0.55
   0   3   8    4.03    0.66
   0   3   8    6.13    0.58
  -1  -3  -8   45.05    2.23
  -1  -3  -8   46.02    2.29
  -1  -3  -8   42.85    1.98
  -1  -3  -8   43.39    1.82
   1   3   8   41.37    1.90
   1   3   8   43.82    2.25
   1   3   8   42.86    2.00
   1   3   8   43.97    2.21
   1   3   8   43.70    2.00
  -2  -3  -8   19.05    0.82
  -2  -3  -8   19.28    1.24
  -2  -3  -8   20.09    1.02
  -2  -3  -8   19.42    1.39
   2   3   8   18.29    1.05
   2   3   8   20.34    1.04
   2   3   8   17.07    1.27
   2   3   8   17.36    0.88
   2   3   8   18.00    1.29
  -3  -3  -8    9.16    1.13
  -3  -3  -8   11.27    0.67
  -3  -3  -8    9.81    0.83
   3   3   8   10.21    0.77
   3   3   8   10.72    1.06
   3   3   8    8.03    0.92
   3   3   8   10.00    0.72
  -4  -3  -8    3.92    0.85
  -4  -3  -8    3.75    0.48
  -4  -3  -8    4.26    0.45
   4   3   8    5.06    0.58
   4   3   8    4.28    0.53
   4   3   8    4.23    0.67
   4   3   8    4.50    0.76
   5   3   8    1.88    0.46
   5   3   8    1.13    0.68
   5   3   8    1.91    0.42
   5   3   8    1.15    0.55
   6   3   8    6.11    1.07
   6   3   8    5.76    0.85
   6   3   8    6.29    0.71
   6   3   8    6.79    0.77
   7   3   8    3.43    0.62
   7   3   8    3.30    0.82
   7   3   8    4.18    1.13
   7   3   8    3.78    0.72
   8   3   8   22.47    2.55
   8   3   8   22.33    1.95
   9   3   8    0.36    1.58
   7  -4  -8   18.47    1.41
   7  -4  -8   18.19    1.42
   7  -4  -8   17.90    1.55
   6  -4  -8   -0.16    0.41
   6  -4  -8    0.70    0.55
   6  -4  -8    0.90    0.54
   5  -4  -8   30.74    1.65
   5  -4  -8   32.86    1.64
   5  -4  -8   30.89    2.18
   5  -4  -8   32.83    1.68
  -5   4   8   28.71    1.54
  -5   4   8   24.50    2.26
   4  -4  -8   27.41    1.90
   4  -4  -8   28.27    1.52
   4  -4  -8   30.25    1.54
   4  -4  -8   25.91    2.08
   4  -4  -8   30.75    1.56
  -4   4   8   29.03    1.59
  -4   4   8   28.41    1.68
  -4   4   8   26.95    1.95
   3  -4  -8  186.11    7.39
   3  -4  -8  189.83    7.43
   3  -4  -8  179.87    7.41
   3  -4  -8  181.68    7.76
   3  -4  -8  179.08    7.61
  -3   4   8  173.51    7.40
  -3   4   8  169.43    7.63
  -3   4   8  176.79    7.61
   2  -4  -8    0.02    0.26
   2  -4  -8    0.39    0.27
   2  -4  -8    0.16    0.27
   2  -4  -8    0.26    0.55
   2  -4  -8    0.95    0.63
  -2   4   8    0.48    0.44
  -2   4   8    0.40    0.43
  -2   4   8   -0.21    0.51
  -2   4   8   -0.37    0.40
   1  -4  -8    1.30    0.58
   1  -4  -8    0.37    0.23
   1  -4  -8    0.49    0.51
   1  -4  -8    0.36    0.24
   1  -4  -8    0.59    0.29
  -1   4   8    0.62    0.39
  -1   4   8    0.59    0.50
  -1   4   8    0.26    0.40
   0  -4  -8   66.62    3.05
   0  -4  -8   64.46    3.05
   0  -4  -8   62.32    2.76
   0  -4  -8   64.01    2.66
   0   4   8   62.16    2.82
   0   4   8   60.79    2.95
   0   4   8   64.18    2.87
   0   4   8   62.22    3.06
  -1  -4  -8    6.37    0.39
  -1  -4  -8    4.11    0.69
  -1  -4  -8    6.47    0.82
  -1  -4  -8    5.53    0.55
   1   4   8    6.20    0.63
   1   4   8    6.24    0.66
   1   4   8    6.32    0.79
   1   4   8    5.44    0.78
  -2  -4  -8   60.89    2.88
  -2  -4  -8   66.04    2.71
  -2  -4  -8   61.83    3.06
   2   4   8   59.25    2.76
   2   4   8   64.46    2.77
   2   4   8   60.15    3.00
   2   4   8   62.36    3.00
  -3  -4  -8  172.77    7.54
  -3  -4  -8  175.36    7.23
  -3  -4  -8  180.54    7.12
   3   4   8  168.74    7.41
   3   4   8  169.17    7.20
   3   4   8  175.25    7.49
   3   4   8  183.54    7.20
  -4  -4  -8    6.89    1.03
  -4  -4  -8    9.91    0.61
  -4  -4  -8    9.11    0.73
   4   4   8    8.30    0.81
   4   4   8    8.72    1.16
   4   4   8    9.41    0.74
   4   4   8    9.10    0.99
   5   4   8   38.28    1.98
   5   4   8   42.51    1.93
   5   4   8   38.82    2.17
   5   4   8   40.20    2.42
   6   4   8   46.87    2.43
   6   4   8   44.11    2.12
   6   4   8   40.63    2.22
   6   4   8   48.26    2.77
   7   4   8   13.05    1.47
   7   4   8    9.03    1.07
   7   4   8   10.57    1.03
   7   4   8   10.85    1.57
   8   4   8   22.86    2.63
   8   4   8   25.48    2.06
   7  -5  -8    9.18    1.27
   7  -5  -8    9.38    1.08
   7  -5  -8   10.69    1.17
   6  -5  -8   31.46    1.80
   6  -5  -8   32.56    1.86
   6  -5  -8   26.49    1.86
   5  -5  -8   28.62    1.66
   5  -5  -8   29.64    2.12
   5  -5  -8   32.79    1.71
   5  -5  -8   31.44    1.71
  -5   5   8   27.50    1.51
   4  -5  -8   24.81    1.74
   4  -5  -8   27.02    1.47
   4  -5  -8   25.10    1.43
   4  -5  -8   24.04    1.46
   4  -5  -8   24.22    2.08
  -4   5   8   26.27    1.61
  -4   5   8   22.21    2.02
  -4   5   8   22.54    1.45
   3  -5  -8  171.55    7.02
   3  -5  -8  168.42    7.17
   3  -5  -8  183.23    7.07
   3  -5  -8  166.14    7.35
   3  -5  -8  173.39    7.01
  -3   5   8  164.52    7.01
  -3   5   8  168.87    7.21
  -3   5   8  152.62    7.27
   2  -5  -8   89.80    3.75
   2  -5  -8   92.92    3.80
   2  -5  -8   87.77    3.78
   2  -5  -8   86.84    4.09
   2  -5  -8   86.75    3.94
  -2   5   8   84.76    3.88
  -2   5   8   82.27    3.79
  -2   5   8   81.80    4.00
  -2   5   8   87.25    4.05
   1  -5  -8  533.04   21.06
   1  -5  -8  530.88   20.90
   1  -5  -8  532.45   20.90
   1  -5  -8  522.85   20.82
   1  -5  -8  527.67   21.15
  -1   5   8  506.42   21.05
  -1   5   8  511.48   21.01
  -1   5   8  525.81   21.17
  -1   5   8  507.29   20.92
   0  -5  -8  209.71    8.41
   0  -5  -8  212.26    8.30
   0  -5  -8  218.98    8.41
   0  -5  -8  202.70    8.63
   0  -5  -8  210.24    8.62
   0   5   8  201.02    8.68
   0   5   8  196.43    8.44
   0   5   8  198.09    8.52
   0   5   8  198.38    8.55
  -1  -5  -8   41.37    1.86
  -1  -5  -8   39.19    2.12
  -1  -5  -8   40.92    1.72
  -1  -5  -8   39.07    1.87
   1   5   8   38.53    2.09
   1   5   8   39.98    1.99
   1   5   8   38.11    2.17
   1   5   8   38.08    1.96
  -2  -5  -8    2.19    0.59
  -2  -5  -8    1.00    0.59
  -2  -5  -8    1.93    0.21
  -2  -5  -8    1.49    0.36
   2   5   8    1.36    0.45
   2   5   8    2.24    0.48
   2   5   8    1.13    0.54
   2   5   8    1.16    0.49
  -3  -5  -8  136.31    5.78
  -3  -5  -8  132.67    6.09
  -3  -5  -8  140.61    5.67
   3   5   8  142.05    5.77
   3   5   8  139.99    6.06
   3   5   8  134.91    5.99
   3   5   8  134.85    5.78
  -4  -5  -8   18.43    1.27
  -4  -5  -8   21.15    1.04
   4   5   8   20.04    1.17
   4   5   8   19.20    1.54
   4   5   8   18.14    1.23
   4   5   8   18.61    1.46
  -5  -5  -8    1.20    0.28
   5   5   8    1.13    0.82
   5   5   8    1.23    0.44
   5   5   8    1.81    0.57
   5   5   8    1.34    0.61
   6   5   8    9.59    0.96
   6   5   8   12.19    1.63
   6   5   8   10.15    1.35
   6   5   8    9.85    1.03
   7   5   8   -0.14    0.84
   7   5   8    0.64    0.92
   7   5   8    0.36    1.01
   8   5   8   25.37    2.70
   8   5   8   25.83    2.25
   7  -6  -8    2.34    0.83
   7  -6  -8    0.47    0.75
   7  -6  -8   -0.02    0.84
   6  -6  -8    2.99    0.75
   6  -6  -8    3.24    0.77
   6  -6  -8    3.22    0.79
   5  -6  -8   68.35    3.64
   5  -6  -8   82.02    3.61
   5  -6  -8   79.95    3.55
   5  -6  -8   78.04    3.57
  -5   6   8   70.40    3.26
   4  -6  -8    4.66    0.91
   4  -6  -8    4.99    0.70
   4  -6  -8    3.85    0.62
   4  -6  -8    5.49    0.73
  -4   6   8    3.62    0.70
  -4   6   8    6.18    0.87
   3  -6  -8    1.76    0.52
   3  -6  -8   -0.14    0.94
   3  -6  -8    1.58    0.46
   3  -6  -8    1.44    0.47
   3  -6  -8    0.69    0.66
  -3   6   8    1.68    0.59
  -3   6   8    1.85    1.05
  -3   6   8    1.99    0.75
   2  -6  -8   41.57    2.44
   2  -6  -8   45.43    2.11
   2  -6  -8   42.21    2.05
   2  -6  -8   44.15    2.27
   2  -6  -8   41.27    2.06
  -2   6   8   38.58    2.12
  -2   6   8   40.06    2.35
  -2   6   8   38.70    2.46
  -2   6   8   41.93    2.12
   1  -6  -8    1.17    0.42
   1  -6  -8    0.79    0.34
   1  -6  -8    0.63    0.56
   1  -6  -8    0.26    0.62
   1  -6  -8    0.35    0.34
  -1   6   8    1.18    0.49
  -1   6   8    0.34    0.45
  -1   6   8   -0.38    0.55
  -1   6   8    0.84    0.65
   0  -6  -8   50.12    2.16
   0  -6  -8   48.45    2.26
   0  -6  -8   52.59    2.26
   0  -6  -8   46.46    2.50
   0  -6  -8   45.94    2.48
   0   6   8   43.82    2.31
   0   6   8   43.57    2.37
   0   6   8   48.58    2.57
   0   6   8   47.33    2.46
  -1  -6  -8   93.12    3.78
  -1  -6  -8   88.49    4.00
  -1  -6  -8   86.61    3.64
  -1  -6  -8   87.73    3.79
  -1  -6  -8   85.46    4.04
   1   6   8   84.86    3.85
   1   6   8   87.56    4.00
   1   6   8   84.92    4.08
   1   6   8   86.94    3.94
  -2  -6  -8  146.17    6.41
  -2  -6  -8  151.36    6.06
  -2  -6  -8  151.98    6.08
  -2  -6  -8  152.35    5.88
  -2  -6  -8  141.84    6.21
   2   6   8  134.68    6.13
   2   6   8  141.77    6.38
   2   6   8  147.19    6.20
   2   6   8  144.96    6.35
  -3  -6  -8  167.56    6.59
  -3  -6  -8  158.45    7.03
  -3  -6  -8  160.33    6.70
   3   6   8  158.80    6.93
   3   6   8  153.01    6.95
   3   6   8  157.71    6.70
   3   6   8  159.95    6.71
  -4  -6  -8    3.96    0.48
  -4  -6  -8    3.37    0.64
   4   6   8    3.56    0.62
   4   6   8    2.82    0.75
   4   6   8    3.70    0.69
   4   6   8    5.22    0.94
  -5  -6  -8   40.49    1.76
  -5  -6  -8   39.38    1.84
   5   6   8   41.74    2.33
   5   6   8   36.00    2.79
   5   6   8   38.14    2.16
   5   6   8   39.00    2.03
   6   6   8    1.32    0.81
   6   6   8    2.32    0.94
   6   6   8    0.39    0.58
   7   6   8    1.00    1.00
   7   6   8    1.72    1.17
   8   6   8   18.86    2.79
   6  -7  -8   28.88    2.01
   6  -7  -8   26.60    1.84
   6  -7  -8   21.93    1.84
   5  -7  -8   13.64    1.40
   5  -7  -8   14.55    1.41
   5  -7  -8   17.46    1.48
  -5   7   8   14.02    1.05
   4  -7  -8    4.94    0.98
   4  -7  -8    2.90    0.65
   4  -7  -8    3.89    0.78
   4  -7  -8    2.79    0.69
  -4   7   8    3.23    0.76
  -4   7   8    4.20    0.83
   3  -7  -8   21.88    1.41
   3  -7  -8   21.26    1.37
   3  -7  -8   19.11    1.58
   3  -7  -8   21.75    1.54
  -3   7   8   18.22    1.47
  -3   7   8   20.97    1.74
   2  -7  -8    2.53    0.56
   2  -7  -8    2.69    0.59
   2  -7  -8    3.91    0.79
   2  -7  -8    2.81    0.58
  -2   7   8    3.35    0.87
  -2   7   8    3.47    0.61
  -2   7   8    3.09    0.72
   1  -7  -8   44.45    2.63
   1  -7  -8   46.75    2.30
   1  -7  -8   51.44    2.28
   1  -7  -8   46.56    2.46
   1  -7  -8   48.08    2.30
  -1   7   8   48.40    2.66
  -1   7   8   43.57    2.67
  -1   7   8   47.59    2.35
  -1   7   8   43.19    2.35
   0  -7  -8  457.60   18.52
   0  -7  -8  455.04   18.76
   0  -7  -8  466.90   18.80
   0  -7  -8  495.04   18.64
   0  -7  -8  469.58   18.62
   0   7   8  462.19   18.72
   0   7   8  444.39   18.83
   0   7   8  443.89   18.66
   0   7   8  465.28   18.92
  -1  -7  -8  185.22    7.18
  -1  -7  -8  167.38    7.35
  -1  -7  -8  175.46    7.05
  -1  -7  -8  165.69    7.40
  -1  -7  -8  174.69    7.18
   1   7   8  178.90    7.53
   1   7   8  168.26    7.37
   1   7   8  175.67    7.37
   1   7   8  159.59    7.23
  -2  -7  -8   19.86    1.47
  -2  -7  -8   20.02    1.66
  -2  -7  -8   20.93    1.04
  -2  -7  -8   21.17    1.27
  -2  -7  -8   21.08    1.19
   2   7   8   19.93    1.43
   2   7   8   20.84    1.46
   2   7   8   18.66    1.51
   2   7   8   21.24    1.64
  -3  -7  -8   -0.18    0.60
  -3  -7  -8    0.68    0.32
  -3  -7  -8    0.99    0.17
  -3  -7  -8    0.58    0.43
   3   7   8    1.30    0.74
   3   7   8    1.10    0.66
   3   7   8    0.70    0.64
   3   7   8    1.09    0.59
  -4  -7  -8    1.44    0.62
  -4  -7  -8    0.65    0.40
   4   7   8    0.34    0.70
   4   7   8    1.36    0.78
   4   7   8    0.51    0.58
  -5  -7  -8    2.34    0.61
  -5  -7  -8    2.27    0.43
   5   7   8    1.39    0.81
   5   7   8    1.72    0.71
   5   7   8    1.26    0.88
   6   7   8   15.16    1.81
   6   7   8   20.58    2.11
   6   7   8   14.79    1.47
   7   7   8    4.40    1.23
   7   7   8    6.34    1.46
   8   7   8   16.78    2.32
   8   7   8   15.81    1.90
   6  -8  -8   86.63    4.33
   6  -8  -8   92.89    4.46
   6  -8  -8   91.92    4.37
   5  -8  -8   -0.32    0.69
   5  -8  -8    0.81    0.72
   5  -8  -8   -0.44    0.75
   4  -8  -8   68.30    3.29
   4  -8  -8   70.03    3.42
   4  -8  -8   69.08    3.39
  -4   8   8   67.01    3.38
   3  -8  -8    2.85    0.69
   3  -8  -8    2.20    0.81
   3  -8  -8    3.68    0.70
   3  -8  -8    2.56    0.65
  -3   8   8    3.03    0.97
  -3   8   8    3.07    0.84
   2  -8  -8    8.34    1.01
   2  -8  -8    9.66    1.03
   2  -8  -8    8.68    1.19
   2  -8  -8    7.63    1.11
  -2   8   8    9.11    1.16
  -2   8   8    7.47    0.92
  -2   8   8   10.04    1.13
   1  -8  -8    5.29    0.91
   1  -8  -8    6.92    0.86
   1  -8  -8    7.32    0.88
   1  -8  -8    6.21    0.84
  -1   8   8    6.68    0.93
  -1   8   8    6.48    0.95
  -1   8   8    7.96    1.10
   0  -8  -8    1.19    0.53
   0  -8  -8    2.75    0.52
   0  -8  -8    2.28    0.73
   0  -8  -8    2.09    0.44
   0   8   8    1.19    0.75
   0   8   8    2.38    0.63
   0   8   8    1.96    0.67
  -1  -8  -8   38.08    1.95
  -1  -8  -8   46.32    2.11
  -1  -8  -8   43.13    2.14
  -1  -8  -8   39.87    2.45
  -1  -8  -8   40.40    2.41
   1   8   8   40.72    2.31
   1   8   8   40.08    2.50
   1   8   8   41.17    2.53
  -2  -8  -8    6.97    0.74
  -2  -8  -8    6.99    0.64
  -2  -8  -8    7.51    0.88
  -2  -8  -8    7.83    1.07
   2   8   8    7.36    1.03
   2   8   8    7.51    1.01
   2   8   8    5.87    1.03
  -3  -8  -8    5.57    0.72
  -3  -8  -8    6.07    0.54
  -3  -8  -8    6.34    0.69
  -3  -8  -8    7.04    1.00
  -3  -8  -8    6.02    0.44
   3   8   8    6.37    1.02
   3   8   8    7.93    1.04
   3   8   8    6.86    1.14
  -4  -8  -8   17.96    1.23
  -4  -8  -8   17.16    1.48
   4   8   8   18.96    1.82
   4   8   8   17.74    1.84
   4   8   8   17.38    1.54
  -5  -8  -8   34.07    1.66
  -5  -8  -8   30.91    1.84
   5   8   8   29.94    2.47
   5   8   8   30.30    2.25
   5   8   8   31.24    2.04
  -6  -8  -8    1.87    0.39
   6   8   8   -0.41    0.98
   6   8   8    2.35    1.16
   7   8   8    0.71    1.27
   7   8   8    0.31    1.36
   5  -9  -8    2.62    0.90
   5  -9  -8    1.71    0.95
   5  -9  -8    2.30    0.93
   4  -9  -8   36.73    2.34
   4  -9  -8   38.14    2.25
   4  -9  -8   36.14    2.32
  -4   9   8   34.15    2.40
   3  -9  -8   20.40    1.64
   3  -9  -8   18.63    1.57
   3  -9  -8   19.31    1.56
  -3   9   8   20.00    1.96
  -3   9   8   16.16    1.76
   2  -9  -8   12.46    1.23
   2  -9  -8   10.64    1.41
   2  -9  -8   11.89    1.28
   2  -9  -8   13.42    1.25
  -2   9   8   12.67    1.08
  -2   9   8   13.74    1.80
   1  -9  -8    9.75    1.11
   1  -9  -8    9.76    1.11
   1  -9  -8    9.32    1.14
  -1   9   8   10.52    1.10
  -1   9   8   11.81    1.43
   0  -9  -8    2.51    0.68
   0  -9  -8    2.23    0.55
   0   9   8    2.10    0.70
  -1  -9  -8    7.28    0.89
  -1  -9  -8    6.79    0.87
   1   9   8    7.00    1.83
   1   9   8    7.40    1.05
  -2  -9  -8   31.93    1.68
  -2  -9  -8   36.37    1.82
   2   9   8   32.50    2.33
   2   9   8   32.65    2.11
  -3  -9  -8    0.57    0.52
  -3  -9  -8    0.22    0.38
  -3  -9  -8    0.69    0.32
   3   9   8    0.91    0.83
   3   9   8   -0.39    0.82
   3   9   8   -0.09    0.74
  -4  -9  -8    2.50    0.98
  -4  -9  -8    2.54    0.30
  -4  -9  -8    2.82    0.65
   4   9   8    2.88    1.01
   4   9   8    2.60    1.07
   4   9   8    2.44    1.05
  -5  -9  -8   18.23    1.30
   5   9   8   16.50    1.88
   5   9   8   13.33    1.76
   5   9   8   20.32    2.22
  -6  -9  -8    2.14    0.56
   6   9   8    3.17    1.39
   6   9   8    1.36    1.34
   7   9   8    8.68    1.83
   7   9   8    7.99    1.80
   5 -10  -8    2.49    1.06
   5 -10  -8    1.38    1.15
   4 -10  -8   28.93    2.22
   4 -10  -8   30.43    2.27
   4 -10  -8   25.56    2.16
  -4  10   8   34.67    2.93
   3 -10  -8    1.91    0.74
   3 -10  -8    0.80    0.81
   3 -10  -8    0.26    0.80
  -3  10   8   -0.30    1.28
   2 -10  -8   25.69    1.90
   2 -10  -8   27.73    1.93
   2 -10  -8   29.78    1.97
  -2  10   8   24.56    1.52
  -2  10   8   24.76    2.36
   1 -10  -8    5.78    0.89
   1 -10  -8    7.62    1.00
   1 -10  -8    4.63    0.83
  -1  10   8    6.44    1.33
  -1  10   8    6.29    0.84
   0 -10  -8   51.92    2.66
   0 -10  -8   52.48    2.76
   0 -10  -8   52.53    2.71
   0  10   8   50.05    2.72
   0  10   8   57.04    3.31
  -1 -10  -8    5.67    0.78
  -1 -10  -8    7.95    1.00
  -1 -10  -8    6.74    0.97
   1  10   8    6.20    1.03
   1  10   8    4.38    1.15
  -2 -10  -8    0.75    0.53
  -2 -10  -8    0.73    0.69
  -2 -10  -8    0.87    0.85
   2  10   8    1.23    0.81
   2  10   8    0.36    1.05
  -3 -10  -8   26.95    1.48
  -3 -10  -8   26.97    1.70
  -3 -10  -8   20.74    1.33
   3  10   8   22.80    2.27
   3  10   8   23.98    2.01
  -4 -10  -8    4.64    0.65
  -4 -10  -8    3.15    0.46
  -4 -10  -8    4.24    0.84
   4  10   8    4.33    1.32
   4  10   8    1.99    1.16
  -5 -10  -8    0.36    0.70
   5  10   8   -0.33    1.25
   5  10   8   -0.39    1.14
   6  10   8    0.19    1.37
   6  10   8    2.49    1.51
   4 -11  -8    7.29    1.38
   4 -11  -8    7.58    1.47
   4 -11  -8    7.25    1.42
   3 -11  -8   -0.23    0.83
   3 -11  -8    0.42    0.93
   3 -11  -8    0.11    0.83
  -3  11   8    1.51    1.57
   2 -11  -8   13.60    1.48
   2 -11  -8   12.17    1.65
   2 -11  -8    9.66    1.21
  -2  11   8   13.03    1.84
   1 -11  -8   12.97    1.43
   1 -11  -8   14.22    1.52
   1 -11  -8   13.64    1.60
  -1  11   8   14.89    1.36
  -1  11   8   11.16    1.75
   0 -11  -8   13.27    1.38
   0 -11  -8   12.54    1.37
   0 -11  -8   13.41    1.41
   0  11   8   13.79    1.88
   0  11   8   10.72    1.41
  -1 -11  -8    6.00    1.01
  -1 -11  -8    5.79    0.88
  -1 -11  -8    4.78    0.83
   1  11   8    3.23    1.31
   1  11   8    5.47    1.08
  -2 -11  -8    4.56    0.98
  -2 -11  -8    6.05    0.87
   2  11   8    3.45    1.19
   2  11   8    3.94    1.34
  -3 -11  -8    0.82    0.55
  -3 -11  -8    0.32    0.82
   3  11   8    1.32    1.05
   3  11   8   -0.11    1.28
  -4 -11  -8    9.26    1.20
  -4 -11  -8    9.94    1.10
   4  11   8   11.02    1.76
   4  11   8   11.54    1.64
  -5 -11  -8    0.57    1.00
   5  11   8    2.85    1.50
   5  11   8    1.32    1.41
   2 -12  -8   15.97    1.99
   2 -12  -8   18.31    2.09
   2 -12  -8   15.21    1.85
  -2  12   8   14.62    2.25
   1 -12  -8   14.20    1.51
   1 -12  -8   11.47    1.40
   1 -12  -8    8.40    1.31
  -1  12   8    8.70    1.96
   0 -12  -8    0.19    0.74
   0 -12  -8    0.28    0.88
   0  12   8    2.67    0.96
   0  12   8    1.20    1.44
  -1 -12  -8    0.46    0.72
  -1 -12  -8    0.91    0.90
   1  12   8    1.39    1.43
   1  12   8    1.89    1.17
  -2 -12  -8    0.10    0.68
  -2 -12  -8   -0.02    0.92
   2  12   8   -1.80    1.41
   2  12   8   -1.11    1.15
  -3 -12  -8   17.60    1.90
  -3 -12  -8   20.52    1.62
   3  12   8   19.00    2.18
   3  12   8   19.41    2.56
  -4 -12  -8    8.78    1.26
  -4 -12  -8    8.01    1.00
   4  12   8   13.35    2.09
   4  12   8    6.87    1.67
   0 -13  -8    0.02    0.91
   0 -13  -8    1.35    1.18
   0  13   8    2.52    1.91
  -1 -13  -8    1.45    0.92
  -1 -13  -8    0.34    1.19
   1  13   8    2.16    1.85
  -2 -13  -8    3.51    1.03
   2  13   8    1.24    1.53
   2  13   8    4.39    2.04
   2   8  -9    0.20    1.48
  -2  -8   9    2.23    1.65
   1   8  -9    0.41    1.24
  -1  -8   9    1.25    1.64
  -1  -8   9    2.22    1.47
   0   8  -9    0.44    1.31
   0  -8   9   -0.32    1.27
   0  -8   9    2.37    1.68
  -1   8  -9   18.19    1.97
   1  -8   9   14.42    2.26
   1  -8   9   15.21    1.86
  -2   8  -9    2.14    1.63
   2  -8   9    0.81    1.88
   3   7  -9   35.28    2.65
  -3  -7   9   30.89    2.80
  -3  -7   9   33.29    3.53
   2   7  -9    0.87    1.06
  -2  -7   9    2.82    1.25
  -2  -7   9    1.98    1.46
   1   7  -9    3.71    1.12
  -1  -7   9    2.49    1.36
  -1  -7   9    3.35    1.21
   0   7  -9    6.52    1.24
   0  -7   9    2.87    1.23
   0  -7   9    2.88    1.34
  -1   7  -9    2.01    1.12
   1  -7   9    0.26    1.11
   1  -7   9   -0.08    1.36
  -2   7  -9    5.38    1.25
   2  -7   9    2.59    1.57
   2  -7   9    2.44    1.26
   3  -7   9    3.47    1.38
   3  -7   9    4.34    1.83
   4  -7   9    0.94    1.92
   5   6  -9    1.75    0.68
   4   6  -9   -0.32    1.12
   4   6  -9    0.53    0.53
  -4  -6   9    0.74    1.15
   3   6  -9   20.09    2.04
  -3  -6   9   12.98    2.03
  -3  -6   9   19.64    2.24
   2   6  -9    8.49    1.30
  -2  -6   9    4.90    1.25
  -2  -6   9    5.77    1.29
   1   6  -9   17.95    1.77
  -1  -6   9   18.41    1.99
   0   6  -9    3.45    0.92
   0  -6   9    3.44    1.07
  -1   6  -9    1.06    0.81
   1  -6   9    1.56    1.02
  -2   6  -9   15.49    1.64
   2  -6   9   15.65    2.03
   2  -6   9   11.56    1.87
  -3   6  -9    3.71    0.87
   3  -6   9    1.96    1.17
   3  -6   9    2.87    1.45
   4  -6   9    1.50    1.20
   4  -6   9   -0.01    1.41
   5  -6   9    0.83    1.43
   5  -6   9    2.45    1.89
   5   5  -9    0.98    1.13
   5   5  -9    0.26    0.58
  -5  -5   9    1.03    1.30
   4   5  -9    3.22    0.56
   4   5  -9    2.07    1.08
  -4  -5   9    3.70    1.18
  -4  -5   9    3.07    0.95
   3   5  -9   15.43    1.16
   3   5  -9   14.05    1.76
  -3  -5   9   14.81    1.94
   2   5  -9   53.74    2.58
   2   5  -9   54.98    3.02
  -2  -5   9   55.81    3.17
   1   5  -9    6.32    1.02
  -1  -5   9    7.95    1.17
   0   5  -9   10.82    1.29
   0  -5   9   11.39    1.34
  -1   5  -9   14.64    1.40
  -1   5  -9   16.28    1.84
   1  -5   9   15.75    1.71
  -2   5  -9   31.15    2.54
  -2   5  -9   31.58    1.88
  -2   5  -9   29.28    2.24
   2  -5   9   29.49    2.29
  -3   5  -9   60.97    4.01
  -3   5  -9   50.76    2.54
   3  -5   9   49.13    3.03
   4  -5   9   24.31    2.83
   4  -5   9   28.98    2.27
   5  -5   9    0.21    1.11
   5  -5   9    0.11    1.47
   6  -5   9    0.33    1.27
   6  -5   9   -1.60    1.79
   6   4  -9    1.29    0.65
   6   4  -9   -0.51    1.13
  -6  -4   9    0.48    1.23
   5   4  -9   -0.85    0.91
   5   4  -9    0.15    0.53
  -5  -4   9    0.23    1.01
   4   4  -9    4.15    1.00
  -4  -4   9    5.77    1.13
   3   4  -9   36.65    1.82
   3   4  -9   36.24    2.21
  -3  -4   9   31.92    2.37
  -3  -4   9   34.62    1.75
   2   4  -9   12.95    1.44
   2   4  -9   14.19    0.98
  -2  -4   9   11.88    1.56
   1   4  -9    1.53    0.38
   1   4  -9    2.17    0.89
  -1  -4   9    2.10    0.78
   0   4  -9    6.35    1.18
   0   4  -9    8.11    0.99
  -1   4  -9    8.65    1.17
  -1   4  -9    9.83    1.06
  -1   4  -9    7.38    1.34
   1  -4   9    8.48    1.24
  -2   4  -9    1.59    0.60
  -2   4  -9    0.27    1.00
  -2   4  -9    1.62    0.89
  -3   4  -9    3.90    0.97
  -3   4  -9    2.81    0.58
  -3   4  -9    2.03    1.03
   3  -4   9    2.04    0.68
  -4   4  -9    1.65    1.11
   4  -4   9    1.24    0.68
   5  -4   9    0.43    0.70
   5  -4   9   -1.11    0.94
   6  -4   9    2.10    1.58
   6   3  -9   18.41    2.01
   6   3  -9   19.09    1.30
   5   3  -9    0.32    0.82
   5   3  -9   -0.55    0.41
  -5  -3   9   -0.66    0.85
   4   3  -9    0.11    0.68
   4   3  -9    0.92    0.39
  -4  -3   9   -0.06    0.74
  -4  -3   9    0.24    0.47
   3   3  -9    0.13    0.34
   3   3  -9   -0.24    0.59
  -3  -3   9   -0.26    0.37
  -3  -3   9    0.01    0.81
   2   3  -9    5.34    0.90
  -2  -3   9    5.45    0.71
  -2  -3   9    6.32    1.05
   1   3  -9   27.95    2.15
   1   3  -9   30.22    1.51
   1   3  -9   30.46    1.82
  -1  -3   9   29.44    2.03
   0   3  -9   52.41    2.95
   0   3  -9   55.45    2.48
   0   3  -9   62.88    2.76
   0   3  -9   55.28    3.15
   0  -3   9   58.86    2.96
   0  -3   9   47.49    2.41
  -1   3  -9   19.28    1.33
  -1   3  -9   15.78    1.85
  -1   3  -9   16.90    1.63
   1  -3   9   17.86    1.01
   1  -3   9   19.06    1.56
  -2   3  -9    1.21    0.91
  -2   3  -9    1.24    0.50
  -2   3  -9    1.06    0.76
   2  -3   9    0.14    0.32
   2  -3   9    0.28    0.52
   2  -3   9    1.41    0.73
  -3   3  -9    4.04    0.98
  -3   3  -9    2.92    0.51
   3  -3   9    3.59    0.71
   3  -3   9    4.14    0.87
   3  -3   9    4.70    0.92
   3  -3   9    3.36    0.44
  -4   3  -9    0.55    1.04
   4  -3   9    0.70    0.56
   4  -3   9    0.07    0.36
   4  -3   9    1.52    0.80
  -5   3  -9   18.67    2.02
   5  -3   9   17.65    1.55
   5  -3   9   21.61    1.80
   6  -3   9   -1.21    0.89
   6  -3   9    0.28    0.78
   7  -3   9   14.56    2.18
   7   2  -9   22.48    1.46
   7   2  -9   20.78    2.31
   6   2  -9   13.37    1.05
   6   2  -9   14.97    1.69
  -6  -2   9    8.51    1.19
   5   2  -9   26.35    1.90
   5   2  -9   25.62    1.40
  -5  -2   9   21.98    1.88
  -5  -2   9   25.65    1.77
   4   2  -9    2.81    0.46
   4   2  -9    2.13    0.68
  -4  -2   9    2.86    0.58
  -4  -2   9    3.55    0.84
   3   2  -9    4.88    1.24
  -3  -2   9    4.51    0.67
  -3  -2   9    6.13    1.00
   2   2  -9    5.38    0.58
   2   2  -9    5.12    0.79
  -2  -2   9    4.42    0.90
  -2  -2   9    4.51    0.67
  -2  -2   9    4.81    0.66
   1   2  -9  286.58   11.96
   1   2  -9  297.28   11.53
   1   2  -9  295.12   11.77
   1   2  -9  272.92   12.06
  -1  -2   9  289.65   11.53
  -1  -2   9  273.69   11.65
  -1  -2   9  287.28   11.96
   0   2  -9    0.76    0.31
   0   2  -9    0.92    0.92
   0   2  -9    0.90    0.50
   0   2  -9    2.65    0.83
   0  -2   9    0.82    0.31
   0  -2   9    1.15    0.63
   0  -2   9    1.27    0.52
  -1   2  -9    8.91    1.08
  -1   2  -9    8.73    1.19
  -1   2  -9   10.33    0.97
   1  -2   9   12.44    1.28
   1  -2   9   10.01    0.96
   1  -2   9    9.43    1.07
   1  -2   9   12.06    0.72
  -2   2  -9    0.96    0.46
  -2   2  -9    0.66    0.81
  -2   2  -9    1.56    0.77
   2  -2   9    1.00    0.62
   2  -2   9    0.92    0.49
   2  -2   9    0.55    0.52
   2  -2   9    0.95    0.30
  -3   2  -9   30.59    2.10
  -3   2  -9   33.30    1.60
  -3   2  -9   32.39    1.85
   3  -2   9   34.63    2.07
   3  -2   9   31.59    1.52
   3  -2   9   34.84    1.76
   3  -2   9   32.28    1.91
  -4   2  -9    0.62    0.98
   4  -2   9    0.51    0.55
   4  -2   9    0.02    0.28
   4  -2   9   -0.96    0.62
   4  -2   9    0.14    0.53
  -5   2  -9   14.77    1.60
   5  -2   9   13.02    1.37
   5  -2   9   14.96    1.25
   5  -2   9   14.92    0.92
   5  -2   9   14.96    1.50
   6  -2   9    2.01    0.88
   6  -2   9   -0.07    0.79
   7  -2   9    1.23    0.97
   7  -2   9   -1.58    1.41
   7   1  -9    4.31    1.18
   7   1  -9    4.74    0.69
   6   1  -9   12.90    1.01
   6   1  -9    9.34    1.21
  -6  -1   9   12.13    1.36
   5   1  -9    0.55    0.39
   5   1  -9   -0.70    0.64
  -5  -1   9    0.98    0.63
  -5  -1   9    0.97    0.64
  -5  -1   9    0.48    0.68
   4   1  -9    0.52    0.34
  -4  -1   9    0.77    0.65
  -4  -1   9    0.97    0.50
  -4  -1   9   -0.51    0.56
   3   1  -9    8.90    1.05
   3   1  -9    9.03    0.69
  -3  -1   9    9.31    0.84
  -3  -1   9    9.54    0.94
  -3  -1   9    9.92    1.19
   2   1  -9   38.43    2.54
   2   1  -9   38.45    1.73
   2   1  -9   37.61    1.99
  -2  -1   9   37.76    1.81
  -2  -1   9   37.67    2.20
  -2  -1   9   35.74    1.89
  -2  -1   9   35.21    1.76
   1   1  -9   27.26    1.30
   1   1  -9   28.05    2.04
   1   1  -9   27.52    1.85
   1   1  -9   25.51    1.56
  -1  -1   9   25.75    1.80
  -1  -1   9   26.99    1.34
  -1  -1   9   27.56    1.39
  -1  -1   9   26.07    1.47
   0   1  -9    8.90    1.19
   0   1  -9    8.05    0.84
   0   1  -9    6.47    1.08
   0   1  -9    8.86    0.60
   0  -1   9    6.23    0.77
   0  -1   9    7.96    0.61
   0  -1   9    8.51    0.96
   0  -1   9   11.50    1.22
  -1   1  -9   18.26    1.19
  -1   1  -9   18.23    0.99
  -1   1  -9   19.58    1.62
  -1   1  -9   18.50    1.50
   1  -1   9   21.70    0.99
   1  -1   9   17.99    1.45
   1  -1   9   18.02    1.15
   1  -1   9   17.97    1.35
  -2   1  -9   41.07    1.98
  -2   1  -9   40.67    2.30
  -2   1  -9   40.50    2.27
   2  -1   9   40.12    1.99
   2  -1   9   42.68    2.24
   2  -1   9   42.23    1.81
   2  -1   9   39.92    2.26
  -3   1  -9  182.76    7.44
  -3   1  -9  181.85    7.56
  -3   1  -9  179.95    7.85
   3  -1   9  184.47    7.77
   3  -1   9  182.76    7.53
   3  -1   9  182.45    7.81
   3  -1   9  185.34    7.37
  -4   1  -9    1.42    0.92
   4  -1   9    0.29    0.53
   4  -1   9   -0.01    0.55
   4  -1   9    0.08    0.24
   4  -1   9   -0.34    0.42
  -5   1  -9   15.23    1.92
   5  -1   9   18.92    1.54
   5  -1   9   20.23    1.00
   5  -1   9   17.61    1.25
   5  -1   9   20.01    1.57
   6  -1   9   16.31    1.32
   6  -1   9   16.62    1.56
   6  -1   9   16.94    1.64
   6  -1   9   15.91    0.93
   7  -1   9    4.23    0.99
   7  -1   9    2.98    1.29
   7  -1   9    3.38    0.66
   8  -1   9    7.18    1.54
   8  -1   9    8.55    1.90
   7   0  -9    2.25    1.02
   7   0  -9    3.28    0.60
   6   0  -9    5.88    0.68
   6   0  -9    5.43    0.95
  -6   0   9    3.98    0.76
   5   0  -9    0.09    0.57
   5   0  -9   -0.28    0.34
  -5   0   9    1.05    0.72
  -5   0   9    1.02    0.58
  -5   0   9    0.28    0.67
   4   0  -9    0.44    0.50
   4   0  -9    0.31    0.43
  -4   0   9    0.16    0.54
  -4   0   9    0.78    0.66
  -4   0   9    0.54    0.50
   3   0  -9   13.59    1.10
   3   0  -9   13.86    0.86
   3   0  -9   16.07    1.85
   3   0  -9   15.79    1.91
  -3   0   9   18.39    1.54
  -3   0   9   12.57    1.04
  -3   0   9   14.72    1.36
  -3   0   9   14.20    1.03
   2   0  -9   13.34    1.06
   2   0  -9   15.36    0.82
   2   0  -9   13.56    1.41
   2   0  -9   12.89    1.65
  -2   0   9   12.83    1.29
  -2   0   9   12.50    0.97
  -2   0   9   13.43    0.90
  -2   0   9   14.58    0.94
   1   0  -9   19.43    1.55
   1   0  -9   20.28    1.02
   1   0  -9   20.33    1.71
   1   0  -9   20.81    1.26
  -1   0   9   21.11    1.12
  -1   0   9   20.74    1.41
  -1   0   9   18.43    1.18
  -1   0   9   19.10    1.49
  -1   0   9   20.57    1.08
   0   0  -9  311.81   12.35
   0   0  -9  315.73   12.54
   0   0  -9  299.24   12.73
   0   0  -9  309.29   12.81
   0   0   9  315.18   12.73
   0   0   9  310.80   12.37
   0   0   9  299.06   12.48
   0   0   9  303.07   12.77
   0   0   9  316.57   12.47
  -1   0  -9    4.81    0.92
  -1   0  -9    4.74    0.59
  -1   0  -9    3.49    0.74
  -1   0  -9    4.05    0.43
   1   0   9    3.29    0.64
   1   0   9    4.32    0.43
   1   0   9    3.65    0.70
   1   0   9    5.44    0.60
  -2   0  -9   28.20    1.77
  -2   0  -9   25.29    1.65
  -2   0  -9   25.55    1.36
   2   0   9   23.78    1.35
   2   0   9   24.46    1.61
   2   0   9   26.79    1.19
   2   0   9   26.30    1.68
  -3   0  -9   44.45    2.50
  -3   0  -9   46.44    2.05
  -3   0  -9   46.59    2.20
   3   0   9   41.85    2.38
   3   0   9   47.18    2.40
   3   0   9   45.55    1.93
   3   0   9   44.09    2.11
  -4   0  -9   15.16    1.59
   4   0   9   14.86    0.99
   4   0   9   14.06    0.75
   4   0   9   13.13    1.28
   4   0   9   12.03    1.25
  -5   0  -9   57.08    3.31
   5   0   9   59.20    2.48
   5   0   9   59.82    3.04
   5   0   9   57.87    2.96
   5   0   9   61.12    2.70
   6   0   9    1.96    0.79
   6   0   9    0.60    0.79
   6   0   9    1.14    0.29
   6   0   9    2.10    0.59
   7   0   9   -0.07    0.39
   7   0   9    1.43    0.85
   7   0   9    0.53    0.97
   8   0   9   16.80    2.21
   7  -1  -9    4.27    0.67
   7  -1  -9    2.70    1.00
   6  -1  -9   39.93    1.91
   6  -1  -9   38.55    2.18
  -6   1   9   34.69    1.87
   5  -1  -9    4.29    0.56
  -5   1   9    4.09    0.78
  -5   1   9    4.38    0.88
  -5   1   9    3.24    0.69
   4  -1  -9   37.87    1.93
   4  -1  -9   36.26    1.77
  -4   1   9   35.26    1.87
  -4   1   9   35.29    1.98
   3  -1  -9   14.47    1.07
   3  -1  -9   15.17    0.86
   3  -1  -9   14.28    1.52
   3  -1  -9   14.04    1.77
  -3   1   9   11.64    1.28
  -3   1   9   13.84    1.06
  -3   1   9   13.66    1.05
  -3   1   9   12.76    1.14
   2  -1  -9    1.76    0.72
   2  -1  -9    1.33    0.81
   2  -1  -9    1.25    0.43
   2  -1  -9    0.80    0.27
  -2   1   9    0.69    0.42
  -2   1   9    0.43    0.31
  -2   1   9    1.02    0.65
  -2   1   9    0.83    0.36
   1  -1  -9    0.70    0.62
   1  -1  -9    0.15    0.19
   1  -1  -9   -0.87    0.67
   1  -1  -9    0.34    0.31
  -1   1   9    0.21    0.54
  -1   1   9    0.37    0.28
  -1   1   9    0.20    0.46
  -1   1   9   -0.25    0.32
  -1   1   9    0.23    0.30
   0  -1  -9    2.60    0.48
   0  -1  -9    1.81    0.26
   0  -1  -9    2.32    0.66
   0  -1  -9    1.22    0.65
   0   1   9    1.37    0.55
   0   1   9    1.57    0.36
   0   1   9    2.25    0.42
   0   1   9    1.96    0.52
   0   1   9    1.70    0.30
  -1  -1  -9    9.31    0.78
  -1  -1  -9    9.14    1.08
  -1  -1  -9    9.11    0.55
  -1  -1  -9    8.42    1.13
   1   1   9    9.28    0.59
   1   1   9   10.17    1.00
   1   1   9    8.66    0.71
   1   1   9    8.31    1.03
   1   1   9    9.81    0.76
  -2  -1  -9    0.59    0.18
  -2  -1  -9    1.07    0.56
  -2  -1  -9    0.69    0.32
  -2  -1  -9    1.30    0.63
   2   1   9    0.79    0.38
   2   1   9    0.26    0.41
   2   1   9    1.47    0.57
  -3  -1  -9   42.91    1.93
  -3  -1  -9   42.92    2.43
  -3  -1  -9   41.57    2.07
   3   1   9   42.85    1.79
   3   1   9   42.03    2.28
   3   1   9   40.82    2.29
   3   1   9   42.19    1.99
  -4  -1  -9    0.29    0.80
   4   1   9    0.03    0.40
   4   1   9   -0.74    0.51
   4   1   9    0.06    0.17
   4   1   9    0.59    0.55
  -5  -1  -9    6.87    1.23
   5   1   9    7.34    0.79
   5   1   9    6.12    0.92
   5   1   9    7.12    1.05
   5   1   9    6.26    0.42
   6   1   9    0.90    0.74
   6   1   9   -0.19    0.49
   6   1   9    0.26    0.28
   6   1   9    0.54    0.68
   6   1   9    0.64    0.21
   7   1   9    1.21    0.80
   7   1   9   -0.93    0.98
   8   1   9   13.01    1.79
   7  -2  -9   -0.24    0.47
   7  -2  -9    0.46    0.85
   6  -2  -9   -0.31    0.66
   6  -2  -9   -0.08    0.37
  -6   2   9    0.52    0.44
   5  -2  -9    2.00    0.43
   5  -2  -9    3.39    0.62
  -5   2   9    2.98    0.63
  -5   2   9    3.41    0.72
  -5   2   9    3.06    0.87
   4  -2  -9   28.56    1.57
   4  -2  -9   29.58    1.42
   4  -2  -9   35.27    2.73
  -4   2   9   24.28    1.73
  -4   2   9   25.57    1.54
  -4   2   9   26.10    1.75
   3  -2  -9    3.26    0.84
   3  -2  -9    3.08    0.93
   3  -2  -9    1.73    0.33
   3  -2  -9    1.76    0.49
  -3   2   9    1.98    0.70
  -3   2   9    1.69    0.55
  -3   2   9    3.01    0.70
  -3   2   9    2.53    0.54
   2  -2  -9   17.17    1.64
   2  -2  -9   17.97    1.12
   2  -2  -9   17.59    1.44
   2  -2  -9   17.99    0.94
  -2   2   9   17.98    1.14
  -2   2   9   18.04    1.35
  -2   2   9   17.03    1.16
  -2   2   9   16.48    1.10
  -2   2   9   17.09    1.40
   1  -2  -9    0.56    0.22
   1  -2  -9   -0.56    0.48
   1  -2  -9    0.66    0.70
   1  -2  -9    0.11    0.33
  -1   2   9    0.43    0.30
  -1   2   9    0.38    0.39
  -1   2   9    0.15    0.44
  -1   2   9    0.19    0.57
  -1   2   9    0.49    0.35
   0  -2  -9   12.35    1.21
   0  -2  -9   13.28    1.28
   0  -2  -9   12.62    0.67
   0  -2  -9   13.72    0.87
   0   2   9   13.14    0.84
   0   2   9   12.43    0.78
   0   2   9   12.37    1.09
   0   2   9   10.37    1.16
   0   2   9   11.61    0.86
  -1  -2  -9   17.57    1.38
  -1  -2  -9   18.82    0.86
  -1  -2  -9   18.31    1.39
  -1  -2  -9   17.82    1.06
   1   2   9   18.21    1.30
   1   2   9   18.00    1.00
   1   2   9   18.20    1.04
   1   2   9   18.13    1.38
   1   2   9   19.20    1.08
  -2  -2  -9   67.10    3.13
  -2  -2  -9   67.42    2.76
  -2  -2  -9   68.24    2.92
  -2  -2  -9   62.50    3.25
   2   2   9   69.65    2.95
   2   2   9   66.01    3.22
   2   2   9   68.51    2.78
   2   2   9   65.39    3.22
   2   2   9   66.76    2.93
  -3  -2  -9   13.45    0.83
  -3  -2  -9   12.44    1.35
  -3  -2  -9   12.77    1.04
   3   2   9   14.04    1.18
   3   2   9   12.82    1.22
   3   2   9   13.04    0.66
   3   2   9   12.97    0.91
   3   2   9   13.61    0.89
  -4  -2  -9  151.57    6.27
  -4  -2  -9  150.25    6.87
  -4  -2  -9  165.90    6.32
   4   2   9  154.45    6.21
   4   2   9  156.03    6.81
   4   2   9  155.72    6.71
   4   2   9  155.43    6.46
   4   2   9  155.81    6.43
  -5  -2  -9   24.99    2.95
   5   2   9   25.30    1.41
   5   2   9   26.43    1.83
   5   2   9   25.62    1.71
   6   2   9   32.57    1.99
   6   2   9   30.62    1.67
   7   2   9    1.10    0.88
   7   2   9    0.69    0.99
   8   2   9   43.11    3.13
   7  -3  -9   -0.17    0.84
   7  -3  -9    1.63    0.54
   7  -3  -9    0.30    0.46
   6  -3  -9    0.60    0.42
   6  -3  -9    1.49    0.65
   6  -3  -9    0.31    0.41
   5  -3  -9   41.73    2.11
   5  -3  -9   43.19    2.01
   5  -3  -9   42.65    1.98
  -5   3   9   39.48    2.13
  -5   3   9   38.07    2.01
  -5   3   9   36.36    2.53
   4  -3  -9    0.86    0.34
   4  -3  -9    0.63    0.43
   4  -3  -9    0.82    0.37
   4  -3  -9    0.84    0.92
  -4   3   9    1.34    0.58
  -4   3   9    0.80    0.64
  -4   3   9    0.26    0.73
   3  -3  -9    6.58    1.21
   3  -3  -9    4.88    0.62
   3  -3  -9    6.67    0.61
   3  -3  -9    5.29    0.60
   3  -3  -9    8.86    1.10
  -3   3   9    5.63    0.82
  -3   3   9    5.34    0.86
  -3   3   9    5.34    0.67
  -3   3   9    5.10    0.77
   2  -3  -9  324.57   13.27
   2  -3  -9  325.64   12.99
   2  -3  -9  328.00   13.37
   2  -3  -9  325.74   13.03
   2  -3  -9  332.13   12.92
  -2   3   9  318.88   13.21
  -2   3   9  310.37   13.05
  -2   3   9  316.19   13.11
  -2   3   9  327.03   13.31
  -2   3   9  311.35   13.01
   1  -3  -9   59.69    2.71
   1  -3  -9   60.14    3.06
   1  -3  -9   62.24    2.57
   1  -3  -9   61.01    2.98
  -1   3   9   57.95    2.71
  -1   3   9   60.10    2.91
  -1   3   9   62.02    2.77
  -1   3   9   60.05    3.03
  -1   3   9   58.95    2.71
   0  -3  -9   47.42    2.50
   0  -3  -9   49.92    2.20
   0  -3  -9   46.98    2.44
   0  -3  -9   47.89    2.02
   0   3   9   45.04    2.49
   0   3   9   47.90    2.21
   0   3   9   45.96    2.14
   0   3   9   48.03    2.41
   0   3   9   45.79    2.20
  -1  -3  -9   69.79    3.31
  -1  -3  -9   67.56    3.35
  -1  -3  -9   73.27    3.06
  -1  -3  -9   72.61    2.86
   1   3   9   65.34    3.05
   1   3   9   70.05    2.96
   1   3   9   67.30    3.34
   1   3   9   71.05    3.30
  -2  -3  -9   22.35    1.55
  -2  -3  -9   19.71    1.09
  -2  -3  -9   18.86    1.39
  -2  -3  -9   20.57    0.90
   2   3   9   19.74    0.98
   2   3   9   19.67    1.15
   2   3   9   20.69    1.13
   2   3   9   20.51    1.42
   2   3   9   19.22    1.43
  -3  -3  -9    8.41    0.63
  -3  -3  -9    7.28    0.86
  -3  -3  -9    4.27    0.77
   3   3   9    7.73    0.98
   3   3   9    7.77    0.69
   3   3   9    5.52    0.70
   3   3   9    6.21    0.88
   3   3   9    6.91    0.43
  -4  -3  -9    1.65    0.86
  -4  -3  -9    2.09    0.41
  -4  -3  -9    2.51    0.35
   4   3   9    2.03    0.42
   4   3   9    1.70    0.48
   4   3   9    1.49    0.62
   4   3   9    1.66    0.63
   5   3   9   52.58    2.52
   5   3   9   57.04    2.54
   5   3   9   54.57    2.79
   5   3   9   55.19    2.99
   6   3   9    2.56    0.75
   6   3   9    1.43    0.59
   6   3   9    1.30    0.82
   6   3   9    1.88    0.52
   7   3   9    6.95    1.12
   7   3   9    7.66    1.45
   8   3   9    4.88    1.45
   7  -4  -9    6.43    0.91
   7  -4  -9    7.84    1.07
   7  -4  -9    7.43    1.07
   6  -4  -9    1.01    0.55
   6  -4  -9    0.60    0.54
   6  -4  -9   -0.21    0.61
   5  -4  -9    0.28    0.42
   5  -4  -9    0.31    0.51
   5  -4  -9    0.99    0.45
  -5   4   9    0.64    0.58
   4  -4  -9   31.75    2.10
   4  -4  -9   30.73    1.67
   4  -4  -9   29.02    2.07
   4  -4  -9   33.06    1.62
  -4   4   9   30.18    1.71
  -4   4   9   27.43    1.84
  -4   4   9   26.27    2.08
   3  -4  -9   12.82    1.68
   3  -4  -9   14.47    1.04
   3  -4  -9   14.63    0.97
   3  -4  -9   16.02    0.99
   3  -4  -9   15.03    1.41
  -3   4   9   13.30    1.37
  -3   4   9   15.60    1.40
  -3   4   9   16.62    1.17
   2  -4  -9    1.22    0.77
   2  -4  -9    1.17    0.32
   2  -4  -9    1.01    0.34
   2  -4  -9    0.45    0.71
   2  -4  -9    0.99    0.43
  -2   4   9    0.91    0.53
  -2   4   9    1.06    0.55
  -2   4   9    1.03    0.53
  -2   4   9    0.44    0.48
  -2   4   9    1.47    0.67
   1  -4  -9   44.50    2.46
   1  -4  -9   46.10    2.36
   1  -4  -9   44.80    2.05
   1  -4  -9   45.27    1.96
   1  -4  -9   45.72    2.09
  -1   4   9   40.93    2.12
  -1   4   9   41.45    2.18
  -1   4   9   41.85    2.11
  -1   4   9   44.44    2.29
  -1   4   9   43.28    2.44
   0  -4  -9   31.47    1.34
   0  -4  -9   28.43    1.46
   0  -4  -9   29.00    1.49
   0  -4  -9   28.20    1.80
   0  -4  -9   27.53    1.84
   0   4   9   29.49    1.82
   0   4   9   27.66    1.53
   0   4   9   29.68    1.73
   0   4   9   29.68    1.58
   0   4   9   29.18    1.49
  -1  -4  -9   48.86    2.54
  -1  -4  -9   46.67    2.56
  -1  -4  -9   51.90    2.06
  -1  -4  -9   50.50    2.25
   1   4   9   50.45    2.61
   1   4   9   48.92    2.51
   1   4   9   50.18    2.31
   1   4   9   44.36    2.16
   1   4   9   48.58    2.30
  -2  -4  -9   24.24    1.24
  -2  -4  -9   23.23    0.99
  -2  -4  -9   24.14    1.51
   2   4   9   22.51    1.55
   2   4   9   20.45    1.26
   2   4   9   22.48    1.26
   2   4   9   22.69    1.59
  -3  -4  -9    0.49    0.59
  -3  -4  -9    0.01    0.48
  -3  -4  -9    0.24    0.29
   3   4   9    0.25    0.33
   3   4   9    0.46    0.38
   3   4   9    0.34    0.51
   3   4   9    0.12    0.53
  -4  -4  -9   12.39    0.92
  -4  -4  -9   13.11    1.57
  -4  -4  -9   12.60    0.76
   4   4   9   11.14    1.20
   4   4   9   11.08    1.30
   4   4   9   13.17    0.91
   4   4   9   10.99    0.96
   5   4   9    0.93    0.75
   5   4   9    1.74    0.54
   5   4   9    0.28    0.40
   5   4   9    0.47    0.61
   6   4   9   -0.37    0.79
   6   4   9    1.05    0.52
   6   4   9    1.39    0.68
   6   4   9    0.89    0.70
   7   4   9    2.46    0.97
   7   4   9    4.16    1.24
   8   4   9    0.94    1.31
   8   4   9    0.94    1.02
   7  -5  -9    4.46    0.87
   7  -5  -9    3.79    1.04
   7  -5  -9    6.78    0.93
   6  -5  -9   -0.14    0.54
   6  -5  -9    0.77    0.59
   6  -5  -9    0.44    0.70
   5  -5  -9    6.16    0.91
   5  -5  -9    8.31    0.86
   5  -5  -9    6.01    1.27
  -5   5   9    7.29    0.84
   4  -5  -9    8.42    0.86
   4  -5  -9    8.23    1.16
   4  -5  -9    7.30    0.90
   4  -5  -9    8.05    0.86
  -4   5   9    7.11    0.88
  -4   5   9    7.19    0.99
   3  -5  -9  191.98    8.12
   3  -5  -9  196.78    7.92
   3  -5  -9  197.78    7.88
   3  -5  -9  207.66    7.94
  -3   5   9  191.31    8.15
  -3   5   9  168.34    8.17
  -3   5   9  180.37    7.90
   2  -5  -9   15.68    1.04
   2  -5  -9   14.81    0.93
   2  -5  -9   12.24    1.57
   2  -5  -9   14.16    1.36
   2  -5  -9   14.89    0.99
  -2   5   9   13.22    1.42
  -2   5   9   11.53    1.33
  -2   5   9   15.12    1.21
  -2   5   9   13.14    1.11
   1  -5  -9  243.41    9.41
   1  -5  -9  231.24    9.40
   1  -5  -9  234.78    9.62
   1  -5  -9  221.67    9.68
   1  -5  -9  238.86    9.31
  -1   5   9  223.12    9.56
  -1   5   9  217.90    9.43
  -1   5   9  227.04    9.56
  -1   5   9  228.14    9.73
   0  -5  -9    1.92    0.68
   0  -5  -9    2.08    0.38
   0  -5  -9    2.56    0.34
   0  -5  -9    2.69    0.45
   0  -5  -9    2.12    0.68
   0   5   9    3.11    0.56
   0   5   9    4.21    0.71
   0   5   9    2.92    0.60
   0   5   9    2.68    0.74
  -1  -5  -9   37.87    2.18
  -1  -5  -9   36.25    1.80
  -1  -5  -9   38.61    1.83
  -1  -5  -9   37.28    2.12
  -1  -5  -9   41.04    1.64
   1   5   9   36.97    1.94
   1   5   9   36.90    2.09
   1   5   9   36.75    1.91
   1   5   9   35.46    2.20
  -2  -5  -9   32.83    1.90
  -2  -5  -9   33.43    1.65
  -2  -5  -9   34.48    1.40
  -2  -5  -9   32.38    2.06
   2   5   9   33.36    1.75
   2   5   9   33.24    2.01
   2   5   9   33.16    2.00
   2   5   9   32.79    1.74
  -3  -5  -9  216.12    8.93
  -3  -5  -9  212.87    9.29
  -3  -5  -9  223.93    8.81
   3   5   9  205.70    8.90
   3   5   9  225.60    8.92
   3   5   9  214.90    9.18
   3   5   9  216.64    9.21
  -4  -5  -9    1.13    0.34
  -4  -5  -9    0.85    0.51
   4   5   9    0.78    0.63
   4   5   9    0.43    0.41
   4   5   9    2.00    0.70
   4   5   9    0.69    0.56
  -5  -5  -9    5.49    0.52
  -5  -5  -9    4.69    0.50
   5   5   9    5.64    0.80
   5   5   9    3.88    0.74
   5   5   9    6.17    1.65
   5   5   9    4.81    0.93
   6   5   9    2.07    0.77
   6   5   9   -0.03    0.87
   6   5   9    0.35    0.49
   6   5   9   -0.08    0.79
   7   5   9    1.15    1.16
   7   5   9   -0.31    0.97
   8   5   9   12.65    1.63
   8   5   9   13.85    2.04
   7  -6  -9   22.32    2.17
   7  -6  -9   20.91    1.81
   6  -6  -9    0.28    0.73
   6  -6  -9    0.60    0.62
   6  -6  -9   -0.97    0.63
   5  -6  -9   14.83    1.26
   5  -6  -9   13.83    1.26
   5  -6  -9   10.79    1.41
   5  -6  -9   15.60    1.28
  -5   6   9   12.91    1.19
   4  -6  -9   27.90    1.60
   4  -6  -9   27.41    1.76
   4  -6  -9   26.58    2.02
  -4   6   9   25.77    1.82
  -4   6   9   23.34    1.67
   3  -6  -9   29.08    2.01
   3  -6  -9   32.51    1.77
   3  -6  -9   36.70    1.77
   3  -6  -9   33.65    1.77
  -3   6   9   31.32    2.10
  -3   6   9   28.80    1.85
   2  -6  -9    7.11    1.29
   2  -6  -9    3.46    0.52
   2  -6  -9    3.85    0.87
   2  -6  -9    3.13    0.51
   2  -6  -9    4.10    0.59
  -2   6   9    2.90    0.69
  -2   6   9    3.38    0.86
  -2   6   9    4.80    0.95
  -2   6   9    3.37    0.73
   1  -6  -9    4.21    0.58
   1  -6  -9    2.84    0.85
   1  -6  -9    4.52    0.63
   1  -6  -9    3.84    0.49
   1  -6  -9    4.63    0.88
  -1   6   9    3.79    0.68
  -1   6   9    5.12    0.92
  -1   6   9    3.57    0.75
  -1   6   9    2.77    0.67
   0  -6  -9   51.20    2.78
   0  -6  -9   53.96    2.78
   0  -6  -9   53.29    2.49
   0  -6  -9   55.40    2.35
   0  -6  -9   56.39    2.48
   0   6   9   48.32    2.65
   0   6   9   51.87    2.56
   0   6   9   50.28    2.66
   0   6   9   53.78    2.87
  -1  -6  -9   13.13    0.90
  -1  -6  -9   11.80    1.31
  -1  -6  -9   12.98    1.32
  -1  -6  -9   13.52    0.75
  -1  -6  -9   14.35    0.98
   1   6   9   14.97    1.36
   1   6   9   11.22    1.21
   1   6   9   11.25    1.16
   1   6   9   11.00    1.08
  -2  -6  -9   22.76    1.63
  -2  -6  -9   23.30    1.80
  -2  -6  -9   25.01    1.34
  -2  -6  -9   25.12    1.08
  -2  -6  -9   24.83    1.31
   2   6   9   22.45    1.70
   2   6   9   22.53    1.70
   2   6   9   25.57    1.54
   2   6   9   22.20    1.48
  -3  -6  -9  217.62    8.42
  -3  -6  -9  202.08    8.55
  -3  -6  -9  195.95    8.87
   3   6   9  205.46    8.81
   3   6   9  194.24    8.52
   3   6   9  209.86    8.56
   3   6   9  213.15    8.84
  -4  -6  -9   20.33    1.13
  -4  -6  -9   20.90    1.37
   4   6   9   17.91    1.63
   4   6   9   18.85    1.34
   4   6   9   20.08    1.42
   4   6   9   19.57    1.69
  -5  -6  -9    0.59    0.31
  -5  -6  -9   -0.18    0.43
   5   6   9    0.32    0.69
   5   6   9   -0.65    0.64
   5   6   9   -0.34    0.53
   6   6   9   17.91    2.02
   6   6   9   16.75    1.85
   6   6   9   16.23    1.37
   7   6   9    1.12    1.15
   7   6   9    2.26    1.25
   8   6   9    3.01    1.46
   8   6   9    3.73    1.37
   6  -7  -9    1.52    0.76
   6  -7  -9   -0.95    0.75
   6  -7  -9   -0.46    0.82
   5  -7  -9   35.20    2.12
   5  -7  -9   37.16    2.14
   5  -7  -9   35.80    2.12
  -5   7   9   34.39    1.94
   4  -7  -9    0.31    0.90
   4  -7  -9   -0.55    0.52
   4  -7  -9    0.10    0.48
   4  -7  -9    0.68    0.58
  -4   7   9    0.79    0.74
  -4   7   9    1.92    0.85
   3  -7  -9   37.69    1.96
   3  -7  -9   35.70    2.27
   3  -7  -9   38.56    1.99
  -3   7   9   34.28    2.32
  -3   7   9   31.13    2.06
   2  -7  -9   81.79    3.56
   2  -7  -9   78.38    3.73
   2  -7  -9   82.75    3.56
   2  -7  -9   80.20    3.50
  -2   7   9   72.23    3.84
  -2   7   9   70.35    3.58
  -2   7   9   75.65    3.57
   1  -7  -9   12.68    1.37
   1  -7  -9   15.15    1.04
   1  -7  -9   13.93    1.05
   1  -7  -9   12.68    1.00
  -1   7   9   12.47    1.54
  -1   7   9   12.13    1.25
  -1   7   9   10.42    1.16
   0  -7  -9   75.24    3.36
   0  -7  -9   75.65    3.24
   0  -7  -9   73.97    3.60
   0  -7  -9   70.89    3.65
   0  -7  -9   82.86    3.38
   0   7   9   73.87    3.75
   0   7   9   68.55    3.45
   0   7   9   67.18    3.62
   0   7   9   76.56    3.53
  -1  -7  -9  112.06    5.08
  -1  -7  -9  114.46    4.78
  -1  -7  -9  120.86    4.77
  -1  -7  -9  104.18    5.00
  -1  -7  -9  114.94    4.60
   1   7   9  106.59    4.98
   1   7   9  102.21    4.85
   1   7   9  109.76    5.00
   1   7   9  109.18    5.14
  -2  -7  -9   17.07    1.15
  -2  -7  -9   15.15    1.45
  -2  -7  -9   17.46    1.06
  -2  -7  -9   16.32    1.63
  -2  -7  -9   17.09    0.85
   2   7   9   15.45    1.43
   2   7   9   16.32    1.37
   2   7   9   15.44    1.55
   2   7   9   15.92    1.46
  -3  -7  -9    1.06    0.45
  -3  -7  -9   -0.21    0.64
   3   7   9    2.20    0.73
   3   7   9    1.64    0.65
   3   7   9    0.28    0.70
  -4  -7  -9    2.11    0.49
  -4  -7  -9    2.22    0.73
   4   7   9    1.68    0.80
   4   7   9    3.35    0.75
  -5  -7  -9   53.97    2.60
  -5  -7  -9   56.53    2.49
   5   7   9   57.03    3.14
   5   7   9   54.60    2.83
   5   7   9   57.92    3.30
   6   7   9    2.62    1.12
   6   7   9    0.71    1.25
   6   7   9    3.12    0.88
   7   7   9   19.49    2.23
   7   7   9   14.22    1.87
   8   7   9   14.11    2.26
   8   7   9   13.98    2.06
   6  -8  -9    8.72    1.21
   6  -8  -9    6.67    1.07
   6  -8  -9    6.34    1.17
   5  -8  -9   27.14    1.93
   5  -8  -9   23.71    1.93
   5  -8  -9   26.04    1.90
   4  -8  -9    8.78    1.29
   4  -8  -9   10.14    1.28
   4  -8  -9   11.35    1.34
  -4   8   9   12.23    1.57
   3  -8  -9   43.71    2.31
   3  -8  -9   43.83    2.31
   3  -8  -9   41.43    2.47
   3  -8  -9   44.26    2.30
  -3   8   9   37.03    2.34
  -3   8   9   40.97    2.67
   2  -8  -9   42.88    2.26
   2  -8  -9   44.40    2.26
   2  -8  -9   43.24    2.25
   2  -8  -9   44.49    2.50
  -2   8   9   39.42    2.64
  -2   8   9   43.41    2.27
  -2   8   9   40.58    2.43
   1  -8  -9   89.82    3.85
   1  -8  -9   83.13    4.05
  -1   8   9   87.27    4.32
  -1   8   9   83.86    3.94
   0  -8  -9  121.89    5.07
   0  -8  -9  111.21    5.36
   0  -8  -9  129.91    5.19
   0  -8  -9  118.79    5.17
   0   8   9  117.21    5.56
   0   8   9  114.74    5.28
  -1  -8  -9    2.42    0.85
  -1  -8  -9    2.63    0.49
  -1  -8  -9    2.96    0.46
  -1  -8  -9    2.03    0.53
   1   8   9    2.48    0.75
   1   8   9    2.87    0.95
  -2  -8  -9   -0.05    0.41
  -2  -8  -9    0.10    0.33
  -2  -8  -9    0.26    0.29
   2   8   9    0.20    0.68
   2   8   9   -0.28    0.68
   2   8   9    0.84    0.79
  -3  -8  -9    7.20    0.93
  -3  -8  -9    9.01    0.55
  -3  -8  -9    8.56    0.50
  -3  -8  -9    7.59    0.76
  -3  -8  -9    9.01    1.17
   3   8   9    6.68    1.06
   3   8   9    8.73    1.32
  -4  -8  -9   32.17    1.66
  -4  -8  -9   27.39    1.90
   4   8   9   32.55    2.26
   4   8   9   27.61    2.03
   4   8   9   29.94    2.25
  -5  -8  -9   10.79    0.96
  -5  -8  -9   12.02    1.36
   5   8   9   14.79    1.64
   5   8   9   10.49    1.50
   5   8   9    8.81    1.20
   6   8   9    1.27    1.21
   6   8   9    2.31    1.25
   7   8   9    2.18    1.39
   7   8   9    2.29    1.48
   5  -9  -9   43.11    2.66
   5  -9  -9   42.70    2.63
   5  -9  -9   39.50    2.53
   4  -9  -9   26.01    1.96
   4  -9  -9   27.54    1.95
   4  -9  -9   26.70    1.96
  -4   9   9   27.17    2.27
   3  -9  -9   15.17    1.45
   3  -9  -9   13.54    1.38
   3  -9  -9   11.06    1.39
  -3   9   9   15.14    1.96
   2  -9  -9   44.39    2.62
   2  -9  -9   45.32    2.44
   2  -9  -9   45.90    2.43
   2  -9  -9   45.71    2.40
  -2   9   9   40.17    2.30
   1  -9  -9    1.17    0.92
   1  -9  -9    0.27    0.59
   1  -9  -9    0.89    0.48
   1  -9  -9    0.75    0.54
  -1   9   9    0.66    0.61
  -1   9   9    2.69    1.03
   0  -9  -9   49.35    2.94
   0  -9  -9   53.27    2.59
   0  -9  -9   59.02    2.70
   0  -9  -9   55.26    2.70
   0   9   9   52.10    2.78
   0   9   9   51.66    3.16
  -1  -9  -9   -0.17    0.52
  -1  -9  -9    0.12    0.40
   1   9   9   -0.25    0.69
   1   9   9   -0.13    0.84
  -2  -9  -9   37.92    2.04
  -2  -9  -9   38.91    1.94
  -2  -9  -9   36.41    1.78
   2   9   9   34.01    2.54
   2   9   9   35.06    2.33
  -3  -9  -9    5.32    0.51
  -3  -9  -9    6.27    0.78
  -3  -9  -9    7.01    0.60
   3   9   9    6.53    1.20
   3   9   9    5.58    1.07
  -4  -9  -9    1.52    0.62
   4   9   9    1.72    0.97
   4   9   9    4.64    1.17
  -5  -9  -9    5.37    0.74
   5   9   9    5.69    1.46
   5   9   9    6.97    1.39
   6   9   9    6.75    1.61
   6   9   9    4.94    1.44
   7   9   9    0.09    1.65
   7   9   9    1.22    1.59
   4 -10  -9    5.23    1.13
   4 -10  -9    7.42    1.16
   4 -10  -9    5.10    1.02
   3 -10  -9   34.35    2.26
   3 -10  -9   34.44    2.19
   3 -10  -9   31.71    2.19
  -3  10   9   30.02    2.71
   2 -10  -9    1.23    0.70
   2 -10  -9    0.04    0.62
   2 -10  -9    1.13    0.73
  -2  10   9    0.56    1.21
  -2  10   9    0.98    0.69
   1 -10  -9   13.98    1.33
   1 -10  -9   14.65    1.49
   1 -10  -9   15.70    1.39
  -1  10   9   13.35    1.40
  -1  10   9   15.90    1.83
   0 -10  -9    0.96    0.59
   0 -10  -9    1.16    0.61
   0 -10  -9    0.06    0.62
   0  10   9   -0.43    1.09
   0  10   9   -0.19    0.67
  -1 -10  -9    0.52    0.50
  -1 -10  -9    0.84    0.54
  -1 -10  -9   -0.12    0.58
   1  10   9    0.78    1.05
   1  10   9    1.00    0.80
  -2 -10  -9   10.45    1.31
  -2 -10  -9   12.20    1.07
  -2 -10  -9   11.92    1.00
   2  10   9   11.58    1.66
  -3 -10  -9    5.08    0.58
  -3 -10  -9    4.79    0.82
  -3 -10  -9    6.25    0.87
   3  10   9    5.03    1.37
   3  10   9    5.43    1.18
  -4 -10  -9   -0.84    0.68
   4  10   9    0.85    1.20
   4  10   9    1.91    1.12
  -5 -10  -9   10.55    1.35
   5  10   9    7.85    1.51
   5  10   9   10.72    1.71
   6  10   9    7.44    1.85
   6  10   9    5.55    1.67
   3 -11  -9   10.06    1.40
   3 -11  -9    8.37    1.29
   3 -11  -9    8.41    1.26
  -3  11   9    7.60    1.95
   2 -11  -9   20.46    1.76
   2 -11  -9   19.80    1.86
   2 -11  -9   20.31    1.90
  -2  11   9   23.01    2.79
   1 -11  -9   29.64    2.15
   1 -11  -9   31.23    2.12
   1 -11  -9   32.50    2.08
  -1  11   9   31.11    2.05
  -1  11   9   34.13    2.93
   0 -11  -9    4.17    0.84
   0 -11  -9    2.54    0.79
   0 -11  -9    2.58    0.87
   0  11   9    4.40    1.51
   0  11   9    3.63    0.95
  -1 -11  -9    0.69    0.62
  -1 -11  -9    0.22    0.68
  -1 -11  -9    1.55    0.81
   1  11   9   -0.14    0.91
   1  11   9   -0.28    1.28
  -2 -11  -9   19.30    1.48
  -2 -11  -9   20.16    1.69
  -2 -11  -9   16.84    1.41
   2  11   9   21.23    2.52
   2  11   9   19.19    2.02
  -3 -11  -9    0.50    0.57
  -3 -11  -9    0.03    0.77
  -3 -11  -9    1.23    0.62
   3  11   9    1.96    1.12
   3  11   9    1.60    1.38
  -4 -11  -9    6.60    1.08
  -4 -11  -9    6.14    0.86
   4  11   9    6.56    1.43
   4  11   9   10.23    1.86
  -5 -11  -9    0.03    1.03
   5  11   9   -0.52    1.42
   5  11   9    0.58    1.62
   2 -12  -9    3.02    1.12
   2 -12  -9    0.11    0.93
   2 -12  -9   -1.03    0.96
  -2  12   9   -0.72    1.87
   1 -12  -9   -0.47    0.93
   1 -12  -9    1.96    0.97
   1 -12  -9    1.83    0.83
  -1  12   9    1.07    1.70
   0 -12  -9    1.46    0.74
   0 -12  -9    0.85    0.96
   0 -12  -9    0.20    0.90
   0  12   9    2.45    1.08
   0  12   9   -0.01    1.53
  -1 -12  -9   26.31    2.03
  -1 -12  -9   26.62    1.89
   1  12   9   20.57    2.53
   1  12   9   23.75    2.40
  -2 -12  -9    0.04    0.71
  -2 -12  -9    1.34    0.84
  -2 -12  -9    0.99    0.90
   2  12   9   -0.01    1.27
   2  12   9    0.63    1.49
  -3 -12  -9    2.35    0.99
  -3 -12  -9    2.88    0.84
   3  12   9    1.73    1.61
   3  12   9    3.37    1.52
  -4 -12  -9    0.72    0.78
  -4 -12  -9   -0.31    1.04
   4  12   9    2.94    1.52
   4  12   9   -1.08    1.80
  -1 -13  -9    1.42    1.21
  -1 -13  -9    0.40    0.82
   1  13   9    0.05    2.00
   2   7 -10   -1.01    1.29
  -2  -7  10    1.55    1.48
  -2  -7  10    1.14    1.71
  -1  -7  10    1.14    1.22
  -1  -7  10    0.12    1.59
   0   7 -10    6.07    1.43
   0  -7  10    2.84    1.58
   0  -7  10    4.35    1.45
  -1   7 -10    3.26    1.41
   1  -7  10    1.18    1.32
   1  -7  10    4.25    1.74
  -2   7 -10    1.53    1.29
   2  -7  10    3.17    1.70
   2  -7  10   -0.17    1.32
   3  -7  10    0.28    2.08
   4   6 -10   -0.34    1.41
   4   6 -10    0.99    0.67
   3   6 -10    5.66    1.23
  -3  -6  10    9.55    1.58
   2   6 -10    4.49    1.18
  -2  -6  10    4.45    1.33
   1   6 -10    4.21    1.09
  -1  -6  10    4.04    1.17
   0   6 -10    0.86    1.00
   0  -6  10    0.96    1.10
  -1   6 -10    0.08    0.98
   1  -6  10   -1.35    1.11
  -2   6 -10   -0.19    1.03
   2  -6  10    0.69    1.37
   2  -6  10    0.40    1.16
   3  -6  10    4.06    1.76
   3  -6  10    1.44    1.40
   4  -6  10   -0.12    1.86
   4  -6  10    1.32    1.43
   5   5 -10    3.33    0.76
   4   5 -10   -0.39    1.13
   4   5 -10    0.23    0.58
  -4  -5  10    2.11    1.28
   3   5 -10   21.21    1.42
   3   5 -10   19.71    2.14
  -3  -5  10   20.99    2.34
   2   5 -10   41.20    2.61
   2   5 -10   36.70    2.00
  -2  -5  10   36.97    2.72
   1   5 -10    3.44    0.98
  -1  -5  10    0.28    1.05
   0   5 -10   32.08    2.10
   0  -5  10   29.01    2.37
  -1   5 -10   -0.04    0.75
   1  -5  10    0.59    1.00
  -2   5 -10    0.73    0.84
   2  -5  10    1.02    1.09
  -3   5 -10    1.38    0.78
   3  -5  10    2.92    1.19
   4  -5  10   30.72    2.68
   5  -5  10    2.15    1.87
   5  -5  10    1.53    1.40
   5   4 -10   -0.90    0.51
   5   4 -10    0.59    0.99
  -5  -4  10   -2.88    1.19
   4   4 -10    0.06    0.51
   4   4 -10   -0.78    0.88
  -4  -4  10   -0.77    1.05
   3   4 -10    2.23    0.56
   3   4 -10    2.72    0.98
  -3  -4  10    3.34    1.11
   2   4 -10   29.51    2.12
   2   4 -10   30.30    1.59
  -2  -4  10   23.58    2.18
   1   4 -10   51.02    2.77
   1   4 -10   49.81    2.40
  -1  -4  10   50.90    3.01
   0   4 -10    8.62    1.07
   0  -4  10    9.43    1.34
  -1   4 -10    9.43    1.06
   1  -4  10    8.35    1.30
  -2   4 -10   20.35    2.23
  -2   4 -10   18.31    1.45
   2  -4  10   16.66    1.87
  -3   4 -10   32.28    2.53
  -3   4 -10   33.28    1.89
   3  -4  10   37.51    2.18
   4  -4  10    0.84    0.77
   5  -4  10   13.43    1.69
   5  -4  10   15.35    1.63
   6  -4  10    3.92    1.45
   6  -4  10    5.64    1.87
   6   3 -10   19.95    1.44
   6   3 -10   18.07    2.22
  -6  -3  10   20.77    2.39
   5   3 -10    1.62    0.98
   5   3 -10    0.98    0.54
  -5  -3  10   -0.29    1.15
   4   3 -10   17.94    1.20
   4   3 -10   14.67    1.76
  -4  -3  10   15.85    1.88
   3   3 -10   40.89    2.44
   3   3 -10   41.79    2.03
  -3  -3  10   40.19    2.01
  -3  -3  10   38.96    2.57
   2   3 -10   38.92    2.21
   2   3 -10   38.76    1.84
  -2  -3  10   36.19    1.87
  -2  -3  10   30.53    2.35
   1   3 -10   -0.55    0.62
   1   3 -10   -0.06    0.29
  -1  -3  10    1.07    0.83
   0   3 -10    0.15    0.61
   0   3 -10   -0.34    0.32
  -1   3 -10   23.19    2.25
  -1   3 -10   25.67    2.33
  -1   3 -10   20.75    1.53
  -2   3 -10    3.27    1.09
  -2   3 -10    1.56    1.01
  -2   3 -10    2.68    0.62
   2  -3  10    2.92    0.87
   2  -3  10    3.33    0.74
  -3   3 -10   22.07    1.82
  -3   3 -10   21.29    2.11
  -3   3 -10   21.54    1.35
   3  -3  10   23.20    1.66
   3  -3  10   21.99    1.91
  -4   3 -10    8.16    1.51
   4  -3  10   10.29    1.37
   4  -3  10    9.71    1.34
   5  -3  10    2.26    0.85
   5  -3  10    0.43    1.05
   6  -3  10    1.83    0.98
   6   2 -10    6.90    0.81
   6   2 -10    6.93    1.24
  -6  -2  10    3.63    1.17
   5   2 -10   10.02    1.25
   5   2 -10   10.62    0.93
  -5  -2  10    7.20    1.19
   4   2 -10    4.27    0.92
   4   2 -10    2.48    0.48
  -4  -2  10    3.38    0.64
  -4  -2  10    2.52    0.94
   3   2 -10   30.89    1.52
   3   2 -10   26.92    1.86
  -3  -2  10   29.31    1.57
  -3  -2  10   26.09    2.02
   2   2 -10    2.31    0.65
   2   2 -10    2.71    0.67
  -2  -2  10    2.67    0.52
   1   2 -10    9.43    0.74
   1   2 -10    7.74    1.04
  -1  -2  10    7.59    1.15
  -1  -2  10    8.27    0.85
   0   2 -10   18.95    1.37
   0   2 -10   20.32    2.12
   0   2 -10   17.67    1.06
   0   2 -10   19.84    1.84
   0  -2  10   19.78    1.69
   0  -2  10   18.01    1.07
  -1   2 -10   51.06    2.87
  -1   2 -10   49.53    2.47
  -1   2 -10   50.48    2.95
   1  -2  10   50.20    2.62
   1  -2  10   46.32    2.19
   1  -2  10   49.70    2.75
  -2   2 -10   11.75    1.07
  -2   2 -10    9.97    1.27
  -2   2 -10   10.94    1.33
   2  -2  10   13.32    1.30
   2  -2  10   11.72    1.31
   2  -2  10   11.03    0.77
  -3   2 -10   15.85    1.08
  -3   2 -10   18.03    1.51
  -3   2 -10   14.84    1.80
   3  -2  10   18.70    1.65
   3  -2  10   16.87    0.98
   3  -2  10   16.10    1.40
  -4   2 -10    6.21    1.37
   4  -2  10    8.79    1.25
   4  -2  10    7.15    0.68
   4  -2  10    7.97    1.07
   5  -2  10   17.37    1.04
   5  -2  10   14.96    1.56
   5  -2  10   14.96    1.78
   6  -2  10    1.02    0.96
   6  -2  10   -0.84    0.96
   7  -2  10    1.40    1.18
   6   1 -10    0.24    0.92
   6   1 -10   -0.45    0.48
  -6  -1  10   -0.86    0.95
   5   1 -10    0.39    0.84
   5   1 -10    1.90    0.53
  -5  -1  10    3.10    1.01
   4   1 -10  111.31    4.55
   4   1 -10  107.78    4.88
  -4  -1  10  100.52    4.63
  -4  -1  10  108.93    5.10
   3   1 -10   18.63    1.42
   3   1 -10   16.83    1.03
  -3  -1  10   18.35    1.69
  -3  -1  10   17.51    1.20
   2   1 -10    1.53    0.38
   2   1 -10    1.33    0.61
  -2  -1  10    2.43    0.80
  -2  -1  10    1.36    0.45
   1   1 -10    6.58    0.86
   1   1 -10    4.79    1.23
   1   1 -10    5.97    0.61
   1   1 -10    6.02    1.20
  -1  -1  10    5.49    0.69
  -1  -1  10    5.45    0.74
  -1  -1  10    7.51    1.11
   0   1 -10    9.83    1.01
   0   1 -10   12.69    1.63
   0   1 -10   10.48    1.27
   0   1 -10    8.90    0.71
   0  -1  10   10.08    0.75
   0  -1  10   11.26    0.87
   0  -1  10   10.65    1.31
   0  -1  10    9.07    0.96
   0  -1  10    9.71    1.13
  -1   1 -10   14.85    1.55
  -1   1 -10   15.49    0.90
  -1   1 -10   14.25    1.14
  -1   1 -10   13.63    1.69
   1  -1  10   14.51    1.34
   1  -1  10   14.78    1.13
   1  -1  10   16.05    0.88
   1  -1  10   15.74    1.45
  -2   1 -10  157.16    6.48
  -2   1 -10  154.50    6.74
  -2   1 -10  159.57    6.83
   2  -1  10  154.86    6.81
   2  -1  10  148.07    6.48
   2  -1  10  155.73    6.72
   2  -1  10  154.72    6.29
  -3   1 -10   42.51    2.56
  -3   1 -10   40.38    1.97
  -3   1 -10   41.58    2.24
   3  -1  10   42.16    2.41
   3  -1  10   42.62    1.86
   3  -1  10   42.79    2.12
   3  -1  10   40.63    2.32
  -4   1 -10    2.92    1.14
   4  -1  10    1.27    0.35
   4  -1  10    1.24    0.76
   4  -1  10    1.12    0.65
   4  -1  10    1.84    0.61
   5  -1  10   71.00    3.35
   5  -1  10   75.83    3.07
   5  -1  10   71.28    3.63
   5  -1  10   71.31    3.59
   6  -1  10   13.77    1.52
   7  -1  10    1.51    1.38
   7  -1  10    1.62    1.23
   7   0 -10    0.25    1.13
   7   0 -10   -0.15    0.58
   6   0 -10   -1.16    0.85
   6   0 -10    1.56    0.51
  -6   0  10   -0.40    0.80
   5   0 -10   15.89    1.11
   5   0 -10   17.90    1.53
  -5   0  10   15.90    1.48
  -5   0  10   16.06    1.60
   4   0 -10    3.89    0.72
   4   0 -10    3.05    0.46
  -4   0  10    2.50    0.73
  -4   0  10    3.00    0.68
  -4   0  10    3.44    0.91
   3   0 -10   28.48    1.45
   3   0 -10   27.99    1.72
  -3   0  10   25.84    1.60
  -3   0  10   25.41    1.88
  -3   0  10   25.49    1.53
   2   0 -10  144.70    6.05
   2   0 -10  149.67    5.82
  -2   0  10  143.84    5.91
  -2   0  10  142.22    5.93
  -2   0  10  129.23    5.93
  -2   0  10  136.49    6.26
   1   0 -10   80.53    3.98
   1   0 -10   82.56    3.41
   1   0 -10   82.99    3.66
  -1   0  10   80.70    3.48
  -1   0  10   79.61    3.58
  -1   0  10   77.36    3.90
  -1   0  10   78.43    3.83
  -1   0  10   83.35    3.53
   0   0 -10   77.96    3.93
   0   0 -10   81.39    4.06
   0   0 -10   84.97    3.47
   0   0 -10   83.56    3.69
   0   0  10   80.00    3.62
   0   0  10   86.17    3.60
   0   0  10   83.37    3.49
   0   0  10   82.86    3.88
   0   0  10   80.39    3.95
  -1   0 -10   14.14    1.05
  -1   0 -10   14.01    1.52
  -1   0 -10   13.54    1.46
  -1   0 -10   12.75    0.78
   1   0  10   14.24    1.36
   1   0  10   13.58    0.95
   1   0  10   13.10    1.20
   1   0  10   13.34    0.79
   1   0  10   12.47    0.98
  -2   0 -10   67.53    2.95
  -2   0 -10   64.44    3.23
  -2   0 -10   62.72    3.31
   2   0  10   65.61    2.75
   2   0  10   65.30    3.22
   2   0  10   64.00    3.28
   2   0  10   65.75    2.95
  -3   0 -10   53.73    2.71
  -3   0 -10   57.42    3.06
  -3   0 -10   58.50    2.53
   3   0  10   54.05    2.60
   3   0  10   57.54    2.38
   3   0  10   54.14    2.92
   3   0  10   56.20    2.88
  -4   0 -10    6.84    1.27
   4   0  10    6.63    0.91
   4   0  10    5.44    0.51
   4   0  10    6.07    0.73
   4   0  10    7.34    1.01
   5   0  10   42.95    2.51
   5   0  10   43.43    1.88
   5   0  10   43.49    2.54
   5   0  10   43.90    2.20
   6   0  10    3.88    0.77
   6   0  10    5.25    1.08
   6   0  10    4.93    1.12
   7   0  10    0.83    1.07
   7   0  10    0.74    1.14
   8   0  10   23.13    2.68
   7  -1 -10    1.09    0.58
   7  -1 -10   -0.67    0.99
   6  -1 -10   13.50    1.52
   6  -1 -10   13.25    1.06
  -6   1  10   12.99    1.41
   5  -1 -10    7.81    0.81
   5  -1 -10    9.14    1.22
  -5   1  10    8.12    1.05
  -5   1  10    8.28    1.13
  -5   1  10    7.28    0.92
   4  -1 -10    0.25    0.30
   4  -1 -10    0.57    0.56
  -4   1  10    0.05    0.60
  -4   1  10    0.14    0.65
   3  -1 -10   26.93    1.61
   3  -1 -10   27.82    1.37
  -3   1  10   25.78    1.59
  -3   1  10   26.86    1.89
  -3   1  10   25.35    1.57
   2  -1 -10   91.18    4.50
   2  -1 -10   87.07    4.35
   2  -1 -10   93.96    3.80
   2  -1 -10   92.52    4.02
  -2   1  10   90.42    3.94
  -2   1  10   86.39    4.25
  -2   1  10   89.67    3.95
  -2   1  10   90.50    3.93
   1  -1 -10   -0.54    0.83
   1  -1 -10   -0.65    0.66
   1  -1 -10   -0.32    0.22
   1  -1 -10   -0.32    0.38
  -1   1  10    0.67    0.53
  -1   1  10   -0.49    0.58
  -1   1  10    0.29    0.44
  -1   1  10   -0.48    0.33
  -1   1  10   -0.26    0.31
   0  -1 -10   45.80    2.63
   0  -1 -10   46.04    2.55
   0  -1 -10   46.86    2.01
   0  -1 -10   46.62    2.24
   0   1  10   47.81    2.56
   0   1  10   44.52    2.18
   0   1  10   46.35    2.07
   0   1  10   44.74    2.42
   0   1  10   45.41    2.16
  -1  -1 -10   19.65    1.61
  -1  -1 -10   19.92    1.23
  -1  -1 -10   17.07    1.53
  -1  -1 -10   19.36    0.97
   1   1  10   19.24    1.54
   1   1  10   20.06    1.17
   1   1  10   19.37    1.19
   1   1  10   20.85    1.02
   1   1  10   20.10    1.47
  -2  -1 -10   -0.30    0.70
  -2  -1 -10    0.15    0.38
  -2  -1 -10    0.40    0.22
  -2  -1 -10    1.16    0.66
   2   1  10    0.79    0.43
   2   1  10   -0.36    0.56
   2   1  10    0.50    0.52
   2   1  10    0.61    0.24
   2   1  10    0.03    0.35
  -3  -1 -10  292.57   11.68
  -3  -1 -10  296.87   11.82
  -3  -1 -10  285.57   12.12
   3   1  10  286.75   12.05
   3   1  10  290.77   11.73
   3   1  10  289.97   11.54
   3   1  10  283.35   12.05
  -4  -1 -10  107.25    4.56
  -4  -1 -10  107.79    5.25
  -4  -1 -10  112.56    4.54
   4   1  10  114.70    5.11
   4   1  10  112.27    4.75
   4   1  10  114.18    5.13
   4   1  10  113.47    4.52
   5   1  10   39.31    2.37
   5   1  10   40.27    2.41
   5   1  10   38.89    1.98
   5   1  10   39.52    1.68
   6   1  10    3.17    0.96
   6   1  10    2.98    0.38
   6   1  10    2.04    0.70
   6   1  10    3.60    1.02
   7   1  10   -0.32    1.09
   7   1  10   -0.11    1.01
   8   1  10    1.05    1.45
   7  -2 -10   -0.66    0.97
   7  -2 -10   -0.26    0.56
   6  -2 -10    5.11    0.99
   6  -2 -10    6.77    0.85
  -6   2  10    5.34    0.99
   5  -2 -10    6.06    0.74
   5  -2 -10    6.38    0.87
  -5   2  10    5.26    1.08
  -5   2  10    5.63    0.94
  -5   2  10    8.00    0.90
   4  -2 -10   89.14    3.62
  -4   2  10   76.86    3.91
  -4   2  10   81.94    3.74
  -4   2  10   86.61    4.00
   3  -2 -10  202.95    8.20
   3  -2 -10  204.83    8.02
  -3   2  10  197.31    8.42
  -3   2  10  186.08    8.12
  -3   2  10  192.23    8.23
   2  -2 -10    0.07    0.26
   2  -2 -10    0.58    0.95
   2  -2 -10    0.84    0.74
   2  -2 -10    0.56    0.40
  -2   2  10    1.13    0.63
  -2   2  10    0.01    0.66
  -2   2  10   -0.24    0.47
  -2   2  10    1.08    0.50
  -2   2  10    0.39    0.47
   1  -2 -10    0.64    0.41
   1  -2 -10   -0.30    0.90
   1  -2 -10   -0.71    0.59
   1  -2 -10    0.50    0.24
  -1   2  10    0.95    0.45
  -1   2  10    1.51    0.44
  -1   2  10    0.06    0.38
  -1   2  10    0.67    0.56
  -1   2  10    0.91    0.62
   0  -2 -10  148.97    6.56
   0  -2 -10  151.87    6.27
   0  -2 -10  153.00    6.06
   0  -2 -10  148.40    6.57
   0   2  10  143.45    6.56
   0   2  10  151.79    6.15
   0   2  10  152.46    6.23
   0   2  10  149.41    6.49
   0   2  10  145.30    6.23
  -1  -2 -10    4.40    0.81
  -1  -2 -10    4.32    0.58
  -1  -2 -10    3.48    0.81
  -1  -2 -10    3.96    0.37
   1   2  10    3.68    0.80
   1   2  10    4.30    0.52
   1   2  10    3.45    0.52
   1   2  10    3.25    0.70
   1   2  10    4.60    0.59
  -2  -2 -10  119.51    4.82
  -2  -2 -10  122.12    5.25
  -2  -2 -10  125.05    5.02
  -2  -2 -10  115.80    5.37
   2   2  10  113.21    5.00
   2   2  10  117.53    5.36
   2   2  10  120.32    5.03
   2   2  10  117.44    5.31
  -3  -2 -10   11.99    0.90
  -3  -2 -10   11.99    1.20
  -3  -2 -10   12.95    1.57
   3   2  10   13.56    1.35
   3   2  10   14.37    0.72
   3   2  10   14.60    0.99
   3   2  10   13.44    1.34
   3   2  10   12.28    0.96
  -4  -2 -10    0.35    0.30
  -4  -2 -10    1.76    1.07
  -4  -2 -10    0.03    0.37
   4   2  10    0.32    0.46
   4   2  10   -0.54    0.61
   4   2  10    0.31    0.20
   4   2  10    0.47    0.46
   4   2  10   -0.55    0.65
   5   2  10    2.08    0.81
   5   2  10    1.06    0.73
   5   2  10    1.48    0.55
   6   2  10   15.52    1.72
   6   2  10   15.59    1.67
   6   2  10   15.25    1.25
   7   2  10    2.42    1.24
   7   2  10    0.81    1.04
   8   2  10   21.75    2.72
   7  -3 -10   -1.01    0.90
   7  -3 -10   -0.52    0.55
   6  -3 -10   51.76    2.76
   6  -3 -10   51.80    2.50
   5  -3 -10   17.10    1.13
   5  -3 -10   14.93    1.51
  -5   3  10   17.29    1.53
   4  -3 -10   16.10    0.99
   4  -3 -10   15.23    0.99
  -4   3  10   11.36    1.58
  -4   3  10   13.69    1.27
  -4   3  10   12.97    1.46
   3  -3 -10   46.76    2.81
   3  -3 -10   49.70    2.41
   3  -3 -10   51.91    2.26
  -3   3  10   49.39    2.43
  -3   3  10   49.12    2.72
  -3   3  10   49.18    2.58
   2  -3 -10   17.48    1.59
   2  -3 -10   15.85    1.86
   2  -3 -10   19.23    1.18
   2  -3 -10   17.73    0.99
  -2   3  10   17.73    1.30
  -2   3  10   15.13    1.18
  -2   3  10   17.58    1.60
  -2   3  10   17.64    1.42
  -2   3  10   18.25    1.29
   1  -3 -10    9.09    0.65
   1  -3 -10    9.32    1.24
   1  -3 -10   10.52    1.40
   1  -3 -10   10.63    0.84
  -1   3  10   10.04    0.91
  -1   3  10    9.61    0.94
  -1   3  10   11.15    0.94
  -1   3  10    7.10    1.01
  -1   3  10    8.81    1.10
   0  -3 -10   18.77    1.58
   0  -3 -10   18.02    0.91
   0  -3 -10   17.85    1.14
   0  -3 -10   16.90    1.50
   0   3  10   18.20    1.41
   0   3  10   19.68    1.17
   0   3  10   18.19    1.16
   0   3  10   18.72    1.53
   0   3  10   17.60    1.10
  -1  -3 -10   13.09    0.92
  -1  -3 -10   10.31    1.29
  -1  -3 -10   12.42    0.66
  -1  -3 -10   13.98    1.36
   1   3  10   12.17    1.18
   1   3  10   14.95    1.34
   1   3  10   13.58    0.96
   1   3  10   12.45    0.84
   1   3  10   12.10    0.90
  -2  -3 -10    1.58    0.43
  -2  -3 -10    3.22    0.90
  -2  -3 -10    1.46    0.66
  -2  -3 -10    1.85    0.23
   2   3  10    1.88    0.60
   2   3  10    0.44    0.56
   2   3  10    1.99    0.50
   2   3  10    1.24    0.31
   2   3  10    1.36    0.38
  -3  -3 -10    6.86    1.04
  -3  -3 -10    8.38    1.05
  -3  -3 -10    7.67    0.71
   3   3  10    7.45    0.53
   3   3  10    9.81    1.18
   3   3  10    8.23    0.82
   3   3  10    9.55    1.13
   3   3  10    6.72    0.77
  -4  -3 -10    2.17    0.38
  -4  -3 -10    2.51    0.50
   4   3  10    1.94    0.52
   4   3  10    1.80    0.54
   4   3  10    2.77    0.76
   4   3  10    2.49    0.78
   5   3  10   55.70    2.66
   5   3  10   58.89    3.05
   6   3  10   10.69    1.44
   6   3  10   10.05    1.16
   6   3  10    8.75    1.18
   7   3  10   13.46    1.70
   7   3  10   13.19    1.50
   8   3  10   10.03    1.77
   7  -4 -10    0.81    0.63
   7  -4 -10   -0.43    0.93
   7  -4 -10    1.72    0.68
   6  -4 -10    2.45    0.62
   6  -4 -10    1.60    0.55
   6  -4 -10    1.61    0.77
   5  -4 -10    7.32    0.91
   5  -4 -10    6.47    0.91
   5  -4 -10    6.13    0.94
   4  -4 -10   50.15    2.30
   4  -4 -10   51.14    2.32
  -4   4  10   45.10    2.60
  -4   4  10   44.88    2.40
   3  -4 -10   59.91    2.59
   3  -4 -10   56.59    2.66
   3  -4 -10   55.27    3.04
   3  -4 -10   56.07    2.53
  -3   4  10   58.91    2.99
  -3   4  10   49.42    2.91
  -3   4  10   53.13    2.70
   2  -4 -10   64.05    3.22
   2  -4 -10   59.64    3.35
   2  -4 -10   65.43    2.74
   2  -4 -10   64.89    2.88
   2  -4 -10   65.44    2.82
  -2   4  10   60.25    3.04
  -2   4  10   62.76    3.24
  -2   4  10   60.29    3.07
  -2   4  10   58.72    2.94
  -2   4  10   58.55    2.89
   1  -4 -10  372.01   14.58
   1  -4 -10  364.50   14.84
   1  -4 -10  355.51   14.90
   1  -4 -10  367.43   14.55
   1  -4 -10  368.48   14.42
  -1   4  10  361.06   14.92
  -1   4  10  345.75   14.56
  -1   4  10  359.77   14.67
  -1   4  10  359.35   14.78
  -1   4  10  350.39   14.59
   0  -4 -10    7.09    0.53
   0  -4 -10    8.13    1.09
   0  -4 -10    6.78    0.94
   0  -4 -10    7.47    0.77
   0   4  10    7.91    0.81
   0   4  10    6.67    0.84
   0   4  10    8.40    1.03
   0   4  10    8.12    0.86
   0   4  10    8.98    1.14
  -1  -4 -10   49.22    2.74
  -1  -4 -10   56.06    2.40
  -1  -4 -10   52.77    2.15
  -1  -4 -10   52.40    2.71
   1   4  10   48.40    2.63
   1   4  10   51.38    2.42
   1   4  10   49.66    2.29
   1   4  10   48.00    2.40
   1   4  10   49.40    2.73
  -2  -4 -10   15.28    0.71
  -2  -4 -10   15.74    1.01
  -2  -4 -10   18.74    1.40
  -2  -4 -10   15.81    1.55
   2   4  10   14.31    1.38
   2   4  10   14.09    1.04
   2   4  10   14.04    1.34
   2   4  10   14.01    1.05
  -3  -4 -10   12.71    1.22
  -3  -4 -10   13.64    1.60
  -3  -4 -10   12.87    0.87
   3   4  10   12.31    1.00
   3   4  10   12.22    1.30
   3   4  10   13.42    1.36
   3   4  10    9.26    0.91
  -4  -4 -10    0.59    0.34
  -4  -4 -10    0.74    0.63
   4   4  10    0.56    0.73
   4   4  10    0.27    0.50
   4   4  10    0.30    0.41
   4   4  10    1.32    0.64
   5   4  10    0.59    0.76
   5   4  10    0.17    0.69
   5   4  10    1.08    0.62
   6   4  10    0.51    0.81
   6   4  10    0.64    0.79
   6   4  10    0.47    0.85
   7   4  10    1.66    1.04
   7   4  10    1.20    1.14
   8   4  10    1.44    1.41
   6  -5 -10   18.75    1.41
   6  -5 -10   17.24    1.67
   6  -5 -10   18.37    1.46
   5  -5 -10    6.65    0.82
   5  -5 -10    5.51    0.88
   5  -5 -10    6.27    0.78
  -5   5  10    7.12    0.98
   4  -5 -10   52.08    2.57
   4  -5 -10   56.31    2.51
  -4   5  10   51.64    2.81
  -4   5  10   46.94    2.60
   3  -5 -10    7.36    0.80
   3  -5 -10    7.73    0.80
   3  -5 -10    6.71    0.89
   3  -5 -10    8.12    1.20
  -3   5  10    9.46    1.20
  -3   5  10    8.19    0.97
   2  -5 -10   22.49    1.35
   2  -5 -10   23.79    1.75
   2  -5 -10   23.30    1.28
   2  -5 -10   20.00    1.19
  -2   5  10   19.69    1.75
  -2   5  10   21.66    1.45
  -2   5  10   18.57    1.64
  -2   5  10   21.77    1.55
   1  -5 -10    1.92    0.41
   1  -5 -10    1.22    0.87
   1  -5 -10    1.95    0.75
   1  -5 -10    2.57    0.53
   1  -5 -10    2.25    0.39
  -1   5  10    1.93    0.67
  -1   5  10    2.45    0.73
  -1   5  10    2.93    0.80
  -1   5  10    1.95    0.64
   0  -5 -10    4.97    0.50
   0  -5 -10    4.97    0.61
   0  -5 -10    6.59    1.02
   0  -5 -10    6.02    0.72
   0  -5 -10    7.87    1.12
   0   5  10    6.25    0.99
   0   5  10    6.51    0.94
   0   5  10    5.11    0.74
   0   5  10    5.80    0.76
  -1  -5 -10   44.43    2.52
  -1  -5 -10   44.17    2.47
  -1  -5 -10   46.28    1.90
  -1  -5 -10   45.51    2.12
   1   5  10   42.63    2.20
   1   5  10   44.26    2.25
   1   5  10   44.09    2.55
   1   5  10   40.50    2.39
  -2  -5 -10   40.31    2.28
  -2  -5 -10   37.37    2.44
  -2  -5 -10   41.41    1.71
  -2  -5 -10   41.45    1.98
   2   5  10   39.60    2.07
   2   5  10   41.98    2.09
   2   5  10   42.68    2.38
   2   5  10   41.30    2.44
  -3  -5 -10   14.50    0.98
  -3  -5 -10   14.54    1.79
  -3  -5 -10   13.54    1.30
   3   5  10   13.66    1.43
   3   5  10   12.58    1.13
   3   5  10   14.14    1.42
   3   5  10   11.83    1.03
  -4  -5 -10    9.97    0.77
  -4  -5 -10    9.94    1.08
   4   5  10   10.37    1.33
   4   5  10   10.30    0.98
   4   5  10   10.56    1.33
   4   5  10   10.17    1.10
  -5  -5 -10    5.76    0.60
  -5  -5 -10    5.55    0.55
   5   5  10    7.06    0.98
   5   5  10    7.34    1.04
   5   5  10    3.78    0.99
   6   5  10    2.94    0.96
   6   5  10    2.46    1.03
   7   5  10    2.79    1.28
   7   5  10    1.92    1.18
   8   5  10    0.20    1.51
   8   5  10    1.20    1.22
   6  -6 -10    2.11    0.78
   6  -6 -10    3.88    0.86
   6  -6 -10    3.33    0.98
   5  -6 -10    7.52    0.99
   5  -6 -10    6.72    0.87
   5  -6 -10    7.23    1.10
  -5   6  10    6.39    0.98
   4  -6 -10    4.19    1.20
   4  -6 -10    3.74    0.71
   4  -6 -10    5.68    0.76
   4  -6 -10    6.22    0.80
  -4   6  10    6.11    1.06
  -4   6  10    4.54    0.85
   3  -6 -10   31.32    2.25
   3  -6 -10   40.94    2.09
   3  -6 -10   46.73    2.73
   3  -6 -10   37.60    2.43
  -3   6  10   40.51    2.23
  -3   6  10   40.46    2.46
   2  -6 -10   15.14    1.13
   2  -6 -10   13.11    1.54
   2  -6 -10   16.52    1.10
   2  -6 -10   16.19    1.04
  -2   6  10   14.40    1.36
  -2   6  10   13.65    1.35
  -2   6  10   13.59    1.60
   1  -6 -10    1.40    0.81
   1  -6 -10    1.01    0.46
   1  -6 -10    0.97    0.37
   1  -6 -10    1.25    0.37
  -1   6  10    0.99    0.64
  -1   6  10    1.09    0.64
  -1   6  10    1.31    0.76
   0  -6 -10  371.53   14.94
   0  -6 -10  369.97   15.22
   0  -6 -10  355.87   15.22
   0  -6 -10  378.20   14.78
   0  -6 -10  398.25   14.95
   0   6  10  351.84   15.10
   0   6  10  377.95   15.34
   0   6  10  350.73   15.00
   0   6  10  366.90   15.14
  -1  -6 -10   -0.12    0.21
  -1  -6 -10    0.18    0.69
  -1  -6 -10    0.50    0.41
  -1  -6 -10    0.17    0.31
  -1  -6 -10   -0.15    0.71
   1   6  10    1.38    0.66
   1   6  10    0.32    0.56
   1   6  10   -0.10    0.55
   1   6  10   -0.28    0.73
  -2  -6 -10   14.16    1.66
  -2  -6 -10   16.65    1.10
  -2  -6 -10   15.35    1.50
  -2  -6 -10   17.24    0.77
   2   6  10   14.96    1.49
   2   6  10   18.13    1.59
   2   6  10   13.41    1.29
   2   6  10   16.74    1.33
  -3  -6 -10  115.63    4.73
  -3  -6 -10  108.29    4.90
   3   6  10  109.35    4.87
   3   6  10  109.21    5.15
   3   6  10  111.82    5.18
  -4  -6 -10    1.24    0.44
  -4  -6 -10    2.04    0.70
   4   6  10    1.30    0.60
   4   6  10    1.29    0.82
   4   6  10    1.96    0.82
  -5  -6 -10   25.78    1.28
  -5  -6 -10   24.10    1.41
   5   6  10   25.39    2.04
   5   6  10   25.84    2.14
   5   6  10   26.97    1.86
   6   6  10   35.09    2.63
   6   6  10   33.40    2.68
   7   6  10   -0.54    1.14
   7   6  10    0.95    1.21
   8   6  10    2.85    1.58
   8   6  10    7.86    1.99
   6  -7 -10   24.60    2.05
   6  -7 -10   27.51    1.99
   6  -7 -10   28.09    2.00
   5  -7 -10    3.22    0.85
   5  -7 -10    3.76    0.80
   5  -7 -10    4.64    0.84
   4  -7 -10   63.26    3.13
   4  -7 -10   66.44    3.10
   4  -7 -10   66.33    3.14
   4  -7 -10   61.58    3.41
  -4   7  10   59.58    3.33
   3  -7 -10   -0.57    0.42
   3  -7 -10    1.61    1.03
   3  -7 -10   -0.01    0.49
   3  -7 -10    0.03    0.56
  -3   7  10    1.05    0.94
  -3   7  10   -0.82    0.80
   2  -7 -10   26.31    1.49
   2  -7 -10   23.23    1.56
   2  -7 -10   25.80    2.00
   2  -7 -10   26.77    1.51
  -2   7  10   21.84    2.02
  -2   7  10   24.21    1.89
  -2   7  10   22.87    1.70
   1  -7 -10    2.62    0.54
   1  -7 -10    2.51    0.51
   1  -7 -10    2.13    0.86
   1  -7 -10    2.98    0.63
  -1   7  10    1.89    0.69
  -1   7  10    4.69    1.10
   0  -7 -10   11.51    1.05
   0  -7 -10   11.23    0.87
   0  -7 -10   12.57    0.96
   0  -7 -10   11.85    1.50
   0   7  10   10.46    1.26
   0   7  10   13.75    1.64
  -1  -7 -10    4.44    0.68
  -1  -7 -10    3.89    0.45
  -1  -7 -10    4.21    0.65
  -1  -7 -10    3.52    0.98
   1   7  10    3.50    0.79
   1   7  10    3.34    0.91
  -2  -7 -10   55.02    2.58
  -2  -7 -10   57.57    2.30
  -2  -7 -10   50.33    2.90
  -2  -7 -10   55.87    2.55
   2   7  10   54.90    3.07
   2   7  10   51.92    2.93
  -3  -7 -10    0.33    0.42
  -3  -7 -10   -1.65    0.71
   3   7  10    0.62    0.73
   3   7  10    0.58    0.97
   3   7  10   -0.26    0.75
  -4  -7 -10   -0.19    0.72
  -4  -7 -10   -0.19    0.40
   4   7  10    1.11    0.88
   4   7  10    0.98    0.79
  -5  -7 -10    7.60    0.82
  -5  -7 -10    9.85    1.05
   5   7  10    8.95    1.31
   5   7  10    9.50    1.34
   6   7  10    4.22    1.25
   6   7  10    2.80    1.12
   7   7  10   -0.09    1.32
   7   7  10    1.84    1.23
   5  -8 -10    0.73    0.72
   5  -8 -10    0.48    0.77
   5  -8 -10    0.58    0.86
   4  -8 -10    7.19    1.00
   4  -8 -10    7.89    1.21
   4  -8 -10    5.42    1.00
  -4   8  10    6.04    1.26
   3  -8 -10    5.39    1.19
   3  -8 -10    5.23    0.79
   3  -8 -10    5.05    0.83
   3  -8 -10    4.58    0.85
  -3   8  10    3.94    1.17
   2  -8 -10   19.14    1.90
   2  -8 -10   20.81    1.42
   2  -8 -10   19.00    1.49
   2  -8 -10   22.84    1.56
  -2   8  10   20.43    1.61
   1  -8 -10    0.69    0.85
   1  -8 -10    0.33    0.47
   1  -8 -10    0.49    0.54
   1  -8 -10    0.85    0.45
  -1   8  10    0.29    0.63
   0  -8 -10   11.64    0.94
   0  -8 -10    9.81    0.99
   0  -8 -10   10.68    1.29
   0  -8 -10   10.23    1.10
   0   8  10    9.25    1.24
  -1  -8 -10    0.02    0.33
  -1  -8 -10   -0.09    0.38
  -1  -8 -10   -0.28    0.87
   1   8  10    2.22    1.20
   1   8  10    0.59    0.66
  -2  -8 -10    2.02    0.43
  -2  -8 -10    3.31    0.38
  -2  -8 -10    3.22    0.64
   2   8  10    2.35    0.84
   2   8  10    2.22    0.97
  -3  -8 -10    1.79    0.23
  -3  -8 -10    1.85    0.54
  -3  -8 -10    1.51    0.22
   3   8  10    2.68    0.95
   3   8  10    1.12    0.95
  -4  -8 -10   36.81    1.87
  -4  -8 -10   33.28    2.15
   4   8  10   31.71    2.52
   4   8  10   35.45    2.48
  -5  -8 -10    0.24    0.51
   5   8  10    1.13    1.05
   5   8  10   -0.20    0.97
   6   8  10   24.64    2.60
   6   8  10   30.92    2.72
   7   8  10    3.78    1.56
   7   8  10    5.12    1.71
   5  -9 -10   15.81    1.81
   5  -9 -10   16.36    1.67
   5  -9 -10   13.97    1.56
   4  -9 -10    8.61    1.17
   4  -9 -10    8.93    1.32
   4  -9 -10    7.54    1.08
  -4   9  10    5.89    1.50
   3  -9 -10    1.38    0.66
   3  -9 -10    2.84    0.87
   3  -9 -10    0.32    0.63
  -3   9  10    2.61    1.25
   2  -9 -10   95.31    4.15
   2  -9 -10   88.77    4.04
   2  -9 -10   82.47    4.27
   2  -9 -10   88.72    4.10
  -2   9  10   83.18    4.08
  -2   9  10   87.38    4.52
   1  -9 -10   10.22    1.12
   1  -9 -10    9.80    1.12
   1  -9 -10   11.57    1.24
   1  -9 -10   12.76    1.74
  -1   9  10   11.65    1.59
  -1   9  10   10.32    1.32
   0  -9 -10   10.35    1.04
   0  -9 -10    8.88    1.33
   0  -9 -10    7.15    0.91
   0  -9 -10    9.66    1.01
   0   9  10    8.90    1.39
   0   9  10    8.60    1.11
  -1  -9 -10   17.64    1.16
  -1  -9 -10   18.81    1.27
  -1  -9 -10   16.89    1.39
   1   9  10   18.96    2.05
   1   9  10   13.36    1.64
  -2  -9 -10    1.15    0.36
  -2  -9 -10   -0.33    0.55
  -2  -9 -10    0.22    0.39
   2   9  10    1.28    1.05
  -3  -9 -10    2.36    0.32
  -3  -9 -10    1.32    0.46
  -3  -9 -10    2.14    0.67
   3   9  10    0.74    0.99
   3   9  10    1.78    0.99
   4   9  10    2.66    1.04
   4   9  10    2.42    1.22
  -5  -9 -10    7.44    0.86
   5   9  10    5.97    1.44
   5   9  10    7.01    1.36
   6   9  10   15.85    2.08
   6   9  10   10.37    1.84
   7   9  10    7.69    2.51
   4 -10 -10   -1.12    0.75
   4 -10 -10   -0.85    0.97
   4 -10 -10    1.08    0.90
   3 -10 -10    3.46    0.84
   3 -10 -10    3.91    0.96
   3 -10 -10    4.13    0.98
  -3  10  10    1.95    1.50
   2 -10 -10    5.06    0.93
   2 -10 -10    3.42    0.79
   2 -10 -10    4.81    0.96
  -2  10  10    6.49    1.01
  -2  10  10    3.21    1.41
   1 -10 -10   14.53    1.39
   1 -10 -10   14.76    1.48
   1 -10 -10   11.12    1.36
  -1  10  10   11.51    1.51
  -1  10  10   13.43    1.85
   0 -10 -10   28.78    1.87
   0 -10 -10   24.41    1.68
   0 -10 -10   27.89    1.70
   0  10  10   23.70    2.51
   0  10  10   22.48    1.89
  -1 -10 -10    3.29    0.77
  -1 -10 -10    3.37    0.66
  -1 -10 -10    3.68    0.72
   1  10  10    3.30    1.02
   1  10  10    2.81    1.27
  -2 -10 -10   22.80    1.38
  -2 -10 -10   23.95    1.56
  -2 -10 -10   24.45    1.73
   2  10  10   23.03    2.07
   2  10  10   24.75    2.48
  -3 -10 -10   19.22    1.55
  -3 -10 -10   17.82    1.30
  -3 -10 -10   16.28    0.98
   3  10  10   18.90    2.39
   3  10  10   16.36    2.02
  -4 -10 -10    1.69    0.80
   4  10  10    2.98    1.40
   4  10  10    1.36    1.11
  -5 -10 -10    0.95    0.78
   5  10  10   -0.41    1.47
   5  10  10   -1.81    1.17
   6  10  10    8.74    1.96
   6  10  10   12.56    2.12
   3 -11 -10   21.87    2.09
   3 -11 -10   21.51    2.06
   3 -11 -10   19.92    1.89
  -3  11  10   18.45    2.44
   2 -11 -10   -0.22    0.92
   2 -11 -10    1.00    0.88
   2 -11 -10   -0.70    0.72
  -2  11  10    2.04    1.71
   1 -11 -10   30.08    2.22
   1 -11 -10   35.46    2.26
   1 -11 -10   36.25    2.19
  -1  11  10   28.42    3.09
  -1  11  10   33.62    2.29
   0 -11 -10    7.05    0.97
   0 -11 -10    6.14    1.06
   0 -11 -10    5.65    0.94
   0  11  10    4.02    1.61
   0  11  10    4.87    1.16
  -1 -11 -10    0.10    0.79
  -1 -11 -10    0.83    0.67
  -1 -11 -10    0.40    0.61
   1  11  10    0.00    1.04
   1  11  10    0.91    1.36
  -2 -11 -10    0.18    0.63
  -2 -11 -10    1.29    0.80
  -2 -11 -10    2.52    0.70
   2  11  10    0.69    1.16
   2  11  10    4.81    1.56
  -3 -11 -10   46.43    2.68
  -3 -11 -10   51.90    2.54
   3  11  10   47.59    3.52
   3  11  10   44.72    3.22
  -4 -11 -10    0.95    0.91
   4  11  10   -1.03    1.36
   4  11  10    1.14    1.22
  -5 -11 -10   47.61    2.74
   5  11  10   45.16    3.83
   5  11  10   42.75    3.44
   2 -12 -10    3.78    1.21
   2 -12 -10    5.06    1.23
  -2  12  10    2.97    2.05
   1 -12 -10    1.10    1.06
   1 -12 -10    1.84    0.99
   1 -12 -10    2.74    0.88
  -1  12  10    2.73    1.84
   0 -12 -10   -0.92    0.90
   0 -12 -10    1.09    0.78
   0 -12 -10   -0.36    0.88
   0  12  10    0.61    1.27
   0  12  10   -0.38    1.59
  -1 -12 -10    6.83    1.17
  -1 -12 -10   12.30    1.64
  -1 -12 -10   10.63    1.40
   1  12  10   10.72    2.07
   1  12  10    7.54    1.61
  -2 -12 -10    7.09    1.39
  -2 -12 -10    6.63    1.01
   2  12  10    7.66    1.81
   2  12  10    6.78    1.67
  -3 -12 -10   -0.13    0.98
  -3 -12 -10    1.25    0.75
   3  12  10   -2.39    1.74
   3  12  10    2.28    1.53
   4  12  10    2.69    2.07
   4  12  10    0.09    1.49
   2   6 -11    4.83    1.40
  -2  -6  11    0.58    1.42
   1   6 -11    4.13    1.21
  -1  -6  11    2.88    1.37
   0   6 -11   13.21    1.63
   0  -6  11   14.90    1.83
  -1   6 -11   -0.79    1.24
   1  -6  11    0.78    1.30
  -2   6 -11    0.11    1.26
   2  -6  11   -0.10    1.29
   3  -6  11   16.66    2.12
   3  -6  11   17.68    2.61
   4   5 -11   -0.43    1.44
   4   5 -11    2.48    0.77
   3   5 -11    7.27    0.89
   3   5 -11   11.54    1.55
  -3  -5  11    6.07    1.49
   2   5 -11   15.20    1.69
  -2  -5  11   18.19    2.28
   1   5 -11    1.22    1.04
  -1  -5  11   -2.81    1.04
   0   5 -11   -0.04    0.90
   0  -5  11    0.21    1.09
  -1   5 -11    1.14    0.99
   1  -5  11    0.10    1.09
  -2   5 -11    0.18    0.96
   2  -5  11    1.29    1.24
   3  -5  11   -0.89    1.28
   4  -5  11   -0.12    1.38
   4   4 -11    0.47    0.56
   4   4 -11   -0.58    1.03
  -4  -4  11    0.18    1.24
   3   4 -11    0.05    0.46
   3   4 -11   -2.00    0.94
  -3  -4  11    1.40    1.22
   2   4 -11   25.50    2.13
   2   4 -11   21.97    1.44
  -2  -4  11   19.02    2.18
   1   4 -11   16.31    1.27
   1   4 -11   19.32    1.87
  -1  -4  11   19.71    2.14
   0   4 -11    2.99    0.92
   0  -4  11    0.78    1.11
  -1   4 -11    0.60    0.76
   1  -4  11    2.67    1.12
  -2   4 -11    1.38    0.80
   2  -4  11    1.04    1.11
  -3   4 -11    4.24    0.88
   4  -4  11    2.63    1.33
   5  -4  11    0.53    1.40
   5   3 -11    4.21    0.72
   5   3 -11    2.09    1.11
  -5  -3  11    4.01    1.48
   4   3 -11    2.53    0.99
   4   3 -11    2.53    0.61
  -4  -3  11    1.46    1.17
   3   3 -11   17.23    1.16
   3   3 -11   17.11    1.79
  -3  -3  11   11.44    1.51
   2   3 -11   -0.32    0.79
   2   3 -11   -0.65    0.42
  -2  -3  11   -0.52    0.93
   1   3 -11   36.27    2.22
   1   3 -11   34.41    1.80
  -1  -3  11   34.04    2.52
   0   3 -11    0.44    0.71
  -1   3 -11   16.28    1.49
   1  -3  11   16.78    1.89
  -2   3 -11    0.33    0.65
  -2   3 -11   -0.28    1.27
   2  -3  11    1.73    0.76
   2  -3  11    1.39    0.99
  -3   3 -11    0.24    0.61
   3  -3  11    1.38    0.76
   3  -3  11    1.37    1.00
   4  -3  11    4.51    1.17
   4  -3  11    3.46    1.24
   5  -3  11   18.55    2.16
   5  -3  11   20.33    2.45
   6  -3  11    5.92    1.57
   6  -3  11    2.42    1.13
   6   2 -11    2.25    0.67
   5   2 -11    1.36    0.55
   5   2 -11    0.89    0.94
  -5  -2  11    1.42    1.24
   4   2 -11    7.33    0.84
   4   2 -11    4.81    1.03
  -4  -2  11    6.01    1.23
   3   2 -11    0.10    0.68
   3   2 -11   -0.01    0.43
  -3  -2  11    0.99    0.94
  -3  -2  11    1.53    0.59
   2   2 -11    0.10    0.61
   2   2 -11   -0.38    0.38
  -2  -2  11    0.12    0.86
   1   2 -11    9.74    0.85
   1   2 -11   10.52    1.17
  -1  -2  11    8.62    1.26
   0   2 -11    9.32    0.81
   0  -2  11    7.72    1.15
  -1   2 -11   13.94    1.73
  -1   2 -11   10.60    1.24
   1  -2  11   12.98    1.51
   1  -2  11   10.75    1.36
  -2   2 -11   57.42    3.24
  -2   2 -11   55.98    2.74
   2  -2  11   55.19    2.98
  -3   2 -11   11.90    1.06
  -3   2 -11   10.91    1.30
   3  -2  11   12.87    1.44
   4  -2  11   26.27    1.95
   5  -2  11   -0.30    1.83
   5  -2  11    1.44    1.02
   6  -2  11    0.70    1.07
   6  -2  11    3.65    1.29
   6   1 -11    5.23    0.76
   6   1 -11    5.83    1.22
  -6  -1  11    6.36    1.56
   5   1 -11    1.96    0.51
   5   1 -11    2.18    0.96
  -5  -1  11   -0.07    1.06
   4   1 -11    0.20    0.40
   4   1 -11    0.40    0.79
  -4  -1  11    0.27    0.90
   3   1 -11   87.10    3.98
  -3  -1  11   82.63    3.71
  -3  -1  11   76.78    4.11
   2   1 -11    4.00    0.53
   2   1 -11    4.09    0.77
  -2  -1  11    3.44    0.94
  -2  -1  11    4.75    0.66
   1   1 -11   11.87    0.86
  -1  -1  11   14.19    1.22
  -1  -1  11   11.89    1.72
   0   1 -11   17.32    1.38
   0   1 -11   20.38    1.11
   0  -1  11   19.96    1.24
   0  -1  11   19.36    1.81
   0  -1  11   18.56    1.59
  -1   1 -11    0.61    0.32
  -1   1 -11    0.81    0.54
  -1   1 -11   -0.68    1.04
   1  -1  11    0.50    0.35
   1  -1  11    0.94    0.76
   1  -1  11    1.19    0.69
  -2   1 -11   47.19    2.29
  -2   1 -11   43.41    2.70
   2  -1  11   43.70    2.64
   2  -1  11   43.11    2.01
   2  -1  11   45.79    2.54
  -3   1 -11   65.84    2.92
  -3   1 -11   64.22    3.19
   3  -1  11   67.40    3.34
   3  -1  11   63.11    3.44
   3  -1  11   63.30    2.78
  -4   1 -11    2.83    0.45
   4  -1  11    2.04    0.81
   4  -1  11    2.70    0.41
   4  -1  11    1.66    0.91
   5  -1  11   34.22    2.40
   5  -1  11   35.57    2.47
   6  -1  11    7.93    1.47
   6  -1  11    7.79    1.34
   7  -1  11    1.41    1.25
   6   0 -11   -0.60    0.51
   6   0 -11   -0.46    0.97
  -6   0  11    1.50    1.31
   5   0 -11    0.46    0.47
   5   0 -11   -0.31    0.79
  -5   0  11    0.05    0.93
   4   0 -11   32.92    1.60
   4   0 -11   31.65    2.00
  -4   0  11   27.97    2.17
  -4   0  11   25.93    1.89
   3   0 -11    3.67    0.50
   3   0 -11    3.87    0.83
  -3   0  11    1.73    1.00
  -3   0  11    2.81    0.68
   2   0 -11    0.25    0.29
   2   0 -11    0.62    0.65
  -2   0  11    0.18    0.83
  -2   0  11    0.12    0.47
   1   0 -11   -0.60    0.48
   1   0 -11    0.82    0.31
  -1   0  11    1.09    0.75
  -1   0  11    0.46    0.44
  -1   0  11    0.19    0.52
  -1   0  11    1.39    0.71
   0   0 -11   17.65    1.32
   0   0 -11   14.64    1.95
   0   0 -11   18.12    0.98
   0   0  11   16.71    1.19
   0   0  11   17.48    1.61
   0   0  11   16.65    1.04
   0   0  11   17.07    1.48
  -1   0 -11   12.55    1.69
  -1   0 -11   12.59    0.80
  -1   0 -11   11.72    1.08
   1   0  11   12.35    1.27
   1   0  11   11.49    1.39
   1   0  11   10.85    0.79
  -2   0 -11   84.59    3.63
  -2   0 -11   77.85    3.92
   2   0  11   79.46    3.98
   2   0  11   80.48    3.40
   2   0  11   81.22    3.91
  -3   0 -11    0.11    0.46
  -3   0 -11    1.18    0.77
   3   0  11    1.24    0.84
   3   0  11    0.34    0.29
   3   0  11   -0.40    0.62
  -4   0 -11   21.33    1.14
  -4   0 -11   20.82    1.06
   4   0  11   19.98    1.05
   4   0  11   20.70    1.69
   4   0  11   17.16    1.77
   5   0  11   16.82    1.68
   5   0  11   16.04    1.81
   5   0  11   16.88    0.93
   6   0  11    1.04    1.04
   6   0  11    0.70    1.13
   7   0  11    0.03    1.29
   7   0  11    1.10    1.32
   6  -1 -11    0.98    0.52
   6  -1 -11    0.20    0.89
   5  -1 -11   -0.04    0.42
   5  -1 -11    0.42    0.73
  -5   1  11    1.28    0.94
   4  -1 -11    2.12    0.67
   4  -1 -11    1.36    0.45
  -4   1  11    1.91    0.82
   3  -1 -11    0.03    0.31
   3  -1 -11    0.99    0.58
  -3   1  11    1.33    0.80
  -3   1  11   -0.18    0.61
   2  -1 -11   49.69    2.49
   2  -1 -11   48.38    2.15
  -2   1  11   45.02    2.33
  -2   1  11   46.49    2.73
   1  -1 -11   -0.12    0.26
   1  -1 -11    0.51    0.48
  -1   1  11    0.15    0.41
  -1   1  11    0.48    0.70
  -1   1  11    0.47    0.42
  -1   1  11    0.15    0.62
   0  -1 -11    0.99    0.28
   0  -1 -11    0.03    0.47
   0  -1 -11   -0.39    0.97
   0  -1 -11    0.38    0.89
   0   1  11    0.03    0.35
   0   1  11    0.53    0.66
   0   1  11    0.79    0.64
   0   1  11   -0.04    0.41
  -1  -1 -11   27.43    2.03
  -1  -1 -11   27.40    2.06
  -1  -1 -11   28.36    1.33
  -1  -1 -11   28.90    1.62
   1   1  11   28.58    1.95
   1   1  11   28.45    1.60
   1   1  11   27.54    1.59
   1   1  11   26.18    1.37
   1   1  11   27.49    1.84
  -2  -1 -11   13.92    1.11
  -2  -1 -11   14.23    0.83
  -2  -1 -11   15.64    2.00
  -2  -1 -11   15.52    1.58
   2   1  11   15.20    0.86
   2   1  11   16.64    1.43
   2   1  11   11.60    1.42
   2   1  11   14.99    1.11
  -3  -1 -11    6.19    0.92
  -3  -1 -11    6.30    0.81
   3   1  11    6.69    0.80
   3   1  11    6.27    0.56
   3   1  11    6.33    0.97
   3   1  11    4.09    0.96
  -4  -1 -11  160.80    6.72
  -4  -1 -11  156.45    6.76
   4   1  11  166.33    7.32
   4   1  11  168.21    6.69
   4   1  11  169.00    7.33
   4   1  11  176.59    7.10
   5   1  11    0.72    0.76
   5   1  11    2.24    0.94
   5   1  11    2.63    0.36
   6   1  11    5.03    1.24
   6   1  11    6.90    1.28
   7   1  11    1.01    1.15
   7   1  11    2.90    1.34
   6  -2 -11    7.33    0.80
   6  -2 -11    6.25    1.14
   5  -2 -11    0.19    0.42
   5  -2 -11    0.11    0.72
  -5   2  11    0.32    0.87
   4  -2 -11    3.37    0.74
   4  -2 -11    2.05    0.47
  -4   2  11    1.80    0.89
   3  -2 -11    1.30    0.58
   3  -2 -11    0.54    0.34
  -3   2  11   -0.11    0.65
  -3   2  11    1.51    0.85
   2  -2 -11  174.20    7.00
   2  -2 -11  171.59    7.22
  -2   2  11  168.95    7.22
  -2   2  11  173.12    7.55
  -2   2  11  168.47    7.45
   1  -2 -11    3.21    0.38
   1  -2 -11    2.54    0.56
  -1   2  11    2.82    0.88
  -1   2  11    3.51    0.61
  -1   2  11    3.37    0.75
  -1   2  11    4.05    0.72
  -1   2  11    2.59    0.53
   0  -2 -11    2.91    0.94
   0  -2 -11    3.92    0.63
   0  -2 -11    4.06    0.41
   0  -2 -11    3.23    0.92
   0   2  11    3.47    0.49
   0   2  11    2.87    0.69
   0   2  11    3.77    0.58
   0   2  11    2.94    0.62
   0   2  11    4.11    0.92
  -1  -2 -11    0.19    0.79
  -1  -2 -11    0.56    0.79
  -1  -2 -11    0.74    0.45
  -1  -2 -11    0.32    0.22
   1   2  11    0.44    0.38
   1   2  11    0.55    0.51
   1   2  11    0.64    0.55
   1   2  11    0.48    0.35
   1   2  11   -0.78    0.64
  -2  -2 -11    0.56    0.86
  -2  -2 -11    0.74    0.44
  -2  -2 -11    2.08    0.77
  -2  -2 -11    1.55    0.27
   2   2  11    1.06    0.54
   2   2  11    1.54    0.34
   2   2  11    2.09    0.78
   2   2  11    1.92    0.68
  -3  -2 -11   -0.12    0.39
  -3  -2 -11    0.06    0.70
   3   2  11    0.63    0.71
   3   2  11   -0.87    0.48
   3   2  11   -0.15    0.57
  -4  -2 -11    6.78    0.70
  -4  -2 -11    7.29    0.75
   4   2  11   10.32    1.35
   4   2  11    7.72    0.88
   4   2  11    6.81    0.55
   4   2  11    9.58    1.25
   5   2  11    1.58    0.90
   5   2  11    1.94    0.85
   6   2  11    2.20    1.11
   6   2  11    2.69    1.08
   7   2  11    0.53    1.15
   7   2  11    1.60    1.26
   8   2  11    2.67    1.65
   6  -3 -11   -0.81    0.86
   6  -3 -11   -1.11    0.51
   5  -3 -11   12.27    0.99
   5  -3 -11   11.34    1.38
  -5   3  11   12.32    1.33
   4  -3 -11   33.43    1.87
   4  -3 -11   32.10    1.61
  -4   3  11   27.05    1.90
  -4   3  11   30.01    2.16
   3  -3 -11   30.56    1.68
   3  -3 -11   30.73    1.86
  -3   3  11   36.83    2.06
  -3   3  11   36.07    2.29
   2  -3 -11    2.00    0.36
   2  -3 -11    2.22    0.57
  -2   3  11    1.64    0.77
  -2   3  11    2.18    0.79
  -2   3  11    2.37    0.72
  -2   3  11    2.78    0.66
  -2   3  11    2.66    0.91
   1  -3 -11    0.48    0.29
   1  -3 -11   -0.52    0.86
   1  -3 -11    0.63    0.42
  -1   3  11    0.17    0.51
  -1   3  11    0.89    0.76
  -1   3  11    0.41    0.52
  -1   3  11    0.37    0.61
  -1   3  11    0.04    0.56
   0  -3 -11   80.16    4.01
   0  -3 -11   78.81    4.02
   0  -3 -11   82.53    3.61
   0  -3 -11   88.17    3.40
   0   3  11   77.27    3.62
   0   3  11   84.55    3.91
   0   3  11   83.50    3.55
   0   3  11   80.92    4.01
   0   3  11   74.11    3.59
  -1  -3 -11   16.23    1.66
  -1  -3 -11   15.69    1.59
  -1  -3 -11   17.63    0.85
  -1  -3 -11   18.33    1.18
   1   3  11   16.26    1.14
   1   3  11   16.93    1.57
   1   3  11   16.43    1.44
   1   3  11   17.26    1.04
   1   3  11   15.20    1.17
  -2  -3 -11  105.28    4.28
  -2  -3 -11  100.87    4.02
  -2  -3 -11   92.59    4.74
  -2  -3 -11   96.90    4.53
   2   3  11   99.34    4.61
   2   3  11  101.02    4.12
   2   3  11   93.77    4.28
   2   3  11   97.59    4.66
  -3  -3 -11  138.66    6.05
  -3  -3 -11  141.93    5.88
   3   3  11  141.10    5.72
   3   3  11  132.89    5.93
   3   3  11  142.22    6.33
   3   3  11  149.00    6.34
  -4  -3 -11    2.03    0.42
  -4  -3 -11    2.21    0.61
   4   3  11    0.60    0.56
   4   3  11    2.06    0.80
   5   3  11   12.74    1.59
   5   3  11    8.84    1.25
   6   3  11    2.56    1.11
   6   3  11    2.88    1.10
   7   3  11    2.59    1.35
   7   3  11    4.54    1.31
   8   3  11   10.75    1.96
   6  -4 -11   32.27    1.75
   6  -4 -11   27.60    2.08
   5  -4 -11   52.58    2.57
   5  -4 -11   53.29    2.77
   5  -4 -11   53.14    2.54
   4  -4 -11   11.57    1.20
   4  -4 -11   11.55    0.94
  -4   4  11   14.98    1.62
  -4   4  11   11.84    1.40
   3  -4 -11  117.37    4.98
   3  -4 -11  118.21    4.82
   3  -4 -11  118.19    4.90
  -3   4  11  102.17    4.96
  -3   4  11  111.73    5.27
   2  -4 -11   82.69    3.49
   2  -4 -11   81.01    3.67
  -2   4  11   85.01    4.06
  -2   4  11   81.94    3.83
  -2   4  11   80.11    3.90
  -2   4  11   77.29    4.02
   1  -4 -11  278.14   10.93
   1  -4 -11  275.68   10.73
   1  -4 -11  258.13   11.21
  -1   4  11  289.96   11.31
  -1   4  11  252.36   10.89
  -1   4  11  267.11   11.30
  -1   4  11  262.19   11.14
  -1   4  11  247.56   10.92
   0  -4 -11    7.74    1.27
   0  -4 -11    8.10    1.14
   0  -4 -11    6.89    0.56
   0  -4 -11    8.11    0.84
   0   4  11    7.71    0.77
   0   4  11    6.98    0.94
   0   4  11    7.77    1.03
   0   4  11    7.01    1.07
   0   4  11    7.21    0.95
  -1  -4 -11   89.69    4.34
  -1  -4 -11   95.99    4.02
  -1  -4 -11   95.65    3.76
  -1  -4 -11   89.36    4.45
   1   4  11   91.17    4.06
   1   4  11   90.45    4.41
   1   4  11   93.43    4.32
   1   4  11   86.32    4.03
   1   4  11   91.20    3.91
  -2  -4 -11    0.77    0.44
  -2  -4 -11    1.10    0.21
  -2  -4 -11    2.06    0.75
   2   4  11    1.20    0.40
   2   4  11    0.77    0.59
   2   4  11    0.04    0.51
   2   4  11    0.72    0.68
   2   4  11    1.50    0.59
  -3  -4 -11   76.29    3.62
  -3  -4 -11   77.67    3.41
   3   4  11   76.12    3.84
   3   4  11   81.86    3.68
   3   4  11   75.81    3.87
  -4  -4 -11   27.69    1.38
  -4  -4 -11   25.77    1.59
   4   4  11   25.70    2.00
   4   4  11   26.50    2.05
   5   4  11   20.28    1.98
   5   4  11   21.73    1.94
   6   4  11    6.72    1.38
   6   4  11    5.42    1.21
   7   4  11    5.01    1.42
   7   4  11    4.64    1.33
   8   4  11   10.26    1.91
   6  -5 -11   -0.20    0.60
   6  -5 -11    1.11    0.86
   6  -5 -11    1.77    0.69
   5  -5 -11   29.51    1.76
   5  -5 -11   28.39    1.92
   5  -5 -11   31.28    1.76
  -5   5  11   28.37    2.14
   4  -5 -11    8.99    0.94
   4  -5 -11    8.77    1.02
   4  -5 -11    7.39    0.87
  -4   5  11    5.03    1.12
  -4   5  11    7.23    1.05
   3  -5 -11    0.79    0.44
   3  -5 -11    2.02    0.62
   3  -5 -11    2.50    0.49
  -3   5  11    1.94    0.84
  -3   5  11    0.91    0.91
   2  -5 -11   20.28    1.25
   2  -5 -11   21.08    1.19
   2  -5 -11   26.78    2.23
  -2   5  11   19.31    1.59
  -2   5  11   18.17    1.88
   1  -5 -11    6.27    1.13
   1  -5 -11    4.89    0.58
   1  -5 -11    5.02    0.67
   1  -5 -11    6.66    0.78
  -1   5  11    5.40    1.13
  -1   5  11    4.27    0.83
   0  -5 -11   21.01    1.08
   0  -5 -11   20.82    1.34
   0  -5 -11   20.21    1.86
   0  -5 -11   22.01    2.15
   0   5  11   22.14    1.64
   0   5  11   21.12    1.84
  -1  -5 -11   21.22    1.31
  -1  -5 -11   19.49    1.82
  -1  -5 -11   22.03    1.01
  -1  -5 -11   17.91    1.79
   1   5  11   20.67    1.63
   1   5  11   22.43    1.80
  -2  -5 -11  193.20    8.56
  -2  -5 -11  203.25    8.07
  -2  -5 -11  212.46    8.35
   2   5  11  197.35    8.71
   2   5  11  204.08    8.79
  -3  -5 -11   50.65    2.32
  -3  -5 -11   47.59    2.58
   3   5  11   48.70    2.80
   3   5  11   47.09    2.81
  -4  -5 -11    1.26    0.43
  -4  -5 -11    0.88    0.65
   4   5  11    1.55    0.80
   4   5  11    0.17    0.73
  -5  -5 -11   14.96    0.91
  -5  -5 -11   16.95    1.00
   5   5  11   17.03    1.87
   5   5  11   16.24    1.77
   6   5  11    1.00    1.00
   6   5  11    0.10    1.05
   7   5  11   -0.65    1.23
   7   5  11    0.97    1.24
   6  -6 -11   20.72    1.70
   6  -6 -11   19.46    1.89
   6  -6 -11   20.89    1.69
   5  -6 -11   14.89    1.60
   5  -6 -11   16.83    1.37
   5  -6 -11   16.63    1.44
  -5   6  11   15.33    1.77
   4  -6 -11    3.30    0.66
   4  -6 -11    4.54    0.83
   4  -6 -11    4.68    0.72
  -4   6  11    5.13    1.17
   3  -6 -11    2.64    0.54
   3  -6 -11    1.61    0.64
   3  -6 -11    2.50    0.55
  -3   6  11    1.82    0.94
   2  -6 -11   10.63    0.89
   2  -6 -11   10.87    0.93
   2  -6 -11   10.00    1.31
   2  -6 -11   10.18    1.04
  -2   6  11   10.20    1.31
  -2   6  11    8.92    1.25
   1  -6 -11   43.30    2.27
   1  -6 -11   45.59    2.01
   1  -6 -11   41.50    2.67
  -1   6  11   37.40    2.38
  -1   6  11   43.81    2.68
   0  -6 -11  140.39    5.71
   0  -6 -11  143.52    5.90
   0  -6 -11  144.24    5.93
   0  -6 -11  129.08    6.26
   0   6  11  137.98    6.36
   0   6  11  137.76    6.17
  -1  -6 -11   16.33    1.94
  -1  -6 -11   16.00    0.84
  -1  -6 -11   15.60    1.15
   1   6  11   13.97    1.70
   1   6  11   15.99    1.49
  -2  -6 -11    0.51    0.43
  -2  -6 -11    0.11    0.17
  -2  -6 -11    1.45    0.83
   2   6  11    0.33    0.68
   2   6  11   -0.34    0.81
  -3  -6 -11   11.57    1.28
  -3  -6 -11   12.85    1.07
   3   6  11   12.00    1.60
  -4  -6 -11    2.31    0.52
  -4  -6 -11    3.22    0.78
   4   6  11    2.55    0.97
   4   6  11    1.79    0.91
  -5  -6 -11    0.15    0.40
   5   6  11   -0.10    0.94
   6   6  11   23.53    2.36
   6   6  11   24.17    2.34
   7   6  11    2.22    1.42
   7   6  11    1.68    1.42
   5  -7 -11    1.77    0.76
   5  -7 -11    2.63    0.76
   5  -7 -11    2.39    0.91
   4  -7 -11   44.89    2.37
   4  -7 -11   41.85    2.28
   4  -7 -11   42.49    2.40
  -4   7  11   38.76    2.76
   3  -7 -11   24.20    1.51
   3  -7 -11   23.25    1.62
   3  -7 -11   22.18    1.54
   2  -7 -11   37.38    1.94
   2  -7 -11   32.97    1.95
   2  -7 -11   34.13    2.49
  -2   7  11   32.42    2.14
   1  -7 -11    0.43    0.48
   1  -7 -11    1.01    1.03
   1  -7 -11    0.72    0.44
   1  -7 -11    0.37    0.38
  -1   7  11    1.01    0.72
   0  -7 -11   88.04    3.91
   0  -7 -11   96.59    4.70
   0  -7 -11   71.18    4.00
   0  -7 -11   88.59    3.65
   0   7  11   84.38    4.08
  -1  -7 -11    0.52    0.49
  -1  -7 -11    0.12    0.24
  -1  -7 -11    0.71    0.48
   1   7  11    0.33    0.71
  -2  -7 -11   -0.05    0.19
  -2  -7 -11    0.46    0.48
   2   7  11    0.41    0.76
   2   7  11   -0.92    0.92
  -3  -7 -11   -0.02    0.90
  -3  -7 -11    0.09    0.44
   3   7  11   -2.01    0.86
   3   7  11    1.52    0.85
  -4  -7 -11    7.34    0.82
  -4  -7 -11    8.93    1.10
   4   7  11    9.94    1.46
   4   7  11    7.87    1.33
  -5  -7 -11    0.05    0.46
   5   7  11   -0.83    1.04
   5   7  11    1.62    1.02
   6   7  11   11.71    1.76
   6   7  11   15.23    1.90
   7   7  11    0.35    1.45
   7   7  11    3.40    1.46
   5  -8 -11   14.06    1.53
   5  -8 -11   10.87    1.35
   5  -8 -11   11.18    1.23
   4  -8 -11   18.79    1.54
   4  -8 -11   15.97    1.45
   4  -8 -11   15.56    1.62
   3  -8 -11   22.63    1.60
   3  -8 -11   22.97    1.71
   3  -8 -11   26.22    3.11
   3  -8 -11   20.88    1.53
  -3   8  11   20.87    2.25
   2  -8 -11   13.85    1.17
   2  -8 -11   15.09    1.24
   2  -8 -11   14.41    1.94
   2  -8 -11   12.42    1.32
  -2   8  11   13.40    1.51
  -2   8  11   12.65    1.59
   1  -8 -11    1.63    1.19
   1  -8 -11    1.72    0.66
   1  -8 -11    2.34    0.57
   1  -8 -11    1.60    0.56
  -1   8  11    2.40    0.80
  -1   8  11    0.30    1.02
   0  -8 -11   14.12    0.99
   0  -8 -11   14.33    1.13
   0  -8 -11   11.97    1.22
   0   8  11   10.92    1.44
   0   8  11   11.08    1.58
  -1  -8 -11    1.20    0.36
  -1  -8 -11    0.85    0.61
  -1  -8 -11    1.65    0.47
   1   8  11    1.58    0.76
   1   8  11    0.83    0.98
  -2  -8 -11   99.65    4.43
  -2  -8 -11  102.00    4.41
  -2  -8 -11  104.87    4.12
   2   8  11   96.62    4.83
   2   8  11   95.94    4.99
   3   8  11    8.71    1.38
   3   8  11    7.50    1.32
  -4  -8 -11   -0.30    0.55
  -4  -8 -11    0.20    0.98
   4   8  11   -0.61    0.94
   4   8  11   -1.67    0.97
  -5  -8 -11    2.43    0.64
   5   8  11    2.61    1.15
   5   8  11    1.57    1.12
   6   8  11    1.61    1.35
   6   8  11    1.96    1.25
   7   8  11    9.15    1.99
   7   8  11   10.49    2.06
   4  -9 -11    8.21    1.15
   4  -9 -11   10.65    1.19
   4  -9 -11    7.20    1.21
  -4   9  11    5.68    1.57
   3  -9 -11   14.77    1.42
   3  -9 -11   16.14    1.46
   3  -9 -11   12.19    1.59
  -3   9  11   12.63    1.87
   2  -9 -11    7.12    1.14
   2  -9 -11    8.70    1.10
   2  -9 -11    6.16    0.87
  -2   9  11    5.74    1.06
  -2   9  11    6.66    1.47
   1  -9 -11   -0.86    0.53
   1  -9 -11   -0.16    0.70
   1  -9 -11   -0.46    0.52
  -1   9  11    0.86    0.81
  -1   9  11    0.29    1.08
   0  -9 -11    8.22    1.04
   0  -9 -11    6.87    0.98
   0  -9 -11    8.22    0.95
   0   9  11    5.24    1.42
   0   9  11    8.74    1.19
  -1  -9 -11   43.18    2.10
  -1  -9 -11   45.82    2.32
  -1  -9 -11   43.30    2.41
   1   9  11   45.69    3.05
  -2  -9 -11    4.42    0.48
  -2  -9 -11    5.61    0.88
  -2  -9 -11    4.14    0.69
   2   9  11    3.31    1.32
   2   9  11    4.93    1.09
  -3  -9 -11    0.55    0.21
  -3  -9 -11    0.14    0.61
   3   9  11    3.11    1.14
   3   9  11    0.52    0.97
  -4  -9 -11   19.05    1.46
   4   9  11   20.16    2.43
   4   9  11   17.33    2.18
  -5  -9 -11    7.00    0.92
   5   9  11    9.96    1.65
   5   9  11    5.76    1.68
   6   9  11   24.31    2.59
   6   9  11   24.30    3.05
   4 -10 -11   -0.13    0.84
   4 -10 -11    0.37    0.96
   3 -10 -11    1.21    0.95
   3 -10 -11    0.79    0.82
   3 -10 -11    0.33    0.74
  -3  10  11    1.26    1.69
   2 -10 -11    2.72    0.77
   2 -10 -11    0.47    0.78
   2 -10 -11    2.35    0.89
  -2  10  11    1.61    0.98
  -2  10  11    0.35    1.42
   1 -10 -11   38.80    2.26
   1 -10 -11   42.57    2.30
   1 -10 -11   41.35    2.43
  -1  10  11   42.46    3.16
  -1  10  11   35.84    2.56
   0 -10 -11    0.15    0.56
   0 -10 -11    0.84    0.73
   0 -10 -11    0.75    0.60
   0  10  11   -0.55    0.91
   0  10  11   -1.08    1.37
  -1 -10 -11    1.02    0.81
  -1 -10 -11    1.54    0.55
  -1 -10 -11    1.47    0.63
   1  10  11    0.01    1.29
   1  10  11    2.24    0.95
  -2 -10 -11    4.58    0.71
  -2 -10 -11    6.46    0.64
  -2 -10 -11    5.88    0.98
   2  10  11    3.85    1.50
   2  10  11    6.21    1.33
  -3 -10 -11    6.17    0.97
  -3 -10 -11    5.80    0.81
   3  10  11    7.49    1.66
   3  10  11    5.21    1.39
  -4 -10 -11    1.22    0.82
   4  10  11   -1.74    1.34
   4  10  11   -1.76    1.13
  -5 -10 -11    6.06    1.05
   5  10  11    5.97    1.70
   5  10  11    7.13    1.69
   3 -11 -11    5.99    1.51
   2 -11 -11    9.08    1.29
   2 -11 -11    9.79    1.28
   2 -11 -11   10.16    1.23
  -2  11  11    9.38    2.05
   1 -11 -11    5.16    0.90
   1 -11 -11    5.81    1.04
   1 -11 -11    6.91    1.09
  -1  11  11    6.76    1.33
  -1  11  11    6.58    1.86
   0 -11 -11    5.87    0.99
   0 -11 -11    6.54    0.95
   0 -11 -11    5.35    1.00
   0  11  11    6.93    1.74
   0  11  11    5.41    1.30
  -1 -11 -11    3.28    0.82
  -1 -11 -11    2.81    0.88
  -1 -11 -11    3.77    0.84
   1  11  11    1.41    1.17
   1  11  11    0.60    1.48
  -2 -11 -11    0.24    0.84
  -2 -11 -11    0.09    0.66
  -2 -11 -11    0.31    0.60
   2  11  11    3.16    1.53
   2  11  11   -0.50    1.21
  -3 -11 -11    0.14    0.58
  -3 -11 -11    1.32    0.94
   3  11  11    0.96    1.36
   3  11  11    0.13    1.44
  -4 -11 -11    0.80    1.02
   4  11  11    0.91    1.41
   4  11  11    0.16    1.65
   5  11  11    5.02    1.68
   1 -12 -11   -1.35    0.79
   1 -12 -11    0.96    1.11
  -1  12  11    1.63    1.97
   0 -12 -11    1.45    1.09
   0 -12 -11    3.76    1.13
   0 -12 -11    1.20    0.84
   0  12  11    2.82    1.35
   0  12  11    3.44    1.87
  -1 -12 -11    2.34    0.96
  -1 -12 -11    5.70    1.05
  -1 -12 -11    3.65    0.89
   1  12  11    4.58    1.50
   1  12  11    4.13    1.81
  -2 -12 -11    3.42    1.05
  -2 -12 -11    2.53    0.84
   2  12  11    3.69    1.64
   2  12  11    0.51    1.83
  -3 -12 -11    1.36    0.77
  -3 -12 -11    0.36    1.03
   3  12  11    1.68    1.98
   3  12  11    2.56    1.62
   2   5 -12   -2.45    1.20
  -2  -5  12    0.40    1.35
   1   5 -12    1.20    1.11
  -1  -5  12    0.48    1.39
   0   5 -12   22.10    2.18
  -1   5 -12    8.93    1.47
   1  -5  12    7.60    1.52
  -2   5 -12    1.13    1.26
   2  -5  12   -1.38    1.33
   3  -5  12    5.93    1.56
   3   4 -12   -2.51    1.11
   3   4 -12    0.28    0.61
  -3  -4  12    1.40    1.38
   2   4 -12    0.53    0.53
   2   4 -12   -1.64    1.04
  -2  -4  12    1.96    1.23
   1   4 -12    2.02    1.08
  -1  -4  12    3.49    1.25
   0   4 -12    6.98    1.17
   0  -4  12    7.72    1.48
  -1   4 -12   -0.04    0.93
   1  -4  12    3.84    1.32
  -2   4 -12    0.69    0.96
   2  -4  12   -0.44    1.21
  -3   4 -12   12.53    1.61
   3  -4  12    8.15    1.62
   4  -4  12    8.18    1.70
   4   3 -12    0.84    1.06
   4   3 -12    2.57    0.69
  -4  -3  12    2.44    1.43
   3   3 -12   11.71    1.52
   3   3 -12   11.02    1.13
  -3  -3  12    7.83    1.48
   2   3 -12    9.04    1.01
   2   3 -12    8.67    1.28
  -2  -3  12    9.50    1.51
   1   3 -12   52.63    2.51
   1   3 -12   52.41    2.97
  -1  -3  12   49.53    3.32
   0   3 -12   11.78    1.34
  -1   3 -12   24.88    1.91
   1  -3  12   24.76    2.39
  -2   3 -12    0.25    0.76
   2  -3  12   -0.49    1.20
  -3   3 -12    0.96    0.76
   3  -3  12    0.88    1.01
   3  -3  12    0.48    1.29
   4  -3  12    4.45    1.14
   4  -3  12    0.56    1.39
   5  -3  12   -0.52    1.14
   5  -3  12    0.85    1.53
   5   2 -12    1.30    0.61
   5   2 -12    2.72    1.19
  -5  -2  12    2.62    1.50
   4   2 -12    4.82    1.11
   4   2 -12    5.17    0.75
  -4  -2  12    5.57    1.38
   3   2 -12    0.41    0.52
   3   2 -12   -0.36    0.79
  -3  -2  12   -1.48    1.03
   2   2 -12    4.27    1.00
   2   2 -12    5.17    0.66
  -2  -2  12    5.23    1.36
   1   2 -12    1.50    0.50
   1   2 -12    2.14    0.90
  -1  -2  12    2.12    1.01
   0   2 -12    0.80    0.74
   0   2 -12    0.02    0.39
   0  -2  12   -0.36    0.93
  -1   2 -12    0.44    0.80
   1  -2  12    0.33    0.85
   1  -2  12    0.75    0.99
  -2   2 -12   35.49    2.75
  -2   2 -12   28.70    1.90
   2  -2  12   30.71    2.15
   2  -2  12   30.49    2.49
  -3   2 -12   24.37    1.63
   3  -2  12   28.02    2.39
   3  -2  12   27.64    2.15
   4  -2  12    1.29    0.96
   4  -2  12    1.39    1.28
   5  -2  12    6.49    1.69
   5  -2  12    9.30    1.42
   6  -2  12    8.72    1.56
   6  -2  12    8.84    1.82
   5   1 -12    0.76    1.03
   5   1 -12    0.08    0.51
  -5  -1  12    0.07    1.42
   4   1 -12    0.37    0.45
   4   1 -12   -0.56    0.89
  -4  -1  12    1.54    1.13
   3   1 -12   11.43    0.98
   3   1 -12   13.07    1.63
  -3  -1  12   11.24    1.57
   2   1 -12    2.71    0.74
   2   1 -12    1.75    0.47
  -2  -1  12    0.55    0.97
   1   1 -12   -0.26    0.36
   1   1 -12   -0.50    0.61
  -1  -1  12   -0.18    0.84
   0   1 -12   85.31    4.22
   0   1 -12   91.65    4.11
   0  -1  12   86.13    4.42
   0  -1  12   88.63    4.32
  -1   1 -12   13.13    1.31
  -1   1 -12   13.63    0.97
   1  -1  12   11.90    1.49
   1  -1  12   13.07    1.73
  -2   1 -12   17.49    1.47
  -2   1 -12   16.98    1.80
   2  -1  12   22.17    1.49
   2  -1  12   17.56    1.70
   2  -1  12   16.17    1.90
  -3   1 -12   39.22    1.98
  -3   1 -12   35.07    2.32
   3  -1  12   34.76    1.76
   3  -1  12   36.31    2.57
   3  -1  12   38.95    2.37
  -4   1 -12   33.48    1.62
   4  -1  12   34.77    2.60
   4  -1  12   34.17    1.68
   4  -1  12   35.72    2.42
   5  -1  12   -0.08    0.95
   5  -1  12    0.16    1.18
   6  -1  12    1.57    1.27
   6  -1  12    2.22    1.44
   5   0 -12    1.54    0.98
   5   0 -12    0.21    0.53
  -5   0  12    1.50    1.19
   4   0 -12   16.25    1.08
   4   0 -12   13.31    1.67
  -4   0  12   12.57    1.55
   3   0 -12   12.48    1.48
   3   0 -12   11.61    0.91
  -3   0  12   10.29    1.45
   2   0 -12    4.22    0.87
   2   0 -12    4.54    0.55
  -2   0  12    6.22    1.21
   1   0 -12    0.11    0.43
   1   0 -12   -0.37    0.61
  -1   0  12   -0.42    0.86
   0   0 -12   21.90    1.23
   0   0  12   25.09    1.99
   0   0  12   23.84    1.79
  -1   0 -12    1.94    0.67
  -1   0 -12    1.13    1.44
  -1   0 -12    2.05    0.39
   1   0  12    2.02    0.88
   1   0  12    1.78    0.45
   1   0  12    0.76    0.95
  -2   0 -12    1.80    1.14
  -2   0 -12    3.60    0.71
   2   0  12    3.02    0.45
   2   0  12    2.76    1.47
  -3   0 -12   14.57    1.67
  -3   0 -12   13.79    1.18
   3   0  12   15.50    1.60
   3   0  12   13.26    0.91
  -4   0 -12   -0.58    0.37
   4   0  12    0.43    0.75
   4   0  12    0.12    0.36
   5   0  12   13.95    1.83
   6   0  12    0.80    1.19
   6   0  12    0.41    1.30
   7   0  12   -0.40    1.40
   6  -1 -12    1.32    1.10
   6  -1 -12    3.04    0.70
   5  -1 -12    7.17    1.17
   5  -1 -12    7.46    0.80
  -5   1  12    4.71    1.32
   4  -1 -12    2.02    0.92
   4  -1 -12    2.18    0.52
   3  -1 -12    8.47    1.11
   3  -1 -12   11.50    0.87
  -3   1  12    9.02    1.30
   2  -1 -12    3.32    0.46
   2  -1 -12    4.51    0.81
  -2   1  12    1.22    0.95
   1  -1 -12    3.13    0.73
   1  -1 -12    3.27    0.45
  -1   1  12    2.45    0.95
  -1   1  12    4.16    0.96
   0  -1 -12   17.06    1.33
   0  -1 -12   15.30    0.93
   0   1  12   15.78    1.12
  -1  -1 -12   15.08    1.24
  -1  -1 -12   14.32    0.90
  -1  -1 -12   15.62    1.98
   1   1  12   14.95    1.01
   1   1  12   16.92    1.67
   1   1  12   17.45    1.77
  -2  -1 -12   71.30    3.66
  -2  -1 -12   70.53    3.05
  -2  -1 -12   71.88    3.29
   2   1  12   73.03    3.74
   2   1  12   68.70    3.06
   2   1  12   76.11    4.39
  -3  -1 -12   32.72    1.78
  -3  -1 -12   34.64    2.14
   3   1  12   32.04    1.55
   3   1  12   29.19    2.28
   3   1  12   34.63    2.24
  -4  -1 -12   16.49    1.03
  -4  -1 -12   14.94    1.23
   4   1  12   16.25    1.80
   4   1  12   18.39    0.97
   4   1  12   17.57    1.71
   5   1  12   27.26    2.26
   5   1  12   25.45    2.16
   6   1  12    1.71    1.23
   7   1  12    1.92    1.43
   7   1  12    0.28    1.42
   6  -2 -12    6.11    1.23
   6  -2 -12    4.89    0.76
   5  -2 -12   51.45    2.90
   5  -2 -12   55.34    2.51
  -5   2  12   48.47    3.10
   4  -2 -12   -0.05    0.65
   4  -2 -12   -0.89    0.41
  -4   2  12   -0.29    0.93
   3  -2 -12   69.56    3.00
   3  -2 -12   66.41    3.27
  -3   2  12   65.49    3.58
   2  -2 -12   57.55    2.86
  -2   2  12   57.95    3.26
   1  -2 -12   67.09    2.90
   0  -2 -12    0.65    0.50
   0  -2 -12    0.84    0.29
   0   2  12    0.40    0.85
   0   2  12    0.58    0.65
   0   2  12    0.71    0.45
  -1  -2 -12   30.15    1.67
  -1  -2 -12   24.46    2.22
  -1  -2 -12   27.06    1.32
   1   2  12   26.21    1.45
   1   2  12   27.68    2.06
   1   2  12   27.44    1.95
  -2  -2 -12    0.41    0.26
  -2  -2 -12   -0.59    0.84
  -2  -2 -12    0.63    0.51
   2   2  12   -1.34    0.72
   2   2  12    0.18    0.38
   2   2  12    0.36    0.73
  -3  -2 -12   -0.04    0.82
  -3  -2 -12   -0.09    0.45
   3   2  12    0.80    0.71
   3   2  12   -0.23    0.78
   3   2  12    0.02    0.37
  -4  -2 -12    0.08    0.89
  -4  -2 -12    0.65    0.44
   4   2  12    1.55    0.96
   4   2  12    0.29    0.36
   4   2  12    1.25    0.83
   5   2  12    8.51    1.40
   5   2  12    5.81    1.30
   6   2  12   20.69    2.77
   6   2  12   17.84    2.21
   7   2  12   15.74    1.97
   7   2  12   16.99    2.04
   6  -3 -12    2.70    0.74
   6  -3 -12    5.20    1.14
   5  -3 -12    7.55    0.92
   5  -3 -12    4.83    0.96
   4  -3 -12   10.29    1.42
   4  -3 -12   12.15    0.99
  -4   3  12   13.28    1.79
   3  -3 -12   11.08    1.20
   3  -3 -12    8.39    0.82
  -3   3  12   10.16    1.37
   2  -3 -12   30.71    1.83
   2  -3 -12   32.37    1.58
  -2   3  12   27.97    2.44
  -2   3  12   31.89    2.18
   1  -3 -12   29.45    1.37
  -1   3  12   29.24    2.15
  -1   3  12   22.84    2.98
  -1   3  12   24.23    1.67
   0  -3 -12   15.97    0.89
   0  -3 -12   15.65    1.23
   0   3  12   15.97    1.49
   0   3  12   15.07    1.17
   0   3  12   16.59    1.70
  -1  -3 -12    5.51    0.75
  -1  -3 -12    3.80    1.12
  -1  -3 -12    5.40    0.49
   1   3  12    4.60    1.01
   1   3  12    5.62    1.03
   1   3  12    5.10    0.63
  -2  -3 -12   15.05    0.80
  -2  -3 -12   12.95    1.72
  -2  -3 -12   15.83    1.16
   2   3  12   16.78    1.72
   2   3  12   14.02    1.00
   2   3  12   13.38    1.69
  -3  -3 -12   31.78    1.72
  -3  -3 -12   31.93    2.10
   3   3  12   31.07    2.26
   3   3  12   31.65    2.15
   3   3  12   30.64    1.57
  -4  -3 -12    5.10    0.82
  -4  -3 -12    4.11    0.57
   4   3  12    3.97    1.02
   4   3  12    4.14    0.41
   4   3  12    4.14    1.08
   5   3  12   10.74    1.49
   5   3  12    9.35    1.47
   6   3  12    2.43    1.25
   7   3  12    1.78    1.39
   7   3  12    1.25    1.42
   6  -4 -12    6.86    0.86
   6  -4 -12   10.24    1.31
   5  -4 -12   -1.00    0.73
   5  -4 -12   -0.53    0.43
   4  -4 -12    1.18    0.73
   4  -4 -12    1.95    0.52
  -4   4  12    2.73    1.01
   3  -4 -12    9.73    1.19
   3  -4 -12   10.81    0.85
  -3   4  12    9.84    1.35
   2  -4 -12   30.01    1.50
   2  -4 -12   31.49    1.79
  -2   4  12   24.57    2.31
  -2   4  12   28.78    2.50
   1  -4 -12   47.02    2.68
   1  -4 -12   50.78    2.17
  -1   4  12   44.10    2.45
  -1   4  12   49.64    2.73
   0  -4 -12    1.34    0.53
   0  -4 -12    0.93    0.30
   0   4  12    2.25    0.80
   0   4  12    2.01    0.58
   0   4  12    0.22    0.86
  -1  -4 -12   16.62    1.18
  -1  -4 -12   14.86    1.87
  -1  -4 -12   17.30    0.86
   1   4  12   16.86    1.59
   1   4  12   15.50    1.16
   1   4  12   15.51    1.73
  -2  -4 -12   69.55    3.59
  -2  -4 -12   72.82    2.93
  -2  -4 -12   75.87    3.26
   2   4  12   71.04    3.74
   2   4  12   65.42    3.07
   2   4  12   69.04    4.34
  -3  -4 -12   65.99    3.02
  -3  -4 -12   63.83    3.28
   3   4  12   68.53    3.52
   3   4  12   66.52    3.55
  -4  -4 -12    3.88    0.58
  -4  -4 -12    2.45    0.76
   4   4  12    2.97    0.97
   4   4  12    3.37    1.06
   5   4  12   11.45    2.55
   5   4  12    8.33    1.45
   6   4  12    9.19    1.57
   6   4  12   11.59    1.76
   7   4  12    2.58    1.52
   7   4  12    3.21    1.52
   6  -5 -12   -0.44    0.67
   5  -5 -12    2.79    0.65
   5  -5 -12    2.88    0.68
   5  -5 -12    3.40    0.91
  -5   5  12    1.93    1.25
   4  -5 -12   13.20    1.41
   4  -5 -12   13.05    1.16
   4  -5 -12   14.55    1.09
  -4   5  12   12.77    1.75
   3  -5 -12   46.14    2.21
   3  -5 -12   46.67    2.33
   3  -5 -12   45.96    2.46
  -3   5  12   45.86    2.87
   1  -5 -12   20.26    1.11
  -1   5  12   20.49    1.70
  -1   5  12   19.61    2.28
   0  -5 -12    0.63    0.29
   0  -5 -12    0.29    0.60
   0   5  12    0.19    0.65
  -1  -5 -12    1.93    0.53
  -1  -5 -12    1.57    0.28
   1   5  12   -0.07    1.17
   1   5  12    1.39    0.68
  -2  -5 -12   30.92    2.26
  -2  -5 -12   34.84    1.76
  -2  -5 -12   32.82    1.39
   2   5  12   24.52    2.60
   2   5  12   29.11    2.64
  -3  -5 -12  110.51    4.61
  -3  -5 -12  100.62    4.85
   3   5  12  109.13    5.12
  -4  -5 -12    1.80    0.53
  -4  -5 -12    2.17    0.80
   4   5  12    0.66    0.98
  -5  -5 -12    8.21    0.74
   5   5  12    8.43    1.42
   5   5  12    9.82    1.52
   6   5  12   -0.37    1.21
   6   5  12    0.19    1.25
   7   5  12    2.68    1.56
   7   5  12    3.78    1.45
   5  -6 -12    1.44    0.69
   5  -6 -12    2.95    0.91
   5  -6 -12    3.36    0.75
  -5   6  12    4.09    1.40
   4  -6 -12    3.27    0.67
   4  -6 -12    3.27    0.69
   4  -6 -12    2.63    0.82
  -4   6  12    3.69    1.27
   3  -6 -12    5.79    0.69
   3  -6 -12    7.36    0.98
   3  -6 -12    4.44    0.71
  -3   6  12    7.42    1.35
   2  -6 -12   43.77    2.31
   2  -6 -12   44.07    2.22
   2  -6 -12   43.11    2.08
  -2   6  12   40.95    2.80
   1  -6 -12    5.33    0.75
   1  -6 -12    5.55    0.67
   1  -6 -12    5.25    0.73
  -1   6  12    4.56    1.20
  -1   6  12    5.28    0.98
   0  -6 -12   31.02    1.81
   0  -6 -12   32.01    1.51
   0   6  12   30.91    2.42
   0   6  12   31.14    2.13
  -1  -6 -12   21.88    1.07
   1   6  12   22.34    2.00
  -2  -6 -12   43.72    1.84
  -2  -6 -12   43.91    2.24
   2   6  12   43.63    2.65
   2   6  12   41.64    2.78
  -3  -6 -12    9.97    1.24
  -3  -6 -12    8.67    1.05
   3   6  12   10.27    1.37
   3   6  12   10.56    1.48
  -4  -6 -12    0.79    0.50
  -4  -6 -12    0.66    0.79
   4   6  12    1.03    0.97
   4   6  12   -0.50    0.91
  -5  -6 -12    9.99    0.92
   5   6  12   15.65    2.08
   5   6  12   11.71    1.66
   6   6  12   -0.65    1.27
   6   6  12    0.92    1.20
   7   6  12    3.68    1.50
   7   6  12   -0.65    1.56
   5  -7 -12    7.60    1.21
   5  -7 -12    9.03    1.07
   5  -7 -12    9.09    1.11
   4  -7 -12    7.10    1.00
   4  -7 -12    5.08    0.83
   4  -7 -12    6.78    1.07
  -4   7  12    4.91    1.45
   3  -7 -12   -0.10    0.55
   3  -7 -12   -0.94    0.64
   3  -7 -12    0.24    0.51
  -3   7  12    2.49    1.18
   2  -7 -12   16.60    1.46
   2  -7 -12   17.56    1.21
   2  -7 -12   19.22    1.37
  -2   7  12   18.03    2.19
   1  -7 -12   27.09    1.72
   1  -7 -12   26.74    1.47
   1  -7 -12   28.70    1.62
  -1   7  12   27.14    2.42
  -1   7  12   26.60    2.00
   0  -7 -12   84.16    3.48
   0  -7 -12   81.73    3.69
   0  -7 -12   81.47    3.74
   0   7  12   81.14    4.30
   0   7  12   76.36    4.38
  -1  -7 -12    0.46    0.54
  -1  -7 -12    0.27    0.26
   1   7  12    2.06    1.07
   1   7  12   -0.10    0.70
  -2  -7 -12   12.22    0.66
  -2  -7 -12    9.65    1.24
   2   7  12   11.33    1.61
   2   7  12   15.19    1.67
  -3  -7 -12    3.69    0.70
   3   7  12    3.23    1.15
   3   7  12    3.37    1.13
  -4  -7 -12   16.55    1.30
  -4  -7 -12   15.42    1.45
   4   7  12   15.70    2.01
   4   7  12   18.68    2.18
  -5  -7 -12    6.36    0.74
   5   7  12    4.71    1.41
   5   7  12    7.49    1.50
   6   7  12    3.03    1.46
   6   7  12    2.51    1.55
   7   7  12    0.11    1.65
   7   7  12    0.00    1.68
   4  -8 -12    4.87    0.94
   4  -8 -12    6.47    0.94
   4  -8 -12    4.59    0.96
  -4   8  12    3.82    1.64
   3  -8 -12   16.72    1.60
   3  -8 -12   18.75    1.45
   3  -8 -12   17.75    1.47
  -3   8  12   16.11    1.98
   2  -8 -12   33.48    2.08
   2  -8 -12   34.62    2.01
   2  -8 -12   34.08    1.88
  -2   8  12   31.82    2.77
   1  -8 -12   15.51    1.42
   1  -8 -12   16.58    1.30
   1  -8 -12   14.83    1.31
  -1   8  12   20.16    2.27
   0  -8 -12    0.20    0.39
   0  -8 -12    0.61    0.60
   0  -8 -12    0.96    0.47
   0   8  12   -0.39    1.05
   0   8  12   -0.16    0.83
  -1  -8 -12    2.15    0.39
  -1  -8 -12    2.53    0.71
  -1  -8 -12    1.81    0.49
   1   8  12    2.78    1.20
   1   8  12    2.86    0.92
  -2  -8 -12    3.06    0.35
  -2  -8 -12    3.09    0.72
   2   8  12    2.75    1.26
   2   8  12    2.19    1.00
  -3  -8 -12    1.20    0.62
   3   8  12    2.99    1.17
   3   8  12    2.50    1.07
  -4  -8 -12    4.24    0.88
   4   8  12    3.52    1.28
   4   8  12    3.74    1.37
  -5  -8 -12   -0.72    0.63
   5   8  12   -1.28    1.24
   5   8  12    1.28    1.28
   6   8  12   27.63    2.76
   6   8  12   26.89    3.07
   4  -9 -12    2.18    0.98
   4  -9 -12    1.04    0.84
   4  -9 -12    0.42    0.78
  -4   9  12    2.83    1.69
   3  -9 -12    1.65    0.92
   3  -9 -12    2.18    0.80
   3  -9 -12    3.39    0.81
  -3   9  12    4.33    1.67
   2  -9 -12    0.21    0.63
   2  -9 -12   -1.06    0.73
   2  -9 -12   -0.86    0.56
  -2   9  12    0.52    1.36
   1  -9 -12   11.14    1.19
   1  -9 -12   11.64    1.40
   1  -9 -12   10.72    1.12
  -1   9  12    9.41    1.75
  -1   9  12    9.62    1.53
   0  -9 -12    2.40    0.63
   0  -9 -12    1.34    0.77
   0  -9 -12    2.28    0.58
   0   9  12    3.63    0.97
   0   9  12    4.32    1.41
  -1  -9 -12   14.57    1.00
  -1  -9 -12   15.63    1.23
  -1  -9 -12   13.80    1.41
   1   9  12   11.93    1.91
   1   9  12   14.41    1.76
  -2  -9 -12   12.64    1.34
  -2  -9 -12   11.84    1.16
  -2  -9 -12   13.50    0.80
   2   9  12   14.61    1.95
   2   9  12   15.48    1.93
  -3  -9 -12    7.92    1.01
   3   9  12    6.91    1.66
   3   9  12    7.89    1.51
  -4  -9 -12    0.43    0.71
   4   9  12    1.47    1.25
   4   9  12    1.14    1.34
   5   9  12    0.05    1.50
   5   9  12    1.82    1.39
   6   9  12    5.36    1.77
   6   9  12    1.83    1.77
   3 -10 -12    2.39    0.91
   3 -10 -12    3.01    1.00
   3 -10 -12    2.12    0.92
  -3  10  12    2.61    1.98
   2 -10 -12   19.38    1.59
   2 -10 -12   16.17    1.55
   2 -10 -12   15.85    1.79
  -2  10  12   15.99    1.94
  -2  10  12   16.50    2.19
   1 -10 -12    6.24    1.07
   1 -10 -12    6.15    0.92
   1 -10 -12    6.28    0.96
  -1  10  12    6.65    1.67
  -1  10  12    6.64    1.28
   0 -10 -12   14.31    1.44
   0 -10 -12   17.02    1.46
   0 -10 -12   15.94    1.60
   0  10  12   15.54    1.97
   0  10  12   15.72    2.09
  -1 -10 -12    0.20    0.51
  -1 -10 -12   -0.55    0.70
  -1 -10 -12    0.62    0.49
   1  10  12    0.39    1.39
   1  10  12    0.59    1.00
  -2 -10 -12    5.45    0.80
  -2 -10 -12    6.37    0.76
  -2 -10 -12    5.20    0.92
   2  10  12    5.99    1.69
   2  10  12    5.24    1.41
  -3 -10 -12    1.39    0.81
   3  10  12    3.33    1.66
   3  10  12    3.12    1.37
  -4 -10 -12   28.26    2.11
   4  10  12   29.52    2.87
   4  10  12   28.41    3.08
  -5 -10 -12    3.04    0.99
   5  10  12    5.93    1.89
   5  10  12    4.67    1.70
   2 -11 -12    6.34    1.11
   2 -11 -12    5.28    1.00
   2 -11 -12    2.78    1.18
  -2  11  12    6.42    2.03
   1 -11 -12    0.69    1.00
   1 -11 -12    2.19    0.80
   1 -11 -12   -0.15    0.87
  -1  11  12    0.33    1.67
  -1  11  12    1.10    1.23
   0 -11 -12    0.10    0.64
   0 -11 -12    0.73    0.92
   0 -11 -12    0.53    0.80
   0  11  12    1.70    1.25
   0  11  12    0.64    1.66
  -1 -11 -12   33.91    2.10
  -1 -11 -12   34.01    2.31
  -1 -11 -12   31.87    1.93
   1  11  12   30.54    2.79
   1  11  12   32.58    3.32
  -2 -11 -12    2.08    0.90
  -2 -11 -12    0.53    0.63
   2  11  12   -2.65    1.24
   2  11  12    1.50    1.66
  -3 -11 -12    0.37    0.89
   3  11  12   -0.31    1.43
   3  11  12   -0.66    1.64
  -4 -11 -12    1.34    1.04
   4  11  12    1.39    1.62
   4  11  12    0.86    1.92
   0 -12 -12   61.42    3.35
   0 -12 -12   66.08    3.33
   0  12  12   60.24    3.88
  -1 -12 -12   -0.25    0.77
   1  12  12   -0.04    2.04
   1  12  12    2.25    1.50
  -2 -12 -12    4.81    0.88
   2  12  12    6.78    1.85
   2  12  12    7.31    2.43
   2   4 -13    5.94    0.84
   2   4 -13    3.61    1.47
  -2  -4  13    2.74    1.61
   1   4 -13    0.92    1.25
  -1  -4  13    2.59    1.42
   0   4 -13    1.03    1.16
   0  -4  13    2.69    1.45
  -1   4 -13    0.50    1.14
   1  -4  13    3.01    1.44
  -2   4 -13    1.49    1.28
   2  -4  13   -0.52    1.42
   3  -4  13    2.68    1.55
   3   3 -13   -0.23    0.62
   3   3 -13    1.43    1.21
  -3  -3  13    1.44    1.32
   2   3 -13    1.33    1.09
   2   3 -13    2.91    0.72
  -2  -3  13    0.06    1.32
   1   3 -13    1.09    0.59
   1   3 -13    0.20    1.06
  -1  -3  13   -2.94    1.19
   0   3 -13    6.79    1.24
   0  -3  13    2.39    1.38
  -1   3 -13   40.27    2.61
  -2   3 -13   10.43    1.29
   2  -3  13    8.04    1.63
  -3   3 -13   11.16    1.54
   3  -3  13    7.76    1.49
   3  -3  13    7.26    1.72
   4  -3  13    2.61    1.33
   4  -3  13    0.88    1.53
   4   2 -13   12.60    1.66
  -4  -2  13   12.07    1.81
   3   2 -13   15.68    1.69
   3   2 -13   14.17    1.23
  -3  -2  13   11.21    1.73
   2   2 -13   -1.31    0.87
   2   2 -13    0.61    0.57
  -2  -2  13    1.45    1.28
   1   2 -13   -0.31    0.87
   1   2 -13    0.78    0.49
   0   2 -13    0.93    0.48
   0   2 -13    0.34    0.88
   0  -2  13   -1.30    0.94
  -1   2 -13   -0.28    0.86
   1  -2  13   -0.27    1.17
  -2   2 -13   51.25    2.92
   2  -2  13   58.29    3.29
   2  -2  13   58.16    3.57
  -3   2 -13    8.92    1.07
   3  -2  13    8.01    1.53
   3  -2  13    7.66    1.33
   4  -2  13    2.46    1.24
   4  -2  13    0.39    1.45
   5  -2  13   13.57    2.15
   5  -2  13   12.32    1.83
   4   1 -13    2.79    0.62
   4   1 -13    1.07    1.11
  -4  -1  13    3.91    1.44
   3   1 -13    9.16    0.99
   3   1 -13   10.11    1.33
  -3  -1  13    5.81    1.43
   2   1 -13   32.84    2.31
   2   1 -13   32.96    1.80
  -2  -1  13   34.08    2.71
   1   1 -13   17.94    1.72
   1   1 -13   18.81    1.22
  -1  -1  13   16.51    2.15
   0   1 -13   10.27    1.22
   0   1 -13   10.25    0.94
   0  -1  13    9.90    1.62
  -1   1 -13   -0.24    0.71
   1  -1  13    0.62    1.01
   1  -1  13    0.60    0.92
  -2   1 -13   32.38    2.04
   2  -1  13   24.82    2.48
   2  -1  13   33.81    2.42
  -3   1 -13    7.87    0.96
   3  -1  13    7.93    1.53
   3  -1  13    7.71    1.30
   4  -1  13    7.83    1.32
   4  -1  13    5.05    1.55
   5  -1  13    9.92    1.84
   5  -1  13    6.99    1.47
   5   0 -13    1.81    0.63
   5   0 -13    2.40    1.20
  -5   0  13    1.93    1.53
   4   0 -13    0.68    0.89
   4   0 -13    0.28    0.49
  -4   0  13    2.53    1.30
   3   0 -13   -0.46    0.87
   3   0 -13    0.33    0.48
   2   0 -13   16.18    1.68
   2   0 -13   15.95    1.10
  -2   0  13   17.07    2.10
   1   0 -13    1.13    0.40
   1   0 -13    1.75    0.83
  -1   0  13    1.44    0.98
   0   0 -13    1.38    0.74
   0   0 -13    1.89    0.46
   0   0  13    2.10    0.96
  -1   0 -13    0.96    0.41
  -1   0 -13    1.47    0.68
   1   0  13    0.15    1.02
   1   0  13    0.17    0.79
  -2   0 -13    7.61    0.97
  -2   0 -13    6.05    1.45
   2   0  13    8.32    1.04
   2   0  13    7.23    1.35
   2   0  13    9.45    1.32
  -3   0 -13   72.40    3.39
   3   0  13   67.39    2.99
   3   0  13   66.81    3.69
   3   0  13   65.24    3.77
  -4   0 -13   10.02    0.97
   4   0  13   12.23    1.57
   4   0  13    9.26    1.59
   5   0  13    3.56    1.24
   5   0  13    5.83    1.55
   6   0  13    5.85    1.68
   6   0  13    5.86    1.61
   5  -1 -13    3.84    1.10
   5  -1 -13    6.46    0.80
  -5   1  13    2.90    1.58
   4  -1 -13    5.76    1.07
   4  -1 -13    5.13    0.66
  -4   1  13    5.53    1.46
   3  -1 -13   58.31    3.06
   3  -1 -13   59.66    2.65
  -3   1  13   51.74    3.39
   2  -1 -13    1.56    0.85
   2  -1 -13    0.90    0.43
  -2   1  13    0.32    0.98
   1  -1 -13   -0.07    0.63
   1  -1 -13    0.36    0.32
  -1   1  13    0.69    0.84
  -1   1  13   -1.29    0.89
   0  -1 -13   57.21    2.47
   0  -1 -13   55.24    2.84
   0   1  13   50.94    3.23
   0   1  13   54.07    3.08
  -1  -1 -13    1.16    0.38
   1   1  13    0.56    0.52
   1   1  13    1.32    0.96
   1   1  13    1.31    0.82
  -2  -1 -13    4.16    0.78
  -2  -1 -13    3.23    1.22
   2   1  13    3.15    0.55
   2   1  13    3.00    1.00
   2   1  13    2.02    1.04
  -3  -1 -13    2.21    1.01
  -3  -1 -13    0.64    0.63
   3   1  13    1.59    0.93
   3   1  13    1.35    0.46
   3   1  13    1.28    1.11
  -4  -1 -13    1.21    0.50
   4   1  13   -0.30    1.12
   4   1  13    2.51    1.07
   5   1  13    5.13    1.24
   5   1  13    5.91    1.48
   6   1  13   17.00    2.06
   6   1  13   15.97    2.00
   5  -2 -13    8.89    1.05
   5  -2 -13    7.38    1.24
  -5   2  13    7.96    1.60
   4  -2 -13    0.17    0.47
   4  -2 -13    0.49    0.85
  -4   2  13    1.62    1.20
   3  -2 -13    1.22    0.78
   3  -2 -13    1.81    0.47
  -3   2  13    1.10    1.08
   2  -2 -13   20.26    1.19
   2  -2 -13   20.66    1.61
  -2   2  13   20.82    2.17
   1  -2 -13    2.09    0.73
  -1   2  13    2.70    0.85
  -1   2  13    2.21    1.09
   0  -2 -13   45.33    2.44
   0  -2 -13   45.84    2.07
   0   2  13   46.30    2.75
   0   2  13   44.48    2.87
  -1  -2 -13   24.42    1.97
  -1  -2 -13   22.70    1.18
   1   2  13   20.72    1.37
   1   2  13   22.99    2.09
   1   2  13   23.48    1.88
  -2  -2 -13    8.21    0.95
  -2  -2 -13    9.17    0.70
  -2  -2 -13    8.97    1.36
   2   2  13    9.06    0.91
   2   2  13    8.79    1.26
  -3  -2 -13    8.85    1.29
  -3  -2 -13   11.25    1.11
   3   2  13   10.76    1.45
   3   2  13   10.20    0.92
   3   2  13   13.62    1.69
  -4  -2 -13    1.42    0.55
   4   2  13    2.58    1.15
   4   2  13    3.09    1.05
   5   2  13   21.92    2.52
   5   2  13   24.25    2.33
   6   2  13    5.35    1.42
   6   2  13    5.63    1.61
   5  -3 -13   18.16    1.88
   5  -3 -13   19.63    1.37
  -5   3  13   21.73    2.65
   4  -3 -13   17.95    1.23
   4  -3 -13   18.36    1.75
  -4   3  13   19.69    2.29
   3  -3 -13    2.05    0.79
   3  -3 -13    1.66    0.46
  -3   3  13    0.20    1.08
   2  -3 -13   81.51    3.40
   2  -3 -13   80.31    3.74
  -2   3  13   75.70    4.15
  -2   3  13   73.90    3.99
   1  -3 -13   77.83    3.63
   1  -3 -13   79.66    3.32
  -1   3  13   74.13    4.10
  -1   3  13   76.11    3.93
   0  -3 -13   11.66    0.80
   0  -3 -13   13.47    1.26
   0   3  13   11.67    1.25
   0   3  13   12.30    1.56
   0   3  13   13.42    1.54
  -1  -3 -13   71.96    2.99
  -1  -3 -13   74.65    3.74
   1   3  13   70.41    3.81
   1   3  13   64.07    3.15
   1   3  13   71.83    3.68
  -2  -3 -13    1.96    0.63
  -2  -3 -13   -0.04    1.09
  -2  -3 -13    2.05    0.34
   2   3  13    1.94    0.57
   2   3  13    1.08    0.79
   2   3  13    2.61    1.03
  -3  -3 -13    4.65    1.11
  -3  -3 -13    5.88    0.80
   3   3  13    5.43    1.19
   3   3  13    4.59    0.97
   3   3  13    6.26    0.65
  -4  -3 -13    7.37    0.95
   4   3  13    9.32    1.50
   4   3  13    9.66    1.46
   5   3  13   16.47    1.95
   5   3  13   17.56    2.16
   6   3  13    7.35    1.77
   6   3  13    8.49    1.61
   7   3  13    8.35    1.69
   7   3  13    7.97    1.97
   5  -4 -13   10.52    1.08
   4  -4 -13   13.30    1.10
   4  -4 -13   14.37    1.68
  -4   4  13   13.88    1.75
   3  -4 -13   25.76    1.83
   3  -4 -13   27.15    1.49
  -3   4  13   27.09    2.42
   2  -4 -13    0.95    0.38
   2  -4 -13    0.79    0.60
  -2   4  13   -0.88    0.77
  -2   4  13    0.31    1.01
   1  -4 -13    2.71    0.66
   1  -4 -13    2.48    0.42
  -1   4  13    1.55    1.03
  -1   4  13    2.65    0.96
   0  -4 -13   18.44    1.37
   0  -4 -13   18.87    1.03
   0   4  13   18.69    1.40
   0   4  13   16.00    1.73
   0   4  13   17.65    2.05
  -1  -4 -13    0.10    0.25
   1   4  13    1.65    1.00
   1   4  13   -0.05    0.77
   1   4  13    0.03    0.56
  -2  -4 -13    2.73    0.33
  -2  -4 -13    2.21    0.65
   2   4  13    2.59    1.08
   2   4  13    2.40    0.93
   2   4  13    2.60    0.57
  -3  -4 -13   20.48    1.97
  -3  -4 -13   23.09    1.48
   3   4  13   20.76    1.99
   3   4  13   22.21    2.13
  -4  -4 -13    0.34    0.53
   4   4  13   -0.64    1.01
   4   4  13   -0.52    0.87
   5   4  13    9.18    1.52
   5   4  13    8.84    1.63
   6   4  13    4.33    1.43
   6   4  13    2.77    1.56
   7   4  13    0.94    1.79
   7   4  13    2.25    1.58
   5  -5 -13    1.80    0.98
   5  -5 -13    0.89    0.59
  -5   5  13    3.27    1.44
   4  -5 -13    7.53    0.91
   4  -5 -13    6.77    1.08
  -4   5  13    8.72    1.65
   3  -5 -13    3.97    0.90
   3  -5 -13    2.61    0.53
  -3   5  13    2.33    1.25
   2  -5 -13    0.58    0.59
   2  -5 -13    0.25    0.37
  -2   5  13    1.65    1.09
  -2   5  13    0.28    0.85
   1  -5 -13    3.76    0.72
   1  -5 -13    4.93    0.55
  -1   5  13    3.53    1.20
  -1   5  13    4.27    1.00
   0  -5 -13  200.80    8.41
   0  -5 -13  203.15    8.12
   0   5  13  195.25    8.90
   0   5  13  202.12    8.75
  -1  -5 -13   17.29    0.91
  -1  -5 -13   17.61    1.34
   1   5  13   14.58    1.72
   1   5  13   18.45    2.06
  -2  -5 -13   22.82    1.05
  -2  -5 -13   21.41    1.45
   2   5  13   19.33    2.14
   2   5  13   22.32    1.97
  -3  -5 -13    7.84    0.90
  -3  -5 -13    7.15    1.24
   3   5  13    9.58    1.43
   3   5  13    6.85    1.27
  -4  -5 -13    0.71    0.97
   4   5  13    1.78    1.02
   4   5  13    1.50    1.16
   5   5  13   33.85    2.91
   5   5  13   36.70    2.76
   6   5  13   14.50    2.05
   6   5  13   13.67    2.06
   7   5  13    6.86    1.78
   7   5  13    5.25    1.99
   5  -6 -13   22.93    1.73
   5  -6 -13   23.07    1.67
   4  -6 -13   64.55    3.21
   4  -6 -13   59.02    2.86
   4  -6 -13   59.65    2.99
  -4   6  13   55.06    3.70
   3  -6 -13    1.09    0.51
   3  -6 -13    0.66    0.76
   3  -6 -13    0.07    0.50
  -3   6  13    1.30    1.24
   2  -6 -13   13.08    0.97
   2  -6 -13   12.10    1.09
   2  -6 -13   12.28    1.32
  -2   6  13    9.18    1.51
  -2   6  13   14.51    1.58
   1  -6 -13   29.83    1.56
   1  -6 -13   32.73    1.92
  -1   6  13   31.68    2.25
  -1   6  13   30.75    2.60
   0  -6 -13    0.06    0.59
   0  -6 -13    0.02    0.30
   0   6  13    0.47    1.02
   0   6  13    0.98    0.86
  -1  -6 -13   -0.19    0.26
  -1  -6 -13    0.07    0.59
   1   6  13    0.25    0.99
   1   6  13   -0.08    0.82
  -2  -6 -13   22.19    1.05
  -2  -6 -13   21.97    1.52
   2   6  13   24.07    2.26
   2   6  13   22.72    2.02
  -3  -6 -13   -0.11    0.55
   3   6  13   -0.17    1.09
   3   6  13   -1.48    0.85
  -4  -6 -13   -0.25    0.60
   4   6  13    1.18    1.09
   4   6  13    0.47    1.27
  -5  -6 -13    8.05    0.98
   5   6  13    7.09    1.55
   5   6  13   12.74    1.76
   6   6  13    0.66    1.60
   6   6  13    3.64    1.46
   4  -7 -13   -0.04    0.60
   4  -7 -13   -0.54    0.57
   4  -7 -13   -0.86    0.86
  -4   7  13    0.93    1.63
   3  -7 -13    8.74    1.07
   3  -7 -13    8.91    1.19
   3  -7 -13    8.60    1.08
  -3   7  13    7.38    1.57
   2  -7 -13    7.43    1.03
   2  -7 -13    8.58    1.08
   2  -7 -13   10.35    1.00
  -2   7  13   13.17    1.72
  -2   7  13   10.27    1.59
   1  -7 -13    1.25    0.67
   1  -7 -13   -0.27    0.38
  -1   7  13   -0.49    1.16
  -1   7  13    1.12    0.90
   0  -7 -13    3.73    0.79
   0  -7 -13    4.34    0.53
   0   7  13    4.16    1.33
   0   7  13    4.72    1.12
  -1  -7 -13    7.36    0.94
  -1  -7 -13    7.34    0.63
   1   7  13    4.05    1.28
   1   7  13    7.92    1.20
  -2  -7 -13    0.79    0.24
  -2  -7 -13   -0.18    0.62
   2   7  13    2.50    1.02
   2   7  13   -1.70    1.07
  -3  -7 -13    0.67    0.61
   3   7  13    0.65    1.20
   3   7  13   -1.39    0.95
  -4  -7 -13   10.75    1.23
   4   7  13   10.29    1.88
   4   7  13   12.98    1.76
  -5  -7 -13    4.19    0.74
   5   7  13    1.82    1.44
   5   7  13    4.88    1.40
   6   7  13   20.57    2.71
   6   7  13   23.57    2.98
   4  -8 -13   -0.61    0.69
   4  -8 -13    0.66    0.71
   4  -8 -13   -0.56    0.97
  -4   8  13   -0.17    1.74
   3  -8 -13   12.30    1.28
   3  -8 -13   13.07    1.62
   3  -8 -13   14.22    1.39
  -3   8  13    9.63    1.84
   2  -8 -13   29.65    1.85
   2  -8 -13   29.97    1.75
   2  -8 -13   30.00    2.03
  -2   8  13   28.71    2.36
  -2   8  13   32.91    2.93
   1  -8 -13    0.57    0.47
   1  -8 -13    0.77    0.74
   1  -8 -13    0.74    0.52
  -1   8  13    1.50    0.97
  -1   8  13   -1.59    1.24
   0  -8 -13   -0.17    0.38
   0  -8 -13   -0.15    0.69
   0  -8 -13   -0.37    0.48
   0   8  13   -1.50    1.17
   0   8  13    0.46    0.90
  -1  -8 -13   20.44    1.10
  -1  -8 -13   19.40    1.57
   1   8  13   20.09    2.54
   1   8  13   17.58    1.96
  -2  -8 -13    0.39    0.25
  -2  -8 -13    1.00    0.69
   2   8  13    0.84    1.30
   2   8  13    1.63    1.04
  -3  -8 -13   21.68    1.67
   3   8  13   22.22    2.36
   3   8  13   20.84    2.68
  -4  -8 -13    6.16    0.94
   4   8  13    7.93    1.60
   4   8  13    6.03    1.66
  -5  -8 -13    5.78    0.90
   5   8  13    4.70    1.57
   5   8  13    2.48    1.50
   6   8  13    0.91    1.76
   6   8  13    3.70    1.82
   3  -9 -13    5.52    1.00
   3  -9 -13    4.80    0.89
   3  -9 -13    4.48    1.06
  -3   9  13    5.34    1.84
   2  -9 -13   -0.20    0.64
   2  -9 -13    0.72    0.82
   2  -9 -13    0.57    0.70
  -2   9  13    0.15    1.51
  -2   9  13    0.14    1.20
   1  -9 -13   30.94    1.80
   1  -9 -13   35.71    2.02
   1  -9 -13   32.24    2.12
  -1   9  13   27.98    3.05
  -1   9  13   29.74    2.46
   0  -9 -13    4.64    0.90
   0  -9 -13    4.74    0.65
   0  -9 -13    3.30    0.66
   0   9  13    4.21    1.21
   0   9  13    4.44    1.55
  -1  -9 -13    0.38    0.41
  -1  -9 -13   -0.68    0.75
  -1  -9 -13    0.19    0.47
   1   9  13    0.41    1.41
   1   9  13    1.36    1.02
  -2  -9 -13    4.40    0.89
  -2  -9 -13    3.23    0.40
   2   9  13    5.13    1.61
   2   9  13    1.69    1.09
  -3  -9 -13    1.00    0.77
   3   9  13    0.43    1.28
   3   9  13    3.40    1.48
  -4  -9 -13    3.59    1.00
   4   9  13    2.76    1.56
   4   9  13    2.07    1.35
  -5  -9 -13    1.10    0.95
   5   9  13   -2.17    1.59
   5   9  13    0.18    1.54
   2 -10 -13    0.94    0.75
   2 -10 -13    0.40    0.83
   2 -10 -13   -0.33    0.92
  -2  10  13   -0.38    1.27
  -2  10  13   -0.21    1.72
   1 -10 -13   29.02    1.91
   1 -10 -13   28.20    1.89
   1 -10 -13   26.92    2.02
  -1  10  13   27.72    3.13
  -1  10  13   24.82    2.57
   0 -10 -13    5.32    0.79
   0 -10 -13    2.27    0.89
   0 -10 -13    3.65    0.79
   0  10  13    5.90    1.78
   0  10  13    3.43    1.34
  -1 -10 -13    0.29    0.81
  -1 -10 -13    0.37    0.62
  -1 -10 -13    0.80    0.52
   1  10  13   -0.51    1.54
   1  10  13    1.41    1.17
  -2 -10 -13    6.11    1.04
   2  10  13    5.92    1.73
   2  10  13    5.07    1.45
  -3 -10 -13    2.10    0.89
   3  10  13    0.71    1.39
   3  10  13    2.27    1.66
  -4 -10 -13    8.15    1.26
   4  10  13   11.01    2.15
   4  10  13   10.90    1.92
   1 -11 -13   -0.81    0.86
   1 -11 -13    0.10    0.88
  -1  11  13    0.87    1.38
  -1  11  13    1.34    1.85
   0 -11 -13   12.23    1.47
   0 -11 -13    9.68    1.38
   0 -11 -13    8.81    1.08
   0  11  13    8.64    1.80
   0  11  13    9.50    2.12
  -1 -11 -13    4.34    1.08
  -1 -11 -13    2.73    0.76
   1  11  13    7.41    1.98
   1  11  13    5.82    1.55
  -2 -11 -13    2.36    0.81
  -2 -11 -13    3.44    1.04
   2  11  13    1.22    1.41
   2  11  13    3.47    2.04
  -3 -11 -13    2.34    1.02
   3  11  13    4.40    2.03
   3  11  13    1.33    1.60
   2   3 -14    1.27    0.79
   1   3 -14    3.67    0.78
   1   3 -14    6.15    1.47
  -1  -3  14    2.86    1.50
   0   3 -14   22.53    2.43
   0  -3  14   13.45    1.97
  -1   3 -14    2.03    1.28
  -2   3 -14    4.27    1.30
   3  -3  14    1.35    1.60
   3   2 -14    0.68    1.46
   3   2 -14   -0.75    0.74
   2   2 -14    2.73    1.20
   2   2 -14    2.62    0.71
  -2  -2  14    1.62    1.50
   1   2 -14   14.45    1.67
   1   2 -14   15.23    1.30
   0   2 -14   -0.47    1.05
   0  -2  14   -0.58    1.26
  -1   2 -14    3.53    1.21
   1  -2  14    4.23    1.39
  -2   2 -14   22.68    2.13
   2  -2  14   18.41    2.07
   2  -2  14   26.38    2.75
   3  -2  14   -0.05    1.21
   3  -2  14    1.47    1.48
   4  -2  14    1.40    1.35
   4  -2  14    4.20    1.85
   3   1 -14    1.22    1.06
   3   1 -14    1.72    0.66
  -3  -1  14    1.22    1.44
   2   1 -14    0.36    1.02
   2   1 -14    2.37    0.59
   1   1 -14    0.84    0.54
   1   1 -14    1.03    0.88
  -1  -1  14    0.28    1.21
   0   1 -14    3.46    0.64
   0   1 -14    3.66    1.09
   0  -1  14    5.63    1.40
  -1   1 -14    8.20    1.22
   1  -1  14    8.66    1.55
   1  -1  14    9.57    1.54
  -2   1 -14    6.75    1.17
   2  -1  14    5.00    1.44
   2  -1  14    4.43    1.24
  -3   1 -14    0.47    0.90
   3  -1  14    1.02    1.16
   3  -1  14   -0.74    1.36
   4  -1  14    6.22    1.47
   4  -1  14    5.11    1.75
   5  -1  14    3.83    1.44
   5  -1  14    0.75    1.83
   4   0 -14    0.88    0.61
   4   0 -14    0.75    1.30
  -4   0  14   -0.61    1.45
   3   0 -14    1.83    0.59
   3   0 -14    2.82    1.10
   2   0 -14   18.51    1.88
   2   0 -14   15.73    1.22
  -2   0  14   12.42    1.87
   1   0 -14    0.77    0.47
   1   0 -14    1.96    0.99
  -1   0  14   -2.01    1.03
   0   0 -14    1.64    0.87
   0   0 -14    1.56    0.51
   0   0  14   -0.11    1.02
   0   0  14    1.53    1.13
  -1   0 -14   14.53    1.64
  -1   0 -14   15.36    1.11
   1   0  14   15.09    1.94
   1   0  14   14.75    1.96
  -2   0 -14   -1.10    0.79
   2   0  14   -0.58    1.21
   2   0  14    0.55    1.09
  -3   0 -14    0.43    0.82
   3   0  14    0.94    1.28
   3   0  14    1.95    1.12
   4   0  14   17.87    2.19
   4   0  14   17.52    2.28
   5   0  14    6.68    1.89
   5   0  14    7.59    1.64
   4  -1 -14    8.53    0.99
   4  -1 -14    7.07    1.34
  -4   1  14    3.69    1.54
   3  -1 -14   23.22    1.43
   3  -1 -14   23.66    2.06
  -3   1  14   22.23    2.58
   2  -1 -14   21.81    1.30
   2  -1 -14   17.52    1.89
  -2   1  14   20.55    2.39
   1  -1 -14   17.88    1.77
   1  -1 -14   16.91    1.15
  -1   1  14   18.87    2.23
   0  -1 -14    0.58    0.39
   0  -1 -14    1.34    0.80
   0   1  14    1.52    1.03
   0   1  14    0.01    1.06
  -1  -1 -14   -0.27    0.38
  -1  -1 -14   -0.40    0.72
   1   1  14   -1.34    0.88
   1   1  14    0.03    1.04
  -2  -1 -14    1.43    0.73
   2   1  14   -0.23    1.16
   2   1  14    1.11    1.06
  -3  -1 -14   18.07    1.53
   3   1  14   14.50    2.00
   3   1  14   16.01    1.91
   4   1  14    1.49    1.44
   4   1  14    0.53    1.07
   5   1  14    1.82    1.32
   5   1  14    2.38    1.60
   6   1  14    3.99    1.60
   4  -2 -14   32.17    1.74
   4  -2 -14   25.58    2.23
   3  -2 -14    4.87    1.03
   3  -2 -14    6.07    0.71
  -3   2  14    8.16    1.58
   2  -2 -14    9.88    1.20
   2  -2 -14   10.62    0.90
  -2   2  14    9.55    1.62
   1  -2 -14    2.37    0.86
   1  -2 -14    2.48    0.48
  -1   2  14    1.20    1.21
  -1   2  14    1.93    1.03
   0  -2 -14    0.38    0.71
   0   2  14   -0.89    0.89
   0   2  14   -1.55    1.01
  -1  -2 -14   -0.27    0.35
  -1  -2 -14    0.49    0.73
   1   2  14    0.32    1.11
   1   2  14    0.26    0.89
  -2  -2 -14    4.62    0.53
  -2  -2 -14    3.82    0.97
   2   2  14    2.56    1.16
   2   2  14    4.67    0.71
   2   2  14    1.44    0.98
  -3  -2 -14    4.76    0.85
   3   2  14    4.49    1.08
   3   2  14    5.16    1.38
  -4  -2 -14    0.01    0.64
   4   2  14   -1.03    1.20
   4   2  14    1.32    1.15
   5   2  14    3.68    1.55
   5   2  14    2.17    1.20
   6   2  14    6.08    1.86
   6   2  14    3.45    1.52
   4  -3 -14    4.41    1.12
   4  -3 -14    5.38    0.76
  -4   3  14    5.84    1.62
   3  -3 -14    6.12    0.71
   3  -3 -14    5.00    1.05
  -3   3  14    4.16    1.47
   2  -3 -14    5.38    0.61
   2  -3 -14    4.45    0.88
  -2   3  14    6.15    1.44
   1  -3 -14   25.31    1.85
   1  -3 -14   28.00    1.39
  -1   3  14   26.09    2.49
  -1   3  14   22.10    2.17
   0  -3 -14    0.04    0.66
   0  -3 -14    0.15    0.36
   0   3  14   -0.16    0.83
   0   3  14   -1.79    1.04
  -1  -3 -14   70.20    2.92
  -1  -3 -14   70.43    3.32
   1   3  14   61.44    3.14
   1   3  14   68.80    3.87
   1   3  14   65.92    3.67
  -2  -3 -14    1.74    0.74
  -2  -3 -14    1.92    0.39
   2   3  14    4.73    1.38
   2   3  14    0.80    0.93
   2   3  14    2.28    0.67
  -3  -3 -14    0.99    0.72
  -3  -3 -14    1.45    1.25
   3   3  14    0.72    1.02
   3   3  14    1.60    1.26
  -4  -3 -14   25.71    1.64
   4   3  14   26.44    2.36
   4   3  14   24.00    2.62
   5   3  14    4.47    1.34
   5   3  14    2.00    1.61
   6   3  14    2.30    1.86
   6   3  14    1.85    1.41
   4  -4 -14   17.95    1.95
   4  -4 -14   21.62    1.38
  -4   4  14   14.29    2.06
   3  -4 -14    1.31    0.52
   3  -4 -14    0.75    0.83
  -3   4  14    0.95    1.26
   2  -4 -14    2.19    0.49
   2  -4 -14    0.96    0.82
  -2   4  14    1.59    1.09
  -2   4  14    1.14    1.22
   1  -4 -14    7.10    1.06
   1  -4 -14    7.73    0.75
  -1   4  14    8.35    1.49
  -1   4  14    5.63    1.16
   0  -4 -14   15.79    1.01
   0  -4 -14   19.62    1.55
   0   4  14   15.57    1.86
   0   4  14   17.42    2.25
  -1  -4 -14    7.22    0.64
  -1  -4 -14    6.84    0.96
   1   4  14    5.61    1.32
   1   4  14    6.68    1.26
   1   4  14    5.43    0.86
  -2  -4 -14   52.38    2.62
  -2  -4 -14   50.36    2.20
   2   4  14   50.31    3.33
   2   4  14   52.15    3.10
   2   4  14   47.20    2.44
  -3  -4 -14    0.89    0.69
  -3  -4 -14    0.74    1.35
   3   4  14   -2.44    1.04
   3   4  14    1.66    0.97
  -4  -4 -14    1.76    0.70
   4   4  14    1.80    1.05
   4   4  14    1.58    1.25
   5   4  14    8.08    1.78
   5   4  14    6.44    1.49
   6   4  14    1.50    1.40
   6   4  14   -0.80    1.71
   4  -5 -14    0.18    0.87
   4  -5 -14    0.66    0.59
  -4   5  14   -0.81    1.59
   3  -5 -14    4.23    0.65
   3  -5 -14    2.47    0.90
  -3   5  14    5.43    1.51
   2  -5 -14    6.49    0.82
   2  -5 -14    5.01    0.92
  -2   5  14    8.53    1.37
  -2   5  14    5.23    1.46
   1  -5 -14   33.99    1.66
   1  -5 -14   35.44    2.14
  -1   5  14   30.32    2.46
  -1   5  14   34.23    2.82
   0  -5 -14   22.24    1.68
   0  -5 -14   23.40    1.24
   0   5  14   22.43    2.06
   0   5  14   25.55    2.49
  -1  -5 -14    0.28    0.63
  -1  -5 -14   -0.35    0.28
   1   5  14   -0.07    0.97
   1   5  14   -0.83    1.15
  -2  -5 -14    5.64    0.55
  -2  -5 -14    4.58    0.83
   2   5  14    5.21    1.33
   2   5  14    6.26    1.16
   3   5  14   17.78    2.40
   3   5  14   15.01    1.83
  -4  -5 -14    4.01    0.78
   4   5  14    2.94    1.24
   4   5  14    4.39    1.54
   5   5  14    8.61    1.88
   5   5  14   10.20    1.63
   6   5  14   14.36    1.95
   6   5  14   13.82    2.24
   4  -6 -14   11.19    1.32
   4  -6 -14    9.32    1.11
  -4   6  14   12.04    1.99
   3  -6 -14   19.56    1.34
   3  -6 -14   20.62    1.82
  -3   6  14   19.75    2.68
   2  -6 -14   29.15    2.00
   2  -6 -14   28.37    1.57
  -2   6  14   26.40    2.68
  -2   6  14   30.77    2.43
   1  -6 -14    1.24    0.41
   1  -6 -14    0.44    0.72
  -1   6  14    2.09    1.36
  -1   6  14    0.00    0.91
   0  -6 -14  132.72    5.86
   0  -6 -14  133.27    5.51
   0   6  14  135.54    6.53
   0   6  14  132.16    6.23
  -1  -6 -14    3.18    0.78
  -1  -6 -14    3.68    0.43
   1   6  14    3.40    1.25
   1   6  14    2.22    0.97
  -2  -6 -14    8.14    0.58
  -2  -6 -14    8.49    0.99
   2   6  14    5.64    1.51
   2   6  14    9.93    1.49
   3   6  14    0.50    1.08
   3   6  14    1.02    1.30
  -4  -6 -14    1.24    0.77
   4   6  14   -0.66    1.39
   4   6  14    0.46    1.20
   5   6  14    3.95    1.37
   5   6  14    3.41    1.68
   6   6  14   14.18    2.25
   6   6  14   10.40    2.05
   4  -7 -14    6.40    0.99
   4  -7 -14    5.45    0.86
  -4   7  14    4.89    1.91
   3  -7 -14   17.72    1.34
   3  -7 -14   19.61    1.51
   3  -7 -14   15.28    1.76
  -3   7  14   15.46    2.16
   2  -7 -14    5.68    0.97
   2  -7 -14    6.37    0.75
  -2   7  14    8.58    1.72
  -2   7  14    7.57    1.37
   1  -7 -14    2.48    0.77
   1  -7 -14    1.57    0.48
  -1   7  14    1.43    1.42
  -1   7  14    2.84    1.18
   0  -7 -14    5.71    0.72
   0  -7 -14    6.32    1.00
   0   7  14    5.14    1.55
   0   7  14    6.05    1.23
  -1  -7 -14    5.89    0.98
  -1  -7 -14    5.28    0.63
   1   7  14    7.13    1.38
   1   7  14    5.91    1.53
  -2  -7 -14   31.99    1.47
  -2  -7 -14   35.50    2.08
   2   7  14   32.60    2.60
   2   7  14   31.82    2.97
  -3  -7 -14    4.50    0.93
   3   7  14    6.48    1.62
   3   7  14    4.20    1.30
  -4  -7 -14   -0.24    0.79
   4   7  14    2.31    1.24
   4   7  14    0.40    1.50
   5   7  14   16.12    2.30
   5   7  14   13.83    2.00
   6   7  14   -1.20    2.54
   3  -8 -14    6.55    0.89
   3  -8 -14    4.01    1.12
   3  -8 -14    5.52    0.89
  -3   8  14    6.47    1.87
   2  -8 -14    0.18    0.61
   2  -8 -14    1.33    0.89
   2  -8 -14    1.14    0.54
  -2   8  14    0.60    1.20
  -2   8  14    0.71    1.46
   1  -8 -14   -0.09    0.76
   1  -8 -14    0.54    0.55
   1  -8 -14    0.02    0.51
  -1   8  14    0.72    1.09
  -1   8  14    0.88    1.47
   0  -8 -14    0.16    0.44
   0  -8 -14    0.64    0.75
   0   8  14   -0.51    1.33
   0   8  14   -0.25    1.07
  -1  -8 -14   49.59    2.73
  -1  -8 -14   50.68    2.23
   1   8  14   48.80    3.60
   1   8  14   49.33    3.20
  -2  -8 -14   -0.23    0.77
  -2  -8 -14    0.69    0.28
   2   8  14   -0.40    1.03
   2   8  14    2.63    1.47
  -3  -8 -14    1.37    0.86
   3   8  14    4.39    1.28
   3   8  14    3.26    1.60
  -4  -8 -14   15.97    1.73
   4   8  14   18.59    2.54
   4   8  14   14.83    2.12
   5   8  14    5.94    1.83
   5   8  14    3.65    1.65
   2  -9 -14    0.86    0.61
   2  -9 -14    1.64    0.73
   2  -9 -14    2.06    0.97
  -2   9  14    3.05    1.84
  -2   9  14   -0.68    1.44
   1  -9 -14    9.91    1.27
   1  -9 -14    8.59    0.94
   1  -9 -14    7.86    1.15
  -1   9  14   14.06    2.10
  -1   9  14    5.78    1.48
   0  -9 -14    2.20    0.57
   0  -9 -14    0.64    0.63
   0  -9 -14    1.31    0.85
   0   9  14    0.59    1.23
   0   9  14    3.47    1.49
  -1  -9 -14    2.37    0.49
  -1  -9 -14    1.80    0.84
   1   9  14    4.22    1.30
   1   9  14    2.13    1.67
  -2  -9 -14   -0.24    0.81
   2   9  14    0.10    1.62
   2   9  14    1.23    1.23
  -3  -9 -14    2.06    0.99
   3   9  14    2.88    1.34
   3   9  14    3.22    1.67
  -4  -9 -14    8.20    1.31
   4   9  14    4.40    1.83
   4   9  14    8.88    1.75
   1 -10 -14    4.05    1.12
   1 -10 -14    4.81    0.84
   1 -10 -14    6.80    0.96
  -1  10  14    5.23    1.93
  -1  10  14    6.51    1.66
   0 -10 -14    6.77    1.19
   0 -10 -14    9.12    0.95
   0 -10 -14    8.05    1.21
   0  10  14    9.87    1.92
   0  10  14    9.32    1.74
  -1 -10 -14    0.59    0.90
   1  10  14    1.84    1.34
   1  10  14    5.43    1.71
  -2 -10 -14   -0.15    0.87
   2  10  14   -0.09    1.79
   2  10  14    0.07    1.32
  -3 -10 -14    1.97    1.04
   3  10  14    1.11    1.51
   3  10  14    3.58    1.91
  -1 -11 -14    2.77    0.87
   1   2 -15    3.37    0.76
   0   2 -15   32.78    2.89
  -1   2 -15   14.55    1.76
   1  -2  15   13.76    2.20
  -2   2 -15    5.62    1.50
   2  -2  15    5.33    1.78
   2   1 -15    5.81    1.41
   2   1 -15    5.07    0.84
  -2  -1  15    5.78    1.90
   1   1 -15    2.14    1.13
  -1  -1  15    1.20    1.43
   0   1 -15    7.69    1.38
   0   1 -15   10.24    1.23
   0  -1  15    9.25    1.59
  -1   1 -15    2.01    1.21
   1  -1  15    2.53    1.44
  -2   1 -15    0.73    1.29
   2  -1  15    1.55    1.17
   2  -1  15    0.27    1.45
   3  -1  15   19.20    2.29
   3  -1  15   16.61    1.99
   3   0 -15    8.03    0.99
   2   0 -15   -2.54    0.99
   2   0 -15   -0.17    0.61
  -2   0  15   -1.16    1.30
   1   0 -15    5.99    1.24
   1   0 -15    9.75    1.10
  -1   0  15    8.87    1.59
   0   0 -15    2.94    0.63
   0   0 -15    1.89    1.04
   0   0  15    2.21    1.36
  -1   0 -15    2.07    1.07
  -1   0 -15    1.73    0.61
   1   0  15    1.77    1.33
   1   0  15    1.39    1.14
  -2   0 -15   11.76    1.47
   2   0  15   12.77    1.80
   2   0  15   11.91    1.96
  -3   0 -15    0.91    1.27
   3   0  15    1.59    1.28
   3   0  15    1.48    1.53
   4   0  15   -1.38    1.69
   4   0  15    0.21    1.34
   3  -1 -15   14.72    1.25
   3  -1 -15   12.45    1.63
  -3   1  15   13.68    1.97
   2  -1 -15    9.73    1.07
   2  -1 -15   10.45    1.49
  -2   1  15   10.17    1.85
   1  -1 -15   19.61    2.01
   1  -1 -15   19.12    1.33
  -1   1  15   19.31    2.50
   0  -1 -15    1.50    0.96
   0  -1 -15    0.63    0.53
   0   1  15    2.09    1.22
   0   1  15    0.00    1.04
  -1  -1 -15   13.75    1.16
  -1  -1 -15   17.37    1.82
   1   1  15   15.87    2.11
   1   1  15   14.91    1.93
  -2  -1 -15    0.51    0.91
   2   1  15   -1.21    1.14
   2   1  15    2.48    1.37
   3   1  15    2.47    1.18
   3   1  15    2.55    1.48
   4   1  15    2.00    1.59
   4   1  15    3.22    1.33
   5   1  15    3.41    1.43
   5   1  15   -0.34    1.73
   3  -2 -15    8.23    1.31
   3  -2 -15    8.22    1.02
  -3   2  15    6.29    1.62
   2  -2 -15   10.72    1.03
   2  -2 -15    9.17    1.31
  -2   2  15    8.98    1.72
   1  -2 -15   -0.48    0.44
   1  -2 -15   -0.13    0.91
  -1   2  15    0.82    1.13
  -1   2  15    0.34    1.29
   0  -2 -15   19.87    1.90
   0  -2 -15   17.73    1.19
   0   2  15   14.91    2.06
   0   2  15   16.50    2.08
  -1  -2 -15    2.03    0.94
  -1  -2 -15    2.70    0.62
   1   2  15    0.56    1.11
   1   2  15    1.53    1.38
  -2  -2 -15    1.80    0.90
   2   2  15   -0.13    1.37
   2   2  15    1.51    1.13
   3   2  15    0.73    1.14
   3   2  15    0.01    1.40
   4   2  15   -2.18    1.49
   4   2  15   -0.12    1.19
   5   2  15   -1.44    1.70
   5   2  15   -0.18    1.32
   3  -3 -15   11.04    1.09
   3  -3 -15   13.50    1.81
  -3   3  15   11.79    1.91
   2  -3 -15    2.79    0.59
   2  -3 -15    4.67    1.05
  -2   3  15    2.08    1.37
   1  -3 -15   26.80    1.38
   1  -3 -15   18.70    1.86
  -1   3  15   17.12    2.13
  -1   3  15   24.00    2.39
   0  -3 -15   18.44    1.16
   0  -3 -15   17.35    1.74
   0   3  15   16.16    2.03
   0   3  15   18.46    2.50
  -1  -3 -15    0.99    0.80
  -1  -3 -15    0.54    0.43
   1   3  15   -0.76    0.97
   1   3  15   -0.83    1.19
  -2  -3 -15   23.23    1.34
  -2  -3 -15   26.25    1.91
   2   3  15   23.89    2.29
   2   3  15   26.77    2.69
  -3  -3 -15   16.03    1.62
   3   3  15   19.99    2.23
   3   3  15   14.41    1.99
  -4  -3 -15    8.85    1.14
   4   3  15    7.96    1.79
   4   3  15    5.59    1.46
   5   3  15    7.06    1.54
   5   3  15    2.16    1.74
   3  -4 -15   27.25    1.64
   3  -4 -15   29.97    2.23
  -3   4  15   27.51    3.02
   2  -4 -15   11.40    1.06
   2  -4 -15   14.21    1.71
  -2   4  15   13.57    1.91
   1  -4 -15    3.20    0.88
   1  -4 -15    3.28    0.55
  -1   4  15    2.90    1.34
  -1   4  15    2.39    1.18
   0  -4 -15    1.48    0.42
   0  -4 -15    0.96    0.83
   0   4  15    1.66    1.37
   0   4  15    1.31    1.14
  -1  -4 -15    0.01    0.37
  -1  -4 -15   -0.40    0.76
   1   4  15   -0.81    0.97
   1   4  15    0.31    1.20
  -2  -4 -15   52.70    2.74
  -2  -4 -15   48.32    2.19
   2   4  15   46.95    3.17
   2   4  15   46.53    3.48
  -3  -4 -15   -0.31    0.79
   3   4  15    0.93    1.13
   3   4  15    1.55    1.49
  -4  -4 -15    1.11    0.85
   4   4  15    0.40    1.14
   4   4  15    2.13    1.56
   5   4  15   31.70    3.45
   5   4  15   29.11    2.84
   3  -5 -15    6.38    1.21
   3  -5 -15    8.54    0.89
  -3   5  15    7.01    1.84
   2  -5 -15    0.58    0.84
   2  -5 -15    0.64    0.52
  -2   5  15   -2.10    1.41
  -2   5  15   -1.20    1.09
   1  -5 -15    8.69    1.18
   1  -5 -15    8.78    0.91
  -1   5  15    7.75    1.64
  -1   5  15    6.80    1.38
   0  -5 -15    9.70    1.25
   0  -5 -15   10.43    1.22
   0   5  15   11.14    1.73
   0   5  15   13.66    1.69
  -1  -5 -15   -0.04    0.36
  -1  -5 -15   -0.31    0.75
   1   5  15   -0.60    1.30
   1   5  15   -1.66    1.01
  -2  -5 -15   25.48    1.32
  -2  -5 -15   27.23    1.97
   2   5  15   28.34    2.84
   2   5  15   28.51    2.44
  -3  -5 -15   12.56    1.58
   3   5  15   10.39    1.95
   3   5  15   18.16    2.15
  -4  -5 -15   -0.62    0.83
   4   5  15   -0.66    1.38
   4   5  15    0.10    1.18
   5   5  15    3.18    1.82
   5   5  15    2.69    1.48
   3  -6 -15   16.30    1.26
   3  -6 -15   13.66    1.52
  -3   6  15    9.17    1.99
   2  -6 -15   -0.02    0.54
   2  -6 -15    0.01    0.85
  -2   6  15    0.13    1.20
  -2   6  15    0.03    1.42
   1  -6 -15    1.47    0.51
   1  -6 -15    2.05    0.88
  -1   6  15    0.55    1.37
  -1   6  15   -0.22    1.11
   0  -6 -15    3.70    0.95
   0   6  15    3.68    1.28
   0   6  15    4.04    1.55
  -1  -6 -15    0.34    0.37
  -1  -6 -15    0.03    0.73
   1   6  15   -0.80    1.15
   1   6  15    1.02    1.27
  -2  -6 -15   14.18    1.65
  -2  -6 -15   14.95    0.89
   2   6  15   14.06    2.00
   2   6  15   15.56    1.90
  -3  -6 -15    3.68    0.94
   3   6  15    4.32    1.56
   3   6  15    2.69    1.20
  -4  -6 -15    0.40    1.08
   4   6  15    0.89    1.35
   4   6  15    1.30    1.56
   5   6  15    7.24    1.85
   5   6  15    3.20    1.57
   3  -7 -15    5.40    0.78
  -3   7  15    3.19    1.92
   2  -7 -15   12.97    1.20
   2  -7 -15   16.17    1.78
  -2   7  15   15.17    2.08
  -2   7  15   13.43    1.87
   1  -7 -15    4.44    0.65
   1  -7 -15    3.47    0.96
  -1   7  15    4.44    1.35
  -1   7  15    6.23    1.77
   0  -7 -15    1.99    0.84
   0   7  15    2.02    1.47
   0   7  15    3.66    1.30
  -1  -7 -15    0.99    0.83
  -1  -7 -15    0.39    0.38
   1   7  15    0.77    1.15
   1   7  15   -0.53    1.33
  -2  -7 -15    6.69    1.08
   2   7  15   10.27    1.95
   2   7  15    4.74    1.35
  -3  -7 -15    9.23    1.23
   3   7  15    7.62    1.77
   3   7  15    8.95    1.69
  -4  -7 -15    0.42    1.00
   4   7  15   -0.07    1.33
   4   7  15   -3.10    1.54
   5   7  15    3.84    1.95
   5   7  15    8.56    2.05
   2  -8 -15    1.01    0.99
   2  -8 -15    0.34    0.62
  -2   8  15    0.05    1.38
  -2   8  15    1.20    1.67
   1  -8 -15    9.46    1.25
   1  -8 -15    9.26    1.11
  -1   8  15   11.63    2.16
  -1   8  15    8.00    1.65
   0  -8 -15   10.18    0.97
   0  -8 -15    4.97    1.15
   0   8  15    9.47    1.90
   0   8  15    7.77    1.54
  -1  -8 -15   10.25    1.26
  -1  -8 -15    9.62    0.87
   1   8  15   10.90    2.03
   1   8  15   11.59    1.70
  -2  -8 -15    8.63    1.20
   2   8  15    3.97    1.59
   2   8  15    5.43    1.36
  -3  -8 -15    3.75    1.09
   3   8  15    3.84    1.60
   3   8  15    1.56    1.72
  -4  -8 -15    3.55    1.15
   4   8  15    3.40    1.68
   4   8  15    7.92    2.15
   1  -9 -15    0.60    0.71
   1  -9 -15    2.42    1.17
  -1   9  15    1.99    1.58
  -1   9  15   -0.36    1.76
   0  -9 -15    1.65    1.02
   0  -9 -15    1.82    0.63
   0   9  15    2.56    1.40
   0   9  15    3.35    1.77
  -1  -9 -15    2.33    1.03
   1   9  15    4.91    1.56
   1   9  15    4.66    1.87
  -2  -9 -15    0.75    1.03
   2   9  15    3.23    1.85
   2   9  15    1.12    1.35
  -3  -9 -15    3.71    1.19
   3   9  15    2.58    1.54
   3   9  15    3.75    1.91
   1  10  15   15.59    2.00
   1  10  15   20.02    2.88
   2  10  15    2.67    1.53
   1   0 -16   -0.32    0.69
  -1   0  16    0.94    1.78
   0   0 -16   22.87    1.64
   0   0 -16   20.59    2.47
   0   0  16   18.90    2.38
  -1   0 -16    2.14    1.33
   1   0  16   -0.78    1.34
   1   0  16    0.33    1.54
  -2   0 -16    0.75    1.38
   2   0  16   -1.44    1.32
   2   0  16   -1.61    1.66
   2  -1 -16    4.16    0.81
  -2   1  16    6.40    1.97
   1  -1 -16    3.12    0.71
   1  -1 -16    0.57    1.21
  -1   1  16    4.51    1.74
   0  -1 -16   15.17    1.33
   0  -1 -16   11.13    1.51
   0   1  16    9.21    1.79
   0   1  16   11.25    1.84
  -1  -1 -16    4.62    1.20
  -1  -1 -16    6.86    0.88
   1   1  16    6.98    1.79
   1   1  16    6.60    1.50
  -2  -1 -16    2.69    1.32
   2   1  16    1.63    1.20
   2   1  16   -0.28    1.51
  -3  -1 -16    8.00    1.47
   3   1  16    8.94    1.93
   3   1  16    8.01    1.64
   2  -2 -16   12.64    1.73
   2  -2 -16   18.40    1.34
  -2   2  16   13.55    2.10
   1  -2 -16    5.99    0.81
   1  -2 -16    7.43    1.35
  -1   2  16    4.52    1.60
   0  -2 -16   12.88    1.25
   0  -2 -16   15.40    2.00
   0   2  16   11.08    1.81
   0   2  16   15.21    1.91
  -1  -2 -16   32.76    1.82
  -1  -2 -16   30.18    2.41
   1   2  16   29.81    3.07
   1   2  16   32.87    2.78
  -2  -2 -16    4.80    1.23
   2   2  16    3.89    1.57
   2   2  16    4.62    1.43
  -3  -2 -16    2.25    1.16
   3   2  16    1.24    1.66
   3   2  16    2.49    1.39
   4   2  16   14.27    2.06
   4   2  16   11.35    2.23
   2  -3 -16    0.33    0.56
   2  -3 -16   -1.24    1.09
  -2   3  16   -0.51    1.61
   1  -3 -16    1.13    0.55
   1  -3 -16    1.45    1.02
  -1   3  16    0.16    1.24
  -1   3  16   -0.10    1.54
   0  -3 -16    0.75    1.01
   0  -3 -16    1.55    0.61
   0   3  16    0.90    1.21
   0   3  16    0.47    1.44
  -1  -3 -16    1.39    1.04
  -1  -3 -16    1.85    0.58
   1   3  16    0.68    1.51
   1   3  16    0.98    1.26
  -2  -3 -16    2.27    0.57
  -2  -3 -16    1.32    1.04
   2   3  16    0.67    1.20
   2   3  16    2.23    1.59
  -3  -3 -16    1.75    1.12
   3   3  16    2.47    1.40
   3   3  16    2.38    1.66
   4   3  16    4.27    1.81
   4   3  16    2.13    1.51
   2  -4 -16   -1.55    0.98
   2  -4 -16    0.73    0.60
  -2   4  16    1.65    1.67
   1  -4 -16    5.49    0.74
   1  -4 -16    5.62    1.15
  -1   4  16    3.99    1.60
  -1   4  16    5.60    1.58
   0  -4 -16   29.64    2.28
   0  -4 -16   34.62    1.74
   0   4  16   26.95    3.10
   0   4  16   31.77    2.69
  -1  -4 -16    3.61    0.71
  -1  -4 -16    2.98    1.03
   1   4  16    6.65    1.51
   1   4  16    0.87    1.44
  -2  -4 -16    1.61    0.50
  -2  -4 -16    2.24    1.10
   2   4  16    1.47    1.31
   2   4  16    2.95    1.61
  -3  -4 -16   10.59    1.41
   3   4  16    9.40    1.95
   3   4  16   10.72    1.71
   4   4  16   -0.98    1.34
   4   4  16   -0.02    1.71
   2  -5 -16    9.23    1.41
   2  -5 -16   10.83    1.14
  -2   5  16    8.23    1.91
   1  -5 -16   27.16    1.59
   1  -5 -16   24.02    2.15
  -1   5  16   24.10    3.07
  -1   5  16   29.07    2.67
   0  -5 -16   17.81    1.24
   0  -5 -16   18.14    1.90
   0   5  16   16.48    2.27
   0   5  16   19.42    2.49
  -1  -5 -16    0.96    0.49
  -1  -5 -16   -0.89    0.90
   1   5  16    0.69    1.18
   1   5  16    1.59    1.58
  -2  -5 -16   22.01    1.97
   2   5  16   15.13    2.16
   2   5  16   18.28    2.46
  -3  -5 -16    0.05    1.08
   3   5  16   -1.86    1.24
   3   5  16    3.63    1.67
   4   5  16    4.03    1.53
   4   5  16   -1.19    1.65
   2  -6 -16    5.64    0.79
   2  -6 -16    7.43    1.33
  -2   6  16    2.86    1.81
  -2   6  16    3.80    1.56
   1  -6 -16   -0.25    0.91
   1  -6 -16   -0.08    0.59
  -1   6  16    1.47    1.60
  -1   6  16   -1.05    1.19
   0  -6 -16    2.41    0.58
   0  -6 -16    1.68    1.01
   0   6  16    6.74    1.64
   0   6  16    5.63    1.52
  -1  -6 -16   14.19    1.03
  -1  -6 -16   12.47    1.39
   1   6  16    8.66    2.06
   1   6  16   14.52    1.95
  -2  -6 -16   13.93    1.87
   2   6  16   15.11    2.21
   2   6  16   14.64    1.92
  -3  -6 -16    3.67    1.17
   3   6  16    2.81    1.36
   3   6  16    1.63    1.71
  -4  -6 -16    0.07    1.70
   4   6  16    4.20    1.69
   4   6  16    2.88    1.83
   1  -7 -16    0.32    0.59
  -1   7  16   -0.11    1.32
  -1   7  16    4.29    1.71
   0  -7 -16    6.56    1.20
   0  -7 -16    5.92    0.72
   0   7  16    5.94    1.85
   0   7  16    3.89    1.46
  -1  -7 -16    5.53    1.12
  -1  -7 -16    7.82    0.99
   1   7  16    6.72    1.58
   1   7  16    8.20    1.84
  -2  -7 -16    3.06    1.09
   2   7  16    1.50    1.38
   2   7  16    7.89    1.92
  -3  -7 -16   50.20    3.15
   3   7  16   56.71    4.16
   3   7  16   54.45    3.75
   4   7  16    0.30    2.56
   1  -8 -16   22.35    1.52
  -1   8  16   18.64    2.30
   0  -8 -16   -0.99    1.03
   0  -8 -16   -1.01    0.54
   0   8  16   -0.60    1.37
   0   8  16    2.12    1.96
  -1  -8 -16    2.34    1.04
   1   8  16    0.25    1.80
   1   8  16   -0.25    1.33
  -2  -8 -16   -0.32    1.07
   2   8  16    4.35    2.01
   2   8  16    1.40    1.49
  -3  -8 -16    4.46    1.23
   3   8  16    3.35    1.76
   3   8  16    6.42    2.12
  -1  -2 -17   17.03    1.55
   1   2  17    8.87    2.62
   1   2  17   12.76    2.13
   0  -3 -17    1.43    1.23
   0  -3 -17    1.35    0.70
   0   3  17    1.11    1.86
   0   3  17    2.24    1.65
  -1  -3 -17    3.04    1.27
  -1  -3 -17    3.77    0.77
   1   3  17    0.06    1.74
   1   3  17    3.09    1.58
  -2  -3 -17   16.43    2.19
   2   3  17    9.46    2.23
   2   3  17   13.09    2.00
   0  -4 -17    1.56    0.70
   0  -4 -17    2.92    1.26
   0   4  17    3.34    1.89
   0   4  17    3.87    1.57
  -1  -4 -17   -0.29    1.10
  -1  -4 -17    1.05    0.64
   1   4  17    1.57    1.57
   1   4  17   -0.50    1.85
  -2  -4 -17    1.83    1.25
   2   4  17   -1.65    1.78
   2   4  17    1.71    1.51
   0  -5 -17    6.42    1.34
   0  -5 -17    8.10    0.89
   0   5  17    6.98    1.75
   0   5  17    4.05    2.03
  -1  -5 -17   -0.93    1.04
  -1  -5 -17    0.48    0.76
   1   5  17    2.16    1.54
   1   5  17    2.93    1.92
  -2  -5 -17    3.56    1.34
   2   5  17    4.15    2.07
   2   5  17    6.68    1.67
   0  -6 -17   -0.16    0.61
   0   6  17   -2.26    1.59
   0   6  17   -5.27    1.94
  -1  -6 -17    2.06    1.11
   1   6  17    4.44    2.04
   1   6  17    0.32    1.58
   2   6  17    3.96    1.77
   2   6  17    2.39    2.12
   0   0   0    0.00    0.00


 _exptl_absorpt_process_details 'SADABS 2014/5'
 _exptl_absorpt_correction_type   multi-scan
 _exptl_absorpt_correction_T_max  0.7461
 _exptl_absorpt_correction_T_min  0.5900
 _exptl_special_details
)
 The following wavelength and cell were deduced by SADABS from the
 direction cosines etc. They are given here for emergency use only:
 CELL 0.70988    6.777    9.307   12.102   70.490   83.954   84.737
)

_computing_structure_solution     'SHELXT 2014/5 (Sheldrick, 2014)'
;
_shelx_hkl_checksum              54900
loop_
_space_group_symop_operation_xyz
'x, y, z'
'-x, -y, -z'
loop_
_atom_site_label
_atom_site_type_symbol
_atom_site_fract_x
_atom_site_fract_y
_atom_site_fract_z
_atom_site_U_iso_or_equiv
_atom_site_adp_type
_atom_site_occupancy
_atom_site_site_symmetry_order
_atom_site_calc_flag
_atom_site_refinement_flags_posn
_atom_site_refinement_flags_adp
C1 C 0.73385(17) 0.85562(14) 0.35328(11) 0.0290(2) Uani 1 1 d . .
C2 C 0.55788(17) 0.85514(14) 0.28384(10) 0.0274(2) Uani 1 1 d . .
H2 H 0.556575 0.946877 0.214638 0.033 Uiso 1 1 calc R U
C3 C 0.36059(17) 0.85211(15) 0.35679(11) 0.0314(3) Uani 1 1 d . .
H3A H 0.333504 0.948848 0.370395 0.038 Uiso 1 1 calc R U
H3B H 0.255696 0.839676 0.312891 0.038 Uiso 1 1 calc R U
C4 C 0.35831(19) 0.72626(16) 0.47289(12) 0.0341(3) Uani 1 1 d . .
C5 C 0.5471(2) 0.67982(17) 0.52754(12) 0.0373(3) Uani 1 1 d . .
H4 H 0.548198 0.607408 0.601844 0.045 Uiso 1 1 calc R U
C6 C 0.71684(19) 0.73846(16) 0.47372(11) 0.0342(3) Uani 1 1 d . .
H6 H 0.831595 0.705036 0.512866 0.041 Uiso 1 1 calc R U
C7 C 0.7509(2) 1.01249(17) 0.36281(15) 0.0442(3) Uani 1 1 d . .
H7A H 0.856378 1.008326 0.410801 0.066 Uiso 1 1 calc R U
H7B H 0.628425 1.043942 0.397584 0.066 Uiso 1 1 calc R U
H7C H 0.778496 1.084055 0.286048 0.066 Uiso 1 1 calc R U
C8 C 0.93940(17) 0.67822(16) 0.28087(12) 0.0331(3) Uani 1 1 d . .
H8A H 0.961400 0.604919 0.357435 0.040 Uiso 1 1 calc R U
H8B H 1.054759 0.671627 0.228146 0.040 Uiso 1 1 calc R U
C9 C 0.76052(16) 0.64143(14) 0.23660(10) 0.0275(2) Uani 1 1 d . .
C10 C 0.71756(17) 0.53774(14) 0.18516(10) 0.0283(2) Uani 1 1 d . .
C11 C 0.84754(19) 0.42130(14) 0.15307(11) 0.0298(2) Uani 1 1 d . .
C12 C 1.0337(2) 0.37741(17) 0.19572(13) 0.0396(3) Uani 1 1 d . .
H12 H 1.074575 0.419841 0.248170 0.048 Uiso 1 1 calc R U
C13 C 1.1595(2) 0.27163(17) 0.16157(14) 0.0424(3) Uani 1 1 d . .
H13 H 1.284716 0.244853 0.189358 0.051 Uiso 1 1 calc R U
C14 C 1.0960(2) 0.20682(16) 0.08581(12) 0.0385(3) Uani 1 1 d . .
C15 C 0.9120(2) 0.24623(17) 0.04319(13) 0.0416(3) Uani 1 1 d . .
H15 H 0.870760 0.200756 -0.007260 0.050 Uiso 1 1 calc R U
C16 C 0.7882(2) 0.35411(16) 0.07580(12) 0.0362(3) Uani 1 1 d . .
H16 H 0.664505 0.382012 0.046019 0.043 Uiso 1 1 calc R U
N1 N 0.58708(14) 0.72102(12) 0.24528(9) 0.0277(2) Uani 1 1 d . .
N2 N 0.44167(15) 0.67289(14) 0.20024(10) 0.0341(2) Uani 1 1 d . .
N3 N 0.52152(16) 0.56091(14) 0.16476(10) 0.0342(2) Uani 1 1 d . .
O1 O 0.20579(17) 0.66903(16) 0.52165(11) 0.0588(3) Uani 1 1 d . .
O2 O 0.91439(13) 0.82754(11) 0.28918(8) 0.0331(2) Uani 1 1 d . .
Cl1 Cl 1.25413(7) 0.07381(5) 0.04322(4) 0.05679(14) Uani 1 1 d . .
loop_
_atom_site_aniso_label
_atom_site_aniso_U_11
_atom_site_aniso_U_22
_atom_site_aniso_U_33
_atom_site_aniso_U_23
_atom_site_aniso_U_13
_atom_site_aniso_U_12
C1 0.0237(5) 0.0346(6) 0.0313(6) -0.0142(5) 0.0008(4) -0.0048(4)
C2 0.0249(5) 0.0301(6) 0.0266(5) -0.0091(4) -0.0016(4) 0.0000(4)
C3 0.0227(5) 0.0369(6) 0.0356(6) -0.0145(5) -0.0012(4) 0.0024(4)
C4 0.0274(6) 0.0403(7) 0.0350(6) -0.0143(5) 0.0041(5) -0.0039(5)
C5 0.0347(7) 0.0425(7) 0.0297(6) -0.0058(5) -0.0006(5) -0.0016(5)
C6 0.0283(6) 0.0442(7) 0.0302(6) -0.0121(5) -0.0059(5) 0.0002(5)
C7 0.0429(8) 0.0418(8) 0.0552(9) -0.0256(7) 0.0045(6) -0.0117(6)
C8 0.0211(5) 0.0428(7) 0.0411(7) -0.0214(6) -0.0029(5) -0.0014(5)
C9 0.0213(5) 0.0348(6) 0.0272(5) -0.0117(5) -0.0006(4) -0.0017(4)
C10 0.0255(5) 0.0337(6) 0.0265(5) -0.0107(5) -0.0024(4) -0.0020(4)
C11 0.0310(6) 0.0309(6) 0.0276(5) -0.0099(5) -0.0007(4) -0.0022(5)
C12 0.0374(7) 0.0420(7) 0.0454(7) -0.0221(6) -0.0105(6) 0.0048(6)
C13 0.0378(7) 0.0416(8) 0.0481(8) -0.0165(6) -0.0080(6) 0.0078(6)
C14 0.0479(8) 0.0309(6) 0.0328(6) -0.0090(5) 0.0038(5) 0.0044(5)
C15 0.0548(9) 0.0395(7) 0.0344(7) -0.0178(6) -0.0057(6) 0.0018(6)
C16 0.0387(7) 0.0388(7) 0.0338(6) -0.0151(5) -0.0072(5) 0.0003(5)
N1 0.0201(4) 0.0367(5) 0.0291(5) -0.0142(4) -0.0033(3) -0.0009(4)
N2 0.0237(5) 0.0467(6) 0.0376(6) -0.0202(5) -0.0073(4) -0.0013(4)
N3 0.0278(5) 0.0431(6) 0.0367(6) -0.0185(5) -0.0060(4) -0.0025(4)
O1 0.0332(5) 0.0766(9) 0.0544(7) -0.0047(6) 0.0067(5) -0.0176(5)
O2 0.0231(4) 0.0410(5) 0.0392(5) -0.0186(4) 0.0044(3) -0.0089(3)
Cl1 0.0700(3) 0.0495(2) 0.0494(2) -0.02161(18) -0.00111(19) 0.02116(19)
loop_
_atom_type_symbol
_atom_type_description
_atom_type_scat_dispersion_real
_atom_type_scat_dispersion_imag
_atom_type_scat_source
C C 0.0033 0.0016 'International Tables Vol C Tables 4.2.6.8 and 6.1.1.4'
H H 0.0000 0.0000 'International Tables Vol C Tables 4.2.6.8 and 6.1.1.4'
N N 0.0061 0.0033 'International Tables Vol C Tables 4.2.6.8 and 6.1.1.4'
O O 0.0106 0.0060 'International Tables Vol C Tables 4.2.6.8 and 6.1.1.4'
Cl Cl 0.1484 0.1585 'International Tables Vol C Tables 4.2.6.8 and 6.1.1.4'
loop_
_geom_angle_atom_site_label_1
_geom_angle_atom_site_label_2
_geom_angle_atom_site_label_3
_geom_angle
O2 C1 C6 110.59(10)
O2 C1 C7 104.74(10)
C6 C1 C7 110.06(11)
O2 C1 C2 109.02(9)
C6 C1 C2 111.20(10)
C7 C1 C2 111.04(11)
N1 C2 C3 110.23(10)
N1 C2 C1 107.94(9)
C3 C2 C1 111.95(10)
N1 C2 H2 108.9
C3 C2 H2 108.9
C1 C2 H2 108.9
C4 C3 C2 112.77(10)
C4 C3 H3A 109.0
C2 C3 H3A 109.0
C4 C3 H3B 109.0
C2 C3 H3B 109.0
H3A C3 H3B 107.8
O1 C4 C5 121.18(13)
O1 C4 C3 121.54(13)
C5 C4 C3 117.23(11)
C6 C5 C4 121.92(13)
C6 C5 H4 119.0
C4 C5 H4 119.0
C5 C6 C1 123.90(12)
C5 C6 H6 118.0
C1 C6 H6 118.0
C1 C7 H7A 109.5
C1 C7 H7B 109.5
H7A C7 H7B 109.5
C1 C7 H7C 109.5
H7A C7 H7C 109.5
H7B C7 H7C 109.5
O2 C8 C9 110.44(10)
O2 C8 H8A 109.6
C9 C8 H8A 109.6
O2 C8 H8B 109.6
C9 C8 H8B 109.6
H8A C8 H8B 108.1
N1 C9 C10 104.72(10)
N1 C9 C8 119.25(11)
C10 C9 C8 136.03(11)
N3 C10 C9 107.76(10)
N3 C10 C11 122.40(11)
C9 C10 C11 129.83(11)
C12 C11 C16 118.27(12)
C12 C11 C10 121.44(11)
C16 C11 C10 120.27(12)
C13 C12 C11 121.32(13)
C13 C12 H12 119.3
C11 C12 H12 119.3
C14 C13 C12 118.96(14)
C14 C13 H13 120.5
C12 C13 H13 120.5
C15 C14 C13 121.19(13)
C15 C14 Cl1 119.94(11)
C13 C14 Cl1 118.87(12)
C14 C15 C16 119.67(13)
C14 C15 H15 120.2
C16 C15 H15 120.2
C15 C16 C11 120.58(13)
C15 C16 H16 119.7
C11 C16 H16 119.7
C9 N1 N2 111.13(10)
C9 N1 C2 126.11(10)
N2 N1 C2 122.34(10)
N3 N2 N1 106.69(10)
N2 N3 C10 109.69(10)
C8 O2 C1 114.15(9)
loop_
_geom_bond_atom_site_label_1
_geom_bond_atom_site_label_2
_geom_bond_distance
C1 O2 1.4346(14)
C1 C6 1.5066(18)
C1 C7 1.5237(18)
C1 C2 1.5341(17)
C2 N1 1.4679(15)
C2 C3 1.5249(16)
C2 H2 0.9800
C3 C4 1.5042(19)
C3 H3A 0.9700
C3 H3B 0.9700
C4 O1 1.2136(16)
C4 C5 1.4685(19)
C5 C6 1.3334(19)
C5 H4 0.9300
C6 H6 0.9300
C7 H7A 0.9600
C7 H7B 0.9600
C7 H7C 0.9600
C8 O2 1.4255(16)
C8 C9 1.4899(16)
C8 H8A 0.9700
C8 H8B 0.9700
C9 N1 1.3488(15)
C9 C10 1.3807(17)
C10 N3 1.3649(16)
C10 C11 1.4666(17)
C11 C12 1.3913(19)
C11 C16 1.3979(18)
C12 C13 1.3873(19)
C12 H12 0.9300
C13 C14 1.378(2)
C13 H13 0.9300
C14 C15 1.375(2)
C14 Cl1 1.7421(14)
C15 C16 1.3865(19)
C15 H15 0.9300
C16 H16 0.9300
N1 N2 1.3546(14)
N2 N3 1.3124(16)
loop_
_geom_torsion_atom_site_label_1
_geom_torsion_atom_site_label_2
_geom_torsion_atom_site_label_3
_geom_torsion_atom_site_label_4
_geom_torsion
O2 C1 C2 N1 46.96(12)
C6 C1 C2 N1 -75.23(12)
C7 C1 C2 N1 161.85(10)
O2 C1 C2 C3 168.44(10)
C6 C1 C2 C3 46.25(14)
C7 C1 C2 C3 -76.66(13)
N1 C2 C3 C4 68.15(13)
C1 C2 C3 C4 -52.00(14)
C2 C3 C4 O1 -151.71(14)
C2 C3 C4 C5 30.91(16)
O1 C4 C5 C6 178.06(15)
C3 C4 C5 C6 -4.5(2)
C4 C5 C6 C1 -0.3(2)
O2 C1 C6 C5 -142.35(13)
C7 C1 C6 C5 102.41(16)
C2 C1 C6 C5 -21.07(18)
O2 C8 C9 N1 -20.31(16)
O2 C8 C9 C10 160.54(14)
N1 C9 C10 N3 0.46(13)
C8 C9 C10 N3 179.70(14)
N1 C9 C10 C11 179.60(12)
C8 C9 C10 C11 -1.2(2)
N3 C10 C11 C12 -166.33(13)
C9 C10 C11 C12 14.6(2)
N3 C10 C11 C16 15.27(19)
C9 C10 C11 C16 -163.76(13)
C16 C11 C12 C13 1.0(2)
C10 C11 C12 C13 -177.42(13)
C11 C12 C13 C14 -1.4(2)
C12 C13 C14 C15 0.6(2)
C12 C13 C14 Cl1 -179.91(12)
C13 C14 C15 C16 0.6(2)
Cl1 C14 C15 C16 -178.88(11)
C14 C15 C16 C11 -1.0(2)
C12 C11 C16 C15 0.2(2)
C10 C11 C16 C15 178.66(12)
C10 C9 N1 N2 -0.95(14)
C8 C9 N1 N2 179.66(11)
C10 C9 N1 C2 -173.64(11)
C8 C9 N1 C2 6.96(18)
C3 C2 N1 C9 -142.71(12)
C1 C2 N1 C9 -20.16(15)
C3 C2 N1 N2 45.37(15)
C1 C2 N1 N2 167.91(10)
C9 N1 N2 N3 1.09(14)
C2 N1 N2 N3 174.10(10)
N1 N2 N3 C10 -0.77(14)
C9 C10 N3 N2 0.20(15)
C11 C10 N3 N2 -179.02(11)
C9 C8 O2 C1 51.75(14)
C6 C1 O2 C8 55.06(13)
C7 C1 O2 C8 173.60(11)
C2 C1 O2 C8 -67.50(13)
