#------------------------------------------------------------------------------
#$Date: 2019-11-11 16:04:16 +0200 (Mon, 11 Nov 2019) $
#$Revision: 226492 $
#$URL: file:///home/coder/svn-repositories/cod/cif/4/03/49/4034985.cif $
#------------------------------------------------------------------------------
#
# This file is available in the Crystallography Open Database (COD),
# http://www.crystallography.net/
#
# All data on this site have been placed in the public domain by the
# contributors.
#
data_4034985
loop_
_publ_author_name
'Jiang, Sheng-Peng'
'Lu, Wen-Qiang'
'Liu, Zhan'
'Wang, Guan-Wu'
_publ_section_title
;
 Synthesis of Fullerotetrahydroquinolines via [4 + 2] Cycloaddition
 Reaction of [60]Fullerene with in Situ Generated Aza-o-quinone Methides.
;
_journal_issue                   4
_journal_name_full               'The Journal of organic chemistry'
_journal_page_first              1959
_journal_page_last               1968
_journal_paper_doi               10.1021/acs.joc.7b02897
_journal_volume                  83
_journal_year                    2018
_chemical_formula_sum            'C14 H14 Cl2 Cu N2 O S'
_chemical_formula_weight         392.77
_space_group_crystal_system      triclinic
_space_group_IT_number           2
_space_group_name_Hall           '-P 1'
_space_group_name_H-M_alt        'P -1'
_atom_sites_solution_hydrogens   geom
_audit_creation_method           SHELXL-2013
_cell_angle_alpha                94.801(3)
_cell_angle_beta                 95.419(3)
_cell_angle_gamma                108.835(3)
_cell_formula_units_Z            2
_cell_length_a                   7.4487(2)
_cell_length_b                   9.8574(3)
_cell_length_c                   11.7142(4)
_cell_measurement_reflns_used    3980
_cell_measurement_temperature    290(2)
_cell_measurement_theta_max      70.9800
_cell_measurement_theta_min      4.7600
_cell_volume                     804.44(5)
_computing_cell_refinement       'CrysAlisPro (Agilent Technologies)'
_computing_data_collection       'CrysAlisPro (Agilent Technologies)'
_computing_data_reduction        'CrysAlisPro (Agilent Technologies)'
_computing_molecular_graphics    'Ortep-3 (L. J. Farrugia, 2001)'
_computing_publication_material  SHELXL-2013
_computing_structure_refinement  'SHELXL-2013 (Sheldrick, 2013)'
_computing_structure_solution    'SHELXS-97 (Sheldrick, 1997)'
_diffrn_ambient_temperature      290(2)
_diffrn_detector_area_resol_mean 15.9149
_diffrn_measured_fraction_theta_full 0.992
_diffrn_measured_fraction_theta_max 0.963
_diffrn_measurement_device_type  'Gemini S Ultra, Agilent Technologies'
_diffrn_measurement_method       '\w scans'
_diffrn_radiation_type           CuK\a
_diffrn_radiation_wavelength     1.54184
_diffrn_reflns_av_R_equivalents  0.0293
_diffrn_reflns_av_unetI/netI     0.0298
_diffrn_reflns_Laue_measured_fraction_full 0.992
_diffrn_reflns_Laue_measured_fraction_max 0.963
_diffrn_reflns_limit_h_max       7
_diffrn_reflns_limit_h_min       -9
_diffrn_reflns_limit_k_max       11
_diffrn_reflns_limit_k_min       -11
_diffrn_reflns_limit_l_max       14
_diffrn_reflns_limit_l_min       -14
_diffrn_reflns_number            4878
_diffrn_reflns_point_group_measured_fraction_full 0.992
_diffrn_reflns_point_group_measured_fraction_max 0.963
_diffrn_reflns_theta_full        67.684
_diffrn_reflns_theta_max         71.096
_diffrn_reflns_theta_min         3.819
_diffrn_source                   'Enhance Ultra (Cu) X-ray Source'
_exptl_absorpt_coefficient_mu    6.175
_exptl_absorpt_correction_T_max  1.00000
_exptl_absorpt_correction_T_min  0.23482
_exptl_absorpt_correction_type   multi-scan
_exptl_absorpt_process_details
;
CrysAlisPro 1.171.38.43f (Rigaku Oxford Diffraction, 2015)
Empirical absorption correction using spherical harmonics,
 implemented in SCALE3 ABSPACK scaling algorithm.
;
_exptl_crystal_colour            blue
_exptl_crystal_density_diffrn    1.622
_exptl_crystal_description       block
_exptl_crystal_F_000             398
_exptl_crystal_size_max          0.250
_exptl_crystal_size_mid          0.240
_exptl_crystal_size_min          0.220
_refine_diff_density_max         0.665
_refine_diff_density_min         -0.671
_refine_diff_density_rms         0.099
_refine_ls_extinction_coef       0.0220(13)
_refine_ls_extinction_expression Fc^*^=kFc[1+0.001xFc^2^\l^3^/sin(2\q)]^-1/4^
_refine_ls_extinction_method     SHELXL
_refine_ls_goodness_of_fit_ref   1.068
_refine_ls_hydrogen_treatment    constr
_refine_ls_matrix_type           full
_refine_ls_number_parameters     193
_refine_ls_number_reflns         3003
_refine_ls_number_restraints     0
_refine_ls_restrained_S_all      1.068
_refine_ls_R_factor_all          0.0426
_refine_ls_R_factor_gt           0.0418
_refine_ls_shift/su_max          0.000
_refine_ls_shift/su_mean         0.000
_refine_ls_structure_factor_coef Fsqd
_refine_ls_weighting_details
'w=1/[\s^2^(Fo^2^)+(0.0821P)^2^+0.1839P] where P=(Fo^2^+2Fc^2^)/3'
_refine_ls_weighting_scheme      calc
_refine_ls_wR_factor_gt          0.1153
_refine_ls_wR_factor_ref         0.1165
_reflns_Friedel_coverage         0.000
_reflns_number_gt                2888
_reflns_number_total             3003
_reflns_threshold_expression     'I > 2\s(I)'
_cod_data_source_file            jo7b02897_si_002.cif
_cod_data_source_block           shelxl
_cod_database_code               4034985
_shelx_space_group_comment
;
The symmetry employed for this shelxl refinement is uniquely defined
by the following loop, which should always be used as a source of
symmetry information in preference to the above space-group names.
They are only intended as comments.
;
_shelx_estimated_absorpt_t_min   0.307
_shelx_estimated_absorpt_t_max   0.344
_shelxl_version_number           2013-4
_shelx_res_file
;
TITL jsp161226_a.res in P-1
CELL  1.54184   7.4487   9.8574  11.7142   94.801   95.419  108.835
ZERR     2.00   0.0002   0.0003   0.0004    0.003    0.003    0.003
LATT   1
SFAC  C    H    N    O    S    CU   CL
UNIT  28   28   4    2    2    2    4
MERG   2
MORE -1
FMAP   2
PLAN    5
SIZE     0.22   0.24   0.25
ACTA
BOND   $H
CONF
LIST   6
L.S.   4
WGHT    0.082100    0.183900
EXTI    0.022002
FVAR       0.94019
CU1   6    0.479017    0.301746    0.257355    11.00000    0.03668    0.02869 =
         0.02760    0.00208    0.00149    0.00739
S1    5    0.671982    0.170910    0.065944    11.00000    0.03297    0.04862 =
         0.04449   -0.01451   -0.00504    0.01569
CL1   7    0.305952    0.335493    0.098634    11.00000    0.04629    0.06338 =
         0.03981    0.00926   -0.00954    0.01388
CL2   7    0.303768    0.066156    0.253024    11.00000    0.07591    0.03260 =
         0.05941    0.00444    0.00319   -0.00399
O1    4    0.723049    0.267845    0.179258    11.00000    0.03827    0.06004 =
         0.04448   -0.01880   -0.00335    0.01773
N1    3    0.649512    0.512312    0.281385    11.00000    0.03736    0.03101 =
         0.03169    0.00402    0.00487    0.01061
N2    3    0.573638    0.323122    0.431669    11.00000    0.03928    0.03882 =
         0.03035    0.00704    0.00586    0.01813
C5    1    0.739148    0.559166    0.390289    11.00000    0.03008    0.03322 =
         0.03657   -0.00266    0.00453    0.01304
C6    1    0.696198    0.456612    0.471881    11.00000    0.03252    0.04433 =
         0.02895    0.00060    0.00244    0.02112
C7    1    0.784345    0.497528    0.587087    11.00000    0.04296    0.07137 =
         0.03204   -0.00780   -0.00354    0.03405
C4    1    0.871258    0.698365    0.423896    11.00000    0.03401    0.03896 =
         0.05941   -0.00988    0.00563    0.01169
C1    1    0.692421    0.600558    0.201127    11.00000    0.05604    0.03893 =
         0.04296    0.01360    0.01327    0.01680
AFIX  43
H1    2    0.631765    0.569218    0.125917    11.00000   -1.20000
AFIX   0
C12   1    0.534106    0.225436    0.504703    11.00000    0.05896    0.05270 =
         0.04157    0.01839    0.01453    0.02789
AFIX  43
H12   2    0.449916    0.133214    0.477968    11.00000   -1.20000
AFIX   0
C10   1    0.737454    0.390919    0.661610    11.00000    0.07274    0.09818 =
         0.02867    0.01048    0.00199    0.05408
AFIX  43
H10   2    0.790127    0.412151    0.738863    11.00000   -1.20000
AFIX   0
C2    1    0.826564    0.739604    0.226597    11.00000    0.06395    0.03928 =
         0.07151    0.01909    0.02806    0.01641
AFIX  43
H2    2    0.857021    0.798184    0.168133    11.00000   -1.20000
AFIX   0
C8    1    0.915902    0.640607    0.619147    11.00000    0.04603    0.08364 =
         0.04475   -0.02647   -0.01367    0.02902
AFIX  43
H8    2    0.974554    0.668490    0.695036    11.00000   -1.20000
AFIX   0
C3    1    0.912457    0.789218    0.336668    11.00000    0.04813    0.03140 =
         0.08864   -0.00038    0.01947    0.00476
AFIX  43
H3    2    0.998122    0.882884    0.354182    11.00000   -1.20000
AFIX   0
C13   1    0.814440    0.058288    0.075954    11.00000    0.06328    0.05025 =
         0.07379   -0.00779   -0.00459    0.02981
AFIX 137
H13A  2    0.946925    0.116865    0.092119    11.00000   -1.50000
H13B  2    0.793633   -0.002543    0.004173    11.00000   -1.50000
H13C  2    0.780049   -0.000559    0.137001    11.00000   -1.50000
AFIX   0
C9    1    0.956514    0.735848    0.541429    11.00000    0.03717    0.05972 =
         0.07053   -0.02813   -0.00737    0.01013
AFIX  43
H9    2    1.042315    0.828389    0.564998    11.00000   -1.20000
AFIX   0
C11   1    0.614363    0.255786    0.620788    11.00000    0.07774    0.08006 =
         0.04075    0.02666    0.01608    0.04697
AFIX  43
H11   2    0.584086    0.184426    0.669797    11.00000   -1.20000
AFIX   0
C14   1    0.794175    0.280531   -0.034283    11.00000    0.10604    0.08551 =
         0.05127    0.01588    0.01000    0.04451
AFIX 137
H14A  2    0.732922    0.349816   -0.051385    11.00000   -1.50000
H14B  2    0.791039    0.220903   -0.104079    11.00000   -1.50000
H14C  2    0.924621    0.330133   -0.001565    11.00000   -1.50000
AFIX   0
HKLF    4

REM  jsp161226_a.res in P-1
REM R1 =  0.0418 for    2888 Fo > 4sig(Fo)  and  0.0426 for all    3003 data
REM    193 parameters refined using      0 restraints

END

WGHT      0.0821      0.1840

REM Highest difference peak  0.665,  deepest hole -0.671,  1-sigma level  0.099
Q1    1   0.4087  0.0592  0.2618  11.00000  0.05    0.66
Q2    1   0.4751  0.1666  0.2433  11.00000  0.05    0.51
Q3    1   0.4964  0.4323  0.2686  11.00000  0.05    0.48
Q4    1   0.3154  0.1420  0.2461  11.00000  0.05    0.41
Q5    1   0.5918  0.2870  0.2667  11.00000  0.05    0.35
;
_shelx_res_checksum              69347
_shelx_hkl_file
;
   0   0   1  194.59    3.60
   0   0  -1  186.49    2.86
   0   0   2  780.39   12.12
   0   0  -2  738.58   10.24
   0   0   3   52.15    2.78
   0   0   4 1109.47   20.07
   0   0   5  323.45    9.91
   0   0   6 4712.70   69.12
   0   0   7  107.54    6.66
   0   0   8  363.57   14.07
   0   0   8  384.41   10.42
   0   0   9  229.59   12.03
   0   0   9  232.00    8.18
   0   0 -10  196.44    7.57
   0   0  10  188.82    7.37
   0   0  11  209.31    7.63
   0   0 -11  216.76    7.96
   0   0 -12  311.01    9.30
   0   0  12  314.28    8.96
   0   0 -13   52.45    3.06
   0   0 -14   84.42    4.19
   0   1 -14    1.69    0.62
   0   1 -13  227.25    7.08
   0  -1  13  234.52    7.10
   0   1 -12  116.44    5.48
   0  -1  12  116.96    5.51
   0   1 -11  637.38   15.28
   0  -1  11  642.78   15.57
   0  -1  10  974.04   20.73
   0  -1   9   12.69    1.96
   0  -1   8   28.03    2.68
   0  -1   8   26.42    3.58
   0  -1   7 2117.79   38.27
   0  -1   6  557.10   14.53
   0   1  -5 2350.70   31.30
   0  -1   5 2362.76   36.56
   0   1  -4  905.02   13.74
   0  -1   4  918.78   16.47
   0   1  -3    1.88    0.37
   0  -1   3    0.61    0.26
   0  -1   2 2246.58   30.67
   0   1  -1 3315.56   42.87
   0  -1   1 3664.82   43.68
   0  -1   0 1372.31   19.52
   0   1   1  218.71    4.66
   0   1   2 2020.83   28.62
   0   1   3   18.65    1.74
   0   1   4    4.99    1.03
   0   1   5 3645.50   54.61
   0   1   6  685.09   18.03
   0   1   7  311.07   12.35
   0   1   8   20.15    2.02
   0   1   8   12.51    2.63
   0  -1  -9  100.67    5.01
   0   1   9   92.30    4.63
   0   1  10  100.52    4.92
   0  -1 -10  100.50    5.24
   0  -1 -11  179.44    7.04
   0   1  11  182.10    6.55
   0  -1 -12   34.53    2.76
   0  -1 -13   17.17    1.70
   0  -1 -14   32.68    2.31
   0   2 -13   19.66    1.97
   0  -2  13   21.46    2.14
   0  -2  12  378.44   11.14
   0   2 -12  389.95   10.95
   0  -2  11   97.06    5.71
   0  -2  10  114.79    6.30
   0  -2   9   15.43    2.25
   0  -2   9   11.78    2.30
   0  -2   8    2.96    1.08
   0  -2   8    4.31    1.07
   0   2  -8    2.70    0.97
   0  -2   7  821.32   18.62
   0  -2   6 1598.44   27.64
   0   2  -5   66.20    3.08
   0  -2   5   72.12    3.80
   0  -2   4    1.32    0.49
   0   2  -4    2.16    0.54
   0  -2   3   85.69    3.37
   0  -2   2    7.65    0.87
   0   2  -2    7.38    0.66
   0  -2   1  134.71    3.81
   0  -2   0 3842.07   51.67
   0   2   1   66.15    3.09
   0   2   2  121.02    4.88
   0   2   3   35.17    2.78
   0   2   4  324.27   10.15
   0   2   5   14.53    2.19
   0   2   6  141.73    7.97
   0   2   7   68.87    6.20
   0   2   8   15.44    3.08
   0  -2  -8   17.97    1.96
   0   2   9   91.55    8.34
   0  -2  -9  108.52    5.25
   0  -2 -10   82.60    4.68
   0  -2 -11    1.93    0.73
   0  -2 -12   18.58    1.98
   0  -2 -13  160.75    5.90
   0   3 -13   80.78    4.11
   0  -3  13   84.40    4.50
   0  -3  12   32.73    3.19
   0  -3  11  325.26   11.36
   0  -3  10   13.84    2.23
   0  -3   9  291.28   10.58
   0  -3   8  333.86   10.80
   0   3  -8  225.84   10.07
   0  -3   7   83.87    4.98
   0  -3   6  849.74   17.55
   0  -3   5   78.56    4.08
   0   3  -5   83.02    4.41
   0  -3   4  642.14   12.89
   0   3  -4  635.51   14.33
   0  -3   3   34.88    2.23
   0  -3   2 1317.13   20.45
   0   3  -2 1251.27   20.30
   0  -3   1   34.68    2.35
   0   3   0 2659.24   39.08
   0   3   1  141.97    5.65
   0   3   2  823.83   17.81
   0   3   3  321.28   11.01
   0   3   4    9.47    1.91
   0   3   5    8.94    2.04
   0   3   6  657.13   20.62
   0  -3  -7  290.05    8.24
   0   3   7  255.32   14.00
   0   3   8  788.75   27.33
   0  -3  -8  864.96   17.15
   0   3   9   84.17    4.79
   0  -3  -9   81.13    4.52
   0   3  10   83.88    4.84
   0  -3 -10   80.72    4.60
   0  -3 -11   72.43    4.30
   0   3  11   73.89    4.32
   0  -3 -12  179.61    6.23
   0  -3 -12  175.73    6.22
   0  -3 -13   35.43    2.14
   0   4 -13  167.58    6.05
   0  -4  13  180.75    6.88
   0  -4  12  208.39    8.66
   0  -4  11  166.57    8.30
   0  -4  10   71.29    5.54
   0  -4   9   12.61    2.28
   0  -4   8  109.09    6.71
   0   4  -8  103.04    6.16
   0  -4   7  989.28   20.65
   0   4  -7  895.14   20.59
   0  -4   6  246.76    8.23
   0   4  -5  994.04   22.25
   0  -4   5  991.61   18.73
   0  -4   4  715.81   14.64
   0  -4   3 1997.03   31.06
   0   4  -2  275.56    8.43
   0  -4   2  296.19    8.45
   0  -4   1 2703.39   39.86
   0   4   0  712.10   15.19
   0   4   1 7487.70  100.59
   0   4   2   18.75    2.62
   0   4   3  912.58   23.09
   0   4   4  348.90   14.09
   0   4   5  108.78    8.23
   0  -4  -6  361.79    9.60
   0   4   6  349.53    9.51
   0  -4  -7 2107.92   33.53
   0   4   7 2179.91   34.04
   0  -4  -8    7.80    1.36
   0   4   8    2.24    0.68
   0  -4  -9  442.51   12.18
   0   4   9  486.01   13.05
   0   4  10    1.50    0.73
   0  -4 -10    0.77    0.50
   0  -4 -11   43.40    3.07
   0  -4 -11   41.07    2.82
   0  -4 -12  148.46    4.66
   0  -5  13   60.65    3.71
   0   5 -13   54.27    3.08
   0  -5  12  110.09    6.17
   0  -5  11  214.31    9.68
   0  -5  10  141.26    8.20
   0  -5   9  184.99    9.52
   0  -5   8  272.92   10.78
   0   5  -8  305.01    9.65
   0  -5   7  155.34    7.90
   0  -5   6  960.14   21.96
   0   5  -5   44.75    4.89
   0  -5   4 2060.17   33.68
   0  -5   3 1118.04   21.60
   0   5  -2  915.51   19.39
   0  -5   2  799.59   17.03
   0   5  -1    1.46    0.62
   0   5   0 2452.97   39.02
   0   5   1  278.37    9.87
   0   5   2 1309.77   28.41
   0   5   3 1301.29   30.12
   0  -5  -4  155.41    6.27
   0   5   4  143.52    9.50
   0  -5  -5    1.51    0.58
   0   5   5    1.58    1.00
   0   5   6 1499.26   26.66
   0   5   6 1425.12   37.93
   0  -5  -6 1465.45   26.32
   0   5   7  940.16   31.59
   0   5   7  921.35   19.23
   0   5   8  350.04   10.64
   0  -5  -8  303.08    9.65
   0  -5  -9   62.33    4.00
   0   5   9   76.31    4.47
   0  -5 -10   42.03    3.03
   0  -5 -11   35.86    2.37
   0  -6  13   77.98    3.63
   0  -6  12    0.93    0.51
   0  -6  11  157.89    7.75
   0  -6  10   35.61    3.92
   0  -6   9   64.91    5.11
   0  -6   9   59.83    5.29
   0  -6   8   21.71    3.03
   0  -6   7   44.02    4.22
   0  -6   6   91.26    5.84
   0   6  -5  601.90   21.44
   0  -6   5  638.35   16.06
   0  -6   4   51.30    3.89
   0  -6   3  757.29   16.57
   0   6  -3  738.05   17.96
   0   6  -2  363.22   11.15
   0   6  -1    7.16    1.45
   0   6  -1    6.14    1.40
   0   6   0  167.60    7.50
   0   6   1  849.75   20.74
   0  -6  -1  790.29   16.38
   0  -6  -2  190.60    6.91
   0   6   2  182.41    6.56
   0   6   2  193.95    9.76
   0   6   3  141.60    8.98
   0  -6  -3  135.03    5.92
   0   6   3  135.49    5.76
   0   6   4  157.34   10.13
   0  -6  -4  163.99    6.70
   0   6   4  159.14    6.45
   0   6   5   57.05    6.31
   0  -6  -5   61.89    4.09
   0   6   5   61.38    3.93
   0   6   6  773.00   16.57
   0  -6  -6  764.69   16.79
   0   6   7    5.63    1.17
   0  -6  -7    5.45    1.20
   0   6   8   85.85    4.45
   0  -6  -8   77.70    4.31
   0  -6  -9   28.95    2.43
   0  -6 -10    7.42    1.10
   0  -7  12    4.38    0.91
   0  -7  11   33.87    2.96
   0  -7  10  143.89    7.05
   0  -7  10  139.03    6.60
   0  -7   9    1.16    0.86
   0  -7   9    1.71    0.79
   0  -7   8   46.05    4.28
   0  -7   8   41.79    4.07
   0  -7   7  117.38    6.74
   0  -7   6    7.55    1.75
   0  -7   5 1016.57   21.88
   0   7  -5  997.81   29.69
   0  -7   4  304.43   10.28
   0   7  -3    6.00    1.43
   0  -7   3    5.92    1.27
   0  -7   2   60.72    4.12
   0   7  -2   59.51    4.28
   0  -7   1  733.24   16.33
   0   7  -1  747.70   16.74
   0   7   0    6.72    1.66
   0   7   0    7.55    1.37
   0  -7   0    7.33    1.37
   0   7   1  634.04   14.63
   0  -7  -1  636.58   15.09
   0   7   2  178.47    6.97
   0  -7  -2  182.29    7.39
   0   7   3   10.31    1.62
   0  -7  -3   12.88    1.91
   0   7   4   38.13    3.07
   0  -7  -4   46.37    3.60
   0   7   5  205.49    7.26
   0  -7  -5  213.58    7.90
   0  -7  -6   18.24    2.44
   0  -7  -6   15.50    1.95
   0   7   6   13.68    1.72
   0   7   7  136.15    5.37
   0  -7  -7  128.53    5.52
   0  -7  -8   14.91    1.69
   0  -7  -9   40.95    2.53
   0  -8  11  120.80    4.41
   0  -8  10   41.17    2.93
   0  -8  10   40.09    2.94
   0  -8   9   77.80    4.75
   0  -8   9   81.27    4.60
   0  -8   8    7.53    1.57
   0  -8   8    7.16    1.45
   0  -8   7   17.93    2.44
   0  -8   6  583.35   15.54
   0  -8   5  184.68    8.11
   0  -8   4   89.54    5.54
   0  -8   3  211.86    8.54
   0   8  -2  101.47    5.80
   0  -8   2  105.91    5.72
   0   8  -1    4.35    1.24
   0  -8   1    5.01    1.26
   0  -8   0  898.18   18.69
   0   8   0  916.13   19.68
   0   8   1  130.31    6.22
   0   8   2  169.36    7.03
   0  -8  -2  165.16    7.25
   0   8   3    7.32    1.34
   0  -8  -3    8.66    1.65
   0  -8  -4  419.60   11.75
   0   8   4  405.15   10.86
   0  -8  -5    0.79    0.57
   0   8   5    0.16    0.36
   0  -8  -5    0.04    0.39
   0   8   6  468.88   10.75
   0  -8  -6  491.91   12.71
   0  -8  -7    0.65    0.48
   0  -8  -8  114.49    4.15
   0  -9   9   21.56    1.80
   0  -9   9   20.97    2.00
   0  -9   8   31.52    2.75
   0  -9   8   34.01    2.53
   0  -9   7  222.54    7.30
   0  -9   7  215.30    8.10
   0  -9   6  125.45    6.24
   0  -9   5  493.44   13.71
   0  -9   4  392.08   11.97
   0  -9   3  253.24    9.26
   0  -9   2  178.89    7.41
   0   9  -1  594.57   15.15
   0  -9   1  596.58   14.40
   0   9   0  173.98    7.45
   0   9   1   89.29    5.09
   0   9   2  135.92    6.06
   0   9   3  387.18   10.48
   0  -9  -3  448.61   12.71
   0  -9  -4   26.16    2.78
   0   9   4   23.84    2.16
   0  -9  -5  225.82    7.75
   0   9   5  198.85    6.13
   0  -9  -6   40.92    2.74
   0 -10   8    0.79    0.37
   0 -10   7   33.85    2.59
   0 -10   6   39.44    3.02
   0 -10   5   11.45    1.70
   0 -10   4   49.54    3.55
   0 -10   3   28.74    2.62
   0 -10   3   27.73    2.52
   0 -10   2  123.83    5.66
   0 -10   2  123.34    5.40
   0 -10   1   57.25    3.86
   0 -10   1   59.76    3.53
   0 -10   0   17.70    2.15
   0 -10  -1    2.31    0.80
   0 -10  -2   88.15    4.83
   0 -10  -3   11.23    1.65
   0 -10  -4   90.57    4.42
   0 -11   5    5.50    0.87
   0 -11   4   49.50    2.69
   0 -11   3   38.50    2.30
   0 -11   2    5.04    0.90
   0 -11   1   -0.11    0.28
   0 -11   0   16.63    1.68
   0 -11  -1   22.22    1.97
   0 -11  -2   77.58    3.57
   1 -11  -3   52.88    2.97
   1 -11  -2   41.69    2.81
   1 -11  -1    3.10    0.79
   1 -11   0   11.58    1.50
   1 -11   1   26.96    2.03
   1 -11   1   23.80    2.12
   1 -11   2   26.46    2.11
   1 -11   2   27.86    2.24
   1 -11   3   51.48    3.06
   1 -11   3   50.64    2.88
   1 -11   4   19.66    1.88
   1 -11   5    2.16    0.61
   1 -11   6    4.06    0.80
   1 -10  -5    2.36    0.67
  -1  10   5    4.24    0.76
   1 -10  -4  407.65   10.50
  -1  10   4  364.05    9.12
  -1  10   3   21.17    2.09
  -1  10   2  281.15    8.66
  -1  10   1   33.10    2.91
  -1  10   0   29.13    2.84
   1 -10   0   29.60    2.52
   1 -10   1   79.70    4.40
   1 -10   2  691.25   15.52
   1 -10   3   20.48    2.37
   1 -10   4  407.82   11.52
   1 -10   5   -0.01    0.46
   1 -10   6   98.80    5.03
   1 -10   7   97.54    4.25
   1 -10   7   94.95    4.63
   1 -10   8  131.93    4.55
   1 -10   8  127.87    4.84
  -1   9   7   77.54    3.35
  -1   9   6   14.62    1.58
   1  -9  -6   16.28    1.82
   1  -9  -5  237.76    8.18
  -1   9   5  212.70    6.98
  -1   9   4   33.11    2.76
  -1   9   3  682.21   15.41
  -1   9   2  284.03    9.50
  -1   9   1  112.83    5.91
   1  -9   0    3.28    0.90
  -1   9   0    3.51    1.09
  -1   9  -1  680.44   16.72
   1  -9   1  655.61   15.55
  -1   9  -2  704.83   17.44
   1  -9   2  730.79   17.00
   1  -9   3  175.60    7.68
   1  -9   4    9.70    1.79
   1  -9   5  179.36    7.80
   1  -9   6   39.37    3.45
   1  -9   7  151.84    6.73
   1  -9   8   76.45    4.45
   1  -9   8   83.07    4.58
   1  -9   9  230.07    7.27
   1  -9   9  241.97    7.45
   1  -9  10   15.00    1.50
  -1   8   8  231.41    6.60
  -1   8   7   37.67    2.73
   1  -8  -7   38.63    2.70
  -1   8   6   11.04    1.57
   1  -8  -6   10.91    1.56
   1  -8  -5  104.70    5.21
  -1   8   5   98.73    4.95
   1  -8  -4  716.92   16.17
  -1   8   4  677.84   15.53
   1  -8  -3  110.92    5.66
  -1   8   3  107.51    5.53
  -1   8   2  402.40   11.51
  -1   8   1  181.89    7.41
   1  -8  -1  173.99    6.85
  -1   8   1  182.38   10.51
  -1   8   0   87.48    5.12
   1  -8   0   87.78    4.93
   1  -8   1   95.52    5.33
  -1   8  -1   93.22    5.41
   1  -8   2  112.92    5.89
  -1   8  -2  119.65    9.70
  -1   8  -2  112.34    6.15
   1  -8   3  379.55   11.56
  -1   8  -3  392.55   18.21
  -1   8  -3  360.97   12.02
   1  -8   4  423.56   12.52
   1  -8   5    4.42    1.17
   1  -8   6  308.39   10.58
   1  -8   7   17.22    2.40
   1  -8   8   11.45    1.90
   1  -8   9    2.88    0.88
   1  -8   9    5.35    1.31
   1  -8  10   53.97    3.79
   1  -8  11    5.47    1.03
  -1   7   9  166.44    5.72
   1  -7  -8   10.77    1.44
  -1   7   8   11.51    1.58
   1  -7  -7   89.11    4.55
  -1   7   7   86.56    4.68
  -1   7   6    5.87    1.21
   1  -7  -6    6.84    1.31
  -1   7   5  120.81    5.79
   1  -7  -5  136.56    6.10
  -1   7   4    7.84    1.47
   1  -7  -4    9.25    1.57
  -1   7   4    8.45    2.26
  -1   7   3   73.36    6.39
   1  -7  -3   73.53    4.40
  -1   7   3   72.42    4.37
  -1   7   2    0.40    0.71
  -1   7   2    0.48    0.41
   1  -7  -2    0.80    0.48
  -1   7   1    0.06    0.31
   1  -7  -1    0.21    0.25
   1  -7  -1    0.90    0.78
  -1   7   1    0.40    0.59
  -1   7   0   81.11    4.48
   1  -7   0   78.71    4.74
  -1   7   0   90.18    6.83
  -1   7  -1   88.32    4.87
  -1   7  -1   90.66    6.70
   1  -7   1   85.30    5.04
  -1   7  -2  120.86    6.11
   1  -7   2  114.63    5.90
  -1   7  -3    1.58    1.43
  -1   7  -3    2.18    0.99
   1  -7   3    1.50    0.86
  -1   7  -4  369.09   18.07
   1  -7   4  365.53   11.10
   1  -7   5  262.61    9.35
  -1   7  -5  246.09   14.84
   1  -7   6  125.26    6.56
   1  -7   7   10.07    1.94
   1  -7   8    3.49    1.21
   1  -7   9    2.10    0.89
   1  -7   9    3.56    1.36
   1  -7  10  230.00    9.59
   1  -7  11   38.84    3.43
   1  -7  12   14.58    1.71
  -1   6  10  132.59    5.29
   1  -6  -9  155.52    5.80
  -1   6   9  148.74    6.37
   1  -6  -8   21.76    2.22
  -1   6   8   22.55    2.53
   1  -6  -7   78.03    4.40
  -1   6   7   71.36    4.64
  -1   6   6  413.05   19.56
  -1   6   6  358.41   11.03
   1  -6  -6  386.99   10.66
   1  -6  -5  481.76   12.12
  -1   6   5  447.25   12.41
  -1   6   5  485.31   20.05
  -1   6   4  125.55    9.07
   1  -6  -4  124.33    5.47
  -1   6   4  115.84    5.66
  -1   6   3  195.99   10.58
   1  -6  -3  187.56    6.73
  -1   6   3  183.04    7.04
  -1   6   2   74.66    5.99
  -1   6   2   64.66    3.86
  -1   6   1  941.61   23.14
  -1   6   0  200.25    9.52
  -1   6  -1  331.59   12.98
  -1   6  -2  251.52   10.76
  -1   6  -3 1073.38   30.39
   1  -6   4   65.83    4.26
  -1   6  -4   56.62    6.37
   1  -6   5 1980.67   32.86
  -1   6  -5 1673.64   41.27
   1  -6   6  205.64    8.62
  -1   6  -7  159.32    6.34
   1  -6   7  151.35    7.76
   1  -6   8  319.80   11.89
  -1   6  -8  378.12   10.90
  -1   6  -9  405.26   11.20
   1  -6   9  314.79   13.28
   1  -6  10   14.87    2.60
   1  -6  11  287.90   10.89
   1  -6  12   15.23    2.06
  -1   5  11   58.05    3.45
   1  -5 -11   49.69    2.70
  -1   5  10  255.51    8.98
  -1   5   9   22.71    2.67
   1  -5  -9   22.95    2.33
  -1   5   8  473.79   13.14
   1  -5  -8  471.15   12.14
  -1   5   7  278.28    9.29
   1  -5  -7  279.01    8.92
  -1   5   7  254.97   15.87
   1  -5  -6 1115.43   20.88
  -1   5   6 1077.33   21.06
  -1   5   5  483.22   12.24
   1  -5  -5  501.14   12.00
  -1   5   4  514.90   18.40
  -1   5   3    1.95    1.06
  -1   5   2 4472.92   69.25
  -1   5   1  660.09   17.03
  -1   5   0 1591.08   27.11
  -1   5   0 1371.43   28.93
  -1   5  -1   15.21    2.48
  -1   5  -1   18.50    1.82
  -1   5  -2 1281.72   26.19
  -1   5  -3 1826.57   38.11
  -1   5  -4 2267.16   43.84
  -1   5  -5  283.61   12.52
  -1   5  -6  887.47   23.27
  -1   5  -6  861.86   17.58
   1  -5   6  875.38   19.72
   1  -5   7   17.57    2.49
  -1   5  -7   17.14    2.18
  -1   5  -8  241.24    9.39
   1  -5   9  171.37    9.10
  -1   5  -9  194.40    8.57
   1  -5  10  817.90   21.02
   1  -5  11    2.47    1.13
   1  -5  12  124.41    6.33
  -1   5 -13    4.24    0.92
   1  -5  13    3.37    0.83
  -1   4  12  138.81    5.37
  -1   4  11  125.51    5.88
  -1   4  10   23.19    2.59
  -1   4   9  428.15   12.21
   1  -4  -9  447.57   11.86
  -1   4   8   53.30    7.00
   1  -4  -8   54.82    3.64
  -1   4   8   53.20    3.76
  -1   4   8   54.98    3.30
  -1   4   7 1147.86   19.62
   1  -4  -7 1147.13   20.66
  -1   4   7 1126.56   21.09
  -1   4   6  707.09   23.68
  -1   4   5  233.99   11.64
  -1   4   4    3.12    1.24
  -1   4   3  749.51   18.94
  -1   4   2   43.38    3.64
  -1   4   1 1309.10   23.97
  -1   4   0  873.23   19.47
  -1   4   0  874.48   16.58
  -1   4  -1    5.22    1.27
  -1   4  -1    6.58    0.98
  -1   4  -2  399.02   10.84
  -1   4  -3  221.08    9.13
   1  -4   3  213.15    5.58
  -1   4  -4  324.91   11.20
  -1   4  -5 3406.12   53.77
  -1   4  -6  558.45   15.59
  -1   4  -7  170.55    7.56
  -1   4  -8  351.34   12.26
  -1   4  -9    1.32    0.62
   1  -4   9    0.92    0.58
   1  -4  10   14.96    2.43
   1  -4  11  220.59    9.23
   1  -4  12    2.67    0.94
  -1   4 -13   16.22    1.87
   1  -4  13   16.09    1.83
  -1   3  13   22.60    1.91
  -1   3  12  221.39    7.44
  -1   3  11    2.73    0.90
  -1   3  10    0.39    0.27
   1  -3  -9  216.26    7.33
  -1   3   9  206.09    7.00
   1  -3  -8  710.54   14.51
  -1   3   8  692.52   14.26
  -1   3   7   84.18    3.93
  -1   3   7   67.52    6.41
  -1   3   6  105.29    7.36
  -1   3   5  561.21   16.76
  -1   3   4  429.05   12.64
  -1   3   3  665.66   15.07
  -1   3   2 1101.16   19.67
  -1   3   1  307.04    7.63
  -1   3   0   16.52    1.31
  -1   3   0   19.87    2.04
  -1   3  -1   26.49    2.24
  -1   3  -1   40.54    1.96
  -1   3  -2    7.70    1.34
   1  -3   2    8.60    0.81
  -1   3  -3 1143.90   21.28
   1  -3   3 1137.00   16.69
  -1   3  -4 2237.66   35.81
   1  -3   4 2233.43   31.20
   1  -3   5  184.70    5.64
  -1   3  -5  184.07    7.24
  -1   3  -6  562.92   13.69
  -1   3  -7   43.68    3.60
  -1   3  -8   39.21    3.80
   1  -3   8   52.11    4.04
  -1   3  -9  176.07    8.70
   1  -3   9  201.75    8.35
   1  -3  10  547.14   15.12
   1  -3  11  183.03    7.93
   1  -3  12   89.89    4.99
  -1   3 -12   88.07    5.08
  -1   3 -12   77.33    4.26
   1  -3  13   19.02    1.90
  -1   3 -13   18.57    2.00
  -1   2  13  197.43    6.44
  -1   2  12    1.96    0.59
  -1   2  11   70.68    4.06
  -1   2  10  254.90    8.35
  -1   2   9  323.33    9.38
   1  -2  -9  323.00    9.22
  -1   2   8  531.68   12.19
   1  -2  -8  559.43   12.18
  -1   2   7  870.54   22.89
  -1   2   6  675.19   18.26
  -1   2   5  132.26    6.74
  -1   2   4  924.28   19.11
  -1   2   3   14.81    1.66
  -1   2   2 1576.45   23.79
  -1   2   1  736.21   11.73
  -1   2   0   14.89    1.41
  -1   2   0   11.90    0.68
  -1   2  -1  992.77   16.65
  -1   2  -2 1070.44   17.92
   1  -2   2 1050.85   14.30
   1  -2   3  312.20    6.79
  -1   2  -3  308.52    8.12
   1  -2   4 3058.96   42.58
  -1   2  -4 3062.69   43.84
  -1   2  -5  430.80   10.35
   1  -2   5  445.91   10.74
   1  -2   6  810.66   17.38
  -1   2  -6  764.22   15.35
   1  -2   7   56.93    4.45
   1  -2   8  510.73   12.98
   1  -2   8  534.17   15.91
   1  -2   9    9.56    1.68
  -1   2  -9   10.14    1.84
   1  -2  10  705.21   16.81
   1  -2  11   61.70    4.24
   1  -2  12  520.83   12.55
  -1   2 -12  510.55   13.29
  -1   2 -13    1.48    0.69
  -1   2 -13    0.77    0.40
   1  -1 -14  165.14    5.89
  -1   1  13    9.39    1.23
  -1   1  12  106.80    4.99
  -1   1  11   38.19    3.19
  -1   1  10    0.60    0.54
  -1   1   9 1446.30   25.61
   1  -1  -9 1453.17   24.80
  -1   1   8 1390.05   32.36
  -1   1   8 1472.96   25.10
  -1   1   7  146.02    8.11
  -1   1   6 1682.69   31.57
  -1   1   5 1592.21   28.62
  -1   1   4   23.81    2.29
  -1   1   3 6022.13   74.42
  -1   1   3 6020.04   79.26
  -1   1   2 2859.47   36.53
  -1   1   2 2851.85   38.82
  -1   1   1 2712.25   34.86
  -1   1   1 2704.48   35.01
  -1   1   0  549.27    7.81
  -1   1   0  544.36    9.27
   1  -1   1 4007.62   50.40
  -1   1  -1 4220.07   53.05
  -1   1  -2 1430.24   21.16
   1  -1   2 1399.34   19.73
   1  -1   3 3599.06   47.88
  -1   1  -3 3552.86   48.30
  -1   1  -4  440.72    9.74
   1  -1   4  481.60   10.81
  -1   1  -5 4586.41   62.37
   1  -1   5 4786.14   65.52
   1  -1   6  136.99    6.59
   1  -1   7 1560.24   30.42
   1  -1   8   89.79    4.66
  -1   1  -8   76.80    4.55
   1  -1   8   81.95    6.17
   1  -1   9   50.80    5.29
   1  -1   9   42.00    3.30
  -1   1 -10  206.50    8.19
   1  -1  10  230.09    8.14
   1  -1  11  673.67   14.85
  -1   1 -11  650.36   15.79
  -1   1 -12   14.41    1.94
  -1   1 -13  157.18    5.87
  -1   1 -13  173.06    7.60
  -1   0  14   54.59    2.98
  -1   0  13  378.28    9.62
  -1   0  12    6.00    1.27
  -1   0  11  100.53    5.50
  -1   0  10  546.32   19.49
  -1   0  10  554.96   14.42
   1   0 -10  552.82   13.42
  -1   0   9 1028.47   21.03
  -1   0   8  786.92   22.37
  -1   0   8  810.39   17.14
  -1   0   7 1398.03   29.74
  -1   0   6  794.45   19.02
  -1   0   5  618.81   14.81
  -1   0   4  627.23   13.52
  -1   0   3   10.02    0.76
  -1   0   3   12.84    1.44
  -1   0   2  806.54   12.17
  -1   0   2  859.25   14.31
  -1   0   1   35.16    1.36
  -1   0   1   39.01    1.80
  -1   0   0 2353.45   32.08
  -1   0   0 3184.57   32.22
   1   0   1  145.66    4.01
  -1   0  -1  160.86    3.94
   1   0   2 2357.41   33.87
  -1   0  -2 2563.81   33.53
  -1   0  -3  345.33    7.48
   1   0   3  348.77    8.33
   1   0   4 3638.37   51.44
   1   0   5  645.66   15.02
   1   0   6 2676.75   44.49
   1   0   7  884.71   21.89
   1   0   8  255.42   11.72
   1   0   9    3.31    1.42
  -1   0  -9    3.56    0.99
  -1   0 -10   10.13    1.68
  -1   0 -11  101.35    5.36
  -1   0 -12  545.88   13.09
  -1   0 -13   39.47    3.36
  -1   0 -13   31.57    2.42
  -1  -1  14   53.57    2.83
  -1  -1  13  109.15    5.02
  -1  -1  12   93.23    5.14
  -1  -1  11  583.86   15.22
  -1  -1  10  101.57    7.81
  -1  -1  10  105.35    5.98
  -1  -1   9  138.97    6.68
  -1  -1   9  132.30    8.48
  -1  -1   8  203.12    9.80
  -1  -1   8  206.39    7.78
  -1  -1   7  481.28   14.43
  -1  -1   6  343.92   10.78
  -1  -1   5  987.27   19.37
   1   1  -4 1410.58   18.93
  -1  -1   4 1456.88   24.03
  -1  -1   3  196.99    6.11
  -1  -1   2  185.17    5.30
  -1  -1   1  559.19   10.28
  -1  -1   0  142.67    4.71
   1   1   1 1951.42   30.14
   1   1   2 1790.95   27.61
   1   1   3  685.64   14.61
   1   1   4 1637.01   28.49
   1   1   5  696.82   16.89
   1   1   6  139.86    7.51
   1   1   7  526.16   17.63
  -1  -1  -7  538.75   12.27
  -1  -1  -8  369.17   10.26
   1   1   8  346.76   14.99
  -1  -1  -9  244.17    8.48
   1   1   9  218.54   12.53
  -1  -1 -10  104.65    5.47
  -1  -1 -11  437.00   11.81
  -1  -1 -12   49.38    3.33
  -1  -1 -12   56.16    4.19
  -1  -1 -13   39.60    2.61
  -1  -1 -13   44.45    3.14
  -1  -2  14   31.46    2.26
  -1  -2  13   13.30    1.78
  -1  -2  12  164.11    7.24
  -1  -2  11  143.60    7.20
  -1  -2  10  164.26    7.84
  -1  -2   9  118.57    7.68
  -1  -2   9  109.23    6.17
  -1  -2   8  211.89    9.60
  -1  -2   8  213.42    8.40
  -1  -2   7  795.68   18.99
  -1  -2   6 2217.14   36.78
  -1  -2   5   76.83    4.42
  -1  -2   4 1627.38   27.00
  -1  -2   3 1478.17   24.05
  -1  -2   2  266.56    7.08
  -1  -2   1 3115.34   43.71
  -1  -2   0 1958.50   30.75
   1   2   1  255.54    8.30
   1   2   2  117.69    5.55
   1   2   3  418.45   12.84
   1   2   4   68.78    5.14
   1   2   5 1373.92   29.64
   1   2   6 1122.05   27.46
   1   2   7   45.77    5.40
  -1  -2  -7   46.62    3.19
   1   2   8    6.84    2.29
  -1  -2  -8    7.71    1.39
  -1  -2  -9  195.10    7.52
  -1  -2 -10    1.43    0.60
  -1  -2 -11  570.27   13.59
  -1  -2 -12    9.69    1.41
  -1  -2 -12    9.33    1.47
  -1  -2 -13   42.07    2.56
  -1  -3  14   49.77    2.92
  -1  -3  13  171.53    6.83
  -1  -3  12   10.34    1.88
  -1  -3  11  281.89   10.89
  -1  -3  10    2.50    1.16
  -1  -3   9  128.95    7.30
  -1  -3   9  134.74    7.95
  -1  -3   8  787.24   19.77
  -1  -3   8  760.13   18.86
  -1  -3   7 1093.69   23.06
  -1  -3   7 1046.46   22.40
  -1  -3   6  794.43   18.12
  -1  -3   5  178.72    7.37
  -1  -3   4  585.85   13.60
  -1  -3   3    1.45    0.58
  -1  -3   2 4248.00   59.31
  -1  -3   1 1922.69   31.20
  -1  -3   0 1989.31   32.32
   1   3   1 3421.13   51.30
   1   3   2  877.60   19.48
   1   3   3   29.84    3.55
   1   3   4 2773.02   50.38
   1   3   5  846.24   24.53
   1   3   6  454.45   18.59
  -1  -3  -6  516.09   11.69
  -1  -3  -7   51.89    3.44
   1   3   7   49.43    6.26
  -1  -3  -8  273.88    8.84
   1   3   8  276.17   16.59
  -1  -3  -9    1.63    0.81
  -1  -3 -10  368.77   10.75
  -1  -3 -10  374.26   10.87
  -1  -3 -11    0.51    0.49
  -1  -3 -11    0.74    0.65
  -1  -3 -12  115.58    4.47
  -1  -3 -12  118.26    4.71
  -1  -4  13  111.47    5.39
  -1  -4  12  478.68   14.05
  -1  -4  11   12.42    2.32
  -1  -4  10   81.52    6.14
  -1  -4   9   38.46    3.66
  -1  -4   9   34.78    4.05
  -1  -4   8  433.64   14.74
  -1  -4   8  483.17   14.28
  -1  -4   7 1084.55   24.03
  -1  -4   7 1037.81   24.58
  -1  -4   6 2186.63   36.43
  -1  -4   6 2052.69   37.60
  -1  -4   5    1.98    0.79
  -1  -4   4  379.89   11.17
  -1  -4   3 1438.16   26.01
  -1  -4   2  316.53   10.18
  -1  -4   1 2874.81   45.02
   1   4   0 1499.31   27.95
   1   4   1 2511.68   41.08
   1   4   2  178.48    8.27
   1   4   3 1772.16   36.57
   1   4   4  550.98   19.11
  -1  -4  -5 1247.90   22.31
   1   4   5 1181.23   32.11
   1   4   6   33.64    5.22
  -1  -4  -6   28.88    2.66
  -1  -4  -7  359.24   10.39
   1   4   7  333.40   17.58
  -1  -4  -8  113.27    5.74
  -1  -4  -8  108.92    5.09
  -1  -4  -9  361.58    9.96
  -1  -4  -9  366.97   11.00
  -1  -4 -10   20.77    2.04
  -1  -4 -10   19.26    2.22
  -1  -4 -11   75.06    3.87
  -1  -4 -11   73.50    3.46
  -1  -5  13   78.43    4.04
  -1  -5  12   47.14    3.84
  -1  -5  11  225.53    9.78
  -1  -5  10    6.40    1.76
  -1  -5   9   22.24    3.06
  -1  -5   9   18.48    2.96
  -1  -5   8  188.67    9.66
  -1  -5   8  220.80   10.16
  -1  -5   7  253.15   11.03
  -1  -5   7  236.47   10.75
  -1  -5   6  404.94   12.70
  -1  -5   6  372.86   13.41
  -1  -5   5  383.09   12.18
  -1  -5   5  385.99   13.14
  -1  -5   4    1.29    0.77
  -1  -5   3  109.23    6.26
  -1  -5   2  734.68   18.03
   1   5  -1  137.51    7.19
   1   5   0  489.34   14.09
   1   5   1  147.84    7.42
   1   5   2  264.16   11.11
  -1  -5  -3  254.21    8.47
   1   5   3  262.02   12.26
   1   5   4  112.49    8.49
  -1  -5  -4  101.74    5.24
  -1  -5  -5   21.73    2.42
  -1  -5  -5   21.43    2.88
   1   5   5   27.60    4.44
  -1  -5  -6    7.62    1.44
   1   5   6    8.46    2.61
  -1  -5  -7    0.55    0.53
  -1  -5  -8  240.96    8.45
  -1  -5  -9   46.65    3.35
  -1  -5 -10    4.72    0.94
  -1  -5 -11  108.86    3.94
  -1  -6  12   18.97    2.02
  -1  -6  11   12.29    1.89
  -1  -6  10   16.27    2.41
  -1  -6  10   20.41    2.68
  -1  -6   9    1.23    0.84
  -1  -6   9    1.21    0.80
  -1  -6   8    9.43    2.02
  -1  -6   8    9.10    1.95
  -1  -6   7  271.83   10.84
  -1  -6   7  268.09   11.30
  -1  -6   6   46.71    4.41
  -1  -6   5  156.87    7.93
  -1  -6   4  477.27   14.19
  -1  -6   4  473.88   14.64
  -1  -6   3   10.02    1.84
  -1  -6   3   10.09    1.93
   1   6  -2  149.69    6.84
  -1  -6   2  168.18    7.36
   1   6  -1   83.54    4.71
   1   6  -1   98.12    6.24
  -1  -6   1   97.81    5.33
  -1  -6   1   84.61    4.68
   1   6   0  423.10   13.74
  -1  -6   0  413.34   11.13
   1   6   0  392.49   10.57
   1   6   1  533.48   16.49
   1   6   1  508.24   12.12
  -1  -6  -1  523.36   13.02
   1   6   2    2.26    0.73
   1   6   2    4.12    1.55
  -1  -6  -2    3.28    0.99
  -1  -6  -3  105.70    5.51
   1   6   3   99.52    7.72
  -1  -6  -4    6.54    1.36
  -1  -6  -4    4.67    1.34
   1   6   4    5.01    1.73
  -1  -6  -5   45.63    4.28
  -1  -6  -5   43.93    3.49
  -1  -6  -6   98.83    5.19
  -1  -6  -6  104.60    6.44
  -1  -6  -7  214.90    7.66
  -1  -6  -8   -0.25    0.56
  -1  -6  -9    5.54    1.02
  -1  -6 -10   31.95    2.10
  -1  -7  11    0.35    0.40
  -1  -7  10   79.05    4.84
  -1  -7  10   87.58    4.60
  -1  -7   9    8.90    1.59
  -1  -7   9    8.58    1.80
  -1  -7   8  118.46    6.83
  -1  -7   8  116.06    5.98
  -1  -7   7  152.70    7.86
  -1  -7   7  147.76    6.89
  -1  -7   6  139.10    6.68
  -1  -7   6  131.11    7.17
  -1  -7   5  311.10   11.30
  -1  -7   4   12.51    2.14
  -1  -7   3   59.26    4.46
  -1  -7   2  336.81   11.00
   1   7  -1  830.34   18.44
  -1  -7   1  905.76   19.27
   1   7   0  161.57    8.98
  -1  -7   0  144.74    6.64
   1   7   0  151.08    6.56
   1   7   1  986.29   26.01
  -1  -7  -1  926.15   20.08
   1   7   1  942.22   19.19
   1   7   2  527.93   18.69
  -1  -7  -2  544.95   14.35
   1   7   2  545.29   13.31
  -1  -7  -3   32.14    3.12
  -1  -7  -3   31.79    3.50
  -1  -7  -4   11.38    1.83
  -1  -7  -4   10.96    2.04
  -1  -7  -5  447.42   13.82
  -1  -7  -5  443.09   11.95
  -1  -7  -6   33.17    3.32
  -1  -7  -6   28.65    2.65
  -1  -7  -7  324.93    9.12
  -1  -7  -8  176.59    5.87
  -1  -7  -9   14.47    1.36
  -1  -8  10   22.46    1.73
  -1  -8  10   18.45    1.86
  -1  -8   9  155.91    5.47
  -1  -8   9  139.78    6.18
  -1  -8   8   13.16    1.98
  -1  -8   8   13.76    1.68
  -1  -8   7  194.56    8.16
  -1  -8   6  258.01    9.78
  -1  -8   5  639.53   16.60
  -1  -8   4   26.65    3.05
  -1  -8   3 1187.99   23.58
  -1  -8   3 1187.01   24.23
  -1  -8   2  279.39    9.79
  -1  -8   2  288.91   10.12
  -1  -8   1   38.25    3.32
   1   8   0  833.42   18.25
   1   8   1  714.46   16.25
  -1  -8  -1  712.82   17.94
   1   8   2   24.30    2.47
  -1  -8  -2   24.84    2.75
  -1  -8  -2   30.04    3.29
  -1  -8  -3  474.23   14.12
  -1  -8  -3  470.91   12.76
  -1  -8  -4   86.83    4.78
  -1  -8  -4   99.63    5.90
  -1  -8  -5    2.63    0.83
  -1  -8  -5    2.21    0.91
  -1  -8  -6  371.05    9.51
  -1  -8  -6  398.34   10.55
  -1  -8  -7  175.67    5.56
  -1  -9   9   17.83    1.67
  -1  -9   8   23.42    2.21
  -1  -9   7   36.85    3.02
  -1  -9   6   59.71    4.10
  -1  -9   5  140.65    6.56
  -1  -9   4  242.17    8.85
  -1  -9   3    6.17    1.29
  -1  -9   3    4.47    1.13
  -1  -9   2   35.62    3.27
  -1  -9   2   39.05    3.21
  -1  -9   1  205.95    8.33
  -1  -9   0   89.61    5.36
  -1  -9  -1  183.66    7.86
  -1  -9  -2  407.80   12.14
  -1  -9  -3    6.36    1.42
  -1  -9  -4    2.06    0.76
  -1  -9  -5   93.69    4.37
  -1 -10   7   14.38    1.49
  -1 -10   6   87.58    4.09
  -1 -10   5   16.67    1.80
  -1 -10   4    3.13    0.80
  -1 -10   3    1.21    0.54
  -1 -10   3    0.27    0.43
  -1 -10   2    9.37    1.46
  -1 -10   1   81.21    4.46
  -1 -10   0   75.75    4.32
  -1 -10  -1    6.28    1.23
  -1 -10  -2    7.21    1.27
  -1 -10  -3    6.54    1.12
  -2  11   4   46.33    2.46
   2 -11  -4   49.83    2.68
  -2  11   3  122.67    4.59
  -2  11   2    0.90    0.41
  -2  11   1  126.03    5.29
   2 -11   0   46.85    2.77
   2 -11   1  142.03    5.26
   2 -11   2    8.74    1.32
   2 -11   3  146.87    5.61
   2 -11   4   28.97    2.43
   2 -11   5   68.80    3.67
   2 -11   6    2.15    0.58
   2 -11   6    2.17    0.62
  -2  10   6  116.89    4.17
  -2  10   5   66.76    3.43
   2 -10  -5   73.32    3.75
  -2  10   4  184.65    6.40
  -2  10   3    4.39    1.06
  -2  10   2  190.82    7.35
   2 -10  -1   88.37    4.41
  -2  10   1   85.94    5.03
   2 -10   0  256.65    8.18
  -2  10   0  267.60    9.43
   2 -10   1    3.52    0.96
  -2  10  -1    4.18    1.35
   2 -10   2  432.79   11.79
   2 -10   3    0.24    0.64
   2 -10   4  209.19    7.94
   2 -10   5    4.15    1.11
   2 -10   6  158.22    6.42
   2 -10   7   43.80    3.05
   2 -10   8  226.41    6.64
   2 -10   8  242.31    6.99
  -2   9   8   15.62    1.39
  -2   9   7  198.75    6.12
  -2   9   6   41.42    2.86
  -2   9   5   96.09    4.77
  -2   9   4    0.20    0.39
  -2   9   3  354.33   10.65
  -2   9   2  276.08    9.50
  -2   9   1  134.42    6.53
   2  -9  -1  124.34    5.90
   2  -9   0  159.06    6.93
  -2   9   0  173.23    7.52
   2  -9   1   74.90    4.82
  -2   9  -1   74.37    4.95
   2  -9   2    1.68    0.86
  -2   9  -2    1.91    0.99
   2  -9   3  268.76    9.70
   2  -9   4  427.57   12.49
   2  -9   5   28.35    2.93
   2  -9   6   11.17    1.82
   2  -9   7   22.92    2.49
   2  -9   8    3.71    0.99
   2  -9   9  226.37    7.59
   2  -9  10   14.89    1.59
  -2   8   9   40.71    2.43
  -2   8   8    3.07    0.77
  -2   8   7  115.55    5.16
  -2   8   6   17.79    2.07
  -2   8   5  123.16    5.84
  -2   8   4  209.06    7.91
  -2   8   3    3.67    1.10
  -2   8   2  342.34   10.66
  -2   8   2  348.18   16.16
  -2   8   2  333.55   16.51
  -2   8   1  159.95   11.42
  -2   8   1  148.83   10.01
  -2   8   1  142.75    6.52
  -2   8   0    1.52    1.00
  -2   8   0    0.29    0.86
  -2   8   0    0.73    0.58
   2  -8   1  194.84    8.47
  -2   8  -1  202.66    7.99
   2  -8   2  448.41   13.55
  -2   8  -2  442.65   13.08
   2  -8   3    8.90    1.89
  -2   8  -3   10.66    3.32
  -2   8  -3   11.03    1.97
  -2   8  -4  212.84   14.82
   2  -8   4  222.40    8.85
   2  -8   5   29.34    3.02
   2  -8   6    4.48    1.26
   2  -8   7   99.46    5.74
   2  -8   8  144.36    6.80
   2  -8   9   12.91    2.16
   2  -8  10   67.64    4.31
   2  -8  11    8.17    1.25
  -2   7  10  121.98    4.56
  -2   7   9   38.41    2.89
  -2   7   8  324.63    9.83
  -2   7   7  222.01    8.26
  -2   7   6  276.81    9.48
  -2   7   5   43.51    3.59
  -2   7   4  882.77   19.44
  -2   7   4 1000.04   29.22
  -2   7   3  726.89   24.77
  -2   7   3  749.28   24.54
   2  -7  -3  681.82   15.52
  -2   7   3  668.50   15.91
  -2   7   2  246.17   13.26
  -2   7   2  249.25   13.92
  -2   7   2  214.22    7.82
  -2   7   1    1.66    1.12
  -2   7   1    0.91    0.79
  -2   7   1    0.67    0.44
  -2   7   0  271.93   13.39
  -2   7   0  236.73    8.05
  -2   7   0  287.48   15.23
  -2   7  -1   19.63    2.26
  -2   7  -1   19.94    4.07
  -2   7  -2  985.45   20.67
  -2   7  -2 1012.72   31.78
  -2   7  -3  416.05   19.84
  -2   7  -3  435.87   13.17
   2  -7   4    5.68    1.45
  -2   7  -4    1.81    1.59
   2  -7   5    2.15    0.99
  -2   7  -5    1.28    0.48
   2  -7   6  605.21   15.64
  -2   7  -6  595.33   13.17
   2  -7   7    5.30    1.32
  -2   7  -7    4.28    1.02
  -2   7  -8  433.21   11.53
   2  -7   8  421.89   13.09
  -2   7  -9   80.37    4.48
   2  -7  10  141.38    7.34
   2  -7  11    3.52    1.03
   2  -7  12   79.97    3.86
  -2   6  11  172.63    5.68
  -2   6  10  210.54    7.46
  -2   6   9   15.39    2.15
  -2   6   8  536.26   14.51
  -2   6   7  296.19   10.29
  -2   6   6   25.45    4.47
  -2   6   6   18.01    2.43
  -2   6   5 2138.08   37.37
  -2   6   5 2492.51   49.22
  -2   6   4 1103.65   22.70
  -2   6   4 1241.14   31.38
  -2   6   3   58.10    3.95
  -2   6   3   23.64    3.92
  -2   6   2 2316.57   47.71
  -2   6   1 1301.84   32.65
  -2   6   0   98.69    8.25
  -2   6   0  113.68    8.31
  -2   6  -1 1772.27   37.81
  -2   6  -1 1777.91   40.88
  -2   6  -2  428.26   18.12
  -2   6  -3  840.42   26.36
  -2   6  -4   20.87    3.91
   2  -6   5  900.83   19.69
  -2   6  -5  850.36   16.68
  -2   6  -6    2.78    0.87
  -2   6  -6    1.35    1.22
   2  -6   6    4.20    1.25
  -2   6  -7  785.54   17.54
   2  -6   7  803.30   19.43
  -2   6  -8   26.43    2.88
  -2   6  -9  536.01   15.06
  -2   6 -10   28.05    2.96
   2  -6  10   23.36    3.10
   2  -6  11  158.08    7.50
   2  -6  12    9.51    1.49
  -2   5  12   35.86    2.43
  -2   5  11   95.06    5.01
  -2   5  10  211.03    8.26
  -2   5   9  347.62   10.98
  -2   5   8    5.73    1.29
  -2   5   7   66.23    4.30
  -2   5   7   58.20    7.57
  -2   5   6  982.80   19.86
  -2   5   6  847.84   29.49
  -2   5   5  243.57    8.25
  -2   5   5  214.53   12.76
  -2   5   4  898.18   24.37
  -2   5   4  801.89   24.20
  -2   5   3 1606.40   34.32
  -2   5   3 1417.72   31.24
  -2   5   2  969.80   25.23
  -2   5   2  838.28   20.07
  -2   5   1  125.62    8.35
  -2   5   0  692.17   20.27
  -2   5   0  613.72   19.00
  -2   5  -1  577.05   18.15
  -2   5  -1  516.47   16.21
  -2   5  -2  525.56   17.53
  -2   5  -3    3.97    1.50
  -2   5  -4  311.69   13.15
  -2   5  -5  232.00   11.31
  -2   5  -6  439.21   12.03
  -2   5  -6  422.98   15.55
  -2   5  -7    2.66    1.07
  -2   5  -8    5.53    1.47
  -2   5  -9    0.37    0.59
   2  -5   9   -0.02    0.71
  -2   5 -10  839.47   20.90
   2  -5  10  773.24   19.81
   2  -5  11   58.76    4.47
   2  -5  12   34.40    2.95
  -2   5 -13    1.03    0.45
  -2   4  12    2.11    0.71
  -2   4  11  181.78    7.25
  -2   4  10   79.82    4.90
  -2   4  10   83.92    4.44
  -2   4   9   22.45    2.52
  -2   4   9   24.50    2.36
  -2   4   8   18.29    1.97
  -2   4   8   19.19    4.17
  -2   4   7  122.72    9.83
  -2   4   7  107.82    4.78
  -2   4   7   99.13    8.81
  -2   4   6    4.98    0.99
  -2   4   6    4.92    1.74
  -2   4   6    5.13    1.91
  -2   4   5  425.52   16.67
  -2   4   5  383.86   15.01
  -2   4   4   79.66    6.49
  -2   4   4   77.31    4.93
  -2   4   4   73.68    5.67
  -2   4   3   46.37    4.57
  -2   4   3   48.76    4.06
  -2   4   3   51.88    4.14
  -2   4   2  368.12   13.39
  -2   4   2  389.76   10.64
  -2   4   2  368.78   12.05
  -2   4   1 1658.18   25.36
  -2   4   1 1674.18   32.75
  -2   4   1 1640.86   30.83
  -2   4   0  646.59   16.78
  -2   4   0  647.34   16.57
  -2   4  -1  212.80    8.90
  -2   4  -2  406.09   12.90
  -2   4  -3  456.31   14.05
  -2   4  -4   41.96    3.98
  -2   4  -5  964.41   22.69
  -2   4  -6  311.14    9.98
  -2   4  -6  395.53   13.30
  -2   4  -7   13.33    2.05
  -2   4  -8   59.73    4.76
  -2   4  -9  544.29   16.87
   2  -4   9  613.56   16.28
   2  -4  10    4.33    1.30
  -2   4 -10    3.50    1.25
   2  -4  11  206.61    8.33
   2  -4  12   42.70    3.17
  -2   4 -12   44.80    3.56
  -2   4 -13   44.71    3.03
  -2   3  13    4.67    0.94
  -2   3  12   46.23    3.38
  -2   3  12   47.17    3.02
  -2   3  11    6.69    1.23
  -2   3  10   57.74    3.77
  -2   3   9   35.54    2.96
  -2   3   9   33.11    5.24
  -2   3   8  108.98    5.02
  -2   3   8   90.22    8.13
  -2   3   7   84.76    4.18
  -2   3   7   90.94    7.23
  -2   3   7   76.94    6.76
  -2   3   6  823.26   22.42
  -2   3   6  765.84   21.53
  -2   3   5  275.18   11.39
  -2   3   5  267.19   10.73
  -2   3   4   60.61    4.79
  -2   3   4   64.83    3.40
  -2   3   4   68.43    4.70
  -2   3   3  272.30    7.81
  -2   3   3  284.48    8.81
  -2   3   2  499.46   13.69
  -2   3   2  485.21   11.50
  -2   3   2  508.86   11.00
  -2   3   1  870.97   14.07
  -2   3   1  841.96   16.79
  -2   3   1  831.86   18.06
  -2   3   0  408.24    6.99
  -2   3   0  393.85   10.53
  -2   3  -1   72.96    4.29
  -2   3  -2  302.76    9.54
  -2   3  -3 2296.15   37.66
  -2   3  -4 1687.89   30.21
  -2   3  -5  150.17    7.06
  -2   3  -6  112.40    6.25
  -2   3  -7  310.45    9.86
  -2   3  -8    3.33    1.06
   2  -3   8    1.81    0.83
  -2   3  -9 1124.18   25.27
   2  -3   9 1296.16   24.55
  -2   3 -10  535.53   15.73
  -2   3 -10  541.61   15.16
  -2   3 -11   17.75    2.31
   2  -3  11   18.41    2.20
  -2   3 -12    1.94    0.70
  -2   3 -12    2.43    0.76
  -2   3 -13    5.72    1.14
  -2   2  13   58.72    3.13
  -2   2  13   59.65    3.55
  -2   2  12   25.86    2.38
  -2   2  11   81.67    4.70
  -2   2  10  108.70    5.55
  -2   2   9  350.89   10.30
  -2   2   9  307.66   14.96
  -2   2   8  428.89   11.21
  -2   2   8  439.97   11.27
  -2   2   7 2168.96   33.43
  -2   2   7 2216.01   33.36
  -2   2   6  631.55   18.10
  -2   2   6  691.38   16.77
  -2   2   5  154.86    6.70
  -2   2   5  155.88    7.38
  -2   2   4 1177.32   22.40
  -2   2   4 1213.45   17.76
  -2   2   4 1244.34   23.16
  -2   2   3 1410.66   24.50
  -2   2   3 1404.27   23.67
  -2   2   3 1370.60   21.04
  -2   2   2  566.60   11.33
  -2   2   2  592.79   12.96
  -2   2   1 9999.00  118.73
  -2   2   1 8519.20  118.86
  -2   2   0 1831.56   25.37
  -2   2   0 1943.08   28.61
  -2   2  -1  447.71   10.60
  -2   2  -2 4261.62   59.03
   2  -2   2 4079.37   53.12
  -2   2  -3  954.51   18.93
   2  -2   3  971.69   15.28
  -2   2  -4 2114.68   34.75
   2  -2   4 2171.68   31.48
  -2   2  -5 1204.23   23.58
   2  -2   5 1278.45   22.07
  -2   2  -6  200.03    7.81
   2  -2   6  239.64    8.41
  -2   2  -7   12.81    1.73
  -2   2  -8 1269.34   24.12
  -2   2  -9   76.58    4.97
  -2   2 -10  531.93   17.12
  -2   2 -11  106.84    5.76
  -2   2 -11  114.20    7.14
  -2   2 -12   90.29    5.65
  -2   2 -12   78.56    4.55
  -2   2 -13    0.33    0.36
  -2   2 -13    1.17    0.52
  -2   1  14  142.91    4.97
  -2   1  13    0.67    0.41
  -2   1  12  176.76    6.88
  -2   1  11    3.55    1.03
  -2   1  10  113.67    5.95
  -2   1   9  693.36   15.94
  -2   1   9  679.67   22.00
  -2   1   9  664.71   15.15
  -2   1   8 1787.15   29.72
  -2   1   8 1757.72   28.96
  -2   1   7   19.12    3.01
  -2   1   6 1164.52   25.42
  -2   1   5  334.58    8.55
  -2   1   5  324.47   10.77
  -2   1   4  532.41   11.17
  -2   1   4  560.29   13.35
  -2   1   3 2472.74   35.19
  -2   1   3 2462.25   32.66
  -2   1   2 6398.79   79.80
  -2   1   2 6024.55   81.56
  -2   1   1 5563.06   68.13
  -2   1   1 4927.71   67.78
  -2   1   0 1105.54   17.83
  -2   1   0 1075.19   17.39
  -2   1  -1    1.28    0.43
   2  -1   1    2.17    0.46
  -2   1  -1    1.49    0.54
   2  -1   2  201.58    5.08
  -2   1  -2  205.01    6.53
  -2   1  -3 2815.57   41.02
   2  -1   3 2736.85   38.91
  -2   1  -4 3326.39   48.51
   2  -1   4 3387.15   47.93
  -2   1  -5 2686.23   41.27
   2  -1   5 2750.03   42.00
   2  -1   6  273.96   10.07
  -2   1  -7  564.95   13.01
   2  -1   7  644.25   17.38
   2  -1   8    5.06    1.61
  -2   1  -8    5.28    1.19
  -2   1  -9  697.49   16.19
  -2   1  -9  715.38   16.83
  -2   1 -10  163.00    7.23
  -2   1 -11  174.52    7.30
  -2   1 -11  204.65   10.31
  -2   1 -12   11.72    2.19
  -2   1 -12    9.11    1.47
  -2   1 -13   33.35    3.03
  -2   1 -13   28.75    2.30
  -2   0  14   11.57    1.26
  -2   0  13  218.35    7.22
  -2   0  12    2.44    0.85
  -2   0  11   26.11    2.85
  -2   0  10  423.52   11.86
  -2   0  10  442.04   12.75
  -2   0   9  236.97    8.80
  -2   0   9  249.95   12.46
  -2   0   9  234.83    8.05
  -2   0   8  966.18   19.72
  -2   0   8  981.67   25.18
  -2   0   8  949.85   18.63
  -2   0   7 2115.59   39.27
  -2   0   6   25.44    2.98
  -2   0   5   10.49    1.71
  -2   0   4  894.09   18.07
  -2   0   3  796.03   15.92
  -2   0   2  324.00    8.33
  -2   0   1 3835.10   52.74
  -2   0   1 3914.96   51.63
  -2   0   0 1673.62   26.91
  -2   0   0 1767.06   25.72
  -2   0  -1  795.33   14.07
  -2   0  -1  713.85   15.44
  -2   0  -2  276.68    7.39
   2   0   2  249.63    7.18
   2   0   3  257.42    7.95
  -2   0  -3  248.24    7.45
   2   0   4 1531.12   26.85
   2   0   5   38.57    3.39
   2   0   6   74.73    5.27
   2   0   7   47.17    4.76
  -2   0  -7   45.67    3.31
  -2   0  -7   48.21    3.24
  -2   0  -8  135.83    6.23
   2   0   8  130.97    8.54
  -2   0  -8  132.74    5.76
  -2   0  -9   15.20    2.09
  -2   0 -10  104.74    7.11
  -2   0 -10   86.74    5.16
  -2   0 -11    0.02    0.61
  -2   0 -11    0.94    0.59
  -2   0 -12  114.03    6.24
  -2   0 -12   92.63    4.62
  -2   0 -13   46.16    3.28
  -2   0 -13   43.25    2.70
  -2  -1  14   78.33    3.58
  -2  -1  13   -0.22    0.45
  -2  -1  12    2.74    0.95
  -2  -1  11   48.71    4.02
  -2  -1  10  465.95   13.69
  -2  -1  10  449.95   12.28
  -2  -1   9  691.11   17.11
  -2  -1   9  661.18   15.46
  -2  -1   8  212.57   10.44
  -2  -1   8  206.35    8.10
  -2  -1   8  199.03    7.32
  -2  -1   7   90.23    6.12
  -2  -1   6  159.46    7.59
  -2  -1   5  120.25    6.08
  -2  -1   4  202.86    7.65
  -2  -1   3 1052.94   19.76
  -2  -1   2  356.66    9.32
  -2  -1   1  134.10    5.31
  -2  -1   0  582.86   13.64
  -2  -1  -1  199.29    7.65
   2   1   2  256.49    8.83
   2   1   3  101.61    5.69
   2   1   4  150.10    7.50
   2   1   5  713.85   19.23
  -2  -1  -6  110.26    4.80
   2   1   6  104.80    7.16
   2   1   7  263.68   12.59
  -2  -1  -7  276.63    8.65
   2   1   8    3.69    1.53
  -2  -1  -8    3.80    1.03
  -2  -1  -9    4.60    1.19
  -2  -1 -10  210.04    9.19
  -2  -1 -10  201.14    7.89
  -2  -1 -11  165.43    7.51
  -2  -1 -11  156.51    6.47
  -2  -1 -12   21.51    2.34
  -2  -1 -12   18.74    1.95
  -2  -1 -13   48.01    2.77
  -2  -1 -13   44.73    2.62
  -2  -2  14  100.22    4.21
  -2  -2  13   28.02    2.64
  -2  -2  12   58.39    4.32
  -2  -2  11  231.62    9.57
  -2  -2  10  107.20    6.61
  -2  -2   9    4.44    1.43
  -2  -2   9    3.45    1.41
  -2  -2   9    3.17    1.01
  -2  -2   8  975.47   19.84
  -2  -2   8  902.87   19.11
  -2  -2   8  932.54   23.62
  -2  -2   8  925.32   20.98
  -2  -2   7    3.96    1.13
  -2  -2   7    4.48    1.35
  -2  -2   6   93.31    5.85
  -2  -2   5  147.41    7.09
  -2  -2   4 1735.94   30.93
  -2  -2   3  129.51    5.80
  -2  -2   2  532.13   12.99
  -2  -2   1  247.79    8.30
  -2  -2   0 2726.22   43.29
   2   2   1 1558.86   29.60
   2   2   2  238.81    9.43
   2   2   3  506.91   15.49
   2   2   4  319.42   13.26
   2   2   5 2113.04   43.17
  -2  -2  -6 1760.44   28.31
   2   2   6 1609.16   38.43
  -2  -2  -7    3.47    0.93
   2   2   7    4.42    1.89
  -2  -2  -8   44.05    3.51
   2   2   8   41.41    6.08
  -2  -2  -8   40.52    3.53
  -2  -2  -9  286.60   10.05
  -2  -2  -9  296.09    9.71
  -2  -2 -10    5.67    1.35
  -2  -2 -10    5.79    1.32
  -2  -2 -11  475.29   12.11
  -2  -2 -11  464.31   11.80
  -2  -2 -12  183.09    6.02
  -2  -2 -12  180.79    6.18
  -2  -3  13   78.27    4.51
  -2  -3  12    2.06    0.87
  -2  -3  11  177.08    8.70
  -2  -3  10   11.32    2.26
  -2  -3   9  791.90   18.64
  -2  -3   9  804.37   22.27
  -2  -3   9  753.30   20.74
  -2  -3   8   44.50    4.40
  -2  -3   8   50.57    4.86
  -2  -3   8   47.25    4.06
  -2  -3   7 1546.44   29.51
  -2  -3   7 1576.73   31.51
  -2  -3   6  121.09    6.52
  -2  -3   6  127.39    7.08
  -2  -3   5 2332.91   39.98
  -2  -3   4    2.56    1.02
  -2  -3   3  536.39   14.12
  -2  -3   2 1821.92   31.78
  -2  -3   1 2998.94   47.63
  -2  -3   0 2588.63   42.77
   2   3   1  457.50   13.98
   2   3   2    5.42    1.46
   2   3   3   80.83    6.27
   2   3   4 2326.03   46.91
  -2  -3  -5 2945.24   42.99
   2   3   5 2823.39   57.06
  -2  -3  -5 2925.62   42.52
   2   3   6 1326.47   36.48
  -2  -3  -6 1401.47   24.33
  -2  -3  -6 1366.71   23.97
  -2  -3  -7  373.69   10.69
   2   3   7  359.07   18.18
  -2  -3  -7  374.83   10.38
  -2  -3  -8    0.77    0.51
  -2  -3  -8    0.32    0.48
  -2  -3  -9    7.12    1.34
  -2  -3  -9    6.27    1.36
  -2  -3 -10  478.88   12.63
  -2  -3 -10  458.37   11.61
  -2  -3 -11  150.04    5.43
  -2  -3 -11  147.30    5.83
  -2  -3 -12   34.31    2.15
  -2  -4  13    3.53    0.92
  -2  -4  12  176.76    7.61
  -2  -4  11    5.27    1.53
  -2  -4  10  111.09    7.28
  -2  -4  10  121.34    6.48
  -2  -4   9   77.00    5.64
  -2  -4   9   68.26    5.85
  -2  -4   8  484.96   15.78
  -2  -4   8  496.64   16.28
  -2  -4   7  249.59   11.14
  -2  -4   7  266.11   11.31
  -2  -4   7  234.20   10.75
  -2  -4   6 1280.54   26.88
  -2  -4   6 1174.17   27.03
  -2  -4   5  115.61    7.31
  -2  -4   5  118.16    6.93
  -2  -4   4  455.39   14.05
  -2  -4   3   59.07    4.70
  -2  -4   2  156.39    7.86
  -2  -4   1  813.85   20.01
   2   4   0 1509.08   30.53
   2   4   1  382.86   13.18
   2   4   2    7.11    1.71
  -2  -4  -3  405.81   10.99
  -2  -4  -3  364.58   13.00
  -2  -4  -4   92.78    4.95
  -2  -4  -4   81.76    5.97
  -2  -4  -5 2180.51   35.59
  -2  -4  -5 2046.73   40.55
  -2  -4  -6   58.50    4.06
   2   4   6   74.50    7.93
  -2  -4  -7  315.87    8.86
  -2  -4  -7  299.75    9.98
  -2  -4  -8    3.57    0.88
  -2  -4  -8    5.20    1.25
  -2  -4  -9   99.17    5.33
  -2  -4  -9  100.53    4.56
  -2  -4 -10   25.52    2.36
  -2  -4 -10   23.68    1.93
  -2  -4 -11  116.10    4.36
  -2  -5  12    9.48    1.44
  -2  -5  11   21.52    2.57
  -2  -5  10    6.87    1.62
  -2  -5  10    5.34    1.44
  -2  -5   9   48.10    4.75
  -2  -5   9   54.17    4.76
  -2  -5   8  244.77   11.50
  -2  -5   8  261.18   10.98
  -2  -5   7  134.93    8.57
  -2  -5   7  155.85    8.57
  -2  -5   7  157.18    8.31
  -2  -5   6  141.44    8.63
  -2  -5   6  152.38    8.40
  -2  -5   5   69.99    5.65
  -2  -5   5   80.78    6.32
  -2  -5   4    2.97    1.15
  -2  -5   4    3.54    1.25
  -2  -5   3  399.89   13.56
  -2  -5   3  377.78   12.86
  -2  -5   3  381.54   13.66
  -2  -5   2 1041.54   23.13
  -2  -5   2 1040.05   24.28
  -2  -5   2 1015.95   23.40
   2   5  -1  113.91    7.22
  -2  -5   1   99.85    4.99
  -2  -5   1  103.76    6.51
   2   5   0   95.83    6.52
  -2  -5   0   90.39    6.05
  -2  -5   0   81.98    4.40
  -2  -5  -1    1.39    0.81
  -2  -5  -1    2.51    0.81
   2   5   1    2.56    1.09
  -2  -5  -2   13.51    1.83
   2   5   2   16.05    2.88
  -2  -5  -2   11.96    2.28
  -2  -5  -3  192.26    9.51
  -2  -5  -3  188.78    7.39
  -2  -5  -4  495.04   13.04
  -2  -5  -4  498.06   16.27
  -2  -5  -5   41.16    3.38
  -2  -5  -5   46.17    4.76
  -2  -5  -6    5.70    1.58
  -2  -5  -6    5.07    1.19
  -2  -5  -7   33.80    3.02
  -2  -5  -8    6.33    1.20
  -2  -5  -9    4.29    0.91
  -2  -5 -10   53.18    2.90
  -2  -6  11   20.23    2.10
  -2  -6  11   21.94    1.99
  -2  -6  10   32.30    2.81
  -2  -6  10   29.59    3.15
  -2  -6   9   50.99    4.65
  -2  -6   9   59.62    4.15
  -2  -6   8    7.81    1.95
  -2  -6   8    9.63    1.68
  -2  -6   7  453.45   15.47
  -2  -6   6   -0.45    1.13
  -2  -6   5    5.51    1.59
  -2  -6   5    6.96    1.86
  -2  -6   4  201.72    9.47
  -2  -6   4  182.44    9.43
  -2  -6   3   78.26    5.48
  -2  -6   3   80.96    5.71
   2   6  -2  458.17   15.70
  -2  -6   2  428.04   13.51
  -2  -6   2  434.21   14.00
  -2  -6   1  590.38   15.76
   2   6  -1  604.49   18.31
  -2  -6   1  591.02   16.80
   2   6   0   72.51    5.95
  -2  -6   0   68.53    4.32
  -2  -6   0   76.21    5.62
   2   6   1   50.40    5.16
  -2  -6  -1   51.15    3.78
  -2  -6  -1   57.16    4.93
  -2  -6  -2  381.47   13.70
  -2  -6  -2  386.21   11.43
   2   6   2  419.61   16.92
  -2  -6  -3  455.39   15.15
  -2  -6  -3  440.14   12.28
  -2  -6  -4  159.52    6.83
  -2  -6  -4  172.69    9.06
  -2  -6  -5  434.42   11.83
  -2  -6  -5  469.05   15.18
  -2  -6  -6  130.97    7.07
  -2  -6  -6  131.64    5.87
  -2  -6  -7   64.24    3.86
  -2  -6  -8   37.08    2.70
  -2  -6  -9   93.92    3.91
  -2  -7  10   63.46    3.85
  -2  -7   9   36.85    3.33
  -2  -7   8  573.90   15.59
  -2  -7   7    2.72    1.16
  -2  -7   6  554.66   16.05
  -2  -7   5   33.08    3.54
  -2  -7   4  347.89   12.14
  -2  -7   3   72.12    5.07
  -2  -7   3   73.01    5.20
  -2  -7   2  972.53   21.64
  -2  -7   2 1002.19   22.45
  -2  -7   1  104.07    5.85
  -2  -7   1  104.46    6.46
  -2  -7   0  363.32   12.74
  -2  -7  -1   61.78    4.28
  -2  -7  -1   59.28    4.98
  -2  -7  -2  612.00   17.51
  -2  -7  -2  616.26   15.27
  -2  -7  -3  138.55    6.40
  -2  -7  -3  143.90    7.86
  -2  -7  -4  302.15    9.51
  -2  -7  -4  333.88   12.14
  -2  -7  -5  136.52    7.00
  -2  -7  -5  133.31    5.77
  -2  -7  -6  230.28    8.20
  -2  -7  -6  225.50    7.33
  -2  -7  -7  161.08    5.64
  -2  -7  -8  174.71    5.25
  -2  -8   9   46.17    3.03
  -2  -8   8    2.94    0.89
  -2  -8   7  283.93    9.52
  -2  -8   6    0.27    0.54
  -2  -8   5  174.77    7.74
  -2  -8   4    0.31    0.52
  -2  -8   3  281.78    9.80
  -2  -8   3  267.08    9.69
  -2  -8   2   43.16    3.53
  -2  -8   2   43.06    3.85
  -2  -8   1  229.90    9.33
  -2  -8   0   27.52    3.14
  -2  -8  -1  510.12   14.87
  -2  -8  -2  100.79    6.16
  -2  -8  -3  209.58    8.78
  -2  -8  -4   12.42    1.60
  -2  -8  -4   13.27    1.98
  -2  -8  -5   46.12    2.87
  -2  -8  -5   47.92    3.37
  -2  -9   8   62.62    3.13
  -2  -9   7    7.03    1.19
  -2  -9   6   22.82    2.25
  -2  -9   5    6.18    1.20
  -2  -9   4   29.24    2.60
  -2  -9   3    2.12    0.70
  -2  -9   3    2.78    0.82
  -2  -9   2    2.26    0.80
  -2  -9   1   34.47    3.14
  -2  -9   0    3.24    1.00
  -2  -9  -1   53.48    3.84
  -2  -9  -2   53.83    3.74
  -2  -9  -3    8.84    1.41
  -2  -9  -4   15.12    1.63
  -2 -10   1   94.81    4.00
  -2 -10   0  129.85    4.75
  -2 -10  -1    1.23    0.47
  -3  11   4   33.27    2.17
  -3  11   3    2.70    0.69
  -3  11   2    0.12    0.38
   3 -11  -1  170.33    5.43
  -3  11   1  188.19    6.73
  -3  11   0  266.99    8.33
   3 -11   0  247.22    7.14
   3 -11   1  416.30   10.09
   3 -11   2    4.06    0.92
   3 -11   3   64.64    3.65
   3 -11   4    3.94    0.97
   3 -11   5  203.49    6.57
   3 -11   6   17.70    1.68
  -3  10   7   18.25    1.43
  -3  10   6  137.05    4.71
  -3  10   5  177.91    6.00
  -3  10   4    1.92    0.71
  -3  10   3   59.83    3.84
   3 -10  -2   62.29    3.61
  -3  10   2   66.88    4.27
   3 -10  -1   83.75    4.48
  -3  10   1   97.03    5.34
   3 -10   0  413.99   11.33
  -3  10   0  462.41   12.70
   3 -10   1    9.29    1.62
  -3  10  -1   13.47    2.03
   3 -10   2   51.32    3.77
   3 -10   3  157.04    6.73
   3 -10   4   47.26    3.59
   3 -10   5   59.24    3.90
   3 -10   6  104.52    4.94
   3 -10   7    1.32    0.56
   3 -10   8   64.86    3.49
  -3   9   8   43.68    2.46
  -3   9   7   25.30    2.08
  -3   9   6   41.21    2.91
  -3   9   5   13.47    1.80
  -3   9   4   21.38    2.38
  -3   9   3   14.99    2.05
  -3   9   2    2.44    0.91
  -3   9   1  182.55    7.63
  -3   9   0   35.43    3.27
   3  -9   1   97.03    5.93
  -3   9  -1  102.30    5.74
   3  -9   2  161.95    7.74
  -3   9  -2  163.50    7.52
   3  -9   3  161.81    7.61
   3  -9   4   92.77    5.54
   3  -9   5   66.09    4.42
   3  -9   6   14.78    1.98
   3  -9   7   17.66    2.09
   3  -9   8   27.83    2.40
   3  -9   9   68.11    3.93
   3  -9  10   10.34    1.27
  -3   8   9   10.79    1.28
  -3   8   8    0.31    0.35
  -3   8   7   23.70    2.33
  -3   8   6  152.04    6.52
  -3   8   5    4.41    1.13
  -3   8   4    2.64    0.89
  -3   8   3   59.70    4.18
  -3   8   2  151.13   12.08
  -3   8   2  135.15    6.41
  -3   8   2  144.02   10.84
  -3   8   1   17.85    2.22
  -3   8   1   23.08    4.73
  -3   8   0  177.88    7.35
  -3   8   0  188.38   13.78
  -3   8  -1  153.91   12.69
  -3   8  -1  145.04    6.71
  -3   8  -2  175.39   13.76
  -3   8  -2  176.26    7.81
  -3   8  -3   12.84    2.13
  -3   8  -3   12.48    3.65
  -3   8  -4  237.99    7.13
   3  -8   4  246.22    9.66
  -3   8  -5   13.71    1.64
   3  -8   5   14.86    2.29
  -3   8  -6    4.22    0.95
   3  -8   6    4.09    1.19
   3  -8   7  287.39    9.80
  -3   8  -7  288.64    8.43
  -3   8  -8  213.42    7.08
  -3   8  -9   15.57    1.67
   3  -8   9   15.22    2.27
   3  -8  10   13.91    1.84
  -3   7  10   18.46    1.80
  -3   7   9   48.71    3.35
  -3   7   8    4.76    1.19
  -3   7   7  410.77   11.95
  -3   7   6   22.95    2.67
  -3   7   5   93.86    5.56
  -3   7   4  347.42   11.17
  -3   7   4  403.75   19.06
  -3   7   3 1388.23   37.71
  -3   7   3 1330.77   25.21
  -3   7   3 1285.94   37.78
  -3   7   2   90.93    4.93
  -3   7   2   90.91    4.08
  -3   7   2  104.86    9.33
  -3   7   2  100.41    9.60
  -3   7   1  408.61    9.46
  -3   7   1  453.97   19.46
  -3   7   1  413.49   19.82
  -3   7   1  404.72   11.05
  -3   7   0  392.25    9.13
  -3   7   0  375.85   18.90
  -3   7   0  391.59   10.75
  -3   7  -1  613.35   12.35
  -3   7  -1  583.35   24.28
  -3   7  -1  621.10   14.86
  -3   7  -2 1055.41   18.25
  -3   7  -2 1063.80   22.18
  -3   7  -3  670.91   13.40
  -3   7  -3  617.15   25.27
  -3   7  -3  637.87   16.95
  -3   7  -4   11.78    1.54
  -3   7  -4   12.51    3.44
  -3   7  -5   24.83    2.34
   3  -7   5   25.72    3.02
  -3   7  -5   22.02    4.53
  -3   7  -6  607.38   14.24
   3  -7   6  628.56   16.17
  -3   7  -7   16.19    2.12
   3  -7   7   15.12    2.28
  -3   7  -8  351.39   10.62
  -3   7  -9  369.82   11.00
  -3   7 -10   42.39    3.12
   3  -7  10   32.01    3.22
   3  -7  11    0.26    0.32
  -3   6  11    3.14    0.77
  -3   6  10  145.98    6.39
  -3   6   9    8.34    1.56
  -3   6   8  399.96   12.22
  -3   6   7    1.98    0.92
  -3   6   6   76.32    5.08
  -3   6   6   92.90    9.68
  -3   6   5  808.52   19.16
  -3   6   5  934.67   31.06
  -3   6   4  955.59   30.57
  -3   6   4  890.30   19.91
  -3   6   3  599.22   14.56
  -3   6   3  552.00   12.23
  -3   6   3  565.67   21.15
  -3   6   2  957.03   18.81
  -3   6   2  935.72   28.81
  -3   6   2  897.36   27.88
  -3   6   1   28.06    4.48
  -3   6   1   32.34    4.83
  -3   6   0   32.18    4.83
  -3   6  -1 1922.99   43.52
  -3   6  -2  503.23   19.82
  -3   6  -3   27.51    4.46
  -3   6  -3   28.70    2.35
  -3   6  -4 1043.49   19.31
  -3   6  -4  953.07   29.11
  -3   6  -5    0.75    0.58
  -3   6  -5    0.39    0.74
  -3   6  -6   17.96    2.27
  -3   6  -6   14.38    3.28
   3  -6   6   16.85    2.49
  -3   6  -7 1264.20   25.25
  -3   6  -8   90.21    5.71
   3  -6   9   45.64    4.42
  -3   6  -9   54.35    4.50
  -3   6 -10   39.13    3.62
   3  -6  10   32.21    3.34
   3  -6  11   18.22    2.18
  -3   6 -12    6.16    1.14
  -3   5  12   26.43    2.24
  -3   5  11   22.43    2.47
  -3   5  10  124.73    6.21
  -3   5   9  341.39   10.84
  -3   5   8   50.96    3.88
  -3   5   7   12.11    3.58
  -3   5   7   11.20    1.78
  -3   5   6  161.58   12.35
  -3   5   6  145.53    6.48
  -3   5   5    1.66    0.67
  -3   5   5    1.47    0.96
  -3   5   4  865.59   27.51
  -3   5   4  893.86   18.37
  -3   5   3 1429.02   35.71
  -3   5   3 1510.21   31.77
  -3   5   2  155.21    9.88
  -3   5   2  162.73    9.01
  -3   5   1   40.53    4.73
  -3   5   1   41.60    4.55
  -3   5   0  796.50   22.00
  -3   5  -1  420.90   15.39
  -3   5  -2  432.16   15.84
  -3   5  -3 2269.48   44.59
  -3   5  -4    0.98    0.78
  -3   5  -4    1.73    0.75
  -3   5  -5    0.28    0.50
  -3   5  -5    0.05    0.50
  -3   5  -6  365.38   11.42
  -3   5  -6  378.38   15.28
  -3   5  -7  113.24    6.42
  -3   5  -8   19.27    2.78
   3  -5   9  580.01   16.12
  -3   5  -9  521.95   16.19
  -3   5 -10   79.24    5.68
   3  -5  10   82.57    5.24
   3  -5  11   10.02    1.56
  -3   5 -12   23.90    2.37
  -3   4  13   21.62    1.84
  -3   4  12   71.19    4.15
  -3   4  11  115.41    5.78
  -3   4  10  198.24    7.44
  -3   4  10  197.84    7.99
  -3   4   9   -0.05    0.40
  -3   4   8    1.59    0.63
  -3   4   7  110.81    5.18
  -3   4   7  116.40    9.19
  -3   4   7  111.68    9.54
  -3   4   6  107.87    8.60
  -3   4   6  119.19    9.04
  -3   4   6  106.94    4.92
  -3   4   5 1259.67   21.75
  -3   4   5 1245.49   31.34
  -3   4   5 1213.27   29.67
  -3   4   4  199.31   10.63
  -3   4   4  196.61    9.38
  -3   4   3   44.86    4.66
  -3   4   3   38.35    3.38
  -3   4   2    5.10    1.27
  -3   4   2    7.15    1.79
  -3   4   1    0.70    0.48
  -3   4   0  599.65   16.12
  -3   4  -1 1236.84   25.83
  -3   4  -2  141.69    7.73
  -3   4  -3   81.31    5.84
  -3   4  -4   28.42    3.57
  -3   4  -5   42.95    3.29
  -3   4  -5   49.21    4.78
  -3   4  -6  198.98    7.90
  -3   4  -6  236.45   11.09
  -3   4  -7  100.33    5.75
  -3   4  -8    5.84    1.23
  -3   4  -8    5.42    1.44
  -3   4  -9  610.82   17.37
  -3   4  -9  589.88   14.72
  -3   4 -10   97.41    4.97
  -3   4 -10  107.54    6.58
  -3   4 -11  184.45    7.64
  -3   4 -12   19.42    2.12
  -3   3  13   12.79    1.56
  -3   3  12   70.45    4.24
  -3   3  12   69.02    3.86
  -3   3  11    2.27    0.79
  -3   3  10  422.16   11.68
  -3   3   9   73.31    4.49
  -3   3   8    2.89    1.31
  -3   3   8    5.63    1.23
  -3   3   8    3.79    1.04
  -3   3   7   88.16    4.60
  -3   3   7   84.44    4.42
  -3   3   6 1843.75   29.60
  -3   3   6 1813.40   35.68
  -3   3   6 1869.40   29.34
  -3   3   5  355.29   12.63
  -3   3   4 2093.05   37.35
  -3   3   3   40.85    3.71
  -3   3   3   38.31    2.86
  -3   3   2 1089.76   20.95
  -3   3   2 1121.33   20.46
  -3   3   1  160.41    5.35
  -3   3   1  150.37    6.47
  -3   3   0 2354.82   38.07
  -3   3  -1   63.29    4.33
  -3   3  -2  609.89   15.89
  -3   3  -3  224.28    9.27
  -3   3  -4 1180.13   25.52
  -3   3  -5  162.53    8.39
  -3   3  -6  141.56    6.31
  -3   3  -6  138.48    5.96
  -3   3  -6  146.83    7.99
  -3   3  -7  502.83   13.82
  -3   3  -7  507.58   13.18
  -3   3  -8   29.70    3.22
  -3   3  -8   34.35    3.26
  -3   3  -9  739.57   18.85
  -3   3  -9  803.37   19.34
  -3   3 -10  487.73   14.04
  -3   3 -10  448.18   13.81
  -3   3 -11   49.49    3.91
  -3   3 -11   50.32    3.79
  -3   3 -12    0.00    0.38
  -3   3 -12    0.18    0.34
  -3   3 -13   56.77    3.07
  -3   2  13   47.41    2.88
  -3   2  13   43.31    2.98
  -3   2  12   10.11    1.54
  -3   2  11  376.40   11.05
  -3   2  10  153.08    6.88
  -3   2   9  252.17    8.84
  -3   2   9  251.20    8.58
  -3   2   8    0.71    0.86
  -3   2   8    1.28    0.62
  -3   2   8    1.18    0.65
  -3   2   7  702.60   15.33
  -3   2   7  686.48   20.91
  -3   2   7  746.67   15.36
  -3   2   6  587.33   17.69
  -3   2   5 1268.58   26.66
  -3   2   4 1025.65   21.61
  -3   2   3 2350.62   37.66
  -3   2   3 2362.21   34.82
  -3   2   2  630.10   13.54
  -3   2   2  584.79   12.73
  -3   2   1 2985.90   43.55
  -3   2   1 3083.47   44.41
  -3   2   0  344.39    9.69
  -3   2   0  341.78    8.85
  -3   2  -1 1121.59   21.26
   3  -2   1 1074.87   16.03
  -3   2  -2 1086.87   22.29
   3  -2   2 1162.65   17.46
  -3   2  -3 3394.70   53.60
   3  -2   3 3529.95   47.41
  -3   2  -4 1091.17   23.15
  -3   2  -5  723.47   18.10
  -3   2  -6   10.69    1.99
  -3   2  -6   10.48    1.46
  -3   2  -6   11.04    2.08
  -3   2  -7    2.12    0.95
  -3   2  -7    0.50    0.50
  -3   2  -8  849.62   22.32
  -3   2  -8  891.02   18.78
  -3   2  -9  297.75   12.46
  -3   2  -9  327.65   10.68
  -3   2  -9  305.07   10.48
  -3   2 -10  230.41   10.74
  -3   2 -10  225.67    8.68
  -3   2 -11  334.96   12.45
  -3   2 -11  300.25    9.71
  -3   2 -12    1.64    0.78
  -3   2 -12    2.05    0.71
  -3   2 -13   23.47    1.91
  -3   1  13    0.55    0.45
  -3   1  12  363.69   10.44
  -3   1  11   81.80    4.95
  -3   1  10  369.92   11.44
  -3   1  10  372.54   11.11
  -3   1   9    3.72    1.10
  -3   1   9    3.19    1.49
  -3   1   9    5.47    1.24
  -3   1   8  277.15    9.15
  -3   1   8  272.57   12.91
  -3   1   8  290.03    9.12
  -3   1   7   36.58    2.94
  -3   1   7   31.05    3.93
  -3   1   7   35.13    2.83
  -3   1   6  523.10   15.97
  -3   1   5   73.50    5.12
  -3   1   4  624.79   15.61
  -3   1   3  213.18    6.13
  -3   1   3  238.93    8.30
  -3   1   2 2666.96   39.43
  -3   1   2 2517.87   37.06
  -3   1   1   64.64    3.67
  -3   1   1   64.19    3.47
  -3   1   0  536.86   12.89
  -3   1   0  479.98   11.50
  -3   1  -1    5.76    1.18
  -3   1  -1    6.09    1.19
   3  -1   2   42.38    2.61
  -3   1  -2   36.42    3.03
  -3   1  -3 2007.64   33.91
   3  -1   3 2024.77   31.54
  -3   1  -4  706.12   17.03
   3  -1   4  714.38   15.62
   3  -1   5  238.13    8.70
  -3   1  -6    3.59    1.38
  -3   1  -6    3.13    0.78
   3  -1   6    2.60    1.04
  -3   1  -7  143.92    8.49
  -3   1  -7  142.91    5.85
  -3   1  -7  150.74    6.47
  -3   1  -8   56.81    5.43
  -3   1  -8   62.08    4.06
  -3   1  -8   59.27    4.23
  -3   1  -9  438.67   15.95
  -3   1  -9  436.19   11.82
  -3   1  -9  449.80   12.77
  -3   1 -10  766.77   21.59
  -3   1 -10  767.67   17.59
  -3   1 -11   13.04    2.46
  -3   1 -11   12.72    1.80
  -3   1 -12    1.43    0.50
  -3   1 -12    2.58    0.91
  -3   0  13   47.87    3.21
  -3   0  12  197.14    7.61
  -3   0  11  138.26    6.75
  -3   0  10   25.05    2.88
  -3   0  10   28.81    2.89
  -3   0   9  102.12    8.08
  -3   0   9   96.05    5.57
  -3   0   9  103.42    5.51
  -3   0   8  235.46   11.72
  -3   0   8  243.55    8.18
  -3   0   8  216.01    8.26
  -3   0   8  231.61    8.30
  -3   0   7  311.92   12.73
  -3   0   7  344.47    9.72
  -3   0   7  319.54    9.74
  -3   0   7  334.02    9.69
  -3   0   6  254.58   10.56
  -3   0   5  329.83   11.49
  -3   0   4 1704.25   31.04
  -3   0   3  346.30   10.70
  -3   0   2  439.21   11.64
  -3   0   1  772.84   16.74
  -3   0   0  491.41   13.71
   3   0   1  383.60   12.15
  -3   0  -1  443.25   12.95
   3   0   2  276.00    9.13
   3   0   3   41.30    3.47
   3   0   4  156.55    7.44
   3   0   5  242.79   10.05
  -3   0  -6  102.03    6.51
  -3   0  -6   92.77    4.61
   3   0   6   88.70    6.25
  -3   0  -7  380.10   13.48
  -3   0  -7  351.14   10.30
   3   0   7  336.72   14.10
  -3   0  -8  489.85   15.82
  -3   0  -8  451.06   12.67
  -3   0  -9   32.39    3.86
  -3   0  -9   28.67    2.92
  -3   0 -10  618.03   17.63
  -3   0 -10  570.10   14.45
  -3   0 -11    5.83    1.45
  -3   0 -11    4.78    1.00
  -3   0 -12    1.14    0.58
  -3   0 -12    0.39    0.28
  -3  -1  13   15.79    1.92
  -3  -1  12    1.88    0.68
  -3  -1  11    2.08    0.92
  -3  -1  11    8.18    1.49
  -3  -1  10   20.10    2.74
  -3  -1  10   17.74    2.35
  -3  -1   9  734.48   16.45
  -3  -1   9  741.25   22.77
  -3  -1   9  702.63   16.97
  -3  -1   8   51.92    5.32
  -3  -1   8   49.27    3.75
  -3  -1   8   46.46    3.93
  -3  -1   8   47.56    3.77
  -3  -1   7  446.76   12.02
  -3  -1   7  454.12   15.44
  -3  -1   7  425.87   12.36
  -3  -1   6  610.13   17.47
  -3  -1   5    5.20    1.50
  -3  -1   4  360.09   12.05
  -3  -1   3 3417.08   52.31
  -3  -1   2  963.38   20.43
  -3  -1   1  117.81    6.14
  -3  -1   0  100.84    6.27
   3   1   1  110.17    6.82
  -3  -1  -1  106.87    6.43
   3   1   2  808.79   19.91
   3   1   3 2172.92   39.53
   3   1   4   34.03    4.08
  -3  -1  -5   60.71    4.20
  -3  -1  -5   56.96    3.42
   3   1   5   52.67    5.31
  -3  -1  -6  331.75   11.01
  -3  -1  -6  322.61    9.29
   3   1   6  300.51   13.77
   3   1   7  218.53   12.20
  -3  -1  -7  244.12    9.62
  -3  -1  -7  241.51    8.37
  -3  -1  -8  406.22   13.06
  -3  -1  -8  402.62   11.74
  -3  -1  -9  598.16   16.29
  -3  -1  -9  591.98   14.87
  -3  -1 -10   70.13    4.87
  -3  -1 -10   73.99    4.52
  -3  -1 -11   62.29    3.77
  -3  -1 -11   61.88    4.05
  -3  -1 -12   42.66    2.74
  -3  -1 -12   41.37    2.70
  -3  -2  13   89.60    4.69
  -3  -2  12   45.45    3.85
  -3  -2  11   58.85    4.81
  -3  -2  11   51.97    3.77
  -3  -2  10  391.30   13.67
  -3  -2  10  373.81   11.75
  -3  -2   9   42.34    3.68
  -3  -2   9   41.12    4.27
  -3  -2   9   41.28    3.71
  -3  -2   8 1151.52   23.81
  -3  -2   8 1118.31   25.43
  -3  -2   7  152.25    8.82
  -3  -2   7  150.38    7.28
  -3  -2   7  143.42    7.40
  -3  -2   6   40.74    3.60
  -3  -2   6   45.28    4.48
  -3  -2   5  190.25    9.06
  -3  -2   4 4343.46   66.36
  -3  -2   3    2.31    1.07
  -3  -2   2 2744.40   44.96
  -3  -2   1  251.47   10.14
  -3  -2   0 1073.89   24.61
   3   2   1 1617.89   33.11
   3   2   2 2187.57   41.04
   3   2   3  153.86    9.01
  -3  -2  -4 1316.01   23.36
  -3  -2  -4 1319.19   22.65
   3   2   4 1265.09   32.52
  -3  -2  -5  173.92    6.85
  -3  -2  -5  168.55    6.29
  -3  -2  -5  170.56    7.72
   3   2   5  165.22   11.01
  -3  -2  -6  289.20    9.40
  -3  -2  -6  274.89    8.68
   3   2   6  266.77   14.68
  -3  -2  -7  233.62    8.67
  -3  -2  -7  237.47    8.36
  -3  -2  -8  544.57   14.22
  -3  -2  -8  534.45   13.79
  -3  -2  -9  150.18    6.73
  -3  -2  -9  136.46    6.46
  -3  -2 -10  217.80    7.89
  -3  -2 -10  205.66    7.45
  -3  -2 -11   98.46    4.63
  -3  -2 -11   94.44    4.25
  -3  -3  13   32.53    2.51
  -3  -3  12    5.42    1.27
  -3  -3  11   65.77    5.04
  -3  -3  10    5.07    1.61
  -3  -3  10    5.54    1.37
  -3  -3  10    4.99    1.26
  -3  -3   9  853.12   22.80
  -3  -3   9  848.02   19.98
  -3  -3   8  123.69    7.43
  -3  -3   8  130.54    8.38
  -3  -3   8  122.27    7.70
  -3  -3   7  437.56   14.70
  -3  -3   7  431.10   15.51
  -3  -3   7  386.63   13.83
  -3  -3   6    7.83    2.03
  -3  -3   6    7.26    1.84
  -3  -3   5  466.62   15.71
  -3  -3   5  438.78   14.43
  -3  -3   4   73.01    5.38
  -3  -3   4   78.97    5.91
  -3  -3   3 2462.60   43.40
  -3  -3   2  223.95   10.09
  -3  -3   1  431.93   14.63
  -3  -3   0   51.73    4.71
   3   3   1  327.60   13.08
   3   3   2   69.47    5.93
  -3  -3  -2   58.55    4.88
  -3  -3  -3  468.91   12.16
  -3  -3  -3  483.38   15.40
  -3  -3  -4  334.77    9.12
  -3  -3  -4  328.26    9.84
  -3  -3  -4  333.78   12.64
  -3  -3  -5   29.10    2.57
  -3  -3  -5   26.25    2.57
  -3  -3  -5   25.06    3.29
   3   3   5   29.11    4.88
  -3  -3  -6  124.85    5.92
  -3  -3  -6  127.95    5.68
  -3  -3  -7  390.32   10.66
  -3  -3  -7  377.13   11.35
  -3  -3  -8   30.06    2.64
  -3  -3  -8   31.32    3.04
  -3  -3  -9   19.59    2.35
  -3  -3  -9   14.86    1.76
  -3  -3 -10  285.54    8.55
  -3  -3 -10  259.17    7.30
  -3  -3 -11   66.32    3.18
  -3  -4  12    0.72    0.42
  -3  -4  11  100.55    5.20
  -3  -4  11  107.10    5.56
  -3  -4  10   30.07    3.31
  -3  -4  10   32.53    3.42
  -3  -4   9    1.33    0.66
  -3  -4   9    1.80    1.03
  -3  -4   8  203.78   10.62
  -3  -4   8  212.89    9.82
  -3  -4   7   34.19    4.43
  -3  -4   7   37.01    4.41
  -3  -4   6   49.90    5.10
  -3  -4   6   47.03    5.16
  -3  -4   5  298.11   13.10
  -3  -4   5  325.63   13.44
  -3  -4   4  302.00   12.74
  -3  -4   4  346.94   13.86
  -3  -4   3   47.65    4.62
  -3  -4   3   52.69    5.18
  -3  -4   3   57.05    4.92
  -3  -4   2  110.82    7.41
  -3  -4   2  117.13    7.42
  -3  -4   1   59.60    5.33
  -3  -4   1   66.99    5.56
  -3  -4   0  246.04    7.87
  -3  -4   0  228.58   10.81
   3   4   1   40.26    4.55
  -3  -4  -1   32.27    2.67
  -3  -4  -1   29.79    3.81
  -3  -4  -2    1.92    0.79
   3   4   2    2.15    1.16
  -3  -4  -2    0.30    0.62
  -3  -4  -3   18.73    2.21
  -3  -4  -3   15.36    2.82
   3   4   3   21.42    3.80
  -3  -4  -4   68.81    4.35
  -3  -4  -4   65.42    5.85
  -3  -4  -5   86.33    4.91
  -3  -4  -5   82.53    6.44
  -3  -4  -6  274.84    9.17
  -3  -4  -6  242.82   10.79
  -3  -4  -7    7.26    1.39
  -3  -4  -8   11.38    1.68
  -3  -4  -9  101.62    4.85
  -3  -4 -10   49.56    2.81
  -3  -5  11    0.61    0.40
  -3  -5  11    0.93    0.65
  -3  -5  10   26.02    2.99
  -3  -5  10   34.85    2.74
  -3  -5   9   15.64    2.59
  -3  -5   8  162.02    9.32
  -3  -5   7    1.64    1.19
  -3  -5   6  253.30   12.41
  -3  -5   5  272.49   12.65
  -3  -5   5  277.77   13.01
  -3  -5   4   12.95    2.61
  -3  -5   4   11.60    2.61
  -3  -5   3    3.91    1.48
  -3  -5   3    2.29    0.99
  -3  -5   3    2.98    1.40
  -3  -5   2  658.59   18.47
  -3  -5   2  659.60   19.94
  -3  -5   2  680.07   19.96
  -3  -5   1    3.71    1.01
  -3  -5   1    1.11    0.96
   3   5  -1    1.94    1.17
   3   5   0  249.55   11.76
  -3  -5   0  219.64    7.86
  -3  -5   0  231.94   11.38
  -3  -5  -1    3.45    0.97
  -3  -5  -1    7.75    2.07
   3   5   1    5.56    1.75
  -3  -5  -2    9.35    1.58
  -3  -5  -2    9.91    2.32
   3   5   2   10.37    2.59
  -3  -5  -3  466.57   12.38
  -3  -5  -3  430.48   16.02
  -3  -5  -4  845.76   17.98
  -3  -5  -4  818.65   22.77
  -3  -5  -5   11.32    1.71
  -3  -5  -5   11.72    2.39
  -3  -5  -6  178.78    6.85
  -3  -5  -6  169.99    8.33
  -3  -5  -7    4.16    0.95
  -3  -5  -8    8.15    1.26
  -3  -5  -9  235.99    6.57
  -3  -6  10    2.06    0.79
  -3  -6   9  190.03    8.20
  -3  -6   8   17.95    2.69
  -3  -6   7  454.11   15.18
  -3  -6   6  101.56    6.98
  -3  -6   5   16.15    2.78
  -3  -6   4  217.63   10.13
  -3  -6   3 1246.03   26.93
  -3  -6   3 1189.89   26.77
  -3  -6   2   53.71    4.59
  -3  -6   2   56.25    5.17
  -3  -6   1 1049.09   25.83
  -3  -6   0   89.20    6.71
  -3  -6  -1    9.73    1.64
  -3  -6  -1    1.91    0.91
  -3  -6  -2  138.83    6.40
  -3  -6  -2  139.41    8.39
  -3  -6  -3  610.54   14.69
  -3  -6  -3  627.21   18.72
  -3  -6  -4  145.81    6.25
  -3  -6  -4  143.38    8.04
  -3  -6  -5  651.09   14.40
  -3  -6  -5  655.28   17.30
  -3  -6  -6   34.14    2.67
  -3  -6  -6   30.16    2.87
  -3  -6  -7   69.82    3.61
  -3  -6  -8  148.47    4.84
  -3  -7  10   24.32    1.91
  -3  -7   9    0.16    0.29
  -3  -7   8  323.81   10.10
  -3  -7   7   49.38    4.00
  -3  -7   6  282.67   10.36
  -3  -7   5   40.21    3.79
  -3  -7   4  221.31    9.13
  -3  -7   3   28.68    3.13
  -3  -7   3   27.20    3.07
  -3  -7   2  804.83   18.42
  -3  -7   2  806.71   19.92
  -3  -7   1   89.79    6.10
  -3  -7   0  246.42   10.46
  -3  -7  -1   70.78    4.71
  -3  -7  -1   67.47    5.30
  -3  -7  -2  206.24    7.48
  -3  -7  -2  208.03    9.40
  -3  -7  -3  189.43    6.92
  -3  -7  -3  201.39    8.82
  -3  -7  -4  498.27   11.73
  -3  -7  -4  521.42   14.17
  -3  -7  -5    1.45    0.61
  -3  -7  -5    0.72    0.43
  -3  -7  -6   94.91    3.91
  -3  -8   8    0.33    0.34
  -3  -8   7  131.75    5.39
  -3  -8   6   55.99    3.68
  -3  -8   5    0.77    0.47
  -3  -8   4   -0.12    0.35
  -3  -8   3  104.04    5.00
  -3  -8   3   95.44    4.95
  -3  -8   2   30.23    2.92
  -3  -8   1   97.10    5.50
  -3  -8   0   25.90    2.80
  -3  -8   0   25.80    2.55
  -3  -8  -1    3.53    1.03
  -3  -8  -2   27.92    2.79
  -3  -8  -3   22.56    2.35
  -3  -8  -4    8.28    1.27
  -3  -9   6    0.68    0.36
  -3  -9   5   21.10    1.91
  -3  -9   3   56.91    3.29
  -3  -9   2    1.17    0.52
  -3  -9   2    0.75    0.40
  -3  -9   1   23.66    1.95
  -3  -9   1   22.68    2.04
  -3  -9   0   10.90    1.43
  -3  -9  -1   24.30    2.07
  -3  -9  -2    8.09    1.09
  -4  11   4  103.21    3.88
  -4  11   3   12.73    1.44
  -4  11   2   18.22    1.84
   4 -11  -1   34.22    2.29
  -4  11   1   41.13    2.87
   4 -11   0   58.61    3.19
   4 -11   1   43.16    2.83
   4 -11   2   49.41    3.15
   4 -11   3   11.85    1.54
   4 -11   4    2.85    0.80
   4 -11   5  175.75    5.67
  -4  10   6   51.05    2.72
  -4  10   5  111.36    4.54
  -4  10   4   12.27    1.58
  -4  10   3   20.10    2.14
   4 -10  -2    9.70    1.53
  -4  10   2    9.61    1.53
   4 -10  -1   25.10    2.59
  -4  10   1   31.65    2.85
   4 -10   0  150.57    6.67
  -4  10   0  167.96    6.85
   4 -10   1  218.53    8.31
  -4  10  -1  222.11    8.02
   4 -10   2   14.94    2.14
   4 -10   3   29.70    2.92
   4 -10   4   56.80    3.80
   4 -10   5    9.21    1.46
   4 -10   6   42.84    2.88
   4 -10   7  112.55    4.21
   4 -10   8    0.62    0.42
  -4   9   8   54.15    2.70
  -4   9   7   85.57    3.85
  -4   9   6   35.13    2.67
  -4   9   5   39.25    3.02
  -4   9   4   27.61    2.63
  -4   9   3   28.82    2.73
  -4   9   2   89.77    5.01
  -4   9   1  207.67    7.93
  -4   9   0    9.49    1.69
  -4   9  -1  111.26    5.89
  -4   9  -2   11.76    1.41
  -4   9  -2    9.07    1.71
  -4   9  -3    7.15    1.12
   4  -9   3    7.36    1.79
  -4   9  -4   34.84    2.52
   4  -9   4   40.23    3.65
  -4   9  -5  288.00    7.88
   4  -9   5  289.99    9.56
  -4   9  -6    6.82    1.09
   4  -9   6    6.12    1.19
  -4   9  -7   66.92    3.33
   4  -9   7   62.05    3.63
  -4   9  -8    4.67    0.83
   4  -9   9   18.98    1.86
  -4   8   9   91.68    3.82
  -4   8   8  303.69    8.36
  -4   8   7   60.36    3.72
  -4   8   6  424.41    9.52
  -4   8   6  486.07   12.20
  -4   8   5   67.33    4.31
  -4   8   5   60.30    3.25
  -4   8   4   14.90    1.68
  -4   8   4   14.52    2.01
  -4   8   3    8.23    1.26
  -4   8   3    7.34    1.41
  -4   8   2  397.87    9.79
  -4   8   2  392.25   11.23
  -4   8   1   76.73    3.90
  -4   8   1   76.42    4.58
  -4   8   0  729.49   14.62
  -4   8   0  735.90   16.83
  -4   8  -1    3.80    1.15
  -4   8  -1    2.59    0.71
  -4   8  -2  235.89    7.20
  -4   8  -2  248.91    9.70
  -4   8  -3   85.35    4.15
  -4   8  -4  299.29    8.57
  -4   8  -5  154.68    6.03
   4  -8   5  155.59    7.32
  -4   8  -6  290.15    8.64
   4  -8   6  276.07    9.42
  -4   8  -7   56.24    3.56
  -4   8  -8  130.13    5.38
   4  -8   9   13.11    1.87
  -4   8  -9   16.69    1.75
  -4   7  10   39.92    2.64
  -4   7   9   51.41    3.38
  -4   7   9   45.67    2.53
  -4   7   8   53.52    3.08
  -4   7   8   61.78    4.05
  -4   7   7  559.61   14.11
  -4   7   7  505.45   11.75
  -4   7   6    7.32    1.55
  -4   7   6    7.25    1.27
  -4   7   5  236.67    9.00
  -4   7   5  230.14    7.65
  -4   7   4  125.47    6.20
  -4   7   4  114.35    5.19
  -4   7   3  346.81    9.42
  -4   7   3  359.72   10.66
  -4   7   2  600.10   12.96
  -4   7   2  594.76   14.00
  -4   7   1  612.17   13.03
  -4   7   1  630.87   14.53
  -4   7   0   71.14    3.74
  -4   7   0   69.74    8.03
  -4   7   0   76.21    4.58
  -4   7  -1  618.00   13.18
  -4   7  -1  632.61   15.72
  -4   7  -2  127.54    5.29
  -4   7  -2  125.31   10.99
  -4   7  -3  144.85    5.75
  -4   7  -3  130.50   11.12
  -4   7  -4   66.06    3.95
  -4   7  -4   64.32    7.79
  -4   7  -5  276.98    8.95
  -4   7  -6  206.42    7.97
   4  -7   6  222.45    8.90
  -4   7  -7   50.18    3.81
  -4   7  -8   17.37    2.27
   4  -7   9  165.17    7.63
  -4   7  -9  223.00    8.05
  -4   7 -10    6.88    1.19
   4  -7  10    5.84    1.18
  -4   6  11   29.33    2.31
  -4   6  11   23.98    1.66
  -4   6  10   13.56    1.83
  -4   6  10    9.13    1.22
  -4   6   9   12.82    1.94
  -4   6   8  263.37    9.69
  -4   6   7   35.94    3.53
  -4   6   6  312.47   10.94
  -4   6   5   50.91    4.13
  -4   6   4    6.11    1.18
  -4   6   4    5.67    1.33
  -4   6   3   79.39    4.63
  -4   6   3   78.91    4.22
  -4   6   2  391.22   16.88
  -4   6   2  404.16   10.26
  -4   6   2  410.49   11.02
  -4   6   1   76.15    3.91
  -4   6   1   68.99    6.97
  -4   6   1   72.98    4.18
  -4   6   0  265.30    7.78
  -4   6   0  261.45   13.93
  -4   6  -1  278.43    8.15
  -4   6  -1  261.30   14.15
  -4   6  -2  429.92   10.89
  -4   6  -2  375.97   17.27
  -4   6  -3    6.05    1.23
  -4   6  -3    5.02    2.10
  -4   6  -4  420.64   11.45
  -4   6  -4  381.45   17.73
  -4   6  -5    1.00    0.64
  -4   6  -5    1.61    1.14
  -4   6  -6    5.98    1.47
  -4   6  -7   50.87    4.23
  -4   6  -8  445.36   13.73
   4  -6   9    0.71    0.65
  -4   6  -9    1.59    0.78
  -4   6 -10    5.98    1.29
  -4   6 -11    3.77    0.91
  -4   5  12    1.35    0.51
  -4   5  12    0.50    0.25
  -4   5  11   15.79    2.04
  -4   5  10   14.33    2.05
  -4   5   9   22.75    2.63
  -4   5   8    0.36    0.41
  -4   5   7  200.89    8.08
  -4   5   6    1.72    0.75
  -4   5   5   15.08    2.06
  -4   5   4   53.61    3.04
  -4   5   4   45.50    3.54
  -4   5   3   64.18    3.28
  -4   5   3   50.60    4.65
  -4   5   2   53.89    3.44
  -4   5   2   53.93    5.02
  -4   5   1  124.56    7.96
  -4   5   0  143.07    8.68
  -4   5  -1   13.93    2.74
  -4   5  -2  707.70   15.29
  -4   5  -2  655.07   20.95
  -4   5  -3  706.05   22.41
  -4   5  -3  762.89   16.51
  -4   5  -4    0.98    0.70
  -4   5  -4    1.26    0.84
  -4   5  -5    6.98    1.50
  -4   5  -5    9.20    2.45
  -4   5  -6  275.82   10.17
  -4   5  -6  306.90   14.61
  -4   5  -7    1.95    0.95
  -4   5  -8  388.61   13.07
  -4   5  -9  204.75    9.16
  -4   5 -10    8.60    1.73
  -4   5 -10    7.47    1.46
  -4   5 -11   78.57    4.36
  -4   4  12    9.13    1.41
  -4   4  11   64.16    4.20
  -4   4  10   28.71    2.93
  -4   4   9  126.77    6.28
  -4   4   9  131.45    6.22
  -4   4   8  368.08   11.04
  -4   4   7  193.37    7.60
  -4   4   7  187.45   12.58
  -4   4   7  204.15    7.34
  -4   4   6  164.47   10.82
  -4   4   6  174.12    7.00
  -4   4   6  175.54    6.38
  -4   4   5  565.04   13.44
  -4   4   5  590.31   13.80
  -4   4   5  551.76   19.02
  -4   4   5  580.68   12.42
  -4   4   4   36.95    4.16
  -4   4   3   28.10    3.06
  -4   4   2 1556.71   30.23
  -4   4   1  505.89   15.19
  -4   4   0  851.89   21.20
  -4   4  -1 3037.65   51.83
  -4   4  -2  493.96   16.26
  -4   4  -3  260.89    8.66
  -4   4  -3  273.60   12.16
  -4   4  -4    2.09    0.85
  -4   4  -4    1.09    0.80
  -4   4  -5   34.09    2.78
  -4   4  -5   38.04    3.28
  -4   4  -5   39.99    4.74
  -4   4  -6  497.44   12.69
  -4   4  -6  522.46   14.02
  -4   4  -6  521.41   18.01
  -4   4  -7  833.77   18.27
  -4   4  -7  893.82   20.06
  -4   4  -8    7.71    1.54
  -4   4  -8    8.31    1.74
  -4   4  -9   70.58    5.15
  -4   4  -9   61.51    4.16
  -4   4 -10   40.01    3.65
  -4   4 -10   30.71    2.67
  -4   4 -10   31.69    2.98
  -4   4 -11   14.52    1.83
  -4   4 -12  110.46    4.49
  -4   3  13    5.03    0.93
  -4   3  12   59.43    3.72
  -4   3  11   24.35    2.59
  -4   3  11   23.84    2.46
  -4   3  10  398.25   11.39
  -4   3   9  283.44    9.47
  -4   3   8   29.99    2.87
  -4   3   8   29.53    2.75
  -4   3   8   26.81    4.51
  -4   3   7   87.36    4.87
  -4   3   7   85.60    7.66
  -4   3   7   84.38    4.59
  -4   3   6  659.67   14.90
  -4   3   6  683.47   14.56
  -4   3   5    6.96    1.86
  -4   3   5    6.00    1.16
  -4   3   5    6.99    1.20
  -4   3   4 1337.02   28.59
  -4   3   3 1828.80   34.48
  -4   3   3 1966.24   32.89
  -4   3   2 3672.37   56.46
  -4   3   2 3759.99   56.38
  -4   3   1 4693.35   69.02
  -4   3   0 1872.66   34.09
  -4   3  -1  165.63    8.13
  -4   3  -2 2522.33   44.46
  -4   3  -3  978.56   24.29
  -4   3  -4  337.52    9.50
  -4   3  -4  374.81   13.99
  -4   3  -5  329.88    9.61
  -4   3  -5  327.14   10.78
  -4   3  -5  353.45   13.76
  -4   3  -6  712.62   18.00
  -4   3  -6  753.55   16.51
  -4   3  -6  751.14   21.47
  -4   3  -7  103.13    6.34
  -4   3  -7  114.81    5.84
  -4   3  -8  454.38   12.94
  -4   3  -8  412.55   13.74
  -4   3  -9    0.51    0.48
  -4   3  -9    2.23    0.97
  -4   3  -9    1.70    0.79
  -4   3 -10   29.83    2.91
  -4   3 -10   28.11    2.74
  -4   3 -10   26.53    3.04
  -4   3 -11  122.82    5.84
  -4   3 -11  125.71    5.47
  -4   3 -12   43.84    2.73
  -4   2  13   60.72    3.35
  -4   2  12    3.20    0.92
  -4   2  11  580.65   14.16
  -4   2  10  189.01    7.74
  -4   2  10  206.14    7.89
  -4   2   9  216.68    8.38
  -4   2   9  237.13    8.40
  -4   2   8  176.32   11.04
  -4   2   8  175.80    7.39
  -4   2   8  193.96    7.45
  -4   2   7   81.02    6.99
  -4   2   7   84.16    4.84
  -4   2   7   87.53    4.77
  -4   2   6  192.85   10.25
  -4   2   6  197.91    7.33
  -4   2   6  199.08    7.13
  -4   2   5 1538.81   32.50
  -4   2   5 1595.79   26.23
  -4   2   4  349.81   12.51
  -4   2   3  262.32   10.01
  -4   2   3  238.73    7.98
  -4   2   2  374.33   11.52
  -4   2   2  349.70   10.33
  -4   2   1    5.00    1.20
  -4   2   1    4.01    1.06
  -4   2   0  549.31   15.06
  -4   2   0  580.91   14.85
  -4   2  -1 2202.58   37.93
  -4   2  -2  501.73   14.70
  -4   2  -3 1156.58   25.66
  -4   2  -4  383.98   13.19
  -4   2  -4  375.94   13.69
  -4   2  -5   79.11    6.06
  -4   2  -5   64.19    3.64
  -4   2  -5   70.23    5.78
  -4   2  -6   59.92    5.47
  -4   2  -6   59.92    3.67
  -4   2  -6   59.01    3.84
  -4   2  -7  173.84    9.66
  -4   2  -7  178.38    6.93
  -4   2  -7  181.67    7.33
  -4   2  -8   22.21    3.42
  -4   2  -8   27.59    2.75
  -4   2  -8   25.28    2.73
  -4   2  -9   94.95    6.94
  -4   2  -9  103.78    5.35
  -4   2  -9   97.63    5.41
  -4   2 -10   23.98    3.25
  -4   2 -10   22.66    2.43
  -4   2 -11   32.33    2.63
  -4   2 -11   34.58    3.47
  -4   2 -12    1.03    0.43
  -4   1  13   29.53    2.38
  -4   1  12  171.54    6.78
  -4   1  11   74.63    4.71
  -4   1  10  216.92    8.63
  -4   1  10  225.38    8.31
  -4   1   9   92.83    5.50
  -4   1   9   96.13    5.37
  -4   1   8    2.16    0.83
  -4   1   8    3.43    1.44
  -4   1   8    2.71    0.94
  -4   1   7  291.20   13.27
  -4   1   7  283.08    9.57
  -4   1   7  309.13    9.78
  -4   1   7  322.55    9.87
  -4   1   6  260.69    8.53
  -4   1   6  248.79   11.41
  -4   1   6  234.13    8.26
  -4   1   5   61.12    5.21
  -4   1   4  280.20   11.28
  -4   1   3   45.74    4.03
  -4   1   2  170.08    7.78
  -4   1   1  792.70   19.05
  -4   1   1  734.29   16.68
  -4   1   0   51.07    4.74
  -4   1   0   48.78    3.75
   4  -1   1   25.01    2.66
  -4   1  -1   25.67    2.83
   4  -1   2  389.04   10.83
  -4   1  -2  427.29   13.05
  -4   1  -3   19.37    2.71
  -4   1  -4  136.34    8.25
  -4   1  -5    9.39    2.26
  -4   1  -5    9.07    1.37
  -4   1  -6    2.11    1.11
  -4   1  -6    1.97    0.74
  -4   1  -7   25.41    3.79
  -4   1  -7   31.62    2.65
  -4   1  -7   27.13    2.70
  -4   1  -8    0.27    0.61
  -4   1  -8    1.37    0.54
  -4   1  -8    1.98    0.73
  -4   1  -9  185.60    9.79
  -4   1  -9  186.45    7.54
  -4   1 -10  136.64    7.75
  -4   1 -10  121.03    5.63
  -4   1 -11    0.62    0.56
  -4   1 -11   -0.23    0.46
  -4   0  13   17.83    1.91
  -4   0  12  232.46    8.44
  -4   0  11   32.00    3.26
  -4   0  11   28.90    2.82
  -4   0  10   10.25    1.89
  -4   0  10    9.80    1.75
  -4   0   9   48.64    4.17
  -4   0   9   47.26    3.87
  -4   0   9   51.51    3.87
  -4   0   8   53.13    5.75
  -4   0   8   50.30    4.13
  -4   0   8   60.82    4.30
  -4   0   8   51.68    4.02
  -4   0   7  108.57    5.67
  -4   0   7  112.74    8.00
  -4   0   7  100.22    5.66
  -4   0   6  356.79   10.57
  -4   0   6  378.44   14.58
  -4   0   5   79.10    4.53
  -4   0   5   80.48    6.21
  -4   0   4  294.52   11.53
  -4   0   3    1.29    0.75
  -4   0   2  413.15   13.34
  -4   0   1   77.61    5.67
  -4   0   0  754.64   21.21
   4   0   1    9.00    1.94
   4   0   2  402.79   13.17
  -4   0  -3  242.34    9.59
   4   0   3  210.23    9.60
  -4   0  -4  506.64   13.20
   4   0   4  533.29   16.71
  -4   0  -5   40.97    4.28
  -4   0  -5   33.26    2.93
  -4   0  -5   35.29    2.79
  -4   0  -6    5.02    1.55
  -4   0  -6    4.73    1.08
  -4   0  -7  332.52   12.91
  -4   0  -7  294.47    9.46
  -4   0  -8  705.11   19.42
  -4   0  -8  635.67   15.45
  -4   0  -9    1.78    0.82
  -4   0  -9    2.27    0.80
  -4   0 -10  211.90    8.81
  -4   0 -10  193.89    7.08
  -4   0 -11    4.47    1.07
  -4   0 -11    3.56    0.83
  -4  -1  13  115.35    5.00
  -4  -1  12   24.98    2.74
  -4  -1  11   53.13    4.43
  -4  -1  11   44.56    3.47
  -4  -1  10  234.37   10.18
  -4  -1  10  233.99    9.01
  -4  -1  10  253.85    8.76
  -4  -1   9  102.79    5.80
  -4  -1   9   93.51    6.26
  -4  -1   9   98.70    5.85
  -4  -1   8   59.94    4.47
  -4  -1   8   52.91    4.51
  -4  -1   8   53.97    4.22
  -4  -1   7  298.28   10.37
  -4  -1   7  296.05   13.18
  -4  -1   7  275.99   10.27
  -4  -1   6  104.74    5.81
  -4  -1   6  104.05    7.35
  -4  -1   5  779.10   17.80
  -4  -1   5  800.26   21.63
  -4  -1   4    9.79    1.69
  -4  -1   4    8.42    2.03
  -4  -1   3 1969.94   37.59
  -4  -1   2  582.81   17.06
  -4  -1   1 2357.59   43.89
  -4  -1   0  253.37   11.70
   4   1   1  946.53   24.71
  -4  -1  -2    4.13    1.19
   4   1   2    3.71    1.41
  -4  -1  -3 1728.47   30.58
  -4  -1  -3 1783.57   30.37
  -4  -1  -4  782.95   17.89
  -4  -1  -4  803.72   18.77
  -4  -1  -4  766.48   15.75
   4   1   4  733.84   23.21
  -4  -1  -5  400.06   12.22
  -4  -1  -5  380.93   12.04
  -4  -1  -5  365.71   10.11
   4   1   5  364.47   16.10
  -4  -1  -6  146.57    7.24
  -4  -1  -6  127.79    5.76
  -4  -1  -7  214.32    8.98
  -4  -1  -7  202.16    7.60
  -4  -1  -8  243.56    9.46
  -4  -1  -8  222.49    8.12
  -4  -1  -9  694.29   16.79
  -4  -1  -9  702.89   15.79
  -4  -1 -10   30.07    2.73
  -4  -1 -10   27.70    2.53
  -4  -1 -11   12.80    1.47
  -4  -2  12  101.81    5.20
  -4  -2  11   76.47    5.19
  -4  -2  11   69.82    4.25
  -4  -2  10  198.81    8.11
  -4  -2  10  194.85    9.23
  -4  -2   9  178.08    8.22
  -4  -2   9  167.90    8.72
  -4  -2   9  163.73    7.86
  -4  -2   8  358.62   12.50
  -4  -2   8  319.01   12.13
  -4  -2   7   94.57    6.26
  -4  -2   7   96.99    7.51
  -4  -2   6  170.77    8.41
  -4  -2   6  190.86    8.19
  -4  -2   6  179.33   10.29
  -4  -2   5    3.72    1.26
  -4  -2   5    5.28    1.73
  -4  -2   4 1125.16   24.40
  -4  -2   4 1162.22   27.88
  -4  -2   3   29.56    3.21
  -4  -2   3   40.36    4.53
  -4  -2   2 1440.58   32.03
  -4  -2   1   95.62    7.11
  -4  -2   1  102.73    5.94
  -4  -2   0    2.18    0.82
  -4  -2   0    1.23    0.60
   4   2   0    3.35    1.43
  -4  -2  -1   42.26    3.88
  -4  -2  -1   45.90    4.17
   4   2   1   52.15    5.41
  -4  -2  -1   48.51    3.22
  -4  -2  -2 1608.04   31.50
   4   2   2 1718.71   36.44
  -4  -2  -3  127.17    6.82
   4   2   3  145.04   10.00
  -4  -2  -3  133.63    5.93
  -4  -2  -3  135.59    7.61
  -4  -2  -4 1901.70   31.56
  -4  -2  -4 1884.09   31.71
  -4  -2  -4 1882.79   36.06
   4   2   4 1917.47   44.62
  -4  -2  -5   70.09    4.41
  -4  -2  -5   67.20    5.34
  -4  -2  -5   68.79    4.28
   4   2   5   65.74    7.42
  -4  -2  -6  205.83    7.89
  -4  -2  -6  199.49    8.98
  -4  -2  -6  194.99    7.53
  -4  -2  -7  231.24    8.37
  -4  -2  -7  223.57    8.25
  -4  -2  -8  424.31   11.56
  -4  -2  -8  450.59   12.19
  -4  -2  -9    0.01    0.50
  -4  -2  -9    0.40    0.47
  -4  -2 -10  176.59    6.08
  -4  -3  12    1.53    0.53
  -4  -3  11   42.80    3.19
  -4  -3  11   37.46    3.03
  -4  -3  10    7.17    1.54
  -4  -3  10    9.17    1.72
  -4  -3  10    6.40    1.38
  -4  -3   9  229.18   10.14
  -4  -3   9  242.78    9.54
  -4  -3   8   91.03    6.72
  -4  -3   7   41.29    4.63
  -4  -3   6    0.86    0.78
  -4  -3   6    0.42    0.74
  -4  -3   5  156.56    9.15
  -4  -3   5  163.34    9.97
  -4  -3   4  245.35   11.18
  -4  -3   4  273.97   13.04
  -4  -3   3 1356.10   27.82
  -4  -3   3 1295.55   31.65
  -4  -3   2  324.42   13.99
  -4  -3   2  297.33   11.61
  -4  -3   2  342.42   12.66
  -4  -3   1   20.69    2.78
  -4  -3   1   24.78    3.65
  -4  -3   1   28.13    3.56
  -4  -3   0    3.36    1.26
   4   3   0    5.66    1.82
  -4  -3  -1   37.83    4.14
  -4  -3  -1   44.07    4.62
  -4  -3  -2   78.76    5.89
  -4  -3  -2   92.69    4.73
  -4  -3  -2   83.13    6.49
  -4  -3  -3  642.62   18.34
  -4  -3  -3  691.73   20.58
  -4  -3  -4   68.56    4.35
  -4  -3  -4   63.19    5.70
  -4  -3  -5  280.19    9.25
  -4  -3  -5  266.55   11.74
  -4  -3  -6   16.20    2.63
  -4  -3  -6   17.27    2.10
  -4  -3  -7    6.47    1.30
  -4  -3  -8   80.93    4.39
  -4  -3  -9  140.30    5.37
  -4  -4  11   60.11    3.73
  -4  -4  10   16.06    2.30
  -4  -4  10   20.96    2.11
  -4  -4   9    0.41    0.49
  -4  -4   9    3.56    1.02
  -4  -4   8   49.02    5.10
  -4  -4   7   20.26    3.47
  -4  -4   6  182.05   10.75
  -4  -4   5  569.24   19.53
  -4  -4   4   53.07    5.41
  -4  -4   4   90.52    7.71
  -4  -4   3  168.86    9.36
  -4  -4   3  184.97    9.73
  -4  -4   2   79.67    6.03
  -4  -4   2   95.89    7.32
  -4  -4   2  100.26    7.62
   4   4  -1   13.50    2.89
  -4  -4   1   10.09    2.42
   4   4   0  159.32    9.76
  -4  -4   0  106.01    7.83
  -4  -4  -1  441.35   15.66
  -4  -4  -1  433.07   16.52
  -4  -4  -2  205.47    9.84
  -4  -4  -2  177.60   10.20
  -4  -4  -3   28.74    2.72
  -4  -4  -3   18.69    3.23
  -4  -4  -4   38.20    3.14
  -4  -4  -4   29.34    3.93
  -4  -4  -5   24.87    2.47
  -4  -4  -5   19.10    3.01
  -4  -4  -6   43.42    3.14
  -4  -4  -6   36.45    3.77
  -4  -4  -7  139.04    5.51
  -4  -4  -8   16.58    1.70
  -4  -4  -9   51.62    2.57
  -4  -5  10   93.95    4.97
  -4  -5   9  222.06    9.19
  -4  -5   9  265.90    7.85
  -4  -5   8    9.23    1.75
  -4  -5   8    7.03    1.65
  -4  -5   7   -0.60    1.29
  -4  -5   6  108.52    7.66
  -4  -5   5   41.43    4.70
  -4  -5   4  427.09   15.43
  -4  -5   3  382.16   13.86
  -4  -5   3  340.49   13.42
  -4  -5   2  148.83    7.95
  -4  -5   2  138.91    8.71
  -4  -5   1    3.56    1.54
  -4  -5   0  378.38   14.05
  -4  -5   0  370.73   14.93
  -4  -5  -1   56.61    4.98
  -4  -5  -1   56.97    3.80
  -4  -5  -1   57.74    5.63
  -4  -5  -2  332.40   11.88
  -4  -5  -2  314.53   13.42
  -4  -5  -3   18.37    2.16
  -4  -5  -3   15.27    2.78
  -4  -5  -4  261.53    8.35
  -4  -5  -4  225.00   10.36
  -4  -5  -5   10.31    1.48
  -4  -5  -5   10.66    2.05
  -4  -5  -6  232.47    7.00
  -4  -5  -6  216.12    7.97
  -4  -5  -7    4.08    0.82
  -4  -6  10   48.01    2.73
  -4  -6   9   70.04    3.96
  -4  -6   8   85.66    4.97
  -4  -6   8   82.24    4.44
  -4  -6   7  119.45    6.32
  -4  -6   7  110.89    6.00
  -4  -6   6   24.31    3.02
  -4  -6   5  385.55   12.83
  -4  -6   4  182.24    8.47
  -4  -6   3  433.47   13.05
  -4  -6   3  368.47   12.54
  -4  -6   2   75.27    5.65
  -4  -6   1  245.98   10.46
  -4  -6   1  245.30   10.77
  -4  -6   0  271.94   10.64
  -4  -6   0  261.67   11.26
  -4  -6  -1  349.49   11.52
  -4  -6  -1  338.54   12.81
  -4  -6  -2   29.27    3.51
  -4  -6  -3  184.73    6.56
  -4  -6  -3  184.37    8.54
  -4  -6  -4    0.89    0.52
  -4  -6  -4    0.18    0.44
  -4  -6  -5  433.62    9.72
  -4  -6  -5  429.08   11.42
  -4  -6  -6    4.83    0.80
  -4  -7   8   20.30    1.84
  -4  -7   7   18.39    1.94
  -4  -7   7   17.30    1.85
  -4  -7   6   29.65    2.62
  -4  -7   6   31.07    2.81
  -4  -7   5   33.82    2.86
  -4  -7   5   34.32    3.14
  -4  -7   4   72.08    4.18
  -4  -7   3    2.18    0.96
  -4  -7   3    1.25    0.62
  -4  -7   3    1.81    0.76
  -4  -7   2  184.94    7.78
  -4  -7   2  160.82    7.03
  -4  -7   1   45.10    3.66
  -4  -7   1   46.39    3.82
  -4  -7   0   80.65    4.70
  -4  -7   0   75.41    4.91
  -4  -7  -1   23.11    2.24
  -4  -7  -1   21.14    2.51
  -4  -7  -2    0.22    0.43
  -4  -7  -3   38.04    3.05
  -4  -7  -4  128.74    5.17
  -4  -8   6    4.99    0.85
  -4  -8   5    0.74    0.43
  -4  -8   4   66.55    3.63
  -4  -8   3    5.16    1.01
  -4  -8   2   34.83    2.57
  -4  -8   2   30.59    2.31
  -4  -8   1   22.11    1.97
  -4  -8   1   18.40    1.86
  -4  -8   0    9.71    1.34
  -4  -8  -1   10.45    1.36
  -4  -8  -2   74.33    3.48
   5 -11  -2  118.14    3.98
  -5  11   2  132.48    4.46
   5 -11  -1    4.81    0.88
   5 -11   0    0.60    0.43
   5 -11   1   14.45    1.64
   5 -11   2  118.49    4.73
   5 -11   3    0.31    0.38
   5 -11   4   62.40    3.10
  -5  10   5    3.78    0.76
  -5  10   4   30.15    2.28
   5 -10  -3   40.70    2.88
  -5  10   3   52.22    3.18
  -5  10   2    1.68    0.55
  -5  10   1    5.16    1.07
  -5  10   0   56.08    3.52
   5 -10   1   29.99    3.03
  -5  10  -2   10.56    1.21
   5 -10   2   10.79    1.82
  -5  10  -3   19.02    1.61
   5 -10   3   19.80    2.26
  -5  10  -4   43.56    2.41
   5 -10   4   45.99    3.19
  -5  10  -5    0.63    0.35
   5 -10   5    0.83    0.44
   5 -10   6   61.13    2.96
  -5   9   7   67.82    3.17
  -5   9   6    5.22    0.97
  -5   9   5   82.88    3.27
  -5   9   5  101.49    4.59
  -5   9   4  137.95    4.70
  -5   9   4  157.53    6.05
  -5   9   3   10.69    1.30
  -5   9   3   11.22    1.63
  -5   9   2    0.52    0.43
  -5   9   2    3.61    0.78
  -5   9   1  217.48    6.80
  -5   9   1  237.39    8.14
  -5   9   0   41.31    2.75
  -5   9  -1  135.61    5.14
  -5   9  -2    7.76    1.17
  -5   9  -3   35.97    2.57
  -5   9  -4   72.89    3.71
   5  -9   4   74.02    4.72
  -5   9  -5  446.41   10.31
   5  -9   5  448.89   11.53
  -5   9  -6    4.79    0.93
   5  -9   6    4.29    0.93
  -5   9  -7   47.98    2.68
  -5   9  -8    6.41    0.90
  -5   8   9   38.06    2.16
  -5   8   8   86.22    3.14
  -5   8   8  106.53    4.23
  -5   8   7    3.61    0.91
  -5   8   7    2.18    0.58
  -5   8   6  318.81    8.23
  -5   8   6  365.89    9.88
  -5   8   5  125.81    5.06
  -5   8   5  146.99    6.11
  -5   8   4  182.51    6.37
  -5   8   4  195.58    7.28
  -5   8   3    1.45    0.67
  -5   8   3    0.42    0.32
  -5   8   2  220.95    7.21
  -5   8   2  240.12    8.26
  -5   8   1    5.71    1.13
  -5   8   0  749.05   15.34
  -5   8  -1    4.80    1.01
  -5   8  -2   12.12    1.57
  -5   8  -3   26.93    2.42
  -5   8  -4  259.88    8.16
  -5   8  -5   65.53    3.90
   5  -8   5   61.83    4.35
  -5   8  -6  477.17   11.75
  -5   8  -7   17.03    1.92
   5  -8   8   11.04    1.68
  -5   8  -8   16.00    1.74
  -5   8  -9   62.74    3.18
  -5   7  10   29.77    1.96
  -5   7   9   26.03    1.87
  -5   7   9   31.59    2.40
  -5   7   8   17.09    1.97
  -5   7   8   14.43    1.58
  -5   7   7  354.43   10.31
  -5   7   7  311.79    8.91
  -5   7   6    6.47    1.38
  -5   7   6    5.64    1.17
  -5   7   5  239.12    8.09
  -5   7   5  251.02    8.85
  -5   7   4  118.43    5.48
  -5   7   4  123.10    5.89
  -5   7   3    3.65    0.98
  -5   7   3    5.73    1.17
  -5   7   2   89.45    4.58
  -5   7   1  576.57   13.11
  -5   7   1  531.88   23.01
  -5   7   0   56.85    3.62
  -5   7   0   51.11    6.95
  -5   7  -1   32.06    2.78
  -5   7  -1   32.23    5.56
  -5   7  -2  182.35    7.01
  -5   7  -3  109.49    5.40
  -5   7  -4  136.11    6.21
  -5   7  -5  601.60   14.84
  -5   7  -6   71.61    4.63
  -5   7  -7    3.49    1.13
  -5   7  -8  117.89    5.76
  -5   7  -9   23.32    2.36
  -5   7  -9   15.00    1.82
  -5   7 -10   16.02    1.64
  -5   6  10    1.13    0.44
  -5   6  10    0.84    0.42
  -5   6   9   21.27    2.30
  -5   6   9   19.49    1.95
  -5   6   8    8.70    1.62
  -5   6   8    6.85    1.30
  -5   6   7   18.28    2.42
  -5   6   7   18.41    2.26
  -5   6   6  434.04   12.95
  -5   6   6  415.96   11.96
  -5   6   5  163.30    7.37
  -5   6   5  166.45    7.15
  -5   6   4    1.19    0.37
  -5   6   4    1.49    0.73
  -5   6   3   42.99    3.37
  -5   6   3   48.81    3.22
  -5   6   2    5.91    1.15
  -5   6   2    4.68    1.75
  -5   6   1  170.08    6.78
  -5   6   1  180.95    6.69
  -5   6   0  346.45   10.16
  -5   6   0  308.78   15.44
  -5   6  -1   31.87    2.95
  -5   6  -1   28.26    4.60
  -5   6  -2    6.41    1.34
  -5   6  -2    4.72    1.90
  -5   6  -3  234.70    8.71
  -5   6  -3  208.62   13.23
  -5   6  -4   48.99    3.93
  -5   6  -5  277.39   10.09
  -5   6  -6   53.55    4.30
  -5   6  -7  116.45    6.42
  -5   6  -8  316.17   10.88
  -5   6  -9   64.77    4.47
  -5   6  -9   49.80    3.55
  -5   6 -10   15.55    1.91
  -5   6 -10   10.78    1.45
  -5   5  11   63.28    3.53
  -5   5  11   54.69    2.98
  -5   5  10    2.32    0.83
  -5   5   9   17.77    2.29
  -5   5   8  172.25    7.60
  -5   5   7  765.93   18.31
  -5   5   6   26.19    2.95
  -5   5   5  134.92    6.83
  -5   5   5  136.42    5.26
  -5   5   4   20.42    2.52
  -5   5   4   13.77    1.63
  -5   5   3   17.59    2.32
  -5   5   3   25.25    2.19
  -5   5   2  315.98   10.31
  -5   5   2  313.49    8.68
  -5   5   1  302.48   10.00
  -5   5   1  294.82    8.53
  -5   5   0   12.00    1.90
  -5   5   0   12.86    1.69
  -5   5   0   15.08    2.97
  -5   5  -1    7.77    1.56
  -5   5  -1    8.08    1.41
  -5   5  -1   11.86    2.72
  -5   5  -2  147.93    7.03
  -5   5  -2  157.43    6.38
  -5   5  -2  146.95    9.94
  -5   5  -3    1.49    0.84
  -5   5  -3   -0.01    0.65
  -5   5  -4  331.97   11.05
  -5   5  -4  349.06   16.15
  -5   5  -5    7.61    1.62
  -5   5  -6  314.59   11.12
  -5   5  -7   45.76    4.07
  -5   5  -8  267.96   10.06
  -5   5  -8  244.59    8.80
  -5   5  -9    6.80    1.53
  -5   5  -9    4.58    1.10
  -5   5 -10   50.45    3.59
  -5   5 -10   41.50    2.96
  -5   4  12   77.59    3.48
  -5   4  11    1.83    0.65
  -5   4  10    1.06    0.67
  -5   4   9  207.59    8.01
  -5   4   8  263.43    9.34
  -5   4   7  544.33   14.42
  -5   4   7  577.85   13.64
  -5   4   6  297.17    9.94
  -5   4   6  290.93    8.79
  -5   4   5  148.74    5.53
  -5   4   5  146.98    5.71
  -5   4   4   27.23    2.28
  -5   4   4   24.59    2.12
  -5   4   3  835.80   19.96
  -5   4   3  771.84   15.51
  -5   4   2  210.38    6.83
  -5   4   2  187.57    6.68
  -5   4   2  194.75    9.50
  -5   4   1  929.30   20.40
  -5   4   1  945.93   17.41
  -5   4   1  825.62   16.95
  -5   4   1  864.11   23.00
  -5   4   0   62.51    4.49
  -5   4   0   65.75    3.72
  -5   4   0   62.89    5.73
  -5   4  -1  686.55   16.60
  -5   4  -1  710.54   21.26
  -5   4  -1  669.67   14.94
  -5   4  -2  122.80    6.18
  -5   4  -2  124.24    5.22
  -5   4  -2  118.84    8.23
  -5   4  -2  112.24    5.29
  -5   4  -3  956.86   20.15
  -5   4  -3  982.08   18.52
  -5   4  -3  994.91   26.75
  -5   4  -3  914.71   19.11
  -5   4  -4    4.91    1.22
  -5   4  -4    5.53    1.98
  -5   4  -5  325.88   10.54
  -5   4  -5  308.27   14.47
  -5   4  -6   42.74    3.74
  -5   4  -7  582.53   15.30
  -5   4  -7  567.51   14.16
  -5   4  -8   82.74    5.17
  -5   4  -8   76.37    4.58
  -5   4  -9   67.84    4.60
  -5   4  -9   54.53    3.70
  -5   4 -10    4.86    1.20
  -5   4 -10    4.74    0.96
  -5   3  12   42.61    2.95
  -5   3  11   65.29    4.00
  -5   3  10  107.75    5.48
  -5   3   9   51.66    3.99
  -5   3   9   56.18    3.91
  -5   3   8  364.45   11.60
  -5   3   8  394.78   11.15
  -5   3   7  242.91    9.24
  -5   3   7  244.79    8.45
  -5   3   6  107.43    8.70
  -5   3   6  107.69    5.92
  -5   3   6  109.56    5.35
  -5   3   5   28.13    2.56
  -5   3   4  268.01    8.10
  -5   3   3  289.22   11.42
  -5   3   3  272.48    7.85
  -5   3   2  161.88    8.04
  -5   3   2  155.20    7.91
  -5   3   2  163.79    6.05
  -5   3   1   31.30    3.13
  -5   3   1   36.35    2.91
  -5   3   1   37.89    3.90
  -5   3   1   37.46    2.83
  -5   3   0  420.05   11.81
  -5   3   0  407.48   11.27
  -5   3   0  427.24   14.49
  -5   3  -1   22.46    2.39
  -5   3  -1   26.07    2.25
  -5   3  -1   24.59    2.56
  -5   3  -1   24.42    3.32
  -5   3  -1   29.13    2.63
  -5   3  -2 1775.70   30.19
  -5   3  -2 1826.17   28.64
  -5   3  -2 1771.83   32.05
  -5   3  -3   54.18    3.61
  -5   3  -3   51.95    3.25
  -5   3  -3   62.68    5.84
  -5   3  -4    0.21    0.39
  -5   3  -4   10.49    2.44
  -5   3  -5  140.76    6.16
  -5   3  -5  146.84    9.60
  -5   3  -6  668.11   15.47
  -5   3  -7    6.64    1.40
  -5   3  -7    3.97    1.02
  -5   3  -8  301.51    9.62
  -5   3  -8  268.54    8.92
  -5   3  -9  305.67    9.09
  -5   3  -9  267.77    8.69
  -5   3 -10    4.35    0.97
  -5   2  12   61.50    3.68
  -5   2  11    8.62    1.47
  -5   2  11   11.98    1.84
  -5   2  10   17.18    2.29
  -5   2  10   15.78    2.05
  -5   2   9  180.82    7.86
  -5   2   9  190.52    7.54
  -5   2   8  103.99    5.93
  -5   2   8  108.65    5.69
  -5   2   7  156.18   10.79
  -5   2   7  143.95    7.04
  -5   2   7  160.59    6.99
  -5   2   6   14.85    2.15
  -5   2   6   16.93    2.19
  -5   2   5  621.67   15.77
  -5   2   5  638.54   20.73
  -5   2   5  620.11   14.51
  -5   2   4  282.00   12.59
  -5   2   3   35.09    3.61
  -5   2   3   40.51    4.60
  -5   2   3   39.50    3.36
  -5   2   2    4.15    0.94
  -5   2   2    3.33    1.09
  -5   2   2    4.60    1.13
  -5   2   1   21.61    2.45
  -5   2   1   19.70    2.75
  -5   2   1   22.93    2.32
  -5   2   0  671.89   15.01
  -5   2   0  605.13   17.40
  -5   2   0  603.87   15.79
  -5   2   0  685.84   14.86
  -5   2  -1 1152.14   21.56
  -5   2  -1 1038.93   24.96
  -5   2  -1 1034.54   23.29
  -5   2  -1 1125.45   21.14
  -5   2  -2  134.33    6.15
  -5   2  -2  125.43    5.15
  -5   2  -2  117.96    7.57
  -5   2  -2  132.99    7.72
  -5   2  -2  126.07    5.76
  -5   2  -3   -0.05    0.32
  -5   2  -3    0.01    0.53
  -5   2  -3    0.71    0.45
  -5   2  -3    0.77    0.55
  -5   2  -4    5.81    1.08
  -5   2  -5    1.96    0.66
  -5   2  -6  343.95   14.81
  -5   2  -6  334.67    9.43
  -5   2  -7  540.04   18.64
  -5   2  -7  590.89   13.31
  -5   2  -7  545.36   13.37
  -5   2  -8  279.61   12.26
  -5   2  -8  266.40    8.67
  -5   2  -9   67.17    3.95
  -5   2 -10   17.49    1.81
  -5   2 -11    7.96    1.35
  -5   1  12    7.39    1.30
  -5   1  11   18.66    2.43
  -5   1  10  250.11    9.66
  -5   1  10  217.34    7.94
  -5   1   9    1.36    0.83
  -5   1   9    1.14    0.77
  -5   1   8   39.82    3.76
  -5   1   8   42.28    3.62
  -5   1   7  466.85   13.77
  -5   1   7  510.50   13.78
  -5   1   6   13.29    2.10
  -5   1   6   12.20    2.71
  -5   1   6   13.96    2.09
  -5   1   5   37.18    4.57
  -5   1   5   42.78    3.57
  -5   1   4  310.10    9.36
  -5   1   4  292.70   10.76
  -5   1   4  290.89   13.03
  -5   1   4  297.77    9.93
  -5   1   3  176.58    6.96
  -5   1   3  169.72    7.81
  -5   1   3  168.41    9.55
  -5   1   3  169.26    7.08
  -5   1   2  423.10   11.54
  -5   1   2  409.39   15.58
  -5   1   2  435.94   11.69
  -5   1   2  398.05   12.58
  -5   1   2  408.31   11.42
  -5   1   1  818.59   17.42
  -5   1   1  797.05   17.32
  -5   1   1  805.12   24.28
  -5   1   1  748.71   18.77
  -5   1   0  313.15    9.86
  -5   1   0  307.60   11.39
  -5   1   0  322.08   10.01
  -5   1  -1  230.94    8.48
  -5   1  -1  239.32   10.31
  -5   1  -1  236.74    8.41
  -5   1  -2  715.41   16.64
  -5   1  -2  670.49   15.66
  -5   1  -3   13.02    1.99
  -5   1  -3   16.27    2.08
  -5   1  -4  111.69    5.91
  -5   1  -4  100.25    5.28
  -5   1  -5  630.86   15.44
  -5   1  -6  283.06   13.44
  -5   1  -7   84.66    6.90
  -5   1  -7   70.95    4.16
  -5   1  -8  136.44    5.82
  -5   1  -9   27.43    2.43
  -5   1 -10   41.25    2.78
  -5   0  12   96.31    5.19
  -5   0  11  261.41    9.81
  -5   0  11  203.90    7.33
  -5   0  10    1.46    0.86
  -5   0  10    1.68    0.81
  -5   0   9   95.33    6.27
  -5   0   9   99.36    5.63
  -5   0   8  103.22    6.42
  -5   0   8  103.26    5.91
  -5   0   8  110.48    6.15
  -5   0   7    5.65    1.43
  -5   0   6  226.41    9.06
  -5   0   6  204.37   11.37
  -5   0   5 1414.65   27.43
  -5   0   5 1464.22   26.31
  -5   0   4    8.75    1.73
  -5   0   4    8.45    1.58
  -5   0   4    8.10    2.19
  -5   0   4   11.50    2.07
  -5   0   3   23.15    2.68
  -5   0   3   24.09    2.68
  -5   0   3   25.11    2.63
  -5   0   3   25.42    2.99
  -5   0   2  423.72   12.27
  -5   0   2  461.79   12.95
  -5   0   2  410.50   16.22
  -5   0   2  424.91   12.09
  -5   0   2  476.43   13.87
  -5   0   1   98.19    5.66
  -5   0   1   89.08    5.17
  -5   0   1  103.46    6.05
  -5   0   1   96.25    7.82
  -5   0   1   88.37    5.04
  -5   0   0 2158.82   36.58
  -5   0   0 2089.98   35.66
  -5   0   0 2137.35   37.67
   5   0   0 2122.88   44.24
  -5   0  -1  726.04   17.24
  -5   0  -1  726.04   17.28
  -5   0  -1  757.90   18.50
  -5   0  -2  299.18   10.45
  -5   0  -2  328.88   11.76
  -5   0  -2  302.88   10.32
  -5   0  -3   65.46    4.73
  -5   0  -3   64.47    4.51
  -5   0  -4  446.12   13.34
  -5   0  -4  415.83   12.30
  -5   0  -5   27.28    3.01
  -5   0  -6  395.32   10.67
  -5   0  -7  119.32    5.47
  -5   0  -8  118.25    5.34
  -5   0  -9    0.70    0.38
  -5   0 -10   73.67    3.56
  -5  -1  11   29.07    2.88
  -5  -1  11   23.39    2.30
  -5  -1  10  405.94   12.71
  -5  -1  10  343.25   10.79
  -5  -1   9   11.60    2.11
  -5  -1   9    9.45    1.76
  -5  -1   9   10.28    1.89
  -5  -1   8   42.63    4.05
  -5  -1   8   37.35    3.57
  -5  -1   7  331.93   12.01
  -5  -1   6  361.12   12.52
  -5  -1   5  270.60   10.63
  -5  -1   5  303.95   10.58
  -5  -1   5  289.39   13.70
  -5  -1   4  473.77   14.34
  -5  -1   4  487.57   18.12
  -5  -1   4  508.28   14.38
  -5  -1   3   39.87    3.76
  -5  -1   3   41.32    3.88
  -5  -1   3   39.15    4.88
  -5  -1   3   36.21    3.37
  -5  -1   3   46.23    3.71
  -5  -1   2    2.55    1.12
  -5  -1   2    3.85    1.31
  -5  -1   2    2.07    1.26
  -5  -1   2    3.45    1.13
  -5  -1   2    2.37    0.92
  -5  -1   1 1205.31   25.12
  -5  -1   1 1326.06   27.25
  -5  -1   1 1312.35   32.32
  -5  -1   1 1243.68   25.97
  -5  -1   1 1326.74   24.68
  -5  -1   0   32.14    3.58
  -5  -1   0   30.05    3.40
  -5  -1   0   32.33    3.06
   5   1   0   35.69    4.75
  -5  -1  -1  741.69   18.97
  -5  -1  -1  751.19   19.45
  -5  -1  -1  731.33   16.86
   5   1   1  782.17   23.73
  -5  -1  -2  208.55    9.24
  -5  -1  -2  230.96   10.04
  -5  -1  -2  229.48    8.60
   5   1   2  203.37   11.72
  -5  -1  -3  703.94   18.86
  -5  -1  -3  656.15   17.64
  -5  -1  -4    4.01    1.24
  -5  -1  -4    5.28    1.56
  -5  -1  -5  270.54   10.69
  -5  -1  -6   60.89    4.66
  -5  -1  -6   53.92    3.72
  -5  -1  -7  220.21    7.74
  -5  -1  -8    0.27    0.44
  -5  -1  -9  248.23    7.17
  -5  -2  11   70.19    3.81
  -5  -2  10    9.09    1.59
  -5  -2  10   11.48    1.91
  -5  -2   9   70.52    5.28
  -5  -2   9   55.09    4.34
  -5  -2   8   97.76    6.66
  -5  -2   7   16.50    2.80
  -5  -2   6  266.48   11.65
  -5  -2   6  296.53   11.23
  -5  -2   5  334.91   13.08
  -5  -2   5  348.03   12.71
  -5  -2   4   87.64    6.31
  -5  -2   4  105.55    6.90
  -5  -2   4  104.83    8.46
  -5  -2   3   18.17    2.77
  -5  -2   3   22.23    3.16
  -5  -2   3   19.42    2.73
  -5  -2   3   22.68    2.31
  -5  -2   3   23.50    3.98
  -5  -2   2  117.04    7.00
  -5  -2   2  131.95    9.32
  -5  -2   2  131.51    7.86
  -5  -2   2  134.36    7.72
  -5  -2   2  146.41    5.93
  -5  -2   1    5.20    1.53
  -5  -2   1    4.46    1.25
  -5  -2   1    5.13    1.51
  -5  -2   1    6.04    1.98
   5   2  -1    4.86    1.85
  -5  -2   0  131.14    8.01
  -5  -2   0  140.47    8.21
  -5  -2   0  141.89    5.97
  -5  -2  -1    3.53    1.45
  -5  -2  -1    3.86    1.45
  -5  -2  -1    4.25    1.01
   5   2   1    4.56    1.76
  -5  -2  -2  270.85   11.58
  -5  -2  -2  286.17   12.32
  -5  -2  -2  294.29    9.16
  -5  -2  -3    2.85    1.16
  -5  -2  -3    1.56    1.07
  -5  -2  -3    2.68    0.91
  -5  -2  -4   14.43    2.65
  -5  -2  -4   15.61    2.07
  -5  -2  -5  104.18    6.79
  -5  -2  -6    1.98    0.75
  -5  -2  -6    1.24    0.78
  -5  -2  -7   46.16    3.09
  -5  -2  -8  170.28    5.69
  -5  -2  -8  163.82    5.71
  -5  -2  -9    2.85    0.60
  -5  -3  10   21.42    2.21
  -5  -3  10   21.09    2.53
  -5  -3   9   26.94    3.32
  -5  -3   9   24.22    2.76
  -5  -3   8   41.44    4.52
  -5  -3   7   92.59    7.12
  -5  -3   7  101.06    6.56
  -5  -3   6  184.89   10.35
  -5  -3   6  202.35   10.19
  -5  -3   5    2.95    1.23
  -5  -3   5    0.51    0.67
  -5  -3   4   14.42    2.70
  -5  -3   4   16.74    3.03
  -5  -3   3   52.77    5.01
  -5  -3   3   67.03    6.04
  -5  -3   3   64.62    5.68
  -5  -3   2   41.39    4.23
  -5  -3   2   47.18    5.05
  -5  -3   2   48.11    5.12
  -5  -3   1   32.37    4.14
  -5  -3   1   36.88    4.54
  -5  -3   0   87.80    6.87
  -5  -3   0   87.59    7.03
  -5  -3  -1   42.35    4.67
  -5  -3  -1   47.61    5.16
  -5  -3  -2  113.06    7.41
  -5  -3  -2  121.39    8.34
  -5  -3  -3  267.57   12.57
  -5  -3  -3  263.24   10.85
  -5  -3  -4   60.83    5.67
  -5  -3  -4   76.48    4.09
  -5  -3  -5    0.67    0.37
  -5  -3  -5    0.64    0.65
  -5  -3  -5    1.38    0.51
  -5  -3  -6   28.29    2.26
  -5  -3  -6   27.41    2.15
  -5  -3  -7    2.51    0.62
  -5  -3  -7    2.26    0.59
  -5  -4  10   63.03    2.99
  -5  -4  10   58.56    3.71
  -5  -4   9    9.77    1.79
  -5  -4   9   10.17    1.52
  -5  -4   8   56.75    4.86
  -5  -4   7   23.76    3.34
  -5  -4   7   25.09    3.20
  -5  -4   6   32.68    4.06
  -5  -4   6   29.96    3.87
  -5  -4   5    6.93    1.98
  -5  -4   5    6.05    1.90
  -5  -4   4  371.09   13.98
  -5  -4   4  388.40   15.31
  -5  -4   3  203.29    9.63
  -5  -4   3  207.89   10.92
  -5  -4   3  190.05   10.07
  -5  -4   2  109.96    6.58
  -5  -4   2   99.39    7.40
  -5  -4   2   89.58    7.21
  -5  -4   1   68.86    6.04
  -5  -4   1   69.39    6.38
  -5  -4   0   27.83    3.77
  -5  -4   0   24.73    3.75
  -5  -4  -1  523.58   16.53
  -5  -4  -1  473.46   17.13
  -5  -4  -2  349.42   12.28
  -5  -4  -2  294.75   13.07
  -5  -4  -3  109.03    7.43
  -5  -4  -4   92.99    6.38
  -5  -4  -5    0.91    0.62
  -5  -4  -6    8.59    1.37
  -5  -4  -6   10.09    1.17
  -5  -5   9  170.38    6.22
  -5  -5   8    8.48    1.55
  -5  -5   8    7.23    1.19
  -5  -5   7   70.19    4.77
  -5  -5   7   65.67    4.49
  -5  -5   6   50.34    4.23
  -5  -5   6   49.34    4.31
  -5  -5   5  254.45    9.99
  -5  -5   5  241.10   10.49
  -5  -5   4  465.39   13.87
  -5  -5   4  469.66   15.51
  -5  -5   3  374.50   11.67
  -5  -5   3  361.13   13.48
  -5  -5   2   11.96    2.39
  -5  -5   2   10.14    2.13
  -5  -5   1   16.48    2.64
  -5  -5   1   15.21    2.69
  -5  -5   0  124.16    7.10
  -5  -5   0  117.56    7.44
  -5  -5  -1  187.36    8.25
  -5  -5  -1  174.10    9.05
  -5  -5  -2  594.65   14.32
  -5  -5  -2  571.49   16.81
  -5  -5  -3  424.70   13.42
  -5  -5  -4    2.67    0.91
  -5  -5  -5    1.59    0.61
  -5  -6   8   75.94    3.46
  -5  -6   7    0.46    0.32
  -5  -6   7    0.51    0.37
  -5  -6   6   -0.01    0.35
  -5  -6   6    0.57    0.39
  -5  -6   5  100.22    4.79
  -5  -6   5  101.92    5.41
  -5  -6   4  229.98    7.47
  -5  -6   4  225.52    8.65
  -5  -6   3   58.35    4.32
  -5  -6   3   53.61    3.55
  -5  -6   2   74.32    4.82
  -5  -6   2   67.60    4.41
  -5  -6   1    7.55    1.50
  -5  -6   1    5.86    1.34
  -5  -6   0    0.61    0.53
  -5  -6   0    0.60    0.49
  -5  -6  -1  325.82    9.00
  -5  -6  -1  314.44   10.35
  -5  -6  -2  127.49    6.00
  -5  -6  -3   13.66    1.71
  -5  -6  -4    7.59    1.09
  -5  -7   5    6.52    1.04
  -5  -7   4   51.53    3.09
  -5  -7   3    1.21    0.52
  -5  -7   2    1.08    0.45
  -5  -7   2    0.85    0.41
  -5  -7   1   29.73    2.20
  -5  -7   1   25.88    2.06
  -5  -7   0   18.28    1.76
  -5  -7  -1    0.31    0.29
   6 -11  -1   11.27    1.17
   6 -11   0    4.09    0.76
   6 -11   1    0.71    0.36
   6 -11   2    5.52    0.87
  -6  10   3  132.42    3.68
  -6  10   2    3.02    0.58
  -6  10   1   67.03    2.83
  -6  10   0    0.35    0.23
  -6  10  -1    0.49    0.29
  -6  10  -2  111.96    3.91
   6 -10   2  116.16    5.33
  -6  10  -3   83.21    3.28
   6 -10   3   85.17    4.13
  -6  10  -4   37.02    2.06
   6 -10   4   35.28    2.30
  -6   9   6    2.85    0.50
  -6   9   5   36.62    2.08
  -6   9   4  147.21    4.79
  -6   9   3  326.99    8.04
  -6   9   2  140.04    5.05
  -6   9   1   21.57    1.92
  -6   9   0    2.39    0.60
  -6   9  -1  186.55    6.00
  -6   9  -2    5.49    0.97
  -6   9  -3   78.44    3.71
  -6   9  -4    9.03    1.25
   6  -9   4    9.55    1.49
  -6   9  -5  100.38    4.08
   6  -9   5   97.14    4.11
  -6   9  -6    8.22    1.07
  -6   9  -7   43.67    2.27
  -6   8   8   23.99    1.45
  -6   8   7    2.54    0.58
  -6   8   6   35.46    2.37
  -6   8   5    5.60    1.04
  -6   8   4  284.62    8.11
  -6   8   3   83.55    4.20
  -6   8   2   41.07    2.94
  -6   8   1   21.59    2.14
  -6   8   0  203.40    7.10
  -6   8  -1   35.64    2.79
  -6   8  -2    1.91    0.60
  -6   8  -3   15.47    1.89
  -6   8  -4   75.33    4.18
  -6   8  -5   11.21    1.59
  -6   8  -6   43.26    3.02
  -6   8  -7   92.06    4.24
  -6   8  -8    6.17    1.00
  -6   7   9   10.13    1.05
  -6   7   8    6.08    0.96
  -6   7   7   14.98    1.68
  -6   7   6    9.66    1.47
  -6   7   5   76.23    4.35
  -6   7   4   24.39    2.49
  -6   7   3   98.64    5.11
  -6   7   2   28.82    2.71
  -6   7   1  148.10    6.41
  -6   7   0   13.36    1.89
  -6   7  -1   38.49    3.33
  -6   7  -2   60.29    4.18
  -6   7  -3    4.79    1.22
  -6   7  -4   81.15    4.98
  -6   7  -5  283.71    9.67
  -6   7  -6   40.50    3.41
  -6   7  -7   63.89    4.15
  -6   7  -8    2.41    0.75
  -6   6  10   16.39    1.38
  -6   6   9   20.63    1.86
  -6   6   8   67.06    3.86
  -6   6   7   99.20    5.17
  -6   6   6  136.27    6.45
  -6   6   5    0.54    0.53
  -6   6   4    1.42    0.76
  -6   6   4    3.16    0.88
  -6   6   3   24.43    2.80
  -6   6   3   23.94    2.35
  -6   6   2  148.53    6.99
  -6   6   2  134.83    5.90
  -6   6   1   50.38    4.04
  -6   6   1   48.26    3.58
  -6   6   0  373.26   12.04
  -6   6   0  375.31   11.16
  -6   6  -1  109.98    6.28
  -6   6  -2   26.39    3.02
  -6   6  -3  287.43   10.46
  -6   6  -4   59.36    4.56
  -6   6  -5  222.79    9.05
  -6   6  -6  166.75    7.62
  -6   6  -7    0.83    0.66
  -6   6  -8    5.02    1.19
  -6   6  -9  149.06    5.84
  -6   5  10    0.04    0.26
  -6   5   9   16.80    2.03
  -6   5   8  289.20    9.82
  -6   5   7  180.22    8.08
  -6   5   6   62.26    4.86
  -6   5   6   59.06    3.45
  -6   5   5  174.36    8.41
  -6   5   5  155.17    5.99
  -6   5   4  130.60    7.23
  -6   5   4  119.27    5.28
  -6   5   3 1082.58   23.76
  -6   5   3  972.50   19.26
  -6   5   2 1910.87   35.04
  -6   5   2 1820.28   30.47
  -6   5   1  471.42   14.17
  -6   5   1  443.62   11.58
  -6   5   1  394.96   10.66
  -6   5   1  349.31   15.19
  -6   5   0   40.38    3.92
  -6   5   0   32.83    2.90
  -6   5   0   30.08    2.63
  -6   5   0   28.60    4.27
  -6   5  -1  104.19    6.35
  -6   5  -1  104.33    5.24
  -6   5  -1   99.84    4.93
  -6   5  -1   93.67    7.97
  -6   5  -2    0.07    0.49
  -6   5  -2    0.41    0.59
  -6   5  -3    4.38    1.27
  -6   5  -3    6.28    1.24
  -6   5  -4  624.53   16.19
  -6   5  -4  617.98   14.19
  -6   5  -5  227.03    8.98
  -6   5  -5  219.19    7.66
  -6   5  -6   87.39    5.30
  -6   5  -6   83.34    4.42
  -6   5  -7   31.53    3.05
  -6   5  -8   33.76    2.99
  -6   5  -9    9.66    1.39
  -6   4  11    2.78    0.76
  -6   4  10   19.68    2.37
  -6   4   9   45.93    3.95
  -6   4   8   55.73    4.70
  -6   4   7  326.10   12.29
  -6   4   7  284.18    8.87
  -6   4   6  537.26   12.33
  -6   4   6  517.09   12.50
  -6   4   5   10.60    2.18
  -6   4   5    9.10    1.41
  -6   4   5   10.12    1.50
  -6   4   4  116.73    7.42
  -6   4   4   96.61    4.82
  -6   4   3 1305.77   28.14
  -6   4   3 1214.78   22.59
  -6   4   2   23.13    3.10
  -6   4   2   22.50    2.35
  -6   4   2   19.12    2.25
  -6   4   1  233.88    9.62
  -6   4   1  227.63    7.88
  -6   4   1  221.55    8.06
  -6   4   1  221.05   11.16
  -6   4   0  580.39   15.54
  -6   4   0  559.56   13.18
  -6   4   0  531.31   13.75
  -6   4   0  517.59   18.28
  -6   4  -1   76.21    5.01
  -6   4  -1   74.45    4.26
  -6   4  -1   67.13    4.41
  -6   4  -1   68.56    6.41
  -6   4  -2   16.76    2.26
  -6   4  -2   16.93    2.03
  -6   4  -2   15.21    3.13
  -6   4  -2   15.37    2.18
  -6   4  -3  786.54   17.68
  -6   4  -3  834.31   17.36
  -6   4  -3  787.46   18.51
  -6   4  -4    0.25    0.48
  -6   4  -4    1.21    0.65
  -6   4  -5  369.22   10.99
  -6   4  -5  357.28   11.58
  -6   4  -6   79.30    4.66
  -6   4  -6   78.54    5.05
  -6   4  -7   46.73    3.42
  -6   4  -7   40.77    3.47
  -6   4  -8    1.89    0.61
  -6   4  -8    2.00    0.77
  -6   4  -9   60.48    3.32
  -6   3  11   19.08    2.31
  -6   3  10    4.75    1.37
  -6   3   9    7.20    1.34
  -6   3   8  469.85   12.11
  -6   3   7  305.98   12.89
  -6   3   7  310.28    8.82
  -6   3   7  290.42    9.36
  -6   3   6   28.23    3.78
  -6   3   6   28.99    2.64
  -6   3   6   31.96    2.90
  -6   3   5   69.79    5.87
  -6   3   5   73.21    4.33
  -6   3   4   12.35    2.35
  -6   3   4   10.53    1.57
  -6   3   3    2.56    0.88
  -6   3   3    1.89    0.94
  -6   3   2  511.51   14.62
  -6   3   2  497.58   13.72
  -6   3   1  244.02    8.92
  -6   3   1  247.96    9.39
  -6   3   1  249.67   11.73
  -6   3   1  280.32    9.14
  -6   3   0    7.50    1.34
  -6   3   0    7.59    1.68
  -6   3   0    6.01    1.83
  -6   3   0    7.00    1.49
  -6   3  -1   58.14    3.86
  -6   3  -1   55.40    3.63
  -6   3  -1   65.02    5.04
  -6   3  -1   57.71    5.74
  -6   3  -2   57.29    3.70
  -6   3  -2   62.76    6.20
  -6   3  -2   68.70    5.47
  -6   3  -3  130.87    5.86
  -6   3  -3  142.56    8.19
  -6   3  -4  103.41    4.92
  -6   3  -4  113.49    7.49
  -6   3  -5    8.18    1.36
  -6   3  -5   11.43    2.43
  -6   3  -6   83.17    4.34
  -6   3  -6   87.74    6.39
  -6   3  -7    2.12    0.97
  -6   3  -8   57.57    4.51
  -6   3  -9   14.28    1.94
  -6   2  11   26.29    2.57
  -6   2  10   33.00    3.58
  -6   2  10   27.31    2.40
  -6   2   9  146.56    6.12
  -6   2   8   19.81    2.32
  -6   2   7  157.49    8.70
  -6   2   7  168.32    7.19
  -6   2   6   37.81    4.06
  -6   2   6   38.43    3.34
  -6   2   5    1.78    0.82
  -6   2   5    1.75    0.70
  -6   2   4   47.85    4.07
  -6   2   4   48.33    3.57
  -6   2   3  278.01    9.53
  -6   2   3  302.71   11.17
  -6   2   3  314.76    9.87
  -6   2   2    3.87    1.07
  -6   2   2    5.04    1.47
  -6   2   1   16.51    2.62
  -6   2   1   18.13    2.34
  -6   2   0    1.36    0.72
  -6   2   0    1.79    1.11
  -6   2  -1   16.28    2.03
  -6   2  -1   21.25    3.32
  -6   2  -1   18.74    2.38
  -6   2  -2   11.84    1.69
  -6   2  -2   14.85    2.92
  -6   2  -2   14.15    2.03
  -6   2  -3  141.83    9.68
  -6   2  -4   67.34    6.76
  -6   2  -5    4.85    1.83
  -6   2  -6  191.74   10.74
  -6   2  -7  298.76   12.59
  -6   2  -8   10.40    2.04
  -6   2  -9   12.25    1.88
  -6   1  10   49.94    3.28
  -6   1   9   51.95    3.90
  -6   1   9   47.33    3.48
  -6   1   8  154.28    7.24
  -6   1   8  157.01    6.93
  -6   1   7    1.75    0.62
  -6   1   6  147.41    6.93
  -6   1   5   59.09    3.99
  -6   1   4  389.24   11.58
  -6   1   3   20.93    3.02
  -6   1   3   22.08    2.65
  -6   1   2  390.66   13.78
  -6   1   2  381.82   12.16
  -6   1   1  405.38   12.54
  -6   1   1  417.32   14.37
  -6   1   1  427.98   13.09
  -6   1   0  132.78    6.94
  -6   1   0  124.04    7.74
  -6   1   0  129.53    6.82
  -6   1  -1   99.05    6.09
  -6   1  -1  101.71    5.94
  -6   1  -2  381.44   12.82
  -6   1  -2  351.83   11.75
  -6   1  -3    2.55    0.96
  -6   1  -3    0.44    0.42
  -6   1  -3    2.40    1.40
  -6   1  -4    2.86    1.53
  -6   1  -5  713.43   21.96
  -6   1  -6  300.49   12.89
  -6   1  -7  166.30    8.61
  -6   1  -8  253.65    9.67
  -6   1  -9    4.53    1.06
  -6   0  10    6.23    1.24
  -6   0   9  163.56    6.86
  -6   0   8   26.55    2.87
  -6   0   7  154.09    7.31
  -6   0   6  107.08    6.57
  -6   0   5  586.14   16.79
  -6   0   5  601.41   15.40
  -6   0   4    9.35    1.83
  -6   0   4    8.16    1.97
  -6   0   3  298.97   11.09
  -6   0   3  312.95   10.94
  -6   0   2  252.34   10.29
  -6   0   2  254.72   10.01
  -6   0   1   17.33    2.66
  -6   0   1   17.93    2.65
  -6   0   1   20.04    2.72
  -6   0   0  445.51   14.13
  -6   0   0  461.13   14.01
  -6   0   0  445.37   14.32
  -6   0  -1  873.27   21.60
  -6   0  -1  853.15   21.17
  -6   0  -2    4.50    1.39
  -6   0  -2    5.23    1.56
  -6   0  -2    4.27    1.32
  -6   0  -3  259.53   10.78
  -6   0  -3  246.29   10.12
  -6   0  -4  813.50   20.74
  -6   0  -4  967.56   22.52
  -6   0  -5   67.21    5.23
  -6   0  -6  668.81   17.38
  -6   0  -7  543.43   14.20
  -6   0  -8    5.10    1.15
  -6  -1  11   20.30    1.80
  -6  -1  10   83.40    4.40
  -6  -1   9    4.82    1.15
  -6  -1   8   19.57    2.55
  -6  -1   7  104.61    6.82
  -6  -1   6  410.13   12.55
  -6  -1   6  393.61   14.03
  -6  -1   5   75.98    5.91
  -6  -1   5   78.80    5.53
  -6  -1   4  449.01   14.45
  -6  -1   4  425.80   14.66
  -6  -1   3   47.06    4.53
  -6  -1   3   52.58    4.60
  -6  -1   3   49.21    3.77
  -6  -1   3   40.85    4.26
  -6  -1   2   28.91    3.59
  -6  -1   2   24.86    3.25
  -6  -1   2   25.44    2.67
  -6  -1   1  265.15   11.50
  -6  -1   1  252.79   10.90
  -6  -1   1  266.58    9.16
  -6  -1   0  250.33   11.18
  -6  -1   0  248.48   10.90
  -6  -1   0  254.83    8.87
  -6  -1  -1   53.95    5.00
  -6  -1  -1   55.18    3.98
  -6  -1  -1   51.06    4.88
  -6  -1  -2  225.06   10.55
  -6  -1  -2  240.78    8.79
  -6  -1  -2  221.86   10.25
  -6  -1  -3   52.35    4.92
  -6  -1  -3   56.45    4.12
  -6  -1  -3   46.07    4.38
  -6  -1  -4  550.26   16.66
  -6  -1  -4  564.94   14.17
  -6  -1  -5   85.61    5.80
  -6  -1  -5   91.65    5.03
  -6  -1  -6  163.99    6.45
  -6  -1  -7   49.51    3.10
  -6  -1  -8   90.16    3.69
  -6  -2  10   -0.12    0.40
  -6  -2   9    0.08    0.48
  -6  -2   8   60.16    4.47
  -6  -2   8   78.55    5.83
  -6  -2   7   19.77    3.18
  -6  -2   6  327.23   13.22
  -6  -2   6  318.06   11.90
  -6  -2   5   69.93    5.89
  -6  -2   5   73.01    5.83
  -6  -2   4   -0.28    0.71
  -6  -2   4    0.02    0.67
  -6  -2   4    1.29    0.91
  -6  -2   3   10.16    2.15
  -6  -2   3   11.66    2.48
  -6  -2   3   15.45    2.71
  -6  -2   2   23.37    3.52
  -6  -2   2   24.33    3.51
  -6  -2   2   27.31    2.42
  -6  -2   2   23.26    3.14
  -6  -2   1   73.94    6.21
  -6  -2   1   67.85    5.98
  -6  -2   1   83.62    4.34
  -6  -2   0  229.31   11.16
  -6  -2   0  240.99   11.39
  -6  -2   0  257.71    8.08
  -6  -2  -1  110.76    7.56
  -6  -2  -1  126.91    5.49
  -6  -2  -1  107.18    7.34
  -6  -2  -2    1.39    0.83
  -6  -2  -2    3.03    1.26
  -6  -2  -2    3.01    0.87
  -6  -2  -3   38.73    4.29
  -6  -2  -3   44.14    3.18
  -6  -2  -3   38.19    3.79
  -6  -2  -4   20.51    3.00
  -6  -2  -4   23.93    2.25
  -6  -2  -5    5.61    1.02
  -6  -2  -5    3.22    1.17
  -6  -2  -6  117.13    4.39
  -6  -3   9    7.49    1.23
  -6  -3   8   62.57    4.13
  -6  -3   8   65.22    4.90
  -6  -3   7   77.35    5.77
  -6  -3   7   75.31    4.86
  -6  -3   6    2.46    1.04
  -6  -3   6    2.20    1.19
  -6  -3   5   38.40    4.16
  -6  -3   5   39.23    4.36
  -6  -3   4   17.72    2.78
  -6  -3   4   18.28    3.03
  -6  -3   3   -0.04    0.79
  -6  -3   3    1.10    0.59
  -6  -3   3    0.76    0.56
  -6  -3   2  176.69    9.75
  -6  -3   2  177.86    9.78
  -6  -3   1  129.68    8.09
  -6  -3   1  120.14    8.06
  -6  -3   0   14.66    2.63
  -6  -3   0   15.93    2.85
  -6  -3  -1   69.25    5.83
  -6  -3  -1   82.12    5.96
  -6  -3  -2   28.46    3.61
  -6  -3  -2   32.89    3.44
  -6  -3  -3   65.05    5.25
  -6  -3  -3   77.91    4.57
  -6  -3  -4  115.75    6.51
  -6  -3  -5   61.18    3.97
  -6  -4   8   93.36    4.07
  -6  -4   7   17.41    2.22
  -6  -4   7   14.24    1.79
  -6  -4   6  325.59   10.67
  -6  -4   6  281.65   10.13
  -6  -4   5   15.23    2.25
  -6  -4   5   12.92    2.30
  -6  -4   4  141.59    7.93
  -6  -4   4  157.88    7.07
  -6  -4   3   36.97    3.99
  -6  -4   3   32.80    3.34
  -6  -4   3   39.38    3.29
  -6  -4   2   65.74    5.25
  -6  -4   2   56.36    4.77
  -6  -4   1   14.64    2.41
  -6  -4   1   16.27    2.58
  -6  -4   0  242.91    9.62
  -6  -4   0  219.39    9.80
  -6  -4  -1   47.89    4.33
  -6  -4  -1   54.81    4.12
  -6  -4  -2  117.69    6.54
  -6  -4  -2  118.10    5.29
  -6  -4  -3   63.44    4.40
  -6  -4  -4  168.26    6.44
  -6  -5   6    0.10    0.30
  -6  -5   6    0.27    0.32
  -6  -5   5  111.45    5.28
  -6  -5   5  121.26    4.77
  -6  -5   4    7.18    1.39
  -6  -5   3   94.47    5.20
  -6  -5   3   81.39    4.02
  -6  -5   2    3.14    0.96
  -6  -5   2    3.17    0.90
  -6  -5   1  101.74    5.18
  -6  -5   1   94.25    5.04
  -6  -5   0   52.20    3.72
  -6  -5   0   58.37    3.63
  -6  -5  -1   24.13    2.42
  -6  -5  -1   26.08    2.10
  -6  -5  -2   86.99    4.38
  -6  -5  -3  143.43    5.11
  -6  -6   3    6.09    0.95
  -6  -6   2    2.22    0.57
  -7  10   1  133.35    3.75
  -7  10   0   10.19    0.98
  -7  10  -1    3.13    0.54
   7 -10   1    3.94    0.89
  -7  10  -2   66.30    2.58
   7 -10   2   68.11    3.12
  -7   9   5    9.04    0.91
  -7   9   4    0.47    0.32
  -7   9   3  166.91    5.01
  -7   9   2  196.09    5.69
  -7   9   1    0.15    0.27
  -7   9   0    7.94    1.08
  -7   9  -1    2.05    0.53
  -7   9  -2   42.18    2.51
  -7   9  -3  113.31    4.18
   7  -9   3  102.42    4.41
  -7   9  -4  173.53    5.17
  -7   9  -5    6.29    0.86
  -7   8   6   10.49    1.13
  -7   8   5   27.53    2.05
  -7   8   4  204.40    6.37
  -7   8   3   55.43    3.30
  -7   8   2   29.04    2.43
  -7   8   1   34.46    2.69
  -7   8   0    0.19    0.46
  -7   8  -1    0.30    0.34
  -7   8  -2  299.17    8.61
  -7   8  -3  108.70    4.86
  -7   8  -4   41.80    2.94
  -7   8  -5    7.09    1.17
  -7   8  -6   83.22    3.76
  -7   7   8  123.26    3.83
  -7   7   7    3.01    0.67
  -7   7   6   32.16    2.42
  -7   7   5   45.66    3.10
  -7   7   4    8.20    1.42
  -7   7   3   94.42    5.01
  -7   7   2   62.87    4.15
  -7   7   1    0.51    0.46
  -7   7   0   43.49    3.57
  -7   7  -1  158.98    6.99
  -7   7  -2    0.91    0.67
  -7   7  -3   61.83    4.22
  -7   7  -4    1.04    0.68
  -7   7  -5   10.59    1.64
  -7   7  -6    7.90    1.37
  -7   7  -7  114.12    4.76
  -7   6   8   65.36    3.35
  -7   6   7    9.76    1.46
  -7   6   6   31.77    2.89
  -7   6   5   53.47    3.95
  -7   6   4  323.73   10.49
  -7   6   4  278.40    8.55
  -7   6   3    9.79    1.88
  -7   6   3    8.68    1.49
  -7   6   2  248.88    9.66
  -7   6   2  214.49    7.78
  -7   6   1   20.07    2.75
  -7   6   1   17.21    2.22
  -7   6   0  236.76    9.78
  -7   6  -1    3.61    1.14
  -7   6  -2  169.88    7.78
  -7   6  -3   27.92    3.02
  -7   6  -4   75.45    4.80
  -7   6  -5   48.97    3.73
  -7   6  -6   78.54    4.44
  -7   6  -7    3.92    0.91
  -7   5   9  122.42    4.98
  -7   5   8    0.32    0.49
  -7   5   7    9.54    1.70
  -7   5   6   99.14    5.80
  -7   5   6   90.43    4.23
  -7   5   5  129.56    6.91
  -7   5   5  107.58    4.92
  -7   5   4   31.15    3.45
  -7   5   4   26.60    2.49
  -7   5   3  174.83    8.42
  -7   5   3  160.90    6.54
  -7   5   2  202.14    9.19
  -7   5   2  192.52    7.34
  -7   5   1  258.32   10.43
  -7   5   1  246.13    8.58
  -7   5   0   22.10    2.86
  -7   5   0   22.94    2.49
  -7   5   0   19.28    2.18
  -7   5  -1  345.46   11.42
  -7   5  -1  329.65   10.02
  -7   5  -2   64.64    4.52
  -7   5  -2   66.34    4.04
  -7   5  -3    1.34    0.70
  -7   5  -3    1.92    0.75
  -7   5  -4  197.61    7.56
  -7   5  -4  187.02    6.70
  -7   5  -5  239.50    8.03
  -7   5  -5  232.14    7.27
  -7   5  -6    0.94    0.53
  -7   5  -6    1.26    0.52
  -7   5  -7    0.61    0.37
  -7   4   9    2.28    0.82
  -7   4   8   34.64    3.34
  -7   4   7   40.47    3.82
  -7   4   7   38.23    2.57
  -7   4   6  100.54    6.23
  -7   4   6   93.08    4.46
  -7   4   6   94.52    4.30
  -7   4   5    1.43    0.76
  -7   4   5    2.75    0.80
  -7   4   4   41.41    3.99
  -7   4   4   41.39    3.15
  -7   4   3  120.12    6.75
  -7   4   3  122.35    5.72
  -7   4   2   69.04    4.93
  -7   4   2   64.03    4.12
  -7   4   1  132.02    6.64
  -7   4   1  127.21    5.91
  -7   4   1  123.67    6.32
  -7   4   0  309.94   10.27
  -7   4   0  309.26    9.68
  -7   4   0  307.02   10.57
  -7   4  -1    2.68    0.92
  -7   4  -1    2.78    0.89
  -7   4  -1    1.56    0.78
  -7   4  -2   34.37    2.89
  -7   4  -2   38.25    3.21
  -7   4  -2   36.52    3.49
  -7   4  -3   54.24    3.53
  -7   4  -3   52.13    4.16
  -7   4  -4   27.89    2.44
  -7   4  -4   32.14    3.25
  -7   4  -5  111.77    4.74
  -7   4  -5  110.52    5.87
  -7   4  -6   87.01    4.83
  -7   4  -7   78.69    4.09
  -7   3   9    2.83    0.88
  -7   3   8  160.76    7.12
  -7   3   8  166.60    5.90
  -7   3   7    0.14    0.42
  -7   3   7    0.16    0.34
  -7   3   7    1.30    0.59
  -7   3   6   27.99    3.02
  -7   3   6   28.20    2.48
  -7   3   6   29.80    2.52
  -7   3   5   10.21    1.83
  -7   3   5    9.09    1.48
  -7   3   5   11.21    1.57
  -7   3   4    5.78    1.33
  -7   3   4    3.89    0.96
  -7   3   3   75.39    4.63
  -7   3   3   73.86    4.61
  -7   3   2  346.14   10.30
  -7   3   2  359.58   10.97
  -7   3   2  375.53   12.65
  -7   3   1  213.06    8.10
  -7   3   1  251.93   10.47
  -7   3   0    0.12    0.48
  -7   3   0   -1.05    1.20
  -7   3  -1   36.34    3.11
  -7   3  -1   47.31    4.75
  -7   3  -2    7.59    1.45
  -7   3  -2    7.40    2.05
  -7   3  -3  144.91    8.69
  -7   3  -4  362.55   13.81
  -7   3  -5  116.93    7.17
  -7   3  -6    1.11    0.72
  -7   3  -7    2.92    0.95
  -7   2   9   84.01    3.98
  -7   2   8   48.91    2.83
  -7   2   8   48.75    3.22
  -7   2   7   41.33    2.99
  -7   2   7   40.83    3.08
  -7   2   6  141.83    6.09
  -7   2   5    1.61    0.66
  -7   2   4   99.38    5.18
  -7   2   4   93.08    4.88
  -7   2   3  363.56   10.99
  -7   2   2   27.14    3.60
  -7   2   2   21.47    2.59
  -7   2   1  547.43   14.69
  -7   2   1  581.67   15.40
  -7   2   0  163.51    7.23
  -7   2   0  188.57    8.24
  -7   2  -1    1.53    0.58
  -7   2  -1    2.45    1.33
  -7   2  -2  166.19    7.15
  -7   2  -2  202.23   11.21
  -7   2  -3  246.61   12.60
  -7   2  -4   11.17    2.53
  -7   2  -5  176.24    9.44
  -7   2  -6    7.26    1.71
  -7   2  -7    5.06    1.23
  -7   1   9   30.22    2.42
  -7   1   8  191.09    6.45
  -7   1   8  194.86    7.05
  -7   1   7   72.74    4.41
  -7   1   6  102.65    5.46
  -7   1   5   18.47    2.18
  -7   1   5   14.90    2.06
  -7   1   4  100.46    5.56
  -7   1   3  170.01    7.69
  -7   1   2 1160.01   25.78
  -7   1   2 1073.80   23.50
  -7   1   1   20.27    3.00
  -7   1   1   19.05    2.67
  -7   1   0   60.31    4.51
  -7   1   0   74.89    5.82
  -7   1   0   69.71    5.17
  -7   1  -1   14.65    2.10
  -7   1  -1   20.61    3.15
  -7   1  -1   20.87    2.81
  -7   1  -2  196.13    9.83
  -7   1  -3  185.24    9.60
  -7   1  -4  278.67   11.52
  -7   1  -5    4.07    1.25
  -7   1  -6   81.59    5.02
  -7   1  -7   66.23    3.85
  -7   0   9  107.99    4.79
  -7   0   8    0.33    0.43
  -7   0   7  123.35    6.12
  -7   0   6   25.72    2.84
  -7   0   5   50.00    3.89
  -7   0   4   83.42    5.39
  -7   0   3  324.84   11.63
  -7   0   2    1.68    0.93
  -7   0   2    1.47    0.83
  -7   0   1  101.14    5.65
  -7   0   1  100.14    6.44
  -7   0   0    0.62    0.60
  -7   0   0    0.70    0.58
  -7   0  -1   85.68    5.24
  -7   0  -1   82.03    5.84
  -7   0  -2   64.92    4.52
  -7   0  -2   57.31    4.73
  -7   0  -3    3.37    1.03
  -7   0  -4    1.71    0.66
  -7   0  -5    7.70    1.40
  -7   0  -6  121.57    4.99
  -7  -1   9   33.93    2.49
  -7  -1   8   42.81    3.28
  -7  -1   7   40.08    3.48
  -7  -1   6    1.70    0.73
  -7  -1   6   -0.02    0.75
  -7  -1   5   64.40    4.78
  -7  -1   4   39.62    3.94
  -7  -1   3   27.71    3.40
  -7  -1   2   27.27    3.50
  -7  -1   1   23.35    3.25
  -7  -1   1   24.87    2.33
  -7  -1   1   22.27    3.14
  -7  -1   0   31.80    3.82
  -7  -1   0   30.60    2.58
  -7  -1   0   30.80    3.64
  -7  -1  -1   20.24    2.97
  -7  -1  -1   20.99    2.15
  -7  -1  -1   19.14    2.82
  -7  -1  -2   35.36    3.83
  -7  -1  -2   35.90    2.77
  -7  -1  -2   30.89    3.32
  -7  -1  -3   53.67    3.30
  -7  -1  -4   24.16    2.06
  -7  -1  -5  119.22    4.31
  -7  -2   8   31.36    2.46
  -7  -2   7   44.03    3.36
  -7  -2   6    0.54    0.53
  -7  -2   5   74.19    5.23
  -7  -2   4   48.16    4.43
  -7  -2   3    1.19    0.64
  -7  -2   2   56.70    4.92
  -7  -2   1   32.10    3.80
  -7  -2   1   33.88    3.74
  -7  -2   0  147.26    8.27
  -7  -2   0  159.15    7.96
  -7  -2  -1   59.92    4.98
  -7  -2  -1   74.66    3.41
  -7  -2  -1   63.84    4.72
  -7  -2  -2    0.89    0.52
  -7  -2  -2    0.35    0.59
  -7  -2  -2    1.39    0.45
  -7  -2  -3   44.40    2.33
  -7  -3   7   49.02    2.82
  -7  -3   6   91.39    4.29
  -7  -3   5  240.23    8.54
  -7  -3   4    4.60    1.30
  -7  -3   3   17.75    2.44
  -7  -3   2   55.04    4.28
  -7  -3   1  141.14    6.99
  -7  -3   1  151.86    7.00
  -7  -3   0   47.48    3.96
  -7  -3   0   54.37    3.84
  -7  -3  -1  120.08    6.10
  -7  -3  -1  130.12    5.51
  -7  -4   4   29.07    2.32
  -7  -4   3    3.15    0.83
  -7  -4   2   70.73    3.78
  -7  -4   1    1.45    0.59
  -8   8   4    1.80    0.49
  -8   8   3    0.90    0.44
  -8   8   2   21.33    1.81
  -8   8   1   26.57    2.06
  -8   8   0    5.57    0.96
  -8   8  -1   21.37    1.89
  -8   8  -2  177.74    5.69
  -8   8  -3   46.15    2.66
  -8   7   5   13.93    1.46
  -8   7   4   90.34    4.15
  -8   7   3  464.86   11.28
  -8   7   2   53.60    3.50
  -8   7   1   -0.64    0.75
  -8   7   0   38.24    2.98
  -8   7  -1   79.47    4.33
  -8   7  -2    8.49    1.38
  -8   7  -3  229.28    7.27
  -8   7  -4   64.95    3.41
  -8   6   6    2.91    0.72
  -8   6   5    1.18    0.57
  -8   6   4  789.44   16.64
  -8   6   3   47.26    3.56
  -8   6   2    3.23    0.96
  -8   6   1    0.08    0.46
  -8   6   0    0.90    0.46
  -8   6  -1   45.85    3.38
  -8   6  -2  519.50   12.40
  -8   6  -3    7.60    1.28
  -8   6  -4   37.88    2.57
  -8   5   6   12.63    1.64
  -8   5   5   73.99    4.27
  -8   5   5   79.15    3.79
  -8   5   4   26.17    2.63
  -8   5   4   27.33    2.33
  -8   5   3   60.92    4.07
  -8   5   3   59.43    3.65
  -8   5   2   22.15    2.46
  -8   5   2   26.39    2.50
  -8   5   1    2.53    0.87
  -8   5   1    2.14    0.85
  -8   5   0   38.77    2.97
  -8   5  -1  204.98    6.90
  -8   5  -1  200.50    6.71
  -8   5  -2   75.44    3.83
  -8   5  -2   76.77    3.85
  -8   5  -3   44.12    2.77
  -8   5  -4    2.52    0.66
  -8   4   6    0.90    0.44
  -8   4   6    1.67    0.56
  -8   4   5   47.69    3.12
  -8   4   5   49.25    3.04
  -8   4   4   96.16    4.56
  -8   4   4   96.69    4.61
  -8   4   3    3.35    0.88
  -8   4   3    2.51    0.86
  -8   4   2    1.52    0.66
  -8   4   1   13.30    1.83
  -8   4   0   17.22    2.10
  -8   4   0   20.62    2.54
  -8   4  -1   48.68    3.86
  -8   4  -2   30.04    2.96
  -8   4  -3   16.09    2.08
  -8   4  -4   16.25    1.92
  -8   4  -5   17.00    1.76
  -8   3   7    0.12    0.23
  -8   3   6   37.40    2.56
  -8   3   5   13.88    1.64
  -8   3   4   10.66    1.54
  -8   3   3   20.89    2.25
  -8   3   2  114.54    5.54
  -8   3   1    7.05    1.41
  -8   3   1    9.49    2.12
  -8   3   0   53.72    3.82
  -8   3   0   68.61    5.56
  -8   3  -1   25.48    2.66
  -8   3  -1   29.75    3.67
  -8   3  -2   54.12    4.84
  -8   3  -3    1.96    1.04
  -8   3  -4  145.29    6.96
  -8   3  -5   63.34    3.96
  -8   2   7   43.77    2.63
  -8   2   7   41.79    2.49
  -8   2   6   13.90    1.62
  -8   2   6   13.57    1.45
  -8   2   5   41.63    3.05
  -8   2   4    7.10    1.32
  -8   2   3  266.00    8.92
  -8   2   2   49.00    3.67
  -8   2   1  173.78    7.18
  -8   2   1  222.23   10.15
  -8   2   0   90.39    5.06
  -8   2   0  117.79    7.39
  -8   2  -1    9.42    1.62
  -8   2  -1   14.15    2.56
  -8   2  -2    3.87    1.32
  -8   2  -3  627.10   17.21
  -8   2  -4    7.92    1.61
  -8   2  -5  130.40    5.58
  -8   1   7   42.10    2.73
  -8   1   7   38.86    2.57
  -8   1   6   35.47    2.80
  -8   1   6   34.60    2.55
  -8   1   5    7.33    1.32
  -8   1   5    7.06    1.18
  -8   1   4   18.41    2.22
  -8   1   3   86.22    4.98
  -8   1   2  192.85    7.63
  -8   1   1   75.22    4.53
  -8   1   0   32.67    2.86
  -8   1   0   39.67    3.49
  -8   1  -1    9.81    1.75
  -8   1  -2  184.79    7.54
  -8   1  -3  468.44   12.10
  -8   1  -4   83.49    4.20
  -8   0   6    3.06    0.86
  -8   0   6    2.46    0.74
  -8   0   5    2.30    0.75
  -8   0   5    2.32    0.73
  -8   0   4   80.13    4.71
  -8   0   4   79.54    4.25
  -8   0   3   84.03    4.84
  -8   0   3   93.12    5.30
  -8   0   2    7.35    1.37
  -8   0   2    9.13    1.71
  -8   0   1  106.66    5.03
  -8   0   0   61.56    3.46
  -8   0  -1    7.78    1.20
  -8   0  -2  161.12    5.47
  -8   0  -3   21.64    1.75
  -8  -1   6   15.84    1.71
  -8  -1   5    9.42    1.37
  -8  -1   4    0.04    0.53
  -8  -1   4    0.50    0.33
  -8  -1   3  138.51    5.62
  -8  -1   3  127.13    6.01
  -8  -1   2   82.41    3.97
  -8  -1   2   70.94    4.48
  -8  -1   1    0.59    0.49
  -8  -2   3   14.49    1.64
  -8  -2   2   19.15    1.91
  -9   3   3  127.83    5.04
  -9   3   2    2.85    0.81
   0   0   0    0.00    0.00




TITL JSP161226 in P-1
REM P-1 (#2 in standard setting)
CELL 1.54184   7.448691   9.857364  11.714237  94.8011  95.4192 108.8351
ZERR    2.00   0.000222   0.000333   0.000417   0.0028   0.0027   0.0029
LATT  1
SFAC C H N O S U
UNIT 42.00 40.00 8.00 6.00 2.00 2.00
TREF
HKLF 4
END
_computing_structure_solution     'SHELXT 2014/5 (Sheldrick, 2014)'
_computing_structure_solution     'SHELXT 2014/5 (Sheldrick, 2014)'
_computing_structure_solution     'SHELXT 2014/5 (Sheldrick, 2014)'
;
_shelx_hkl_checksum              34779
loop_
_space_group_symop_operation_xyz
'x, y, z'
'-x, -y, -z'
loop_
_atom_site_label
_atom_site_type_symbol
_atom_site_fract_x
_atom_site_fract_y
_atom_site_fract_z
_atom_site_U_iso_or_equiv
_atom_site_adp_type
_atom_site_occupancy
_atom_site_site_symmetry_order
_atom_site_calc_flag
_atom_site_refinement_flags_posn
_atom_site_refinement_flags_adp
Cu1 Cu 0.47902(4) 0.30175(3) 0.25735(3) 0.03210(18) Uani 1 1 d . .
S1 S 0.67198(8) 0.17091(7) 0.06594(6) 0.0434(2) Uani 1 1 d . .
Cl1 Cl 0.30595(9) 0.33549(8) 0.09863(6) 0.0517(2) Uani 1 1 d . .
Cl2 Cl 0.30377(12) 0.06616(7) 0.25302(7) 0.0618(2) Uani 1 1 d . .
O1 O 0.7230(3) 0.2678(2) 0.17926(16) 0.0494(5) Uani 1 1 d . .
N1 N 0.6495(3) 0.5123(2) 0.28138(17) 0.0335(4) Uani 1 1 d . .
N2 N 0.5736(3) 0.3231(2) 0.43167(16) 0.0346(4) Uani 1 1 d . .
C5 C 0.7391(3) 0.5592(2) 0.3903(2) 0.0331(5) Uani 1 1 d . .
C6 C 0.6962(3) 0.4566(3) 0.47188(19) 0.0336(5) Uani 1 1 d . .
C7 C 0.7843(4) 0.4975(3) 0.5871(2) 0.0465(6) Uani 1 1 d . .
C4 C 0.8713(3) 0.6984(3) 0.4239(3) 0.0452(6) Uani 1 1 d . .
C1 C 0.6924(4) 0.6006(3) 0.2011(2) 0.0448(6) Uani 1 1 d . .
H1 H 0.6318 0.5692 0.1259 0.054 Uiso 1 1 calc R U
C12 C 0.5341(4) 0.2254(3) 0.5047(2) 0.0475(6) Uani 1 1 d . .
H12 H 0.4499 0.1332 0.4780 0.057 Uiso 1 1 calc R U
C10 C 0.7375(5) 0.3909(4) 0.6616(2) 0.0604(9) Uani 1 1 d . .
H10 H 0.7901 0.4122 0.7389 0.073 Uiso 1 1 calc R U
C2 C 0.8266(5) 0.7396(3) 0.2266(3) 0.0564(7) Uani 1 1 d . .
H2 H 0.8570 0.7982 0.1681 0.068 Uiso 1 1 calc R U
C8 C 0.9159(4) 0.6406(4) 0.6191(3) 0.0597(9) Uani 1 1 d . .
H8 H 0.9746 0.6685 0.6950 0.072 Uiso 1 1 calc R U
C3 C 0.9125(4) 0.7892(3) 0.3367(3) 0.0579(8) Uani 1 1 d . .
H3 H 0.9981 0.8829 0.3542 0.069 Uiso 1 1 calc R U
C13 C 0.8144(5) 0.0583(3) 0.0760(3) 0.0616(8) Uani 1 1 d . .
H13A H 0.9469 0.1169 0.0921 0.092 Uiso 1 1 calc R U
H13B H 0.7936 -0.0025 0.0042 0.092 Uiso 1 1 calc R U
H13C H 0.7800 -0.0006 0.1370 0.092 Uiso 1 1 calc R U
C9 C 0.9565(4) 0.7358(4) 0.5414(3) 0.0604(9) Uani 1 1 d . .
H9 H 1.0423 0.8284 0.5650 0.072 Uiso 1 1 calc R U
C11 C 0.6144(5) 0.2558(4) 0.6208(3) 0.0594(8) Uani 1 1 d . .
H11 H 0.5841 0.1844 0.6698 0.071 Uiso 1 1 calc R U
C14 C 0.7942(7) 0.2805(5) -0.0343(3) 0.0774(11) Uani 1 1 d . .
H14A H 0.7329 0.3498 -0.0514 0.116 Uiso 1 1 calc R U
H14B H 0.7910 0.2209 -0.1041 0.116 Uiso 1 1 calc R U
H14C H 0.9246 0.3301 -0.0016 0.116 Uiso 1 1 calc R U
loop_
_atom_site_aniso_label
_atom_site_aniso_U_11
_atom_site_aniso_U_22
_atom_site_aniso_U_33
_atom_site_aniso_U_23
_atom_site_aniso_U_13
_atom_site_aniso_U_12
Cu1 0.0367(2) 0.0287(2) 0.0276(2) 0.00208(14) 0.00149(14) 0.00739(15)
S1 0.0330(3) 0.0486(4) 0.0445(4) -0.0145(3) -0.0050(2) 0.0157(2)
Cl1 0.0463(4) 0.0634(4) 0.0398(4) 0.0093(3) -0.0095(3) 0.0139(3)
Cl2 0.0759(5) 0.0326(4) 0.0594(4) 0.0044(3) 0.0032(4) -0.0040(3)
O1 0.0383(9) 0.0600(12) 0.0445(10) -0.0188(9) -0.0034(8) 0.0177(8)
N1 0.0374(10) 0.0310(9) 0.0317(9) 0.0040(7) 0.0049(7) 0.0106(7)
N2 0.0393(10) 0.0388(10) 0.0304(9) 0.0070(8) 0.0059(8) 0.0181(8)
C5 0.0301(10) 0.0332(11) 0.0366(11) -0.0027(9) 0.0045(9) 0.0130(8)
C6 0.0325(11) 0.0443(12) 0.0289(10) 0.0006(9) 0.0024(8) 0.0211(9)
C7 0.0430(13) 0.0714(18) 0.0320(12) -0.0078(12) -0.0035(10) 0.0340(13)
C4 0.0340(12) 0.0390(13) 0.0594(16) -0.0099(11) 0.0056(11) 0.0117(10)
C1 0.0560(15) 0.0389(13) 0.0430(13) 0.0136(10) 0.0133(11) 0.0168(11)
C12 0.0590(16) 0.0527(15) 0.0416(14) 0.0184(11) 0.0145(12) 0.0279(13)
C10 0.073(2) 0.098(3) 0.0287(12) 0.0105(14) 0.0020(12) 0.054(2)
C2 0.0639(17) 0.0393(14) 0.072(2) 0.0191(13) 0.0281(15) 0.0164(13)
C8 0.0460(15) 0.084(2) 0.0447(15) -0.0265(15) -0.0137(12) 0.0290(15)
C3 0.0481(15) 0.0314(12) 0.089(2) -0.0004(13) 0.0195(15) 0.0048(11)
C13 0.0633(18) 0.0502(16) 0.074(2) -0.0078(14) -0.0046(15) 0.0298(14)
C9 0.0372(14) 0.0597(18) 0.071(2) -0.0281(16) -0.0074(13) 0.0101(12)
C11 0.078(2) 0.080(2) 0.0408(14) 0.0267(15) 0.0161(14) 0.0470(19)
C14 0.106(3) 0.086(3) 0.0513(19) 0.0159(17) 0.0100(19) 0.045(2)
loop_
_atom_type_symbol
_atom_type_description
_atom_type_scat_dispersion_real
_atom_type_scat_dispersion_imag
_atom_type_scat_source
C C 0.0181 0.0091 'International Tables Vol C Tables 4.2.6.8 and 6.1.1.4'
H H 0.0000 0.0000 'International Tables Vol C Tables 4.2.6.8 and 6.1.1.4'
N N 0.0311 0.0180 'International Tables Vol C Tables 4.2.6.8 and 6.1.1.4'
O O 0.0492 0.0322 'International Tables Vol C Tables 4.2.6.8 and 6.1.1.4'
S S 0.3331 0.5567 'International Tables Vol C Tables 4.2.6.8 and 6.1.1.4'
Cu Cu -1.9646 0.5888 'International Tables Vol C Tables 4.2.6.8 and 6.1.1.4'
Cl Cl 0.3639 0.7018 'International Tables Vol C Tables 4.2.6.8 and 6.1.1.4'
loop_
_geom_angle_atom_site_label_1
_geom_angle_atom_site_label_2
_geom_angle_atom_site_label_3
_geom_angle
N1 Cu1 N2 80.06(8)
N1 Cu1 O1 83.57(8)
N2 Cu1 O1 101.61(7)
N1 Cu1 Cl2 172.98(6)
N2 Cu1 Cl2 92.98(6)
O1 Cu1 Cl2 97.02(6)
N1 Cu1 Cl1 92.11(6)
N2 Cu1 Cl1 155.62(6)
O1 Cu1 Cl1 100.38(6)
Cl2 Cu1 Cl1 94.66(3)
O1 S1 C13 105.55(14)
O1 S1 C14 104.95(17)
C13 S1 C14 97.82(19)
S1 O1 Cu1 115.64(10)
C1 N1 C5 118.5(2)
C1 N1 Cu1 127.04(18)
C5 N1 Cu1 114.18(15)
C12 N2 C6 118.1(2)
C12 N2 Cu1 129.14(19)
C6 N2 Cu1 112.76(15)
N1 C5 C4 123.4(2)
N1 C5 C6 116.2(2)
C4 C5 C6 120.4(2)
N2 C6 C7 123.8(2)
N2 C6 C5 116.8(2)
C7 C6 C5 119.4(2)
C10 C7 C6 116.2(3)
C10 C7 C8 124.9(3)
C6 C7 C8 118.9(3)
C5 C4 C3 116.5(3)
C5 C4 C9 118.4(3)
C3 C4 C9 125.1(3)
N1 C1 C2 121.7(3)
N1 C1 H1 119.1
C2 C1 H1 119.1
N2 C12 C11 122.4(3)
N2 C12 H12 118.8
C11 C12 H12 118.8
C11 C10 C7 120.0(3)
C11 C10 H10 120.0
C7 C10 H10 120.0
C3 C2 C1 120.1(3)
C3 C2 H2 120.0
C1 C2 H2 120.0
C9 C8 C7 121.2(3)
C9 C8 H8 119.4
C7 C8 H8 119.4
C2 C3 C4 119.7(3)
C2 C3 H3 120.1
C4 C3 H3 120.1
S1 C13 H13A 109.5
S1 C13 H13B 109.5
H13A C13 H13B 109.5
S1 C13 H13C 109.5
H13A C13 H13C 109.5
H13B C13 H13C 109.5
C8 C9 C4 121.7(3)
C8 C9 H9 119.2
C4 C9 H9 119.2
C10 C11 C12 119.6(3)
C10 C11 H11 120.2
C12 C11 H11 120.2
S1 C14 H14A 109.5
S1 C14 H14B 109.5
H14A C14 H14B 109.5
S1 C14 H14C 109.5
H14A C14 H14C 109.5
H14B C14 H14C 109.5
loop_
_geom_bond_atom_site_label_1
_geom_bond_atom_site_label_2
_geom_bond_distance
Cu1 N1 2.0330(19)
Cu1 N2 2.0666(19)
Cu1 O1 2.2154(18)
Cu1 Cl2 2.2606(7)
Cu1 Cl1 2.2709(7)
S1 O1 1.5091(18)
S1 C13 1.769(3)
S1 C14 1.776(4)
N1 C1 1.325(3)
N1 C5 1.352(3)
N2 C12 1.322(3)
N2 C6 1.351(3)
C5 C4 1.404(3)
C5 C6 1.431(3)
C6 C7 1.409(3)
C7 C10 1.401(5)
C7 C8 1.428(5)
C4 C3 1.405(5)
C4 C9 1.426(4)
C1 C2 1.399(4)
C1 H1 0.9300
C12 C11 1.400(4)
C12 H12 0.9300
C10 C11 1.366(5)
C10 H10 0.9300
C2 C3 1.359(5)
C2 H2 0.9300
C8 C9 1.347(5)
C8 H8 0.9300
C3 H3 0.9300
C13 H13A 0.9600
C13 H13B 0.9600
C13 H13C 0.9600
C9 H9 0.9300
C11 H11 0.9300
C14 H14A 0.9600
C14 H14B 0.9600
C14 H14C 0.9600
loop_
_geom_torsion_atom_site_label_1
_geom_torsion_atom_site_label_2
_geom_torsion_atom_site_label_3
_geom_torsion_atom_site_label_4
_geom_torsion
C13 S1 O1 Cu1 -137.09(16)
C14 S1 O1 Cu1 120.18(18)
C1 N1 C5 C4 2.1(3)
Cu1 N1 C5 C4 176.39(17)
C1 N1 C5 C6 -176.3(2)
Cu1 N1 C5 C6 -2.0(2)
C12 N2 C6 C7 0.1(3)
Cu1 N2 C6 C7 -178.42(17)
C12 N2 C6 C5 178.8(2)
Cu1 N2 C6 C5 0.3(2)
N1 C5 C6 N2 1.1(3)
C4 C5 C6 N2 -177.32(18)
N1 C5 C6 C7 179.92(19)
C4 C5 C6 C7 1.5(3)
N2 C6 C7 C10 -0.5(3)
C5 C6 C7 C10 -179.1(2)
N2 C6 C7 C8 178.2(2)
C5 C6 C7 C8 -0.5(3)
N1 C5 C4 C3 -1.7(3)
C6 C5 C4 C3 176.6(2)
N1 C5 C4 C9 179.8(2)
C6 C5 C4 C9 -1.8(3)
C5 N1 C1 C2 -0.2(4)
Cu1 N1 C1 C2 -173.6(2)
C6 N2 C12 C11 0.0(4)
Cu1 N2 C12 C11 178.2(2)
C6 C7 C10 C11 0.8(4)
C8 C7 C10 C11 -177.8(3)
N1 C1 C2 C3 -2.1(4)
C10 C7 C8 C9 178.5(3)
C6 C7 C8 C9 -0.1(4)
C1 C2 C3 C4 2.4(4)
C5 C4 C3 C2 -0.6(4)
C9 C4 C3 C2 177.8(3)
C7 C8 C9 C4 -0.3(4)
C5 C4 C9 C8 1.3(4)
C3 C4 C9 C8 -177.0(3)
C7 C10 C11 C12 -0.8(4)
N2 C12 C11 C10 0.4(4)
