#------------------------------------------------------------------------------
#$Date: 2019-11-04 13:41:14 +0200 (Mon, 04 Nov 2019) $
#$Revision: 222909 $
#$URL: file:///home/coder/svn-repositories/cod/cif/4/03/43/4034371.cif $
#------------------------------------------------------------------------------
#
# This file is available in the Crystallography Open Database (COD),
# http://www.crystallography.net/
#
# All data on this site have been placed in the public domain by the
# contributors.
#
data_4034371
loop_
_publ_author_name
'Mehta, Saurabh'
'Brahmchari, Dhirendra'
_publ_section_title
;
 Phosphazene Superbase-Mediated Regio- and Stereoselective
 Iodoaminocyclization of 2-(1-Alkynyl)benzamides for the Synthesis of
 Isoindolin-1-ones.
;
_journal_issue                   9
_journal_name_full               'The Journal of organic chemistry'
_journal_page_first              5492
_journal_page_last               5503
_journal_paper_doi               10.1021/acs.joc.9b00452
_journal_volume                  84
_journal_year                    2019
_chemical_formula_moiety         'C15 H9 Br I N O'
_chemical_formula_sum            'C15 H9 Br I N O'
_chemical_formula_weight         426.04
_space_group_crystal_system      triclinic
_space_group_IT_number           2
_space_group_name_Hall           '-P 1'
_space_group_name_H-M_alt        'P -1'
_atom_sites_solution_hydrogens   mixed
_audit_creation_method           SHELXL-2014/7
_cell_angle_alpha                77.358(7)
_cell_angle_beta                 82.035(7)
_cell_angle_gamma                63.503(10)
_cell_formula_units_Z            2
_cell_length_a                   7.3441(4)
_cell_length_b                   8.1078(6)
_cell_length_c                   13.4140(8)
_cell_measurement_reflns_used    3366
_cell_measurement_temperature    293(2)
_cell_measurement_theta_max      26.9
_cell_measurement_theta_min      3.4
_cell_volume                     696.73(10)
_computing_cell_refinement       'CrysAlisPro 1.171.38.46 (Rigaku OD, 2015)'
_computing_data_collection       'CrysAlisPro 1.171.38.46 (Rigaku OD, 2015)'
_computing_data_reduction        'CrysAlisPro 1.171.38.46 (Rigaku OD, 2015)'
_computing_molecular_graphics
'ORTEP3 (Farrugia, 1997) and Mercury (Bruno et al., 2002)'
_computing_publication_material  'SHELXL-2014/7 (Sheldrick, 2014)'
_computing_structure_refinement  'SHELXL-2014/7 (Sheldrick, 2014)'
_computing_structure_solution    'SHELXT-2014/4 (Sheldrick, 2014)'
_diffrn_ambient_temperature      293(2)
_diffrn_measured_fraction_theta_full 0.997
_diffrn_measured_fraction_theta_max 0.997
_diffrn_measurement_device_type  'Xcalibur, Sapphire3'
_diffrn_measurement_method       '\w scans'
_diffrn_radiation_type           MoK\a
_diffrn_radiation_wavelength     0.71073
_diffrn_reflns_av_R_equivalents  0.0728
_diffrn_reflns_av_unetI/netI     0.0675
_diffrn_reflns_Laue_measured_fraction_full 0.997
_diffrn_reflns_Laue_measured_fraction_max 0.997
_diffrn_reflns_limit_h_max       8
_diffrn_reflns_limit_h_min       -8
_diffrn_reflns_limit_k_max       9
_diffrn_reflns_limit_k_min       -9
_diffrn_reflns_limit_l_max       15
_diffrn_reflns_limit_l_min       -15
_diffrn_reflns_number            8386
_diffrn_reflns_point_group_measured_fraction_full 0.997
_diffrn_reflns_point_group_measured_fraction_max 0.997
_diffrn_reflns_theta_full        24.999
_diffrn_reflns_theta_max         24.999
_diffrn_reflns_theta_min         3.406
_diffrn_source                   'fine-focus sealed X-ray tube'
_exptl_absorpt_coefficient_mu    5.156
_exptl_absorpt_correction_T_max  0.657
_exptl_absorpt_correction_T_min  0.457
_exptl_absorpt_correction_type   multi-scan
_exptl_absorpt_process_details
;
CrysAlisPro 1.171.38.46 (Rigaku Oxford Diffraction, 2015)
Empirical absorption correction using spherical harmonics,
 implemented in SCALE3 ABSPACK scaling algorithm.
;
_exptl_crystal_colour            pink
_exptl_crystal_density_diffrn    2.031
_exptl_crystal_description       block
_exptl_crystal_F_000             404
_exptl_crystal_size_max          0.200
_exptl_crystal_size_mid          0.150
_exptl_crystal_size_min          0.100
_refine_diff_density_max         0.982
_refine_diff_density_min         -0.740
_refine_diff_density_rms         0.189
_refine_ls_extinction_method     none
_refine_ls_goodness_of_fit_ref   1.070
_refine_ls_hydrogen_treatment    mixed
_refine_ls_matrix_type           full
_refine_ls_number_parameters     176
_refine_ls_number_reflns         2454
_refine_ls_number_restraints     1
_refine_ls_restrained_S_all      1.070
_refine_ls_R_factor_all          0.0754
_refine_ls_R_factor_gt           0.0599
_refine_ls_shift/su_max          0.003
_refine_ls_shift/su_mean         0.000
_refine_ls_structure_factor_coef Fsqd
_refine_ls_weighting_details
'w=1/[\s^2^(Fo^2^)+(0.0610P)^2^+4.9867P] where P=(Fo^2^+2Fc^2^)/3'
_refine_ls_weighting_scheme      calc
_refine_ls_wR_factor_gt          0.1440
_refine_ls_wR_factor_ref         0.1561
_reflns_Friedel_coverage         0.000
_reflns_number_gt                2002
_reflns_number_total             2454
_reflns_threshold_expression     'I > 2\s(I)'
_cod_data_source_file            jo9b00452_si_002.cif
_cod_data_source_block           DHB-167
_cod_database_code               4034371
_shelx_shelxl_version_number     2014/7
_shelx_space_group_comment
;
The symmetry employed for this shelxl refinement is uniquely defined
by the following loop, which should always be used as a source of
symmetry information in preference to the above space-group names.
They are only intended as comments.
;
_shelx_estimated_absorpt_t_min   0.425
_shelx_estimated_absorpt_t_max   0.627
_shelx_res_file
;

    DHB-167.res created by SHELXL-2014/7

TITL dhb-167_a.res in P-1
CELL  0.71073   7.3441   8.1078  13.4140   77.358   82.035   63.503
ZERR     2.00   0.0004   0.0006   0.0008    0.007    0.007    0.010
LATT   1
SFAC  C    H    N    O    BR   I
UNIT  30   18   2    2    2    2
MERG   2
OMIT    -3.00  50.00
OMIT     2   3   3
EQIV $1 -x, -y+2, -z+1
HTAB N1 O1_$1
HTAB N1 I1
DFIX 0.85 0.02 N1 H1
FMAP   2
PLAN   20
SIZE     0.10   0.15   0.20
ACTA
BOND   $H
CONF
L.S.   4
WGHT    0.061000    4.986700
FVAR       0.56976
C1    1    0.226464    0.522965    0.533211    11.00000    0.02821    0.03363 =
         0.03729   -0.00628   -0.00718   -0.01426
C2    1    0.221311    0.390895    0.615791    11.00000    0.03198    0.04255 =
         0.04062   -0.00398   -0.00291   -0.01264
AFIX  43
H2    2    0.197317    0.416789    0.681827    11.00000   -1.20000
AFIX   0
C3    1    0.252773    0.218179    0.598158    11.00000    0.03613    0.02973 =
         0.07046    0.00727   -0.01111   -0.01220
AFIX  43
H3    2    0.247464    0.126945    0.652699    11.00000   -1.20000
AFIX   0
C4    1    0.292616    0.180133    0.498437    11.00000    0.02567    0.02676 =
         0.07619   -0.01057   -0.01000   -0.01168
AFIX  43
H4    2    0.312971    0.063408    0.487846    11.00000   -1.20000
AFIX   0
C5    1    0.302498    0.312311    0.414964    11.00000    0.03957    0.02973 =
         0.05117   -0.01347   -0.01060   -0.01053
AFIX  43
H5    2    0.329253    0.285901    0.348988    11.00000   -1.20000
AFIX   0
C6    1    0.271010    0.485434    0.433457    11.00000    0.02307    0.02965 =
         0.04307   -0.00914   -0.00553   -0.01283
C7    1    0.258054    0.661346    0.364401    11.00000    0.03702    0.03162 =
         0.03922   -0.01750   -0.00029   -0.01725
C8    1    0.174097    0.721424    0.529838    11.00000    0.03475    0.03638 =
         0.03665   -0.01038   -0.00307   -0.01634
C9    1    0.297083    0.692410    0.264273    11.00000    0.03948    0.03619 =
         0.04587   -0.01472   -0.00332   -0.02127
C10   1    0.366620    0.547394    0.197556    11.00000    0.04183    0.02928 =
         0.03039   -0.00592   -0.00229   -0.01343
C11   1    0.573964    0.405279    0.205021    11.00000    0.04089    0.04499 =
         0.04374   -0.01138   -0.00201   -0.01550
AFIX  43
H11   2    0.659027    0.407498    0.249517    11.00000   -1.20000
AFIX   0
C12   1    0.647382    0.265363    0.146329    11.00000    0.03950    0.03983 =
         0.06161   -0.01217    0.00824   -0.01160
AFIX  43
H12   2    0.779926    0.171751    0.151560    11.00000   -1.20000
AFIX   0
C13   1    0.513638    0.270089    0.078294    11.00000    0.08656    0.04771 =
         0.04745   -0.02489    0.02744   -0.04332
AFIX  43
H13   2    0.559496    0.177472    0.038346    11.00000   -1.20000
AFIX   0
C14   1    0.324084    0.403419    0.069924    11.00000    0.09357    0.06022 =
         0.03798   -0.01259   -0.00041   -0.05541
AFIX  43
H14   2    0.239368    0.403984    0.024220    11.00000   -1.20000
AFIX   0
C15   1    0.253423    0.540833    0.129166    11.00000    0.05020    0.04051 =
         0.02999   -0.00305   -0.00098   -0.02082
N1    3    0.198317    0.794578    0.429444    11.00000    0.05652    0.02422 =
         0.02991   -0.00668   -0.00297   -0.01887
O1    4    0.111980    0.812600    0.599394    11.00000    0.04750    0.03749 =
         0.03901   -0.01559   -0.00734   -0.01182
BR1   5   -0.020448    0.730791    0.112505    11.00000    0.05667    0.07236 =
         0.06142   -0.01270   -0.01821   -0.02308
I1    6    0.299150    0.950194    0.193140    11.00000    0.08383    0.03928 =
         0.04190   -0.00612    0.00161   -0.03165
H1    2    0.159674    0.909118    0.403337    11.00000    0.05734
HKLF    4

REM  dhb-167_a.res in P-1
REM R1 =  0.0599 for    2002 Fo > 4sig(Fo)  and  0.0754 for all    2454 data
REM    176 parameters refined using      1 restraints

END

WGHT      0.0613      5.0043

REM Highest difference peak  0.982,  deepest hole -0.740,  1-sigma level  0.189
Q1    1   0.3604  0.7528  0.1584  11.00000  0.05    0.98
Q2    1   0.3078  0.3445  0.2095  11.00000  0.05    0.95
Q3    1   0.2317  1.1634  0.2239  11.00000  0.05    0.93
Q4    1   0.2564  0.9875  0.2610  11.00000  0.05    0.80
Q5    1   0.0478  0.8555  0.4204  11.00000  0.05    0.79
Q6    1   0.1722  0.9057  0.1788  11.00000  0.05    0.79
Q7    1   0.3264  1.1406  0.1740  11.00000  0.05    0.78
Q8    1   0.4176  1.0349  0.2175  11.00000  0.05    0.76
Q9    1   0.0571  0.5362  0.4374  11.00000  0.05    0.70
Q10   1   0.3544  0.9159  0.1195  11.00000  0.05    0.65
Q11   1   0.5485  0.3648 -0.0531  11.00000  0.05    0.65
Q12   1   0.6274  0.4143  0.2762  11.00000  0.05    0.64
Q13   1   0.2226  0.5725  0.2378  11.00000  0.05    0.63
Q14   1   0.4287  0.3437  0.1286  11.00000  0.05    0.62
Q15   1   0.1838  0.5529  0.3223  11.00000  0.05    0.61
Q16   1   0.1986  0.9026  0.0977  11.00000  0.05    0.60
Q17   1   0.7459  0.4429  0.1136  11.00000  0.05    0.60
Q18   1   0.3867 -0.0064  0.5040  11.00000  0.05    0.59
Q19   1   0.2482  1.0613  0.1554  11.00000  0.05    0.57
Q20   1  -0.0784  0.8812  0.1674  11.00000  0.05    0.57
;
_shelx_res_checksum              59750
_shelx_hkl_file
;
 -10  -6  -4  -40.82   19.69
 -10  -6  -3  -28.78   17.13
 -10  -6  -2    7.90   12.61
  -9  -6  -4   -6.71   14.76
  -9  -6  -3   -3.59    6.10
  -9  -6  -2    0.49    7.29
  -9  -6  -1    5.30    8.10
  -9  -6   0   19.40   14.80
  -9  -6   1   19.31   11.59
  -9  -6   2   12.68    8.95
  -9  -6   3   16.28   10.82
  -9  -6   4    3.94    5.94
  -9  -6   5    3.12    5.14
  -9  -5  -5    6.24   10.21
  -9  -5  -3   -0.70   15.17
  -9  -5  -2   -6.70   11.55
  -9  -5  -1   16.67   13.74
  -9  -5   0   22.00   17.24
  -9  -5   1   10.49   14.34
  -9  -5   2   14.06   12.74
  -9  -5   3    6.60    9.75
  -9  -5   4    5.57    9.13
  -9  -4  -4  -58.40   24.11
  -9  -4  -3   32.63   17.17
  -9  -4  -2    1.24   14.57
  -9  -4  -1    4.60    6.27
  -9  -4   0   20.19   16.33
  -9  -4   1   40.45   23.22
  -9  -4   2   27.19   21.07
  -9  -4   3   -0.02   12.21
  -9  -3  -4  -23.29   19.36
  -9  -3  -2  -37.06   19.24
  -9  -3  -1   -4.12   11.65
  -9  -3  -1  -11.92   18.50
  -9  -3   0   10.19    8.18
  -9  -3   1    9.92   14.78
  -9  -3   2   38.34   23.68
  -9  -2  -3   -0.89    8.20
  -9  -2  -2  -46.62   20.88
  -9  -2   0  -10.41   19.40
  -9  -1  -1  -17.33   18.19
  -9  -1   1  -36.93   19.68
  -8  -9   1   -2.13    3.62
  -8  -9   2    4.83    4.45
  -8  -8  -6   16.49   10.78
  -8  -8  -5   75.45   19.00
  -8  -8  -4   26.59   11.71
  -8  -8  -3   10.04    8.12
  -8  -8  -2    2.18    5.57
  -8  -8  -1    5.12    8.44
  -8  -8   0   40.84   12.39
  -8  -8   1   -0.47    6.62
  -8  -8   2    8.91    7.45
  -8  -7 -11   44.23   22.05
  -8  -7  -9   53.53   17.31
  -8  -7  -8   16.55   10.91
  -8  -7  -7   18.70   11.39
  -8  -7  -6   -1.64    4.77
  -8  -7  -5    7.90    7.07
  -8  -7  -4    8.20   10.14
  -8  -7  -3    1.67    5.02
  -8  -7  -2   53.94   15.40
  -8  -7  -1   40.47   13.16
  -8  -7   0    9.83    6.94
  -8  -7   1   37.23   11.96
  -8  -7   2   14.04    6.65
  -8  -7   5    3.46    3.56
  -8  -7   6    0.23    6.14
  -8  -6 -11  -54.99   23.10
  -8  -6 -10   -2.81    8.58
  -8  -6  -9   25.29   16.35
  -8  -6  -8   13.50   13.52
  -8  -6  -7    4.00    4.35
  -8  -6  -7   12.02   19.43
  -8  -6  -6   18.10    9.48
  -8  -6  -5   38.63   14.28
  -8  -6  -4    5.47    3.81
  -8  -6  -3   61.63   19.24
  -8  -6  -3   30.70   12.84
  -8  -6  -2   35.94   12.55
  -8  -6  -2   61.43   19.10
  -8  -6  -1   25.24   10.65
  -8  -6   0   34.84   12.85
  -8  -6   1   33.06   11.77
  -8  -6   2    2.25    4.95
  -8  -6   3    1.73    3.86
  -8  -6   4   15.10    8.32
  -8  -6   5    4.89    6.08
  -8  -6   6    0.48    4.32
  -8  -6   6   -0.37    4.15
  -8  -6   7   -7.32    8.18
  -8  -5 -11    5.69    5.64
  -8  -5 -10  -28.92   16.19
  -8  -5  -9   -8.07   15.10
  -8  -5  -8   -1.84   14.28
  -8  -5  -7   15.66   12.74
  -8  -5  -6   10.43   11.97
  -8  -5  -5  157.65   35.49
  -8  -5  -3   -3.41    8.62
  -8  -5  -2   27.25   16.25
  -8  -5  -1   27.54   13.42
  -8  -5   0   19.34    9.99
  -8  -5   1    2.23    5.34
  -8  -5   2    5.47    8.07
  -8  -5   3   -1.56    4.92
  -8  -5   4    6.74    7.79
  -8  -5   5    3.03    4.41
  -8  -5   6   15.50   10.00
  -8  -5   7    8.34    7.54
  -8  -4 -10   41.85   21.37
  -8  -4  -9   26.78   15.62
  -8  -4  -8    1.39    8.77
  -8  -4  -7   23.55   11.12
  -8  -4  -6   -2.84   13.15
  -8  -4  -5   -0.13    4.98
  -8  -4  -4   65.32   24.18
  -8  -4  -3   44.26   19.87
  -8  -4  -2  -10.37   15.01
  -8  -4  -1   10.00    6.29
  -8  -4   0   39.81   19.54
  -8  -4   1   -3.87    4.09
  -8  -4   2   27.40   14.90
  -8  -4   3   80.85   22.25
  -8  -4   4   16.28    9.59
  -8  -4   5   -4.64    6.80
  -8  -4   6   19.94   11.84
  -8  -4   7   17.06   12.34
  -8  -3  -9   83.80   25.31
  -8  -3  -8   54.90   22.08
  -8  -3  -7    9.27    9.98
  -8  -3  -6    7.50    9.93
  -8  -3  -5   -6.35    9.29
  -8  -3  -4   -2.01    8.24
  -8  -3  -3   -9.40   12.03
  -8  -3  -2  -10.68    9.73
  -8  -3  -1   14.24   12.63
  -8  -3  -1   -1.38   11.26
  -8  -3   0   21.68   13.14
  -8  -3   1   64.19   23.35
  -8  -3   2   15.62   14.83
  -8  -3   3   25.87   16.72
  -8  -3   4   43.49   16.79
  -8  -3   5    8.69    9.78
  -8  -3   6   15.75   11.50
  -8  -3   7    6.15    8.37
  -8  -2  -8   50.58   19.25
  -8  -2  -7   58.71   21.65
  -8  -2  -6   39.17   18.78
  -8  -2  -5   16.75   15.02
  -8  -2  -4   54.66   21.04
  -8  -2  -3   -5.67   12.54
  -8  -2  -2  -10.89   15.72
  -8  -2  -1   54.59   20.48
  -8  -2  -1    5.15   11.03
  -8  -2   0    3.85    6.90
  -8  -2   0   36.10   18.71
  -8  -2   1   44.25   19.50
  -8  -2   2   39.73   20.11
  -8  -2   3   22.85   17.32
  -8  -2   4   21.16   17.81
  -8  -2   5    2.85    7.79
  -8  -2   6   -5.07    5.45
  -8  -1  -7   47.56   17.66
  -8  -1  -6   42.07   17.27
  -8  -1  -5   47.28   20.04
  -8  -1  -4   59.95   21.39
  -8  -1  -3  141.22   31.93
  -8  -1  -2   19.04   10.58
  -8  -1  -1  -16.43   16.29
  -8  -1   0   21.79   10.71
  -8  -1   0   24.27    7.18
  -8  -1   1    9.36   12.61
  -8  -1   1   14.09   12.37
  -8  -1   2   18.20   17.60
  -8  -1   3   22.92   17.57
  -8  -1   4   33.04   21.02
  -8  -1   5    4.14   11.98
  -8   0  -5   71.50   21.23
  -8   0  -4   38.54   17.26
  -8   0  -3   44.29   18.41
  -8   0  -2   58.43   20.42
  -8   0  -1    5.78    7.64
  -8   0  -1  -34.41   17.92
  -8   0   0   -5.97   12.17
  -8   0   1   -0.89    9.63
  -8   0   2    1.55    7.36
  -8   0   2   18.62   18.04
  -8   0   3    9.96   12.61
  -8   1  -3   28.55   15.46
  -8   1  -2   25.60   15.07
  -8   1  -1   32.69   16.68
  -8   1   0    6.05   10.49
  -8   1   1   -7.35   11.95
  -8   2  -1   22.76   13.16
  -7  -9  -6   19.62    8.62
  -7  -9  -5   13.99    9.08
  -7  -9  -4   17.36   10.28
  -7  -9  -3   16.80   10.15
  -7  -9  -2   46.24   14.97
  -7  -9  -1    3.42    5.58
  -7  -9   0   23.35   10.75
  -7  -9   1   31.27   11.69
  -7  -9   2    1.22    4.00
  -7  -8 -10   -0.53    3.52
  -7  -8  -9   26.08   10.89
  -7  -8  -8   -0.03    3.81
  -7  -8  -7    6.44    6.23
  -7  -8  -6   -0.63    5.70
  -7  -8  -5   -2.51    3.72
  -7  -8  -4   49.27   13.79
  -7  -8  -3   15.27    7.90
  -7  -8  -2   45.55   13.08
  -7  -8  -1   59.41   14.51
  -7  -8   0   15.92    8.28
  -7  -8   1   62.08   15.33
  -7  -8   2   25.40    9.14
  -7  -8   3    6.18    5.70
  -7  -8   4   35.10   13.53
  -7  -7 -13   51.44   22.85
  -7  -7 -12   44.80   21.16
  -7  -7 -12   14.18    8.91
  -7  -7 -11   72.83   17.57
  -7  -7 -10    3.25    6.72
  -7  -7  -9    4.07    6.31
  -7  -7  -8    5.96    8.08
  -7  -7  -7   46.65   13.96
  -7  -7  -6   36.76   12.39
  -7  -7  -5   45.89   13.56
  -7  -7  -4   90.02   18.42
  -7  -7  -3   32.82   11.96
  -7  -7  -2   31.58   11.82
  -7  -7  -1  154.92   23.48
  -7  -7   0    8.02    8.22
  -7  -7   1   30.49   11.23
  -7  -7   2   31.90   10.60
  -7  -7   3    5.11    5.94
  -7  -7   4   32.14    9.62
  -7  -7   5   -4.65    4.59
  -7  -7   6   29.85   12.71
  -7  -7   7    5.21    4.04
  -7  -6 -14  -22.39   18.00
  -7  -6 -13   18.74   11.32
  -7  -6 -12   -1.94    7.24
  -7  -6 -12  -11.14    9.27
  -7  -6 -11   21.95   14.55
  -7  -6 -11    1.85    5.61
  -7  -6 -10    2.89    7.41
  -7  -6 -10   26.82   16.77
  -7  -6  -9   88.71   25.70
  -7  -6  -9   49.11   15.28
  -7  -6  -8   18.32   16.08
  -7  -6  -8    9.29    9.12
  -7  -6  -7  239.62   38.69
  -7  -6  -7  154.87   24.40
  -7  -6  -6  178.02   26.53
  -7  -6  -5   14.05    8.31
  -7  -6  -4  137.23   22.17
  -7  -6  -3  169.25   26.56
  -7  -6  -3  130.13   21.58
  -7  -6  -2   -4.82    5.97
  -7  -6  -2    5.99    6.76
  -7  -6  -1   24.36   10.66
  -7  -6  -1   35.35   11.59
  -7  -6   0   39.73   11.85
  -7  -6   0   46.37   12.32
  -7  -6   1    4.61    3.70
  -7  -6   1   21.97    9.21
  -7  -6   2    8.22    5.43
  -7  -6   2    8.73    6.11
  -7  -6   3    1.81    3.24
  -7  -6   3   17.43    9.16
  -7  -6   4   26.96   12.31
  -7  -6   5   12.54    8.37
  -7  -6   6   37.58   12.93
  -7  -6   6   47.17   14.06
  -7  -6   7   26.16   12.05
  -7  -6   7   32.47   14.01
  -7  -6   8   -8.18    8.86
  -7  -6   8    1.64    3.36
  -7  -6   9   20.19    9.77
  -7  -6   9   25.82   12.78
  -7  -5 -14    4.39    6.64
  -7  -5 -13   18.07   11.44
  -7  -5 -12  -13.92   13.63
  -7  -5 -11  -11.14   14.63
  -7  -5 -10   -4.84    6.39
  -7  -5  -9   90.26   26.26
  -7  -5  -8  109.39   21.34
  -7  -5  -8  147.30   32.32
  -7  -5  -7   64.17   21.97
  -7  -5  -7   48.14   14.90
  -7  -5  -6  140.05   23.58
  -7  -5  -6  207.46   36.88
  -7  -5  -5  150.21   31.31
  -7  -5  -5   97.89   19.04
  -7  -5  -4   20.67    8.51
  -7  -5  -3   94.06   18.80
  -7  -5  -2   13.46    8.72
  -7  -5  -2   14.98    9.24
  -7  -5  -1   -0.02    4.38
  -7  -5  -1    3.16    5.20
  -7  -5   0    1.40    2.96
  -7  -5   0    4.21    6.80
  -7  -5   1   46.08   13.90
  -7  -5   2   67.07   16.51
  -7  -5   3    3.49    3.41
  -7  -5   4   67.75   17.58
  -7  -5   5   50.10   15.39
  -7  -5   6   -1.57    4.03
  -7  -5   6   -0.95    3.08
  -7  -5   7   50.71   14.83
  -7  -5   7   69.78   19.56
  -7  -5   8    2.99    3.55
  -7  -5   9    3.21    5.23
  -7  -4 -14   68.80   22.99
  -7  -4 -13   65.93   22.95
  -7  -4 -12   51.71   20.48
  -7  -4 -11  102.89   27.53
  -7  -4 -10   54.22   19.51
  -7  -4  -9   -0.82   10.22
  -7  -4  -8   19.98    9.14
  -7  -4  -7   32.25   13.95
  -7  -4  -6    5.54    6.24
  -7  -4  -5   11.36   10.97
  -7  -4  -4   21.77   13.95
  -7  -4  -3   24.53   15.81
  -7  -4  -2   91.82   23.93
  -7  -4  -1  288.70   37.99
  -7  -4   0   90.32   20.98
  -7  -4   1   51.39   15.79
  -7  -4   2  191.28   28.61
  -7  -4   3   70.77   19.31
  -7  -4   4   25.77   11.10
  -7  -4   5   23.24   10.50
  -7  -4   6    1.96    3.92
  -7  -4   6    0.55    3.59
  -7  -4   7    2.74    4.22
  -7  -4   8    0.40    3.56
  -7  -4   9    4.13    5.97
  -7  -3 -13   63.56   18.40
  -7  -3 -12   79.45   21.23
  -7  -3 -11   52.47   18.92
  -7  -3 -10   58.41   21.03
  -7  -3  -9   69.83   21.77
  -7  -3  -8   16.64   13.26
  -7  -3  -7   20.25   12.41
  -7  -3  -6   -8.85   12.03
  -7  -3  -5   -4.26    8.25
  -7  -3  -4   58.36   19.76
  -7  -3  -3  119.71   27.08
  -7  -3  -2  162.78   30.61
  -7  -3  -1   61.06   20.27
  -7  -3  -1   48.44   16.94
  -7  -3   0  171.99   30.80
  -7  -3   1   70.43   19.88
  -7  -3   2    8.73    9.51
  -7  -3   3   42.99   14.33
  -7  -3   4   -0.46    5.34
  -7  -3   5    9.13   10.71
  -7  -3   6    0.20    4.27
  -7  -3   7   20.31   10.45
  -7  -3   8   11.35    9.40
  -7  -3   9   11.35    7.77
  -7  -2 -12    8.13    8.07
  -7  -2 -11    2.71    4.34
  -7  -2 -10   -3.66    5.98
  -7  -2  -9   25.00   10.58
  -7  -2  -8   20.85   10.62
  -7  -2  -7   18.70   13.01
  -7  -2  -6  163.09   30.81
  -7  -2  -5  170.77   31.72
  -7  -2  -4    9.83    5.91
  -7  -2  -3   23.73    8.49
  -7  -2  -2  191.24   33.06
  -7  -2  -1    9.33   10.10
  -7  -2   0   43.91   17.63
  -7  -2   0    9.99    8.36
  -7  -2   1   30.03   14.45
  -7  -2   1   29.07   14.61
  -7  -2   2   12.60    8.87
  -7  -2   3    1.52    7.13
  -7  -2   4   20.59   12.06
  -7  -2   5   47.58   16.63
  -7  -2   6    7.85    6.17
  -7  -2   7    8.08    9.36
  -7  -2   8   83.59   22.96
  -7  -2   9    3.85    9.46
  -7  -1 -10    1.80    6.69
  -7  -1  -9   12.05    9.68
  -7  -1  -8   84.14   19.43
  -7  -1  -7   54.16   15.71
  -7  -1  -6   -2.98    3.74
  -7  -1  -5   89.48   22.40
  -7  -1  -4  254.10   37.53
  -7  -1  -3    7.52   10.70
  -7  -1  -2  -11.08   11.84
  -7  -1  -1    7.59    4.24
  -7  -1   0   -5.13   15.08
  -7  -1   0   -1.37    4.34
  -7  -1   1   -0.88    5.71
  -7  -1   1   19.56   13.69
  -7  -1   2   85.28   23.79
  -7  -1   2   75.70   22.33
  -7  -1   3   28.40   14.40
  -7  -1   4    9.89    9.83
  -7  -1   5   41.59   16.44
  -7  -1   6   57.19   18.21
  -7  -1   7   14.83   11.57
  -7  -1   8   23.75   13.19
  -7   0  -9   49.87   16.96
  -7   0  -8   14.81   10.73
  -7   0  -7   46.20   14.44
  -7   0  -6   76.40   18.17
  -7   0  -5   19.42    8.90
  -7   0  -4    5.10    5.67
  -7   0  -3   36.23   14.90
  -7   0  -2   33.89   16.63
  -7   0  -1    5.40    7.61
  -7   0   0   27.79   10.90
  -7   0   0   27.94   12.21
  -7   0   1    4.77    5.00
  -7   0   1   19.17   11.49
  -7   0   2   53.37   20.68
  -7   0   2   58.03   20.27
  -7   0   3  103.01   27.63
  -7   0   3  101.45   25.04
  -7   0   4   48.78   20.83
  -7   0   5   18.13   14.83
  -7   0   6   37.86   15.16
  -7   0   7    2.37    4.67
  -7   0   8    5.90    9.29
  -7   1  -7    6.02    6.69
  -7   1  -6    7.91    7.59
  -7   1  -5    8.02    7.39
  -7   1  -4    4.09    6.71
  -7   1  -3   24.88   10.67
  -7   1  -2   77.86   21.08
  -7   1  -1   41.94   16.93
  -7   1   0   27.58   15.46
  -7   1   0  -10.15   18.20
  -7   1   1   92.92   27.78
  -7   1   1   27.15   11.62
  -7   1   2   44.67   20.30
  -7   1   2   12.98   11.21
  -7   1   3   29.84   15.44
  -7   1   3   27.96   17.54
  -7   1   4   41.01   18.24
  -7   1   5   39.92   18.54
  -7   1   6    8.54    5.12
  -7   2  -5   31.34   12.50
  -7   2  -4   14.83    8.52
  -7   2  -3    8.88    7.80
  -7   2  -2   43.61   13.34
  -7   2  -1   -9.95   12.04
  -7   2  -1   45.47   15.74
  -7   2   0   54.04   20.00
  -7   2   1   13.72   12.11
  -7   2   1   -2.87    6.96
  -7   2   2   14.03   13.29
  -7   2   2   -3.30    8.68
  -7   2   3   16.57   16.16
  -7   2   4    9.80   16.47
  -7   2   5   34.58   19.70
  -7   3  -3   14.20    8.16
  -7   3  -2    1.45    2.95
  -7   3  -1   23.40   10.46
  -7   3   0   40.10   16.67
  -6 -10  -2   22.63   12.03
  -6 -10  -1   36.29   14.18
  -6 -10   0   10.14    9.24
  -6 -10   1   53.74   15.74
  -6 -10   2   36.66   13.67
  -6  -9  -9   25.21   13.81
  -6  -9  -8   23.36   10.80
  -6  -9  -7    7.75    8.15
  -6  -9  -6   66.35   16.72
  -6  -9  -5   16.91    8.89
  -6  -9  -4  137.38   23.92
  -6  -9  -3   78.03   18.73
  -6  -9  -2   37.20   13.82
  -6  -9  -1  192.69   27.69
  -6  -9   0   91.98   20.68
  -6  -9   1   41.89   13.48
  -6  -9   2   40.39   14.72
  -6  -9   3   14.77    8.31
  -6  -8 -13   24.18    9.97
  -6  -8 -12    9.59    6.79
  -6  -8 -11    7.14    6.20
  -6  -8 -10    1.35    3.03
  -6  -8  -9   20.74    9.22
  -6  -8  -8   66.67   15.72
  -6  -8  -7   78.06   16.85
  -6  -8  -6   53.05   14.26
  -6  -8  -5  188.54   26.08
  -6  -8  -4   18.15   10.73
  -6  -8  -3  243.51   29.41
  -6  -8  -2   28.64   11.68
  -6  -8  -1   12.63    7.90
  -6  -8   0  103.50   19.28
  -6  -8   1    7.78    7.72
  -6  -8   2   58.43   14.53
  -6  -8   3    4.33    5.39
  -6  -8   4   25.27    9.03
  -6  -8   4   30.11   12.10
  -6  -8   5   23.19   10.32
  -6  -8   6   -5.71    5.13
  -6  -7 -14    6.66    6.62
  -6  -7 -13   17.27    9.43
  -6  -7 -12    6.36    7.94
  -6  -7 -11   50.76   13.78
  -6  -7 -10   14.80    7.89
  -6  -7  -9   43.97   12.75
  -6  -7  -8  177.59   23.78
  -6  -7  -7    4.18    4.04
  -6  -7  -6  143.13   21.61
  -6  -7  -5  114.38   19.06
  -6  -7  -4   19.58    8.00
  -6  -7  -3   59.34   14.85
  -6  -7  -2  107.41   20.20
  -6  -7  -1   59.30   13.89
  -6  -7   0    6.44    6.29
  -6  -7   1    9.32    6.39
  -6  -7   2  185.16   22.58
  -6  -7   3   27.75    9.43
  -6  -7   4   39.78   10.30
  -6  -7   5   99.74   20.96
  -6  -7   6   10.36    8.65
  -6  -7   7   24.31   10.53
  -6  -7   8   29.22   12.08
  -6  -6 -14   11.72    9.30
  -6  -6 -13    5.66    9.63
  -6  -6 -13   -7.81    7.13
  -6  -6 -12   16.47   12.45
  -6  -6 -12    7.64    8.03
  -6  -6 -11  206.92   35.33
  -6  -6 -11  146.43   24.22
  -6  -6 -10  172.84   31.88
  -6  -6 -10   95.61   18.60
  -6  -6  -9   19.84   12.69
  -6  -6  -9    0.04    3.77
  -6  -6  -8  228.11   34.24
  -6  -6  -8  142.57   21.39
  -6  -6  -7  275.30   29.41
  -6  -6  -6    5.15    6.36
  -6  -6  -5   67.84   16.70
  -6  -6  -4    6.48    5.70
  -6  -6  -3   54.47   13.12
  -6  -6  -3   34.04   10.19
  -6  -6  -2    5.65    6.31
  -6  -6  -2    0.65    2.00
  -6  -6  -1   37.34   10.60
  -6  -6  -1   32.42    9.13
  -6  -6   0  315.36   29.00
  -6  -6   0  311.94   27.80
  -6  -6   1    4.22    5.28
  -6  -6   1   -0.69    2.64
  -6  -6   2   85.43   15.99
  -6  -6   2   81.02   14.66
  -6  -6   3  192.19   24.93
  -6  -6   3  171.31   20.08
  -6  -6   4    6.22    6.52
  -6  -6   4    6.83    6.37
  -6  -6   5  152.88   19.12
  -6  -6   5  146.69   24.34
  -6  -6   5  139.98   23.74
  -6  -6   6   21.15   10.19
  -6  -6   6   31.59   11.76
  -6  -6   7    5.27    4.38
  -6  -6   7    4.91    4.68
  -6  -6   8   41.76   13.16
  -6  -6   8   25.12   12.31
  -6  -6   9   -0.89    4.02
  -6  -6   9    2.79    3.95
  -6  -6  10   27.67   11.50
  -6  -6  10   22.88   13.41
  -6  -6  11    1.24    3.09
  -6  -5 -15   -3.17    9.74
  -6  -5 -14   -4.02    6.61
  -6  -5 -13    9.34    7.13
  -6  -5 -12   35.03   14.71
  -6  -5 -12   64.84   15.88
  -6  -5 -11    4.52    5.89
  -6  -5 -11   10.25    9.65
  -6  -5 -10  382.85   48.29
  -6  -5 -10  372.00   36.98
  -6  -5  -9   65.27   16.03
  -6  -5  -9   85.19   22.95
  -6  -5  -8   49.68   17.82
  -6  -5  -8   42.68   11.91
  -6  -5  -7  173.30   30.61
  -6  -5  -7  115.33   19.62
  -6  -5  -6   53.64   16.46
  -6  -5  -6   47.63   12.73
  -6  -5  -5   91.52   17.42
  -6  -5  -5  103.32   21.55
  -6  -5  -4   87.03   16.09
  -6  -5  -3  134.67   19.79
  -6  -5  -2  191.69   24.81
  -6  -5  -2  200.95   24.45
  -6  -5  -1   80.30   15.01
  -6  -5  -1   91.72   16.17
  -6  -5   0  333.03   29.09
  -6  -5   0  343.05   31.00
  -6  -5   1  107.58   16.42
  -6  -5   1  104.87   17.31
  -6  -5   2   23.06    8.99
  -6  -5   2   18.61    7.23
  -6  -5   3  222.65   26.97
  -6  -5   3  211.03   22.74
  -6  -5   4    4.64    4.36
  -6  -5   4    8.25    5.68
  -6  -5   5    5.55    6.64
  -6  -5   6   55.69   15.95
  -6  -5   6   63.45   14.79
  -6  -5   7    1.39    4.22
  -6  -5   7    4.77    4.55
  -6  -5   8   56.54   17.02
  -6  -5   8   31.87   10.46
  -6  -5   9   -1.38    3.76
  -6  -5   9   -1.08    5.49
  -6  -5  10   25.84    9.29
  -6  -5  10   33.64   14.07
  -6  -5  11   16.13   13.39
  -6  -4 -16   45.66   17.90
  -6  -4 -15   97.19   24.71
  -6  -4 -14   53.24   18.13
  -6  -4 -13   70.65   21.34
  -6  -4 -12   62.52   19.05
  -6  -4 -11   14.24    9.73
  -6  -4 -10   -9.77   12.06
  -6  -4  -9  -30.44   13.47
  -6  -4  -8   23.02    9.90
  -6  -4  -8   11.49    8.37
  -6  -4  -7    2.01    3.81
  -6  -4  -7    3.28    3.76
  -6  -4  -6  210.18   32.35
  -6  -4  -6  167.21   22.83
  -6  -4  -5  206.37   25.75
  -6  -4  -5  261.77   35.01
  -6  -4  -4  256.42   33.96
  -6  -4  -4  191.87   25.66
  -6  -4  -3  186.78   22.86
  -6  -4  -3  211.51   30.78
  -6  -4  -2  601.02   40.33
  -6  -4  -1  172.15   24.60
  -6  -4  -1  146.26   19.18
  -6  -4   0  117.57   19.78
  -6  -4   0  109.69   16.65
  -6  -4   1  109.75   18.96
  -6  -4   2   54.38   13.29
  -6  -4   3   51.60   13.30
  -6  -4   4    8.65    6.43
  -6  -4   5   14.61    8.27
  -6  -4   6    4.34    4.36
  -6  -4   6   -0.86    3.84
  -6  -4   7   14.12    7.27
  -6  -4   7    8.00    8.35
  -6  -4   8   75.00   14.89
  -6  -4   8  105.92   21.90
  -6  -4   9    5.54    8.82
  -6  -4   9    8.42    5.60
  -6  -4  10   12.27    7.90
  -6  -4  11   34.23   14.74
  -6  -3 -15   -3.36    5.03
  -6  -3 -14   50.80   15.27
  -6  -3 -13    7.06    6.49
  -6  -3 -12   -1.40    5.23
  -6  -3 -11   -0.97    5.00
  -6  -3 -10   -0.44    4.62
  -6  -3  -9   15.38   10.23
  -6  -3  -8  103.52   22.95
  -6  -3  -7  207.63   32.32
  -6  -3  -6   -6.45    9.49
  -6  -3  -5  263.20   36.30
  -6  -3  -4  683.26   56.54
  -6  -3  -3  111.69   23.15
  -6  -3  -2   64.22   16.79
  -6  -3  -1  294.52   34.71
  -6  -3   0   25.13    9.59
  -6  -3   1   69.90   16.55
  -6  -3   2   67.93   15.98
  -6  -3   3   30.49   11.08
  -6  -3   4   52.41   14.28
  -6  -3   5  115.80   21.26
  -6  -3   6  233.80   24.39
  -6  -3   6  237.19   32.36
  -6  -3   7    0.77    2.90
  -6  -3   7    6.54    5.91
  -6  -3   8   35.29   13.57
  -6  -3   9   77.21   20.61
  -6  -3  10   -4.17    5.64
  -6  -3  11   33.71   14.75
  -6  -2 -14    8.30    8.37
  -6  -2 -13   11.39    8.66
  -6  -2 -12    9.47    7.18
  -6  -2 -11   35.90   13.28
  -6  -2 -10  114.37   22.81
  -6  -2  -9  200.00   29.30
  -6  -2  -8   13.38    8.16
  -6  -2  -7   82.85   18.23
  -6  -2  -6  170.65   27.07
  -6  -2  -5    9.90    4.07
  -6  -2  -4   29.02    9.88
  -6  -2  -3   24.19    9.71
  -6  -2  -2   49.14   16.39
  -6  -2  -1   13.62    9.65
  -6  -2   0  192.88   28.47
  -6  -2   0  194.00   29.18
  -6  -2   1  143.44   23.52
  -6  -2   1  129.17   23.92
  -6  -2   2   13.79    7.96
  -6  -2   3  173.36   25.82
  -6  -2   4  169.37   25.77
  -6  -2   5    2.05    3.15
  -6  -2   6   87.27   13.34
  -6  -2   6   86.94   19.76
  -6  -2   7   67.70   17.92
  -6  -2   8   10.93    8.61
  -6  -2   9   19.06   12.48
  -6  -2  10    1.35    3.49
  -6  -2  11    8.11    5.83
  -6  -1 -13   17.60   11.57
  -6  -1 -12  103.03   22.15
  -6  -1 -11   38.88   14.02
  -6  -1 -10    8.93    8.26
  -6  -1  -9  144.73   25.47
  -6  -1  -8  196.49   29.29
  -6  -1  -7   10.07    8.40
  -6  -1  -6   57.62   15.87
  -6  -1  -5    6.17    4.00
  -6  -1  -4    0.21    5.51
  -6  -1  -3   21.64   10.64
  -6  -1  -2  227.21   32.32
  -6  -1  -1    1.36    3.00
  -6  -1   0   28.12   12.57
  -6  -1   1  453.87   43.43
  -6  -1   1  423.17   44.79
  -6  -1   2  226.97   32.73
  -6  -1   2  262.38   32.25
  -6  -1   3   41.78   14.05
  -6  -1   4  144.93   24.58
  -6  -1   5   65.60   16.94
  -6  -1   6    2.17    6.07
  -6  -1   7   20.64   11.49
  -6  -1   8    5.12    5.63
  -6  -1   9   41.06   16.58
  -6  -1  10    3.08    7.53
  -6  -1  11   18.27   10.93
  -6   0 -11   70.84   19.05
  -6   0 -10   15.63    9.50
  -6   0  -9   16.05    9.79
  -6   0  -8   -0.55    4.13
  -6   0  -7    0.76    4.85
  -6   0  -6   14.84    8.25
  -6   0  -5  110.04   21.31
  -6   0  -4   88.55   18.58
  -6   0  -3   15.98    8.43
  -6   0  -2   59.45   17.11
  -6   0  -1  232.89   33.59
  -6   0   0   13.06    7.53
  -6   0   1   29.74   13.46
  -6   0   1   25.38   11.63
  -6   0   2  139.84   24.76
  -6   0   2  112.83   24.67
  -6   0   3   57.81   17.03
  -6   0   3   84.43   19.59
  -6   0   4   15.44    9.92
  -6   0   5    8.62    8.51
  -6   0   6    1.45    5.37
  -6   0   7   -0.15    5.94
  -6   0   8    1.32    5.89
  -6   0   9    5.01    7.86
  -6   0  10    8.78    9.00
  -6   1 -10    4.02    7.59
  -6   1  -9    5.75    8.30
  -6   1  -8   14.23    8.51
  -6   1  -7   50.19   14.79
  -6   1  -6   88.39   20.08
  -6   1  -5    9.21    8.66
  -6   1  -4  151.98   25.92
  -6   1  -3  153.31   24.25
  -6   1  -2   21.63    9.49
  -6   1  -1   18.96    8.20
  -6   1   0   54.64   16.82
  -6   1   1    6.54    4.61
  -6   1   1  -27.15   11.76
  -6   1   2   24.87   11.81
  -6   1   2   29.95   13.58
  -6   1   3   35.23   14.49
  -6   1   3   12.97    8.27
  -6   1   4    6.24    8.92
  -6   1   4   18.78   10.75
  -6   1   5   23.27   12.72
  -6   1   6   61.86   17.90
  -6   1   7   71.98   20.05
  -6   1   8    2.01    6.95
  -6   1   9   26.54   13.09
  -6   1  10   40.59   16.02
  -6   2  -8   23.53   11.25
  -6   2  -7   16.64   10.62
  -6   2  -6   34.02   13.39
  -6   2  -5  116.07   22.20
  -6   2  -4    9.22    7.46
  -6   2  -3    7.21    6.97
  -6   2  -2   47.93   14.78
  -6   2  -1    3.95    4.72
  -6   2   0   24.80   10.72
  -6   2   0   -3.35   14.93
  -6   2   1   -7.61    9.57
  -6   2   1    8.37    8.03
  -6   2   2   19.06   10.57
  -6   2   2  -21.26   10.62
  -6   2   3   19.02   10.65
  -6   2   3   20.08   14.52
  -6   2   4   54.81   18.35
  -6   2   5   61.97   19.92
  -6   2   6   -0.58    5.68
  -6   2   7   39.11   14.66
  -6   2   8   17.35   11.54
  -6   2   9    8.29    9.56
  -6   3  -6    3.25    6.01
  -6   3  -5   14.48    9.10
  -6   3  -4   14.54    7.71
  -6   3  -3    5.95    7.95
  -6   3  -2   10.98    7.28
  -6   3  -1   10.69    7.24
  -6   3   0   17.54    8.38
  -6   3   0   -2.89   18.04
  -6   3   1   23.63   12.37
  -6   3   1   48.38   14.67
  -6   3   2   30.03   13.81
  -6   3   2   30.22   17.49
  -6   3   3   59.72   21.98
  -6   3   4   14.40   11.36
  -6   3   5   64.66   21.84
  -6   3   6   -1.99    5.51
  -6   3   7   -2.61    5.51
  -6   4  -4   -1.27    6.47
  -6   4  -3    5.27    4.50
  -6   4  -2    7.82    5.51
  -6   4  -1   19.28   10.15
  -6   4   0  -27.31   15.09
  -6   4   0   48.23   14.13
  -6   4   1   -2.61    4.02
  -6   4   2   23.48   15.42
  -6   4   3   61.14   23.76
  -6   4   4   25.90   16.23
  -6   4   5    7.35    8.85
  -6   4   6   13.10    8.90
  -6   5   0  -52.33   21.91
  -6   5   1    2.47    5.87
  -6   5   2   11.36    9.22
  -5 -10  -5   91.02   20.06
  -5 -10  -4    1.32    5.15
  -5 -10  -3   68.03   19.17
  -5 -10  -2   72.91   19.30
  -5 -10  -1    5.12    6.83
  -5 -10   0   95.69   22.74
  -5 -10   1    1.18    4.73
  -5 -10   2   15.09    8.60
  -5 -10   3   44.90   14.65
  -5  -9 -11    7.22    6.55
  -5  -9 -10   31.46   12.66
  -5  -9  -9    7.35    8.67
  -5  -9  -8  108.34   20.73
  -5  -9  -7   55.69   14.77
  -5  -9  -6   15.71    9.78
  -5  -9  -5  176.46   27.00
  -5  -9  -4   51.16   15.05
  -5  -9  -3  123.46   24.03
  -5  -9  -2   57.87   16.00
  -5  -9  -1   14.55    9.09
  -5  -9   0   95.34   20.39
  -5  -9   1   18.21   11.03
  -5  -9   2   37.28   12.80
  -5  -9   2   21.84   11.16
  -5  -9   3   35.81   12.20
  -5  -9   3   37.37   14.68
  -5  -8 -14   -6.93    6.47
  -5  -8 -13   30.32   12.13
  -5  -8 -12   10.70    7.80
  -5  -8 -11   19.64   10.62
  -5  -8 -10  132.04   21.60
  -5  -8  -9   23.83   10.28
  -5  -8  -8   99.81   18.67
  -5  -8  -7  284.31   30.83
  -5  -8  -6   49.27   13.80
  -5  -8  -5   96.55   17.64
  -5  -8  -4  240.93   28.80
  -5  -8  -3    6.76    7.02
  -5  -8  -2   78.14   16.66
  -5  -8  -1   10.96    7.15
  -5  -8   0  151.44   22.47
  -5  -8   1   52.58   13.33
  -5  -8   2   44.58   12.11
  -5  -8   3  164.76   28.93
  -5  -8   3  185.86   24.00
  -5  -8   4   67.41   14.20
  -5  -8   4   61.89   18.07
  -5  -8   5   96.27   22.47
  -5  -8   6   38.46   14.18
  -5  -7 -14    6.70    6.40
  -5  -7 -13   52.55   12.85
  -5  -7 -12  126.53   20.45
  -5  -7 -11   15.85    8.64
  -5  -7 -10  236.22   26.96
  -5  -7  -9   88.06   16.83
  -5  -7  -8   67.77   15.02
  -5  -7  -7  110.63   18.82
  -5  -7  -6    5.47    7.40
  -5  -7  -5   10.06    5.93
  -5  -7  -4   70.27   14.67
  -5  -7  -3   38.08   11.33
  -5  -7  -2  251.59   27.63
  -5  -7  -1   86.60   17.00
  -5  -7   0  199.57   24.21
  -5  -7   1  240.77   26.21
  -5  -7   2    8.73    7.22
  -5  -7   3  185.20   22.05
  -5  -7   4  119.80   22.77
  -5  -7   4  128.74   18.05
  -5  -7   5    6.53    5.79
  -5  -7   5    3.08    3.54
  -5  -7   6   73.00   18.02
  -5  -7   7    9.69    9.16
  -5  -7   8    6.24    5.43
  -5  -7   9    6.18    6.68
  -5  -6 -14   35.42   11.73
  -5  -6 -13    7.97    5.92
  -5  -6 -13   26.85   14.15
  -5  -6 -12  232.17   26.72
  -5  -6 -12  267.13   35.86
  -5  -6 -11   72.75   19.03
  -5  -6 -11   45.78   11.95
  -5  -6 -10   12.87   10.08
  -5  -6 -10    9.11    6.14
  -5  -6  -9  308.30   34.97
  -5  -6  -9  228.06   25.65
  -5  -6  -8   11.34    6.57
  -5  -6  -7   85.43   15.50
  -5  -6  -6   28.94    9.65
  -5  -6  -5  177.97   21.91
  -5  -6  -4  293.02   27.64
  -5  -6  -3   26.77    9.42
  -5  -6  -3   14.71    4.08
  -5  -6  -2  631.79   31.44
  -5  -6  -2  674.20   41.67
  -5  -6  -1  203.96   18.06
  -5  -6  -1  217.41   23.51
  -5  -6   0   11.14    6.90
  -5  -6   0    3.40    3.41
  -5  -6   1  683.70   38.33
  -5  -6   1  728.23   41.63
  -5  -6   2  122.39   17.14
  -5  -6   2  128.09   17.41
  -5  -6   3   26.95    7.71
  -5  -6   3   28.17    8.71
  -5  -6   4   57.74   13.58
  -5  -6   4   54.28   11.54
  -5  -6   5    7.71    6.00
  -5  -6   5    7.49    5.13
  -5  -6   5    5.48    5.34
  -5  -6   6  195.69   27.54
  -5  -6   6  198.10   19.87
  -5  -6   6  148.22   24.01
  -5  -6   7    5.51    5.28
  -5  -6   7   -1.09    4.25
  -5  -6   8   87.02   17.86
  -5  -6   8   88.83   20.12
  -5  -6   9   80.98   19.78
  -5  -6   9   90.39   18.86
  -5  -6  10   -6.37    5.97
  -5  -6  10    0.84    6.25
  -5  -6  11   39.27   13.34
  -5  -5 -14   71.81   20.53
  -5  -5 -14   72.50   15.89
  -5  -5 -13   15.37    7.29
  -5  -5 -13   -1.20    4.22
  -5  -5 -12    7.66    7.49
  -5  -5 -12    1.05    4.82
  -5  -5 -11   85.62   17.09
  -5  -5 -11   77.49   20.28
  -5  -5 -10    8.95    8.70
  -5  -5 -10    7.10    7.62
  -5  -5  -9   31.74   10.72
  -5  -5  -9   29.91   12.16
  -5  -5  -8   98.49   17.24
  -5  -5  -8  110.32   21.87
  -5  -5  -7  239.99   29.93
  -5  -5  -7  202.25   22.89
  -5  -5  -6  244.35   29.03
  -5  -5  -6  214.90   23.27
  -5  -5  -5  214.82   22.76
  -5  -5  -4  916.90   46.38
  -5  -5  -3  498.83   33.98
  -5  -5  -2  208.56   21.72
  -5  -5  -2  251.77   24.08
  -5  -5  -1  426.81   30.08
  -5  -5  -1  643.28   38.84
  -5  -5   0   62.68   12.12
  -5  -5   0   64.19   11.13
  -5  -5   1   38.65    9.58
  -5  -5   1   26.23    8.17
  -5  -5   2   26.35    8.73
  -5  -5   2   27.84   11.33
  -5  -5   3   61.77   10.89
  -5  -5   3   52.99   12.70
  -5  -5   4  103.48   18.14
  -5  -5   4   98.20   13.32
  -5  -5   5    5.21    1.89
  -5  -5   5    8.25    6.30
  -5  -5   5    6.28    4.98
  -5  -5   6   85.69   12.92
  -5  -5   6   62.50   14.91
  -5  -5   6   86.95   18.40
  -5  -5   7  113.16   18.99
  -5  -5   7  127.65   23.34
  -5  -5   8   24.14   10.45
  -5  -5   8   28.54   10.08
  -5  -5   9   83.43   20.56
  -5  -5   9   60.35   14.96
  -5  -5  10   18.70    8.27
  -5  -5  10   12.09    9.96
  -5  -5  11   18.05    8.14
  -5  -5  11   11.57   10.75
  -5  -5  12   27.41   15.29
  -5  -5  12   22.11    9.93
  -5  -4 -15   19.26   10.28
  -5  -4 -14    0.74    2.70
  -5  -4 -13   -2.85    7.17
  -5  -4 -12   -6.30   12.53
  -5  -4 -11  -10.16   12.30
  -5  -4 -11    9.51    6.94
  -5  -4 -10  133.81   20.23
  -5  -4 -10   66.76   17.59
  -5  -4  -9  264.70   34.94
  -5  -4  -9  273.14   28.05
  -5  -4  -8   49.94   17.47
  -5  -4  -8   59.41   17.07
  -5  -4  -7  399.32   32.46
  -5  -4  -7  456.91   42.63
  -5  -4  -6  840.22   55.71
  -5  -4  -6  794.99   43.92
  -5  -4  -5  159.00   23.39
  -5  -4  -5  132.79   18.30
  -5  -4  -4  333.29   27.93
  -5  -4  -4  363.78   34.13
  -5  -4  -3  429.07   36.40
  -5  -4  -3  408.28   30.97
  -5  -4  -2   52.26   11.46
  -5  -4  -1  311.43   25.34
  -5  -4  -1  351.47   28.21
  -5  -4   0    5.71    5.07
  -5  -4   0    0.08    2.31
  -5  -4   1  139.83   16.62
  -5  -4   1  141.81   17.59
  -5  -4   2   51.59   11.23
  -5  -4   2   59.62   10.72
  -5  -4   3   76.86   14.71
  -5  -4   3   92.65   13.30
  -5  -4   4  495.44   39.10
  -5  -4   4  520.76   31.56
  -5  -4   5   31.18   11.56
  -5  -4   6  105.44   17.26
  -5  -4   6  129.21   22.90
  -5  -4   7  163.17   21.09
  -5  -4   7  205.05   28.68
  -5  -4   8   21.19    8.05
  -5  -4   8   27.09   10.97
  -5  -4   9   91.00   21.17
  -5  -4   9   52.20   12.52
  -5  -4  10   14.69    6.86
  -5  -4  10   28.28   14.38
  -5  -4  11   -3.17    4.00
  -5  -4  11   14.50   12.14
  -5  -4  12   35.49   16.19
  -5  -3 -16    8.11    5.54
  -5  -3 -15   -4.13    5.31
  -5  -3 -14    4.19    3.15
  -5  -3 -13    3.40    5.22
  -5  -3 -12  125.90   22.79
  -5  -3 -11  240.46   31.36
  -5  -3 -10   -0.94    5.23
  -5  -3  -9  139.85   22.60
  -5  -3  -8  311.23   34.30
  -5  -3  -7   -6.63   11.01
  -5  -3  -6  162.44   19.50
  -5  -3  -6  169.25   26.13
  -5  -3  -5  254.37   24.91
  -5  -3  -5  322.07   35.10
  -5  -3  -4    5.36    4.29
  -5  -3  -4    2.45    3.83
  -5  -3  -3    5.06    4.51
  -5  -3  -3   12.44    7.59
  -5  -3  -2   -0.35    2.65
  -5  -3  -2   -0.16    5.07
  -5  -3  -1  316.85   25.99
  -5  -3  -1  332.64   31.85
  -5  -3   0   16.06    7.13
  -5  -3   0   11.58    4.02
  -5  -3   1  448.80   33.55
  -5  -3   2  780.79   44.19
  -5  -3   3   -1.99    2.09
  -5  -3   4  460.05   37.04
  -5  -3   5  356.64   34.64
  -5  -3   6    8.49    6.29
  -5  -3   6    7.60    5.24
  -5  -3   7  165.89   25.76
  -5  -3   7  121.33   16.83
  -5  -3   8   43.03   14.51
  -5  -3   8   32.68    9.06
  -5  -3   9   22.90    9.56
  -5  -3   9   23.28    8.23
  -5  -3  10   18.90    9.98
  -5  -3  10   35.66   10.40
  -5  -3  11   -1.40    5.25
  -5  -3  12   40.38   16.33
  -5  -2 -16    6.86    7.39
  -5  -2 -15   20.52    9.96
  -5  -2 -14   32.97   12.66
  -5  -2 -13   79.14   18.92
  -5  -2 -12   23.70   10.66
  -5  -2 -11  160.53   26.73
  -5  -2 -10  235.96   31.85
  -5  -2  -9    9.21    7.84
  -5  -2  -8   70.12   17.29
  -5  -2  -7  107.75   20.20
  -5  -2  -6    1.95    5.79
  -5  -2  -5   -1.96    9.60
  -5  -2  -4  147.12   22.76
  -5  -2  -3   66.70   15.30
  -5  -2  -2  185.75   24.66
  -5  -2  -1  885.78   51.25
  -5  -2   0  612.60   41.80
  -5  -2   1   19.92    8.79
  -5  -2   1   16.06    8.07
  -5  -2   2  533.73   39.42
  -5  -2   3  398.05   33.54
  -5  -2   4   15.06    7.45
  -5  -2   5  101.01   18.37
  -5  -2   6    0.42    3.93
  -5  -2   6    0.34    2.32
  -5  -2   7    9.02    5.07
  -5  -2   7    9.27    9.58
  -5  -2   8   19.93    6.89
  -5  -2   8   20.77   10.65
  -5  -2   9  147.59   18.58
  -5  -2   9  147.09   26.22
  -5  -2  10   15.20   10.75
  -5  -2  11    2.44    5.62
  -5  -2  12   67.68   20.32
  -5  -1 -15   31.20   13.59
  -5  -1 -14   57.81   17.60
  -5  -1 -13   74.85   18.72
  -5  -1 -12   81.29   18.99
  -5  -1 -11   10.22    9.74
  -5  -1 -10   24.64   10.31
  -5  -1  -9   18.86   10.41
  -5  -1  -8   11.65    7.46
  -5  -1  -7  122.53   22.77
  -5  -1  -6  307.29   35.15
  -5  -1  -5   97.99   19.36
  -5  -1  -4   92.08   17.69
  -5  -1  -3  775.99   50.51
  -5  -1  -2  121.78   21.25
  -5  -1  -1   20.86    8.96
  -5  -1   0 1027.25   57.46
  -5  -1   1  143.21   22.68
  -5  -1   1  106.42   13.54
  -5  -1   1  161.55   22.57
  -5  -1   2   64.94   14.49
  -5  -1   2   71.59   14.70
  -5  -1   3   13.19    6.76
  -5  -1   4   -2.06    5.06
  -5  -1   5   35.03   10.72
  -5  -1   6    6.37    3.50
  -5  -1   6    2.79    3.50
  -5  -1   7  240.37   18.80
  -5  -1   7  190.94   27.62
  -5  -1   8    8.80    7.93
  -5  -1   9   12.37    6.90
  -5  -1  10  248.17   34.91
  -5  -1  11   11.20    9.64
  -5  -1  12   18.86    9.40
  -5   0 -14   13.54    9.27
  -5   0 -13   16.72   10.01
  -5   0 -12    0.81    4.24
  -5   0 -11   13.16    7.98
  -5   0 -10   -5.85    4.82
  -5   0  -9   53.18   17.42
  -5   0  -8   90.30   20.58
  -5   0  -7    5.44    8.36
  -5   0  -6  126.55   22.55
  -5   0  -5  706.27   51.42
  -5   0  -4  125.72   21.69
  -5   0  -3   96.57   19.46
  -5   0  -2  287.12   32.10
  -5   0  -1    8.94    3.10
  -5   0   0   22.23    8.34
  -5   0   1    3.25    3.69
  -5   0   1    7.04    6.48
  -5   0   1   -3.63    5.74
  -5   0   2   17.96    5.89
  -5   0   2   25.71    9.70
  -5   0   2   24.60   10.24
  -5   0   3   22.62    9.22
  -5   0   3   18.50    6.47
  -5   0   3   12.22    7.70
  -5   0   4   88.41   17.15
  -5   0   5  258.74   29.93
  -5   0   5  234.47   14.21
  -5   0   6   28.09   10.60
  -5   0   7   87.01   18.28
  -5   0   8  183.87   28.64
  -5   0   9   76.53   20.50
  -5   0  10   23.88   12.60
  -5   0  11   40.69   15.90
  -5   0  12    5.78    9.12
  -5   1 -12   -8.55   10.98
  -5   1 -11   59.67   20.40
  -5   1 -10   67.14   19.62
  -5   1  -9   13.49    8.81
  -5   1  -8  150.81   28.26
  -5   1  -7  336.34   39.06
  -5   1  -6   15.71    9.77
  -5   1  -5  124.27   22.53
  -5   1  -4  116.59   20.99
  -5   1  -3   64.59   16.09
  -5   1  -2   26.78   10.46
  -5   1  -1   11.17    6.18
  -5   1   0   -1.97    7.33
  -5   1   1    4.05    4.65
  -5   1   1  -24.14    9.43
  -5   1   2  228.19   30.32
  -5   1   2  270.73   31.12
  -5   1   3  405.71   40.08
  -5   1   3  445.77   37.72
  -5   1   4   11.86    6.86
  -5   1   4   25.47    9.28
  -5   1   5  148.51   24.01
  -5   1   6  115.24   21.69
  -5   1   7   13.23    8.67
  -5   1   8   41.10   14.78
  -5   1   9   10.13    8.74
  -5   1  10   23.31   12.02
  -5   1  11    7.74    5.20
  -5   1  12    2.85    4.40
  -5   2 -11    7.30    7.03
  -5   2 -10   88.29   25.24
  -5   2  -9   66.96   19.84
  -5   2  -8   -0.97    6.85
  -5   2  -7   24.22   12.19
  -5   2  -6   62.08   17.75
  -5   2  -5   -2.39    4.10
  -5   2  -4   -1.34    3.82
  -5   2  -3   30.83   11.64
  -5   2  -2   29.22   11.27
  -5   2  -1   50.31   13.09
  -5   2   0  103.74   19.02
  -5   2   1   92.25   16.24
  -5   2   1  178.23   29.04
  -5   2   2   -8.16    9.64
  -5   2   2   15.63   11.34
  -5   2   3  280.09   31.92
  -5   2   3  257.81   34.18
  -5   2   4  140.56   21.10
  -5   2   4   74.72   18.29
  -5   2   5    3.58    6.40
  -5   2   5    7.21    6.22
  -5   2   6   54.87   15.13
  -5   2   7   36.58   12.47
  -5   2   8   24.21   11.12
  -5   2   9   -0.84    4.94
  -5   2  10   -3.26    3.68
  -5   2  11   28.14   13.97
  -5   3  -9   24.62   14.47
  -5   3  -8   -4.50    7.53
  -5   3  -7    7.90    5.24
  -5   3  -6   11.28    7.55
  -5   3  -5   16.22    8.25
  -5   3  -4    1.67    4.41
  -5   3  -3   64.54   16.67
  -5   3  -2  168.22   24.80
  -5   3  -1   36.86   11.95
  -5   3   0   88.07   18.57
  -5   3   1  133.66   22.15
  -5   3   1  163.45   29.67
  -5   3   2   10.16    2.51
  -5   3   2   49.76   17.65
  -5   3   3   13.01    8.33
  -5   3   3  -26.36   10.28
  -5   3   4   58.94   17.68
  -5   3   5    3.80    6.35
  -5   3   6    3.12    6.38
  -5   3   7    2.55    5.24
  -5   3   8   15.85   10.02
  -5   3   9   30.75   12.88
  -5   3  10   10.06    8.98
  -5   4  -7   -6.50    8.19
  -5   4  -6    0.51    8.42
  -5   4  -5   49.14   17.09
  -5   4  -4   20.26   10.98
  -5   4  -3   10.72    6.21
  -5   4  -2   20.74    9.99
  -5   4  -1   80.92   17.35
  -5   4   0   10.79    7.34
  -5   4   0   -6.65   14.28
  -5   4   1   12.24    8.61
  -5   4   1    5.15    6.84
  -5   4   2   -2.92    5.85
  -5   4   2    6.68    9.70
  -5   4   3   10.58   10.17
  -5   4   4   20.12   11.43
  -5   4   5   54.94   17.28
  -5   4   6   22.63   10.66
  -5   4   7    2.12    6.31
  -5   4   8   29.36   13.15
  -5   4   9   16.31    9.59
  -5   5  -5   -2.65    5.90
  -5   5  -4   14.65    8.97
  -5   5  -3   -2.02    7.06
  -5   5  -2   11.75    7.82
  -5   5  -1    3.39    4.35
  -5   5   0  -11.17   13.85
  -5   5   0    1.97    3.65
  -5   5   1    6.45    6.45
  -5   5   2    5.71    8.96
  -5   5   3   25.76   15.53
  -5   5   4   39.17   16.90
  -5   5   5    6.51    6.53
  -5   5   6   26.24   12.55
  -5   5   7    9.67    8.83
  -5   5   8    1.47    5.66
  -4 -10  -5   20.31    8.07
  -4 -10  -4   47.75   17.15
  -4 -10  -3   24.85   12.36
  -4 -10  -2   38.62   13.34
  -4 -10  -1   29.46   15.13
  -4 -10  -1   12.62    8.89
  -4 -10   0  -10.87    9.61
  -4 -10   0    1.03    7.42
  -4 -10   1   94.36   21.48
  -4 -10   2  -18.77   10.06
  -4 -10   3    7.18    5.28
  -4  -9 -12   56.53   15.49
  -4  -9 -11    7.12    4.53
  -4  -9 -10   26.58   11.29
  -4  -9  -9  108.09   22.31
  -4  -9  -8   25.23   10.31
  -4  -9  -7  101.75   21.39
  -4  -9  -6   94.00   20.32
  -4  -9  -5   -5.43   10.76
  -4  -9  -4  160.18   28.67
  -4  -9  -3    8.04    6.44
  -4  -9  -2   86.97   19.39
  -4  -9  -1   58.91   15.77
  -4  -9   0   -1.19    5.82
  -4  -9   0   -1.23    5.34
  -4  -9   1  163.29   25.66
  -4  -9   1  217.29   34.18
  -4  -9   2   43.45   12.57
  -4  -9   2   52.14   16.52
  -4  -9   3   35.68   11.41
  -4  -9   3   28.41   12.47
  -4  -9   4   77.52   21.34
  -4  -9   4   43.01   13.19
  -4  -8 -14  112.88   20.74
  -4  -8 -13    3.67    6.68
  -4  -8 -12   81.93   16.89
  -4  -8 -12  112.01   19.28
  -4  -8 -11  140.05   21.49
  -4  -8 -10    7.75    6.70
  -4  -8  -9   68.18   15.26
  -4  -8  -8   96.22   18.32
  -4  -8  -7   48.31   12.86
  -4  -8  -6    2.44    3.44
  -4  -8  -5   18.58    7.70
  -4  -8  -4  225.71   27.93
  -4  -8  -3   96.92   18.44
  -4  -8  -2  167.52   24.70
  -4  -8  -1  245.32   29.93
  -4  -8   0   37.10   11.73
  -4  -8   1  255.26   29.96
  -4  -8   2  244.54   33.74
  -4  -8   2  220.57   27.67
  -4  -8   3    6.09    5.39
  -4  -8   3   14.32    7.89
  -4  -8   4  107.52   22.49
  -4  -8   4  102.36   17.83
  -4  -8   5   56.62   12.87
  -4  -8   5   45.85   15.06
  -4  -8   6   38.73   14.01
  -4  -8   7   27.74   11.70
  -4  -7 -14   80.83   17.26
  -4  -7 -14   91.49   19.06
  -4  -7 -13   75.51   15.95
  -4  -7 -13   96.75   18.26
  -4  -7 -12   11.43    7.78
  -4  -7 -12   16.87    9.04
  -4  -7 -11   93.84   18.19
  -4  -7 -11  128.70   19.40
  -4  -7 -10   35.02   11.11
  -4  -7  -9   17.72    8.22
  -4  -7  -8   33.53   10.50
  -4  -7  -7    2.40    4.45
  -4  -7  -6  153.17   21.11
  -4  -7  -5   63.48   13.72
  -4  -7  -4  211.13   24.68
  -4  -7  -3  385.57   35.03
  -4  -7  -2    5.75    6.12
  -4  -7  -1  712.45   46.01
  -4  -7   0  140.18   20.89
  -4  -7   1   27.63    9.35
  -4  -7   2  332.99   30.92
  -4  -7   3    2.09    6.31
  -4  -7   3   -0.16    3.79
  -4  -7   4   47.69   14.85
  -4  -7   4   45.16   11.30
  -4  -7   5   59.25   12.15
  -4  -7   5   41.89   14.08
  -4  -7   6   65.12   16.65
  -4  -7   7   93.46   20.57
  -4  -7   8    5.57    7.34
  -4  -7   9   42.65   14.44
  -4  -6 -15   45.93   14.17
  -4  -6 -14   25.60   11.40
  -4  -6 -14    7.21    5.37
  -4  -6 -13   34.88   10.47
  -4  -6 -13   54.30   13.73
  -4  -6 -12   38.98   11.66
  -4  -6 -12   47.28   12.28
  -4  -6 -11   86.45   15.83
  -4  -6 -11   95.37   16.32
  -4  -6 -10   30.50   10.79
  -4  -6  -9  289.87   27.33
  -4  -6  -8  174.60   21.39
  -4  -6  -7   54.69   11.74
  -4  -6  -6 1320.51   56.90
  -4  -6  -6 1195.24   41.89
  -4  -6  -5  469.90   33.71
  -4  -6  -5  482.80   23.41
  -4  -6  -4  147.19   18.85
  -4  -6  -3  570.14   21.81
  -4  -6  -3  571.89   37.31
  -4  -6  -2  222.42   23.11
  -4  -6  -2  217.87   13.63
  -4  -6  -1   89.75   17.43
  -4  -6  -1   64.50    8.01
  -4  -6   0  289.70   18.56
  -4  -6   0  293.11   26.59
  -4  -6   1   92.72   15.10
  -4  -6   1   94.72   11.70
  -4  -6   2  128.36   18.25
  -4  -6   2  112.20   15.27
  -4  -6   3   52.67   10.42
  -4  -6   3   44.01   10.60
  -4  -6   4  330.28   27.72
  -4  -6   4  274.41   24.05
  -4  -6   4  288.71   32.03
  -4  -6   5  126.58   16.07
  -4  -6   5  144.07   19.89
  -4  -6   5  118.91   21.15
  -4  -6   6   37.71   12.46
  -4  -6   6   45.80    9.55
  -4  -6   6   45.16   12.59
  -4  -6   7  293.84   30.93
  -4  -6   7  246.57   30.92
  -4  -6   8   61.92   15.80
  -4  -6   8   61.45   15.70
  -4  -6   9   71.24   18.07
  -4  -6   9   64.87   15.67
  -4  -6  10   78.76   18.21
  -4  -6  11    2.21    4.82
  -4  -5 -16   25.98   11.12
  -4  -5 -15   10.23    9.05
  -4  -5 -14   17.01    8.89
  -4  -5 -14    7.37    4.35
  -4  -5 -13   13.89    8.48
  -4  -5 -13    6.41    5.96
  -4  -5 -13    5.54    4.97
  -4  -5 -12   53.36   12.16
  -4  -5 -12   45.48   13.28
  -4  -5 -12   47.50   11.36
  -4  -5 -11   88.94   15.07
  -4  -5 -11  101.33   19.20
  -4  -5 -10  192.74   21.78
  -4  -5 -10  198.55   26.01
  -4  -5  -9  242.31   24.59
  -4  -5  -9  258.08   27.66
  -4  -5  -8  539.31   35.53
  -4  -5  -8  587.36   41.41
  -4  -5  -7  248.19   26.56
  -4  -5  -7  244.86   24.33
  -4  -5  -6  280.76   25.22
  -4  -5  -5 1186.75   51.60
  -4  -5  -4   25.16    9.46
  -4  -5  -3  219.77   21.93
  -4  -5  -2  240.99   18.86
  -4  -5  -2  296.62   25.69
  -4  -5  -1  161.98   19.04
  -4  -5  -1  121.04   12.20
  -4  -5   0   42.82    8.93
  -4  -5   0  108.05   16.07
  -4  -5   1   67.19   10.68
  -4  -5   1   75.32   12.26
  -4  -5   2  673.97   36.82
  -4  -5   2  672.80   35.71
  -4  -5   3  254.52   23.74
  -4  -5   3  254.41   21.45
  -4  -5   4  313.91   22.70
  -4  -5   4  320.66   29.09
  -4  -5   5  490.28   38.99
  -4  -5   5  564.94   40.38
  -4  -5   5  500.88   27.99
  -4  -5   6  312.31   31.91
  -4  -5   6  246.11   28.08
  -4  -5   6  273.82   19.81
  -4  -5   7   83.40   16.78
  -4  -5   7  102.23   12.39
  -4  -5   7  106.76   19.34
  -4  -5   8  183.47   24.24
  -4  -5   8  220.07   28.80
  -4  -5   9   18.55   11.16
  -4  -5   9   14.31    8.73
  -4  -5  10   22.39    9.05
  -4  -5  10   26.15   11.98
  -4  -5  11    3.68    3.46
  -4  -5  11   10.76    9.57
  -4  -5  12   18.53   12.84
  -4  -5  12   21.38    9.60
  -4  -5  13   27.40   11.97
  -4  -4 -13  277.55   26.77
  -4  -4 -13  113.61   21.80
  -4  -4 -12   -6.89    8.41
  -4  -4 -12   12.97    7.44
  -4  -4 -11  287.25   33.33
  -4  -4 -11  350.22   29.28
  -4  -4 -10  434.43   39.64
  -4  -4 -10  422.49   31.88
  -4  -4  -9   81.58   13.53
  -4  -4  -9   95.64   18.53
  -4  -4  -8  812.72   50.80
  -4  -4  -8  712.78   39.25
  -4  -4  -7  301.65   30.08
  -4  -4  -7  288.15   24.47
  -4  -4  -6   23.26    7.44
  -4  -4  -6   17.72    7.56
  -4  -4  -5    8.73    5.40
  -4  -4  -5    8.06    5.37
  -4  -4  -4   33.18    9.50
  -4  -4  -4   35.83    9.57
  -4  -4  -3  742.14   37.47
  -4  -4  -2   21.59   12.07
  -4  -4  -1  731.66   35.80
  -4  -4  -1  726.36   32.12
  -4  -4   0 1645.20   50.03
  -4  -4   0 1665.74   52.41
  -4  -4   1   15.50    7.05
  -4  -4   1   24.04   10.08
  -4  -4   2  680.41   31.83
  -4  -4   2  711.94   37.72
  -4  -4   3  810.21   33.34
  -4  -4   3  886.89   45.82
  -4  -4   4    2.30    2.85
  -4  -4   4    2.61    4.82
  -4  -4   5  285.10   29.14
  -4  -4   5  283.47   19.86
  -4  -4   5  247.48   24.73
  -4  -4   6   45.14    8.17
  -4  -4   6   33.17    9.54
  -4  -4   6   46.68   13.06
  -4  -4   7   22.82    7.99
  -4  -4   7   25.34   10.65
  -4  -4   7   29.90    6.53
  -4  -4   8  104.51   20.14
  -4  -4   8   83.80   15.33
  -4  -4   9    7.36    6.86
  -4  -4   9    1.10    4.77
  -4  -4  10   69.08   14.96
  -4  -4  10   90.49   21.01
  -4  -4  11   14.55   11.19
  -4  -4  11   24.18    9.18
  -4  -4  12   25.84   10.24
  -4  -4  12   24.28   13.83
  -4  -4  13   41.25   13.38
  -4  -4  13   48.16   16.95
  -4  -3 -15   21.62    9.63
  -4  -3 -14    8.05    7.82
  -4  -3 -13  261.19   34.19
  -4  -3 -12  220.42   29.99
  -4  -3 -11    0.35    4.00
  -4  -3 -10  338.72   27.84
  -4  -3 -10  158.97   23.71
  -4  -3  -9   66.86   14.23
  -4  -3  -9  187.10   20.28
  -4  -3  -8    1.35    3.54
  -4  -3  -8   10.61    5.60
  -4  -3  -7   11.19    4.56
  -4  -3  -7   19.83    6.29
  -4  -3  -6   52.57   12.71
  -4  -3  -6   62.57   11.79
  -4  -3  -5  432.89   34.54
  -4  -3  -5  395.14   27.43
  -4  -3  -4   14.36    7.06
  -4  -3  -4   10.61    6.06
  -4  -3  -3 1099.23   49.56
  -4  -3  -3  997.41   40.74
  -4  -3  -2  652.31   32.48
  -4  -3  -2  713.32   39.34
  -4  -3  -1   67.24   10.98
  -4  -3   0 1519.41   47.45
  -4  -3   0 1517.54   51.13
  -4  -3   1 1144.98   45.27
  -4  -3   1 1131.96   40.20
  -4  -3   2  112.97   12.61
  -4  -3   2   97.26   13.89
  -4  -3   3  210.87   17.83
  -4  -3   3  177.69   19.77
  -4  -3   4  453.16   26.70
  -4  -3   4  426.65   34.08
  -4  -3   5  201.27   20.39
  -4  -3   5  233.34   27.03
  -4  -3   6   18.68    7.35
  -4  -3   6   23.00    9.97
  -4  -3   7  141.90   22.77
  -4  -3   7  135.41   17.41
  -4  -3   8   93.58   21.46
  -4  -3   8   98.45   15.69
  -4  -3   9   15.20    6.17
  -4  -3   9    6.46    6.23
  -4  -3  10  248.43   34.00
  -4  -3  10  176.90   21.98
  -4  -3  11  163.79   28.48
  -4  -3  11  151.46   21.56
  -4  -3  12    0.21    3.70
  -4  -3  12    5.33    5.44
  -4  -3  13   67.09   20.11
  -4  -2 -16    5.49    7.43
  -4  -2 -15  102.90   21.65
  -4  -2 -14   46.55   15.62
  -4  -2 -13   12.28    8.74
  -4  -2 -12  162.80   26.06
  -4  -2 -11   59.33   16.05
  -4  -2 -10    8.69    8.65
  -4  -2  -9   17.46   10.93
  -4  -2  -8  249.47   31.28
  -4  -2  -7   25.00    9.16
  -4  -2  -6   95.31   16.65
  -4  -2  -5 1115.60   55.20
  -4  -2  -4  550.79   37.48
  -4  -2  -3  698.89   42.49
  -4  -2  -2 1746.08   63.63
  -4  -2  -1  822.29   41.62
  -4  -2   0   89.45   13.92
  -4  -2   1  519.92   31.69
  -4  -2   2   52.69   10.82
  -4  -2   3  138.46   17.16
  -4  -2   4    1.59    3.17
  -4  -2   5  260.89   27.24
  -4  -2   6  214.30   27.12
  -4  -2   6  179.45   17.68
  -4  -2   7   17.22    6.06
  -4  -2   7   10.40    7.09
  -4  -2   8  446.44   29.91
  -4  -2   8  551.14   46.03
  -4  -2   9   77.75   18.63
  -4  -2   9   57.64   11.62
  -4  -2  10   33.13    9.17
  -4  -2  10   38.92   13.40
  -4  -2  11  126.90   19.02
  -4  -2  11  120.11   25.13
  -4  -2  12   12.67   11.18
  -4  -2  13   47.46   17.09
  -4  -2  14   15.30   11.42
  -4  -1 -17   45.53   15.47
  -4  -1 -16   22.94   11.21
  -4  -1 -15   10.76    8.80
  -4  -1 -14   -5.13    5.52
  -4  -1 -13    3.17    3.55
  -4  -1 -12    1.71    5.00
  -4  -1 -11   51.00   14.41
  -4  -1 -10  114.33   21.95
  -4  -1  -9   14.67   10.70
  -4  -1  -8  239.29   30.96
  -4  -1  -7 1569.22   77.46
  -4  -1  -6  154.35   25.38
  -4  -1  -5  424.52   39.27
  -4  -1  -4  553.62   43.66
  -4  -1  -3  518.01   38.02
  -4  -1  -2 1178.98   52.80
  -4  -1  -1  259.66   25.75
  -4  -1  -1  160.99   16.71
  -4  -1   0  121.59   16.67
  -4  -1   1   14.50    5.71
  -4  -1   1   13.03    6.00
  -4  -1   2  272.55   23.13
  -4  -1   2  287.67   25.30
  -4  -1   3  965.44   46.74
  -4  -1   4    5.20    4.44
  -4  -1   5  321.74   29.31
  -4  -1   5  295.36   18.61
  -4  -1   6  729.65   30.52
  -4  -1   6  718.00   47.85
  -4  -1   7  181.82   26.01
  -4  -1   7  167.45   15.85
  -4  -1   8  175.59   17.24
  -4  -1   8  178.03   26.85
  -4  -1   9  301.88   35.68
  -4  -1   9  353.40   26.87
  -4  -1  10    2.13    3.28
  -4  -1  10    3.27    7.19
  -4  -1  11   36.88   13.95
  -4  -1  12   16.26    8.91
  -4  -1  13    7.07    5.99
  -4  -1  14    9.35    9.17
  -4   0 -15  -14.41   14.64
  -4   0 -14   -4.13    9.84
  -4   0 -13   38.23   14.33
  -4   0 -12   52.10   18.25
  -4   0 -11    1.72    4.13
  -4   0 -10  245.60   36.47
  -4   0  -9  418.12   47.96
  -4   0  -8  131.96   25.53
  -4   0  -7  404.37   43.68
  -4   0  -7  339.91   23.25
  -4   0  -6  783.70   35.41
  -4   0  -6  893.36   59.91
  -4   0  -5  296.30   33.40
  -4   0  -4   56.53   15.31
  -4   0  -3   18.72    9.60
  -4   0  -2   -1.27    3.79
  -4   0  -1   80.97   14.40
  -4   0  -1  188.68   26.01
  -4   0   0  778.97   47.80
  -4   0   0  988.36   47.56
  -4   0   1 1015.19   51.84
  -4   0   1  997.96   48.35
  -4   0   2   44.84    8.78
  -4   0   2   52.25   11.18
  -4   0   2   64.45   13.01
  -4   0   3  499.76   23.24
  -4   0   3  564.09   37.77
  -4   0   3  591.19   33.72
  -4   0   4 1125.02   53.84
  -4   0   5   11.53    7.25
  -4   0   5    8.01    2.62
  -4   0   6  204.49   25.07
  -4   0   6  221.43   13.39
  -4   0   7  285.30   17.20
  -4   0   7  229.23   28.36
  -4   0   8    8.77    7.15
  -4   0   8    3.55    1.99
  -4   0   9   48.90   14.70
  -4   0  10   23.23   10.42
  -4   0  11   71.49   18.88
  -4   0  12    9.47    7.02
  -4   0  13   23.78   12.93
  -4   1 -14   -1.57    9.83
  -4   1 -13  -14.64   15.03
  -4   1 -12    8.53    6.00
  -4   1 -11   53.38   16.35
  -4   1 -10   -5.54   11.46
  -4   1  -9   49.81   15.00
  -4   1  -8   -6.73    9.37
  -4   1  -7   -2.31    3.75
  -4   1  -6    3.58    4.26
  -4   1  -6   15.62    5.51
  -4   1  -5   45.32   14.64
  -4   1  -5   64.71   12.15
  -4   1  -4  124.28   22.92
  -4   1  -3  195.01   27.24
  -4   1  -2  422.24   37.66
  -4   1  -1  503.40   40.14
  -4   1   0   19.83    7.07
  -4   1   0   36.50    9.83
  -4   1   1  484.95   33.91
  -4   1   1  747.02   42.15
  -4   1   2  654.23   42.55
  -4   1   2  786.10   43.49
  -4   1   3   30.77    5.53
  -4   1   3   33.65    8.78
  -4   1   3   26.77    8.69
  -4   1   4  122.83   18.90
  -4   1   4  167.10   17.41
  -4   1   5  202.15   24.19
  -4   1   6   24.52    8.87
  -4   1   7    3.11    3.77
  -4   1   8   45.47   13.96
  -4   1   9   23.17   11.45
  -4   1  10    8.09    8.25
  -4   1  11   78.96   19.56
  -4   1  12   70.08   20.04
  -4   1  13    1.98    3.64
  -4   2 -12  -41.26   17.53
  -4   2 -11  -13.63   15.62
  -4   2 -10   17.85    9.26
  -4   2  -9   -6.71   11.57
  -4   2  -8  -15.19   13.67
  -4   2  -7  -32.45   12.83
  -4   2  -6  -25.02   11.25
  -4   2  -5   14.16    6.75
  -4   2  -4  422.84   43.47
  -4   2  -3   70.15   17.62
  -4   2  -2   66.24   16.68
  -4   2  -1  811.20   51.76
  -4   2   0  212.79   23.54
  -4   2   0  243.07   28.83
  -4   2   1    5.39    4.19
  -4   2   1    2.63    3.88
  -4   2   2  237.42   18.29
  -4   2   2  224.45   27.02
  -4   2   3   29.63   10.08
  -4   2   3   20.93    4.45
  -4   2   3   38.74   10.39
  -4   2   4  116.06   15.52
  -4   2   4   80.46   15.94
  -4   2   5    3.02    5.09
  -4   2   5    1.28    2.51
  -4   2   6  107.12   18.90
  -4   2   7  159.42   24.44
  -4   2   8    1.44    5.16
  -4   2   9  255.50   33.32
  -4   2  10   50.47   16.30
  -4   2  11    3.80    3.69
  -4   2  12   61.93   18.26
  -4   2  13    2.85    4.92
  -4   3 -11  -11.89   14.18
  -4   3 -10  -37.14   15.57
  -4   3  -9   -9.54   10.35
  -4   3  -8  -23.25   11.50
  -4   3  -7   26.41   12.49
  -4   3  -6  123.74   24.28
  -4   3  -5   -5.51   10.59
  -4   3  -4    2.86    3.68
  -4   3  -3  279.89   36.32
  -4   3  -2    9.42    7.42
  -4   3  -1   23.72   10.18
  -4   3   0   98.80   19.03
  -4   3   1   45.95   13.49
  -4   3   1   35.86   11.85
  -4   3   2   19.49   10.64
  -4   3   2   25.56   12.35
  -4   3   3   -4.05    6.89
  -4   3   3    0.26    5.48
  -4   3   4  100.85   18.51
  -4   3   4  127.16   18.09
  -4   3   5    4.89    5.72
  -4   3   5    8.60    4.54
  -4   3   6   94.93   18.61
  -4   3   7   56.12   14.56
  -4   3   8   23.69   10.28
  -4   3   9   83.53   19.59
  -4   3  10   75.57   18.88
  -4   3  11   -3.01    5.55
  -4   3  12    6.69    6.87
  -4   4  -9   10.59    6.17
  -4   4  -8   36.68   14.08
  -4   4  -7  -11.83   14.51
  -4   4  -6   17.33    8.49
  -4   4  -5   34.14   11.01
  -4   4  -4  -15.03   12.70
  -4   4  -3    3.55    6.35
  -4   4  -2    4.19    4.06
  -4   4  -1   -2.53    4.72
  -4   4   0    2.63    3.01
  -4   4   1   28.02   10.45
  -4   4   1   37.19   12.09
  -4   4   2  189.56   28.23
  -4   4   2  184.14   24.09
  -4   4   3   10.25    7.62
  -4   4   3   -2.66    1.98
  -4   4   4  151.44   23.75
  -4   4   5   86.97   18.75
  -4   4   6   37.49   12.30
  -4   4   7  141.43   24.48
  -4   4   8    3.73    3.04
  -4   4   9    5.99    7.08
  -4   4  10   14.13   10.29
  -4   4  11   -6.45    7.27
  -4   4  12   19.77    9.33
  -4   5  -7   -7.95   14.13
  -4   5  -6  -19.41   11.01
  -4   5  -5  -20.25   14.28
  -4   5  -4  -17.44   15.08
  -4   5  -3   -7.06   10.56
  -4   5  -2   -3.71    9.50
  -4   5  -1   33.84   13.36
  -4   5   0   33.01   15.15
  -4   5   0   31.27   11.94
  -4   5   1    2.09    4.25
  -4   5   1   -3.30    6.25
  -4   5   2  246.20   34.61
  -4   5   2  214.39   26.52
  -4   5   3   26.56   12.56
  -4   5   4   -2.48    3.62
  -4   5   5   99.71   20.46
  -4   5   6    9.34    7.63
  -4   5   7   -1.64    4.15
  -4   5   8    7.38    7.94
  -4   5   9    1.10    4.56
  -4   5  10    9.45    8.86
  -4   5  11   -8.19   10.16
  -4   6  -4  -33.54   14.72
  -4   6  -3  -35.35   15.14
  -4   6  -2    5.68    4.86
  -4   6  -1   16.98    9.17
  -4   6   0   22.15    8.89
  -4   6   1    5.82    4.62
  -4   6   2    1.82    3.97
  -4   6   3   47.41   15.78
  -4   6   4    7.61    3.66
  -4   6   5    7.37    6.31
  -4   6   6   -1.50    7.79
  -3 -11  -5   -2.07    9.04
  -3 -10  -4   18.43    9.41
  -3 -10  -4   10.75    9.23
  -3 -10  -3   48.52   18.23
  -3 -10  -3   28.16   17.44
  -3 -10  -2   11.97   10.65
  -3 -10  -2    0.81    5.40
  -3 -10  -1   67.38   21.14
  -3 -10  -1   43.22   15.70
  -3 -10   0   91.82   22.63
  -3 -10   0   60.07   18.34
  -3 -10   1   27.31   10.42
  -3 -10   2   80.73   20.49
  -3 -10   3   42.94   14.67
  -3  -9 -12    9.13    6.65
  -3  -9 -11   15.52    9.29
  -3  -9 -11   35.70   13.64
  -3  -9 -10   86.79   17.68
  -3  -9 -10   65.48   16.82
  -3  -9  -9   10.01    8.64
  -3  -9  -9   23.85   10.33
  -3  -9  -8   31.93   13.79
  -3  -9  -7    2.03    6.16
  -3  -9  -6   95.71   22.00
  -3  -9  -5   59.19   18.01
  -3  -9  -4   53.89   16.98
  -3  -9  -3  361.37   42.55
  -3  -9  -2   19.34   11.37
  -3  -9  -1   77.86   21.16
  -3  -9  -1   77.86   20.21
  -3  -9   0  238.01   33.27
  -3  -9   0  248.98   36.88
  -3  -9   1   15.34   12.28
  -3  -9   1   15.04    8.85
  -3  -9   2   97.50   21.64
  -3  -9   2  104.15   26.38
  -3  -9   3   54.42   17.62
  -3  -9   3   29.47   12.35
  -3  -9   4    5.68    8.49
  -3  -9   4   23.96   11.10
  -3  -8 -14    9.28    7.06
  -3  -8 -13   66.00   15.78
  -3  -8 -12   36.89   11.70
  -3  -8 -12   28.74   10.07
  -3  -8 -11   27.88   10.38
  -3  -8 -11   15.22    6.60
  -3  -8 -10   57.32   13.30
  -3  -8 -10   45.28   12.40
  -3  -8  -9   15.26    9.64
  -3  -8  -9    0.50    7.32
  -3  -8  -8   81.94   15.03
  -3  -8  -8   88.44   18.24
  -3  -8  -7   58.85   15.67
  -3  -8  -7   57.83   12.76
  -3  -8  -6  183.72   27.45
  -3  -8  -5  246.36   31.04
  -3  -8  -4   42.89   13.25
  -3  -8  -3  308.37   34.19
  -3  -8  -2  353.65   37.39
  -3  -8  -1   19.97    9.45
  -3  -8   0  182.19   26.49
  -3  -8   0  190.89   29.08
  -3  -8   1   21.30   10.48
  -3  -8   1   13.48    7.13
  -3  -8   2   40.39   12.50
  -3  -8   2   50.37   15.87
  -3  -8   3   81.69   17.55
  -3  -8   3   75.94   18.57
  -3  -8   4   34.41   14.37
  -3  -8   4   22.29   10.27
  -3  -8   5  167.80   29.09
  -3  -8   5  160.19   23.41
  -3  -8   6   13.04    8.34
  -3  -8   7   39.60   14.92
  -3  -7 -14   20.38    8.73
  -3  -7 -14   13.56    8.20
  -3  -7 -13   14.21    8.75
  -3  -7 -13   13.94    7.36
  -3  -7 -12   31.44   10.18
  -3  -7 -12   24.29    9.56
  -3  -7 -11   57.52   13.40
  -3  -7 -11   60.40   13.86
  -3  -7 -10  120.05   19.49
  -3  -7 -10  115.61   19.32
  -3  -7  -9   19.26    9.48
  -3  -7  -9    7.16    4.79
  -3  -7  -8  277.56   28.82
  -3  -7  -8  302.02   25.93
  -3  -7  -7  367.63   33.60
  -3  -7  -7  371.63   27.74
  -3  -7  -6   41.53   11.75
  -3  -7  -5  452.55   37.21
  -3  -7  -4  200.28   24.80
  -3  -7  -3   32.36   10.33
  -3  -7  -2  427.78   37.15
  -3  -7  -1   13.64    6.66
  -3  -7   0  178.39   23.41
  -3  -7   1  125.47   19.82
  -3  -7   2  128.47   19.78
  -3  -7   2  108.62   20.61
  -3  -7   3  289.33   29.73
  -3  -7   3  306.41   35.94
  -3  -7   4    2.81    5.34
  -3  -7   4    2.30    5.97
  -3  -7   5  180.44   22.47
  -3  -7   5  176.73   27.97
  -3  -7   6  208.31   30.12
  -3  -7   6  193.33   22.63
  -3  -7   7   38.33   13.47
  -3  -7   8   81.91   19.05
  -3  -7   9   15.20    9.15
  -3  -6 -15   14.19    8.92
  -3  -6 -14   -1.36    4.38
  -3  -6 -14    7.20    6.06
  -3  -6 -13  104.95   18.39
  -3  -6 -13  109.69   17.93
  -3  -6 -12   56.14   13.05
  -3  -6 -12   49.09   12.40
  -3  -6 -11  100.15   16.98
  -3  -6 -11   96.82   15.59
  -3  -6 -10  266.61   25.18
  -3  -6 -10  240.87   24.76
  -3  -6  -9  246.77   23.40
  -3  -6  -9  239.32   24.80
  -3  -6  -8  638.86   35.86
  -3  -6  -8  578.06   37.94
  -3  -6  -7  359.82   29.53
  -3  -6  -7  381.90   26.64
  -3  -6  -6  177.29   17.48
  -3  -6  -6  211.37   16.52
  -3  -6  -6  167.71   20.13
  -3  -6  -5  302.57   16.50
  -3  -6  -5  417.30   31.86
  -3  -6  -4  189.28   21.61
  -3  -6  -3   59.63   12.25
  -3  -6  -2   67.79   13.29
  -3  -6  -2   53.92    7.65
  -3  -6  -1   72.42   13.81
  -3  -6  -1   72.50    7.67
  -3  -6   0  363.72   16.16
  -3  -6   0  308.56   27.96
  -3  -6   1  481.55   35.15
  -3  -6   2  399.74   31.54
  -3  -6   3  672.08   40.24
  -3  -6   3  701.92   49.17
  -3  -6   4  225.15   28.50
  -3  -6   4  210.79   21.91
  -3  -6   5   78.86   13.35
  -3  -6   5   76.26   16.42
  -3  -6   6  408.57   39.11
  -3  -6   6  373.45   28.00
  -3  -6   7    3.27    7.34
  -3  -6   7    3.64    3.14
  -3  -6   8   96.13   20.36
  -3  -6   9   20.16    9.96
  -3  -6  10    6.52    5.43
  -3  -6  11   43.42   14.98
  -3  -5 -16   13.06    7.32
  -3  -5 -15   70.91   15.97
  -3  -5 -14   16.70    8.39
  -3  -5 -13  286.03   28.78
  -3  -5 -13  276.91   25.86
  -3  -5 -12  279.07   27.21
  -3  -5 -12  299.49   27.05
  -3  -5 -11  208.26   23.44
  -3  -5 -11  227.01   23.89
  -3  -5 -11  226.08   23.51
  -3  -5 -10  369.56   28.25
  -3  -5 -10  393.05   29.61
  -3  -5 -10  429.70   31.25
  -3  -5  -9  737.68   38.19
  -3  -5  -9  760.25   40.77
  -3  -5  -9  735.16   40.07
  -3  -5  -8  174.16   18.33
  -3  -5  -8  165.46    9.88
  -3  -5  -8  172.25   19.21
  -3  -5  -7  120.00   18.93
  -3  -5  -7  156.54   17.46
  -3  -5  -7  162.43   11.29
  -3  -5  -6  214.69   18.53
  -3  -5  -6  198.85   17.33
  -3  -5  -6  185.57   12.31
  -3  -5  -6  221.09   21.43
  -3  -5  -5  115.56   15.19
  -3  -5  -5  116.29   10.52
  -3  -5  -5  139.92   12.51
  -3  -5  -4  157.34   13.93
  -3  -5  -4  195.22   20.08
  -3  -5  -4  212.93   13.37
  -3  -5  -3  269.99   18.19
  -3  -5  -3  285.29   24.31
  -3  -5  -2 1371.14   34.98
  -3  -5  -2 1330.48   26.47
  -3  -5  -1  267.37   12.87
  -3  -5  -1  269.32   14.25
  -3  -5  -1  268.14   23.78
  -3  -5   0  997.47   28.43
  -3  -5   0 1034.26   45.92
  -3  -5   1 1171.66   35.31
  -3  -5   1 1240.44   50.29
  -3  -5   2  158.08   17.54
  -3  -5   2  154.26   14.34
  -3  -5   3  541.34   29.86
  -3  -5   3  583.28   34.84
  -3  -5   4  710.19   35.94
  -3  -5   4  668.19   45.30
  -3  -5   4  726.27   37.63
  -3  -5   5   80.35   14.07
  -3  -5   5   86.45   12.20
  -3  -5   5   71.98   14.81
  -3  -5   6  142.60   14.72
  -3  -5   6  153.29   22.12
  -3  -5   6  134.57   18.55
  -3  -5   7  153.44   21.07
  -3  -5   7  140.39   21.52
  -3  -5   7  146.69   14.42
  -3  -5   8  147.05   22.01
  -3  -5   8  179.55   24.73
  -3  -5   9   71.75   16.30
  -3  -5  10   13.52    6.08
  -3  -5  11   96.41   19.58
  -3  -5  12   17.08    8.52
  -3  -5  13   32.26   11.79
  -3  -4 -17   75.50   16.06
  -3  -4 -16    9.92    6.94
  -3  -4 -15  192.90   23.58
  -3  -4 -14  176.96   22.12
  -3  -4 -13   11.95    7.47
  -3  -4 -13    6.10    3.80
  -3  -4 -13    2.85    3.57
  -3  -4 -12  290.78   26.35
  -3  -4 -12  276.45   23.96
  -3  -4 -12  279.53   28.37
  -3  -4 -11   44.10   11.21
  -3  -4 -11   45.85   10.51
  -3  -4 -11   54.45   11.26
  -3  -4 -10   20.30    7.32
  -3  -4 -10   22.49    7.77
  -3  -4 -10   21.41    7.35
  -3  -4  -9   21.10    8.23
  -3  -4  -9   15.72    6.70
  -3  -4  -9    9.36    4.94
  -3  -4  -8    8.63    4.72
  -3  -4  -8   14.27    5.11
  -3  -4  -8   18.70    7.79
  -3  -4  -7  465.66   29.64
  -3  -4  -7  470.82   30.43
  -3  -4  -7  449.62   25.28
  -3  -4  -6   93.30   11.62
  -3  -4  -6   55.71   10.18
  -3  -4  -6  116.45   15.56
  -3  -4  -6   68.25   12.39
  -3  -4  -6   49.23    5.38
  -3  -4  -5  743.96   37.75
  -3  -4  -5  753.90   36.49
  -3  -4  -4 1231.38   46.76
  -3  -4  -3    2.50    1.90
  -3  -4  -3    2.70    4.03
  -3  -4  -2 1549.30   34.71
  -3  -4  -2 1625.80   52.65
  -3  -4  -1 2487.28   45.48
  -3  -4  -1 2603.75   43.94
  -3  -4  -1 2584.34   65.77
  -3  -4   0  119.69   11.09
  -3  -4   0  104.74   13.67
  -3  -4   1  701.68   33.14
  -3  -4   1  708.44   30.18
  -3  -4   2  645.70   31.69
  -3  -4   2  615.65   30.13
  -3  -4   3    0.95    3.01
  -3  -4   3    5.60    3.76
  -3  -4   4   29.43    8.70
  -3  -4   4   33.89    6.93
  -3  -4   4   30.01    8.32
  -3  -4   5   88.69   10.46
  -3  -4   5   81.52   14.66
  -3  -4   5   94.70   15.51
  -3  -4   6  106.35   17.16
  -3  -4   6   92.70   15.51
  -3  -4   6   94.30   10.29
  -3  -4   7   15.22    8.43
  -3  -4   7   16.74    7.40
  -3  -4   7   16.15    4.35
  -3  -4   8  209.88   24.73
  -3  -4   8  258.74   16.32
  -3  -4   8  243.11   29.07
  -3  -4   9  393.00   37.85
  -3  -4   9  294.39   29.49
  -3  -4  10    8.87    8.06
  -3  -4  10   -0.72    4.19
  -3  -4  11   96.25   18.33
  -3  -4  11  134.86   23.98
  -3  -4  12   93.20   18.45
  -3  -4  12  108.87   24.10
  -3  -4  13    2.68    4.53
  -3  -4  14   21.10    9.34
  -3  -3 -17   58.50   12.92
  -3  -3 -16   59.35   13.01
  -3  -3 -15    9.99    7.56
  -3  -3 -14   93.14   19.70
  -3  -3 -14  116.18   16.84
  -3  -3 -13  112.40   16.14
  -3  -3 -13   72.62   17.10
  -3  -3 -12   36.31   10.88
  -3  -3 -12   58.12   10.78
  -3  -3 -12   72.54   13.30
  -3  -3 -11   34.30    8.44
  -3  -3 -11   41.59    9.46
  -3  -3 -10   70.01   11.44
  -3  -3 -10   78.88   12.20
  -3  -3  -9   61.39   13.21
  -3  -3  -9   84.67   12.33
  -3  -3  -9   92.33   12.92
  -3  -3  -8   16.63    6.16
  -3  -3  -8   20.20    7.90
  -3  -3  -8   20.64    6.94
  -3  -3  -7 1965.38   56.55
  -3  -3  -7 2028.49   64.90
  -3  -3  -7 1893.36   48.97
  -3  -3  -6  698.96   33.25
  -3  -3  -6  777.00   39.49
  -3  -3  -5  169.84   16.77
  -3  -3  -5  165.85   17.96
  -3  -3  -4 3278.78   74.00
  -3  -3  -4 3315.75   70.13
  -3  -3  -3 2027.08   53.61
  -3  -3  -3 1863.20   39.34
  -3  -3  -3 1974.83   56.90
  -3  -3  -2   16.91    5.61
  -3  -3  -2   21.51    6.47
  -3  -3  -1 1175.86   39.36
  -3  -3   0  407.45   22.57
  -3  -3   0  382.94   20.36
  -3  -3   1  250.69   18.00
  -3  -3   1  278.15   18.16
  -3  -3   2  148.11   12.99
  -3  -3   2  145.14   15.14
  -3  -3   3 1032.94   44.42
  -3  -3   3  933.73   30.78
  -3  -3   4 1087.12   49.00
  -3  -3   4 1179.04   34.12
  -3  -3   5   15.80    7.21
  -3  -3   5   19.65    4.77
  -3  -3   5   14.96    5.60
  -3  -3   6 1335.84   37.54
  -3  -3   6 1345.05   60.53
  -3  -3   7  438.20   31.65
  -3  -3   7  541.98   40.51
  -3  -3   8   28.46   10.53
  -3  -3   8   24.49    7.54
  -3  -3   9  335.48   29.10
  -3  -3   9  431.77   39.67
  -3  -3  10   90.88   19.78
  -3  -3  10   84.70   15.52
  -3  -3  11   24.09   10.63
  -3  -3  11   34.70   10.82
  -3  -3  12   96.91   18.19
  -3  -3  12  117.07   23.75
  -3  -3  13    5.61    5.32
  -3  -3  13   18.90   10.56
  -3  -3  14   41.06   16.27
  -3  -3  14   51.75   16.31
  -3  -3  15   19.30   12.85
  -3  -2 -16   46.95   11.05
  -3  -2 -16   50.99   15.98
  -3  -2 -15    6.63    5.13
  -3  -2 -15    7.56    7.18
  -3  -2 -14   15.53    6.69
  -3  -2 -14   26.89   12.17
  -3  -2 -13    6.38    5.51
  -3  -2 -13   12.38    9.85
  -3  -2 -12   76.73   19.56
  -3  -2 -12   59.62   10.91
  -3  -2 -11   38.42    8.48
  -3  -2 -11   17.91    3.04
  -3  -2 -11   52.56   15.93
  -3  -2 -10   90.29    6.36
  -3  -2 -10  141.40   15.03
  -3  -2 -10  154.90   25.66
  -3  -2  -9 1210.47   44.99
  -3  -2  -9 1271.63   69.97
  -3  -2  -9 1288.61   42.16
  -3  -2  -8  190.30   17.57
  -3  -2  -8  170.94   25.68
  -3  -2  -7  288.77   20.85
  -3  -2  -7  138.76   21.18
  -3  -2  -6 1869.34   51.40
  -3  -2  -6 1136.18   57.07
  -3  -2  -5  270.71   19.34
  -3  -2  -5  259.80   24.00
  -3  -2  -4  164.75   11.41
  -3  -2  -4  198.81   16.41
  -3  -2  -4  199.37   18.70
  -3  -2  -3  320.45   15.55
  -3  -2  -3  378.10   21.85
  -3  -2  -2   96.56   10.89
  -3  -2  -2  126.45   11.43
  -3  -2  -2  112.74   13.43
  -3  -2  -1    7.09    4.04
  -3  -2  -1    7.56    3.52
  -3  -2  -1    9.11    3.88
  -3  -2   0   11.65    4.83
  -3  -2   0    8.71    3.58
  -3  -2   1 1259.46   38.11
  -3  -2   1 1252.88   41.21
  -3  -2   2  169.63   13.77
  -3  -2   2  162.61   15.74
  -3  -2   3  392.74   26.61
  -3  -2   3  444.25   23.02
  -3  -2   4 1616.57   60.03
  -3  -2   5  506.12   35.80
  -3  -2   5  429.35   26.13
  -3  -2   6  422.31   26.80
  -3  -2   6  488.99   37.12
  -3  -2   7  846.36   50.97
  -3  -2   7  686.89   35.58
  -3  -2   8  138.91   16.86
  -3  -2   8  130.51   21.15
  -3  -2   9  140.61   22.71
  -3  -2   9  123.83   17.13
  -3  -2  10   43.49   14.31
  -3  -2  10   55.43   12.04
  -3  -2  11    8.77    5.41
  -3  -2  11   10.26    8.05
  -3  -2  12   25.70    9.74
  -3  -2  12   26.24   12.77
  -3  -2  13   20.38   12.36
  -3  -2  13   10.44   10.14
  -3  -2  14   46.99   15.76
  -3  -1 -17    1.35    6.07
  -3  -1 -16   -3.21    4.48
  -3  -1 -15    2.14    3.90
  -3  -1 -14  107.16   23.30
  -3  -1 -13   22.21   10.60
  -3  -1 -12  127.38   25.62
  -3  -1 -11  458.64   46.92
  -3  -1 -11  450.53   19.89
  -3  -1 -10   24.23    4.65
  -3  -1 -10   23.47   12.08
  -3  -1  -9  544.46   21.25
  -3  -1  -9  507.38   19.62
  -3  -1  -8 1107.87   68.37
  -3  -1  -8 1052.63   27.69
  -3  -1  -7  144.09   25.40
  -3  -1  -7  103.21    8.51
  -3  -1  -6  433.06   40.50
  -3  -1  -6  314.74   14.63
  -3  -1  -5  496.31   41.53
  -3  -1  -5  424.47   18.05
  -3  -1  -4   14.28    7.41
  -3  -1  -4   29.58    5.79
  -3  -1  -3  178.22   19.64
  -3  -1  -3  150.29   18.80
  -3  -1  -3  164.11   15.77
  -3  -1  -2  817.17   36.83
  -3  -1  -2  703.83   31.73
  -3  -1  -1  815.02   35.08
  -3  -1  -1  955.31   54.51
  -3  -1   0  196.68   16.98
  -3  -1   0  297.64   31.72
  -3  -1   1 2008.51   53.97
  -3  -1   1 1963.64   51.70
  -3  -1   2 1922.40   55.48
  -3  -1   3  101.21   14.01
  -3  -1   4  587.15   35.49
  -3  -1   5  780.39   30.27
  -3  -1   5  888.59   47.17
  -3  -1   6   15.60    4.68
  -3  -1   6   20.32    7.95
  -3  -1   7  325.47   32.00
  -3  -1   7  311.79   21.45
  -3  -1   8    0.59    2.27
  -3  -1   8    2.36    5.09
  -3  -1   9   28.85    7.84
  -3  -1   9   29.63   10.78
  -3  -1  10  340.09   29.32
  -3  -1  10  313.26   36.11
  -3  -1  11  240.79   28.19
  -3  -1  11  188.05   28.99
  -3  -1  12  132.54   25.05
  -3  -1  12  192.28   29.11
  -3  -1  13   23.24   12.19
  -3  -1  14   55.27   19.66
  -3   0 -17    7.14    7.60
  -3   0 -16   -1.40    6.28
  -3   0 -15  -38.00   15.96
  -3   0 -14   28.54   12.00
  -3   0 -13  109.00   23.54
  -3   0 -12   -6.65   11.49
  -3   0 -12   14.39    4.87
  -3   0 -11   74.71   17.54
  -3   0 -11  180.28   15.64
  -3   0 -10  461.50   24.80
  -3   0 -10  221.88   29.74
  -3   0  -9    4.00    1.95
  -3   0  -9    3.85    1.80
  -3   0  -8   19.36    4.20
  -3   0  -8    7.51    6.36
  -3   0  -7    3.63    2.45
  -3   0  -7    4.20    4.66
  -3   0  -6   36.21    8.17
  -3   0  -6   31.56   11.67
  -3   0  -5   20.80    6.66
  -3   0  -5   20.40   10.44
  -3   0  -4 1509.90   77.20
  -3   0  -4 1605.83   53.92
  -3   0  -3 1945.54   85.29
  -3   0  -3 1786.36   77.78
  -3   0  -3 1965.86   60.90
  -3   0  -2   11.12    8.97
  -3   0  -2   15.65    6.59
  -3   0  -2    3.60    4.52
  -3   0  -1 3276.35   85.82
  -3   0  -1 4309.26  124.39
  -3   0   0 1882.32   67.23
  -3   0   0 2157.26   67.67
  -3   0   1   13.33    5.09
  -3   0   1    9.67    3.94
  -3   0   2 1973.00   50.50
  -3   0   2 1985.07   58.74
  -3   0   3 1190.02   46.86
  -3   0   3 1282.89   40.85
  -3   0   4   34.72    8.49
  -3   0   5  114.75   17.38
  -3   0   5  110.40    8.89
  -3   0   6    2.16    1.60
  -3   0   6   -0.75    1.98
  -3   0   7  106.95   11.29
  -3   0   7   87.73   16.73
  -3   0   8    8.79    5.82
  -3   0   8   18.67    5.92
  -3   0   9  339.36   30.38
  -3   0   9  257.46   31.40
  -3   0  10  170.01   27.65
  -3   0  10  274.84   34.34
  -3   0  11    1.71    2.88
  -3   0  11    5.22    7.07
  -3   0  12  193.69   30.41
  -3   0  13  107.69   24.22
  -3   0  14   24.47   12.41
  -3   1 -15  -13.22   13.40
  -3   1 -14  -31.97   13.80
  -3   1 -13   50.01   15.00
  -3   1 -12   71.27   18.67
  -3   1 -12   74.79   12.28
  -3   1 -11   21.42   10.08
  -3   1 -11   27.72    7.48
  -3   1 -10   -4.17    4.10
  -3   1 -10   -4.76    5.96
  -3   1  -9    9.41    5.82
  -3   1  -8    5.13    4.42
  -3   1  -7   85.94   16.56
  -3   1  -7   67.37    8.27
  -3   1  -6  960.84   53.79
  -3   1  -6  993.95   35.21
  -3   1  -5   85.96   15.86
  -3   1  -5   92.36   10.88
  -3   1  -4   67.95   14.56
  -3   1  -4   63.01    9.81
  -3   1  -3 1004.44   60.59
  -3   1  -3  806.42   37.69
  -3   1  -2 1123.70   45.93
  -3   1  -2 1284.77   68.93
  -3   1  -1   66.01   11.47
  -3   1  -1   41.61   10.26
  -3   1   0  276.71   22.98
  -3   1   0  267.44   26.54
  -3   1   1  395.47   24.05
  -3   1   1  385.41   27.55
  -3   1   2   17.11    4.45
  -3   1   2   17.20    6.38
  -3   1   2   15.81    5.04
  -3   1   3   62.00    9.04
  -3   1   3   57.14   10.80
  -3   1   3   52.62    4.94
  -3   1   4  377.32   28.23
  -3   1   4  421.16   22.57
  -3   1   5   54.09   11.80
  -3   1   6    4.46    4.58
  -3   1   7  788.22   49.91
  -3   1   8  294.97   32.35
  -3   1   9  108.35   19.85
  -3   1  10  178.40   27.16
  -3   1  11  171.56   28.14
  -3   1  12   27.32   12.33
  -3   1  13   58.74   17.77
  -3   1  14   15.46   10.74
  -3   2 -14  -16.42   10.75
  -3   2 -13    6.75    4.81
  -3   2 -12    3.18    6.96
  -3   2 -11   52.56   16.27
  -3   2 -10   61.68   17.82
  -3   2  -9   42.55   13.78
  -3   2  -8  821.99   55.04
  -3   2  -7  100.06   18.92
  -3   2  -6  104.11   19.13
  -3   2  -5 1129.44   40.40
  -3   2  -5 1089.46   57.62
  -3   2  -4  249.20   20.19
  -3   2  -4  197.48   23.84
  -3   2  -3  331.59   24.72
  -3   2  -3  249.69   26.46
  -3   2  -2  266.36   23.04
  -3   2  -2  118.97   19.91
  -3   2  -1   24.01    8.86
  -3   2  -1   35.13    9.12
  -3   2   0   51.53   15.26
  -3   2   0   53.37    9.73
  -3   2   1    8.52    5.46
  -3   2   1   50.64   15.36
  -3   2   2  419.57   19.71
  -3   2   2  401.23   29.36
  -3   2   3   49.41   10.85
  -3   2   3   57.84    9.61
  -3   2   4  372.84   22.00
  -3   2   4  273.70   25.36
  -3   2   5  953.77   48.52
  -3   2   6  136.92   19.69
  -3   2   7  280.02   29.98
  -3   2   8  695.16   49.50
  -3   2   9   24.04    9.94
  -3   2  10   53.99   15.09
  -3   2  11   81.30   19.50
  -3   2  12    7.90    6.36
  -3   2  13   20.50   11.14
  -3   2  14    1.34    6.00
  -3   3 -12    3.43    7.43
  -3   3 -11   81.30   20.46
  -3   3 -10   60.83   18.27
  -3   3  -9   28.65   13.24
  -3   3  -8  224.30   30.84
  -3   3  -7  178.92   26.85
  -3   3  -6   48.35   14.83
  -3   3  -5  136.22   21.44
  -3   3  -4   92.59   14.22
  -3   3  -4   94.19   17.48
  -3   3  -3    5.29    5.87
  -3   3  -3   -2.39    3.51
  -3   3  -2    2.23    2.27
  -3   3  -2    9.41    4.43
  -3   3  -1   38.87   10.46
  -3   3  -1   63.92   12.55
  -3   3   0  404.24   30.44
  -3   3   0  327.35   28.16
  -3   3   1    2.64    2.84
  -3   3   1   12.67    8.71
  -3   3   2  362.98   29.83
  -3   3   2  398.03   34.66
  -3   3   3  531.23   36.57
  -3   3   3  235.85   23.30
  -3   3   4  200.48   22.15
  -3   3   4  269.28   20.77
  -3   3   5  200.52   23.63
  -3   3   5  266.70   17.59
  -3   3   6  237.70   26.31
  -3   3   7   54.53   13.44
  -3   3   8   18.67    8.97
  -3   3   9   69.31   17.52
  -3   3  10   58.36   15.91
  -3   3  11    1.35    3.74
  -3   3  12    0.75    3.60
  -3   3  13   50.36   16.29
  -3   3  14   17.77    9.73
  -3   4 -10  191.32   32.24
  -3   4  -9   35.00   14.54
  -3   4  -8   23.82   11.94
  -3   4  -7  109.54   22.28
  -3   4  -6   -2.96    5.18
  -3   4  -6   16.20    9.54
  -3   4  -5   47.30   13.87
  -3   4  -5   31.46   10.07
  -3   4  -4    5.71    4.39
  -3   4  -4   23.20   10.09
  -3   4  -3   39.76   11.90
  -3   4  -3   51.89   12.02
  -3   4  -2  194.95   24.47
  -3   4  -2  238.03   26.46
  -3   4  -1   -3.60    2.07
  -3   4  -1   -0.41    4.49
  -3   4   0  546.57   40.04
  -3   4   0  283.02   28.96
  -3   4   1  297.15   30.68
  -3   4   1  274.08   28.41
  -3   4   2   48.57   12.36
  -3   4   2   51.91   14.14
  -3   4   2   33.14   10.79
  -3   4   3  368.60   33.54
  -3   4   3  308.79   29.97
  -3   4   3  295.16   30.40
  -3   4   4  147.10   20.21
  -3   4   4   66.49   11.42
  -3   4   5   85.37   15.91
  -3   4   5  133.96   14.75
  -3   4   6   57.58   14.01
  -3   4   7    1.25    4.33
  -3   4   8   49.38   14.24
  -3   4   9    7.69    6.43
  -3   4  10   34.97   13.18
  -3   4  11   56.74   16.47
  -3   4  12    1.07    4.41
  -3   4  13   42.06   15.02
  -3   4  14   29.42   13.49
  -3   5  -9   17.97   11.51
  -3   5  -8   16.59   12.29
  -3   5  -7   31.36   13.43
  -3   5  -7   11.82    5.59
  -3   5  -6   22.85   11.36
  -3   5  -6   10.85    7.02
  -3   5  -5   29.34   12.17
  -3   5  -5   15.90    8.06
  -3   5  -4  114.54   21.65
  -3   5  -4  114.04   20.00
  -3   5  -3  100.41   19.25
  -3   5  -3  103.71   19.47
  -3   5  -2  109.21   19.55
  -3   5  -2  146.25   23.18
  -3   5  -1   79.01   16.15
  -3   5  -1  108.21   19.52
  -3   5   0   -1.31    5.56
  -3   5   0   11.98    8.34
  -3   5   1  222.70   28.76
  -3   5   1  184.97   25.97
  -3   5   2   70.57   16.39
  -3   5   2   78.51   16.28
  -3   5   2   61.52   15.26
  -3   5   3   15.80    6.94
  -3   5   3   11.72    7.76
  -3   5   4    3.64    5.97
  -3   5   4   -3.79    5.87
  -3   5   5    1.39    4.06
  -3   5   6   72.07   15.67
  -3   5   7   15.62    7.92
  -3   5   8   86.88   18.66
  -3   5   9   51.86   15.47
  -3   5  10    3.45    4.13
  -3   5  11   38.60   14.04
  -3   5  12    5.62    5.87
  -3   5  13   -4.26    7.33
  -3   6  -6   25.83   12.91
  -3   6  -6    7.90    4.71
  -3   6  -5   27.06   10.65
  -3   6  -5   54.39   17.36
  -3   6  -4   84.31   18.65
  -3   6  -4   86.73   19.60
  -3   6  -3   20.47    9.42
  -3   6  -3   34.47   13.03
  -3   6  -2   83.72   17.93
  -3   6  -2   65.54   15.98
  -3   6  -1   48.14   14.22
  -3   6  -1   21.83    9.42
  -3   6   0   -5.57    7.93
  -3   6   0  -10.17    8.81
  -3   6   0   -0.03    6.10
  -3   6   1   -1.29    3.17
  -3   6   1   -1.07    6.08
  -3   6   2   23.81   10.99
  -3   6   2    8.65    5.67
  -3   6   2   29.08   12.62
  -3   6   3   37.15   12.78
  -3   6   3   43.46   13.49
  -3   6   4    5.69    5.87
  -3   6   4    3.89    6.93
  -3   6   5    8.68    5.80
  -3   6   5   -3.45    6.70
  -3   6   6   51.26   14.05
  -3   6   7   12.40    8.77
  -3   6   8   42.30   13.66
  -3   6   9   31.28   13.06
  -3   6  10    2.37    5.93
  -3   6  11   16.06    8.84
  -3   7  -5    5.01    5.80
  -3   7  -4    7.15    7.01
  -3   7  -4    6.12    6.93
  -3   7  -3   29.42   11.63
  -3   7  -3   15.90   10.19
  -3   7  -2    7.62    5.66
  -3   7  -2   -3.78    5.94
  -3   7  -1   -5.95    7.89
  -3   7  -1    1.09    4.89
  -3   7   0    3.84    4.21
  -3   7   1   44.56   13.77
  -3   7   2    6.77    6.35
  -3   7   3   36.84   14.53
  -3   7   4   56.57   17.58
  -2 -10  -9   16.51    9.54
  -2 -10  -8   16.39   10.22
  -2 -10  -5   76.24   19.81
  -2 -10  -4   51.77   16.28
  -2 -10  -3    9.33    7.99
  -2 -10  -2   86.84   21.99
  -2 -10  -1    7.92   10.36
  -2 -10   0   19.13   12.94
  -2  -9 -11   -4.39    4.89
  -2  -9 -11   25.29   11.95
  -2  -9 -10   24.36   11.18
  -2  -9 -10   30.87   10.92
  -2  -9  -9   43.42   12.24
  -2  -9  -9   32.54   12.14
  -2  -9  -8   32.53   11.44
  -2  -9  -8   31.80   14.33
  -2  -9  -7  158.90   29.90
  -2  -9  -7  140.35   21.15
  -2  -9  -6    9.88    7.68
  -2  -9  -6    0.54    5.68
  -2  -9  -5  111.12   24.07
  -2  -9  -4  243.74   32.49
  -2  -9  -4  298.73   39.56
  -2  -9  -3   12.18    8.15
  -2  -9  -3   10.88    4.44
  -2  -9  -2  128.01   28.38
  -2  -9  -2  156.47   28.68
  -2  -9  -1   54.93   16.52
  -2  -9  -1   35.36   12.09
  -2  -9   0   10.11    8.98
  -2  -9   0    5.05    7.70
  -2  -9   1   52.02   17.25
  -2  -9   1   35.97   12.61
  -2  -9   2  -15.34    9.38
  -2  -9   2    4.74    5.09
  -2  -9   3   78.91   20.44
  -2  -9   3   61.06   17.53
  -2  -9   4   -1.79    4.66
  -2  -9   4   11.81    9.40
  -2  -8 -13   42.55   12.27
  -2  -8 -12   32.58   11.87
  -2  -8 -12   16.14    4.28
  -2  -8 -11   15.71   10.56
  -2  -8 -11   10.37    7.77
  -2  -8 -10  151.96   22.14
  -2  -8 -10  152.66   26.55
  -2  -8  -9  171.61   22.71
  -2  -8  -9  175.57   27.45
  -2  -8  -8    7.38    6.69
  -2  -8  -8   10.73    7.02
  -2  -8  -7  346.65   39.32
  -2  -8  -7  309.55   28.21
  -2  -8  -6  242.73   33.25
  -2  -8  -6  223.13   23.51
  -2  -8  -5    3.21    6.75
  -2  -8  -5    7.68    6.03
  -2  -8  -4  277.26   34.16
  -2  -8  -3   52.96   13.74
  -2  -8  -2   89.01   20.04
  -2  -8  -2   66.01   16.18
  -2  -8  -1   80.83   17.86
  -2  -8  -1   81.61   18.49
  -2  -8   0   74.41   18.00
  -2  -8   0   71.91   16.05
  -2  -8   1  234.78   31.13
  -2  -8   1  223.99   30.17
  -2  -8   2   15.48   11.44
  -2  -8   2   13.61    7.57
  -2  -8   3  222.01   30.22
  -2  -8   3  243.10   33.84
  -2  -8   4  152.80   27.59
  -2  -8   4  146.24   24.56
  -2  -8   5    5.88    6.21
  -2  -8   5   -2.88    5.56
  -2  -8   6  123.19   25.30
  -2  -8   7   21.60   11.04
  -2  -7 -14   65.94   15.79
  -2  -7 -13    3.69    4.25
  -2  -7 -13   -2.20    3.75
  -2  -7 -12  148.83   21.81
  -2  -7 -12  149.50   23.46
  -2  -7 -11  138.69   21.66
  -2  -7 -11  140.52   21.69
  -2  -7 -10   58.37   13.45
  -2  -7 -10   69.46   15.81
  -2  -7  -9  282.13   28.35
  -2  -7  -9  291.16   31.17
  -2  -7  -8   67.16   12.85
  -2  -7  -8   63.84   15.87
  -2  -7  -7   21.84    7.96
  -2  -7  -7   20.54    8.94
  -2  -7  -6  344.42   26.89
  -2  -7  -6  386.77   37.23
  -2  -7  -5   77.40   15.80
  -2  -7  -5   66.69   12.19
  -2  -7  -4   21.88    7.27
  -2  -7  -4   20.75    7.25
  -2  -7  -3   13.91    7.05
  -2  -7  -2  221.61   27.31
  -2  -7  -1  570.16   44.71
  -2  -7   0  143.08   22.46
  -2  -7   0  159.25   23.52
  -2  -7   1  328.98   36.12
  -2  -7   1  317.81   33.06
  -2  -7   2  490.21   43.53
  -2  -7   2  461.60   38.94
  -2  -7   3  112.12   21.00
  -2  -7   3  112.99   19.55
  -2  -7   4  381.60   34.99
  -2  -7   4  387.77   40.13
  -2  -7   5   39.20   11.37
  -2  -7   5   48.49   15.00
  -2  -7   6   39.08   11.20
  -2  -7   6   48.12   15.20
  -2  -7   7   74.48   18.58
  -2  -7   8    2.93    6.81
  -2  -7   9   34.28   13.01
  -2  -6 -15   71.25   16.72
  -2  -6 -14  109.29   21.11
  -2  -6 -13   25.95   10.08
  -2  -6 -13   38.58   10.51
  -2  -6 -12  122.32   19.84
  -2  -6 -12  103.50   17.39
  -2  -6 -11  402.96   33.12
  -2  -6 -11  445.63   36.56
  -2  -6 -10    1.48    3.19
  -2  -6 -10    9.81    5.24
  -2  -6  -9   90.68   18.85
  -2  -6  -9  138.87   19.83
  -2  -6  -8  145.71   18.56
  -2  -6  -8  137.37   18.97
  -2  -6  -7   57.39   12.04
  -2  -6  -7   48.39   11.31
  -2  -6  -6  159.84   17.12
  -2  -6  -6  188.42   14.35
  -2  -6  -6  165.34   21.67
  -2  -6  -5   40.08    8.26
  -2  -6  -5   23.97    3.63
  -2  -6  -5   49.32   11.33
  -2  -6  -4  761.76   33.84
  -2  -6  -4  747.63   46.08
  -2  -6  -3   94.58   12.24
  -2  -6  -3   95.91   16.31
  -2  -6  -2  228.21   24.98
  -2  -6  -1  765.15   30.62
  -2  -6  -1  842.25   47.96
  -2  -6   0  211.44   13.76
  -2  -6   0  223.52   24.78
  -2  -6   1  517.93   40.09
  -2  -6   1  492.76   36.49
  -2  -6   1  441.62   15.88
  -2  -6   2  334.34   33.51
  -2  -6   2  283.86   27.67
  -2  -6   3   80.48   16.80
  -2  -6   3   71.00   13.99
  -2  -6   4  454.57   41.15
  -2  -6   4  439.05   34.46
  -2  -6   5   13.97    8.91
  -2  -6   5   11.77    5.68
  -2  -6   6   66.83   13.11
  -2  -6   6   95.67   19.66
  -2  -6   7  141.91   23.96
  -2  -6   7  163.37   19.61
  -2  -6   8   25.00    8.94
  -2  -6   9  175.29   28.01
  -2  -6  10   35.68   13.21
  -2  -6  11   21.06   10.87
  -2  -5 -16  126.40   22.62
  -2  -5 -15   -2.59    4.98
  -2  -5 -14  146.64   22.74
  -2  -5 -13  165.19   19.76
  -2  -5 -13  170.72   23.20
  -2  -5 -12   21.83    7.83
  -2  -5 -12   32.70    8.60
  -2  -5 -11   56.12   11.83
  -2  -5 -11   47.86   11.53
  -2  -5 -10  180.19   20.35
  -2  -5 -10  177.83   20.84
  -2  -5  -9  260.05   24.16
  -2  -5  -9  258.19   23.48
  -2  -5  -9  212.97   17.40
  -2  -5  -8   68.47   13.03
  -2  -5  -8   70.06   12.92
  -2  -5  -8   59.16    8.24
  -2  -5  -7  248.95   22.01
  -2  -5  -7  267.93   22.79
  -2  -5  -7  224.36   14.93
  -2  -5  -7  208.66   21.23
  -2  -5  -6  567.81   24.14
  -2  -5  -6  694.72   32.42
  -2  -5  -6  632.00   32.81
  -2  -5  -6  611.54   35.77
  -2  -5  -5  112.92   10.58
  -2  -5  -5  139.06   17.30
  -2  -5  -5  138.15   14.09
  -2  -5  -5  150.83   12.57
  -2  -5  -4 2099.08   35.74
  -2  -5  -4 2038.98   67.64
  -2  -5  -4 1920.85   50.21
  -2  -5  -3 2143.88   49.93
  -2  -5  -3 2209.51   70.24
  -2  -5  -2    5.56    3.20
  -2  -5  -2    1.66    1.85
  -2  -5  -1 1858.21   63.90
  -2  -5  -1 1758.40   41.85
  -2  -5   0 1307.07   54.37
  -2  -5   0 1194.46   28.96
  -2  -5   1   15.72    3.92
  -2  -5   1   31.76   11.03
  -2  -5   2  549.71   39.17
  -2  -5   2  436.78   26.59
  -2  -5   2  528.60   34.15
  -2  -5   3   10.05    7.67
  -2  -5   3   37.69   11.96
  -2  -5   3   12.84    9.96
  -2  -5   4  304.81   30.73
  -2  -5   4  223.94   21.86
  -2  -5   4  238.54   26.49
  -2  -5   5   82.47   13.05
  -2  -5   5   86.58   13.49
  -2  -5   5   83.17   17.17
  -2  -5   6  135.40   21.28
  -2  -5   6  149.56   16.87
  -2  -5   7  502.21   41.35
  -2  -5   7  510.10   29.79
  -2  -5   8   17.78    9.01
  -2  -5   9  170.31   25.13
  -2  -5  10  186.88   27.47
  -2  -5  11    4.15    5.13
  -2  -5  12   75.35   18.24
  -2  -5  13   23.66   12.35
  -2  -4 -17   12.81    6.48
  -2  -4 -17    4.24    4.75
  -2  -4 -16   73.80   17.10
  -2  -4 -15   52.11   13.59
  -2  -4 -14   -0.07    4.17
  -2  -4 -13   83.09   15.58
  -2  -4 -13   71.31   11.46
  -2  -4 -12   20.38    6.28
  -2  -4 -12   19.98    7.90
  -2  -4 -12   12.71    4.61
  -2  -4 -11   -1.43    5.24
  -2  -4 -11    5.66    4.03
  -2  -4 -11    5.50    3.54
  -2  -4 -10  102.15   15.54
  -2  -4 -10  102.23   14.05
  -2  -4 -10  118.98   13.59
  -2  -4  -9  420.36   27.84
  -2  -4  -9  455.82   25.71
  -2  -4  -9  465.04   30.85
  -2  -4  -8  708.72   35.82
  -2  -4  -8  742.71   37.81
  -2  -4  -8  753.05   33.82
  -2  -4  -7  380.28   17.43
  -2  -4  -7  363.14   24.87
  -2  -4  -7  309.37   21.68
  -2  -4  -7  324.91   23.80
  -2  -4  -7  360.33   26.47
  -2  -4  -6 1616.24   49.17
  -2  -4  -6 1431.64   49.20
  -2  -4  -6 1498.40   30.95
  -2  -4  -6 1566.75   50.38
  -2  -4  -5 1386.03   48.51
  -2  -4  -5 1536.63   43.96
  -2  -4  -5 1467.11   43.36
  -2  -4  -5 1422.70   30.17
  -2  -4  -4   64.00    7.66
  -2  -4  -4   57.74    6.28
  -2  -4  -4   63.71    8.73
  -2  -4  -4   63.09   10.68
  -2  -4  -3 2132.37   41.36
  -2  -4  -3 2170.68   45.63
  -2  -4  -3 2135.30   59.15
  -2  -4  -3 2271.80   52.92
  -2  -4  -2   97.53    9.47
  -2  -4  -2  110.03   10.42
  -2  -4  -2  104.75   13.34
  -2  -4  -1    5.48    2.82
  -2  -4  -1    4.36    3.52
  -2  -4  -1    5.73    2.33
  -2  -4   0  522.32   14.39
  -2  -4   0  508.17   16.18
  -2  -4   0  525.62   29.66
  -2  -4   1  385.86   25.32
  -2  -4   1  377.86   18.78
  -2  -4   1  414.69   17.01
  -2  -4   1  451.78   12.87
  -2  -4   2  534.84   26.20
  -2  -4   2  516.68   22.89
  -2  -4   2  500.61   28.68
  -2  -4   3   21.83    5.79
  -2  -4   3   34.72   10.95
  -2  -4   3   20.70    7.82
  -2  -4   3   12.24    7.04
  -2  -4   4  546.06   36.70
  -2  -4   4  483.80   37.89
  -2  -4   4  543.99   28.67
  -2  -4   4  590.00   30.48
  -2  -4   5  838.29   46.63
  -2  -4   5  885.14   31.46
  -2  -4   5  910.22   41.52
  -2  -4   5  866.66   35.11
  -2  -4   6   56.41   12.67
  -2  -4   6   59.05    7.01
  -2  -4   6   57.67    8.67
  -2  -4   6   72.79   13.17
  -2  -4   7  384.17   33.09
  -2  -4   7  408.30   32.38
  -2  -4   7  312.64   16.72
  -2  -4   7  368.94   20.55
  -2  -4   8  306.24   30.72
  -2  -4   8  305.15   16.80
  -2  -4   9   17.13    8.46
  -2  -4  10  234.67   27.98
  -2  -4  11   28.52   10.08
  -2  -4  12   35.05   12.92
  -2  -4  13   35.48   11.38
  -2  -4  14   14.70    8.63
  -2  -3 -18   27.64    9.78
  -2  -3 -17   13.44    6.70
  -2  -3 -16   21.33    8.90
  -2  -3 -15    6.71    4.95
  -2  -3 -14   81.86   15.46
  -2  -3 -13   14.19    6.16
  -2  -3 -13   82.62   14.14
  -2  -3 -12    4.86    3.20
  -2  -3 -12    4.75    4.70
  -2  -3 -12   10.81    3.82
  -2  -3 -11 1158.69   41.54
  -2  -3 -11 1241.94   52.05
  -2  -3 -10  521.39   35.72
  -2  -3 -10  559.73   29.22
  -2  -3 -10  578.09   33.86
  -2  -3  -9  311.08   23.86
  -2  -3  -9  329.01   22.54
  -2  -3  -9  333.66   25.06
  -2  -3  -8 1656.47   52.44
  -2  -3  -8 1703.34   50.89
  -2  -3  -7 1052.87   37.53
  -2  -3  -7 1058.83   39.75
  -2  -3  -7 1042.37   39.30
  -2  -3  -6  458.21   14.55
  -2  -3  -6  458.82   25.51
  -2  -3  -6  430.49   23.53
  -2  -3  -6  443.39   24.25
  -2  -3  -6  409.45   25.18
  -2  -3  -5 1089.23   18.65
  -2  -3  -5 1139.92   34.91
  -2  -3  -5 1101.38   36.44
  -2  -3  -5 1223.46   41.78
  -2  -3  -5 1196.78   38.06
  -2  -3  -4   18.21    4.60
  -2  -3  -4   15.05    4.26
  -2  -3  -4   17.30    4.94
  -2  -3  -4   11.64    4.52
  -2  -3  -4   13.98    2.40
  -2  -3  -3  391.10   23.36
  -2  -3  -3  400.04   19.72
  -2  -3  -3  418.55   18.57
  -2  -3  -2  124.43    9.18
  -2  -3  -2  153.61   14.22
  -2  -3  -2  141.11   10.23
  -2  -3  -1  592.85   21.96
  -2  -3  -1  552.53   17.23
  -2  -3  -1  610.82   28.16
  -2  -3   0  767.07   31.10
  -2  -3   0  735.76   21.51
  -2  -3   0  781.26   18.58
  -2  -3   1  984.24   30.49
  -2  -3   1  913.93   28.14
  -2  -3   1  902.91   33.29
  -2  -3   2 4633.05   71.67
  -2  -3   2 4673.97   73.93
  -2  -3   2 4706.39  100.39
  -2  -3   3  350.70   22.15
  -2  -3   3  345.05   25.13
  -2  -3   3  363.25   19.84
  -2  -3   4  577.02   30.73
  -2  -3   4  641.61   25.43
  -2  -3   4  621.94   35.10
  -2  -3   5 3820.98   57.08
  -2  -3   5 3754.36   88.99
  -2  -3   5 3913.73   63.21
  -2  -3   5 3808.22   84.37
  -2  -3   6  259.18   23.85
  -2  -3   6  274.27   24.58
  -2  -3   6  255.84   13.57
  -2  -3   6  252.00   15.56
  -2  -3   7  273.68   25.42
  -2  -3   7  304.94   27.86
  -2  -3   7  266.33   16.67
  -2  -3   7  288.04   13.20
  -2  -3   8  197.28   15.50
  -2  -3   8  264.76   12.17
  -2  -3   8  229.01   23.88
  -2  -3   8  246.71   26.92
  -2  -3   9   13.39    7.22
  -2  -3   9   14.15    6.74
  -2  -3  10  140.02   20.45
  -2  -3  10  138.55   21.98
  -2  -3  11    8.37    7.67
  -2  -3  11    3.60    4.97
  -2  -3  12   87.13   18.05
  -2  -3  13   70.35   16.16
  -2  -3  14   24.61   13.19
  -2  -3  15   82.04   21.67
  -2  -3  16   25.60   14.41
  -2  -2 -17    5.11    5.58
  -2  -2 -16   30.46    9.74
  -2  -2 -15   19.08    7.73
  -2  -2 -15   24.20   11.13
  -2  -2 -14  130.89   17.99
  -2  -2 -14  164.72   28.28
  -2  -2 -13  118.59   16.46
  -2  -2 -13  121.08   24.06
  -2  -2 -12  106.33   10.66
  -2  -2 -12  131.59   16.89
  -2  -2 -11  475.71   30.39
  -2  -2 -11  406.99   19.69
  -2  -2 -11  464.03   45.51
  -2  -2 -11  381.56   22.43
  -2  -2 -10  826.23   38.36
  -2  -2 -10  735.19   30.00
  -2  -2 -10  747.89   24.87
  -2  -2  -9  198.49   11.91
  -2  -2  -9  190.14   15.75
  -2  -2  -9  209.81   19.01
  -2  -2  -8  422.69   15.18
  -2  -2  -8  431.87   24.75
  -2  -2  -8  400.14   21.53
  -2  -2  -7  693.82   29.48
  -2  -2  -7  660.50   26.94
  -2  -2  -7  644.50   15.91
  -2  -2  -6    7.36    1.33
  -2  -2  -6   12.15    4.18
  -2  -2  -6    8.51    6.19
  -2  -2  -6   17.54    8.48
  -2  -2  -6   10.99    4.03
  -2  -2  -5   61.63   10.08
  -2  -2  -5   43.61    6.85
  -2  -2  -5   57.36    8.28
  -2  -2  -5   49.57    6.92
  -2  -2  -5   49.70    9.83
  -2  -2  -4  322.83   18.56
  -2  -2  -4  307.98   16.79
  -2  -2  -4  294.40   14.88
  -2  -2  -4  304.32   17.95
  -2  -2  -3 1023.72   32.24
  -2  -2  -3  929.51   25.86
  -2  -2  -3  972.87   32.48
  -2  -2  -2  290.40   17.19
  -2  -2  -2  324.70   17.81
  -2  -2  -2  292.30   13.02
  -2  -2  -1 3359.49   55.43
  -2  -2  -1 3401.07   62.19
  -2  -2   0 3103.80   45.69
  -2  -2   0 3142.58   51.53
  -2  -2   1 2593.09   74.19
  -2  -2   1 2621.13   48.91
  -2  -2   1 2664.61   45.67
  -2  -2   2  332.91   20.07
  -2  -2   2  330.03   15.17
  -2  -2   3 3207.42   45.05
  -2  -2   3 3425.67   71.49
  -2  -2   4  156.10    9.41
  -2  -2   4  202.70   15.17
  -2  -2   4  157.82   15.84
  -2  -2   4  163.01   16.85
  -2  -2   5   -0.49    2.49
  -2  -2   5    2.00    1.91
  -2  -2   5    1.35    2.65
  -2  -2   5    1.29    1.84
  -2  -2   6  327.38   24.12
  -2  -2   6  340.34   27.90
  -2  -2   6  319.78   19.11
  -2  -2   7  125.50   15.81
  -2  -2   7  109.59   17.30
  -2  -2   7  120.63   12.62
  -2  -2   8  262.99   23.63
  -2  -2   8  280.61   27.60
  -2  -2   9   91.77   14.98
  -2  -2   9  131.12   20.32
  -2  -2  10  175.27   21.65
  -2  -2  10  177.01   25.52
  -2  -2  11   90.21   16.66
  -2  -2  11  110.08   20.97
  -2  -2  12   83.28   17.48
  -2  -2  12   92.81   19.67
  -2  -2  13  271.58   33.45
  -2  -2  13  257.17   33.74
  -2  -2  14   22.68   12.74
  -2  -2  15   40.07   18.08
  -2  -2  16   53.67   20.73
  -2  -1 -16   71.58   19.42
  -2  -1 -15   30.48   12.52
  -2  -1 -15  108.26   15.32
  -2  -1 -14   10.20    6.37
  -2  -1 -14   -8.84    9.26
  -2  -1 -13  158.31   25.46
  -2  -1 -13  211.66   16.66
  -2  -1 -12  264.01   17.90
  -2  -1 -12  287.55   22.63
  -2  -1 -11    0.50    1.49
  -2  -1 -11    9.48    4.47
  -2  -1 -11   -6.63    8.00
  -2  -1 -10  183.62   16.46
  -2  -1 -10  181.67   13.29
  -2  -1  -9   66.88    9.48
  -2  -1  -9   67.49    7.41
  -2  -1  -8   46.50    7.54
  -2  -1  -8   37.09    4.98
  -2  -1  -7  192.42    9.58
  -2  -1  -7  205.58   14.21
  -2  -1  -6 1523.49   23.18
  -2  -1  -6 1581.01   36.29
  -2  -1  -5 1451.46   32.05
  -2  -1  -5 1418.19   80.13
  -2  -1  -5 1499.91   40.16
  -2  -1  -5 1476.86   35.86
  -2  -1  -5 1407.01   20.24
  -2  -1  -4   58.90   15.04
  -2  -1  -4   77.38    8.82
  -2  -1  -4   75.61   15.01
  -2  -1  -4   79.51    7.94
  -2  -1  -3 2413.05   66.98
  -2  -1  -3 2498.03   48.19
  -2  -1  -3 2497.81   40.63
  -2  -1  -3 2398.84   63.95
  -2  -1  -2 9999.00   75.74
  -2  -1  -2 9805.35   93.05
  -2  -1  -1 1523.16   37.28
  -2  -1  -1 1532.68   36.14
  -2  -1   0  776.07   26.08
  -2  -1   0  821.06   26.44
  -2  -1   1 3586.48   57.64
  -2  -1   1 3492.27   86.04
  -2  -1   2  171.97   15.77
  -2  -1   2  108.82   11.39
  -2  -1   3 1359.92   44.84
  -2  -1   3 1547.66   43.20
  -2  -1   4    1.84    2.94
  -2  -1   4    3.15    3.54
  -2  -1   4    2.23    3.94
  -2  -1   5  129.80   16.40
  -2  -1   5  135.37   13.18
  -2  -1   5  118.66   11.99
  -2  -1   6   83.37   14.05
  -2  -1   6   88.45   11.08
  -2  -1   6   88.04   10.77
  -2  -1   7  369.63   24.16
  -2  -1   7  386.17   31.98
  -2  -1   8  763.69   47.09
  -2  -1   8  737.68   36.57
  -2  -1   9    2.05    3.69
  -2  -1   9    5.28    6.64
  -2  -1  10  577.26   44.61
  -2  -1  10  598.55   39.07
  -2  -1  11  592.85   43.36
  -2  -1  11  470.44   42.54
  -2  -1  12   15.71   11.24
  -2  -1  12    9.46    7.59
  -2  -1  13  167.14   26.90
  -2  -1  13  185.01   31.87
  -2  -1  14   56.40   20.24
  -2  -1  14   50.49   17.00
  -2  -1  15   18.30   10.79
  -2   0 -17  -18.77   15.68
  -2   0 -16  -22.92   11.30
  -2   0 -15   72.51   17.75
  -2   0 -14   91.43   19.93
  -2   0 -13   38.26    8.46
  -2   0 -13   23.88    6.04
  -2   0 -13   28.11   10.41
  -2   0 -12   56.91    8.81
  -2   0 -12   64.15    9.91
  -2   0 -12   54.91   13.81
  -2   0 -11   11.08    3.70
  -2   0 -11   10.37    5.04
  -2   0 -11   14.96    5.53
  -2   0 -10   87.15   10.04
  -2   0 -10  112.31   11.67
  -2   0 -10   95.89   16.96
  -2   0  -9   19.14    5.04
  -2   0  -9   17.98    4.62
  -2   0  -9   24.09    9.48
  -2   0  -8  480.11   20.34
  -2   0  -8  477.08   20.82
  -2   0  -8  449.48   33.20
  -2   0  -7  274.65   11.47
  -2   0  -7  314.59   27.25
  -2   0  -7  328.96   15.56
  -2   0  -6   41.56   10.40
  -2   0  -6   43.27    4.21
  -2   0  -6   43.95    5.44
  -2   0  -5 2600.21   35.33
  -2   0  -5 2731.85   80.13
  -2   0  -4 1870.36   67.20
  -2   0  -4 2025.06   39.69
  -2   0  -3  476.14   39.67
  -2   0  -3  446.66   27.63
  -2   0  -2 1550.29   71.50
  -2   0  -2 1409.32   67.50
  -2   0  -1 4869.03   98.72
  -2   0  -1 4000.21   81.53
  -2   0   0 3219.25   57.63
  -2   0   0 3284.60   65.63
  -2   0   1   12.29    3.93
  -2   0   1   14.17    3.60
  -2   0   2   31.84    6.33
  -2   0   2   39.38    6.96
  -2   0   2   31.07    5.12
  -2   0   3  362.95   23.32
  -2   0   3  368.36   22.03
  -2   0   4    8.71    4.70
  -2   0   4    7.10    2.12
  -2   0   4    9.94    4.31
  -2   0   5 2115.01   40.26
  -2   0   5 2326.24   70.43
  -2   0   6 1194.99   35.16
  -2   0   6 1165.90   53.11
  -2   0   7    9.79    4.00
  -2   0   7   12.71    5.89
  -2   0   8  971.61   54.31
  -2   0   8 1157.45   47.19
  -2   0   9  897.76   49.35
  -2   0   9  640.08   46.37
  -2   0  10   15.21   10.33
  -2   0  10    7.31    5.13
  -2   0  11  383.19   38.86
  -2   0  11  503.48   52.39
  -2   0  12   23.48   10.19
  -2   0  12   24.89   13.00
  -2   0  13   12.50   11.25
  -2   0  13   34.75   13.49
  -2   0  14   44.50   15.39
  -2   0  15    5.92    8.61
  -2   1 -16    6.16    7.50
  -2   1 -15   10.85    7.53
  -2   1 -14   12.17    9.19
  -2   1 -13   15.19    8.38
  -2   1 -13   13.24    5.55
  -2   1 -12   13.74    5.60
  -2   1 -12   17.64   10.95
  -2   1 -11   25.77   11.44
  -2   1 -11   14.09    5.49
  -2   1 -10  609.54   29.33
  -2   1 -10  585.83   42.77
  -2   1  -9  184.35   22.99
  -2   1  -9  117.49    7.42
  -2   1  -9  118.70    6.91
  -2   1  -9  167.95   14.88
  -2   1  -8  533.43   36.59
  -2   1  -8  569.00   25.63
  -2   1  -7 1156.59   51.02
  -2   1  -7 1187.83   35.30
  -2   1  -7 1106.77   25.22
  -2   1  -6  824.09   24.09
  -2   1  -6  935.41   30.39
  -2   1  -6  890.01   42.88
  -2   1  -5  577.70   25.03
  -2   1  -5  510.10   31.25
  -2   1  -4 1028.84   29.86
  -2   1  -4 1551.12   52.54
  -2   1  -3  228.42   20.16
  -2   1  -3  246.10   23.25
  -2   1  -3  258.41   15.97
  -2   1  -2   22.71    6.71
  -2   1  -2   19.66    6.53
  -2   1  -2   22.69    4.85
  -2   1  -1  603.11   29.80
  -2   1  -1  609.68   26.08
  -2   1   0  137.73   12.30
  -2   1   0  147.89   21.39
  -2   1   0  149.92   13.37
  -2   1   1  209.19   12.36
  -2   1   1  188.86   15.70
  -2   1   1  166.40   16.29
  -2   1   2  352.95   21.66
  -2   1   2  402.75   23.42
  -2   1   2  370.62   16.68
  -2   1   2  382.65   11.70
  -2   1   3 2307.08   58.33
  -2   1   3 2315.15   40.47
  -2   1   4  439.27   27.93
  -2   1   5  443.64   30.91
  -2   1   6 2489.07   46.09
  -2   1   6 2143.48   72.95
  -2   1   7  102.12   17.03
  -2   1   7  132.72   15.73
  -2   1   8  299.78   28.61
  -2   1   8  198.98   24.74
  -2   1   9  387.84   36.73
  -2   1   9  509.84   42.97
  -2   1  10    9.31    7.80
  -2   1  10    4.06    3.98
  -2   1  11   30.12   10.77
  -2   1  11   47.81   16.15
  -2   1  12   48.52   17.33
  -2   1  12   51.68   15.52
  -2   1  13   81.04   19.91
  -2   1  14   44.09   15.48
  -2   1  15    7.40    8.12
  -2   2 -15   32.38   15.19
  -2   2 -14   14.32   10.62
  -2   2 -13   37.77    9.28
  -2   2 -13   64.36   18.66
  -2   2 -12  256.00   32.81
  -2   2 -12  248.41   22.41
  -2   2 -11   24.91   11.66
  -2   2 -11    1.80    2.98
  -2   2 -10  217.20   27.17
  -2   2 -10  200.20   18.89
  -2   2  -9  900.87   38.44
  -2   2  -9  901.79   51.91
  -2   2  -8   67.47   10.72
  -2   2  -8   85.33   16.85
  -2   2  -7  505.26   35.24
  -2   2  -7  425.33   22.23
  -2   2  -7  497.93   27.18
  -2   2  -6  376.18   24.30
  -2   2  -6  324.92   27.08
  -2   2  -6  307.45   19.49
  -2   2  -5   36.07    9.68
  -2   2  -5   33.29    6.80
  -2   2  -4  103.71   14.36
  -2   2  -4  118.32   12.97
  -2   2  -3  230.44   18.25
  -2   2  -3  211.35   19.96
  -2   2  -2  920.75   36.77
  -2   2  -2  832.67   37.21
  -2   2  -2  969.38   43.84
  -2   2  -1    2.66    2.53
  -2   2  -1    7.67    4.94
  -2   2  -1    3.22    3.11
  -2   2   0 1436.00   51.26
  -2   2   0 1482.40   48.45
  -2   2   1 2256.60   61.10
  -2   2   1 2160.25   45.71
  -2   2   2  345.89   22.73
  -2   2   2  365.08   25.50
  -2   2   3  956.69   44.42
  -2   2   3  863.35   37.35
  -2   2   4 2437.21   39.58
  -2   2   4 2049.06   61.63
  -2   2   5   44.99   12.02
  -2   2   6  173.97   20.77
  -2   2   7  433.91   35.55
  -2   2   8   10.25    6.79
  -2   2   9  122.04   20.54
  -2   2  10   68.69   16.61
  -2   2  11   76.36   17.06
  -2   2  12   10.27    6.60
  -2   2  13   81.18   19.74
  -2   2  14  137.72   26.93
  -2   2  15   22.27   12.72
  -2   3 -13   19.03   12.08
  -2   3 -13    0.81    3.08
  -2   3 -12  124.32   24.59
  -2   3 -12   88.51   15.38
  -2   3 -11  129.44   18.25
  -2   3 -11  157.77   26.25
  -2   3 -10    7.94    5.43
  -2   3 -10   35.82   12.73
  -2   3  -9   40.25    9.60
  -2   3  -9   56.95   15.12
  -2   3  -8  171.72   23.66
  -2   3  -8  169.82   20.09
  -2   3  -8  143.99   15.34
  -2   3  -7   23.07    6.57
  -2   3  -7   26.43    7.19
  -2   3  -6   13.27    5.51
  -2   3  -5  126.08   15.06
  -2   3  -4  224.63   19.94
  -2   3  -3  115.42   14.47
  -2   3  -3  108.69   15.73
  -2   3  -2 1454.68   51.58
  -2   3  -2 1283.82   47.82
  -2   3  -1  663.27   33.24
  -2   3  -1  736.23   37.17
  -2   3   0   93.86   12.67
  -2   3   0  100.92   13.56
  -2   3   0   92.17   13.95
  -2   3   1 1770.09   59.35
  -2   3   1 1541.77   52.01
  -2   3   2  618.10   35.87
  -2   3   2  581.44   31.43
  -2   3   3   45.29    9.06
  -2   3   3   45.02   11.38
  -2   3   3   45.65   10.68
  -2   3   4  378.45   27.09
  -2   3   4  435.22   32.94
  -2   3   5  179.49   19.69
  -2   3   5  171.64   10.00
  -2   3   5  202.96   22.27
  -2   3   6   52.76   12.23
  -2   3   7   75.02   14.80
  -2   3   8   56.08   13.14
  -2   3   9  226.72   28.62
  -2   3  10   27.50   10.95
  -2   3  11  327.64   37.23
  -2   3  12  225.23   32.57
  -2   3  13   -0.99    4.86
  -2   3  14   72.81   20.25
  -2   3  15   54.60   19.11
  -2   4 -13    2.06    5.30
  -2   4 -12   60.11   18.59
  -2   4 -12   12.17    7.32
  -2   4 -11   52.55   17.88
  -2   4 -11   38.60   12.57
  -2   4 -10    0.49    3.63
  -2   4 -10   35.24   14.57
  -2   4  -9   36.09   10.04
  -2   4  -9   54.50   16.14
  -2   4  -8   24.51   10.76
  -2   4  -8   -0.12    2.14
  -2   4  -7  156.64   19.00
  -2   4  -6  104.45   15.61
  -2   4  -5   36.53    9.28
  -2   4  -4  772.29   42.03
  -2   4  -3  411.82   30.68
  -2   4  -2   67.33   13.07
  -2   4  -2   80.37   14.30
  -2   4  -1  788.84   42.80
  -2   4  -1  667.63   35.86
  -2   4   0  267.30   22.28
  -2   4   0  296.32   26.20
  -2   4   1   17.97    8.74
  -2   4   1   30.95    7.92
  -2   4   2  134.75   16.41
  -2   4   2  163.14   18.20
  -2   4   2  146.48   19.15
  -2   4   3  155.99   17.71
  -2   4   3  174.40   20.94
  -2   4   4   11.05    6.74
  -2   4   4    4.82    3.10
  -2   4   4   15.22    6.48
  -2   4   5   53.44    7.34
  -2   4   5   28.91    7.94
  -2   4   5   37.38   10.62
  -2   4   6  359.63   31.22
  -2   4   6  324.67   30.67
  -2   4   7  356.17   34.36
  -2   4   7  409.29   35.54
  -2   4   8  156.32   22.82
  -2   4   9  159.31   24.31
  -2   4  10  267.97   33.27
  -2   4  11   21.67   10.72
  -2   4  12  111.29   22.92
  -2   4  13   -1.33    3.79
  -2   4  14   29.51   13.23
  -2   4  15   18.32   11.18
  -2   5 -10   22.31   12.11
  -2   5  -9   95.87   20.91
  -2   5  -8   42.49   15.49
  -2   5  -7   60.16   16.25
  -2   5  -7   29.34    9.26
  -2   5  -6  400.08   33.29
  -2   5  -5   49.92   12.57
  -2   5  -4   47.41   11.80
  -2   5  -3  373.61   32.45
  -2   5  -2   45.42   12.10
  -2   5  -2   38.46   10.89
  -2   5  -1   67.13   14.26
  -2   5  -1   61.62   12.62
  -2   5   0   85.74   14.35
  -2   5   0   77.05   15.56
  -2   5   1   16.88    8.43
  -2   5   1   27.10    9.95
  -2   5   1   25.39    8.82
  -2   5   2  180.42   19.71
  -2   5   2  194.29   21.87
  -2   5   2  211.07   25.68
  -2   5   3    3.40    4.11
  -2   5   3   21.87    7.46
  -2   5   3   10.89    9.12
  -2   5   4  217.97   29.66
  -2   5   4  190.42   21.71
  -2   5   4  213.39   26.18
  -2   5   5  200.20   26.07
  -2   5   5  207.28   23.40
  -2   5   5  125.50   16.17
  -2   5   6  123.79   19.09
  -2   5   6  111.94   19.68
  -2   5   7  161.72   22.87
  -2   5   7  128.01   20.97
  -2   5   8   94.20   18.81
  -2   5   8  123.98   20.86
  -2   5   9  103.56   19.83
  -2   5  10   74.22   17.59
  -2   5  11    5.31    3.73
  -2   5  12    5.91    7.07
  -2   5  13   10.03    7.50
  -2   5  14   11.05   10.47
  -2   6  -8   83.10   19.40
  -2   6  -7   25.34   12.11
  -2   6  -7    5.21    4.24
  -2   6  -6   49.36   13.17
  -2   6  -6  117.66   22.01
  -2   6  -5  104.95   20.82
  -2   6  -5   86.12   17.09
  -2   6  -4   48.01   14.15
  -2   6  -4   28.56   10.62
  -2   6  -3    9.61    7.73
  -2   6  -3   -2.23    4.07
  -2   6  -2   56.94   13.73
  -2   6  -2   31.80    9.38
  -2   6  -1  138.72   19.84
  -2   6  -1  127.86   20.92
  -2   6   0   13.07    7.79
  -2   6   0    9.73    6.61
  -2   6   1   92.56   15.31
  -2   6   1  125.09   18.51
  -2   6   1  114.09   20.49
  -2   6   2   66.04   12.99
  -2   6   2   80.74   14.42
  -2   6   2   78.43   16.89
  -2   6   3   51.93   12.43
  -2   6   3   54.76   15.63
  -2   6   3   25.18    7.55
  -2   6   4  306.07   33.40
  -2   6   4  291.02   27.60
  -2   6   5  141.82   23.32
  -2   6   5  148.08   20.75
  -2   6   6    7.64    5.12
  -2   6   6   12.73    7.89
  -2   6   7   54.15   13.72
  -2   6   7   62.43   16.30
  -2   6   8   68.34   15.04
  -2   6   8   54.99   15.46
  -2   6   9    3.74    3.97
  -2   6  10    4.66    4.08
  -2   6  11    0.56    3.27
  -2   6  12   25.68   11.08
  -2   6  13    2.33    7.53
  -2   6  14    6.31    6.34
  -2   7  -6    6.21    7.33
  -2   7  -6   25.13   11.66
  -2   7  -5   39.57   13.68
  -2   7  -5    4.95    4.25
  -2   7  -4   -6.19    7.64
  -2   7  -4   21.24   11.48
  -2   7  -3   38.73   12.62
  -2   7  -3   46.27   14.15
  -2   7  -2   19.99   10.19
  -2   7  -2    7.02    5.38
  -2   7  -1   71.86   16.13
  -2   7  -1   62.57   16.42
  -2   7   0  100.70   18.08
  -2   7   0   90.71   20.33
  -2   7   1   10.15    7.20
  -2   7   1    4.79    5.09
  -2   7   2  135.44   24.43
  -2   7   3   52.59   15.45
  -2   7   4    4.91    6.60
  -2   7   5   49.92   15.48
  -2   7   6   14.81    8.23
  -2   7   7   17.15   10.37
  -2   7   8   10.63    9.07
  -2   7   9   -0.33    4.07
  -2   8  -3   58.84   16.93
  -2   8  -2   40.53   14.55
  -2   8  -1   23.27   11.55
  -1 -10  -2   10.73    8.72
  -1 -10  -1   45.88   15.86
  -1 -10   0    4.90    6.57
  -1  -9 -10    1.51    4.30
  -1  -9  -9  112.47   26.02
  -1  -9  -9  123.52   21.67
  -1  -9  -8   41.07   13.05
  -1  -9  -8   47.80   16.79
  -1  -9  -7    5.39    8.15
  -1  -9  -7   12.30    7.86
  -1  -9  -6  120.84   19.86
  -1  -9  -6  122.87   25.79
  -1  -9  -5   20.23    9.33
  -1  -9  -4    8.97    5.72
  -1  -9  -3   50.36   13.88
  -1  -9  -2    4.86    6.58
  -1  -9  -1   44.72   13.50
  -1  -9   0   30.48   11.11
  -1  -9   1   28.79   12.20
  -1  -9   2   80.44   19.72
  -1  -9   3   11.13    9.08
  -1  -9   5   20.15   10.19
  -1  -8 -13   81.77   19.13
  -1  -8 -12    3.19    5.16
  -1  -8 -12   12.31    7.26
  -1  -8 -11  120.80   24.66
  -1  -8 -11  108.84   20.45
  -1  -8 -10   44.82   12.88
  -1  -8 -10   62.37   16.90
  -1  -8  -9   15.75    7.67
  -1  -8  -9   23.97   12.00
  -1  -8  -8  131.78   20.67
  -1  -8  -8  152.59   26.13
  -1  -8  -7    4.99    6.29
  -1  -8  -7   10.32    5.94
  -1  -8  -6   95.39   16.55
  -1  -8  -5   33.04    9.94
  -1  -8  -5   29.89    8.20
  -1  -8  -4   23.80    8.52
  -1  -8  -4   11.22    6.34
  -1  -8  -3  161.82   19.49
  -1  -8  -3  147.65   23.38
  -1  -8  -2    5.96    6.97
  -1  -8  -1  421.42   38.99
  -1  -8   0  117.84   21.68
  -1  -8   1   65.18   16.56
  -1  -8   2  284.95   34.35
  -1  -8   3   88.25   19.47
  -1  -8   4   55.02   15.31
  -1  -8   5   61.34   17.39
  -1  -8   6   -8.06    6.55
  -1  -7 -13  100.45   20.78
  -1  -7 -13  138.68   22.04
  -1  -7 -12   10.91    6.57
  -1  -7 -12   15.33    6.51
  -1  -7 -11   55.73   14.84
  -1  -7 -11   60.39   12.91
  -1  -7 -10   95.56   17.25
  -1  -7 -10  112.45   21.85
  -1  -7  -9   -0.17    5.42
  -1  -7  -9   -1.79    3.72
  -1  -7  -8   65.45   14.21
  -1  -7  -8   54.36   15.84
  -1  -7  -7   -1.10    3.15
  -1  -7  -6  101.92   15.67
  -1  -7  -5  188.60   21.05
  -1  -7  -4  136.42   17.00
  -1  -7  -3  414.78   35.47
  -1  -7  -3  410.09   27.81
  -1  -7  -2  286.08   30.10
  -1  -7  -2  293.52   23.25
  -1  -7  -1   86.87   16.44
  -1  -7   0  504.28   40.55
  -1  -7   1   97.90   18.81
  -1  -7   2  102.74   19.06
  -1  -7   3   83.15   18.30
  -1  -7   4   14.74    8.33
  -1  -7   5   83.13   18.71
  -1  -7   6    8.52    7.47
  -1  -7   7  165.56   27.67
  -1  -7   8   18.99   11.37
  -1  -6 -14   -5.91    7.52
  -1  -6 -13   65.30   13.84
  -1  -6 -13   70.95   14.30
  -1  -6 -12   -0.67    5.28
  -1  -6 -12    9.78    6.98
  -1  -6 -11   34.03    8.49
  -1  -6 -11   40.35   12.59
  -1  -6 -10   50.02   11.05
  -1  -6 -10   56.89   13.41
  -1  -6  -9   21.95    6.90
  -1  -6  -9   26.04    9.39
  -1  -6  -8  723.09   43.67
  -1  -6  -8  703.27   47.36
  -1  -6  -7    0.77    3.23
  -1  -6  -7    2.64    4.65
  -1  -6  -6  210.72   20.72
  -1  -6  -5 1396.02   51.87
  -1  -6  -4   20.13    6.66
  -1  -6  -3  619.26   31.33
  -1  -6  -2  495.85   26.35
  -1  -6  -1   18.35    5.75
  -1  -6  -1   17.96    7.42
  -1  -6   0  205.02   24.65
  -1  -6   0  218.77   18.41
  -1  -6   1  121.81   12.31
  -1  -6   1  139.97   20.51
  -1  -6   2  249.25   29.58
  -1  -6   3   20.32    9.07
  -1  -6   4   38.47   11.92
  -1  -6   5  489.23   42.09
  -1  -6   6   23.86   10.00
  -1  -6   7  195.19   28.13
  -1  -6   8  285.04   35.06
  -1  -6   9    9.40    8.18
  -1  -6  10   89.22   20.93
  -1  -5 -17   19.82    9.73
  -1  -5 -16    3.69    5.14
  -1  -5 -15   87.08   18.23
  -1  -5 -14  -10.77   10.42
  -1  -5 -13   39.39   10.97
  -1  -5 -13   32.07    9.14
  -1  -5 -12    5.15    4.92
  -1  -5 -12    1.61    3.22
  -1  -5 -11   91.96   16.78
  -1  -5 -11   86.85   14.69
  -1  -5 -10  434.28   35.36
  -1  -5 -10  376.78   29.96
  -1  -5  -9   28.94    9.25
  -1  -5  -9   23.74   10.82
  -1  -5  -8  477.27   33.24
  -1  -5  -8  428.26   32.78
  -1  -5  -7 1274.18   51.99
  -1  -5  -7 1284.23   51.48
  -1  -5  -7 1139.35   52.73
  -1  -5  -6   32.09    8.33
  -1  -5  -6   52.58    9.16
  -1  -5  -5 1023.96   34.24
  -1  -5  -5  877.06   39.48
  -1  -5  -4  579.83   29.38
  -1  -5  -3  114.90   13.32
  -1  -5  -2  724.84   29.48
  -1  -5  -2  706.30   36.05
  -1  -5  -1  142.06   15.46
  -1  -5  -1  164.08   13.62
  -1  -5   0  687.73   40.33
  -1  -5   0  729.48   29.92
  -1  -5   1   28.03   10.55
  -1  -5   1   36.08    6.14
  -1  -5   2  318.90   29.20
  -1  -5   2  289.96   14.17
  -1  -5   3 1408.83   63.25
  -1  -5   4   34.27   12.07
  -1  -5   4   11.74    6.19
  -1  -5   5  863.64   53.14
  -1  -5   6  423.04   37.63
  -1  -5   7   52.58   14.88
  -1  -5   8  357.30   26.83
  -1  -5   8  382.20   37.98
  -1  -5   9   54.88   15.34
  -1  -5  10   26.95   11.74
  -1  -5  11   35.70   12.55
  -1  -5  12    4.19    7.52
  -1  -4 -17   25.92   11.51
  -1  -4 -16    2.00    7.00
  -1  -4 -16    3.03    3.24
  -1  -4 -15   26.05    9.70
  -1  -4 -15   32.37   11.91
  -1  -4 -14    9.27    6.03
  -1  -4 -13  116.27   19.62
  -1  -4 -12  399.62   34.94
  -1  -4 -12  367.58   26.92
  -1  -4 -11  199.19   23.51
  -1  -4 -11  167.34   18.19
  -1  -4 -10  526.54   36.74
  -1  -4 -10  459.91   29.64
  -1  -4  -9  398.52   30.66
  -1  -4  -9  355.62   25.86
  -1  -4  -8   52.50   10.64
  -1  -4  -8   41.72    8.82
  -1  -4  -7 1555.61   54.27
  -1  -4  -7 1559.30   56.26
  -1  -4  -7 1408.99   51.55
  -1  -4  -6  118.67   14.03
  -1  -4  -6  130.36   14.97
  -1  -4  -6  109.48   13.59
  -1  -4  -5   13.00    3.32
  -1  -4  -5   17.27    4.53
  -1  -4  -5   16.49    4.48
  -1  -4  -4  598.09   23.85
  -1  -4  -4  576.96   26.80
  -1  -4  -4  650.21   28.67
  -1  -4  -3   10.77    3.26
  -1  -4  -3   11.45    2.47
  -1  -4  -3   11.00    3.49
  -1  -4  -3   13.49    4.31
  -1  -4  -2  473.95   25.51
  -1  -4  -2  448.27   20.95
  -1  -4  -2  429.75   21.64
  -1  -4  -1   38.34    5.76
  -1  -4  -1   47.68    7.30
  -1  -4   0 1958.39   42.17
  -1  -4   1  965.97   46.79
  -1  -4   1  934.11   25.59
  -1  -4   2  234.93   22.91
  -1  -4   2  205.38    9.26
  -1  -4   3 2249.29   72.68
  -1  -4   3 1599.00   40.64
  -1  -4   4  700.65   32.66
  -1  -4   4  476.17   34.67
  -1  -4   5   58.28   12.92
  -1  -4   5   63.76    6.30
  -1  -4   6  664.11   43.82
  -1  -4   6  536.50   15.02
  -1  -4   7    2.92    2.32
  -1  -4   8   72.97   15.65
  -1  -4   8   46.53    8.42
  -1  -4   9   74.01   15.93
  -1  -4  10   91.48   18.42
  -1  -4  11  117.07   21.49
  -1  -4  12    9.30    6.80
  -1  -4  13  134.69   25.62
  -1  -4  14   61.35   19.23
  -1  -3 -17   -1.05    5.74
  -1  -3 -16   15.94    4.57
  -1  -3 -16   15.03    8.25
  -1  -3 -15  131.80   20.41
  -1  -3 -15  138.51   22.54
  -1  -3 -14   59.25   13.18
  -1  -3 -14   27.48    9.63
  -1  -3 -13  316.33   30.93
  -1  -3 -12  779.21   32.71
  -1  -3 -12  849.47   48.68
  -1  -3 -11   96.09   16.09
  -1  -3 -11  120.17   14.85
  -1  -3 -11   99.13   12.02
  -1  -3 -10  563.66   27.17
  -1  -3 -10  547.72   35.83
  -1  -3 -10  495.51   24.51
  -1  -3 -10  558.96   28.96
  -1  -3  -9  773.80   34.01
  -1  -3  -9  783.54   40.69
  -1  -3  -9  725.13   30.05
  -1  -3  -9  693.06   25.78
  -1  -3  -8   16.12    4.60
  -1  -3  -8   15.94    4.55
  -1  -3  -8   18.88    4.41
  -1  -3  -8   16.09    5.69
  -1  -3  -7  219.75   19.93
  -1  -3  -7  201.47   26.18
  -1  -3  -7  194.97   15.47
  -1  -3  -7  189.02   12.37
  -1  -3  -7  208.06   16.99
  -1  -3  -6   31.02    5.65
  -1  -3  -6   44.23    8.29
  -1  -3  -6   43.02    8.38
  -1  -3  -6   44.45    7.69
  -1  -3  -6   39.29    7.35
  -1  -3  -5  693.18   30.62
  -1  -3  -5  731.71   30.95
  -1  -3  -5  737.01   31.67
  -1  -3  -5  693.22   29.50
  -1  -3  -4  256.72   16.87
  -1  -3  -4  285.89   16.88
  -1  -3  -4  252.59   18.86
  -1  -3  -4  250.88   17.77
  -1  -3  -4  232.75   17.34
  -1  -3  -3 1577.27   37.44
  -1  -3  -3 1755.20   33.66
  -1  -3  -3 1698.05   36.87
  -1  -3  -3 1652.36   45.10
  -1  -3  -3 1700.23   45.73
  -1  -3  -2 4563.18   60.64
  -1  -3  -2 4612.37   56.56
  -1  -3  -2 4620.80   69.29
  -1  -3  -2 4526.66   74.10
  -1  -3  -1  781.21   23.75
  -1  -3  -1  840.20   22.44
  -1  -3  -1  826.96   31.24
  -1  -3   0  532.62   21.67
  -1  -3   0  585.14   18.91
  -1  -3   0  550.21   25.51
  -1  -3   1 4715.83   41.49
  -1  -3   1 4484.19   67.50
  -1  -3   2  208.38   11.50
  -1  -3   2  178.52   14.48
  -1  -3   2  206.66   19.16
  -1  -3   3  723.65   36.68
  -1  -3   3  314.27   20.42
  -1  -3   4  324.21   25.88
  -1  -3   4  406.16   21.13
  -1  -3   5    0.35    2.54
  -1  -3   5    2.73    1.42
  -1  -3   6  504.54   16.57
  -1  -3   6  571.46   36.48
  -1  -3   7   36.77    4.95
  -1  -3   7   39.32   10.20
  -1  -3   7   36.37    5.89
  -1  -3   8  272.30   27.15
  -1  -3   8  255.89   14.22
  -1  -3   9   59.52    5.82
  -1  -3   9   76.98   15.42
  -1  -3  10   81.15   16.46
  -1  -3  11  336.03   34.57
  -1  -3  12   20.92    9.75
  -1  -3  13   76.01   18.97
  -1  -3  14  143.65   26.19
  -1  -3  15   24.73   12.98
  -1  -2 -18   14.34    7.80
  -1  -2 -17   71.59   14.61
  -1  -2 -16   12.67    5.81
  -1  -2 -15   86.19   15.93
  -1  -2 -15  116.23   20.87
  -1  -2 -14  364.73   34.14
  -1  -2 -14  337.92   30.43
  -1  -2 -13   24.10   11.05
  -1  -2 -13   34.57   10.27
  -1  -2 -13   40.77   10.58
  -1  -2 -12   20.93    7.65
  -1  -2 -12    3.75    4.31
  -1  -2 -12   13.23    3.56
  -1  -2 -11  314.45   26.42
  -1  -2 -11  279.28   36.04
  -1  -2 -11  299.72   16.44
  -1  -2 -10    0.90    0.81
  -1  -2 -10    6.45    4.67
  -1  -2 -10    4.35    5.42
  -1  -2 -10    3.68    2.46
  -1  -2  -9  144.95   16.77
  -1  -2  -9  127.04   21.80
  -1  -2  -9  137.99   11.96
  -1  -2  -9  117.18    8.83
  -1  -2  -8  377.98   25.08
  -1  -2  -8  369.18   19.93
  -1  -2  -8  335.43   15.42
  -1  -2  -7  380.87   23.74
  -1  -2  -7  405.57   20.79
  -1  -2  -7  283.79   38.86
  -1  -2  -7  274.27   25.04
  -1  -2  -7  370.53   16.34
  -1  -2  -6  507.88   25.45
  -1  -2  -6  497.30   22.98
  -1  -2  -6  473.56   28.34
  -1  -2  -6  469.81   18.76
  -1  -2  -5 2512.57   43.51
  -1  -2  -5 2776.52   52.70
  -1  -2  -5 2712.93   60.33
  -1  -2  -5 2701.35   69.69
  -1  -2  -5 2715.47   54.94
  -1  -2  -5 2657.76   60.61
  -1  -2  -5 2661.55   44.99
  -1  -2  -4 3437.07   56.09
  -1  -2  -4 3400.29   56.81
  -1  -2  -4 3437.69   62.83
  -1  -2  -4 3524.54   60.63
  -1  -2  -4 3345.89   51.03
  -1  -2  -4 3413.64   45.95
  -1  -2  -3  128.51    9.51
  -1  -2  -3  120.01   10.39
  -1  -2  -3  138.72   11.49
  -1  -2  -3  142.18   10.10
  -1  -2  -3  131.53    9.38
  -1  -2  -3  135.46   10.14
  -1  -2  -2 3373.43   34.27
  -1  -2  -2 3343.51   44.07
  -1  -2  -2 3502.93   37.41
  -1  -2  -2 3552.54   52.67
  -1  -2  -2 3399.03   51.15
  -1  -2  -2 3339.27   54.34
  -1  -2  -1 4952.00   61.83
  -1  -2  -1 5137.36   52.95
  -1  -2  -1 4904.75   46.24
  -1  -2  -1 4963.34   65.39
  -1  -2  -1 5014.86   46.99
  -1  -2   0  313.77   13.55
  -1  -2   0  315.42    9.93
  -1  -2   0  303.99   16.18
  -1  -2   1 2999.13   35.81
  -1  -2   1 2860.03   45.83
  -1  -2   1 2879.94   37.81
  -1  -2   1 2850.01   46.78
  -1  -2   2 1936.35   49.16
  -1  -2   2 1817.76   40.35
  -1  -2   2 1853.97   37.77
  -1  -2   2 1853.56   37.29
  -1  -2   3  147.32   14.42
  -1  -2   3  146.52   10.36
  -1  -2   3  145.08   12.44
  -1  -2   4  754.67   31.42
  -1  -2   4  813.85   21.18
  -1  -2   4  826.63   23.87
  -1  -2   4  771.44   34.57
  -1  -2   5  168.81   17.15
  -1  -2   5  180.30   10.36
  -1  -2   5  157.69   16.11
  -1  -2   5  164.90    9.89
  -1  -2   6  731.94   36.99
  -1  -2   6  712.03   36.58
  -1  -2   6  732.09   23.36
  -1  -2   6  738.18   18.77
  -1  -2   7   61.87    4.31
  -1  -2   7   84.24   13.71
  -1  -2   7   81.91   13.23
  -1  -2   8  675.34   39.14
  -1  -2   8  748.23   41.84
  -1  -2   9 1175.74   54.51
  -1  -2   9 1209.90   56.40
  -1  -2  10   30.06    9.98
  -1  -2  11  293.28   30.18
  -1  -2  12  225.12   28.90
  -1  -2  13   25.54   12.69
  -1  -2  14   98.07   22.66
  -1  -2  15    7.35    8.06
  -1  -2  16   16.66   11.67
  -1  -1 -16   30.50    8.53
  -1  -1 -15   11.26    4.68
  -1  -1 -15    1.61    6.47
  -1  -1 -14   74.23   12.00
  -1  -1 -14   83.97   16.61
  -1  -1 -14   92.45   16.75
  -1  -1 -14   95.23   14.55
  -1  -1 -13    4.61    4.43
  -1  -1 -13   -2.95    4.60
  -1  -1 -13    6.41    5.36
  -1  -1 -13    2.16    2.33
  -1  -1 -12   54.63   10.43
  -1  -1 -12   50.46   11.68
  -1  -1 -12   44.16    9.01
  -1  -1 -12   48.76   11.19
  -1  -1 -11   41.08    9.34
  -1  -1 -11   44.49    8.33
  -1  -1 -11   45.74   10.66
  -1  -1 -10  327.10   26.97
  -1  -1 -10  343.09   24.31
  -1  -1 -10  352.88   22.37
  -1  -1  -9  425.98   29.63
  -1  -1  -9  451.12   26.44
  -1  -1  -9  457.64   23.72
  -1  -1  -8   56.25    9.32
  -1  -1  -8   59.98   11.17
  -1  -1  -8   51.75    6.45
  -1  -1  -7 2305.98   53.17
  -1  -1  -7 2369.63   65.22
  -1  -1  -7 2204.13   38.88
  -1  -1  -6 2663.58   53.10
  -1  -1  -6 2515.75   64.89
  -1  -1  -6 2784.89   71.59
  -1  -1  -6 2474.98   39.40
  -1  -1  -6 2616.90   56.81
  -1  -1  -5  200.17   20.28
  -1  -1  -5  171.12   15.13
  -1  -1  -5  189.91   10.67
  -1  -1  -5  181.38   13.86
  -1  -1  -5  180.38   12.65
  -1  -1  -4 4347.45   50.35
  -1  -1  -4 3013.28   94.56
  -1  -1  -4 4257.07   64.76
  -1  -1  -4 3093.40  108.04
  -1  -1  -4 4465.80   62.27
  -1  -1  -4 4337.98   54.90
  -1  -1  -3 3794.43   73.68
  -1  -1  -3 3824.72   73.63
  -1  -1  -3 3406.94   43.71
  -1  -1  -3 3526.04   49.18
  -1  -1  -3 3461.04   44.82
  -1  -1  -2    4.41    1.78
  -1  -1  -2    2.43    1.30
  -1  -1  -2    4.01    1.71
  -1  -1  -2    2.50    1.06
  -1  -1   1  132.68    8.58
  -1  -1   1  138.26    7.12
  -1  -1   2  961.74   28.05
  -1  -1   2  992.98   17.52
  -1  -1   2  979.32   27.72
  -1  -1   3 4109.82   65.54
  -1  -1   3 4238.81   63.67
  -1  -1   3 4209.40   49.55
  -1  -1   4 2433.27   56.40
  -1  -1   4 2483.45   41.03
  -1  -1   4 2483.92   52.37
  -1  -1   5  135.85   14.57
  -1  -1   5  159.62   11.43
  -1  -1   5  165.34   14.39
  -1  -1   6 1663.63   50.06
  -1  -1   6 1659.33   54.82
  -1  -1   7 1786.19   54.65
  -1  -1   7 1841.79   62.01
  -1  -1   8   29.46    9.40
  -1  -1   8   39.96    9.12
  -1  -1   9  459.63   32.60
  -1  -1   9  426.34   33.66
  -1  -1  10  456.44   36.01
  -1  -1  10  515.77   37.80
  -1  -1  11  127.95   20.66
  -1  -1  11  173.19   24.41
  -1  -1  12   57.59   15.39
  -1  -1  12   71.98   18.67
  -1  -1  13    8.21    9.29
  -1  -1  14   45.03   16.63
  -1  -1  15   -6.83   14.36
  -1  -1  16  -41.69   20.28
  -1   0 -16   18.98    7.73
  -1   0 -15    0.10    2.55
  -1   0 -14   18.99    5.83
  -1   0 -14   34.05   11.29
  -1   0 -14   28.33    7.99
  -1   0 -13    9.88    4.09
  -1   0 -13   19.33    6.80
  -1   0 -13   25.31    9.44
  -1   0 -12  557.73   31.24
  -1   0 -12  499.59   37.02
  -1   0 -12  501.69   31.94
  -1   0 -12  509.77   28.88
  -1   0 -11   68.48   10.21
  -1   0 -11   75.50   11.22
  -1   0 -11   80.44   14.97
  -1   0 -11   98.00   13.62
  -1   0 -10   65.98    9.94
  -1   0 -10   71.52   12.49
  -1   0 -10   80.93   11.41
  -1   0 -10   53.44    8.46
  -1   0  -9 1901.87   49.89
  -1   0  -9 2000.43   50.90
  -1   0  -8 1045.01   34.41
  -1   0  -8 1001.01   33.84
  -1   0  -7   77.82    8.95
  -1   0  -7   66.14    7.98
  -1   0  -7   71.90    8.88
  -1   0  -6 2455.48   44.24
  -1   0  -6 2322.72   46.78
  -1   0  -6 2394.26   44.02
  -1   0  -5 1221.82   27.62
  -1   0  -5 1150.97   39.85
  -1   0  -5 1159.05   30.02
  -1   0  -5 1189.65   27.81
  -1   0  -4   38.60    4.51
  -1   0  -4   34.46    4.00
  -1   0  -4   36.81    7.95
  -1   0  -4   37.99    6.65
  -1   0  -4   32.10    4.40
  -1   0  -3  964.25   41.89
  -1   0  -3  927.89   17.64
  -1   0  -3  897.53   20.24
  -1   0  -3  921.00   17.04
  -1   0  -2   50.85    9.86
  -1   0  -2   64.27    4.83
  -1   0  -2   63.19    4.31
  -1   0  -2   66.45    9.36
  -1   0  -1 4937.09  100.81
  -1   0   2 3427.41   33.69
  -1   0   2 3323.17   46.33
  -1   0   3  359.16   12.97
  -1   0   3  375.78   17.01
  -1   0   4 4721.40   56.83
  -1   0   4 4647.78   65.34
  -1   0   5 1005.99   41.04
  -1   0   5 1013.69   31.46
  -1   0   6  206.13   16.36
  -1   0   6  185.27   18.76
  -1   0   7 2029.87   58.65
  -1   0   7 1747.08   60.74
  -1   0   8  322.89   27.96
  -1   0   8  405.40   30.47
  -1   0   9  274.13   28.69
  -1   0   9  222.40   24.36
  -1   0  10   26.90   10.74
  -1   0  10   20.43    9.15
  -1   0  11    2.77    9.99
  -1   0  11   -1.54    5.11
  -1   0  12  279.56   41.47
  -1   0  12  278.48   31.47
  -1   0  13   13.67    6.56
  -1   0  13   34.36   12.09
  -1   0  14  233.01   46.02
  -1   0  14  279.30   34.67
  -1   0  15  106.37   30.60
  -1   1 -17    5.93    6.46
  -1   1 -16   18.60   10.68
  -1   1 -15   14.51    9.79
  -1   1 -14  102.99   14.81
  -1   1 -14  104.61   20.36
  -1   1 -13   57.24   15.09
  -1   1 -13   29.56    8.37
  -1   1 -12  143.60   17.06
  -1   1 -12  135.29   20.51
  -1   1 -12  114.78   13.04
  -1   1 -11  818.21   32.55
  -1   1 -11  878.82   39.67
  -1   1 -10   13.10    4.00
  -1   1 -10   12.08    4.64
  -1   1 -10    2.33    2.01
  -1   1  -9  263.61   19.79
  -1   1  -9  246.03   14.00
  -1   1  -9  269.36   16.65
  -1   1  -8  962.64   35.35
  -1   1  -8  961.24   29.08
  -1   1  -8  949.45   24.60
  -1   1  -7   13.23    3.73
  -1   1  -7   13.40    3.45
  -1   1  -7   12.60    5.06
  -1   1  -7   20.73    6.15
  -1   1  -7    7.08    2.09
  -1   1  -6  255.59   15.33
  -1   1  -6  272.99   12.08
  -1   1  -6  283.39   14.35
  -1   1  -6  243.47   10.44
  -1   1  -5    5.51    2.68
  -1   1  -5    5.30    1.76
  -1   1  -5    4.04    1.82
  -1   1  -4  325.47   14.96
  -1   1  -4  351.30   25.10
  -1   1  -4  325.10   13.38
  -1   1  -3  407.79   24.30
  -1   1  -3  374.75   14.98
  -1   1  -3  384.40   15.01
  -1   1  -2 1445.36   40.27
  -1   1  -2 1486.28   23.27
  -1   1  -2 1409.17   30.01
  -1   1  -1 3704.70   50.31
  -1   1  -1 3646.13   42.16
  -1   1  -1 3577.78   54.77
  -1   1   0  796.42   21.41
  -1   1   0  871.38   26.20
  -1   1   0  817.63   22.24
  -1   1   0  814.08   25.07
  -1   1   1 1919.32   25.53
  -1   1   1 1973.65   37.29
  -1   1   1 1966.56   40.71
  -1   1   2 6586.49   76.35
  -1   1   2 6299.74   83.26
  -1   1   3  923.08   33.00
  -1   1   4  771.00   33.86
  -1   1   5 1080.67   42.49
  -1   1   5  800.57   37.01
  -1   1   6   68.57   13.39
  -1   1   6   85.81   13.25
  -1   1   7  158.14   19.00
  -1   1   7   51.61   13.19
  -1   1   8   39.84   10.36
  -1   1   8   68.90   13.29
  -1   1   9  351.80   31.19
  -1   1   9  288.87   39.45
  -1   1  10   40.01   12.97
  -1   1  10   50.57   12.86
  -1   1  11   76.73   19.83
  -1   1  11   80.83   16.94
  -1   1  12  526.51   61.26
  -1   1  12  426.75   40.10
  -1   1  13   50.98   15.22
  -1   1  13   80.81   23.82
  -1   1  14   42.07   15.23
  -1   1  14   28.55   13.62
  -1   1  15  125.39   24.11
  -1   2 -16   72.49   19.75
  -1   2 -15   22.26   11.83
  -1   2 -15    9.48    5.79
  -1   2 -14   77.91   13.43
  -1   2 -14  135.23   24.40
  -1   2 -13  176.01   20.08
  -1   2 -13  223.65   29.64
  -1   2 -12   10.24    5.79
  -1   2 -11  182.87   19.38
  -1   2 -10  269.61   14.44
  -1   2 -10  342.25   24.77
  -1   2  -9    3.83    3.68
  -1   2  -9    6.85    2.70
  -1   2  -9    2.01    1.01
  -1   2  -8  241.22   19.21
  -1   2  -8  237.05   13.87
  -1   2  -7  101.80   11.94
  -1   2  -7   94.18    8.98
  -1   2  -6   95.61    9.21
  -1   2  -6   93.65   10.65
  -1   2  -5  139.60   12.16
  -1   2  -5  151.83   11.87
  -1   2  -4 2025.33   44.23
  -1   2  -4 2213.95   45.09
  -1   2  -3 1773.89   56.22
  -1   2  -3 1737.65   41.40
  -1   2  -3 1754.53   40.63
  -1   2  -2   70.85   10.56
  -1   2  -2   57.23    8.00
  -1   2  -2   65.81    9.41
  -1   2  -1 2108.01   51.30
  -1   2  -1 2029.54   45.01
  -1   2   0 3442.67   60.38
  -1   2   0 3372.20   59.15
  -1   2   1   28.54    5.84
  -1   2   2 1278.01   35.70
  -1   2   2 1370.26   40.68
  -1   2   3  548.89   26.14
  -1   2   3  676.49   32.22
  -1   2   4    4.86    3.66
  -1   2   4    4.62    2.98
  -1   2   5  981.87   42.75
  -1   2   5  984.05   43.04
  -1   2   6  311.70   25.45
  -1   2   7  564.27   37.05
  -1   2   8  187.10   22.56
  -1   2   9  484.35   37.90
  -1   2  10  834.41   51.60
  -1   2  11    2.26    5.37
  -1   2  12  237.88   30.16
  -1   2  13  189.95   28.25
  -1   2  14    6.78    8.86
  -1   2  15   60.73   16.92
  -1   2  16   13.25   10.48
  -1   3 -15   36.70    9.86
  -1   3 -14    8.24    6.53
  -1   3 -14   32.99   13.73
  -1   3 -13   37.03   10.03
  -1   3 -12   37.09    9.89
  -1   3 -11   28.24    8.27
  -1   3 -10   14.07    6.68
  -1   3  -9   49.64   10.17
  -1   3  -9   29.19    6.32
  -1   3  -8  174.73   17.59
  -1   3  -8  196.25   16.03
  -1   3  -7    6.73    4.21
  -1   3  -7    4.60    3.43
  -1   3  -6 1169.49   42.59
  -1   3  -6 1188.18   39.28
  -1   3  -5 1255.30   42.10
  -1   3  -5 1317.47   41.99
  -1   3  -4   53.84    9.11
  -1   3  -4   54.47    9.45
  -1   3  -3 1937.61   51.84
  -1   3  -3 2150.16   58.07
  -1   3  -2 2394.32   57.05
  -1   3  -1   65.09    9.63
  -1   3  -1   48.79    9.59
  -1   3   0 1091.34   39.09
  -1   3   1   38.03    7.56
  -1   3   2   20.86    5.17
  -1   3   2   19.56    5.62
  -1   3   3    9.36    3.53
  -1   3   3    7.60    4.22
  -1   3   3    9.22    3.36
  -1   3   4  324.27   22.88
  -1   3   4  316.60   23.09
  -1   3   5  865.00   41.16
  -1   3   5  834.03   39.51
  -1   3   6  166.41   19.68
  -1   3   6  176.38   19.78
  -1   3   7  898.80   47.16
  -1   3   7  843.85   45.90
  -1   3   8  806.54   48.01
  -1   3   9    3.80    5.96
  -1   3  10  861.03   54.09
  -1   3  11  102.33   19.45
  -1   3  12    9.76    7.95
  -1   3  13  199.04   29.83
  -1   3  14    8.16    9.23
  -1   3  15   56.58   17.90
  -1   3  16    5.56    5.96
  -1   4 -14    3.30    3.13
  -1   4 -13   13.64    6.93
  -1   4 -12   13.02    6.72
  -1   4 -11  114.97   17.78
  -1   4 -10   96.69   16.01
  -1   4  -9  203.32   21.94
  -1   4  -8  271.72   24.47
  -1   4  -8  254.88   20.89
  -1   4  -7  395.89   29.04
  -1   4  -7  402.95   26.24
  -1   4  -6  230.37   20.32
  -1   4  -6  255.04   22.49
  -1   4  -5  512.47   31.95
  -1   4  -5  497.71   29.55
  -1   4  -4  186.74   19.27
  -1   4  -4  151.15   16.28
  -1   4  -3   52.03   10.19
  -1   4  -2  335.29   24.67
  -1   4  -1   32.89    8.14
  -1   4   0  184.51   18.39
  -1   4   1   32.88    8.41
  -1   4   2  637.22   34.51
  -1   4   2  623.17   28.48
  -1   4   3  309.58   21.14
  -1   4   3  334.05   25.68
  -1   4   4  372.85   27.53
  -1   4   4  339.34   19.49
  -1   4   4  343.28   24.11
  -1   4   5  994.40   45.30
  -1   4   5  975.00   45.48
  -1   4   6  421.07   31.87
  -1   4   6  390.64   29.88
  -1   4   7  122.46   18.34
  -1   4   7  120.60   18.41
  -1   4   8  564.92   41.00
  -1   4   8  521.50   39.58
  -1   4   9   74.31   15.42
  -1   4   9   63.11   13.89
  -1   4  10   39.17   12.11
  -1   4  11  114.25   20.97
  -1   4  12   14.84    8.95
  -1   4  13   36.27   13.25
  -1   4  14    7.96    5.46
  -1   4  15   81.13   20.96
  -1   4  16   42.58   15.98
  -1   5 -12   18.47    8.33
  -1   5 -11   27.71   10.09
  -1   5 -10  144.94   22.22
  -1   5  -9   65.04   14.24
  -1   5  -8  218.84   25.07
  -1   5  -8  122.17   16.20
  -1   5  -7  209.52   24.98
  -1   5  -7  198.34   20.73
  -1   5  -6   -0.90    4.99
  -1   5  -6    9.56    5.47
  -1   5  -5   63.99   13.40
  -1   5  -5   67.99   12.38
  -1   5  -4  172.89   20.01
  -1   5  -3  240.02   23.50
  -1   5  -2   34.24   10.99
  -1   5  -1  130.26   17.35
  -1   5   0  835.38   44.17
  -1   5   1  284.61   21.54
  -1   5   1  344.49   28.86
  -1   5   2  569.81   29.71
  -1   5   2  629.24   38.40
  -1   5   3 1507.06   49.65
  -1   5   3 1597.64   61.67
  -1   5   4   83.43   13.08
  -1   5   4   88.29   10.35
  -1   5   4   88.03   15.74
  -1   5   5   82.54   11.37
  -1   5   5  110.10   15.66
  -1   5   5  102.73   16.77
  -1   5   6  923.83   25.76
  -1   5   6  870.21   46.58
  -1   5   7   20.53    8.67
  -1   5   7   21.83    8.39
  -1   5   8   26.08    8.16
  -1   5   8   38.65   11.87
  -1   5   9    2.86    3.99
  -1   5   9    2.22    4.29
  -1   5  10  107.06   19.97
  -1   5  10   88.18   17.86
  -1   5  11   76.37   17.43
  -1   5  12   38.04   13.03
  -1   5  13   99.18   21.17
  -1   5  14   44.52   15.85
  -1   5  15   47.18   16.21
  -1   6 -10   26.57    9.65
  -1   6  -9   99.04   20.66
  -1   6  -8   15.93    5.46
  -1   6  -7   31.29    9.26
  -1   6  -6    3.79    4.72
  -1   6  -5   98.97   16.89
  -1   6  -4    0.96    5.47
  -1   6  -3   87.18   15.96
  -1   6  -2  335.06   30.83
  -1   6  -1   -0.54    3.20
  -1   6   0  207.87   20.22
  -1   6   0  183.54   23.30
  -1   6   1  209.65   24.73
  -1   6   1  195.30   18.97
  -1   6   2   11.08    4.11
  -1   6   2   22.13    8.44
  -1   6   3  115.42   14.83
  -1   6   3  124.10   19.78
  -1   6   4   68.27   15.14
  -1   6   4   68.73   11.84
  -1   6   4   62.24    9.88
  -1   6   5   21.75    8.86
  -1   6   5   34.19    7.74
  -1   6   5   36.97    9.45
  -1   6   6   36.44    9.71
  -1   6   6   27.18   10.91
  -1   6   7   -1.83    3.31
  -1   6   7    8.02    5.29
  -1   6   8  137.48   20.43
  -1   6   8  109.94   19.97
  -1   6   9   16.09    7.51
  -1   6   9   15.72    7.45
  -1   6  10   60.79   14.74
  -1   6  10   40.64   13.95
  -1   6  11   99.85   19.76
  -1   6  11   88.02   20.66
  -1   6  12    6.53    8.61
  -1   6  13   65.00   17.81
  -1   6  14   30.17   13.33
  -1   6  15   24.43   11.34
  -1   7  -6    6.35    5.83
  -1   7  -5   89.58   17.23
  -1   7  -4   75.53   16.05
  -1   7  -3   14.84    8.04
  -1   7  -2  251.23   29.65
  -1   7  -1  133.32   21.81
  -1   7   0   67.09   15.63
  -1   7   1  220.74   28.51
  -1   7   2    4.44    6.06
  -1   7   3   25.23    7.92
  -1   7   3   12.44    6.70
  -1   7   4   75.02   16.97
  -1   7   5   71.08   16.80
  -1   7   6   45.67   13.48
  -1   7   7   10.94    8.74
  -1   7   8  137.00   23.08
  -1   7   9  118.32   23.48
  -1   7  10    2.05    6.13
  -1   7  11   78.15   20.55
  -1   8  -6    2.99    4.16
  -1   8  -5   12.72    8.12
  -1   8  -4   62.43   15.75
  -1   8  -3   13.76    8.21
  -1   8  -2   24.27   10.69
  -1   8  -1   42.08   13.79
  -1   8   0    2.39    6.48
  -1   8   1   53.41   14.91
  -1   8   2    7.40    6.57
  -1   8   3   43.06   14.74
  -1   8   4   65.54   16.87
  -1   8   5   16.20    8.26
  -1   8   6   40.64   13.93
  -1   8   7   44.24   14.53
  -1   8   8   16.88    8.61
  -1   8   9   32.86   12.87
   0  -9  -9    3.11    5.97
   0  -9  -8   27.86   12.44
   0  -9  -7   11.10    5.26
   0  -9  -6  -17.48    9.20
   0  -9  -5   24.42   10.97
   0  -9  -4    6.26    3.92
   0  -9  -3   73.82   16.12
   0  -9  -2   41.28   12.24
   0  -9  -2   42.38   11.51
   0  -9  -1    2.49    3.58
   0  -9   0   80.01   17.72
   0  -9   1   37.13   12.62
   0  -9   2   -0.93    5.74
   0  -9   3   59.50   16.63
   0  -8 -12   25.21    9.89
   0  -8 -11    0.28    4.83
   0  -8 -11   -0.17    5.98
   0  -8 -10   38.48   11.15
   0  -8 -10   51.34   15.93
   0  -8 -10   52.01   15.76
   0  -8  -9   -2.59    7.84
   0  -8  -8   26.17    9.19
   0  -8  -7   37.46    9.30
   0  -8  -6    3.02    4.34
   0  -8  -5  182.58   23.75
   0  -8  -4   87.57   16.09
   0  -8  -4   54.13   12.80
   0  -8  -3   11.20    6.30
   0  -8  -2  168.17   22.97
   0  -8  -1   37.49   11.77
   0  -8   0   74.25   16.24
   0  -8   1    6.13    5.13
   0  -8   2    1.19    4.07
   0  -8   3   60.81   16.00
   0  -8   4   -2.73    4.31
   0  -8   5   40.93   14.23
   0  -8   6   19.36   10.33
   0  -7 -12   58.81   16.27
   0  -7 -12   65.97   16.40
   0  -7 -12   49.42   14.91
   0  -7 -11    5.65    5.25
   0  -7 -11   -6.77    7.44
   0  -7 -10   99.93   19.09
   0  -7  -9   58.08   14.66
   0  -7  -8   32.42   11.68
   0  -7  -7  290.79   30.00
   0  -7  -6   79.58   15.23
   0  -7  -6   46.69   10.43
   0  -7  -5  273.64   26.23
   0  -7  -5  278.39   26.39
   0  -7  -4  191.68   21.60
   0  -7  -4  199.47   21.82
   0  -7  -3   67.06   13.15
   0  -7  -3   75.28   13.30
   0  -7  -2  239.31   22.20
   0  -7  -2  204.80   23.95
   0  -7  -1  225.16   19.98
   0  -7  -1  251.33   26.99
   0  -7   0   24.87    8.49
   0  -7   1   47.75   13.22
   0  -7   2   28.76   10.74
   0  -7   3  189.59   25.98
   0  -7   4   53.68   15.01
   0  -7   5   87.04   19.19
   0  -7   6  131.81   24.27
   0  -7   7   43.77   16.21
   0  -7   8   55.81   17.06
   0  -6 -14   14.12    9.25
   0  -6 -14    4.44    4.97
   0  -6 -13   -2.18    6.08
   0  -6 -13    3.45    4.86
   0  -6 -12  100.31   19.31
   0  -6 -12   87.34   17.72
   0  -6 -12   80.05   18.11
   0  -6 -11    5.72    5.11
   0  -6 -11   -6.05    5.59
   0  -6 -10  218.60   26.98
   0  -6  -9  321.06   31.40
   0  -6  -8    2.50    5.21
   0  -6  -7  535.53   37.97
   0  -6  -6  230.41   24.22
   0  -6  -5   21.27   10.28
   0  -6  -4  315.59   25.73
   0  -6  -4  285.43   24.61
   0  -6  -3   11.85    5.55
   0  -6  -3   14.46    6.29
   0  -6  -2  187.35   21.08
   0  -6  -2  246.46   19.97
   0  -6  -1    0.31    2.29
   0  -6  -1    0.21    4.02
   0  -6   0  109.10   16.92
   0  -6   0  112.64   12.19
   0  -6   1  721.97   44.85
   0  -6   2   15.81    6.86
   0  -6   3  186.21   24.44
   0  -6   4  586.85   44.90
   0  -6   5   -0.94    3.70
   0  -6   6  164.85   25.99
   0  -6   7  108.97   21.74
   0  -6   8   20.49   10.44
   0  -6   9   51.79   16.52
   0  -6  10    3.27    4.94
   0  -5 -16   -1.23    7.08
   0  -5 -15   62.25   16.39
   0  -5 -15   45.20   13.63
   0  -5 -14  110.11   21.97
   0  -5 -14  107.29   21.10
   0  -5 -13   17.73    8.17
   0  -5 -13   13.35    5.40
   0  -5 -12  302.08   33.43
   0  -5 -12  260.97   26.72
   0  -5 -11  176.42   24.58
   0  -5 -11  164.51   21.61
   0  -5 -10   18.51    7.04
   0  -5 -10   28.16   10.21
   0  -5  -9  825.89   49.30
   0  -5  -8  114.17   17.40
   0  -5  -7    9.20    6.42
   0  -5  -6  188.23   20.55
   0  -5  -6  217.13   19.73
   0  -5  -5   24.69    8.60
   0  -5  -4  444.05   28.38
   0  -5  -3    5.69    7.02
   0  -5  -2  842.10   34.22
   0  -5  -2  827.79   40.33
   0  -5  -1  633.80   36.32
   0  -5  -1  584.22   25.98
   0  -5   0   28.33    5.77
   0  -5   0   28.02    8.49
   0  -5   0   31.57    7.86
   0  -5   1 1534.10   61.11
   0  -5   1 1554.21   50.97
   0  -5   2  712.21   42.97
   0  -5   3  137.25   20.49
   0  -5   4  605.68   42.92
   0  -5   5  281.26   14.92
   0  -5   5  322.70   32.27
   0  -5   5  239.02   10.99
   0  -5   6  131.46   21.70
   0  -5   7   65.79   15.75
   0  -5   8   16.24    9.54
   0  -5   9  104.42   21.11
   0  -5  10    6.86    7.26
   0  -5  11  169.81   29.54
   0  -5  12   76.55   20.91
   0  -4 -17   33.00   14.11
   0  -4 -16   15.61    9.22
   0  -4 -16   33.36   12.61
   0  -4 -15   37.57   13.15
   0  -4 -15   31.27   11.12
   0  -4 -14  208.02   28.54
   0  -4 -14  197.73   27.29
   0  -4 -13   75.74   17.03
   0  -4 -13   45.60   12.10
   0  -4 -12  119.04   20.35
   0  -4 -12  111.59   18.39
   0  -4 -12  118.66   15.90
   0  -4 -11  341.72   33.26
   0  -4 -11  322.88   26.53
   0  -4 -10    1.15    4.63
   0  -4 -10    3.10    3.60
   0  -4  -9   34.94    9.23
   0  -4  -9    9.92    2.60
   0  -4  -8  126.34   17.13
   0  -4  -8   86.43   20.52
   0  -4  -7  277.99   24.89
   0  -4  -6  330.08   25.92
   0  -4  -6  327.11   24.86
   0  -4  -5  210.73   19.60
   0  -4  -5  232.99   18.92
   0  -4  -4 1140.08   43.20
   0  -4  -3 1777.70   50.03
   0  -4  -2  761.97   30.14
   0  -4  -2  863.31   40.81
   0  -4  -1 2065.77   44.85
   0  -4  -1 2145.07   59.57
   0  -4   0 1123.52   29.08
   0  -4   0 1184.70   46.14
   0  -4   1  512.19   17.42
   0  -4   1  506.05   31.92
   0  -4   2  542.32   34.11
   0  -4   3  106.16   15.97
   0  -4   4   24.67    3.96
   0  -4   4   50.00    6.18
   0  -4   5    2.93    3.33
   0  -4   5    6.67    2.35
   0  -4   6  336.76   31.83
   0  -4   6  259.23   13.54
   0  -4   7   59.18   14.08
   0  -4   7   44.42    6.07
   0  -4   8   29.30   10.43
   0  -4   9  406.16   39.31
   0  -4  10  181.12   27.98
   0  -4  11   47.05   14.59
   0  -4  12  180.31   29.72
   0  -4  13   40.21   17.14
   0  -3 -17   37.06   13.81
   0  -3 -17   55.27   17.22
   0  -3 -16  142.09   24.89
   0  -3 -16   86.40   19.75
   0  -3 -15    5.00    5.56
   0  -3 -15   11.12    7.03
   0  -3 -14  111.91   20.64
   0  -3 -14  104.29   19.29
   0  -3 -13  110.96   19.41
   0  -3 -13   87.98   16.40
   0  -3 -12    9.79    6.16
   0  -3 -12    1.35    1.59
   0  -3 -12    5.30    3.67
   0  -3 -11  338.11   32.06
   0  -3 -11  300.56   21.77
   0  -3 -10   32.98    9.66
   0  -3 -10   17.15    3.04
   0  -3 -10   34.36    7.18
   0  -3  -9  388.73   32.04
   0  -3  -9  381.14   33.47
   0  -3  -9  284.58   22.59
   0  -3  -8   34.18    9.06
   0  -3  -8   25.38    9.74
   0  -3  -8   17.50    5.11
   0  -3  -7  118.28   23.31
   0  -3  -6 2016.96   59.49
   0  -3  -6 1844.45   57.08
   0  -3  -6 1906.67   53.65
   0  -3  -5    2.44    2.68
   0  -3  -5    4.02    3.01
   0  -3  -4 1783.49   46.19
   0  -3  -4 1748.74   56.92
   0  -3  -4 1692.43   49.03
   0  -3  -3 1637.33   45.05
   0  -3  -3 1820.46   40.00
   0  -3  -3 1755.85   54.57
   0  -3  -3 1667.89   47.80
   0  -3  -2  685.79   26.30
   0  -3  -2  728.31   32.83
   0  -3  -2  667.33   30.14
   0  -3  -1 2347.04   56.86
   0  -3  -1 2102.71   40.74
   0  -3  -1 2374.79   55.27
   0  -3  -1 2045.03   51.95
   0  -3   0  530.81   17.24
   0  -3   0  574.96   26.81
   0  -3   0  568.20   28.54
   0  -3   0  513.99   25.40
   0  -3   1   11.80    3.96
   0  -3   1   11.46    4.26
   0  -3   1   15.07    2.45
   0  -3   1   13.70    4.42
   0  -3   2  866.69   38.76
   0  -3   2  785.75   31.55
   0  -3   3  158.85   17.88
   0  -3   3  143.14   13.58
   0  -3   4  823.98   42.14
   0  -3   4  982.88   22.69
   0  -3   4  894.61   21.90
   0  -3   4  747.87   31.22
   0  -3   5  286.94   26.15
   0  -3   5  268.05   12.66
   0  -3   6  514.94   35.91
   0  -3   6  459.41   18.77
   0  -3   7 1401.98   62.08
   0  -3   7 1283.65   35.15
   0  -3   8   54.76   13.60
   0  -3   8   50.30    7.68
   0  -3   9  187.33   25.12
   0  -3   9  189.22   16.45
   0  -3  10  376.59   36.14
   0  -3  10  355.13   24.13
   0  -3  11   30.73   12.57
   0  -3  12   81.26   20.02
   0  -3  13   38.64   15.31
   0  -3  14   29.96   14.64
   0  -3  15   23.01   13.15
   0  -2 -17    9.12    7.23
   0  -2 -16   91.34   18.10
   0  -2 -16  107.95   21.15
   0  -2 -15   54.80   14.21
   0  -2 -15   75.27   17.05
   0  -2 -14   24.30    8.76
   0  -2 -14   24.67    8.82
   0  -2 -13   58.74   13.97
   0  -2 -13   63.88   14.12
   0  -2 -12    2.11    2.81
   0  -2 -12   -5.67    9.89
   0  -2 -12    3.25    3.92
   0  -2 -11  235.61   25.38
   0  -2 -11  207.68   22.82
   0  -2 -11  205.27   13.56
   0  -2 -10    4.90    2.63
   0  -2 -10    8.20    3.34
   0  -2 -10   -5.10    8.60
   0  -2 -10    4.92    4.04
   0  -2 -10    7.40    3.24
   0  -2  -9  840.24   30.38
   0  -2  -9  861.35   31.11
   0  -2  -8 2053.31   46.48
   0  -2  -8 1904.06   45.28
   0  -2  -7   24.22    7.62
   0  -2  -7   11.54    3.59
   0  -2  -7   11.49    4.64
   0  -2  -6 2650.09   50.45
   0  -2  -6 2665.44   69.99
   0  -2  -5 3528.04   71.65
   0  -2  -5 3592.40   57.74
   0  -2  -5 3470.08   73.42
   0  -2  -4   39.39    6.90
   0  -2  -4   43.17    7.79
   0  -2  -4   42.88    6.11
   0  -2  -3 1450.75   35.30
   0  -2  -3 1450.77   35.10
   0  -2  -3 1456.46   42.66
   0  -2  -2  611.43   23.02
   0  -2  -2  656.14   20.10
   0  -2  -2  612.58   25.70
   0  -2  -1  533.45   17.95
   0  -2  -1  542.98   21.54
   0  -2   0   70.95    5.20
   0  -2   0   73.72    7.64
   0  -2   0   73.99    8.48
   0  -2   0   72.07    7.75
   0  -2   1  552.72   20.52
   0  -2   1  512.18   10.45
   0  -2   2 3317.32   65.70
   0  -2   2 3160.75   53.35
   0  -2   3   95.52   11.98
   0  -2   3   87.17    9.50
   0  -2   3   96.90    5.86
   0  -2   3   85.44    8.44
   0  -2   4 3360.60   74.53
   0  -2   4 3289.63   63.78
   0  -2   5 1351.95   50.09
   0  -2   5 1268.94   29.61
   0  -2   6  136.39   16.70
   0  -2   6  131.09   11.13
   0  -2   7 1729.47   62.03
   0  -2   7 1618.55   42.96
   0  -2   8  716.00   42.93
   0  -2   8  688.21   31.01
   0  -2   9  102.77   17.48
   0  -2   9   96.14   12.65
   0  -2  10  138.93   21.22
   0  -2  10  119.29   15.14
   0  -2  11   90.17   18.76
   0  -2  11   59.09   11.70
   0  -2  12  132.88   24.48
   0  -2  12  102.02   16.03
   0  -2  13   41.08   15.68
   0  -2  14   50.91   17.38
   0  -2  15   60.56   19.83
   0  -2  16    0.35    7.71
   0  -1 -17    6.57    5.53
   0  -1 -16    6.09    4.63
   0  -1 -15   14.45    7.90
   0  -1 -15   -0.71    5.60
   0  -1 -14  104.46   16.37
   0  -1 -14   59.24   13.26
   0  -1 -14  116.71   19.39
   0  -1 -14  104.27   18.18
   0  -1 -13  186.67   22.85
   0  -1 -13  206.33   22.27
   0  -1 -13  227.13   25.56
   0  -1 -12  261.67   26.56
   0  -1 -12  240.31   22.12
   0  -1 -12  276.32   26.62
   0  -1 -11  640.81   39.61
   0  -1 -11  586.39   31.83
   0  -1 -11  662.76   39.09
   0  -1 -10  940.40   45.90
   0  -1 -10  774.64   33.46
   0  -1 -10  899.73   42.24
   0  -1 -10  776.65   18.74
   0  -1  -9  123.67   14.81
   0  -1  -9  128.74    9.38
   0  -1  -9  107.69    6.90
   0  -1  -8 1421.75   52.35
   0  -1  -8 1381.54   30.28
   0  -1  -8 1349.65   26.73
   0  -1  -7 1179.49   26.54
   0  -1  -7 1150.40   44.06
   0  -1  -7 1085.94   26.28
   0  -1  -6  231.56   11.97
   0  -1  -6  212.01   11.35
   0  -1  -6  209.69   19.88
   0  -1  -6  205.78   16.69
   0  -1  -5  462.67   26.59
   0  -1  -5  456.39   16.39
   0  -1  -5  438.10   22.89
   0  -1  -5  464.43   16.20
   0  -1  -4   54.52    7.93
   0  -1  -4   76.66    6.03
   0  -1  -4   63.22    7.88
   0  -1  -4   67.98    5.94
   0  -1  -3  535.06   21.17
   0  -1  -3  545.62   21.77
   0  -1  -3  561.26   16.33
   0  -1  -2   98.43    7.32
   0  -1  -2  106.42    8.53
   0  -1  -2  104.02    6.88
   0  -1   2 3488.93   43.51
   0  -1   2 3390.74   26.42
   0  -1   2 3478.99   37.86
   0  -1   3 1398.83   37.28
   0  -1   3 1377.04   23.52
   0  -1   3 1440.67   32.66
   0  -1   4  226.88   16.64
   0  -1   4  224.29   12.00
   0  -1   5 2584.78   60.07
   0  -1   5 2599.69   47.96
   0  -1   6  842.64   37.62
   0  -1   6  799.00   29.90
   0  -1   7    0.52    2.19
   0  -1   7    5.33    1.71
   0  -1   7    3.13    1.99
   0  -1   8  263.13   24.48
   0  -1   8  244.19   20.33
   0  -1   9   12.72    9.41
   0  -1   9    1.70    1.97
   0  -1  10  154.04   22.16
   0  -1  10  140.06   17.64
   0  -1  11   19.60   11.21
   0  -1  11    3.62    3.17
   0  -1  12  269.16   34.88
   0  -1  12  251.78   26.29
   0  -1  13  111.20   18.84
   0  -1  13  107.24   24.75
   0  -1  14    3.58    6.44
   0  -1  15   75.24   21.21
   0  -1  16   -0.17   11.74
   0  -1  17  -31.18   16.48
   0   0 -15   71.66   13.90
   0   0 -15   96.05   16.39
   0   0 -14   25.36    8.86
   0   0 -14   52.25   12.17
   0   0 -14   42.82   11.13
   0   0 -13  430.56   31.80
   0   0 -13  472.00   34.34
   0   0 -13  402.13   31.56
   0   0 -12  149.64   18.02
   0   0 -12  203.45   21.73
   0   0 -12  157.23   19.31
   0   0 -11  186.89   19.85
   0   0 -11  195.54   20.56
   0   0 -11  210.26   20.84
   0   0 -10 1062.96   44.95
   0   0 -10 1097.05   45.73
   0   0 -10 1188.71   45.64
   0   0  -9   73.62   10.75
   0   0  -9   48.65    4.30
   0   0  -8  298.67   20.09
   0   0  -8  227.00    9.49
   0   0  -7  233.50   17.60
   0   0  -7  227.93   20.67
   0   0  -7  238.66   16.33
   0   0  -7  206.13    9.33
   0   0  -6   13.90    4.80
   0   0  -6   12.15    3.65
   0   0  -6   11.05    5.47
   0   0  -6   14.39    4.27
   0   0  -6   11.91    2.25
   0   0  -5  989.80   35.37
   0   0  -5  959.62   27.29
   0   0  -5  972.30   30.93
   0   0  -4 1330.20   36.41
   0   0  -4 1438.22   33.60
   0   0  -3 7467.89   83.21
   0   0  -3 7319.02   66.22
   0   0   3 7660.52   79.26
   0   0   3 7493.33   70.39
   0   0   4 1398.42   38.31
   0   0   4 1473.59   40.16
   0   0   4 1483.30   36.43
   0   0   5 1070.77   38.78
   0   0   5 1048.38   37.54
   0   0   5 1035.83   34.75
   0   0   6   10.76    4.95
   0   0   6   22.50    6.88
   0   0   6   14.44    4.65
   0   0   7  247.20   23.64
   0   0   7  207.05   19.43
   0   0   7  225.52   19.59
   0   0   8  296.11   28.90
   0   0   8  230.76   22.43
   0   0   8  252.31   22.34
   0   0   9   60.70   15.29
   0   0   9   50.09   11.15
   0   0   9   55.24   11.01
   0   0  10  980.21   64.49
   0   0  10  948.27   48.77
   0   0  11  144.17   26.57
   0   0  11  178.57   22.51
   0   0  12  103.85   24.59
   0   0  12  127.73   19.82
   0   0  13  310.09   47.43
   0   0  13  421.47   37.76
   0   0  14   11.82    7.85
   0   0  15  113.62   30.23
   0   0  16  112.71   30.31
   0   0  17   13.50   14.36
   0   1 -16   63.97   15.97
   0   1 -16   51.85   13.62
   0   1 -15   98.23   16.70
   0   1 -15   89.86   17.71
   0   1 -14    7.67    5.40
   0   1 -13  107.21   14.42
   0   1 -13  127.65   18.13
   0   1 -12  255.85   21.21
   0   1 -12  283.69   26.05
   0   1 -11    6.60    3.94
   0   1 -11    7.67    4.57
   0   1 -11   -0.37    2.89
   0   1 -10  149.05   15.01
   0   1 -10  164.84   18.30
   0   1 -10   93.22    5.37
   0   1 -10  135.21   14.32
   0   1 -10   72.72    4.49
   0   1  -9    0.77    0.81
   0   1  -9   -1.85    2.94
   0   1  -9    2.16    3.02
   0   1  -8  279.46   21.19
   0   1  -8  319.37   18.62
   0   1  -8  265.36   17.86
   0   1  -7    4.02    1.64
   0   1  -7    5.18    3.76
   0   1  -7    7.16    3.56
   0   1  -7    0.80    1.42
   0   1  -6  893.64   33.04
   0   1  -6  893.63   27.15
   0   1  -6  851.15   20.15
   0   1  -5 2905.66   54.49
   0   1  -5 2677.00   65.92
   0   1  -5 2978.82   39.03
   0   1  -5 2746.73   66.60
   0   1  -5 2878.97   43.01
   0   1  -5 2897.37   36.88
   0   1  -4  233.02   10.33
   0   1  -4  216.23   17.02
   0   1  -4  237.77   14.03
   0   1  -4  228.85   17.03
   0   1  -4  232.10   10.23
   0   1  -3 1524.96   40.51
   0   1  -3 1441.66   31.03
   0   1  -3 1459.32   37.05
   0   1  -3 1447.89   19.98
   0   1  -3 1494.43   25.03
   0   1  -2 3656.69   56.14
   0   1  -2 3590.16   42.21
   0   1  -2 3584.02   46.72
   0   1  -2 3668.60   38.79
   0   1  -1  631.63   20.86
   0   1   2   95.55    7.07
   0   1   2  100.63    8.44
   0   1   2  105.00    6.91
   0   1   3  534.68   20.61
   0   1   3  576.90   23.09
   0   1   3  585.20   17.59
   0   1   4   85.11   11.69
   0   1   4   61.40    7.98
   0   1   4   65.20    8.99
   0   1   4   79.90    7.82
   0   1   5  446.36   24.02
   0   1   5  467.58   26.15
   0   1   6  257.44   31.32
   0   1   6  197.07   17.83
   0   1   6  211.11   19.19
   0   1   7  976.63   42.04
   0   1   7 1045.91   45.84
   0   1   8 1225.76   50.73
   0   1   8 1364.41   55.46
   0   1   9  152.75   28.93
   0   1   9  112.29   16.70
   0   1   9  124.45   17.97
   0   1  10  759.20   44.47
   0   1  10  857.99   49.33
   0   1  11  537.78   39.41
   0   1  11  566.32   42.05
   0   1  12  368.93   49.96
   0   1  12  239.73   28.79
   0   1  13  317.67   46.91
   0   1  13  174.61   25.50
   0   1  14  164.84   35.96
   0   1  15   28.18   17.34
   0   1  16   27.48   15.04
   0   2 -16    9.30    5.35
   0   2 -16   30.83   12.73
   0   2 -15   23.11    8.57
   0   2 -14   36.34   10.74
   0   2 -13   31.83    9.58
   0   2 -12  137.18   18.92
   0   2 -11   64.93    9.16
   0   2 -11   87.35   14.59
   0   2 -10  132.64   12.26
   0   2 -10  149.50   18.13
   0   2  -9  132.20   16.01
   0   2  -9  106.95    8.57
   0   2  -9  116.33    9.97
   0   2  -9  107.51   10.56
   0   2  -9  131.51    7.04
   0   2  -8  758.15   25.69
   0   2  -8  841.18   38.02
   0   2  -8  749.48   23.84
   0   2  -8  733.02   13.33
   0   2  -8  815.74   24.49
   0   2  -7 1838.91   36.72
   0   2  -7 1939.33   54.44
   0   2  -7 1987.87   35.29
   0   2  -7 1836.44   38.13
   0   2  -6  146.45    9.15
   0   2  -6  148.88   14.48
   0   2  -6  145.17   10.92
   0   2  -5 1477.75   41.95
   0   2  -5 1353.58   47.64
   0   2  -5 1411.71   34.02
   0   2  -4 3500.68   59.04
   0   2  -4 3475.74   78.83
   0   2  -4 3416.71   67.17
   0   2  -4 3561.36   54.17
   0   2  -3   94.46    8.80
   0   2  -3  103.84   13.03
   0   2  -3   89.62    9.44
   0   2  -3   99.88    9.26
   0   2  -2 3380.65   68.46
   0   2  -2 3260.37   48.54
   0   2  -2 3359.08   52.69
   0   2  -1  486.46   18.91
   0   2  -1  306.24   16.29
   0   2   0   79.22    7.89
   0   2   0   85.85    8.72
   0   2   1  534.34   14.30
   0   2   1  506.03   19.92
   0   2   2  611.63   19.63
   0   2   2  534.08   20.80
   0   2   3 1381.26   33.80
   0   2   3 1380.95   34.34
   0   2   4   40.48    6.76
   0   2   4   42.61    7.95
   0   2   4   37.89    5.91
   0   2   5 3389.56   67.82
   0   2   5 3492.46   77.39
   0   2   5 3642.43   62.55
   0   2   6 2453.73   62.41
   0   2   6 2622.45   72.48
   0   2   7   15.59    7.95
   0   2   7    6.80    9.44
   0   2   8 1889.97   63.41
   0   2   8 1992.85   72.11
   0   2   9  775.61   43.73
   0   2   9  806.97   48.49
   0   2  10    8.02    5.61
   0   2  10    4.67    6.57
   0   2  11  174.07   22.76
   0   2  11  184.97   25.93
   0   2  12    6.07    6.50
   0   2  13   50.64   14.08
   0   3 -16    3.18    4.08
   0   3 -15   18.22    7.65
   0   3 -14    3.40    4.42
   0   3 -13   30.33    9.90
   0   3 -12   70.89   13.56
   0   3 -11   16.23    6.37
   0   3 -10  424.97   30.70
   0   3  -9  205.53   21.05
   0   3  -9  182.07   13.99
   0   3  -8   59.11   10.74
   0   3  -8   45.66    4.58
   0   3  -8   51.10    7.45
   0   3  -7 1529.96   50.14
   0   3  -7 1395.56   39.73
   0   3  -6  476.40   23.53
   0   3  -6  510.42   27.45
   0   3  -5  289.53   18.80
   0   3  -5  305.07   20.31
   0   3  -4  831.98   32.09
   0   3  -4  747.11   33.48
   0   3  -4  789.51   31.07
   0   3  -3  153.02   13.21
   0   3  -3  152.36   13.18
   0   3  -3  154.82   13.84
   0   3  -2  820.98   29.01
   0   3  -2  878.62   32.58
   0   3  -1   10.95    3.42
   0   3  -1   12.95    4.01
   0   3   0  546.30   25.32
   0   3   0  688.97   31.54
   0   3   1 2080.65   49.70
   0   3   1 1981.93   31.51
   0   3   2  640.95   27.57
   0   3   2  679.54   22.08
   0   3   3 1654.07   40.34
   0   3   3 1531.96   43.26
   0   3   4 1612.52   43.77
   0   3   4 1486.59   42.87
   0   3   5    3.21    2.68
   0   3   5    4.40    4.23
   0   3   6 1827.97   55.96
   0   3   6 1872.77   53.02
   0   3   7  301.30   24.44
   0   3   7  334.18   23.72
   0   3   8   32.97    9.15
   0   3   8   23.79    7.59
   0   3   9  334.04   29.24
   0   3   9  342.71   31.50
   0   3  10   33.90   10.00
   0   3  11  277.35   29.35
   0   3  12    5.59    6.70
   0   3  13   88.47   18.83
   0   3  14   88.43   19.61
   0   4 -14   18.39    8.02
   0   4 -13   24.05   10.45
   0   4 -12  194.78   24.56
   0   4 -11   59.45   14.00
   0   4 -10  173.51   21.63
   0   4  -9  459.52   33.16
   0   4  -9  263.67   19.64
   0   4  -8   37.84    9.47
   0   4  -8   35.09    7.36
   0   4  -7   57.71    9.46
   0   4  -7   58.84   11.07
   0   4  -6  368.13   25.87
   0   4  -6  287.99   21.41
   0   4  -5    2.65    3.00
   0   4  -5    1.29    3.21
   0   4  -4   81.61   11.14
   0   4  -4   84.40   12.07
   0   4  -4   84.00   11.81
   0   4  -3  108.71   13.48
   0   4  -3  115.98   12.79
   0   4  -3  112.78   12.25
   0   4  -2  543.41   29.35
   0   4  -2  552.24   28.28
   0   4  -1  477.33   27.65
   0   4  -1  555.06   30.90
   0   4   0 1172.19   43.51
   0   4   1 2045.61   36.58
   0   4   1 2215.33   59.71
   0   4   2  802.66   35.83
   0   4   2  776.85   25.25
   0   4   3 1649.94   52.15
   0   4   3 1682.88   43.24
   0   4   4 1139.01   38.89
   0   4   4 1020.79   40.64
   0   4   5  181.08   17.37
   0   4   5  196.58   17.65
   0   4   5  160.75    8.78
   0   4   6  298.36   23.62
   0   4   6  293.63   23.55
   0   4   7  262.49   23.56
   0   4   7  238.98   21.32
   0   4   8  121.19   16.98
   0   4   8  125.50   16.73
   0   4   9   25.84    8.41
   0   4   9   24.97    8.97
   0   4  10    1.81    4.53
   0   4  10   -3.61    5.43
   0   4  11  331.22   33.62
   0   4  12  126.95   21.08
   0   4  13   61.92   16.47
   0   4  14  226.10   31.80
   0   5 -13    7.09    5.51
   0   5 -12   76.03   16.50
   0   5 -11  155.22   22.76
   0   5 -10    2.72    5.97
   0   5  -9  131.38   18.88
   0   5  -8   13.51    8.15
   0   5  -8   15.23    6.13
   0   5  -7   81.22   14.36
   0   5  -7   84.16   13.01
   0   5  -6  116.17   16.00
   0   5  -6  113.30   15.22
   0   5  -5  310.47   24.95
   0   5  -5  336.86   26.36
   0   5  -4  599.64   35.45
   0   5  -4  576.35   33.58
   0   5  -3  105.03   13.31
   0   5  -3  118.36   17.02
   0   5  -3  111.73   16.12
   0   5  -2  772.00   40.07
   0   5  -2  826.18   42.62
   0   5  -1 1544.23   57.05
   0   5   0   31.64    9.47
   0   5   1  604.90   22.77
   0   5   1  610.79   35.80
   0   5   2  809.11   28.03
   0   5   2  866.40   42.58
   0   5   3    2.82    3.16
   0   5   3    8.88    8.08
   0   5   4  427.27   29.92
   0   5   4  457.73   25.93
   0   5   5   16.27    8.51
   0   5   5    6.36    4.64
   0   5   6  209.17   19.93
   0   5   6  188.80   21.49
   0   5   7    7.95    4.71
   0   5   7    3.56    7.27
   0   5   8  120.63   17.60
   0   5   8   97.13   16.11
   0   5   9  873.84   49.44
   0   5   9  785.28   46.82
   0   5  10   22.77    9.53
   0   5  10   27.56    9.33
   0   5  11  184.69   25.19
   0   5  11  151.97   25.79
   0   5  12  299.89   33.82
   0   5  12  270.23   36.16
   0   5  13   13.40    8.35
   0   5  14  115.81   22.79
   0   6 -11   21.72    9.91
   0   6 -10    8.96    6.70
   0   6  -9   42.95   12.53
   0   6  -8    3.63    3.63
   0   6  -8    6.23    4.27
   0   6  -7  109.00   17.60
   0   6  -7   91.37   14.95
   0   6  -6  181.86   20.80
   0   6  -6  191.34   23.42
   0   6  -5   -4.04    3.98
   0   6  -5    2.26    2.69
   0   6  -4  617.79   39.43
   0   6  -4  717.14   44.67
   0   6  -3  195.85   22.40
   0   6  -3  209.59   23.86
   0   6  -2   29.64    9.74
   0   6  -1  810.46   45.61
   0   6   0  119.60   11.27
   0   6   0  154.64   20.29
   0   6   1   -0.01    1.37
   0   6   1    2.52    5.29
   0   6   2  207.34   23.25
   0   6   2  168.30   13.28
   0   6   3   11.14    3.36
   0   6   3   16.38    7.08
   0   6   4  320.55   21.21
   0   6   4  255.62   25.58
   0   6   5    7.33    3.99
   0   6   5   10.34    8.78
   0   6   6  246.04   21.90
   0   6   6  207.72   22.83
   0   6   7  567.28   35.49
   0   6   7  470.10   35.58
   0   6   8    3.67    5.75
   0   6   8   -1.21    3.50
   0   6   9  326.27   30.01
   0   6   9  278.50   29.42
   0   6  10  228.83   26.90
   0   6  10  180.14   25.26
   0   6  11    4.17    5.51
   0   6  11   -0.30    5.27
   0   6  12  105.45   19.65
   0   6  12   96.16   22.38
   0   6  13   11.64    6.34
   0   6  14   17.77    9.32
   0   7  -8   71.69   17.95
   0   7  -7   62.17   16.33
   0   7  -7   19.86    8.07
   0   7  -6  154.51   24.49
   0   7  -6  100.50   17.08
   0   7  -5   87.55   16.27
   0   7  -5  116.52   20.50
   0   7  -4   69.63   15.09
   0   7  -3  200.58   24.80
   0   7  -2   26.01   10.09
   0   7  -1   52.46   14.61
   0   7   0   20.76    9.05
   0   7   1  280.10   30.02
   0   7   2  222.28   26.77
   0   7   3   88.05   16.75
   0   7   4  183.02   23.66
   0   7   5  264.29   28.71
   0   7   6   58.35   13.84
   0   7   7  232.51   27.44
   0   7   8   39.76   12.99
   0   7   9   27.40   10.74
   0   7  10   70.48   17.07
   0   7  11   -1.53    5.85
   0   7  12   39.91   14.91
   0   7  13  -11.04    9.73
   0   8  -6   17.52    8.95
   0   8  -5   23.93    9.12
   0   8  -4   -0.66    3.03
   0   8  -3   65.02   15.68
   0   8  -2    1.46    4.92
   0   8  -1   15.13    7.40
   0   8   0   95.67   19.18
   0   8   1   30.49   11.98
   0   8   2  173.24   25.58
   0   8   3    9.99    9.05
   0   8   4   80.12   17.69
   0   8   5  191.49   27.17
   0   8   6   11.74    9.08
   0   8   7   28.24   12.03
   0   8   8   32.17   11.97
   0   8   9    0.80    5.34
   0   8  10   46.00   13.45
   0   8  11    4.78    7.79
   0   8  12   22.91   11.56
   0   8  13   60.06   19.60
   0   9  -2    2.75    5.62
   0   9  -1   43.13   13.30
   0   9   0   90.49   20.82
   0   9   1    2.18    6.00
   0   9   2   47.44   15.34
   0   9   3   76.55   19.18
   0   9   4    9.05    6.68
   1  -9  -5   -9.16    7.07
   1  -9  -4   40.93   12.49
   1  -9   2    2.10    4.73
   1  -8 -10   16.59    9.60
   1  -8  -9   34.06   12.33
   1  -8  -8   23.08   11.22
   1  -8  -8   13.70    7.13
   1  -8  -7   58.17   14.96
   1  -8  -7   38.36   12.54
   1  -8  -6   46.12   13.00
   1  -8  -6   54.45   14.88
   1  -8  -5   21.28    8.84
   1  -8  -4   54.07   13.46
   1  -8  -3   37.07   10.75
   1  -8  -2   -4.10    5.11
   1  -8  -1   45.17   10.79
   1  -8  -1   58.75   13.44
   1  -8   0   -1.42    2.58
   1  -8   1   27.91    9.87
   1  -8   2   14.46    7.78
   1  -8   3   11.18    8.15
   1  -8   4   59.57   16.72
   1  -8   5   16.38   11.95
   1  -7 -11   95.01   20.37
   1  -7 -11  121.79   23.34
   1  -7 -10    7.59    7.07
   1  -7 -10    6.90    6.33
   1  -7  -9  119.82   21.25
   1  -7  -9  118.53   22.08
   1  -7  -8  135.64   22.16
   1  -7  -8  129.82   21.82
   1  -7  -7    1.92    5.73
   1  -7  -7   -1.34    6.06
   1  -7  -6   43.40   12.95
   1  -7  -6   48.53   12.86
   1  -7  -5   63.63   14.43
   1  -7  -5   56.98   13.01
   1  -7  -4   83.66   16.06
   1  -7  -4   74.19   14.68
   1  -7  -3   19.15    8.26
   1  -7  -3    9.45    4.81
   1  -7  -3   11.03    4.98
   1  -7  -2    5.65    4.94
   1  -7  -2    4.74    2.37
   1  -7  -1  191.37   22.79
   1  -7  -1  197.61   21.54
   1  -7   0   63.66   13.26
   1  -7   0   61.65   11.42
   1  -7   1  122.62   19.49
   1  -7   1  119.78   15.60
   1  -7   2  237.09   28.68
   1  -7   3   10.71    7.41
   1  -7   4   61.54   16.18
   1  -7   5   98.11   20.18
   1  -7   6    6.71    6.65
   1  -7   7   43.08   14.49
   1  -6 -13   70.41   18.71
   1  -6 -13   81.21   19.00
   1  -6 -12    2.57    5.07
   1  -6 -12   -2.47    3.72
   1  -6 -11   99.08   19.44
   1  -6 -11   95.09   19.49
   1  -6 -10   68.68   15.78
   1  -6 -10   62.39   15.82
   1  -6  -9   12.37    7.99
   1  -6  -9   10.47    6.88
   1  -6  -8  136.33   21.18
   1  -6  -8  115.76   20.30
   1  -6  -7    3.15    3.82
   1  -6  -7   -0.22    4.89
   1  -6  -6   36.55   12.24
   1  -6  -6   30.39   11.13
   1  -6  -5   35.09    9.33
   1  -6  -5   22.20    6.00
   1  -6  -5   23.91    8.22
   1  -6  -4  101.05   17.12
   1  -6  -4   65.87   10.95
   1  -6  -4   77.68   14.71
   1  -6  -3  136.68   17.93
   1  -6  -3  119.21   15.44
   1  -6  -3  118.88   17.36
   1  -6  -2   22.45    7.13
   1  -6  -2   16.07    6.12
   1  -6  -2   11.81    6.04
   1  -6  -1  201.90   19.09
   1  -6  -1  190.97   21.25
   1  -6  -1  180.22   19.62
   1  -6   0  167.48   15.79
   1  -6   0  164.82   20.33
   1  -6   0  178.05   18.58
   1  -6   1    1.81    3.39
   1  -6   1   -0.45    1.61
   1  -6   2  301.95   30.24
   1  -6   2  317.57   22.23
   1  -6   3   63.16   14.61
   1  -6   4    1.83    6.63
   1  -6   5   92.29   18.79
   1  -6   6    1.49    5.90
   1  -6   7   31.20   12.61
   1  -6   8   21.71   11.47
   1  -6   9   58.89   18.16
   1  -5 -14   53.38   15.46
   1  -5 -14   20.34   10.71
   1  -5 -13   98.43   21.21
   1  -5 -13  100.70   20.14
   1  -5 -12   37.01   12.83
   1  -5 -12   30.72   10.16
   1  -5 -12   37.06   10.45
   1  -5 -11   57.31   14.10
   1  -5 -11   58.04   13.96
   1  -5 -10   99.58   18.00
   1  -5 -10   86.91   16.68
   1  -5  -9   -2.04    4.63
   1  -5  -9   -4.49    5.69
   1  -5  -8   38.38   11.28
   1  -5  -7   10.62    3.36
   1  -5  -7   31.42   11.62
   1  -5  -6  798.25   30.54
   1  -5  -6  855.93   48.45
   1  -5  -5  115.55   12.32
   1  -5  -4   80.21   11.67
   1  -5  -3 1695.79   59.26
   1  -5  -3 1550.59   50.26
   1  -5  -2  666.39   35.61
   1  -5  -2  650.18   34.21
   1  -5  -2  635.91   36.75
   1  -5  -1  365.93   25.27
   1  -5  -1  324.36   26.99
   1  -5  -1  337.20   25.34
   1  -5   0  876.65   34.06
   1  -5   0  843.79   43.02
   1  -5   0  851.30   38.36
   1  -5   1  154.74   12.27
   1  -5   1  141.46   18.87
   1  -5   1  122.64   14.17
   1  -5   2   39.32    5.54
   1  -5   2   51.33   12.63
   1  -5   2   43.93    8.55
   1  -5   3  237.92   26.22
   1  -5   3  254.29   16.95
   1  -5   4  188.72   25.08
   1  -5   4  173.42   11.36
   1  -5   5   73.66   15.86
   1  -5   5  133.54   15.09
   1  -5   6   14.67    8.59
   1  -5   7  166.43   27.18
   1  -5   8  197.32   30.24
   1  -5   9   55.31   17.15
   1  -5  10  159.62   29.10
   1  -5  11   47.64   18.57
   1  -4 -16   52.03   16.33
   1  -4 -15   65.53   17.63
   1  -4 -15   59.91   15.67
   1  -4 -14    3.21    5.78
   1  -4 -14   -0.11    3.46
   1  -4 -13   17.13    8.79
   1  -4 -13    8.80    5.71
   1  -4 -12   17.24    7.47
   1  -4 -12   17.84    7.87
   1  -4 -12    6.49    3.18
   1  -4 -11   88.13   15.66
   1  -4 -10   38.63   10.59
   1  -4  -9   62.05   12.85
   1  -4  -8  526.07   37.96
   1  -4  -7  134.19   18.30
   1  -4  -7  105.77   16.53
   1  -4  -6  418.63   31.86
   1  -4  -5  934.36   29.70
   1  -4  -4  371.47   19.91
   1  -4  -3  324.54   20.49
   1  -4  -2  646.53   30.54
   1  -4  -1   32.01    7.57
   1  -4   0  184.68   18.24
   1  -4   0  183.35   16.36
   1  -4   1   32.67    5.39
   1  -4   1   34.36    8.07
   1  -4   1   32.46    6.74
   1  -4   2  303.38   12.53
   1  -4   2  340.26   27.83
   1  -4   2  362.47   20.09
   1  -4   3   68.01   13.71
   1  -4   3   51.53    7.09
   1  -4   4  160.36   20.86
   1  -4   4  131.11    7.86
   1  -4   5  516.62   38.78
   1  -4   5  504.06   27.72
   1  -4   6  251.87   29.48
   1  -4   6  153.07   15.55
   1  -4   7  419.68   38.58
   1  -4   7  340.34   23.33
   1  -4   8  239.45   30.62
   1  -4   8  235.44   19.85
   1  -4   9  186.09   29.48
   1  -4  10  113.81   24.08
   1  -4  11  116.99   25.84
   1  -4  12   22.74   14.67
   1  -3 -17   11.00    9.14
   1  -3 -16    1.68    5.48
   1  -3 -16    3.43    5.33
   1  -3 -15   45.78   14.43
   1  -3 -15   55.96   14.96
   1  -3 -14  -11.09    6.92
   1  -3 -14   -1.69    4.39
   1  -3 -13  229.31   29.77
   1  -3 -13  201.04   26.29
   1  -3 -12    3.08    4.34
   1  -3 -11   95.80   16.88
   1  -3 -11   93.94   13.05
   1  -3 -10  885.31   48.62
   1  -3  -9    5.52    2.97
   1  -3  -9    0.93    2.84
   1  -3  -8  490.77   20.64
   1  -3  -8  783.26   43.00
   1  -3  -7  946.08   29.84
   1  -3  -7  847.20   43.32
   1  -3  -6  139.63   17.10
   1  -3  -6  159.75   18.67
   1  -3  -5  853.78   40.78
   1  -3  -4  298.64   14.34
   1  -3  -4  386.86   24.73
   1  -3  -3    7.00    2.56
   1  -3  -2   20.04    4.64
   1  -3  -1   39.33    7.19
   1  -3  -1   35.16    6.59
   1  -3   0 1131.35   39.97
   1  -3   0 1175.19   37.24
   1  -3   1   55.21    9.38
   1  -3   1   60.21    7.81
   1  -3   2 2424.63   66.01
   1  -3   2 2503.30   44.91
   1  -3   3 1960.10   63.30
   1  -3   3 1902.08   31.91
   1  -3   4   58.60   12.09
   1  -3   4   33.80    2.97
   1  -3   5 1285.31   56.21
   1  -3   5 1162.54   42.85
   1  -3   6 1065.92   37.26
   1  -3   6 1088.02   41.68
   1  -3   7    5.69    3.44
   1  -3   7    3.71    4.31
   1  -3   7    1.75    1.75
   1  -3   8  176.83   24.44
   1  -3   8  170.68   16.66
   1  -3   9   54.00   14.62
   1  -3   9   38.00    8.40
   1  -3  10   21.32   11.52
   1  -3  10   10.93    4.73
   1  -3  11   36.43   14.33
   1  -3  12   43.21   16.54
   1  -3  13   81.32   22.64
   1  -3  14   11.95   13.07
   1  -2 -17    3.29    5.48
   1  -2 -16   15.89    8.47
   1  -2 -16    6.07    5.89
   1  -2 -15   68.24   17.00
   1  -2 -15   59.23   15.50
   1  -2 -14   -2.40    8.25
   1  -2 -14    5.17    4.44
   1  -2 -13  218.10   26.46
   1  -2 -12  208.33   24.38
   1  -2 -11    1.93    1.66
   1  -2 -11    8.19    3.72
   1  -2 -11    7.74    6.91
   1  -2 -10  874.88   36.99
   1  -2 -10  938.66   48.48
   1  -2 -10  881.85   33.42
   1  -2  -9  447.62   23.91
   1  -2  -9  455.23   23.46
   1  -2  -9  484.24   33.29
   1  -2  -8  169.31   13.07
   1  -2  -8  182.92   19.31
   1  -2  -7  506.44   19.92
   1  -2  -7  518.81   31.31
   1  -2  -6  317.49   13.88
   1  -2  -6  315.21   23.17
   1  -2  -6  305.85   20.78
   1  -2  -5  969.27   41.11
   1  -2  -5  943.80   38.56
   1  -2  -5  946.60   36.04
   1  -2  -4    5.33    2.14
   1  -2  -4    5.65    3.14
   1  -2  -4    1.91    1.39
   1  -2  -4    4.51    1.89
   1  -2  -4    7.25    3.14
   1  -2  -3  542.50   15.52
   1  -2  -3  564.92   29.64
   1  -2  -2 1435.11   28.32
   1  -2  -2 1401.14   40.58
   1  -2  -2 1355.27   42.16
   1  -2  -1   27.49    6.24
   1  -2  -1   23.01    4.38
   1  -2  -1   21.67    4.71
   1  -2   0 3289.22   55.51
   1  -2   0 3285.00   52.87
   1  -2   0 3446.26   64.27
   1  -2   1 2033.14   48.04
   1  -2   1 2111.47   38.11
   1  -2   1 2042.37   48.22
   1  -2   2   65.53    9.88
   1  -2   2   54.53    9.09
   1  -2   2   56.85    5.48
   1  -2   2   65.36    8.65
   1  -2   3 1704.00   51.15
   1  -2   3 1743.33   48.32
   1  -2   3 1761.07   44.08
   1  -2   4 2068.53   60.18
   1  -2   4 1870.25   44.14
   1  -2   5  158.75   18.18
   1  -2   5  147.94   12.44
   1  -2   5  141.00   12.05
   1  -2   6   98.64   15.44
   1  -2   6   90.56   10.43
   1  -2   6   86.89    9.31
   1  -2   7   87.39   15.12
   1  -2   7   89.29   11.02
   1  -2   8  232.21   26.30
   1  -2   8  206.67   18.13
   1  -2   9   26.83   11.72
   1  -2   9   -0.49    2.09
   1  -2  10  342.32   35.96
   1  -2  10  312.56   25.66
   1  -2  11  167.75   27.56
   1  -2  11  154.83   18.96
   1  -2  12   10.88   11.21
   1  -2  12    6.79    4.96
   1  -2  13  174.05   31.08
   1  -2  14  109.89   26.43
   1  -2  15  -12.07   11.38
   1  -1 -17   11.16    7.43
   1  -1 -16    6.40    4.51
   1  -1 -15  126.60   21.82
   1  -1 -15  154.07   24.74
   1  -1 -14   46.98   13.52
   1  -1 -14   41.01   12.34
   1  -1 -13   91.51   17.08
   1  -1 -12  502.80   37.08
   1  -1 -11   85.83   14.66
   1  -1 -10   42.09    4.63
   1  -1 -10   43.82    7.49
   1  -1 -10   43.95   10.59
   1  -1  -9  358.18   24.32
   1  -1  -9  406.03   28.51
   1  -1  -9  356.46   20.70
   1  -1  -9  364.00   15.95
   1  -1  -8   73.48   10.03
   1  -1  -8   74.28   11.77
   1  -1  -8   74.37    9.42
   1  -1  -7  153.10   12.93
   1  -1  -7  159.16   14.03
   1  -1  -7  163.44   16.15
   1  -1  -6   93.00    8.80
   1  -1  -6  103.41   12.36
   1  -1  -6   98.87   10.72
   1  -1  -5  807.47   21.59
   1  -1  -5  771.63   35.04
   1  -1  -5  873.62   33.86
   1  -1  -5  848.22   37.39
   1  -1  -5  860.87   32.07
   1  -1  -4  743.89   16.07
   1  -1  -4  759.26   32.19
   1  -1  -4  804.19   30.42
   1  -1  -4  805.33   34.75
   1  -1  -4  785.76   30.63
   1  -1  -3  937.47   15.99
   1  -1  -3  976.95   34.09
   1  -1  -3  957.87   31.07
   1  -1  -3 1004.30   33.84
   1  -1  -2 7760.72   84.26
   1  -1  -2 7275.87   79.32
   1  -1  -1 2119.45   26.34
   1  -1  -1 2043.64   39.11
   1  -1  -1 2492.75   42.87
   1  -1  -1 2530.30   50.59
   1  -1   0  802.50   20.74
   1  -1   0  778.98   20.60
   1  -1   1 3583.35   52.50
   1  -1   1 3570.67   37.01
   1  -1   1 3781.13   54.09
   1  -1   1 3748.93   75.46
   1  -1   2 1464.02   35.17
   1  -1   2 1376.37   36.84
   1  -1   2 1478.14   22.63
   1  -1   2 1431.82   31.82
   1  -1   3  367.19   20.98
   1  -1   3  384.48   17.75
   1  -1   3  370.25   10.71
   1  -1   3  360.42   14.95
   1  -1   4  312.08   11.83
   1  -1   4  298.11   21.08
   1  -1   4  336.23   17.98
   1  -1   4  354.66   16.82
   1  -1   4  301.04   13.37
   1  -1   5    2.95    1.41
   1  -1   5    9.27    5.63
   1  -1   5    2.92    2.15
   1  -1   5    3.40    2.55
   1  -1   6  265.28   23.60
   1  -1   6  245.85   18.27
   1  -1   6  244.67   16.69
   1  -1   7   12.74    5.41
   1  -1   7   13.65    6.13
   1  -1   8  868.48   49.10
   1  -1   8  803.03   36.03
   1  -1   9  257.27   29.42
   1  -1   9  235.36   16.92
   1  -1   9  237.99   21.51
   1  -1  10   23.49   10.24
   1  -1  10   15.78    4.26
   1  -1  10   17.15    6.07
   1  -1  11  706.87   56.22
   1  -1  11  717.97   42.21
   1  -1  12   97.32   22.80
   1  -1  12  114.31   18.24
   1  -1  13   12.88    4.60
   1  -1  13   33.92   10.44
   1  -1  14   56.82   17.12
   1  -1  14  100.54   18.97
   1  -1  15  -11.63   15.82
   1  -1  16   -6.55   15.48
   1   0 -16   -0.64    4.43
   1   0 -16   -7.07    6.90
   1   0 -15   63.56   14.90
   1   0 -15   51.42   13.58
   1   0 -14  317.43   32.09
   1   0 -14  219.05   28.08
   1   0 -14  283.23   30.12
   1   0 -13   61.02   14.43
   1   0 -12  376.92   32.06
   1   0 -11    5.89    4.40
   1   0 -10   21.01    7.08
   1   0 -10   11.40    3.49
   1   0  -9  244.72   21.02
   1   0  -9  221.69   16.69
   1   0  -8  338.09   25.07
   1   0  -8  388.91   24.77
   1   0  -8  368.16   21.98
   1   0  -7 1708.75   52.45
   1   0  -7 1614.51   50.31
   1   0  -6  197.80   16.31
   1   0  -6  207.74   15.86
   1   0  -6  178.08   16.04
   1   0  -5 1047.50   32.81
   1   0  -5  975.22   40.49
   1   0  -5  996.01   32.32
   1   0  -5  985.70   35.26
   1   0  -4 5048.91   63.45
   1   0  -4 4889.78   81.82
   1   0  -4 4873.44   65.54
   1   0  -4 5145.91   74.77
   1   0  -3  411.98   15.48
   1   0  -3  386.57   20.07
   1   0  -3  388.55   16.81
   1   0  -2 3952.63   58.19
   1   0  -2 3402.16   45.34
   1   0  -1 2876.29   33.69
   1   0   1 3740.32   80.21
   1   0   2   65.40    4.77
   1   0   2   50.01   10.11
   1   0   2   66.32    4.90
   1   0   2   56.44    8.12
   1   0   2   65.36    5.86
   1   0   3  906.84   20.05
   1   0   3  878.71   41.55
   1   0   3  922.66   19.38
   1   0   3  945.69   23.82
   1   0   3  859.36   18.31
   1   0   4   32.53    4.78
   1   0   4   39.24    6.22
   1   0   4   31.50    9.28
   1   0   4   33.26    4.40
   1   0   4   36.58    5.44
   1   0   5 1102.15   50.89
   1   0   5 1079.41   30.64
   1   0   5 1115.20   33.67
   1   0   6 2321.32   79.95
   1   0   6 2275.72   55.07
   1   0   6 2136.94   40.89
   1   0   7   73.34   15.75
   1   0   7   63.90    7.19
   1   0   7   58.56    9.57
   1   0   8  837.62   54.85
   1   0   8  893.97   40.63
   1   0   8  891.31   25.75
   1   0   9 1677.65   36.94
   1   0   9 1733.60   60.21
   1   0  10   36.17   11.17
   1   0  10   45.66    6.10
   1   0  10   55.88   11.49
   1   0  11   32.26   11.10
   1   0  11   76.00   14.53
   1   0  12  351.99   45.56
   1   0  12  513.93   39.64
   1   0  13   -1.46    8.48
   1   0  13   10.47    6.41
   1   0  14   19.12   11.20
   1   0  14   15.19    7.42
   1   0  15   -6.62    9.49
   1   0  15   -1.41    3.97
   1   0  16   30.65   16.09
   1   0  16   17.50    8.92
   1   0  17   53.74   20.31
   1   1 -17    4.96    4.81
   1   1 -16   31.03   10.41
   1   1 -15    4.09    4.65
   1   1 -14   34.18   10.19
   1   1 -14   35.97   11.60
   1   1 -13    0.34    3.16
   1   1 -12   54.92   12.37
   1   1 -12   33.13    9.86
   1   1 -11  158.83   20.31
   1   1 -11  161.65   20.45
   1   1 -10  541.31   35.37
   1   1 -10  611.34   36.90
   1   1  -9  574.03   32.76
   1   1  -8   57.81   10.00
   1   1  -8   45.12    8.25
   1   1  -7 2310.52   55.25
   1   1  -7 1904.71   49.40
   1   1  -6 1979.91   59.53
   1   1  -6 1793.07   43.84
   1   1  -5  192.04   17.24
   1   1  -5  165.75   17.31
   1   1  -5  209.42   14.97
   1   1  -5  152.23   11.48
   1   1  -4 2803.89   60.60
   1   1  -4 2492.60   59.32
   1   1  -4 2970.46   53.07
   1   1  -4 2439.30   41.89
   1   1  -3 4068.28   47.20
   1   1  -3 4151.83   38.08
   1   1  -2  981.17   47.33
   1   1  -2  948.82   27.30
   1   1  -1  152.96   13.49
   1   1  -1  128.83    8.39
   1   1  -1  143.54    7.99
   1   1   2    2.02    1.26
   1   1   2    1.83    1.23
   1   1   2    2.86    1.76
   1   1   2    2.42    1.38
   1   1   3 3171.19   44.76
   1   1   3 3247.31   50.40
   1   1   3 3176.09   33.14
   1   1   4 4155.94   59.15
   1   1   4 4270.39   54.56
   1   1   4 4193.12   65.70
   1   1   4 4078.91   34.32
   1   1   5  161.01    6.85
   1   1   5  172.51   11.36
   1   1   5  168.10   14.70
   1   1   6 2457.52   61.91
   1   1   6 2501.43   45.59
   1   1   7 2056.71   43.56
   1   1   7 2091.14   61.50
   1   1   8   47.99    6.98
   1   1   8   51.58   10.55
   1   1   9  651.45   57.18
   1   1   9  408.19   30.82
   1   1  10  495.08   51.39
   1   1  10  334.05   29.81
   1   1  11   67.28   20.75
   1   1  11   45.89   11.75
   1   1  12   82.93   23.46
   1   1  12   49.01   13.05
   1   1  13   16.56   11.15
   1   1  13    4.44    5.03
   1   1  14  199.03   35.99
   1   1  14   98.57   19.87
   1   1  15   66.86   23.14
   1   1  15   26.62   11.44
   1   1  16   92.58   26.13
   1   1  16   68.05   18.11
   1   1  17   54.69   17.67
   1   2 -16   32.37   11.41
   1   2 -15   15.95    9.10
   1   2 -14   75.66   16.47
   1   2 -13    2.93    3.54
   1   2 -12  234.55   26.26
   1   2 -11  359.17   31.14
   1   2 -11  172.89   24.24
   1   2 -10   25.79    5.58
   1   2 -10   28.06    8.24
   1   2 -10   24.60    8.96
   1   2  -9 1456.12   57.37
   1   2  -9 1268.71   66.51
   1   2  -9 1297.71   39.30
   1   2  -9 1330.21   38.61
   1   2  -8  852.13   41.75
   1   2  -8  842.15   52.36
   1   2  -8  806.89   28.91
   1   2  -8  814.62   30.27
   1   2  -7   93.59   13.06
   1   2  -7   93.00    9.10
   1   2  -7   96.89   10.46
   1   2  -6  872.88   37.76
   1   2  -6  836.80   23.91
   1   2  -5  194.19   16.50
   1   2  -5  154.45   17.08
   1   2  -5  185.37    9.77
   1   2  -4  828.66   31.74
   1   2  -4  791.89   33.97
   1   2  -4  834.01   16.58
   1   2  -3  178.34    9.15
   1   2  -3  153.69   12.54
   1   2  -3  139.54   12.62
   1   2  -2 1889.63   39.73
   1   2  -2 1855.87   39.52
   1   2  -1 2848.81   43.30
   1   2  -1 2857.50   38.57
   1   2   0  362.81   12.51
   1   2   0  336.81   13.64
   1   2   0  322.38   11.67
   1   2   0  351.97   17.13
   1   2   1 5257.27   48.50
   1   2   1 5261.71   58.97
   1   2   1 5278.46   63.74
   1   2   2 3188.12   45.55
   1   2   2 3589.06   56.07
   1   2   2 3634.94   48.06
   1   2   2 3344.15   49.10
   1   2   3  110.21    6.91
   1   2   3  127.15   10.28
   1   2   3  136.62   12.45
   1   2   3  128.82    9.41
   1   2   4 3265.29   58.91
   1   2   4 3286.03   47.84
   1   2   5 2490.46   40.48
   1   2   5 2760.81   66.37
   1   2   6  463.10   29.30
   1   2   6  452.16   18.16
   1   2   7  390.83   28.87
   1   2   7  389.68   18.25
   1   2   8  354.09   29.30
   1   2   8  343.22   20.65
   1   2   9  121.95   18.52
   1   2  10    0.57    3.79
   1   2  11  295.38   31.63
   1   2  12   24.06   10.14
   1   2  13   36.87   12.79
   1   2  14  303.23   36.02
   1   2  15  109.04   22.40
   1   2  16   12.49    9.07
   1   3 -15   -5.87    7.06
   1   3 -14  140.22   22.54
   1   3 -13   68.94   15.17
   1   3 -12   41.33   12.11
   1   3 -11  400.33   34.03
   1   3 -10   86.77   15.84
   1   3 -10   46.67    7.45
   1   3  -9   97.22   15.48
   1   3  -9   77.05    9.95
   1   3  -8  327.03   26.48
   1   3  -8  288.57   19.37
   1   3  -7   48.91   10.24
   1   3  -7   52.04    8.51
   1   3  -6  623.33   32.94
   1   3  -6  602.49   28.97
   1   3  -5    2.67    1.76
   1   3  -5    1.10    2.20
   1   3  -5    1.70    2.77
   1   3  -4  332.08   21.33
   1   3  -4  335.70   23.30
   1   3  -4  364.39   22.28
   1   3  -3  739.15   30.30
   1   3  -3  730.45   30.52
   1   3  -3  758.55   31.52
   1   3  -2  191.52   13.89
   1   3  -2  201.27   13.57
   1   3  -2  198.74   15.92
   1   3  -1 4761.52   46.12
   1   3  -1 4691.85   64.46
   1   3  -1 4866.05   51.86
   1   3   0  594.73   22.04
   1   3   0  539.81   17.46
   1   3   0  586.69   26.09
   1   3   1  786.55   24.04
   1   3   1  799.44   26.41
   1   3   1  823.72   30.58
   1   3   2 4560.23   64.94
   1   3   2 4448.91   71.22
   1   3   2 4475.75   70.73
   1   3   3 1650.65   43.11
   1   3   3 1666.54   48.94
   1   3   3 1751.88   38.71
   1   3   3 1648.22   43.03
   1   3   4  287.60   15.25
   1   3   4  269.29   21.59
   1   3   4  257.51   16.77
   1   3   4  265.27   12.74
   1   3   5  755.11   23.04
   1   3   5  719.46   27.89
   1   3   5  730.57   38.87
   1   3   5  701.93   26.97
   1   3   6   47.00    8.16
   1   3   6   40.19    6.85
   1   3   6   45.23   10.29
   1   3   6   43.83    9.65
   1   3   7  203.38   18.29
   1   3   7  196.31   22.89
   1   3   7  200.88   16.63
   1   3   8   14.14    6.32
   1   3   8    9.31    4.80
   1   3   8   17.81    5.53
   1   3   9  743.14   48.25
   1   3   9  749.94   36.22
   1   3  10  509.80   41.77
   1   3  10  416.31   31.08
   1   3  11   83.93   17.45
   1   3  12  770.27   56.09
   1   3  13  297.63   36.36
   1   3  14   42.94   14.12
   1   3  15  132.80   26.16
   1   4 -14   60.06   15.14
   1   4 -13  134.14   21.36
   1   4 -12   -1.72    4.14
   1   4 -11  111.53   18.84
   1   4 -10  106.31   17.26
   1   4  -9   97.11   15.99
   1   4  -9   86.10   11.71
   1   4  -8   62.73   12.63
   1   4  -8   55.53    9.52
   1   4  -7    7.80    4.33
   1   4  -7    2.67    3.00
   1   4  -6  728.40   36.88
   1   4  -6  673.42   33.46
   1   4  -5   65.79   10.64
   1   4  -5   65.43   10.82
   1   4  -4  414.11   12.01
   1   4  -4  457.03   26.10
   1   4  -4  457.09   28.61
   1   4  -4  462.37   27.48
   1   4  -3 2283.89   32.13
   1   4  -3 2346.05   57.12
   1   4  -3 2245.59   55.46
   1   4  -3 2278.98   61.13
   1   4  -2  221.19   11.01
   1   4  -2  234.05   15.53
   1   4  -2  243.45   17.76
   1   4  -2  236.88   19.64
   1   4  -1  948.15   25.91
   1   4  -1 1030.82   35.54
   1   4  -1  929.46   24.97
   1   4  -1  970.27   40.64
   1   4   0 2035.82   49.33
   1   4   0 1963.32   41.41
   1   4   0 2058.41   57.31
   1   4   1   42.09    8.15
   1   4   1   40.89    6.67
   1   4   1   52.93    8.67
   1   4   2  476.95   27.17
   1   4   3   11.90    2.46
   1   4   3   10.29    4.60
   1   4   3    9.20    4.65
   1   4   4  586.22   21.30
   1   4   4  507.66   32.24
   1   4   4  507.15   23.73
   1   4   4  528.30   27.81
   1   4   5   16.92    4.51
   1   4   5    4.71    3.53
   1   4   5   12.19    3.01
   1   4   5   10.00    3.97
   1   4   6  113.73    9.20
   1   4   6  128.94   13.25
   1   4   6  121.93   17.87
   1   4   6  109.60   12.69
   1   4   7 1567.18   63.18
   1   4   7 1530.35   50.36
   1   4   7 1439.58   65.00
   1   4   7 1421.62   47.26
   1   4   8   47.63    9.09
   1   4   8   53.08   10.55
   1   4   8   41.59   11.79
   1   4   9  411.47   30.26
   1   4   9  382.86   36.42
   1   4   9  383.43   27.33
   1   4  10  471.44   42.53
   1   4  10  490.08   33.93
   1   4  11  187.91   29.32
   1   4  11  186.76   24.52
   1   4  12  335.56   39.42
   1   4  12  202.15   27.50
   1   4  13  115.30   23.46
   1   4  14   16.60   10.12
   1   5 -13   63.56   15.97
   1   5 -12    5.16    5.49
   1   5 -11   45.04   12.52
   1   5 -10   28.68   10.51
   1   5  -9   66.56   14.13
   1   5  -9   36.09    8.40
   1   5  -8  457.96   34.27
   1   5  -8  416.11   29.13
   1   5  -7   65.87   13.61
   1   5  -7   65.22   11.89
   1   5  -6  436.48   31.14
   1   5  -6  409.45   29.34
   1   5  -5  914.61   42.60
   1   5  -5  913.18   43.84
   1   5  -4   19.04    9.16
   1   5  -4   14.80    8.11
   1   5  -4    4.39    4.01
   1   5  -3 1361.35   47.24
   1   5  -3 1344.44   45.27
   1   5  -3 1460.90   56.13
   1   5  -2  297.67   21.88
   1   5  -2  316.22   18.98
   1   5  -2  318.15   26.07
   1   5  -1   35.71    9.90
   1   5  -1   26.15    5.54
   1   5  -1   23.71    7.91
   1   5   0  754.87   39.47
   1   5   0  797.43   37.84
   1   5   1  129.52   17.90
   1   5   1  173.21   20.13
   1   5   2  790.33   40.54
   1   5   3  128.12   15.99
   1   5   4  439.01   17.35
   1   5   4  595.80   34.27
   1   5   5  820.63   28.60
   1   5   5  779.16   30.10
   1   5   6   34.90    7.35
   1   5   6   39.92    6.16
   1   5   7 1331.33   34.92
   1   5   7 1291.40   45.47
   1   5   7 1189.22   48.90
   1   5   8  453.12   29.82
   1   5   8  454.23   26.28
   1   5   8  444.97   30.77
   1   5   9   21.88    7.96
   1   5   9   24.33    8.04
   1   5  10  423.74   33.61
   1   5  11   81.45   15.94
   1   5  12    9.41    5.74
   1   6 -11   47.21   14.95
   1   6 -10   97.69   19.41
   1   6  -9    8.02    7.69
   1   6  -8  341.70   31.71
   1   6  -8  303.13   26.31
   1   6  -7  220.83   23.98
   1   6  -7  191.21   21.24
   1   6  -6   19.87    7.83
   1   6  -6   22.12    7.78
   1   6  -5  489.77   34.06
   1   6  -5  500.25   34.99
   1   6  -4   40.79    9.82
   1   6  -4   51.19   11.72
   1   6  -3   23.93    7.19
   1   6  -3   29.66    8.64
   1   6  -2  235.41   22.64
   1   6  -2  260.15   25.57
   1   6  -1  127.03    9.81
   1   6  -1  138.38   18.69
   1   6  -1  154.84   19.18
   1   6   0  239.52   24.20
   1   6   0  252.15   25.31
   1   6   1   20.94    7.09
   1   6   2  498.45   34.25
   1   6   3  608.40   37.84
   1   6   4   19.25    8.16
   1   6   5 1371.92   56.98
   1   6   6  239.07   16.72
   1   6   6  224.19   23.11
   1   6   7    6.10    3.92
   1   6   7    1.81    5.01
   1   6   8  756.55   38.24
   1   6   8  630.79   40.32
   1   6   9   23.16    8.89
   1   6  10   51.60   12.39
   1   6  11   51.90   13.17
   1   6  12   12.61    6.86
   1   6  13   82.23   21.36
   1   7  -9   16.39    9.15
   1   7  -8   34.35   11.52
   1   7  -8   22.06    8.02
   1   7  -7  167.95   23.24
   1   7  -7  107.13   17.82
   1   7  -6   10.85    6.97
   1   7  -6   10.48    6.75
   1   7  -5   82.16   15.56
   1   7  -5   82.10   15.42
   1   7  -4   11.43    6.91
   1   7  -4   16.61    7.69
   1   7  -3   67.60   13.93
   1   7  -3   72.14   15.14
   1   7  -2  103.65   17.88
   1   7  -2  119.76   18.45
   1   7  -1   94.80   17.04
   1   7   0  556.45   40.59
   1   7   1   94.83   17.46
   1   7   2  299.16   29.88
   1   7   3  439.41   35.88
   1   7   4  129.31   19.90
   1   7   5  162.37   22.35
   1   7   6   83.67   15.79
   1   7   7    7.96    6.47
   1   7   8   56.61   13.75
   1   7   9    6.79    6.35
   1   7  10  104.13   19.53
   1   7  11   71.80   17.47
   1   7  12   22.96    9.73
   1   7  13  153.16   29.10
   1   8  -7   28.95   10.11
   1   8  -6    3.30    4.50
   1   8  -6    1.06    3.10
   1   8  -5   94.48   19.57
   1   8  -5   72.11   16.84
   1   8  -4   85.12   18.09
   1   8  -4   62.84   14.95
   1   8  -3   90.35   18.07
   1   8  -2  308.81   33.29
   1   8  -1   66.88   16.71
   1   8   0  136.29   22.66
   1   8   1  421.41   39.25
   1   8   2   11.19    8.79
   1   8   3  159.74   23.94
   1   8   4   23.88    9.24
   1   8   5   21.98    9.63
   1   8   6   98.58   19.14
   1   8   7    4.56    6.45
   1   8   8  111.60   19.97
   1   8   9   16.99   10.13
   1   8  10   33.31   12.87
   1   8  11  110.20   22.78
   1   8  12    6.88    6.48
   1   8  13   56.00   16.95
   1   9  -6   -0.39    4.92
   1   9  -5   33.65   12.37
   1   9  -4   43.71   13.15
   1   9  -3    7.07    8.43
   1   9  -2   87.09   19.69
   1   9  -1   23.47   10.45
   1   9   0   41.65   14.16
   1   9   1   55.58   16.18
   1   9   2   14.47    8.38
   1   9   3   94.40   20.68
   1   9   4   14.05    9.23
   1   9   5   19.53    9.77
   1   9   6  117.96   21.97
   1   9   7   13.19    8.92
   1   9   8   34.11   13.05
   1   9   9   91.12   19.85
   1   9  10    5.50    5.95
   2  -8  -8   11.85    9.26
   2  -8  -6   -4.51    6.42
   2  -8  -5    2.30    4.38
   2  -8  -4    2.35    3.99
   2  -8  -3   12.15    6.96
   2  -8   3   48.49   14.61
   2  -8   4   10.38    8.57
   2  -7 -10   23.74    9.89
   2  -7  -9    0.85    5.31
   2  -7  -9   13.22    7.62
   2  -7  -8   22.91    8.22
   2  -7  -8   32.29   12.93
   2  -7  -7   22.99   10.83
   2  -7  -7   29.53   11.16
   2  -7  -6   18.65   10.81
   2  -7  -6   17.01    8.01
   2  -7  -5   62.26   15.84
   2  -7  -5   74.44   16.50
   2  -7  -4    5.76    6.54
   2  -7  -4    0.73    3.53
   2  -7  -3   48.73   12.07
   2  -7  -2  137.53   18.93
   2  -7  -1    4.33    5.20
   2  -7   0  108.71   18.25
   2  -7   1   45.27   12.53
   2  -7   2    4.40    6.09
   2  -7   3   25.96   10.59
   2  -7   4   -0.89    4.47
   2  -7   5   18.25    8.91
   2  -7   6   12.86   10.72
   2  -6 -11   -0.32    4.01
   2  -6 -11   -1.13    3.71
   2  -6 -10    7.87    5.33
   2  -6 -10   12.58    7.79
   2  -6  -9    5.51    5.66
   2  -6  -9   11.71    5.40
   2  -6  -8   98.06   19.24
   2  -6  -7   71.79   16.30
   2  -6  -6   22.12    9.93
   2  -6  -5  164.12   23.16
   2  -6  -4  324.60   32.31
   2  -6  -4  326.88   31.14
   2  -6  -3   58.43   12.80
   2  -6  -3   55.28   12.50
   2  -6  -2   54.06   10.82
   2  -6  -2   80.53   14.48
   2  -6  -2   77.14   13.65
   2  -6  -1  109.11   16.61
   2  -6  -1   99.17   15.60
   2  -6  -1  127.31   17.18
   2  -6   0   29.16    9.44
   2  -6   0   29.14    8.51
   2  -6   1  127.45   19.97
   2  -6   1  144.07   16.71
   2  -6   2   35.24   11.43
   2  -6   3    0.79    3.19
   2  -6   4   36.57   12.89
   2  -6   5   90.40   20.29
   2  -6   6   97.35   21.39
   2  -6   7   33.70   14.48
   2  -6   8   77.90   21.90
   2  -5 -13    2.36    8.06
   2  -5 -13   15.00    8.60
   2  -5 -12    8.46    6.76
   2  -5 -11    8.12    6.59
   2  -5 -10   87.06   17.63
   2  -5  -9  132.24   21.75
   2  -5  -8  147.69   22.18
   2  -5  -7  205.44   25.60
   2  -5  -6  135.56   20.95
   2  -5  -5  240.03   26.23
   2  -5  -4  174.66   14.62
   2  -5  -4  257.30   27.46
   2  -5  -3    6.28    6.69
   2  -5  -3   14.23    8.82
   2  -5  -2  221.14   20.62
   2  -5  -2  227.79   23.58
   2  -5  -1   22.38    8.65
   2  -5  -1   24.02    7.24
   2  -5   0   93.38   14.66
   2  -5   0  100.64   14.38
   2  -5   1   73.39   10.66
   2  -5   1   63.01   13.28
   2  -5   1   66.66   10.88
   2  -5   2   47.30   11.93
   2  -5   2   38.02    7.75
   2  -5   3  344.50   32.99
   2  -5   3  314.13   18.67
   2  -5   4   49.19   12.81
   2  -5   5   64.87   16.68
   2  -5   6  423.24   41.55
   2  -5   6  577.07   33.72
   2  -5   7   40.46   14.93
   2  -5   8   74.53   21.73
   2  -5   9  106.11   25.78
   2  -5  10   19.43   15.44
   2  -4 -14   22.98   10.41
   2  -4 -13    5.69    6.34
   2  -4 -12  118.21   20.98
   2  -4 -11   20.51    8.81
   2  -4 -10  295.63   30.94
   2  -4  -9  167.61   23.26
   2  -4  -8  177.76   22.96
   2  -4  -7  445.87   35.75
   2  -4  -6  427.54   33.85
   2  -4  -5   34.47    4.29
   2  -4  -5   41.47   10.15
   2  -4  -4    9.40    2.87
   2  -4  -4   12.05    5.71
   2  -4  -3  164.78   13.26
   2  -4  -3  204.87   21.40
   2  -4  -2  172.09   15.16
   2  -4  -2  190.59   19.63
   2  -4  -1   24.98    7.85
   2  -4  -1   33.64    9.17
   2  -4   0  291.74   23.14
   2  -4   0  316.37   22.97
   2  -4   1  756.56   40.31
   2  -4   1  794.98   33.72
   2  -4   2   68.80   13.60
   2  -4   2   63.40    9.01
   2  -4   3  332.25   15.67
   2  -4   3  347.75   17.59
   2  -4   4  717.15   46.19
   2  -4   4  488.91   16.97
   2  -4   5   37.83   11.91
   2  -4   6   92.77   19.82
   2  -4   6  166.73   18.38
   2  -4   7  180.13   27.59
   2  -4   7   67.65   11.72
   2  -4   8   12.38   10.92
   2  -4   9   69.04   20.92
   2  -4  10   18.25   13.52
   2  -4  11   76.32   23.38
   2  -4  12   56.72   22.80
   2  -3 -16   14.59    9.60
   2  -3 -15   57.14   16.46
   2  -3 -14   93.40   19.32
   2  -3 -13    6.69    7.52
   2  -3 -12  282.18   30.60
   2  -3 -11  329.33   32.05
   2  -3 -10   24.44    8.46
   2  -3  -9  259.88   27.47
   2  -3  -8   70.08   13.22
   2  -3  -7   72.94   15.98
   2  -3  -6   54.63   11.79
   2  -3  -5  235.38   23.04
   2  -3  -4  403.94   13.87
   2  -3  -4  454.35   30.68
   2  -3  -3   54.57    6.15
   2  -3  -3   55.74   10.51
   2  -3  -2  646.15   25.07
   2  -3  -2  684.48   34.51
   2  -3  -1 1714.34   45.98
   2  -3  -1 1889.14   54.56
   2  -3   0   98.20   12.23
   2  -3   0  103.94   12.06
   2  -3   1  763.72   36.47
   2  -3   1  761.98   30.34
   2  -3   2 1464.70   53.87
   2  -3   2 1372.57   35.41
   2  -3   3  113.02   15.94
   2  -3   3   87.96    7.85
   2  -3   4  194.73   22.10
   2  -3   4  146.51    9.83
   2  -3   5  132.74   19.86
   2  -3   5  149.27    7.05
   2  -3   6   27.32   11.84
   2  -3   6   26.00    7.19
   2  -3   7   35.73   13.40
   2  -3   7   -2.05    5.06
   2  -3   8  177.97   27.58
   2  -3   8  109.33   16.70
   2  -3   9   63.18   18.09
   2  -3   9   44.57   11.23
   2  -3  10   18.93   13.50
   2  -3  10    9.80    6.53
   2  -3  11  130.10   28.85
   2  -3  12   98.52   26.64
   2  -3  13   12.17    9.13
   2  -2 -17   25.65   11.89
   2  -2 -16   27.29   11.90
   2  -2 -16   63.06   17.12
   2  -2 -15    6.45    7.60
   2  -2 -14  165.21   25.44
   2  -2 -13   87.83   18.10
   2  -2 -12   31.45   10.03
   2  -2 -11  110.39   17.76
   2  -2 -10   73.33   14.08
   2  -2  -9  167.68   20.24
   2  -2  -8    9.89    4.89
   2  -2  -7  421.45   20.18
   2  -2  -7  442.42   30.70
   2  -2  -6  121.87   10.14
   2  -2  -6  170.21   18.64
   2  -2  -5   46.20    6.90
   2  -2  -5   55.74   11.10
   2  -2  -4 2453.29   64.98
   2  -2  -3 1028.81   40.24
   2  -2  -2  386.04   18.30
   2  -2  -2  387.41   23.34
   2  -2  -1 2341.82   47.34
   2  -2  -1 2403.87   54.92
   2  -2   0 1588.05   42.58
   2  -2   0 1613.00   42.00
   2  -2   1   14.29    5.64
   2  -2   1    4.31    2.45
   2  -2   2  931.86   38.66
   2  -2   2  823.58   23.94
   2  -2   2  950.24   42.42
   2  -2   3  255.91   22.77
   2  -2   3  252.51   13.12
   2  -2   3  265.89   21.89
   2  -2   4  124.98   17.10
   2  -2   4  125.38    9.23
   2  -2   4  112.10   13.55
   2  -2   5   25.33    4.08
   2  -2   5   39.29   11.03
   2  -2   5   39.77    8.31
   2  -2   5   31.19    7.20
   2  -2   6  329.35   31.55
   2  -2   6  324.70   22.61
   2  -2   7  484.76   39.37
   2  -2   7  444.83   24.99
   2  -2   8   66.28   12.72
   2  -2   8   74.11   18.09
   2  -2   8   61.56    9.34
   2  -2   9  858.99   59.60
   2  -2   9  880.28   47.16
   2  -2  10  192.78   30.99
   2  -2  10  205.16   24.10
   2  -2  11    8.26    9.28
   2  -2  11   11.92    7.28
   2  -2  12  194.32   34.25
   2  -2  12  243.35   28.82
   2  -2  13   21.03   11.36
   2  -2  14   -3.77   13.72
   2  -1 -16   71.09   17.95
   2  -1 -15    9.31    7.41
   2  -1 -14   60.84   14.51
   2  -1 -13   83.42   16.93
   2  -1 -12   48.68   12.10
   2  -1 -11   41.88   11.72
   2  -1 -10    6.02    4.85
   2  -1  -9  470.39   32.77
   2  -1  -8  220.84   21.37
   2  -1  -8  219.71   16.67
   2  -1  -7  112.71   15.14
   2  -1  -7  113.77   10.30
   2  -1  -6 2234.98   61.42
   2  -1  -6 2437.16   43.70
   2  -1  -5  495.10   27.99
   2  -1  -5  420.87   15.09
   2  -1  -4  481.68   17.44
   2  -1  -4  497.82   26.24
   2  -1  -4  499.28   34.77
   2  -1  -3 2377.90   55.20
   2  -1  -3 2138.87   72.85
   2  -1  -2  324.62   27.97
   2  -1  -2  402.94   21.32
   2  -1  -2  356.24   28.55
   2  -1  -1  298.82   21.30
   2  -1  -1  349.76   29.29
   2  -1  -1  181.30   12.92
   2  -1  -1  153.24   17.88
   2  -1   0  100.63   14.17
   2  -1   0  121.04   10.06
   2  -1   0  110.55   15.20
   2  -1   0  122.30   15.16
   2  -1   1  534.08   30.82
   2  -1   1  508.11   18.89
   2  -1   1  477.19   29.68
   2  -1   2   21.23    7.07
   2  -1   2   23.94    7.69
   2  -1   2   26.28    5.25
   2  -1   2   20.12    5.64
   2  -1   3  239.76   22.11
   2  -1   3  230.98   18.25
   2  -1   4 1557.13   58.70
   2  -1   4 1647.70   32.19
   2  -1   4 1517.82   47.23
   2  -1   4 1608.72   45.11
   2  -1   5  519.94   20.57
   2  -1   5  507.87   36.05
   2  -1   5  547.51   29.08
   2  -1   5  545.30   24.73
   2  -1   6  929.82   30.03
   2  -1   6  851.55   49.19
   2  -1   6  905.14   37.79
   2  -1   6  846.36   37.06
   2  -1   6  963.56   30.42
   2  -1   7 1102.79   59.81
   2  -1   7 1089.83   45.06
   2  -1   7 1128.65   29.60
   2  -1   8  497.82   42.47
   2  -1   8  560.78   34.23
   2  -1   8  524.38   18.16
   2  -1   9  124.87   23.19
   2  -1   9  170.17   19.97
   2  -1  10  430.66   44.96
   2  -1  10  617.18   40.66
   2  -1  11    3.76    4.97
   2  -1  11   17.69    7.98
   2  -1  12   -5.21   11.91
   2  -1  12   10.22    6.32
   2  -1  13   -2.06   10.55
   2  -1  13   20.76    9.29
   2  -1  14  -12.76   14.71
   2  -1  14   12.33    7.77
   2  -1  15  -10.28   14.03
   2   0 -17    0.65    6.89
   2   0 -17  -14.75   10.66
   2   0 -14   69.34   17.41
   2   0 -13   30.65   10.99
   2   0 -12   32.03   10.51
   2   0 -11  452.85   34.36
   2   0 -10    5.42    5.39
   2   0  -9  725.29   38.75
   2   0  -9  472.75   11.14
   2   0  -8  996.06   24.62
   2   0  -8  973.70   42.15
   2   0  -7   18.65    6.51
   2   0  -6 1224.41   42.53
   2   0  -5 2171.46   53.27
   2   0  -4    8.46    4.51
   2   0  -4    5.67    2.70
   2   0  -4    8.02    3.60
   2   0  -3  323.41   18.35
   2   0  -3  336.71   17.57
   2   0  -2   32.80    5.76
   2   0  -2   28.70    4.50
   2   0  -1   13.26    3.34
   2   0  -1   13.26    3.62
   2   0   0 3221.41   62.22
   2   0   0 3125.71   58.03
   2   0   1 6434.23  129.15
   2   0   1 5764.46  100.65
   2   0   2 1194.89   58.33
   2   0   2 1223.41   57.95
   2   0   3  759.28   49.56
   2   0   3  417.05   32.46
   2   0   3  755.94   35.06
   2   0   3  470.20   22.28
   2   0   4 2892.45   86.07
   2   0   4 1922.65   81.24
   2   0   4 2412.62   42.87
   2   0   4 2465.82   46.18
   2   0   4 1620.20   47.24
   2   0   4 2248.83   52.22
   2   0   5 2203.82   90.16
   2   0   5 3145.62   55.61
   2   0   5 3057.32   51.07
   2   0   5 2094.46   73.22
   2   0   5 3110.65   64.45
   2   0   5 2325.67   46.38
   2   0   6   50.23    7.94
   2   0   6   30.75   10.03
   2   0   6   62.14    8.25
   2   0   6   50.63    9.31
   2   0   6   50.34    5.63
   2   0   7  248.67   25.66
   2   0   7  387.00   24.05
   2   0   7  246.31   32.03
   2   0   7  426.59   27.96
   2   0   7  207.72    7.81
   2   0   8  444.60   30.08
   2   0   8  392.60   26.52
   2   0   9   -1.47    8.89
   2   0   9   10.62    4.11
   2   0   9   16.82    7.23
   2   0  10   57.46   14.21
   2   0  10   95.58   15.78
   2   0  10   86.18   12.04
   2   0  11  -11.30   12.99
   2   0  11   20.06    8.38
   2   0  12   50.37   15.28
   2   0  12   53.92   13.94
   2   0  13   18.83    7.57
   2   0  13   43.79   13.31
   2   0  14  136.90   28.74
   2   0  14  132.70   23.27
   2   0  15  167.21   31.85
   2   0  15  124.95   24.17
   2   0  16   22.75   13.64
   2   0  16   14.51    8.50
   2   1 -16   16.92    9.44
   2   1 -15   -0.49    4.90
   2   1 -14   38.38   11.51
   2   1 -13   75.88   17.73
   2   1 -12    5.57    6.87
   2   1 -11  696.13   46.81
   2   1 -10  753.82   45.31
   2   1  -9    8.13    6.39
   2   1  -8 1021.85   46.04
   2   1  -7  496.66   30.24
   2   1  -7  395.19   25.92
   2   1  -6  107.12   13.36
   2   1  -6   94.44   11.93
   2   1  -6   91.23    6.65
   2   1  -5  156.55   15.15
   2   1  -5  132.23    8.13
   2   1  -4    1.52    2.67
   2   1  -4    3.66    5.61
   2   1  -4    8.22    3.04
   2   1  -3 1337.05   43.91
   2   1  -3 1296.28   28.58
   2   1  -2  132.15   12.59
   2   1  -2  119.04    9.34
   2   1  -2  127.52   12.33
   2   1  -1 3774.76   56.22
   2   1  -1 3929.44   62.75
   2   1   0  800.48   26.91
   2   1   0  801.28   25.96
   2   1   1 1148.15   28.36
   2   1   1 1442.73   37.54
   2   1   2 9901.38   99.99
   2   1   2 9209.80   96.66
   2   1   3 2320.46   49.41
   2   1   3 2453.87   46.39
   2   1   3 2471.03   47.05
   2   1   4   88.85    9.46
   2   1   4   72.95    4.45
   2   1   4   82.78   10.45
   2   1   4   86.49    9.77
   2   1   5 1393.80   38.75
   2   1   5 1338.82   41.27
   2   1   5 1426.84   40.67
   2   1   6 1534.06   44.39
   2   1   6 1518.03   43.68
   2   1   6 1479.69   47.45
   2   1   7  191.10   17.24
   2   1   7  185.57   18.01
   2   1   7  198.81   15.97
   2   1   8   63.74   18.03
   2   1   8   42.14    7.61
   2   1   8   34.82    8.99
   2   1   9   87.86   20.52
   2   1   9   64.13    9.55
   2   1   9   54.37   11.23
   2   1  10  170.43   21.66
   2   1  10  155.27   14.86
   2   1  11    9.28    9.19
   2   1  11    4.10    3.38
   2   1  11   -0.09    3.66
   2   1  12  337.44   42.02
   2   1  12  248.54   28.68
   2   1  13  546.92   54.05
   2   1  13  334.56   35.03
   2   1  14   21.74   13.89
   2   1  14    8.96    7.18
   2   1  15  144.65   29.78
   2   1  15  112.12   22.82
   2   1  16   79.06   19.98
   2   1  17    8.27    7.67
   2   1  18   16.01   10.08
   2   2 -16   65.32   16.59
   2   2 -15   38.97   12.89
   2   2 -14    5.50    6.44
   2   2 -13  247.98   30.52
   2   2 -12   80.94   16.76
   2   2 -11  126.15   19.74
   2   2 -11   83.92   21.65
   2   2 -10  210.70   24.55
   2   2 -10  133.03   28.67
   2   2  -9   76.98   11.53
   2   2  -9  102.61   16.62
   2   2  -8  143.85   26.95
   2   2  -8  272.38   20.18
   2   2  -7  208.75   32.17
   2   2  -7  121.93   12.49
   2   2  -6  133.65   24.32
   2   2  -6  326.29   18.99
   2   2  -5    0.57    0.99
   2   2  -4  155.55   16.10
   2   2  -4  181.63   12.41
   2   2  -3 3403.97   68.29
   2   2  -3 3658.50   58.22
   2   2  -2  345.87   19.97
   2   2  -2  354.88   18.51
   2   2  -1 2672.32   47.37
   2   2  -1 2664.85   51.20
   2   2   0 3531.55   67.22
   2   2   0 3600.62   44.81
   2   2   1 3171.80   41.50
   2   2   1 3166.26   57.11
   2   2   1 3213.73   43.87
   2   2   2  329.84   16.86
   2   2   2  285.20    9.99
   2   2   2  297.06   17.87
   2   2   2  281.53   14.54
   2   2   2  268.90   14.97
   2   2   3  810.69   25.72
   2   2   3  981.49   30.12
   2   2   3  928.93   32.35
   2   2   3  865.58   28.83
   2   2   4  308.50   18.16
   2   2   4  295.01   19.13
   2   2   4  291.07   18.73
   2   2   4  316.42   19.26
   2   2   5   49.96    7.88
   2   2   5   46.61    5.86
   2   2   5   43.08   10.56
   2   2   5   48.98    8.07
   2   2   5   54.47    8.67
   2   2   6   19.56    5.22
   2   2   6   11.70    5.86
   2   2   6   22.61    6.88
   2   2   6   21.64    9.96
   2   2   7  597.91   29.22
   2   2   7  619.60   34.82
   2   2   7  638.54   20.19
   2   2   8  362.39   23.41
   2   2   8  400.36   30.24
   2   2   8  392.39   15.32
   2   2   9  175.73   17.73
   2   2   9  190.59   22.85
   2   2  10  683.27   34.28
   2   2  10  707.45   44.94
   2   2  11  374.85   34.49
   2   2  12  130.02   21.40
   2   2  13   98.01   19.69
   2   2  14  125.71   23.72
   2   2  15   22.83   10.42
   2   2  16   26.96   12.41
   2   2  17    5.86    7.61
   2   2  18   -0.01    6.03
   2   3 -15  104.20   21.22
   2   3 -14    4.53    5.90
   2   3 -13   86.81   18.45
   2   3 -12  110.94   19.54
   2   3 -11    3.46    6.76
   2   3 -10  175.70   23.11
   2   3 -10  149.33   15.91
   2   3 -10  163.08   17.93
   2   3  -9   10.76    5.12
   2   3  -9   15.67    6.38
   2   3  -8  273.97   26.11
   2   3  -8  276.07   14.96
   2   3  -7  440.32   24.23
   2   3  -7  327.65   27.08
   2   3  -6  288.19   24.08
   2   3  -6  278.60   12.32
   2   3  -5 4110.93   85.79
   2   3  -5 3781.12   40.38
   2   3  -4  653.16   32.12
   2   3  -4  637.57   33.42
   2   3  -3  358.31   22.44
   2   3  -3  343.78   21.71
   2   3  -2 4402.27   73.49
   2   3  -2 4504.78   69.92
   2   3  -2 4385.96   33.56
   2   3  -1  954.62   26.85
   2   3  -1  921.14   19.75
   2   3   0  671.80   24.30
   2   3   0  708.16   32.07
   2   3   0  720.89   21.18
   2   3   1  649.18   23.43
   2   3   1  576.98   21.13
   2   3   1  642.12   31.34
   2   3   1  635.74   22.91
   2   3   1  626.43   27.46
   2   3   2  157.05    9.99
   2   3   2  157.79   12.16
   2   3   2  162.32   16.29
   2   3   2  155.12   12.94
   2   3   2  152.80   13.99
   2   3   2  141.96   12.91
   2   3   3  384.22   20.20
   2   3   3  372.65   24.90
   2   3   3  380.02   22.25
   2   3   3  332.42   19.08
   2   3   3  373.60   20.71
   2   3   4   16.34    4.58
   2   3   4   17.03    4.53
   2   3   4   12.28    3.16
   2   3   4   13.40    4.55
   2   3   4   19.82    5.83
   2   3   5 1066.00   33.06
   2   3   5 1129.43   45.25
   2   3   5 1152.47   45.78
   2   3   5 1073.00   33.72
   2   3   6  447.03   33.06
   2   3   6  429.50   29.58
   2   3   6  394.46   20.27
   2   3   7  927.81   46.81
   2   3   7  943.05   31.86
   2   3   8 1433.33   61.02
   2   3   8 1513.99   39.82
   2   3   9  273.57   28.15
   2   3   9  293.78   18.45
   2   3  10  497.16   39.83
   2   3  10  469.60   25.14
   2   3  11 1183.21   64.80
   2   3  11 1306.78   45.36
   2   3  12   10.50    7.70
   2   3  13   79.57   18.97
   2   3  14   85.62   20.12
   2   3  15   13.87    8.81
   2   3  16   22.48   12.52
   2   3  17    5.23    8.25
   2   4 -14   13.21    8.02
   2   4 -13   33.07   12.17
   2   4 -12   40.55   12.68
   2   4 -11   43.34   13.12
   2   4 -10  302.67   30.76
   2   4 -10  175.27   18.91
   2   4  -9   23.17    7.90
   2   4  -9   27.92   10.27
   2   4  -8  357.70   30.18
   2   4  -8  367.05   27.89
   2   4  -7  407.95   31.01
   2   4  -7  452.24   30.72
   2   4  -6   74.56   13.21
   2   4  -6   75.49   12.60
   2   4  -5  906.63   41.63
   2   4  -5  984.57   44.19
   2   4  -4  573.76   31.26
   2   4  -4  554.93   31.98
   2   4  -4  622.35   34.72
   2   4  -3   10.84    6.04
   2   4  -3   13.09   10.31
   2   4  -2  500.66   26.45
   2   4  -2  505.34   23.37
   2   4  -2  530.44   30.90
   2   4  -1  433.56   18.17
   2   4  -1  380.81   21.55
   2   4  -1  407.99   16.69
   2   4  -1  394.33   14.90
   2   4  -1  437.52   27.38
   2   4   0  534.88   21.37
   2   4   0  519.63   23.86
   2   4   0  547.25   21.97
   2   4   0  585.61   31.70
   2   4   1    6.48    4.32
   2   4   1    4.25    2.50
   2   4   1    5.49    3.79
   2   4   1    2.69    1.80
   2   4   2  122.46   11.30
   2   4   2  107.84   10.63
   2   4   2  112.85   12.65
   2   4   2  123.65   13.94
   2   4   3 2293.20   62.06
   2   4   3 2200.63   57.25
   2   4   4   72.68   12.21
   2   4   4   63.52    8.69
   2   4   4   65.77   10.00
   2   4   5 1527.00   58.49
   2   4   5 1492.13   46.62
   2   4   6 1571.94   62.41
   2   4   6 1496.94   46.97
   2   4   7  374.15   29.34
   2   4   7  323.33   30.00
   2   4   7  311.47   21.22
   2   4   8  724.56   47.72
   2   4   8  655.34   31.74
   2   4   9  442.59   38.64
   2   4   9  421.64   26.28
   2   4  10  108.73   20.03
   2   4  10   93.25   13.35
   2   4  11    2.94    5.41
   2   4  11    3.58    3.65
   2   4  12   18.80    9.11
   2   4  12    2.90    4.99
   2   4  13   85.37   19.60
   2   4  14    2.31    4.97
   2   4  15   54.27   17.63
   2   4  16   81.32   21.32
   2   5 -12   89.52   18.57
   2   5 -11    3.40    4.55
   2   5 -10  239.61   28.67
   2   5  -9  228.88   26.15
   2   5  -9  193.52   21.36
   2   5  -8   27.96    8.96
   2   5  -8   16.97    6.29
   2   5  -7  595.89   38.86
   2   5  -7  570.22   36.35
   2   5  -6  171.02   19.60
   2   5  -6  172.60   20.06
   2   5  -5   66.64   12.46
   2   5  -5   86.26   14.58
   2   5  -4  228.97   20.57
   2   5  -4  229.79   12.52
   2   5  -4  221.82   20.71
   2   5  -4  260.02   24.24
   2   5  -3   11.43    8.16
   2   5  -3    3.74    2.66
   2   5  -3    5.32    7.70
   2   5  -3    9.29    5.46
   2   5  -2  486.44   27.98
   2   5  -2  502.40   23.19
   2   5  -2  499.67   33.69
   2   5  -1   28.20    9.39
   2   5  -1   14.70   11.69
   2   5  -1    4.37    4.89
   2   5  -1   18.37    3.79
   2   5   0 1279.72   43.72
   2   5   0 1156.91   36.08
   2   5   0 1270.92   51.10
   2   5   1 1998.85   53.83
   2   5   1 1806.23   47.02
   2   5   1 1892.16   61.64
   2   5   2   -1.79    1.96
   2   5   2    0.31    3.22
   2   5   2    2.69    2.39
   2   5   3 2291.14   67.85
   2   5   3 2274.32   65.62
   2   5   4 2029.87   57.50
   2   5   4 2062.15   62.69
   2   5   5  144.33   19.39
   2   5   5  123.07   12.61
   2   5   5  138.44   15.99
   2   5   6  675.41   44.46
   2   5   6  625.33   34.62
   2   5   7  205.10   15.31
   2   5   7  244.99   28.09
   2   5   7  224.60   19.90
   2   5   8   77.69   14.64
   2   5   8   70.96   16.75
   2   5   8   72.46   12.57
   2   5   9  267.11   31.99
   2   5   9  263.25   23.12
   2   5  10  183.54   27.81
   2   5  10  178.96   20.32
   2   5  11   47.59   14.57
   2   5  11   48.88   11.80
   2   5  12   30.11   12.46
   2   5  12   27.00    9.41
   2   5  13  162.20   28.69
   2   5  14  129.49   27.71
   2   5  15    6.34    7.73
   2   5  16  115.49   27.24
   2   6 -11   36.68   12.68
   2   6 -10   31.70   10.32
   2   6  -9  255.28   28.66
   2   6  -9  171.35   21.82
   2   6  -8   17.28    7.53
   2   6  -8   16.90    7.34
   2   6  -7  183.47   22.52
   2   6  -7  156.25   20.66
   2   6  -6   66.96   13.61
   2   6  -6   59.54   12.48
   2   6  -5   19.17    5.99
   2   6  -5   24.68    8.92
   2   6  -4  456.69   32.05
   2   6  -4  498.95   36.66
   2   6  -3   74.20   14.01
   2   6  -3   68.46    8.20
   2   6  -3   76.53   13.26
   2   6  -2  281.98   17.57
   2   6  -2  300.86   24.04
   2   6  -2  271.37   15.26
   2   6  -2  286.43   27.26
   2   6  -1  510.64   30.55
   2   6  -1  483.46   24.61
   2   6  -1  529.00   36.77
   2   6   0  244.08   21.43
   2   6   0  268.69   26.36
   2   6   1  899.40   47.52
   2   6   1  974.84   45.73
   2   6   2  238.83   24.00
   2   6   2  298.76   28.07
   2   6   3   92.04   14.75
   2   6   4  754.41   44.85
   2   6   4  772.09   42.61
   2   6   5   30.24    9.78
   2   6   5   31.79    8.86
   2   6   6  164.07   23.43
   2   6   6  149.92   18.31
   2   6   6  135.27   13.44
   2   6   7   49.06   13.19
   2   6   7   44.39    9.87
   2   6   7   30.61    5.63
   2   6   8  158.84   24.87
   2   6   8  142.36   18.35
   2   6   9  135.18   25.27
   2   6   9  116.73   18.01
   2   6  10    9.74    8.81
   2   6  10    7.75    5.24
   2   6  11  421.65   45.37
   2   6  11  404.91   34.56
   2   6  12  105.26   22.85
   2   6  12  114.74   20.14
   2   6  13   48.00   16.38
   2   6  14  104.44   25.39
   2   7  -9   36.97   12.34
   2   7  -8    9.24    5.31
   2   7  -8    2.59    3.65
   2   7  -7   70.82   15.54
   2   7  -7   78.28   16.12
   2   7  -6   37.31   11.48
   2   7  -6   31.60   10.16
   2   7  -5   42.63   11.47
   2   7  -5   47.98   12.11
   2   7  -4  384.41   30.89
   2   7  -4  443.15   38.30
   2   7  -3  113.19   16.54
   2   7  -3  131.52   20.53
   2   7  -2  495.90   34.23
   2   7  -2  543.60   42.21
   2   7  -1  368.58   34.03
   2   7  -1  329.41   28.40
   2   7   0  180.14   23.64
   2   7   0  163.49   20.86
   2   7   1  613.04   43.98
   2   7   1  702.14   48.02
   2   7   2  227.65   25.78
   2   7   3   23.70    8.44
   2   7   4   18.19    6.98
   2   7   5   73.03   14.00
   2   7   6  312.25   29.32
   2   7   7   23.57    8.30
   2   7   8   55.72   12.87
   2   7   9  252.67   27.80
   2   7  10   61.23   14.24
   2   7  11  123.15   21.04
   2   7  12  147.26   24.24
   2   7  13    1.27    5.59
   2   8  -7   34.88   11.66
   2   8  -6  114.41   20.05
   2   8  -6   85.75   17.32
   2   8  -5    5.00    5.49
   2   8  -5   -1.01    4.51
   2   8  -4  163.02   25.23
   2   8  -4  162.87   22.42
   2   8  -3  215.78   28.45
   2   8  -3  215.77   26.56
   2   8  -2   13.65    5.92
   2   8  -2   14.94    7.46
   2   8  -1  252.12   30.43
   2   8  -1  244.17   29.34
   2   8   0   87.82   17.91
   2   8   1   77.37   16.64
   2   8   2   74.86   15.86
   2   8   3   58.25   14.23
   2   8   4  282.01   30.67
   2   8   5   -0.96    4.13
   2   8   6  195.35   25.65
   2   8   7  317.34   32.38
   2   8   8   11.97    7.98
   2   8   9  150.21   23.07
   2   8  10  136.27   22.63
   2   8  11    5.29    7.36
   2   8  12   25.53   11.32
   2   8  13   16.35    8.77
   2   9  -6  111.49   22.05
   2   9  -5    9.99    9.75
   2   9  -4    2.48    4.34
   2   9  -3   70.85   17.27
   2   9  -3   65.47   17.14
   2   9  -2    4.42    6.70
   2   9  -1   44.21   14.55
   2   9   0    7.09    8.08
   2   9   1   39.47   13.62
   2   9   2  131.43   24.73
   2   9   3    5.23    7.55
   2   9   4  232.02   31.07
   2   9   5   72.04   17.29
   2   9   6   -1.84    5.04
   2   9   7  113.50   21.16
   2   9   8   24.72   10.70
   2   9   9   25.18   10.96
   2   9  10   34.21   11.97
   2   9  11    5.39    6.93
   2   9  12   14.82   11.45
   2   9  13    1.59    4.39
   3  -8  -4   23.30    9.63
   3  -7  -8    0.79    6.34
   3  -7  -7   27.17   11.85
   3  -7  -6   32.63   11.26
   3  -7  -5   11.59    7.63
   3  -7  -4   82.52   16.65
   3  -7  -3   35.55   10.37
   3  -7  -2   -1.48    4.21
   3  -7   4   23.32   12.89
   3  -7   5   20.28   13.82
   3  -6  -9   57.25   15.81
   3  -6  -8   60.19   15.28
   3  -6  -7   29.52   11.06
   3  -6  -6   69.65   15.79
   3  -6  -5   16.89    9.03
   3  -6  -4   16.10    8.75
   3  -6  -3   57.13   13.25
   3  -6  -2   37.45   10.98
   3  -6  -1   -5.78    6.03
   3  -6   0    3.60    2.86
   3  -6   1   58.20   15.52
   3  -6   2   79.99   18.29
   3  -6   3   33.94   13.57
   3  -6   4   82.01   20.14
   3  -6   5   55.70   18.90
   3  -6   6   26.16   14.58
   3  -6   7   48.29   19.77
   3  -5 -11   48.75   14.00
   3  -5 -10   10.22    9.10
   3  -5  -9   60.91   15.13
   3  -5  -8  102.13   19.40
   3  -5  -7   41.58   12.61
   3  -5  -6  100.57   18.87
   3  -5  -5   15.86    9.27
   3  -5  -4    6.66    6.35
   3  -5  -3   40.34   10.62
   3  -5  -2   46.61   10.25
   3  -5  -2   89.45   14.96
   3  -5  -1  163.60   19.83
   3  -5  -1  235.23   23.47
   3  -5   0   31.69   10.94
   3  -5   0   13.28    5.96
   3  -5   1  169.46   23.61
   3  -5   1  122.20   15.05
   3  -5   2  187.65   25.71
   3  -5   2  147.87   15.56
   3  -5   3  142.37   23.60
   3  -5   4  152.79   26.28
   3  -5   5   48.39   17.91
   3  -5   6   26.32   14.91
   3  -5   7   24.44   16.09
   3  -5   8   17.61   14.88
   3  -5   9   29.24   15.61
   3  -4 -13   72.33   17.81
   3  -4 -12    9.87    9.37
   3  -4 -11   81.95   17.58
   3  -4 -10   47.30   13.38
   3  -4  -9    7.03    6.18
   3  -4  -8   65.32   15.37
   3  -4  -7    2.18    4.47
   3  -4  -6   72.48   14.26
   3  -4  -5  120.96   18.50
   3  -4  -4  199.65   23.03
   3  -4  -3  171.06   16.87
   3  -4  -3  362.63   30.77
   3  -4  -2   40.23    9.20
   3  -4  -2   47.51   11.37
   3  -4  -1  289.03   24.29
   3  -4  -1  306.44   24.97
   3  -4   0  570.47   35.99
   3  -4   0  577.30   32.18
   3  -4   1   18.67    9.21
   3  -4   1    4.50    3.90
   3  -4   2  271.46   28.31
   3  -4   2  217.85   17.46
   3  -4   3   60.75   15.51
   3  -4   3   39.99    6.53
   3  -4   4   19.14   11.49
   3  -4   4    2.08    1.00
   3  -4   5   42.38   16.36
   3  -4   6   19.25   11.26
   3  -4   6   38.98    9.97
   3  -4   7  112.47   25.46
   3  -4   7  135.00   18.00
   3  -4   8   22.45   15.29
   3  -4   8   -0.36    5.00
   3  -4   9   31.65   15.54
   3  -4  10  176.08   37.75
   3  -4  11   11.99   13.50
   3  -3 -14   10.10    8.30
   3  -3 -13   51.81   14.07
   3  -3 -12    2.71    3.38
   3  -3 -11   20.91   11.35
   3  -3 -10   84.46   17.05
   3  -3  -9   73.61   15.59
   3  -3  -8   14.83    8.71
   3  -3  -7   69.62   14.16
   3  -3  -6  364.32   32.55
   3  -3  -5  252.79   25.30
   3  -3  -4  274.04   25.37
   3  -3  -3  720.58   31.28
   3  -3  -3  592.48   36.18
   3  -3  -2  227.85   20.85
   3  -3  -2  389.35   28.04
   3  -3  -1    2.09    3.43
   3  -3  -1    1.52    2.81
   3  -3   0  356.54   27.47
   3  -3   0  366.16   23.47
   3  -3   1   79.89   13.85
   3  -3   1   79.18   10.25
   3  -3   2   41.69   11.89
   3  -3   2   34.71    6.55
   3  -3   3   17.14    8.92
   3  -3   3   -0.35    2.20
   3  -3   4  121.43   20.48
   3  -3   4   32.75    5.84
   3  -3   5  171.76   27.13
   3  -3   5  161.52   10.05
   3  -3   6   64.17   17.62
   3  -3   6   89.22   14.26
   3  -3   7  220.95   32.67
   3  -3   7  237.91   24.15
   3  -3   8  243.99   36.27
   3  -3   8  184.41   23.12
   3  -3   9   35.61   16.71
   3  -3  10   38.99   16.50
   3  -3  10   -1.81    7.72
   3  -3  11   34.84   15.73
   3  -3  12   -9.99   10.88
   3  -2 -15   44.72   14.95
   3  -2 -14    1.35    4.10
   3  -2 -13    9.49    6.07
   3  -2 -12   15.65    7.11
   3  -2 -11   97.60   18.01
   3  -2 -10   66.38   13.96
   3  -2  -9   32.06   10.20
   3  -2  -8  819.40   46.94
   3  -2  -7  519.18   32.68
   3  -2  -7  349.98   29.49
   3  -2  -6  234.48   22.74
   3  -2  -6  175.09   20.68
   3  -2  -5 1359.55   54.85
   3  -2  -5 1213.24   51.33
   3  -2  -4  373.50   28.14
   3  -2  -4  276.29   25.18
   3  -2  -3   23.90    6.56
   3  -2  -3   53.92    9.99
   3  -2  -2  387.89   25.18
   3  -2  -1    4.30    5.32
   3  -2  -1    6.80    3.97
   3  -2   0   17.65    4.69
   3  -2   0   47.58    8.02
   3  -2   1   16.31    6.48
   3  -2   1   30.69    6.00
   3  -2   2  204.37   23.55
   3  -2   2  208.53   14.73
   3  -2   3  276.22   28.80
   3  -2   3  204.37   16.14
   3  -2   4  250.20   28.22
   3  -2   4  225.93   14.83
   3  -2   5 1401.45   39.84
   3  -2   5 1461.05   30.49
   3  -2   6   44.44    7.27
   3  -2   6  110.59   21.48
   3  -2   7   67.02    9.28
   3  -2   7   89.32   20.06
   3  -2   7   86.78   14.22
   3  -2   8  593.83   53.80
   3  -2   8  127.41   18.40
   3  -2   9   25.92   12.26
   3  -2   9   -2.62    7.82
   3  -2  10   12.07    9.91
   3  -2  10   24.68    8.93
   3  -2  11   10.58    4.17
   3  -2  11   35.71   12.98
   3  -2  12   -5.08   13.50
   3  -2  12    9.34    9.11
   3  -2  13  -40.60   18.02
   3  -1 -16   19.72   11.91
   3  -1 -15    4.61    7.13
   3  -1 -14    7.00    6.33
   3  -1 -13   79.20   17.52
   3  -1 -12   34.53   10.65
   3  -1 -11  180.38   23.01
   3  -1 -10  200.34   23.11
   3  -1  -9  114.25   17.16
   3  -1  -8  311.86   26.92
   3  -1  -8  268.61   16.23
   3  -1  -7  699.32   25.17
   3  -1  -7  848.75   42.37
   3  -1  -6    6.76    3.18
   3  -1  -6    6.46    4.30
   3  -1  -5   60.16    8.46
   3  -1  -5   66.56   11.04
   3  -1  -4  407.05   24.48
   3  -1  -4  403.04   25.59
   3  -1  -3   61.07   12.47
   3  -1  -3   51.54    8.80
   3  -1  -2   16.02    5.76
   3  -1  -2   15.76    6.39
   3  -1  -1  716.03   46.42
   3  -1  -1  420.58   23.19
   3  -1   0  550.45   34.70
   3  -1   0  645.34   44.56
   3  -1   1   80.94   15.27
   3  -1   1  102.64   11.83
   3  -1   2 1314.15   61.79
   3  -1   2  953.78   38.53
   3  -1   3 1098.36   60.94
   3  -1   3 1461.55   43.92
   3  -1   4   92.00   17.60
   3  -1   4   89.38   14.39
   3  -1   5   80.57   17.19
   3  -1   5  102.78   11.57
   3  -1   5   68.29   12.03
   3  -1   6  739.26   53.76
   3  -1   6  812.74   39.20
   3  -1   7   70.24   10.48
   3  -1   7   44.17   12.17
   3  -1   7   66.29   10.60
   3  -1   8    5.20    3.22
   3  -1   8    8.87    5.20
   3  -1   8    2.70    3.22
   3  -1   9   -6.86   12.11
   3  -1   9    7.65    3.64
   3  -1  10  -32.75   13.66
   3  -1  10   -3.42    4.44
   3  -1  11    3.87    8.84
   3  -1  11   24.05   10.28
   3  -1  12   60.57   19.30
   3  -1  12  120.60   23.31
   3  -1  13   58.72   19.40
   3  -1  13  131.40   26.30
   3  -1  14    2.14    6.61
   3  -1  14   -3.90    5.42
   3   0 -15   39.06   14.74
   3   0 -14   10.86    8.55
   3   0 -13  163.59   25.80
   3   0 -12  249.43   29.15
   3   0 -11    1.01    4.50
   3   0 -10  208.22   24.60
   3   0  -9  289.50   26.10
   3   0  -8   10.62    4.27
   3   0  -8   12.60    5.12
   3   0  -8    9.12    2.15
   3   0  -7  101.03   14.20
   3   0  -7   94.11   12.96
   3   0  -6    5.14    4.08
   3   0  -6    1.52    2.41
   3   0  -5  138.82   15.74
   3   0  -5  141.58   14.27
   3   0  -4   39.76    8.39
   3   0  -4   44.06    7.02
   3   0  -3 1029.85   31.00
   3   0  -3 1254.82   42.15
   3   0  -2 1593.76   41.17
   3   0  -2 1680.30   47.34
   3   0  -1    7.33    4.11
   3   0  -1    9.53    4.00
   3   0   0 2763.80   74.51
   3   0   0 2623.36   67.75
   3   0   1 3431.04  101.04
   3   0   1 2898.92   77.48
   3   0   2    8.39    5.09
   3   0   3 1497.37   67.55
   3   0   3 1653.33   44.21
   3   0   3 1659.58   62.97
   3   0   4 1514.61   70.80
   3   0   4 1172.95   35.01
   3   0   4 1336.68   49.12
   3   0   4 1628.91   59.95
   3   0   4 1202.88   45.19
   3   0   5   22.73   10.18
   3   0   5    1.10    3.23
   3   0   5    8.14    2.56
   3   0   5   29.87    8.31
   3   0   5   -3.45    5.45
   3   0   6   73.61   11.50
   3   0   6   66.35    9.72
   3   0   6   72.24   16.60
   3   0   6   70.56   10.80
   3   0   6   42.19    9.20
   3   0   7   50.01    9.65
   3   0   7   44.02   13.36
   3   0   7   44.72    8.12
   3   0   7   42.75   10.76
   3   0   7   17.62    4.93
   3   0   8   25.98   10.79
   3   0   8   45.95    9.42
   3   0   8   30.93    5.50
   3   0   8   38.64   10.81
   3   0   9    2.16    1.17
   3   0   9    5.02    5.98
   3   0   9    5.99    5.01
   3   0  10  414.13   44.28
   3   0  10  423.88   37.86
   3   0  11  187.36   30.87
   3   0  11  200.87   28.00
   3   0  12   37.63   14.68
   3   0  12   31.24   14.40
   3   0  13  356.32   43.50
   3   0  13  328.23   38.89
   3   0  14  147.52   28.68
   3   0  14  101.34   22.21
   3   0  15   15.30   11.68
   3   0  15   -2.99    4.40
   3   0  16   36.88   15.18
   3   1 -14   21.58    9.46
   3   1 -13   20.48   10.71
   3   1 -12  152.97   26.63
   3   1 -11  221.12   28.67
   3   1 -10  376.49   34.30
   3   1  -9   34.15   10.15
   3   1  -8    4.01    3.80
   3   1  -8    0.87    1.31
   3   1  -7  364.15   28.63
   3   1  -7  203.69   12.44
   3   1  -6   25.16    7.15
   3   1  -6   22.78    5.08
   3   1  -5  975.95   43.55
   3   1  -5  963.35   32.74
   3   1  -5  875.41   40.61
   3   1  -4  777.87   39.57
   3   1  -4  761.97   32.44
   3   1  -4  754.16   35.71
   3   1  -3  171.36   25.74
   3   1  -3  208.39   21.36
   3   1  -3  141.91   14.97
   3   1  -2 2103.62   61.68
   3   1  -2 2194.17   55.59
   3   1  -1 1655.22   71.37
   3   1  -1 1804.12   44.68
   3   1   0  161.20   12.94
   3   1   0  210.98   22.02
   3   1   1  622.96   26.91
   3   1   1  627.70   36.90
   3   1   2  727.49   33.77
   3   1   2  678.41   38.95
   3   1   3  144.79   19.74
   3   1   3  150.75   18.40
   3   1   4   44.80    7.81
   3   1   4   18.70    5.08
   3   1   5  354.54   15.32
   3   1   5  349.76   23.01
   3   1   6  347.68   15.52
   3   1   6  356.66   26.77
   3   1   7  181.06   27.09
   3   1   7  116.78   16.45
   3   1   8 1075.30   52.71
   3   1   8 1266.72   34.14
   3   1   9  742.79   55.93
   3   1   9  550.62   39.32
   3   1  10   55.37   17.93
   3   1  10   20.35    9.77
   3   1  11  811.91   60.61
   3   1  11  615.76   46.60
   3   1  12  232.95   33.68
   3   1  12  192.52   27.47
   3   1  13   49.72   16.98
   3   1  13   20.76   10.07
   3   1  14  170.09   29.97
   3   1  14  107.99   22.78
   3   1  15   10.84    8.78
   3   1  16   11.57    6.96
   3   1  17    3.96    6.12
   3   2 -15   41.67   13.12
   3   2 -14   52.56   14.86
   3   2 -13   -3.30    4.59
   3   2 -12    1.55   15.82
   3   2 -11  -12.13   15.62
   3   2 -10   40.72   17.30
   3   2  -9  169.10   34.03
   3   2  -8  152.62   30.65
   3   2  -7  719.78   36.73
   3   2  -7  511.72   21.73
   3   2  -6  563.50   54.81
   3   2  -6  494.96   21.96
   3   2  -5  443.75   48.71
   3   2  -5  468.96   21.90
   3   2  -4 1297.64   79.80
   3   2  -4 1596.99   40.08
   3   2  -3  430.94   27.92
   3   2  -3  377.45   19.96
   3   2  -2  182.21   14.23
   3   2  -2  195.26   18.73
   3   2  -1 1314.13   39.99
   3   2  -1 1454.11   49.13
   3   2   0   -0.19    3.58
   3   2   0   11.27    4.73
   3   2   0   11.20    4.34
   3   2   1    7.21    3.51
   3   2   1    7.68    4.27
   3   2   1    7.55    3.60
   3   2   2   85.09    9.65
   3   2   2  113.78   12.92
   3   2   2  118.48   12.41
   3   2   3  390.89   24.52
   3   2   3  383.30   22.36
   3   2   4  160.60   16.44
   3   2   4  210.27   17.61
   3   2   5  267.85   21.36
   3   2   6 1759.32   57.69
   3   2   7  265.46   24.08
   3   2   8  183.54   21.23
   3   2   8  197.05   12.52
   3   2   9 1145.42   57.06
   3   2   9 1093.10   27.00
   3   2  10  127.20   20.51
   3   2  11   38.65   11.81
   3   2  12   60.55   15.42
   3   2  13    4.64    6.87
   3   2  14    6.97    8.12
   3   2  15    4.99    5.92
   3   2  16   59.76   18.56
   3   2  17   24.57   13.73
   3   3 -14   34.10   12.82
   3   3 -13    2.19    3.62
   3   3 -12  135.55   22.67
   3   3 -11   34.45   13.31
   3   3 -11   50.94   14.17
   3   3 -10  108.39   18.93
   3   3 -10  143.66   25.84
   3   3  -9  457.35   37.26
   3   3  -9  571.54   50.99
   3   3  -8   59.06   18.13
   3   3  -8   20.75    8.11
   3   3  -7  553.15   37.54
   3   3  -7  504.39   25.71
   3   3  -6 1705.17   78.67
   3   3  -6 1244.48   39.00
   3   3  -5   49.14   14.25
   3   3  -4 2086.61   70.41
   3   3  -4 1208.25   45.00
   3   3  -3 1089.70   44.31
   3   3  -3 1086.84   40.84
   3   3  -2  187.11   17.44
   3   3  -2  168.20   15.72
   3   3  -2  160.81   15.60
   3   3  -1  328.61   21.09
   3   3  -1  296.99   21.55
   3   3  -1  355.74   18.52
   3   3   0  377.81   20.87
   3   3   0  397.27   24.94
   3   3   0  436.15   19.20
   3   3   1 1075.67   32.96
   3   3   1 1085.19   41.59
   3   3   1 1131.17   33.07
   3   3   1 1183.39   45.06
   3   3   2   12.95    3.44
   3   3   2   21.98    5.16
   3   3   2   18.60    5.67
   3   3   3 1836.80   31.80
   3   3   3 1887.71   48.87
   3   3   4 2755.16   33.62
   3   3   4 2893.98   65.34
   3   3   5  144.18   15.95
   3   3   6  624.50   35.05
   3   3   6  647.50   28.34
   3   3   7 1785.18   64.49
   3   3   7 1808.08   46.88
   3   3   8   17.34    4.58
   3   3   8   12.79    6.75
   3   3   9  138.77   20.86
   3   3   9   97.36   11.78
   3   3  10   66.91    8.31
   3   3  10   61.62   13.77
   3   3  11   36.81   10.82
   3   3  11   19.75    4.56
   3   3  12   58.59   15.61
   3   3  13  121.26   22.76
   3   3  14   86.17   20.34
   3   3  15    8.43    7.47
   3   3  16   69.84   20.66
   3   3  17   92.03   24.18
   3   4 -13   12.51    8.42
   3   4 -12  131.24   22.80
   3   4 -11  141.22   23.11
   3   4 -10    0.81    3.19
   3   4 -10    6.60    6.20
   3   4  -9  354.16   21.76
   3   4  -9  410.45   35.75
   3   4  -9  428.67   33.15
   3   4  -8  317.88   20.62
   3   4  -8  265.43   27.83
   3   4  -7   26.19    7.28
   3   4  -7   16.59    6.91
   3   4  -6  125.60   12.71
   3   4  -6  107.03   16.31
   3   4  -5  100.87   14.62
   3   4  -5   86.72    4.53
   3   4  -4   23.95    3.37
   3   4  -4   35.63    8.67
   3   4  -4   29.96    3.00
   3   4  -3    4.00    3.19
   3   4  -3    2.59    3.31
   3   4  -3    1.30    0.75
   3   4  -2  599.29   31.07
   3   4  -2  652.73   29.43
   3   4  -2  591.66   17.55
   3   4  -1  674.30   30.86
   3   4  -1  650.52   20.95
   3   4   0  103.28   11.87
   3   4   0  105.29    9.61
   3   4   1 2378.95   52.12
   3   4   1 2431.22   51.07
   3   4   2 1626.55   39.44
   3   4   2 1538.01   44.48
   3   4   2 1561.40   50.98
   3   4   3    3.38    3.82
   3   4   3    6.48    3.19
   3   4   3    5.51    3.64
   3   4   4 1150.65   45.17
   3   4   4 1184.04   43.59
   3   4   4 1085.63   36.01
   3   4   5  685.00   37.02
   3   4   5  713.09   33.55
   3   4   6  104.68   15.50
   3   4   6   87.17   12.11
   3   4   7  434.54   33.11
   3   4   7  413.66   24.90
   3   4   8   12.17    4.46
   3   4   8    7.43    5.73
   3   4   9   13.80    5.07
   3   4   9   12.39    6.09
   3   4  10   16.75    7.34
   3   4  10   15.07    5.47
   3   4  11   42.36   13.79
   3   4  11   58.37   11.11
   3   4  12  269.37   33.46
   3   4  13   10.36    7.63
   3   4  14  165.16   29.37
   3   4  15  231.90   35.92
   3   4  16    6.36    8.02
   3   5 -12   21.20   10.69
   3   5 -11  152.90   24.26
   3   5 -10   13.32    6.25
   3   5 -10   26.96   10.96
   3   5  -9   87.79   17.58
   3   5  -9   98.78   17.49
   3   5  -8  200.93   24.58
   3   5  -8  191.75   23.66
   3   5  -7  172.63   22.01
   3   5  -7  162.75   21.46
   3   5  -6  151.86   19.70
   3   5  -6  158.06   21.07
   3   5  -5   88.85   15.07
   3   5  -5  114.92   17.43
   3   5  -4  697.40   38.81
   3   5  -4  780.28   44.70
   3   5  -3  567.44   34.07
   3   5  -3  567.57   31.44
   3   5  -3  592.61   39.40
   3   5  -2  148.90   16.44
   3   5  -2  145.67   13.17
   3   5  -2  127.42    8.47
   3   5  -1 1055.28   42.31
   3   5  -1 1137.77   31.66
   3   5   0 1029.48   38.34
   3   5   0 1035.28   35.18
   3   5   0 1043.16   48.19
   3   5   1  291.12   20.01
   3   5   1  285.04   20.50
   3   5   1  279.89   24.23
   3   5   2 1579.81   46.78
   3   5   2 1606.69   52.24
   3   5   2 1512.97   56.24
   3   5   3  320.72   21.37
   3   5   3  300.57   24.24
   3   5   3  307.49   24.92
   3   5   4  252.84   23.41
   3   5   4  241.87   22.63
   3   5   4  275.43   25.93
   3   5   5  143.05   18.53
   3   5   5  133.63   15.79
   3   5   6  222.80   24.49
   3   5   6  218.41   20.44
   3   5   7  238.02   27.57
   3   5   7  302.46   25.50
   3   5   8  197.55   24.86
   3   5   8  173.09   18.76
   3   5   9  690.72   49.81
   3   5   9  687.59   37.95
   3   5  10  362.07   37.22
   3   5  10  376.13   27.87
   3   5  11  227.82   31.63
   3   5  11  240.31   23.82
   3   5  12  282.07   35.84
   3   5  12  256.28   25.63
   3   5  13  245.33   34.55
   3   5  14   13.18   12.14
   3   5  15   62.47   19.36
   3   5  16    2.81   11.11
   3   6 -10   31.01   11.15
   3   6  -9   23.68   10.05
   3   6  -9   11.82    7.38
   3   6  -8  102.72   18.39
   3   6  -8  116.00   19.85
   3   6  -7    7.21    7.01
   3   6  -7   -0.79    3.26
   3   6  -6  427.92   34.17
   3   6  -6  475.38   38.34
   3   6  -5   98.42   15.52
   3   6  -5   89.40   16.98
   3   6  -4  198.01   21.26
   3   6  -4  253.10   27.80
   3   6  -3  653.86   36.70
   3   6  -3  730.23   46.30
   3   6  -2  398.77   27.73
   3   6  -2  400.54   33.53
   3   6  -1  468.63   29.83
   3   6  -1  507.99   36.94
   3   6   0  321.16   24.35
   3   6   0  319.50   20.40
   3   6   0  315.78   28.66
   3   6   1   83.42   12.22
   3   6   1   83.64   11.85
   3   6   1  101.40   16.50
   3   6   2   73.54   11.85
   3   6   2   63.46   11.70
   3   6   2   66.62   12.88
   3   6   3   54.51   11.38
   3   6   3   68.14   12.11
   3   6   3   48.68   10.91
   3   6   4  201.65   23.36
   3   6   4  192.12   20.74
   3   6   5  457.30   36.77
   3   6   5  424.52   31.16
   3   6   6  207.87   26.05
   3   6   6  187.08   20.99
   3   6   7  382.40   36.94
   3   6   7  381.13   30.09
   3   6   8  682.64   51.23
   3   6   8  597.25   37.80
   3   6   9  265.79   32.69
   3   6   9  221.30   23.01
   3   6  10  256.51   33.17
   3   6  10  262.84   25.96
   3   6  11  123.94   24.22
   3   6  11  114.40   18.21
   3   6  12   47.62   14.98
   3   6  12   59.33   13.73
   3   6  13  105.89   23.43
   3   6  14   -0.19    4.95
   3   6  15    1.13    4.94
   3   7  -9   21.34    9.51
   3   7  -8   48.13   13.29
   3   7  -8  104.24   19.47
   3   7  -7   28.87   10.98
   3   7  -7   47.84   11.85
   3   7  -6  226.54   25.97
   3   7  -6  212.39   27.27
   3   7  -5  191.55   23.03
   3   7  -5  194.71   26.14
   3   7  -4    5.27    4.90
   3   7  -4    5.86    6.40
   3   7  -3  283.25   26.51
   3   7  -3  331.92   33.55
   3   7  -2  114.15   16.61
   3   7  -2  122.50   19.97
   3   7  -1  100.76   15.66
   3   7  -1  118.18   19.86
   3   7   0  181.84   20.18
   3   7   0  170.95   22.50
   3   7   1   10.19    5.02
   3   7   1   12.14    6.78
   3   7   2  471.85   37.42
   3   7   2  548.10   39.79
   3   7   3   16.89    7.40
   3   7   3   22.68    7.76
   3   7   4  210.80   25.17
   3   7   4  204.00   23.94
   3   7   5  461.09   39.19
   3   7   5  435.74   35.38
   3   7   6   63.56   13.65
   3   7   6   51.29   15.33
   3   7   7  400.17   40.36
   3   7   7  366.62   32.25
   3   7   8  295.87   35.53
   3   7   8  285.87   28.12
   3   7   9   14.61   10.79
   3   7   9   13.10    7.96
   3   7  10  140.90   28.21
   3   7  10  110.86   19.35
   3   7  11   56.75   17.67
   3   7  11   61.86   14.76
   3   7  12   22.77   11.87
   3   7  12   16.93   10.18
   3   7  13   11.17    7.74
   3   7  14    1.73    4.84
   3   8  -8  110.78   22.09
   3   8  -7   23.16    9.99
   3   8  -7   41.10   12.70
   3   8  -6    8.66    5.99
   3   8  -6    3.99    6.50
   3   8  -5  170.02   23.02
   3   8  -5  182.32   27.04
   3   8  -4   26.40    9.24
   3   8  -4   28.92    9.01
   3   8  -3   77.86   17.12
   3   8  -3   81.00   15.56
   3   8  -2   57.12   13.49
   3   8  -2   58.38   13.19
   3   8  -1   19.92    9.48
   3   8  -1   17.29    7.75
   3   8   0  206.40   27.91
   3   8   0  193.58   24.38
   3   8   1   16.37    9.66
   3   8   1    3.80    4.39
   3   8   2  380.36   36.92
   3   8   3  277.58   30.71
   3   8   4   41.57   12.71
   3   8   5  236.47   28.26
   3   8   6  165.85   23.33
   3   8   7   44.07   12.12
   3   8   8   66.51   15.26
   3   8   9    5.99    6.36
   3   8   9    8.72    6.21
   3   8  10   39.90   14.45
   3   8  10   39.25   12.56
   3   8  11   15.49   10.61
   3   8  11   19.65    8.80
   3   8  12   37.14   13.10
   3   9  -7   36.38   14.44
   3   9  -6    7.22    7.83
   3   9  -5   39.21   13.56
   3   9  -4    9.20    6.41
   3   9  -4   10.74    8.52
   3   9  -3   28.68   11.00
   3   9  -3   49.04   16.30
   3   9  -2   87.33   18.65
   3   9  -2   99.61   22.47
   3   9  -1    4.51    4.76
   3   9  -1   10.70    7.33
   3   9   0  267.30   34.21
   3   9   0  285.95   35.76
   3   9   1  100.02   22.01
   3   9   2   14.43    8.90
   3   9   3  341.83   36.84
   3   9   4   46.55   14.27
   3   9   5   52.37   14.06
   3   9   6   93.16   18.94
   3   9   7    3.03    4.05
   3   9   8   25.93   10.68
   3   9   9    5.44    7.75
   3   9  10   86.65   19.01
   3   9  11   21.66   12.19
   3   9  12    6.66    8.52
   3  10   2    4.51    6.84
   3  10   3   44.57   15.48
   3  10   4   18.22    9.03
   3  10   5   56.87   16.92
   3  10   6   59.14   17.28
   4  -7  -4   -3.66    5.71
   4  -7  -3   -0.29    2.86
   4  -6  -6    7.64    6.84
   4  -6  -5    2.26    3.52
   4  -6  -4    0.17    2.98
   4  -6  -3   22.82    8.62
   4  -6  -2    1.72    4.79
   4  -6  -1   14.96    7.15
   4  -6   5   -2.17    7.09
   4  -6   6   -4.35    5.75
   4  -5  -8    5.99    6.45
   4  -5  -7    2.97    3.59
   4  -5  -6    9.05    6.55
   4  -5  -5  103.77   18.74
   4  -5  -4    1.97    4.51
   4  -5  -3   27.64    9.35
   4  -5  -2  222.79   24.39
   4  -5  -1    7.50    5.19
   4  -5   0   48.06   11.04
   4  -5   1   55.09   11.53
   4  -5   2    9.76    7.41
   4  -5   3   10.60    5.99
   4  -5   4   -0.56    3.50
   4  -5   5   -4.40    5.80
   4  -5   6   -0.94    5.94
   4  -5   7   -3.44    8.51
   4  -5   8   -2.49    7.74
   4  -4 -10   20.47    9.90
   4  -4  -9    7.27    6.67
   4  -4  -8    6.26    6.61
   4  -4  -7  220.91   27.51
   4  -4  -6   32.05   10.88
   4  -4  -5  103.65   17.59
   4  -4  -4  168.46   21.96
   4  -4  -3    1.84    3.92
   4  -4  -2  154.67   19.34
   4  -4  -1   34.20    9.03
   4  -4   0  -17.24    7.55
   4  -4   0    2.96    4.30
   4  -4   1   -4.53    8.57
   4  -4   1    1.90    3.54
   4  -4   2    5.40    4.64
   4  -4   2   15.43    5.29
   4  -4   3   27.05   10.79
   4  -4   3   31.71    7.74
   4  -4   4    3.80    3.53
   4  -4   5   62.95   19.36
   4  -4   6   47.56   17.99
   4  -4   6  106.22   14.63
   4  -4   7    4.01    4.66
   4  -4   7   24.55    8.60
   4  -4   8   52.14   17.84
   4  -4   8  123.02   18.18
   4  -4   9  -17.70   12.42
   4  -3 -12   11.58    7.03
   4  -3 -11    1.11    5.83
   4  -3 -10   82.42   17.16
   4  -3  -9   99.18   18.16
   4  -3  -8   27.80    9.95
   4  -3  -7   63.09   13.30
   4  -3  -6  137.24   19.73
   4  -3  -5    8.16    5.34
   4  -3  -4  105.80   16.12
   4  -3  -3    0.09    2.11
   4  -3  -2   29.22    9.25
   4  -3  -1   40.84   10.23
   4  -3  -1   31.99    8.33
   4  -3   0   85.53   15.24
   4  -3   0   82.41   12.38
   4  -3   1    0.80    4.39
   4  -3   1   13.92    5.42
   4  -3   2   -4.91    9.46
   4  -3   2   10.97    4.67
   4  -3   3  248.88   31.97
   4  -3   3  268.73   22.16
   4  -3   4   34.52   11.46
   4  -3   4   23.71    4.94
   4  -3   5  -11.41   11.12
   4  -3   6  139.47   27.98
   4  -3   6  328.72   24.91
   4  -3   7   26.20   10.95
   4  -3   7  128.38   16.86
   4  -3   8   -8.67   12.41
   4  -3   8    4.64    5.25
   4  -3   9   -6.97   14.68
   4  -3   9    3.73    7.41
   4  -3  10  -42.06   18.43
   4  -3  10    6.54    6.14
   4  -2 -13   14.68    9.04
   4  -2 -12   64.38   16.13
   4  -2 -11   13.96    7.67
   4  -2 -10   56.40   13.86
   4  -2  -9  290.02   29.17
   4  -2  -8    8.90    6.64
   4  -2  -7  187.87   22.18
   4  -2  -6  134.46   18.71
   4  -2  -5   -0.58    3.37
   4  -2  -4   92.89   14.45
   4  -2  -3   32.84    9.26
   4  -2  -2  210.35   20.31
   4  -2  -1    5.74    4.75
   4  -2   0  269.99   25.44
   4  -2   0  200.43   18.57
   4  -2   1  891.14   48.44
   4  -2   1  696.52   33.41
   4  -2   2   61.99   14.49
   4  -2   2   52.45   10.01
   4  -2   3   55.05   13.63
   4  -2   3   11.45    3.00
   4  -2   4  446.35   41.87
   4  -2   4  561.08   25.10
   4  -2   5    4.55    8.04
   4  -2   5   35.65    5.73
   4  -2   6   -8.38   10.29
   4  -2   6   30.58   10.33
   4  -2   7   -7.91   10.76
   4  -2   7   33.41   10.28
   4  -2   8  -32.65   13.85
   4  -2   8    4.67    3.39
   4  -2   9   -9.57   12.69
   4  -2   9   13.21    6.48
   4  -2  10   32.27   11.58
   4  -2  10   49.89   13.84
   4  -2  11   19.98   10.20
   4  -2  11    7.00    4.70
   4  -2  12   -2.82    8.92
   4  -1 -14   25.33   12.57
   4  -1 -13    3.16    5.35
   4  -1 -12   67.22   16.06
   4  -1 -11   98.64   18.32
   4  -1 -10   19.77    8.77
   4  -1  -9   19.83    8.24
   4  -1  -8   48.82   11.84
   4  -1  -7    6.12    4.32
   4  -1  -6   29.17    8.70
   4  -1  -6   18.66    5.58
   4  -1  -5  180.24   20.44
   4  -1  -5  214.64   21.83
   4  -1  -4  151.19   17.79
   4  -1  -3   33.91    8.80
   4  -1  -2  577.08   31.55
   4  -1  -1  891.71   38.23
   4  -1   0   40.49    8.71
   4  -1   1  416.26   29.01
   4  -1   2  528.94   38.56
   4  -1   2  144.70   16.94
   4  -1   3  230.40   26.54
   4  -1   3  157.96   15.27
   4  -1   4  140.62   22.17
   4  -1   4  183.30   14.22
   4  -1   5   72.78   17.07
   4  -1   5   79.09    8.77
   4  -1   6    8.43    7.48
   4  -1   6   41.25   10.67
   4  -1   7    0.17    3.75
   4  -1   7   10.58    7.07
   4  -1   8   14.34    8.05
   4  -1   8   10.71    4.30
   4  -1   9  128.93   25.31
   4  -1   9   50.17    7.43
   4  -1  10    2.23    5.76
   4  -1  11  174.96   30.51
   4  -1  11   27.24    7.51
   4  -1  12   85.10   22.75
   4  -1  12   29.66   12.85
   4  -1  13   36.63   17.03
   4  -1  13   19.02   11.56
   4  -1  14   32.30   16.49
   4   0 -15   -1.47    7.12
   4   0 -14   33.09   14.13
   4   0 -13   26.20   12.08
   4   0 -12    8.02    7.01
   4   0 -11  101.49   19.11
   4   0 -10   23.90    8.05
   4   0  -9   48.75   14.63
   4   0  -8    5.41    4.53
   4   0  -7  212.94   22.20
   4   0  -6  221.70   22.08
   4   0  -5   11.63    6.06
   4   0  -4 1298.39   49.27
   4   0  -3  533.87   31.44
   4   0  -2   54.80   10.97
   4   0  -1  694.33   39.00
   4   0   0  717.03   44.48
   4   0   1   55.01   11.24
   4   0   2    1.06    3.79
   4   0   3   24.98    6.93
   4   0   4   61.06    8.59
   4   0   4   87.50   14.74
   4   0   5  296.38   23.96
   4   0   5  285.31   31.21
   4   0   5  310.41   26.03
   4   0   6  851.84   56.05
   4   0   6  731.40   36.35
   4   0   6  832.95   44.59
   4   0   7  418.10   40.32
   4   0   7  135.53   15.35
   4   0   7  242.76   25.54
   4   0   7  423.36   30.22
   4   0   8  153.79   24.94
   4   0   8   -5.17   11.74
   4   0   9  493.68   45.35
   4   0   9  161.27   24.20
   4   0  10  393.06   41.44
   4   0  10  188.61   27.89
   4   0  11   11.08   10.89
   4   0  11    1.80    4.49
   4   0  12  103.01   23.48
   4   0  12   68.01   19.97
   4   0  13   61.84   19.23
   4   0  13   52.42   18.95
   4   0  14   17.58   12.08
   4   0  14   20.45   13.52
   4   0  15  -12.53   10.68
   4   0  16  -26.70   14.52
   4   1 -14   50.80   17.80
   4   1 -13    3.52    5.32
   4   1 -12    7.10    4.04
   4   1 -11   29.65   10.95
   4   1 -10    1.21    3.76
   4   1  -9  359.41   34.91
   4   1  -8  186.84   24.06
   4   1  -7  224.07   25.86
   4   1  -7  190.39   17.42
   4   1  -6  853.14   47.54
   4   1  -5  387.08   31.81
   4   1  -4   11.86    7.26
   4   1  -3 1037.70   55.93
   4   1  -2  209.91   26.31
   4   1  -1    5.45    7.38
   4   1   0  101.64   16.91
   4   1   1  411.87   31.54
   4   1   2 2267.91   62.68
   4   1   3 1675.74   49.90
   4   1   4 1288.57   53.57
   4   1   5  366.62   28.85
   4   1   5  779.56   32.76
   4   1   6   43.76    6.95
   4   1   6   36.71    8.47
   4   1   7  618.94   26.46
   4   1   7  589.02   41.00
   4   1   8  153.99   14.14
   4   1   8  138.36   20.89
   4   1   9    0.31    5.75
   4   1  10  116.14   21.80
   4   1  11   64.43   17.37
   4   1  12   19.14   12.33
   4   1  13   19.16   11.80
   4   1  14   24.67   12.92
   4   1  15    5.45    8.41
   4   1  16    8.04    8.24
   4   2 -13   -4.33   17.12
   4   2 -12    3.61    5.28
   4   2 -11   97.04   31.66
   4   2 -10   32.86   18.03
   4   2  -9   78.71   25.09
   4   2  -8  582.00   60.66
   4   2  -7   25.74   12.16
   4   2  -7   20.35    5.16
   4   2  -6  197.49   33.46
   4   2  -6  219.07   16.80
   4   2  -5  310.61   39.19
   4   2  -5  307.39   20.89
   4   2  -3  183.52   28.57
   4   2  -2  106.57   21.40
   4   2  -1 1228.12   63.93
   4   2   0  183.71   23.77
   4   2   1 1250.66   51.35
   4   2   2 1823.73   58.99
   4   2   3  190.17   19.30
   4   2   4  226.40   21.74
   4   2   5 1267.74   54.66
   4   2   5 3211.77   56.22
   4   2   6  146.53    7.98
   4   2   6  195.60   22.66
   4   2   7   46.15   11.46
   4   2   8  259.53   28.12
   4   2   9   12.17    7.11
   4   2  10    0.69    1.54
   4   2  10    2.97    6.78
   4   2  11   62.29   17.06
   4   2  12  167.45   29.27
   4   2  13   30.48   14.48
   4   2  14   38.28   15.14
   4   2  15  177.27   33.01
   4   2  16    2.35    5.10
   4   3 -13   45.22   14.10
   4   3 -12   -4.70    7.02
   4   3 -11  139.64   24.75
   4   3 -11  104.97   28.53
   4   3 -10  145.69   32.25
   4   3  -9   -1.01   11.07
   4   3  -8   80.22   25.16
   4   3  -7  171.53   31.88
   4   3  -6   59.19   18.83
   4   3  -6   31.09    6.80
   4   3  -5  394.18   44.78
   4   3  -5  253.71   20.13
   4   3  -4  574.68   49.63
   4   3  -3  159.96   24.36
   4   3  -2   82.69   14.27
   4   3  -1  381.83   29.50
   4   3   0  662.68   38.58
   4   3   1   37.69    7.53
   4   3   2  650.94   34.40
   4   3   3 1013.30   43.76
   4   3   4    9.30    2.70
   4   3   4   18.66    7.62
   4   3   5  408.59   29.85
   4   3   6   58.85   11.98
   4   3   7   22.79    8.48
   4   3   8    7.26    3.48
   4   3   8   10.05    6.24
   4   3   9  179.77   24.20
   4   3   9  176.41   16.12
   4   3  10  329.26   35.30
   4   3  10  332.44   20.76
   4   3  11    7.07   10.04
   4   3  12  255.72   34.24
   4   3  13  306.34   39.05
   4   3  14    6.40    8.94
   4   3  15   33.55   14.01
   4   3  16   53.55   19.72
   4   4 -12   30.52   11.82
   4   4 -11   22.38    9.60
   4   4 -10   77.35   15.43
   4   4 -10  100.32   19.81
   4   4  -9   20.41    9.11
   4   4  -9    0.34    5.45
   4   4  -8  167.45   21.74
   4   4  -8  105.12   18.85
   4   4  -7   58.13   12.98
   4   4  -7   28.59    8.26
   4   4  -6   61.62   12.89
   4   4  -6   41.21   10.61
   4   4  -5  360.52   29.23
   4   4  -5  272.46   26.89
   4   4  -4   11.99    8.55
   4   4  -4   -3.06    4.57
   4   4  -3 1038.60   46.56
   4   4  -3  913.12   44.91
   4   4  -2  742.99   38.76
   4   4  -2  874.13   31.28
   4   4  -1   55.76   12.12
   4   4  -1   47.73   11.18
   4   4   0 1654.00   52.52
   4   4   0 1801.79   46.05
   4   4   1  714.20   32.02
   4   4   1  724.71   30.73
   4   4   2   29.06    9.99
   4   4   2   40.20   11.48
   4   4   3  690.71   26.35
   4   4   3  707.65   34.20
   4   4   4   36.72    5.54
   4   4   4   39.56    8.73
   4   4   5    1.39    0.99
   4   4   5    5.49    4.52
   4   4   6   22.44    6.29
   4   4   6   19.76    6.99
   4   4   7  254.15   26.49
   4   4   7  267.80   22.38
   4   4   8  671.27   45.34
   4   4   8  667.94   35.00
   4   4   9   88.93   17.62
   4   4   9   71.17   11.49
   4   4  10  372.80   37.86
   4   4  10  392.91   26.65
   4   4  11  317.38   36.30
   4   4  11  297.77   23.22
   4   4  12   12.13    8.56
   4   4  13  249.93   34.94
   4   4  14   13.74    9.77
   4   4  15    4.05    7.15
   4   4  16   15.43   11.53
   4   5 -11   11.71    8.42
   4   5 -10   39.30   12.02
   4   5 -10   45.87   14.23
   4   5  -9   12.79    8.17
   4   5  -9    7.36    6.65
   4   5  -8  224.16   27.77
   4   5  -7  100.37   18.91
   4   5  -6  326.63   30.76
   4   5  -5  549.57   38.38
   4   5  -4  311.77   27.86
   4   5  -4  264.72   11.74
   4   5  -3  242.49   23.91
   4   5  -3  245.79   12.75
   4   5  -2  617.26   35.80
   4   5  -2  581.89   22.16
   4   5  -1   66.94   11.58
   4   5  -1   63.90    8.08
   4   5   0   71.24   14.73
   4   5   0   37.37    6.70
   4   5   1  161.51   17.09
   4   5   1  154.21   14.65
   4   5   2  395.89   24.35
   4   5   2  263.90   23.42
   4   5   3  248.06   18.40
   4   5   3  178.87   20.17
   4   5   3  209.76   24.00
   4   5   4   29.20    8.67
   4   5   4   25.30    5.52
   4   5   4   21.70    8.06
   4   5   5 1221.61   53.90
   4   5   5 1264.30   52.72
   4   5   6  252.92   25.73
   4   5   6  279.27   24.95
   4   5   7  232.16   25.98
   4   5   7  238.14   22.88
   4   5   8  478.66   39.26
   4   5   8  509.99   33.45
   4   5   9  222.25   28.17
   4   5   9  224.24   21.89
   4   5  10  174.28   25.50
   4   5  10  183.52   20.57
   4   5  11   69.04   16.98
   4   5  11   94.10   15.01
   4   5  12   34.34   11.84
   4   5  13    3.33    5.99
   4   5  14    2.61    3.72
   4   5  15   17.07   11.21
   4   6 -10  110.66   21.08
   4   6  -9   55.32   14.51
   4   6  -9   86.40   18.69
   4   6  -8   61.76   15.41
   4   6  -8   71.42   16.52
   4   6  -7  311.20   31.70
   4   6  -7  316.74   33.67
   4   6  -6   47.61   13.07
   4   6  -6   39.55   12.78
   4   6  -5  142.02   20.38
   4   6  -5  152.33   22.52
   4   6  -4  317.97   28.97
   4   6  -4  316.05   31.85
   4   6  -3   53.34   13.29
   4   6  -3   52.85   12.54
   4   6  -2  135.88   18.27
   4   6  -2  148.47   21.95
   4   6  -1   96.53   14.79
   4   6  -1  103.38   11.32
   4   6  -1  111.56   18.14
   4   6   0  283.05   23.33
   4   6   0  298.33   21.49
   4   6   0  298.77   28.65
   4   6   1   75.09   12.39
   4   6   1   68.28   11.49
   4   6   1   68.85   14.59
   4   6   2  259.32   21.36
   4   6   2  235.37   21.78
   4   6   2  213.86   23.78
   4   6   3  618.67   33.11
   4   6   3  625.80   37.41
   4   6   3  611.71   40.29
   4   6   4  144.98   18.96
   4   6   4  151.03   19.56
   4   6   4  126.13   15.74
   4   6   5  499.26   36.93
   4   6   5  517.73   35.97
   4   6   6 1371.41   64.08
   4   6   6 1352.65   57.83
   4   6   7   61.49   14.45
   4   6   7   59.66   13.20
   4   6   8  176.74   24.98
   4   6   8  165.51   20.03
   4   6   9  284.01   32.59
   4   6   9  303.13   27.74
   4   6  10   24.78    8.31
   4   6  10   19.57    8.03
   4   6  11   82.19   19.19
   4   6  11   88.25   15.61
   4   6  12   28.41   11.25
   4   6  13   38.10   15.29
   4   6  14   17.82   12.23
   4   6  15   36.76   14.35
   4   7  -9   33.86   13.44
   4   7  -8   -4.14    7.28
   4   7  -8    3.51    3.56
   4   7  -7  102.26   18.81
   4   7  -7  126.07   23.05
   4   7  -6   66.49   15.99
   4   7  -6   44.63   11.66
   4   7  -5   75.56   17.26
   4   7  -5   54.08   13.47
   4   7  -4   75.20   17.26
   4   7  -4   48.11   11.51
   4   7  -3   -0.04    3.94
   4   7  -3   -2.94    4.00
   4   7  -2  298.03   27.17
   4   7  -2  372.72   36.24
   4   7  -1   25.09    9.35
   4   7  -1   31.67    8.94
   4   7   0  166.17   19.83
   4   7   0  108.80   13.36
   4   7   0  154.09   22.69
   4   7   1  805.84   43.27
   4   7   1  796.08   40.09
   4   7   1  755.00   48.61
   4   7   2   10.93    6.46
   4   7   2    9.00    5.09
   4   7   2   10.50    4.98
   4   7   3  414.18   34.70
   4   7   3  409.55   35.02
   4   7   3  448.90   35.20
   4   7   4  228.48   26.43
   4   7   4  248.19   26.83
   4   7   4  199.73   25.19
   4   7   5   61.05   13.69
   4   7   5   52.39   13.20
   4   7   6  169.04   24.42
   4   7   6  159.24   21.43
   4   7   7    3.72    3.60
   4   7   7    3.51    5.74
   4   7   8   26.62    9.20
   4   7   8   29.31   13.25
   4   7   9   15.42    6.90
   4   7   9   21.50   10.62
   4   7  10   38.22   13.36
   4   7  10   41.97   11.88
   4   7  11  118.55   24.74
   4   7  11  113.58   19.53
   4   7  12    7.96    5.78
   4   7  12    1.55    3.54
   4   7  13   61.92   18.86
   4   7  14   80.41   22.21
   4   8  -8   -0.09    4.26
   4   8  -7   29.40   12.07
   4   8  -6   39.75   14.84
   4   8  -6   35.68   11.80
   4   8  -5   71.94   17.88
   4   8  -5   72.49   15.41
   4   8  -4  111.55   21.59
   4   8  -4   95.74   17.64
   4   8  -3   14.13    8.27
   4   8  -3   26.08    9.18
   4   8  -2  249.85   26.98
   4   8  -2  265.03   31.86
   4   8  -1  252.96   26.18
   4   8  -1  266.26   31.82
   4   8   0   36.61   11.95
   4   8   0   36.46   11.04
   4   8   1  268.10   28.25
   4   8   1  270.79   31.55
   4   8   2  171.66   24.52
   4   8   2  189.56   25.48
   4   8   3   99.19   19.49
   4   8   3   79.45   15.38
   4   8   3   90.99   17.86
   4   8   4  241.78   28.72
   4   8   4  246.97   28.64
   4   8   5   19.40    7.01
   4   8   5   22.23    9.90
   4   8   6   20.94    8.17
   4   8   6   17.95    8.47
   4   8   7   52.90   13.16
   4   8   7   72.45   17.91
   4   8   8  128.22   24.18
   4   8   8  121.66   20.44
   4   8   9   61.81   17.71
   4   8   9   67.84   14.82
   4   8  10    5.10    6.47
   4   8  10    1.17    5.18
   4   8  11  183.28   31.98
   4   8  11  172.28   26.01
   4   8  12   69.07   20.49
   4   8  12   86.74   19.56
   4   8  13    6.70    5.39
   4   9  -7   24.79   12.01
   4   9  -6   34.88   14.50
   4   9  -5   23.27   10.64
   4   9  -4   82.97   20.26
   4   9  -4   62.83   15.50
   4   9  -3   29.21   12.20
   4   9  -3   19.33    9.05
   4   9  -2   47.48   13.96
   4   9  -2   55.25   13.92
   4   9  -1  184.33   28.69
   4   9  -1  181.28   25.79
   4   9   0   -6.13    5.59
   4   9   0   -1.92    3.54
   4   9   1   49.00   15.37
   4   9   1   83.33   18.61
   4   9   2   94.31   19.92
   4   9   2  109.21   23.06
   4   9   3   10.19    5.86
   4   9   4  168.36   28.43
   4   9   5    3.10    6.63
   4   9   6  103.66   20.66
   4   9   7   76.72   19.85
   4   9   7  109.30   21.58
   4   9   8   34.76   14.17
   4   9   8   37.28   12.65
   4   9   9  122.11   27.05
   4   9   9  113.35   21.71
   4   9  10   24.16   13.27
   4   9  10   30.11   12.75
   4   9  11    9.49    8.45
   4   9  11    9.49    7.48
   4   9  12   57.56   19.88
   4   9  12   55.74   17.63
   4  10  -1   96.05   21.55
   4  10   0   -4.96   10.85
   4  10   1   26.37   16.03
   4  10   2   33.30   13.23
   4  10   3   30.09   12.22
   4  10   4   54.76   16.95
   4  10   5   25.65   11.66
   4  10   6   85.84   19.42
   4  10   7  110.46   22.09
   4  10   8    6.21    8.31
   4  10   9   52.46   16.66
   5  -6  -3   11.05    6.39
   5  -5  -6   41.36   13.24
   5  -5  -5   11.22    7.80
   5  -5  -4   23.01    9.76
   5  -5  -3   27.24   11.23
   5  -5  -2    6.78    6.00
   5  -5  -1   20.95    8.20
   5  -5   0    5.40    4.92
   5  -5   6  -11.99   13.91
   5  -4  -8   34.86   13.14
   5  -4  -7    3.15    6.13
   5  -4  -6   28.67   10.07
   5  -4  -5   50.01   12.97
   5  -4  -4    9.05    7.02
   5  -4  -3    1.99    4.35
   5  -4  -2    9.53    6.43
   5  -4  -1    2.79    4.63
   5  -4   0    5.45    4.55
   5  -4   1   71.41   14.26
   5  -4   2   24.91    8.67
   5  -4   3   23.17   11.23
   5  -4   4    7.47    7.37
   5  -4   5   30.80   12.62
   5  -4   6   24.92    8.41
   5  -4   6   -3.14    7.53
   5  -4   7   -1.37    5.20
   5  -4   7   21.43    8.77
   5  -4   8   -2.83    9.83
   5  -3  -9   37.84   12.20
   5  -3  -8   24.97   11.88
   5  -3  -7    7.76    5.61
   5  -3  -6    2.72    6.22
   5  -3  -5    6.17    6.45
   5  -3  -4   74.71   16.66
   5  -3  -3   13.16    7.05
   5  -3  -2   44.43   11.37
   5  -3  -1  144.02   20.07
   5  -3   0   68.38   13.45
   5  -3   1   24.92    8.89
   5  -3   1   35.63   10.55
   5  -3   2  178.99   23.52
   5  -3   2   88.53   15.63
   5  -3   3   82.32   17.87
   5  -3   3    4.10    2.96
   5  -3   4    4.07    5.95
   5  -3   5   11.84    9.93
   5  -3   6   24.11    7.71
   5  -3   6   12.08    7.35
   5  -3   7    9.70    9.26
   5  -3   7   18.88    7.13
   5  -3   8    0.48    8.49
   5  -3   8    4.55    4.55
   5  -3   9   37.13   17.22
   5  -3   9   32.58   10.23
   5  -3  10  -12.60    9.59
   5  -2 -11   29.20   12.69
   5  -2 -10    6.15    7.12
   5  -2  -9    4.48    6.58
   5  -2  -8   30.36   10.65
   5  -2  -7   61.34   14.76
   5  -2  -6   74.50   15.79
   5  -2  -5    9.83    6.87
   5  -2  -4   99.69   16.15
   5  -2  -3  198.83   22.63
   5  -2  -2   13.65    7.44
   5  -2  -1  138.99   17.80
   5  -2   0   95.22   15.45
   5  -2   1   31.50   10.07
   5  -2   2   -4.70    7.34
   5  -2   3   34.52   12.22
   5  -2   3   10.58    3.07
   5  -2   4    7.82    7.49
   5  -2   4    7.39    4.48
   5  -2   5    8.29    9.08
   5  -2   5    7.81    3.67
   5  -2   6   57.49   17.46
   5  -2   6   80.61   13.52
   5  -2   7   58.70   17.37
   5  -2   7   76.63   14.09
   5  -2   8    4.99    9.70
   5  -2   8    6.59    7.14
   5  -2   9   82.57   22.64
   5  -2   9   79.32   15.13
   5  -2  10   97.30   24.79
   5  -2  10   95.50   17.48
   5  -2  11   20.21   13.39
   5  -2  11   45.10   15.92
   5  -2  12   41.05   16.64
   5  -1 -12   16.75    9.58
   5  -1 -11   17.86   10.26
   5  -1 -10   16.01    8.24
   5  -1  -9    2.64    5.29
   5  -1  -8   66.93   14.33
   5  -1  -7   12.28    6.38
   5  -1  -6  132.80   19.13
   5  -1  -5  174.87   21.01
   5  -1  -4   16.20    7.19
   5  -1  -3  298.83   27.14
   5  -1  -2  168.61   20.43
   5  -1  -1   11.44    6.70
   5  -1   0   22.68    8.67
   5  -1   1   -0.44    6.40
   5  -1   2   -0.63    4.33
   5  -1   3   65.70   10.91
   5  -1   4  128.85   12.70
   5  -1   5  148.29   23.65
   5  -1   5  133.74   11.60
   5  -1   6   17.50   11.95
   5  -1   6   41.04   11.13
   5  -1   7  392.42   40.64
   5  -1   7  519.36   35.51
   5  -1   8  183.11   28.25
   5  -1   8  188.38   23.22
   5  -1   9   53.46   17.65
   5  -1   9   14.37    4.26
   5  -1  10   96.16   22.65
   5  -1  10   41.99    9.43
   5  -1  11   84.54   22.53
   5  -1  11   91.50   21.81
   5  -1  12   26.88   15.28
   5  -1  12   13.01    9.79
   5  -1  13   -5.80    9.64
   5   0 -13    7.70    6.47
   5   0 -12   -1.95    3.59
   5   0 -11   42.71   14.77
   5   0 -10   21.20    9.00
   5   0  -9   78.86   16.04
   5   0  -8  200.61   25.95
   5   0  -7   92.71   15.83
   5   0  -6   27.90   10.05
   5   0  -5  267.22   26.55
   5   0  -4   88.78   15.20
   5   0  -3   10.98    6.46
   5   0  -2   19.90    9.16
   5   0  -1   -3.29    7.42
   5   0   0   -0.04    6.60
   5   0   1   42.17   10.50
   5   0   2  399.32   27.77
   5   0   3  108.13   13.37
   5   0   4  116.97   12.27
   5   0   5  588.87   27.11
   5   0   5  698.03   38.36
   5   0   6  175.24   20.44
   5   0   7    9.83    7.26
   5   0   8  103.62   17.94
   5   0   9   38.09    9.37
   5   0  10   -1.10    8.32
   5   0  11   -5.45    8.19
   5   0  15  -37.33   18.10
   5   1 -14   19.53   16.82
   5   1 -13   21.19   15.49
   5   1 -12   50.34   22.97
   5   1 -11   11.75   11.68
   5   1 -10  323.10   40.78
   5   1  -9    7.56    4.25
   5   1  -8   10.02    7.79
   5   1  -7  274.49   32.86
   5   1  -6    9.49    9.64
   5   1  -5   37.95   12.88
   5   1  -4    5.28    4.66
   5   1  -3    1.64    7.79
   5   1  -2    0.46    7.13
   5   1  -1   48.78   14.52
   5   1   0  984.73   50.35
   5   1   1   59.95   13.50
   5   1   2  285.34   24.80
   5   1   3 2649.09   63.99
   5   1   4  226.80   18.94
   5   1   4  279.06   26.04
   5   1   5  200.90   22.70
   5   1   5  146.83   16.53
   5   1   6  410.32   24.51
   5   1   6  433.03   34.19
   5   1   7  122.98   19.77
   5   1  11   -0.95    9.39
   5   1  12   26.74   11.86
   5   1  13   40.25   16.71
   5   1  14   34.43   14.96
   5   1  15   39.40   17.44
   5   2 -13   -5.76   21.53
   5   2 -12   24.09    9.34
   5   2 -11  -19.21   18.97
   5   2 -10   -6.25   15.74
   5   2  -9   96.67   24.59
   5   2  -8   -5.68   14.21
   5   2  -7   -5.59   13.07
   5   2  -5   47.68   11.32
   5   2  -4   -3.32   10.38
   5   2  -3  494.25   44.36
   5   2  -2  874.26   54.99
   5   2  -1   37.08   13.46
   5   2   0  969.49   51.17
   5   2   1 1476.74   57.58
   5   2   2  245.49   22.06
   5   2   3  100.20   13.70
   5   2   3  129.70   19.13
   5   2   4  291.52   27.52
   5   2   5   24.30    8.61
   5   2   6    8.16    4.04
   5   2   6   -4.36    7.78
   5   2   8   18.91    8.40
   5   2   9   -6.33   10.04
   5   2  10  151.88   26.24
   5   2  11  140.21   27.61
   5   2  12   21.68   12.80
   5   2  13   82.93   23.49
   5   2  14   48.42   19.63
   5   2  15   19.36   13.50
   5   3 -12   19.59   12.92
   5   3 -11   -8.32    7.45
   5   3 -10   39.29   20.52
   5   3  -9   71.31   24.24
   5   3  -8   76.66   24.69
   5   3  -7  273.04   40.83
   5   3  -6   26.92   15.94
   5   3  -5  783.26   63.95
   5   3  -4 1162.35   72.30
   5   3  -3   30.18   14.42
   5   3  -2 1522.43   72.63
   5   3  -1  838.08   49.96
   5   3   0   29.07    9.90
   5   3   1  431.81   33.01
   5   3   1  515.28   37.21
   5   3   2    1.37    3.98
   5   3   4   -5.01    6.63
   5   3   5  159.61   21.25
   5   3   6  122.75   19.82
   5   3   6  152.01    7.97
   5   3   7   -1.30    4.66
   5   3   8  674.66   50.80
   5   3   9  262.05   33.31
   5   3  10    2.96    2.52
   5   3  10   17.01   10.72
   5   3  11  294.28   39.51
   5   3  12  170.30   32.61
   5   3  13   22.60   16.17
   5   3  14   20.37   14.11
   5   3  15   -5.36   12.78
   5   4 -11   -2.23    6.77
   5   4 -10   55.89   17.10
   5   4 -10   25.11   11.05
   5   4  -9   89.48   22.03
   5   4  -9   72.44   17.16
   5   4  -8   17.49   11.63
   5   4  -7  157.03   25.88
   5   4  -6   72.84   16.32
   5   4  -5   54.68   15.32
   5   4  -4  202.21   25.22
   5   4  -3   26.21    6.26
   5   4  -2   21.82    5.69
   5   4  -1   39.58    7.65
   5   4  -1   39.51    8.18
   5   4   0   -0.17    4.26
   5   4   1  264.34   23.42
   5   4   2   62.59   12.13
   5   4   3  403.57   24.62
   5   4   3  394.71   30.73
   5   4   4  329.24   19.65
   5   4   4  316.01   29.17
   5   4   5  108.49    9.00
   5   4   5  140.25   19.76
   5   4   6  726.38   47.41
   5   4   7  376.15   35.93
   5   4   8  106.88   19.99
   5   4   9  258.73   32.30
   5   4   9  277.54   25.49
   5   4  10  141.43   26.29
   5   4  10  117.35   16.57
   5   4  11   19.38   12.07
   5   4  12   12.12   11.37
   5   4  13   -1.15    8.71
   5   4  14   14.04   11.69
   5   4  15    1.78    4.54
   5   5 -10   24.80   11.50
   5   5  -9  113.09   18.66
   5   5  -9   84.93   19.73
   5   5  -8   64.40   14.15
   5   5  -8   34.33   11.79
   5   5  -7  208.80   24.27
   5   5  -7  154.78   23.96
   5   5  -6   79.58   17.65
   5   5  -5    3.30    4.91
   5   5  -4  115.05   18.93
   5   5  -4  114.41   11.89
   5   5  -3   55.64   12.80
   5   5  -3   74.18   10.01
   5   5  -2   22.64    9.03
   5   5  -2   26.09    6.40
   5   5  -1   35.97    9.98
   5   5  -1   33.03    7.51
   5   5   0   87.20   14.40
   5   5   0   80.08   11.77
   5   5   1  458.73   30.66
   5   5   1  319.84   24.16
   5   5   2  227.39   23.34
   5   5   2  212.03   22.56
   5   5   3  469.54   27.15
   5   5   3  458.17   31.90
   5   5   4  892.85   33.98
   5   5   4  924.07   47.96
   5   5   5   87.86    9.47
   5   5   5  197.50   23.24
   5   5   6  209.41   24.81
   5   5   6  216.74   23.74
   5   5   7  194.96   25.83
   5   5   7  201.07   23.17
   5   5   8  100.69   19.41
   5   5   8  101.57   16.85
   5   5   9   33.31   10.33
   5   5   9   31.25   12.47
   5   5  10    9.71    6.48
   5   5  10   15.40   10.90
   5   5  11   64.96   18.11
   5   5  11   62.07   13.35
   5   5  12    4.99    6.96
   5   5  13    3.71    6.50
   5   5  14  119.66   26.56
   5   5  15   19.77   14.22
   5   6 -10   -9.20    7.02
   5   6  -9   60.65   16.54
   5   6  -9  110.49   21.63
   5   6  -8  118.99   21.86
   5   6  -8  119.52   21.86
   5   6  -7   -2.64    4.37
   5   6  -7   -2.43    3.87
   5   6  -6  218.09   28.03
   5   6  -5   14.90    8.97
   5   6  -4   54.99   13.66
   5   6  -3   44.32   11.77
   5   6  -2  148.01   20.21
   5   6  -2   88.67   10.32
   5   6  -1  729.35   42.25
   5   6  -1  699.32   31.64
   5   6   0    7.19    6.57
   5   6   0    0.32    1.69
   5   6   1  252.80   23.24
   5   6   1  219.23   19.90
   5   6   2  680.42   36.42
   5   6   2  604.15   35.23
   5   6   2  635.81   43.91
   5   6   3   18.94    8.61
   5   6   3   24.12    7.15
   5   6   3   25.12    7.93
   5   6   4  199.45   19.33
   5   6   4  282.76   26.89
   5   6   4  269.26   28.79
   5   6   5  162.41   21.65
   5   6   5  176.60   22.36
   5   6   6   27.23    9.66
   5   6   6   30.61   10.20
   5   6   7   72.58   14.57
   5   6   7   77.02   15.80
   5   6   8    5.66    6.19
   5   6   8    1.12    3.84
   5   6   9  228.97   30.41
   5   6   9  249.31   27.07
   5   6  10   11.51    7.56
   5   6  10   10.93    9.48
   5   6  11   44.71   11.98
   5   6  11   57.16   17.23
   5   6  12  230.71   33.82
   5   6  13   11.99   10.04
   5   6  14   57.76   18.69
   5   7  -9    4.09    3.96
   5   7  -8    4.83    4.92
   5   7  -8   20.93   11.43
   5   7  -7   10.51    7.68
   5   7  -7   14.42   11.04
   5   7  -6   84.01   19.02
   5   7  -6  118.64   20.86
   5   7  -5    2.02    4.07
   5   7  -5    7.39    7.60
   5   7  -4  144.05   21.91
   5   7  -4  154.60   24.85
   5   7  -3  199.25   24.51
   5   7  -3  206.88   27.82
   5   7  -2    2.70    3.17
   5   7  -2    4.49    4.95
   5   7  -1  265.75   26.77
   5   7  -1  272.67   30.93
   5   7   0  204.82   22.53
   5   7   0  142.81   16.37
   5   7   0  219.35   27.47
   5   7   1   63.56   15.43
   5   7   1   36.11   12.04
   5   7   1   74.84   19.56
   5   7   2  264.91   25.40
   5   7   2  236.89   23.87
   5   7   2  247.30   28.82
   5   7   3   37.50   11.12
   5   7   3   39.57   10.38
   5   7   3   34.59    9.64
   5   7   4   14.20   14.23
   5   7   4   23.46   11.45
   5   7   4   17.45   11.46
   5   7   5   14.53    8.96
   5   7   5    6.75    6.43
   5   7   5   17.59    7.87
   5   7   6   10.31    7.88
   5   7   6    0.46    4.91
   5   7   7   98.63   19.04
   5   7   7   98.11   17.83
   5   7   8   59.53   14.57
   5   7   8   58.46   14.70
   5   7   9   99.14   20.54
   5   7   9   94.31   18.00
   5   7  10  228.09   32.02
   5   7  10  226.47   28.08
   5   7  11    7.24    7.51
   5   7  11   -0.91    3.45
   5   7  12  154.58   28.96
   5   7  13   65.76   20.47
   5   8  -8   31.76   13.58
   5   8  -7   -1.33    5.06
   5   8  -6   52.51   16.45
   5   8  -6   42.41   13.26
   5   8  -5   98.40   21.26
   5   8  -5   94.70   18.01
   5   8  -4   52.02   15.85
   5   8  -4   67.06   15.81
   5   8  -3  185.02   24.28
   5   8  -3  193.47   29.03
   5   8  -2   41.28   12.97
   5   8  -2   54.80   13.42
   5   8  -1   43.35   12.88
   5   8  -1   47.41   11.88
   5   8   0  165.38   22.56
   5   8   0  157.18   24.83
   5   8   1    8.26    6.36
   5   8   1    5.71    5.80
   5   8   2   66.89   15.82
   5   8   2   54.99   12.86
   5   8   3    7.37    6.68
   5   8   3    0.88    3.77
   5   8   3    2.29    4.38
   5   8   4  272.17   30.45
   5   8   4  249.54   30.03
   5   8   5  111.07   20.68
   5   8   5   94.73   19.15
   5   8   6   59.02   14.30
   5   8   6   45.62   13.44
   5   8   7  330.03   37.49
   5   8   7  309.23   33.45
   5   8   8  101.99   21.60
   5   8   8  107.00   20.09
   5   8   9   17.09    9.27
   5   8   9   17.22   11.93
   5   8  10  132.15   26.40
   5   8  10  125.29   22.18
   5   8  11   21.97   12.86
   5   8  11   19.38   10.60
   5   8  12   11.83   10.78
   5   9  -5   48.12   16.04
   5   9  -4    3.14    4.04
   5   9  -4   10.68    8.45
   5   9  -3   34.39   13.96
   5   9  -3   32.01   11.88
   5   9  -2   30.04   13.97
   5   9  -2   22.60   10.14
   5   9  -1   19.73   10.57
   5   9  -1   26.10   11.51
   5   9   0   92.63   20.75
   5   9   0   95.36   19.11
   5   9   1    8.69    9.45
   5   9   1    4.55    3.47
   5   9   2   38.88   12.64
   5   9   2   53.23   15.65
   5   9   3   77.37   19.55
   5   9   3  114.59   22.72
   5   9   4   43.95   13.21
   5   9   5  173.41   27.01
   5   9   5  191.84   28.95
   5   9   6    0.19    4.45
   5   9   6    8.59    7.75
   5   9   7   51.92   15.06
   5   9   7   31.92   12.76
   5   9   8   93.33   20.52
   5   9   8   62.65   18.08
   5   9   9    6.00    4.33
   5   9   9    4.21    6.88
   5   9  10   39.56   15.17
   5   9  10   32.94   12.31
   5   9  11   -1.17    6.41
   5   9  11    5.21    5.50
   5   9  12    2.85    5.36
   5  10  -1    6.45    7.08
   5  10   0  101.11   24.02
   5  10   1   -3.61    6.95
   5  10   2   53.73   20.94
   5  10   3   66.52   18.75
   5  10   4    5.33    7.72
   5  10   5   83.08   19.68
   5  10   6   25.64    9.23
   5  10   7   10.62    9.02
   5  10   8   37.99   15.49
   5  10   8   40.79   14.41
   5  10   9   17.00   11.67
   5  10   9   29.02   11.77
   5  10  10   19.36   13.33
   5  10  10   30.78   13.21
   6  -5  -2   -6.97    6.53
   6  -4  -4    1.88    4.30
   6  -4  -3   29.25   11.14
   6  -4  -2    4.13    4.51
   6  -4  -1    8.01    5.33
   6  -4   0   41.90   13.26
   6  -4   6    9.88    6.44
   6  -3  -6   11.92    8.32
   6  -3  -5   60.76   15.55
   6  -3  -4   11.04    6.77
   6  -3  -3   39.21   11.77
   6  -3  -2   14.51    8.32
   6  -3  -1   40.93   13.46
   6  -3   0   13.43    7.24
   6  -3   1  -13.92   10.75
   6  -3   6   18.40    8.02
   6  -3   6   18.60   11.57
   6  -3   7   38.23   15.03
   6  -3   7   40.59   10.03
   6  -3   8   17.74   13.53
   6  -3   8   18.40    7.86
   6  -3   9    5.71    4.33
   6  -2  -8   22.86   10.16
   6  -2  -7   52.85   14.99
   6  -2  -6    0.26    3.44
   6  -2  -5   31.59   11.08
   6  -2  -4   43.89   12.31
   6  -2  -3    8.18    4.91
   6  -2  -2   28.29    9.94
   6  -2  -1    9.57    5.83
   6  -2   0    0.83    3.85
   6  -2   2   16.54    6.31
   6  -2   3   11.64    6.42
   6  -2   4   17.79    6.15
   6  -2   6   67.37   12.26
   6  -2   7   24.33    8.64
   6  -2   8   47.89   11.95
   6  -2   9   90.59   22.67
   6  -2   9   43.69   11.72
   6  -2  10   -7.33    9.22
   6  -2  11    9.33    3.73
   6  -1  -9   13.34    8.87
   6  -1  -8    0.86    5.33
   6  -1  -7   58.09   14.78
   6  -1  -6   52.17   13.90
   6  -1  -5    5.86    6.12
   6  -1  -4    2.96    4.17
   6  -1  -3   28.48   11.75
   6  -1  -2   26.51   10.10
   6  -1  -1   -8.02    6.56
   6  -1   0   17.89    3.22
   6  -1   1   -0.81    5.23
   6  -1   2   30.24    8.83
   6  -1   3  167.85   17.03
   6  -1   4  151.06   14.27
   6  -1   5    8.60    3.85
   6  -1   6  119.27   16.41
   6  -1   7   86.45   14.98
   6  -1   8   18.55    8.64
   6  -1   9  -14.72    7.37
   6  -1  10  -14.95   11.19
   6  -1  11   48.70   15.01
   6  -1  12   74.79   21.92
   6   0 -11    1.81    8.15
   6   0 -10   11.54    9.83
   6   0  -9    3.08    6.86
   6   0  -8   -3.71    3.91
   6   0  -7   11.77    9.39
   6   0  -6   10.45    9.93
   6   0  -5   10.81    8.87
   6   0  -4   12.45    8.55
   6   0  -3   31.04   11.77
   6   0  -2   42.45   11.57
   6   0  -1   -5.99   10.07
   6   0   0   11.59    2.61
   6   0   1  425.33   32.34
   6   0   2  116.23   16.25
   6   0   3   39.46    9.03
   6   0   4   89.25   11.24
   6   0   5  129.37   13.34
   6   0   5  146.70   18.53
   6   0   6   31.86    9.80
   6   0   7    7.41    6.57
   6   0   8    7.64    5.53
   6   0   9    1.77    8.90
   6   0  10  -11.33   13.14
   6   0  11   90.79   22.12
   6   0  12   67.78   21.25
   6   0  13   38.27   16.84
   6   1 -12   -6.74   16.02
   6   1 -11   17.95   12.64
   6   1 -10    6.74    8.39
   6   1  -9   39.01   14.82
   6   1  -8   -6.12    9.32
   6   1  -7    5.99    5.62
   6   1  -6   -6.36    8.21
   6   1  -5   28.52   11.83
   6   1  -4   45.10   10.49
   6   1  -3   -7.22    9.72
   6   1  -2   74.31   15.27
   6   1  -1  312.46   30.81
   6   1   0   15.54    8.38
   6   1   1   16.35    9.07
   6   1   2  584.77   32.64
   6   1   3   70.52   10.85
   6   1   4   17.73    5.65
   6   1   5   21.89   10.00
   6   1   6   93.25   16.72
   6   1   7   10.63    7.52
   6   1   8  225.16   27.86
   6   1   9  141.04   23.44
   6   1  10   -0.50    9.40
   6   1  11   44.30   16.60
   6   1  12   82.79   22.62
   6   1  13    2.03    6.22
   6   2  -7   14.87    9.51
   6   2  -6   40.76   11.28
   6   2  -5  -11.02   10.59
   6   2  -4  176.00   26.91
   6   2  -3  208.11   27.96
   6   2  -2   35.96   13.93
   6   2  -1  198.53   24.40
   6   2   0  249.99   26.17
   6   2   1   21.72    8.75
   6   2   2   66.03   12.26
   6   2   3   56.01   10.89
   6   2   3   88.50   16.47
   6   2   4  131.12   19.93
   6   2   5   85.94   16.86
   6   2   6  349.28   32.93
   6   2   7  130.09   20.51
   6   2   8    4.34   11.28
   6   2   9  134.35   21.95
   6   2  10   74.46   18.85
   6   2  11   -1.78   11.19
   6   2  13  -32.60   15.76
   6   3 -12   38.19   23.86
   6   3 -11   55.74   24.22
   6   3 -10   24.44   17.92
   6   3  -9  170.92   35.15
   6   3  -8   54.92   21.40
   6   3  -7   12.28   13.37
   6   3  -6  504.52   51.03
   6   3  -5  316.73   37.92
   6   3  -4  127.47   25.52
   6   3  -3   99.49   20.70
   6   3  -2  165.08   24.07
   6   3  -1  105.19   18.74
   6   3   0   47.93   12.33
   6   3   1  418.48   33.80
   6   3   2   69.33   13.48
   6   3   2  115.57   19.35
   6   3   3  154.98   22.67
   6   3   4  769.36   50.08
   6   3   5  287.79   30.82
   6   3   6   -1.93   10.33
   6   3   7   69.40    9.35
   6   3  10   -4.86    9.36
   6   3  11   -2.64    9.80
   6   3  12   -0.14    5.38
   6   3  13   10.42    8.68
   6   3  14   44.78   18.20
   6   4 -11   38.58   16.87
   6   4 -10    4.23    6.00
   6   4  -9   12.96   10.22
   6   4  -8  104.46   23.45
   6   4  -7   24.34   12.66
   6   4  -6   17.87   12.61
   6   4  -5   48.30   16.46
   6   4  -4   27.09   12.29
   6   4  -3  115.55   20.59
   6   4  -2  100.94   18.13
   6   4  -1  185.16   24.92
   6   4   0  159.87   22.48
   6   4   1  110.14   18.05
   6   4   2  314.58   30.51
   6   4   3    5.51    5.81
   6   4   4  124.64   22.51
   6   4   5  156.90   15.20
   6   4   5   77.70   15.66
   6   4   6   71.58   15.81
   6   4   7   -9.64   10.92
   6   4   8   17.94    8.73
   6   4   9   -1.94    7.02
   6   4  10    3.01    4.55
   6   4  10    9.22    9.81
   6   4  11   19.65   12.88
   6   4  12   69.56   23.08
   6   4  13   54.34   22.89
   6   4  14   73.38   26.62
   6   5  -9   11.26    8.62
   6   5  -9   -5.76    8.74
   6   5  -8   47.40   15.36
   6   5  -8   34.01   10.99
   6   5  -7   17.82    9.87
   6   5  -7   11.73    7.49
   6   5  -6   47.62   14.43
   6   5  -6   60.92   16.37
   6   5  -5    3.93    5.43
   6   5  -5    0.21    4.91
   6   5  -4   -3.59    6.48
   6   5  -4   -5.78    5.75
   6   5  -4    5.26    4.81
   6   5  -3  230.75   28.28
   6   5  -3  132.01   17.11
   6   5  -2   19.01    8.24
   6   5  -2   15.72    6.75
   6   5  -1  121.53   19.23
   6   5  -1   88.63   14.87
   6   5   0  393.17   34.23
   6   5   0  310.02   27.50
   6   5   1  101.39   17.14
   6   5   1   87.85   16.15
   6   5   2  208.77   23.64
   6   5   2  198.64   25.22
   6   5   3  127.84   17.45
   6   5   3  136.00   21.71
   6   5   4   78.51   12.51
   6   5   4   78.69   17.28
   6   5   5   47.51    7.74
   6   5   5   75.90   16.57
   6   5   6   44.81   13.51
   6   5   7  131.79   24.41
   6   5   8   37.21   14.02
   6   5   9   71.76   15.85
   6   5   9   87.44   20.88
   6   5  10  392.11   47.08
   6   5  10  340.01   34.12
   6   5  11   12.71   12.82
   6   5  12   87.81   24.62
   6   5  13  107.75   28.14
   6   5  14   68.06   21.25
   6   6  -8   53.04   17.10
   6   6  -7   16.01    9.49
   6   6  -6   30.21   11.58
   6   6  -5  144.03   24.69
   6   6  -4    8.70    7.17
   6   6  -3  197.47   26.70
   6   6  -2  111.55   19.49
   6   6  -2   65.82   11.11
   6   6  -1    1.12    3.62
   6   6  -1    3.89    4.28
   6   6   0  386.61   33.08
   6   6   0  379.71   28.75
   6   6   1   33.53   10.54
   6   6   1   34.39    9.03
   6   6   2   -1.02    2.44
   6   6   2    2.81    3.87
   6   6   3   40.23   11.25
   6   6   3   32.48    9.93
   6   6   4    9.99    6.09
   6   6   4    6.64    5.41
   6   6   5   16.29    5.15
   6   6   5   82.44   17.59
   6   6   6    4.17    6.22
   6   6   6    9.29    6.86
   6   6   7  275.27   33.38
   6   6   7  279.12   32.03
   6   6   8  166.24   27.67
   6   6   8  162.39   24.55
   6   6   9    7.70    6.50
   6   6   9   16.63   12.75
   6   6  10  117.68   27.27
   6   6  10  102.71   19.88
   6   6  11  197.96   34.25
   6   6  12   12.38    7.72
   6   6  13    3.15    5.45
   6   7  -9   -1.82    5.41
   6   7  -8   13.25    9.75
   6   7  -7   28.58   11.59
   6   7  -7   46.07   14.66
   6   7  -6    4.75    7.31
   6   7  -6   15.28    8.87
   6   7  -5  136.76   23.83
   6   7  -5  125.73   23.22
   6   7  -4   47.77   14.94
   6   7  -4   62.73   15.63
   6   7  -3   27.87   12.71
   6   7  -3   28.65   12.49
   6   7  -2  235.73   28.38
   6   7  -2  209.87   28.68
   6   7  -1    6.74    3.48
   6   7  -1   11.00    9.06
   6   7   0    3.41    5.49
   6   7   0   10.71    7.80
   6   7   0    1.08    1.74
   6   7   1   59.88   15.27
   6   7   1   66.91   13.93
   6   7   1   54.13   11.51
   6   7   2  125.00   18.47
   6   7   2  112.61   17.59
   6   7   2  127.41   22.44
   6   7   3   75.25   16.06
   6   7   3   58.59   12.74
   6   7   3   68.04   13.48
   6   7   4   16.10    8.48
   6   7   4    8.23    5.04
   6   7   4   16.54    7.84
   6   7   5  109.52   19.60
   6   7   5  106.93   20.76
   6   7   6  169.48   24.99
   6   7   6  164.98   25.00
   6   7   7    2.29    7.39
   6   7   7   16.41    9.76
   6   7   8  193.42   29.74
   6   7   8  199.71   28.14
   6   7   9   54.04   15.46
   6   7   9   54.98   16.16
   6   7  10   24.44   11.56
   6   7  10   11.36    7.96
   6   7  11   27.01    9.44
   6   7  11   41.23   15.76
   6   7  12   12.13   12.21
   6   7  13   27.38   11.79
   6   8  -7   56.46   17.52
   6   8  -6    4.42    8.98
   6   8  -5   21.43   10.83
   6   8  -5   22.13   10.25
   6   8  -4   23.57   11.22
   6   8  -4   29.06   11.01
   6   8  -3    1.03    5.69
   6   8  -3   -3.23    5.85
   6   8  -2   49.76   16.43
   6   8  -2   50.35   13.97
   6   8  -1    3.88    3.43
   6   8  -1    7.23    4.99
   6   8   0  113.51   21.63
   6   8   0  112.88   19.41
   6   8   1   12.10    8.14
   6   8   1    8.74    7.50
   6   8   2   19.89   10.51
   6   8   2   25.47    9.99
   6   8   3  158.62   21.95
   6   8   3  137.43   20.75
   6   8   4   13.68    9.15
   6   8   4   -0.56    5.78
   6   8   4   13.29    9.58
   6   8   5  178.56   25.50
   6   8   5  199.97   29.26
   6   8   6   48.26   15.11
   6   8   6   63.47   16.61
   6   8   7   71.93   17.48
   6   8   7   55.51   15.55
   6   8   8   68.63   18.12
   6   8   8   72.72   17.98
   6   8   9   12.61   10.33
   6   8   9    5.15    7.08
   6   8  10   -5.21    9.95
   6   8  10    1.70    5.72
   6   8  11    3.92    6.43
   6   8  11    1.80    3.62
   6   8  12   12.39    8.27
   6   9  -3    4.89    8.45
   6   9  -3    5.89    7.17
   6   9  -2   48.49   15.34
   6   9  -2   56.74   15.90
   6   9  -1   32.09   14.03
   6   9  -1   26.92   12.24
   6   9   0   77.23   19.68
   6   9   0   84.89   18.44
   6   9   1  164.96   25.86
   6   9   1  157.46   27.55
   6   9   2   29.40   11.07
   6   9   2    9.33    4.69
   6   9   3   86.70   20.13
   6   9   3   52.69   14.67
   6   9   4  155.81   26.92
   6   9   5   17.29   10.44
   6   9   6   38.20   15.10
   6   9   6   25.75   10.25
   6   9   7    4.75    7.16
   6   9   7    1.61    4.91
   6   9   8   13.97    8.58
   6   9   8    2.38    2.99
   6   9   9   29.41   13.12
   6   9   9   20.78   11.76
   6   9  10   14.96    6.86
   6   9  10   13.93    9.43
   6   9  11   44.54   15.15
   6   9  11   31.48   15.81
   6  10  -1   55.71   16.20
   6  10   0   -1.82    4.79
   6  10   1   23.77   14.24
   6  10   2   -1.12    4.56
   6  10   9   50.05   16.77
   6  10  10    7.79    9.14
   7  -3  -2  -12.49   12.58
   7  -3   1  -12.40   10.00
   7  -2  -4   10.60   10.02
   7  -2  -3   -9.36    8.84
   7  -2  -2  -33.07   13.56
   7  -2   0  -13.48   12.64
   7  -2   1    7.71    3.19
   7  -2   2   44.65   11.45
   7  -2   3   19.22    7.61
   7  -2   6   24.24    8.65
   7  -1  -6   11.59   12.16
   7  -1  -5    9.89   10.18
   7  -1  -4   -3.71    8.72
   7  -1  -3   -7.44   11.03
   7  -1  -1    2.53    8.83
   7  -1   0    8.59    3.19
   7  -1   1   16.09    7.63
   7  -1   2   64.21   13.44
   7  -1   3   47.39   10.23
   7  -1   4   13.80    4.99
   7  -1   5   23.61    9.09
   7  -1   6   25.95    9.73
   7  -1   7    7.43    7.93
   7  -1   8   23.48    8.93
   7   0  -7   -3.99    8.53
   7   0  -6    5.12   10.62
   7   0  -5  -12.03   11.54
   7   0  -4   -8.72   10.79
   7   0  -3    5.66   10.59
   7   0  -2    5.29    9.79
   7   0  -1   -0.19    4.48
   7   0   0   61.35   13.83
   7   0   1   36.32   10.86
   7   0   2   27.73    9.11
   7   0   3   14.55    6.04
   7   0   4   10.63    5.24
   7   0   5   40.12   11.07
   7   0   5   17.43    5.47
   7   0   6   86.10   15.31
   7   0   7   30.91    9.64
   7   0   8   12.90    8.20
   7   0   9   41.03   12.23
   7   0  10   44.82   12.66
   7   1  -7  -19.26   16.28
   7   1  -6   -5.51   14.10
   7   1  -5   -5.18   12.64
   7   1  -3    8.23    5.33
   7   1  -2   52.58   13.57
   7   1  -1   17.09    9.50
   7   1   0   19.35   10.10
   7   1   1   38.33   11.35
   7   1   2   24.82    7.85
   7   1   3    7.95    5.54
   7   1   4  239.03   20.54
   7   1   4  298.87   26.90
   7   1   5   78.00   15.22
   7   1   6   19.25    9.15
   7   1   7  103.98   17.76
   7   1   8   90.13   17.47
   7   1   9   -1.59    7.90
   7   1  10  -27.60   14.86
   7   1  11   39.65   17.23
   7   2  -9  -13.46   14.04
   7   2  -8   50.56   16.13
   7   2  -7   -0.28    3.54
   7   2  -6   -0.23    7.63
   7   2  -5   50.06   14.89
   7   2  -4   24.58   11.69
   7   2  -3   12.50   10.11
   7   2  -2   18.69   11.25
   7   2  -1   45.48   13.55
   7   2   0   44.77   12.54
   7   2   1    8.54    6.67
   7   2   2  246.11   22.71
   7   2   3   92.63   14.20
   7   2   3   99.09   17.18
   7   2   4   64.95   15.40
   7   2   5  259.96   26.96
   7   2   6  199.02   25.76
   7   2   7    6.00    5.58
   7   2   8   -5.62   10.22
   7   2   9   -3.41    9.69
   7   2  10   21.79    9.22
   7   2  11   41.64   16.75
   7   3 -10   60.29   22.62
   7   3  -9   31.18   18.80
   7   3  -8   16.41   16.35
   7   3  -7   69.81   21.05
   7   3  -6   22.37   15.20
   7   3  -5   33.87   16.35
   7   3  -4   28.32   14.40
   7   3  -3  110.09   20.50
   7   3  -2   46.67   14.17
   7   3  -1  113.63   18.65
   7   3   0  171.09   21.61
   7   3   1   74.37   15.05
   7   3   2  166.87   20.42
   7   3   2  237.00   27.20
   7   3   3  170.59   24.18
   7   3   4  153.00   22.61
   7   3   5   17.92    9.59
   7   3   6    3.23    2.96
   7   3   7   -3.48   10.61
   7   3   9   50.42   15.01
   7   3  10   26.68   13.45
   7   3  11   15.27   10.03
   7   3  12   14.35    8.49
   7   4 -10   36.66   19.05
   7   4  -9   39.52   18.74
   7   4  -8   26.63   16.53
   7   4  -7   43.80   16.20
   7   4  -6   32.25   14.15
   7   4  -5   51.54   15.97
   7   4  -4   43.02   14.29
   7   4  -3  151.97   23.16
   7   4  -2  326.95   32.85
   7   4  -1   87.57   17.90
   7   4   0  105.27   18.75
   7   4   0  160.04   24.47
   7   4   1  483.51   39.84
   7   4   2  147.99   23.55
   7   4   3   40.32   13.13
   7   4   4   20.07   10.29
   7   4   5   -6.81   10.24
   7   4   6  -12.63   14.51
   7   4   7    2.38   17.46
   7   4   8    6.13   12.19
   7   4  10   -8.86   14.04
   7   4  11  -31.76   15.45
   7   4  12  -37.36   17.44
   7   5 -10   -2.08    2.94
   7   5  -9  -10.84   11.37
   7   5  -8   -5.02    9.36
   7   5  -8   -1.33    6.99
   7   5  -7   30.59   10.34
   7   5  -6   -8.22    8.88
   7   5  -5   53.08   13.43
   7   5  -4   90.15   18.41
   7   5  -3   12.71    8.24
   7   5  -3    2.17    6.41
   7   5  -2   80.64   16.52
   7   5  -1   46.74   12.26
   7   5   0  -21.62    8.59
   7   5   3   65.05   13.96
   7   5   3    5.45    3.64
   7   5   4  -21.53    9.74
   7   5   5   18.25    7.07
   7   5   6   60.13   14.61
   7   5   7   48.11   14.10
   7   5   8   73.50   20.26
   7   5   9   87.87   22.41
   7   5  10    7.71    7.68
   7   5  11   16.70   13.03
   7   5  12   29.68   16.79
   7   6  -7   38.51   15.32
   7   6  -6   71.71   20.32
   7   6  -5   13.55    9.48
   7   6  -4   50.52   16.88
   7   6  -3   10.35    6.12
   7   6  -2    9.89    8.44
   7   6  -1    5.88    3.06
   7   6  -1   16.97   10.08
   7   6   0   47.70   13.25
   7   6   0   47.77   13.60
   7   6   1   27.78    9.58
   7   6   1   44.97   14.08
   7   6   2    2.93    5.13
   7   6   2    7.84    6.74
   7   6   3  116.55   18.16
   7   6   3  132.17   22.95
   7   6   4  123.26   22.43
   7   6   5   11.68    7.22
   7   6   6  185.94   29.75
   7   6   7  128.25   27.02
   7   6   8   -2.33    8.24
   7   6   8   11.69   11.76
   7   6   9   53.60   15.71
   7   6   9   76.88   22.40
   7   6  10   -0.66    5.18
   7   6  10   10.08   14.23
   7   6  11   49.10   21.57
   7   6  12   25.13   19.39
   7   7  -6   32.65   13.37
   7   7  -5    3.26    6.61
   7   7  -4   49.82   15.80
   7   7  -3    6.28    7.99
   7   7  -2   27.69   12.23
   7   7  -1   32.22   11.91
   7   7   0    6.56    7.42
   7   7   1  164.20   23.93
   7   7   1   98.67   17.61
   7   7   2   27.39   10.56
   7   7   2   24.41    8.71
   7   7   3   35.01   11.18
   7   7   4  100.28   19.77
   7   7   5   45.66   13.38
   7   7   5   55.68   15.21
   7   7   6   27.36   15.47
   7   7   6   17.94   15.00
   7   7   7   51.75   15.44
   7   7   7   56.32   18.37
   7   7   8    3.41    4.08
   7   7   8   11.17   13.04
   7   7   9    5.82    6.53
   7   7   9   14.67   15.07
   7   7  10    5.91    8.05
   7   7  10   19.40   16.90
   7   7  11   88.06   26.07
   7   8  -4   44.87   17.23
   7   8  -4   32.86   14.46
   7   8  -3   -3.85    7.31
   7   8  -3    9.80   10.00
   7   8  -2   12.36   10.09
   7   8  -2   26.31   10.33
   7   8  -1   84.05   20.48
   7   8  -1   77.40   18.44
   7   8   0   18.06   10.10
   7   8   0   11.33    5.58
   7   8   1   78.49   20.13
   7   8   1   67.49   16.09
   7   8   2   45.10   14.03
   7   8   2   35.59   11.52
   7   8   3    8.39    8.37
   7   8   3    5.95    4.87
   7   8   4   41.90   13.21
   7   8   4   43.41   12.00
   7   8   5   14.42    8.01
   7   8   5    2.11    4.63
   7   8   6    9.75    8.70
   7   8   6   12.51    7.30
   7   8   7    8.37    8.39
   7   8   7   -1.21    5.94
   7   8   8    2.86    7.75
   7   8   8    1.72    4.56
   7   8   9   43.52   15.70
   7   8   9   37.46   14.56
   7   8  10   10.42   11.62
   7   8  10   -2.25    6.50
   7   8  11    5.98    7.52
   7   9  -3   38.11   14.33
   7   9  -2   -1.60    3.74
   7   9  -1   53.38   16.22
   7   9   0   42.16   15.04
   7   9   1   10.32    9.92
   7   9   1   14.02    9.17
   7   9   2   55.42   18.08
   7   9   3   15.74   10.63
   7   9   4   65.79   19.82
   7   9   5   21.24   13.99
   7   9   6   33.27   14.68
   7   9   6   19.41    9.92
   7   9   7   54.29   19.92
   7   9   7   33.65   14.98
   7   9   8    4.19   10.88
   7   9   8    4.45   11.01
   7   9   9   60.87   19.66
   7   9   9   65.51   18.95
   7   9  10   32.76   14.04
   7   9  10   39.57   17.42
   7  10  -1    7.10    8.65
   7  10   0    7.14    8.46
   7  10   9    5.31    6.12
   8  -2   1   23.92    9.10
   8  -1  -1   11.02    8.58
   8  -1   0   18.37   10.31
   8  -1   1   25.68   10.44
   8  -1   2   30.07   10.13
   8  -1   3    5.46    4.18
   8   0  -3   15.35    5.57
   8   0  -2    6.67    6.86
   8   0  -1   10.03    9.09
   8   0   0   30.19   11.27
   8   0   1   30.95   11.03
   8   0   2   53.22   11.58
   8   0   3    9.62    5.19
   8   0   4    9.60    5.93
   8   1  -4    4.42    7.78
   8   1  -3   14.64    9.50
   8   1  -2   19.46   11.78
   8   1  -1   33.19   12.94
   8   1   0   78.69   15.92
   8   1   1   38.21   10.98
   8   1   2   25.01    8.29
   8   1   3  143.79   16.95
   8   1   4   41.60    9.47
   8   1   4   64.79   14.22
   8   1   5   24.18   10.22
   8   1   6   22.86    9.52
   8   1   7   25.80    9.12
   8   2  -5   23.56   12.50
   8   2  -4   24.98   12.58
   8   2  -3   35.11   13.49
   8   2  -2   62.46   15.63
   8   2  -1   61.61   14.26
   8   2   0   22.15    9.33
   8   2   1  107.10   15.87
   8   2   2   28.55    8.79
   8   2   3   39.45    9.90
   8   2   3   67.45   14.80
   8   2   4  106.62   18.07
   8   2   5   21.83    9.32
   8   2   6   20.41    8.90
   8   2   7   21.65    8.80
   8   2   8    2.39    6.79
   8   3  -6   46.90   17.32
   8   3  -5   53.57   17.00
   8   3  -4  109.35   21.61
   8   3  -3   38.48   13.08
   8   3  -2   16.04    9.57
   8   3  -1   78.99   15.35
   8   3   0   23.62    9.29
   8   3   1   11.70    7.14
   8   3   2   26.54   12.66
   8   3   2    0.29    4.97
   8   3   3   16.34   10.89
   8   3   4   36.00   12.79
   8   3   5   21.19   10.59
   8   3   6   32.03   11.15
   8   3   7    5.45    4.45
   8   3   8   18.46    5.55
   8   3   9   25.61    7.65
   8   4  -6   43.86   15.41
   8   4  -5   23.65   12.31
   8   4  -4   26.95   12.32
   8   4  -3  132.09   21.21
   8   4  -2   46.15   14.47
   8   4  -1   15.09   10.43
   8   4   0   43.01   12.52
   8   4   0   72.26   18.25
   8   4   1   42.31   14.76
   8   4   2   17.71   13.03
   8   4   3   72.53   17.94
   8   4   4   70.32   17.44
   8   4   5   -5.16    7.64
   8   4   6   62.17   14.85
   8   4   7   81.23   16.20
   8   4   8   -8.53   15.32
   8   4   9   50.84   20.46
   8   4  10   61.64   21.82
   8   5  -6   29.07   12.91
   8   5  -5    3.46    4.08
   8   5  -4    3.38    7.43
   8   5  -3   26.60   14.03
   8   5  -3    1.67    5.48
   8   5  -2   18.72   12.89
   8   5  -1   22.48   14.02
   8   5   0   36.12   15.43
   8   5   1   66.73   17.22
   8   5   2   30.03   13.34
   8   5   3    6.16    5.40
   8   5   4   57.73   12.74
   8   5   5   64.19   13.86
   8   5   7    3.68    3.75
   8   5   8   -1.07   11.02
   8   5   9    0.18   13.43
   8   5  10  -34.37   16.74
   8   6  -5   12.28    9.36
   8   6  -4   24.66   10.21
   8   6  -3   -3.42   10.10
   8   6  -2  -10.31    9.92
   8   6  -1   35.84   11.72
   8   6  -1   -4.54    8.25
   8   6   0   26.11    9.19
   8   6   0   -4.32    9.31
   8   6   1   20.38    9.56
   8   6   2    4.09    9.68
   8   6   3  -13.08   13.54
   8   6   5   -1.53   13.31
   8   6   6   -5.99   13.80
   8   6   7   -1.41    8.54
   8   6   8   -4.80   13.29
   8   6   9   -4.43   13.94
   8   6  10   -1.83    7.95
   8   7  -4    2.69    7.35
   8   7  -3   45.33   15.98
   8   7  -2   25.25   11.06
   8   7  -1   62.72   18.33
   8   7   0   16.12    9.88
   8   7   1   36.28   13.88
   8   7   1   55.71   15.64
   8   7   2   27.10   11.60
   8   7   3    1.69    3.42
   8   7   4   12.85   10.11
   8   7   5   10.43    9.98
   8   7   6   10.56    8.57
   8   7   7   -2.17   12.13
   8   7   7   17.87   13.84
   8   7   8    0.92    7.41
   8   7   8   23.01   15.54
   8   7   9   26.25    9.95
   8   7   9   42.90   20.10
   8   8  -3   21.78   11.59
   8   8  -2    4.98    9.05
   8   8  -1   15.84   12.37
   8   8   0   43.40   16.47
   8   8   2   -8.24   11.03
   8   8   3    8.02    5.68
   8   8   4   15.50    6.94
   8   8   4   19.79   11.62
   8   8   5   54.99   18.34
   8   8   5   35.48   13.93
   8   8   6    5.83    6.27
   8   8   6   17.08   11.32
   8   8   7    7.08    6.31
   8   8   7   13.05   12.30
   8   8   8   55.81   17.89
   8   8   8  104.82   28.10
   8   8   9   -0.73    6.58
   8   8   9   26.44   18.32
   8   8  10    7.16    9.94
   8   9  -2    3.48    3.74
   8   9  -1    5.05    5.66
   8   9   7    7.79    5.72
   8   9   8    3.81    7.42
   8   9  10   18.14   11.20
   9   1   2   19.48    7.56
   9   1   3   23.08    8.82
   9   2   1   26.40    8.99
   9   2   2    8.72    6.37
   9   3   0   13.83    8.22
   9   3   1   22.00   12.15
   9   3   1   13.99    7.69
   9   3   2   36.47   13.30
   9   3   3   18.42   11.57
   9   3   4   45.20   13.41
   9   4  -1   47.92   14.64
   9   4   0   48.21   14.72
   9   4   0   27.23   10.13
   9   4   1   26.95   14.40
   9   4   2   60.63   16.32
   9   4   3   81.76   18.93
   9   4   4   15.61   10.40
   9   4   5    2.97    7.66
   9   4   6    1.83    7.12
   9   5  -2   45.16   15.78
   9   5  -1   23.24   12.18
   9   5   0   24.42   12.64
   9   5   1   41.38   15.30
   9   5   2    6.59    7.18
   9   5   3   33.59   13.51
   9   5   4    5.94    4.02
   9   5   5   -9.26   12.90
   9   5   6  -20.91   18.02
   9   6  -3   -8.36   14.94
   9   6  -2    1.57   11.92
   9   6  -1   -0.39   10.08
   9   6   0   16.62    9.67
   9   6   1   -3.05    8.76
   9   6   2   -6.44   10.94
   9   6   5    1.18   14.96
   9   6   6   -1.54    6.95
   9   6   7    0.07    6.56
   9   7  -3   -3.87    7.89
   9   7  -2   -3.70    8.98
   9   7   5  -30.42   14.83
   9   7   6   -5.24   11.16
   9   7   7  -36.37   17.53
   9   8   5    2.01    8.57
   9   8   6   23.51   15.94
   9   8   7   12.15   14.23


TITL DHB-167 in P1
REM P1 (#1 in standard setting)
CELL 0.71073   7.344146   8.107848  13.414010  77.3578  82.0351  63.5029
ZERR    2.00   0.000765   0.000752   0.000838   0.0065   0.0068   0.0098
LATT -1
SFAC C H N O Br I
UNIT 30.00 18.00 2.00 2.00 2.00 2.00
TREF
HKLF 4
END
_computing_structure_solution     'SHELXT 2014/4 (Sheldrick, 2014)'
;
_shelx_hkl_checksum              7724
loop_
_space_group_symop_operation_xyz
'x, y, z'
'-x, -y, -z'
loop_
_atom_site_label
_atom_site_type_symbol
_atom_site_fract_x
_atom_site_fract_y
_atom_site_fract_z
_atom_site_U_iso_or_equiv
_atom_site_adp_type
_atom_site_occupancy
_atom_site_site_symmetry_order
_atom_site_calc_flag
_atom_site_refinement_flags_posn
_atom_site_refinement_flags_adp
C1 C 0.2265(13) 0.5230(11) 0.5332(6) 0.0321(18) Uani 1 1 d . .
C2 C 0.2213(14) 0.3909(12) 0.6158(7) 0.040(2) Uani 1 1 d . .
H2 H 0.1973 0.4168 0.6818 0.048 Uiso 1 1 calc R U
C3 C 0.2528(15) 0.2182(12) 0.5982(8) 0.048(2) Uani 1 1 d . .
H3 H 0.2475 0.1269 0.6527 0.058 Uiso 1 1 calc R U
C4 C 0.2926(13) 0.1801(11) 0.4984(8) 0.042(2) Uani 1 1 d . .
H4 H 0.3130 0.0634 0.4878 0.050 Uiso 1 1 calc R U
C5 C 0.3025(14) 0.3123(11) 0.4150(7) 0.040(2) Uani 1 1 d . .
H5 H 0.3293 0.2859 0.3490 0.048 Uiso 1 1 calc R U
C6 C 0.2710(12) 0.4854(11) 0.4335(6) 0.0305(17) Uani 1 1 d . .
C7 C 0.2581(14) 0.6613(11) 0.3644(6) 0.0333(19) Uani 1 1 d . .
C8 C 0.1741(14) 0.7214(11) 0.5298(6) 0.0347(19) Uani 1 1 d . .
C9 C 0.2971(14) 0.6924(11) 0.2643(7) 0.037(2) Uani 1 1 d . .
C10 C 0.3666(14) 0.5474(11) 0.1976(6) 0.0344(19) Uani 1 1 d . .
C11 C 0.5740(15) 0.4053(12) 0.2050(7) 0.044(2) Uani 1 1 d . .
H11 H 0.6590 0.4075 0.2495 0.052 Uiso 1 1 calc R U
C12 C 0.6474(16) 0.2654(13) 0.1463(8) 0.050(2) Uani 1 1 d . .
H12 H 0.7799 0.1718 0.1516 0.060 Uiso 1 1 calc R U
C13 C 0.514(2) 0.2701(14) 0.0783(7) 0.056(3) Uani 1 1 d . .
H13 H 0.5595 0.1775 0.0383 0.067 Uiso 1 1 calc R U
C14 C 0.324(2) 0.4034(15) 0.0699(7) 0.055(3) Uani 1 1 d . .
H14 H 0.2394 0.4040 0.0242 0.066 Uiso 1 1 calc R U
C15 C 0.2534(15) 0.5408(12) 0.1292(6) 0.040(2) Uani 1 1 d . .
N1 N 0.1983(12) 0.7946(9) 0.4294(5) 0.0359(17) Uani 1 1 d D .
O1 O 0.1120(10) 0.8126(8) 0.5994(4) 0.0417(15) Uani 1 1 d . .
Br1 Br -0.02045(19) 0.73079(17) 0.11251(9) 0.0635(4) Uani 1 1 d . .
I1 I 0.29915(12) 0.95019(8) 0.19314(5) 0.0537(3) Uani 1 1 d . .
H1 H 0.160(16) 0.909(5) 0.403(7) 0.06(3) Uiso 1 1 d D .
loop_
_atom_site_aniso_label
_atom_site_aniso_U_11
_atom_site_aniso_U_22
_atom_site_aniso_U_33
_atom_site_aniso_U_23
_atom_site_aniso_U_13
_atom_site_aniso_U_12
C1 0.028(5) 0.034(4) 0.037(4) -0.006(3) -0.007(4) -0.014(4)
C2 0.032(5) 0.043(5) 0.041(5) -0.004(4) -0.003(4) -0.013(4)
C3 0.036(6) 0.030(4) 0.070(7) 0.007(4) -0.011(5) -0.012(4)
C4 0.026(5) 0.027(4) 0.076(6) -0.011(4) -0.010(4) -0.012(3)
C5 0.040(6) 0.030(4) 0.051(5) -0.013(4) -0.011(4) -0.011(4)
C6 0.023(4) 0.030(4) 0.043(4) -0.009(3) -0.006(4) -0.013(3)
C7 0.037(5) 0.032(4) 0.039(4) -0.017(3) 0.000(4) -0.017(4)
C8 0.035(5) 0.036(4) 0.037(4) -0.010(4) -0.003(4) -0.016(4)
C9 0.039(5) 0.036(4) 0.046(5) -0.015(4) -0.003(4) -0.021(4)
C10 0.042(5) 0.029(4) 0.030(4) -0.006(3) -0.002(4) -0.013(4)
C11 0.041(6) 0.045(5) 0.044(5) -0.011(4) -0.002(4) -0.016(4)
C12 0.040(6) 0.040(5) 0.062(6) -0.012(4) 0.008(5) -0.012(4)
C13 0.087(9) 0.048(6) 0.047(6) -0.025(4) 0.027(6) -0.043(6)
C14 0.094(10) 0.060(6) 0.038(5) -0.013(5) 0.000(5) -0.055(7)
C15 0.050(6) 0.041(5) 0.030(4) -0.003(3) -0.001(4) -0.021(4)
N1 0.057(5) 0.024(3) 0.030(3) -0.007(3) -0.003(3) -0.019(3)
O1 0.047(4) 0.037(3) 0.039(3) -0.016(3) -0.007(3) -0.012(3)
Br1 0.0567(8) 0.0724(7) 0.0614(7) -0.0127(5) -0.0182(6) -0.0231(6)
I1 0.0838(6) 0.0393(4) 0.0419(4) -0.0061(3) 0.0016(3) -0.0316(4)
loop_
_atom_type_symbol
_atom_type_description
_atom_type_scat_dispersion_real
_atom_type_scat_dispersion_imag
_atom_type_scat_source
C C 0.0033 0.0016 'International Tables Vol C Tables 4.2.6.8 and 6.1.1.4'
H H 0.0000 0.0000 'International Tables Vol C Tables 4.2.6.8 and 6.1.1.4'
N N 0.0061 0.0033 'International Tables Vol C Tables 4.2.6.8 and 6.1.1.4'
O O 0.0106 0.0060 'International Tables Vol C Tables 4.2.6.8 and 6.1.1.4'
Br Br -0.2901 2.4595 'International Tables Vol C Tables 4.2.6.8 and 6.1.1.4'
I I -0.4742 1.8119 'International Tables Vol C Tables 4.2.6.8 and 6.1.1.4'
loop_
_geom_angle_atom_site_label_1
_geom_angle_atom_site_label_2
_geom_angle_atom_site_label_3
_geom_angle
C2 C1 C6 122.2(7)
C2 C1 C8 128.7(8)
C6 C1 C8 108.9(7)
C1 C2 C3 118.2(8)
C1 C2 H2 120.9
C3 C2 H2 120.9
C2 C3 C4 120.2(8)
C2 C3 H3 119.9
C4 C3 H3 119.9
C5 C4 C3 121.7(8)
C5 C4 H4 119.2
C3 C4 H4 119.2
C4 C5 C6 117.7(8)
C4 C5 H5 121.2
C6 C5 H5 121.2
C5 C6 C1 120.0(8)
C5 C6 C7 132.7(8)
C1 C6 C7 107.1(6)
C9 C7 N1 125.5(7)
C9 C7 C6 129.5(7)
N1 C7 C6 105.0(6)
O1 C8 N1 124.4(7)
O1 C8 C1 129.3(8)
N1 C8 C1 106.3(7)
C7 C9 C10 124.5(7)
C7 C9 I1 119.5(6)
C10 C9 I1 115.6(6)
C15 C10 C11 117.0(8)
C15 C10 C9 125.4(8)
C11 C10 C9 117.6(8)
C12 C11 C10 120.5(9)
C12 C11 H11 119.7
C10 C11 H11 119.7
C11 C12 C13 117.7(9)
C11 C12 H12 121.2
C13 C12 H12 121.2
C14 C13 C12 121.7(9)
C14 C13 H13 119.1
C12 C13 H13 119.1
C13 C14 C15 119.8(10)
C13 C14 H14 120.1
C15 C14 H14 120.1
C10 C15 C14 123.3(10)
C10 C15 Br1 118.9(6)
C14 C15 Br1 117.8(8)
C8 N1 C7 112.6(6)
C8 N1 H1 127(7)
C7 N1 H1 119(7)
loop_
_geom_bond_atom_site_label_1
_geom_bond_atom_site_label_2
_geom_bond_distance
C1 C2 1.371(11)
C1 C6 1.399(11)
C1 C8 1.470(11)
C2 C3 1.383(13)
C2 H2 0.9300
C3 C4 1.401(14)
C3 H3 0.9300
C4 C5 1.389(13)
C4 H4 0.9300
C5 C6 1.390(11)
C5 H5 0.9300
C6 C7 1.492(11)
C7 C9 1.326(12)
C7 N1 1.416(9)
C8 O1 1.228(9)
C8 N1 1.369(10)
C9 C10 1.497(11)
C9 I1 2.105(8)
C10 C15 1.345(12)
C10 C11 1.443(13)
C11 C12 1.387(13)
C11 H11 0.9300
C12 C13 1.414(16)
C12 H12 0.9300
C13 C14 1.329(16)
C13 H13 0.9300
C14 C15 1.378(13)
C14 H14 0.9300
C15 Br1 1.918(10)
N1 H1 0.85(2)
loop_
_geom_hbond_atom_site_label_D
_geom_hbond_atom_site_label_H
_geom_hbond_atom_site_label_A
_geom_hbond_distance_DH
_geom_hbond_distance_HA
_geom_hbond_distance_DA
_geom_hbond_angle_DHA
_geom_hbond_site_symmetry_A
N1 H1 O1 0.85(2) 2.24(7) 2.952(9) 141(10) 2_576
N1 H1 I1 0.85(2) 2.86(9) 3.259(7) 111(8) .
loop_
_geom_torsion_atom_site_label_1
_geom_torsion_atom_site_label_2
_geom_torsion_atom_site_label_3
_geom_torsion_atom_site_label_4
_geom_torsion
C6 C1 C2 C3 -2.9(14)
C8 C1 C2 C3 171.9(9)
C1 C2 C3 C4 1.2(14)
C2 C3 C4 C5 0.2(14)
C3 C4 C5 C6 -0.1(13)
C4 C5 C6 C1 -1.4(13)
C4 C5 C6 C7 -175.9(9)
C2 C1 C6 C5 3.0(13)
C8 C1 C6 C5 -172.6(8)
C2 C1 C6 C7 178.7(8)
C8 C1 C6 C7 3.1(9)
C5 C6 C7 C9 -8.7(17)
C1 C6 C7 C9 176.4(9)
C5 C6 C7 N1 172.8(9)
C1 C6 C7 N1 -2.1(9)
C2 C1 C8 O1 -1.1(16)
C6 C1 C8 O1 174.2(9)
C2 C1 C8 N1 -178.2(9)
C6 C1 C8 N1 -2.9(10)
N1 C7 C9 C10 177.9(8)
C6 C7 C9 C10 -0.2(16)
N1 C7 C9 I1 6.0(13)
C6 C7 C9 I1 -172.2(7)
C7 C9 C10 C15 108.4(11)
I1 C9 C10 C15 -79.4(10)
C7 C9 C10 C11 -73.3(12)
I1 C9 C10 C11 98.9(8)
C15 C10 C11 C12 -2.4(13)
C9 C10 C11 C12 179.2(8)
C10 C11 C12 C13 1.3(14)
C11 C12 C13 C14 0.2(14)
C12 C13 C14 C15 -0.5(15)
C11 C10 C15 C14 2.2(13)
C9 C10 C15 C14 -179.5(8)
C11 C10 C15 Br1 -178.0(6)
C9 C10 C15 Br1 0.3(12)
C13 C14 C15 C10 -0.8(14)
C13 C14 C15 Br1 179.3(7)
O1 C8 N1 C7 -175.7(8)
C1 C8 N1 C7 1.5(10)
C9 C7 N1 C8 -178.3(9)
C6 C7 N1 C8 0.3(10)
