#------------------------------------------------------------------------------
#$Date: 2019-11-04 15:05:26 +0200 (Mon, 04 Nov 2019) $
#$Revision: 223094 $
#$URL: file:///home/coder/svn-repositories/cod/cif/4/03/46/4034616.cif $
#------------------------------------------------------------------------------
#
# This file is available in the Crystallography Open Database (COD),
# http://www.crystallography.net/
#
# All data on this site have been placed in the public domain by the
# contributors.
#
data_4034616
loop_
_publ_author_name
'Kazi, Imran'
'Guha, Somraj'
'Sekar, Govindasamy'
_publ_section_title
;
 Halogen Bond-Assisted Electron-Catalyzed Atom Economic Iodination of
 Heteroarenes at Room Temperature.
;
_journal_issue                   11
_journal_name_full               'The Journal of organic chemistry'
_journal_page_first              6642
_journal_page_last               6654
_journal_paper_doi               10.1021/acs.joc.9b00174
_journal_volume                  84
_journal_year                    2019
_chemical_formula_moiety         'C9 H7 I N2'
_chemical_formula_sum            'C9 H7 I N2'
_chemical_formula_weight         270.07
_space_group_crystal_system      monoclinic
_space_group_IT_number           14
_space_group_name_Hall           '-P 2ybc'
_space_group_name_H-M_alt        'P 1 21/c 1'
_atom_sites_solution_hydrogens   mixed
_audit_creation_method           SHELXL-2014/7
_cell_angle_alpha                90
_cell_angle_beta                 92.247(2)
_cell_angle_gamma                90
_cell_formula_units_Z            4
_cell_length_a                   11.9093(4)
_cell_length_b                   4.20460(10)
_cell_length_c                   17.3663(6)
_cell_measurement_reflns_used    3642
_cell_measurement_temperature    296(2)
_cell_measurement_theta_max      27.05
_cell_measurement_theta_min      2.35
_cell_volume                     868.93(5)
_computing_cell_refinement       'Bruker SAINT'
_computing_data_collection       'Bruker APEX2'
_computing_data_reduction        'Bruker SAINT'
_computing_molecular_graphics    'Bruker SHELXTL'
_computing_publication_material  'Bruker SHELXTL'
_computing_structure_refinement  'SHELXL-2014/7 (Sheldrick, 2014)'
_computing_structure_solution    'SHELXS-97 (Sheldrick 2008)'
_diffrn_ambient_temperature      296(2)
_diffrn_measured_fraction_theta_full 0.999
_diffrn_measured_fraction_theta_max 0.999
_diffrn_measurement_device_type  'Bruker APEX-II CCD'
_diffrn_measurement_method       '\f and \w scans'
_diffrn_radiation_type           MoK\a
_diffrn_radiation_wavelength     0.71073
_diffrn_reflns_av_R_equivalents  0.0212
_diffrn_reflns_av_unetI/netI     0.0181
_diffrn_reflns_Laue_measured_fraction_full 0.999
_diffrn_reflns_Laue_measured_fraction_max 0.999
_diffrn_reflns_limit_h_max       14
_diffrn_reflns_limit_h_min       -14
_diffrn_reflns_limit_k_max       5
_diffrn_reflns_limit_k_min       -4
_diffrn_reflns_limit_l_max       20
_diffrn_reflns_limit_l_min       -20
_diffrn_reflns_number            6760
_diffrn_reflns_point_group_measured_fraction_full 0.999
_diffrn_reflns_point_group_measured_fraction_max 0.999
_diffrn_reflns_theta_full        24.968
_diffrn_reflns_theta_max         24.968
_diffrn_reflns_theta_min         2.347
_exptl_absorpt_coefficient_mu    3.626
_exptl_absorpt_correction_T_max  0.713
_exptl_absorpt_correction_T_min  0.503
_exptl_absorpt_correction_type   multi-scan
_exptl_absorpt_process_details   'SADABS V2014/5(Bruker AXS.Inc)'
_exptl_crystal_colour            brown
_exptl_crystal_density_diffrn    2.064
_exptl_crystal_description       Rectangular
_exptl_crystal_F_000             512
_exptl_crystal_size_max          0.220
_exptl_crystal_size_mid          0.180
_exptl_crystal_size_min          0.100
_refine_diff_density_max         0.601
_refine_diff_density_min         -0.581
_refine_diff_density_rms         0.069
_refine_ls_extinction_method     none
_refine_ls_goodness_of_fit_ref   1.068
_refine_ls_hydrogen_treatment    mixed
_refine_ls_matrix_type           full
_refine_ls_number_parameters     117
_refine_ls_number_reflns         1514
_refine_ls_number_restraints     0
_refine_ls_restrained_S_all      1.068
_refine_ls_R_factor_all          0.0245
_refine_ls_R_factor_gt           0.0202
_refine_ls_shift/su_max          0.002
_refine_ls_shift/su_mean         0.000
_refine_ls_structure_factor_coef Fsqd
_refine_ls_weighting_details
'w=1/[\s^2^(Fo^2^)+(0.0165P)^2^+0.8924P] where P=(Fo^2^+2Fc^2^)/3'
_refine_ls_weighting_scheme      calc
_refine_ls_wR_factor_gt          0.0423
_refine_ls_wR_factor_ref         0.0442
_reflns_Friedel_coverage         0.000
_reflns_number_gt                1303
_reflns_number_total             1514
_reflns_threshold_expression     'I > 2\s(I)'
_cod_data_source_file            jo9b00174_si_002.cif
_cod_data_source_block           2i
_cod_original_sg_symbol_H-M      'P 21/c'
_cod_database_code               4034616
_shelx_shelxl_version_number     2014/7
_shelx_space_group_comment
; 
The symmetry employed for this shelxl refinement is uniquely defined 
by the following loop, which should always be used as a source of 
symmetry information in preference to the above space-group names. 
They are only intended as comments. 
;
_shelx_estimated_absorpt_t_min   0.503
_shelx_estimated_absorpt_t_max   0.713
_shelx_res_file
; 
  
    71.res created by SHELXL-2014/7 
  
TITL 71 in P2(1)/c 
CELL 0.71073  11.90930   4.20460  17.36630  90.0000  92.2474  90.0000 
ZERR   4.00   0.00040   0.00010   0.00060   0.0000   0.0020   0.0000 
LATT 1 
SYMM -X, 0.5+Y, 0.5-Z 
SFAC C  H  N  I 
UNIT 36  28  8  4 
OMIT -3 50 
L.S. 8 
ACTA 
BOND $H 
FMAP 2 
PLAN 5 
SIZE 0.100 0.180 0.220 
CONF 
TEMP 23.000 
WGHT    0.016500    0.892400 
FVAR       0.14592 
MOLE 1 
C1    1    0.141111    0.363674    0.830910    11.00000    0.03495    0.03415 = 
         0.03171   -0.00487   -0.00479    0.00859 
C2    1    0.084857    0.254580    0.892412    11.00000    0.03779    0.04099 = 
         0.04220   -0.00199   -0.00335   -0.00222 
AFIX  43 
H2    2    0.021248    0.129123    0.883969    11.00000   -1.20000 
AFIX   0 
C3    1    0.120880    0.327539    0.968074    11.00000    0.04101    0.04275 = 
         0.03615    0.00275    0.00596   -0.00091 
AFIX  43 
H3    2    0.080548    0.250879    1.008936    11.00000   -1.20000 
AFIX   0 
C4    1    0.213591    0.508101    0.982756    11.00000    0.03945    0.03470 = 
         0.02670   -0.00075   -0.00099    0.00298 
C5    1    0.277929    0.622272    0.921375    11.00000    0.03686    0.03148 = 
         0.02784   -0.00008   -0.00124    0.00529 
C6    1    0.376847    0.802860    0.930362    11.00000    0.04366    0.05226 = 
         0.03488   -0.00152   -0.00460   -0.00725 
AFIX  43 
H6    2    0.404479    0.857504    0.979419    11.00000   -1.20000 
AFIX   0 
C7    1    0.432268    0.897884    0.867161    11.00000    0.04158    0.06479 = 
         0.04940    0.00164    0.00139   -0.01467 
AFIX  43 
H7    2    0.498367    1.014974    0.872488    11.00000   -1.20000 
AFIX   0 
C8    1    0.387814    0.815909    0.794192    11.00000    0.04530    0.06020 = 
         0.03778    0.00243    0.01060   -0.00523 
AFIX  43 
H8    2    0.425865    0.884788    0.751514    11.00000   -1.20000 
AFIX   0 
C9    1    0.240181    0.549655    0.844680    11.00000    0.03364    0.03177 = 
         0.02903   -0.00225    0.00035    0.00862 
I1    4    0.255425    0.630634    1.097967    11.00000    0.05970    0.04576 = 
         0.02715   -0.00094   -0.00136   -0.00470 
N1    3    0.296587    0.649369    0.781974    11.00000    0.04393    0.04497 = 
         0.02995    0.00145    0.00418    0.00508 
N2    3    0.103150    0.311338    0.755856    11.00000    0.04951    0.05754 = 
         0.03461   -0.00392   -0.00799   -0.00655 
H1N   2    0.057168    0.158237    0.750032    11.00000    0.05219 
H2N   2    0.147692    0.328268    0.727933    11.00000    0.04805 
HKLF 4 
  
REM  71 in P2(1)/c 
REM R1 =  0.0202 for    1303 Fo > 4sig(Fo)  and  0.0245 for all    1514 data 
REM    117 parameters refined using      0 restraints 
  
END 
  
WGHT      0.0163      0.8914 
  
REM Highest difference peak  0.601,  deepest hole -0.581,  1-sigma level  0.069 
Q1    1   0.3029  0.5145  1.0798  11.00000  0.05    0.60 
Q2    1   0.1942  0.5914  1.0738  11.00000  0.05    0.32 
Q3    1   0.2183  0.3544  0.8342  11.00000  0.05    0.24 
Q4    1   0.4559  0.7619  0.9759  11.00000  0.05    0.21 
Q5    1   0.4941  1.1512  0.8624  11.00000  0.05    0.21 
;
_shelx_res_checksum              87495
_shelx_hkl_file
; 
   2   0   0  989.46   16.18 
  -2   0   0 1000.00   16.17 
   3   0   0    1.41    0.24 
  -4   0   0  264.40    4.69 
  -4   0   0  268.03    4.81 
   4   0   0  267.37    4.81 
   5   0   0   44.37    1.32 
  -5   0   0   44.17    1.32 
  -5   0   0   44.38    1.23 
  -6   0   0  512.57    8.82 
   6   0   0  515.33    8.99 
  -6   0   0  509.34    8.99 
   7   0   0   24.93    1.12 
  -7   0   0   26.18    1.04 
  -7   0   0   26.93    1.15 
   8   0   0  196.41    4.28 
  -8   0   0  190.95    4.06 
   9   0   0    6.25    0.71 
  -9   0   0    5.54    0.62 
 -10   0   0   32.58    1.41 
  10   0   0   34.36    1.59 
  11   0   0    5.15    0.77 
 -11   0   0    6.01    0.73 
  12   0   0   10.41    1.16 
 -12   0   0   13.15    1.00 
 -13   0   0    0.73    0.40 
  13   0   0    0.68    0.50 
  14   0   0    2.97    0.78 
 -14   0   0    2.27    0.58 
 -15   0   0    0.07    0.34 
  15   0   0   -0.37    0.50 
   0   1   0   -0.09    0.10 
  -1  -1   0  421.42    7.38 
   1   1   0  429.37    7.34 
   1   1   0  437.15    6.94 
  -1   1   0  447.46    6.87 
   2  -1   0  350.05    5.61 
  -2  -1   0  342.75    5.70 
  -2  -1   0  345.56    6.02 
   2   1   0  348.51    5.60 
  -2   1   0  339.58    5.60 
   2   1   0  339.23    5.73 
  -2   1   0  341.78    5.66 
   2   1   0  347.41    5.58 
   2   1   0  349.74    5.94 
  -3  -1   0  498.59    7.95 
   3  -1   0  497.21    7.89 
  -3  -1   0  494.68    8.20 
  -3  -1   0  479.78    7.99 
  -3  -1   0  491.23    8.40 
   3  -1   0  472.61    8.10 
  -3   1   0  502.61    8.17 
  -3   1   0  502.54    7.82 
   3   1   0  484.55    8.22 
   3   1   0  505.13    8.09 
   3   1   0  507.35    8.11 
   4  -1   0    0.04    0.12 
   4  -1   0    0.20    0.07 
  -4  -1   0    0.05    0.08 
  -4  -1   0    0.05    0.10 
  -4  -1   0    0.04    0.12 
  -4  -1   0    0.82    0.22 
  -4   1   0    0.12    0.13 
   4   1   0   -0.02    0.13 
   4   1   0    0.01    0.08 
  -5  -1   0  232.19    4.37 
   5  -1   0  229.56    4.28 
  -5  -1   0  225.67    4.18 
  -5  -1   0  228.75    4.15 
   5  -1   0  230.02    3.81 
   5   1   0  225.78    4.23 
   5   1   0  223.65    4.38 
  -5   1   0  225.84    4.33 
  -6  -1   0    0.20    0.16 
   6  -1   0    0.44    0.12 
   6  -1   0    0.34    0.21 
  -6  -1   0    0.17    0.14 
  -6   1   0   -0.10    0.14 
   6   1   0    0.16    0.21 
  -7  -1   0   74.34    1.89 
  -7  -1   0   73.34    1.92 
   7  -1   0   72.37    1.54 
   7  -1   0   74.54    2.02 
  -7   1   0   74.59    2.08 
   7   1   0   71.59    2.11 
  -8  -1   0   23.77    1.05 
   8  -1   0   23.29    0.76 
   8  -1   0   23.47    1.12 
  -8  -1   0   23.28    1.01 
  -8   1   0   24.35    1.17 
   8   1   0   25.23    1.22 
  -9  -1   0   38.67    1.41 
   9  -1   0   39.39    1.57 
  -9  -1   0   38.11    1.43 
   9  -1   0   35.54    1.06 
  -9   1   0   37.10    1.57 
   9   1   0   38.28    1.62 
  10  -1   0    7.37    0.48 
 -10  -1   0    6.75    0.70 
  10  -1   0    7.42    0.81 
 -10  -1   0    8.98    0.72 
  10   1   0    8.99    0.97 
 -11  -1   0   12.48    0.90 
  11  -1   0   11.77    0.99 
  11   1   0   13.27    1.12 
 -12  -1   0    1.04    0.39 
  12  -1   0    1.01    0.49 
  12   1   0    0.45    0.50 
 -13  -1   0    3.21    0.61 
  13  -1   0    3.48    0.76 
  13   1   0    4.25    0.82 
 -14  -1   0    0.29    0.31 
  14   1   0    0.18    0.49 
 -15  -1   0    2.61    0.62 
  15   1   0    3.74    0.94 
   0   2   0   23.13    1.10 
  -1  -2   0    3.60    0.51 
   1   2   0    3.32    0.49 
   1   2   0    3.03    0.19 
  -1   2   0    4.50    0.59 
  -2  -2   0    3.83    0.53 
  -2   2   0    4.68    0.24 
   2   2   0    3.32    0.45 
  -2   2   0    4.32    0.38 
   2   2   0    4.09    0.28 
  -3  -2   0    2.03    0.42 
  -3   2   0    1.13    0.20 
  -3   2   0    1.32    0.24 
   3   2   0    1.61    0.18 
   3   2   0    1.83    0.35 
   3   2   0    1.20    0.24 
   4  -2   0   19.79    0.58 
  -4  -2   0   19.64    1.05 
   4   2   0   18.97    0.79 
   4   2   0   20.43    0.68 
  -4   2   0   19.73    0.58 
   4   2   0   21.38    0.93 
  -4   2   0   21.04    0.76 
   5  -2   0    6.86    0.44 
  -5  -2   0    7.77    0.81 
  -5   2   0    7.05    0.26 
   5   2   0    6.90    0.45 
   5   2   0    7.46    0.58 
  -5   2   0    6.16    0.50 
  -6  -2   0    2.04    0.44 
   6  -2   0    2.77    0.36 
   6   2   0    2.78    0.36 
  -6   2   0    2.19    0.37 
   6   2   0    2.80    0.45 
  -7  -2   0   -0.09    0.09 
  -7  -2   0   -0.04    0.08 
   7  -2   0   -0.05    0.18 
  -7  -2   0    0.16    0.24 
  -7   2   0   -0.23    0.16 
   7   2   0   -0.33    0.19 
  -8  -2   0    1.77    0.32 
  -8  -2   0    2.04    0.52 
  -8  -2   0    1.71    0.27 
   8   2   0    2.03    0.50 
  -8   2   0    2.08    0.43 
   9  -2   0   -0.23    0.21 
  -9  -2   0    0.29    0.30 
  -9  -2   0    0.24    0.19 
  -9  -2   0    0.02    0.14 
   9   2   0   -0.15    0.26 
  -9   2   0    0.11    0.27 
  10  -2   0    0.34    0.32 
 -10  -2   0    0.50    0.35 
 -10  -2   0    0.04    0.15 
 -10  -2   0    0.08    0.20 
  10   2   0    0.26    0.34 
 -11  -2   0    0.11    0.18 
 -11  -2   0    0.89    0.32 
 -11  -2   0    0.52    0.40 
  11   2   0    1.00    0.49 
 -12  -2   0   -0.35    0.14 
 -12  -2   0    0.16    0.41 
 -12  -2   0   -0.12    0.19 
  12   2   0   -0.09    0.37 
 -13  -2   0   -0.18    0.18 
 -13  -2   0    0.61    0.51 
  13   2   0   -0.42    0.40 
 -14  -2   0    0.22    0.49 
 -14  -2   0    0.19    0.27 
  14   2   0    0.42    0.52 
   0   3   0    0.09    0.29 
   1   3   0   94.41    1.80 
  -1   3   0   94.92    3.00 
  -1   3   0   99.27    2.65 
   1   3   0  101.10    2.97 
   2   3   0    0.12    0.27 
   2   3   0   -0.21    0.11 
  -2   3   0   -0.22    0.23 
  -2   3   0   -0.09    0.09 
  -2   3   0   -0.18    0.19 
  -3  -3   0   53.68    2.15 
  -3   3   0   52.45    1.62 
   3   3   0   53.78    1.40 
   3   3   0   54.45    1.97 
  -3   3   0   58.91    2.28 
  -3   3   0   56.10    1.31 
  -4  -3   0    4.72    0.77 
   4   3   0    4.97    0.67 
  -4   3   0    4.04    0.45 
  -4   3   0    4.60    0.40 
   4   3   0    4.20    0.46 
  -5  -3   0   61.33    2.37 
  -5   3   0   62.67    1.43 
  -5   3   0   62.60    1.68 
   5   3   0   62.23    1.78 
   5   3   0   60.03    2.01 
   5   3   0   58.66    1.57 
  -6  -3   0    4.80    0.79 
  -6   3   0    5.47    0.28 
  -6   3   0    4.97    0.54 
   6   3   0    6.37    0.61 
   6   3   0    5.76    0.65 
   7  -3   0   23.95    0.74 
  -7  -3   0   26.79    1.58 
   7   3   0   25.29    1.24 
  -7   3   0   25.37    1.17 
  -8  -3   0    0.67    0.44 
   8   3   0    1.07    0.38 
  -9  -3   0    3.98    0.81 
   9   3   0    5.68    0.81 
 -10  -3   0    0.63    0.46 
  10   3   0    1.34    0.50 
 -11  -3   0    5.04    0.97 
  11   3   0    5.21    0.88 
 -12  -3   0    1.17    0.58 
  12   3   0    2.23    0.68 
   0   4   0   69.93    2.55 
  -1   4   0    0.74    0.41 
   1   4   0    0.60    0.12 
   1   4   0    1.43    0.49 
   2   4   0   53.93    1.30 
  -2   4   0   53.02    2.00 
  -2   4   0   55.30    1.16 
  -3   4   0    0.92    0.38 
   3   4   0    1.06    0.24 
  -3   4   0    1.11    0.21 
  -4   4   0   33.39    1.09 
   4   4   0   36.18    1.23 
  -4   4   0   36.09    1.39 
  -5  -4   0    3.96    0.80 
  -5   4   0    3.61    0.46 
   5   4   0    3.33    0.49 
  -6  -4   0   21.94    1.62 
   6   4   0   21.64    1.11 
  -7  -4   0    6.46    1.06 
   7   4   0    8.89    0.90 
  -8  -4   0   16.34    1.73 
   8   4   0   14.82    1.08 
  -9  -4   0    2.66    0.76 
   9   4   0    3.17    0.63 
 -10  -4   0    8.94    1.34 
  10   4   0    7.54    0.97 
   0   5   0   -0.08    0.41 
   1   5   0   12.52    1.47 
  -1   5   0    9.23    1.22 
  -2   5   0    0.68    0.44 
   2   5   0    0.73    0.59 
   3   5   0    9.01    0.53 
   3   5   0   11.96    1.59 
   4   5   0    1.39    0.63 
   4   5   0    0.67    0.25 
   5   5   0   10.37    1.60 
   5   5   0    7.46    0.65 
  15   0  -1   -0.49    0.46 
 -15   0   1   -0.07    0.29 
 -14   0   1    0.12    0.31 
  14   0  -1   -0.35    0.42 
  13   0  -1   -0.25    0.34 
 -13   0   1   -0.37    0.24 
  12   0  -1   -0.23    0.32 
  11   0  -1   -0.45    0.28 
 -10   0   1   -0.03    0.20 
  10   0  -1   -0.48    0.25 
   9   0  -1   -0.27    0.23 
  -9   0   1   -0.14    0.16 
  -8   0   1   -0.10    0.17 
   8   0  -1   -0.29    0.19 
   7   0  -1   -0.12    0.19 
  -7   0   1    0.03    0.18 
  -7   0   1   -0.06    0.12 
  -6   0   1    0.04    0.15 
   6   0  -1    0.23    0.20 
  -6   0   1   -0.10    0.12 
  -5   0   1   -0.13    0.12 
   5   0  -1   -0.34    0.09 
  -5   0   1   -0.06    0.09 
  -4   0   1    0.30    0.15 
  -4   0   1   -0.12    0.06 
   4   0  -1   -0.06    0.11 
   3   0  -1   -0.03    0.07 
  -3   0   1    0.27    0.11 
  -3   0   1    0.03    0.09 
   3   0  -1   -0.24    0.07 
   2   0  -1   -0.10    0.05 
   2   0  -1   -0.11    0.07 
  -2   0   1   -0.20    0.06 
  -2   0   1   -0.18    0.05 
   1   0  -1   -0.18    0.03 
  -1   0   1   -0.18    0.02 
   1   0  -1   -0.10    0.04 
  -1   0   1    0.17    0.06 
   0   0   1   -0.04    0.02 
   0   0  -1   -0.07    0.01 
   0   0  -1   -0.07    0.01 
   0   0   1   -0.08    0.00 
  -1   0  -1   -0.02    0.04 
  -1   0  -1    0.00    0.04 
   1   0   1   -0.13    0.01 
   1   0   1   -0.08    0.04 
  -1   0  -1    0.00    0.05 
   1   0   1   -0.09    0.04 
  -2   0  -1   -0.11    0.06 
   2   0   1   -0.09    0.06 
  -3   0  -1    0.00    0.09 
   3   0   1   -0.04    0.09 
   4   0   1   -0.03    0.11 
  -4   0  -1   -0.14    0.09 
   5   0   1   -0.03    0.13 
  -5   0  -1   -0.06    0.11 
  -6   0  -1   -0.17    0.17 
  -6   0  -1   -0.51    0.14 
   6   0   1   -0.52    0.17 
  -7   0  -1   -0.15    0.17 
   7   0   1   -0.11    0.16 
  -7   0  -1   -0.07    0.15 
  -8   0  -1   -0.44    0.17 
   8   0   1   -0.46    0.16 
  -9   0  -1    0.17    0.23 
  -9   0  -1   -0.21    0.16 
   9   0   1   -0.21    0.22 
 -10   0  -1   -0.16    0.21 
 -10   0  -1   -0.30    0.16 
  10   0   1   -0.39    0.24 
 -11   0  -1    0.16    0.27 
  11   0   1    0.09    0.32 
 -12   0  -1   -0.17    0.25 
  12   0   1    0.13    0.39 
 -13   0  -1    0.21    0.33 
  13   0   1   -0.13    0.38 
 -14   0  -1    0.54    0.40 
  14   0   1   -0.38    0.38 
  15   0   1   -0.39    0.50 
 -15   0  -1    0.14    0.36 
 -15  -1   1   -0.14    0.26 
  15   1  -1   -0.36    0.54 
 -14  -1   1    2.33    0.55 
  14   1  -1    2.74    0.77 
 -13  -1   1    0.13    0.26 
  13  -1  -1   -0.16    0.38 
  13   1  -1   -0.03    0.40 
 -12  -1   1    9.91    1.01 
  12  -1  -1    8.06    1.01 
  12   1  -1    8.85    1.07 
 -11  -1   1    2.77    0.51 
  11  -1  -1    2.12    0.52 
  11   1  -1    1.82    0.53 
 -10  -1   1   20.83    1.08 
  10  -1  -1   20.78    1.22 
 -10  -1   1   23.40    1.13 
  10  -1  -1   19.56    0.83 
  10   1  -1   22.78    1.33 
   9  -1  -1    2.23    0.48 
   9  -1  -1    2.94    0.37 
  -9  -1   1    2.93    0.47 
  -9  -1   1    3.03    0.48 
   9   1  -1    2.10    0.46 
  -9   1   1    1.62    0.43 
   8  -1  -1   58.79    1.47 
  -8  -1   1   60.55    1.77 
   8  -1  -1   62.03    1.93 
  -8  -1   1   61.98    1.79 
   8   1  -1   61.58    2.01 
  -8   1   1   61.28    1.95 
  -7  -1   1    6.37    0.50 
   7  -1  -1    5.16    0.57 
   7  -1  -1    5.97    0.37 
  -7  -1   1    6.33    0.49 
   7   1  -1    6.14    0.67 
  -7   1   1    6.91    0.59 
   6  -1  -1   65.69    1.44 
   6  -1  -1   67.12    1.79 
  -6  -1   1   66.76    1.68 
  -6  -1   1   66.60    1.66 
   6   1  -1   66.87    1.86 
  -6   1   1   63.95    1.80 
   6   1  -1   65.77    1.73 
   5  -1  -1   13.65    0.67 
  -5  -1   1   13.11    0.59 
  -5  -1   1   12.91    0.57 
   5  -1  -1   14.51    0.50 
  -5  -1   1   13.32    0.67 
  -5   1   1   14.18    0.69 
   5   1  -1   13.10    0.70 
   5   1  -1   13.24    0.62 
  -4  -1   1  158.02    2.90 
   4  -1  -1  150.73    3.00 
   4  -1  -1  155.63    2.77 
  -4  -1   1  160.27    3.24 
  -4  -1   1  158.79    2.86 
  -4  -1   1  153.38    3.05 
   4   1  -1  157.93    3.10 
  -4   1   1  156.49    3.05 
   4   1  -1  153.88    2.96 
  -3  -1   1   25.86    0.62 
  -3  -1   1   25.75    0.77 
   3  -1  -1   24.75    0.67 
  -3  -1   1   25.49    0.64 
  -3  -1   1   25.31    0.92 
   3   1  -1   25.07    0.78 
  -3   1   1   24.93    0.60 
  -3   1   1   25.95    0.76 
   3   1  -1   26.22    0.71 
   2  -1  -1  618.02   10.10 
  -2  -1   1  630.86   10.05 
  -2  -1   1  613.74   10.43 
   2  -1  -1  632.20   10.01 
   2   1  -1  625.03    9.94 
  -2   1   1  617.60   10.04 
   2   1  -1  620.43   10.33 
  -2   1   1  638.11   10.07 
   2   1  -1  648.12    9.95 
   2   1  -1  608.47   10.07 
  -1  -1   1   67.27    1.61 
  -1  -1   1   66.36    1.12 
   1   1  -1   67.52    1.22 
  -1   1   1   66.77    1.42 
   1   1  -1   64.96    1.56 
  -1   1   1   68.57    1.23 
   0  -1   1  362.23    6.38 
   0   1   1  370.41    6.34 
   0   1   1  370.80    6.26 
  -1  -1  -1    1.15    0.19 
  -1   1  -1    1.42    0.24 
   1   1   1    1.54    0.23 
  -1   1  -1    1.75    0.11 
   1   1   1    1.78    0.15 
   2  -1   1  236.56    3.86 
  -2  -1  -1  229.91    3.99 
  -2  -1  -1  232.37    4.20 
   2   1   1  226.54    4.10 
   2   1   1  235.13    3.86 
   2   1   1  232.18    4.03 
  -2   1  -1  228.82    3.92 
   2   1   1  233.01    3.88 
  -3  -1  -1   14.25    0.47 
  -3  -1  -1   14.04    0.58 
   3  -1   1   13.34    0.50 
  -3  -1  -1   14.31    0.45 
  -3  -1  -1   14.43    0.61 
   3   1   1   13.64    0.51 
   3   1   1   13.97    0.59 
  -3   1  -1   13.84    0.54 
   3   1   1   13.59    0.49 
  -4  -1  -1  222.02    3.96 
  -4  -1  -1  222.79    4.13 
  -4  -1  -1  216.56    4.10 
  -4  -1  -1  219.22    3.87 
  -4   1  -1  218.35    4.05 
   4   1   1  214.46    4.12 
   4   1   1  222.20    3.98 
  -5  -1  -1   94.30    2.10 
   5  -1   1   96.76    2.16 
  -5  -1  -1   92.29    2.16 
  -5  -1  -1   96.33    2.23 
  -5  -1  -1   92.35    2.02 
  -5   1  -1   96.12    2.20 
   5   1   1   89.99    2.22 
   6  -1   1   94.80    1.73 
  -6  -1  -1   96.43    2.18 
   6  -1   1   93.68    2.29 
  -6  -1  -1   96.19    2.24 
   6   1   1   95.63    2.40 
  -6   1  -1   98.24    2.37 
   7  -1   1   34.50    1.29 
   7  -1   1   33.43    0.82 
  -7  -1  -1   34.92    1.19 
  -7  -1  -1   34.78    1.22 
  -7   1  -1   36.17    1.35 
   8  -1   1   26.07    0.75 
  -8  -1  -1   27.29    1.14 
   8  -1   1   26.84    1.21 
  -8  -1  -1   28.02    1.12 
  -8   1  -1   26.21    1.23 
   8   1   1   26.62    1.28 
   9  -1   1   13.86    0.56 
   9  -1   1   14.27    0.95 
  -9  -1  -1   14.59    0.87 
  -9  -1  -1   13.33    0.82 
  -9   1  -1   15.07    0.99 
   9   1   1   13.58    1.01 
  10  -1   1    4.77    0.70 
 -10  -1  -1    4.76    0.59 
 -10  -1  -1    5.25    0.64 
  10  -1   1    4.21    0.37 
  10   1   1    3.48    0.62 
  11  -1   1    9.64    0.98 
 -11  -1  -1    8.71    0.79 
  11   1   1    7.67    0.92 
  12  -1   1   -0.14    0.35 
 -12  -1  -1    0.65    0.34 
  12   1   1    0.41    0.43 
  13  -1   1    3.45    0.80 
 -13  -1  -1    3.66    0.63 
  13   1   1    4.46    0.82 
 -14  -1  -1    0.00    0.28 
  14   1   1   -0.46    0.39 
 -14  -2   1    0.09    0.25 
 -14  -2   1    0.25    0.50 
  14   2  -1   -0.07    0.46 
 -13  -2   1    8.65    0.91 
 -13  -2   1    8.38    1.21 
  13   2  -1    8.78    1.16 
 -12  -2   1    0.07    0.21 
 -12  -2   1    0.14    0.21 
 -12  -2   1    1.10    0.55 
  12   2  -1    0.57    0.46 
 -11  -2   1   20.74    1.09 
 -11  -2   1   20.27    1.00 
 -11  -2   1   20.46    1.45 
  11   2  -1   21.19    1.41 
  10  -2  -1    1.24    0.42 
 -10  -2   1    1.45    0.30 
 -10  -2   1    1.50    0.35 
 -10  -2   1    1.01    0.49 
  10   2  -1    1.08    0.44 
  -9  -2   1   35.30    1.76 
  -9  -2   1   36.31    1.27 
   9  -2  -1   34.72    1.41 
  -9  -2   1   34.47    1.14 
   9   2  -1   36.68    1.63 
  -9   2   1   32.88    1.49 
  -8  -2   1   10.71    0.60 
  -8  -2   1   11.84    0.56 
  -8  -2   1   13.91    1.05 
   8   2  -1   10.68    0.87 
  -8   2   1    9.80    0.77 
  -7  -2   1   81.59    1.62 
  -7  -2   1   79.61    2.57 
   7  -2  -1   76.54    2.02 
  -7  -2   1   76.72    1.66 
   7   2  -1   80.73    2.09 
   7   2  -1   82.81    2.30 
  -7   2   1   79.92    2.20 
   6  -2  -1   25.22    0.93 
  -6  -2   1   27.99    1.37 
   6   2  -1   25.97    0.98 
   6   2  -1   26.81    1.12 
  -6   2   1   25.50    1.05 
   5  -2  -1  159.35    3.09 
  -5  -2   1  165.93    3.93 
   5   2  -1  161.07    3.40 
   5   2  -1  166.94    3.21 
  -5   2   1  165.04    3.34 
  -5   2   1  164.02    2.88 
   4  -2  -1    0.29    0.11 
  -4  -2   1    0.10    0.22 
  -4   2   1    0.49    0.13 
   4   2  -1    0.14    0.15 
   4   2  -1    0.20    0.11 
  -4   2   1    0.08    0.12 
  -3  -2   1  256.55    5.35 
  -3  -2   1  254.31    4.33 
  -3   2   1  260.47    4.67 
   3   2  -1  270.60    5.17 
  -3   2   1  259.81    4.55 
   3   2  -1  270.52    4.38 
   3   2  -1  255.87    4.61 
  -2  -2   1   25.95    1.19 
   2   2  -1   25.68    1.10 
   2   2  -1   26.02    0.71 
  -2   2   1   26.78    0.94 
  -2   2   1   26.00    0.68 
  -1  -2   1  218.41    4.61 
  -1   2   1  216.13    4.58 
   1   2  -1  217.96    4.52 
   1   2  -1  216.60    3.57 
  -1   2   1  215.90    4.23 
   0   2  -1  158.44    3.57 
   0   2   1  155.01    3.52 
  -1   2  -1  220.41    4.62 
   1   2   1  216.16    4.48 
  -2  -2  -1   69.60    2.04 
   2   2   1   72.59    1.99 
  -2   2  -1   71.95    1.39 
  -2   2  -1   70.95    2.16 
   2   2   1   69.02    1.53 
  -3  -2  -1  392.73    7.31 
   3   2   1  390.03    6.71 
  -3   2  -1  383.98    6.56 
  -3   2  -1  387.61    6.54 
   3   2   1  382.00    7.06 
   3   2   1  395.93    6.40 
   4  -2   1   50.63    1.11 
  -4  -2  -1   50.60    1.72 
   4   2   1   50.47    1.43 
  -4   2  -1   49.47    1.04 
  -4   2  -1   52.81    1.35 
   4   2   1   51.52    1.54 
   4   2   1   51.63    1.25 
  -5  -2  -1  172.63    3.86 
   5  -2   1  163.91    3.11 
   5   2   1  164.16    3.23 
   5   2   1  165.32    3.49 
  -5   2  -1  161.25    3.34 
  -6  -2  -1   84.53    2.46 
   6  -2   1   82.65    1.96 
   6   2   1   83.32    2.25 
  -6   2  -1   83.63    2.15 
  -7  -2  -1   37.71    1.05 
  -7  -2  -1   40.07    1.01 
  -7  -2  -1   39.98    1.63 
   7  -2   1   38.19    1.30 
   7   2   1   39.44    1.52 
  -7   2  -1   38.05    1.42 
  -8  -2  -1   61.89    2.15 
  -8  -2  -1   58.98    1.62 
  -8  -2  -1   60.88    1.52 
   8   2   1   59.49    2.05 
  -8   2  -1   60.60    1.98 
  -9  -2  -1   22.22    0.90 
  -9  -2  -1   22.79    1.31 
   9  -2   1   23.17    1.14 
  -9  -2  -1   20.76    0.97 
  -9   2  -1   22.81    1.22 
   9   2   1   20.86    1.27 
 -10  -2  -1   34.22    1.24 
  10  -2   1   33.65    1.49 
 -10  -2  -1   33.73    1.35 
 -10  -2  -1   34.05    1.67 
  10   2   1   32.56    1.65 
 -11  -2  -1    7.76    0.64 
 -11  -2  -1    8.73    0.74 
 -11  -2  -1    9.65    1.09 
  11   2   1    6.90    0.93 
 -12  -2  -1   10.60    1.18 
 -12  -2  -1   10.90    0.87 
 -12  -2  -1   10.93    0.98 
  12   2   1    8.57    1.05 
 -13  -2  -1    3.66    0.64 
 -13  -2  -1    3.32    0.73 
  13   2   1    2.65    0.71 
 -14  -2  -1    4.59    0.71 
  14   2   1    3.33    0.82 
 -12  -3   1    3.39    0.84 
  12   3  -1    4.08    0.87 
 -11  -3   1    2.00    0.66 
  11   3  -1    1.51    0.58 
 -10  -3   1   12.27    1.41 
  10   3  -1   10.66    1.12 
  -9  -3   1    2.50    0.72 
   9   3  -1    3.37    0.62 
  -8  -3   1   18.90    1.41 
   8   3  -1   18.09    1.12 
  -7  -3   1    1.39    0.50 
  -7   3   1    1.48    0.37 
   7   3  -1    0.29    0.28 
  -6  -3   1   10.28    1.14 
   6   3  -1   10.60    0.74 
   6   3  -1   10.12    0.70 
  -6   3   1   10.11    0.44 
  -6   3   1   10.28    0.70 
  -5  -3   1    4.61    0.79 
  -5   3   1    3.67    0.34 
  -5   3   1    2.85    0.38 
   5   3  -1    2.89    0.44 
   5   3  -1    3.88    0.48 
  -4  -3   1   23.47    1.39 
  -4   3   1   22.62    0.91 
   4   3  -1   22.86    0.91 
   4   3  -1   24.17    1.26 
  -4   3   1   22.97    0.85 
  -3  -3   1   22.72    1.37 
   3   3  -1   21.07    0.78 
  -3   3   1   22.54    0.74 
   3   3  -1   20.84    1.20 
  -3   3   1   22.13    0.99 
  -3   3   1   20.78    1.33 
  -2  -3   1   83.72    2.78 
  -2   3   1   82.95    2.79 
  -2   3   1   85.98    1.68 
   2   3  -1   86.60    1.74 
   2   3  -1   83.70    2.65 
  -2   3   1   84.24    2.32 
  -1   3   1   28.31    1.50 
   1   3  -1   26.74    1.43 
  -1   3   1   30.61    1.32 
  -1   3   1   28.62    0.68 
   1   3  -1   27.90    0.66 
   0   3   1   58.23    2.19 
   0   3  -1   58.52    2.19 
   0   3   1   58.86    2.01 
   1   3   1    9.84    0.42 
  -1   3  -1    9.05    0.98 
   1   3   1    9.91    0.87 
  -2   3  -1   25.43    0.66 
   2   3   1   25.57    0.81 
  -2   3  -1   24.58    1.42 
  -2   3  -1   26.28    1.15 
   2   3   1   24.70    1.32 
  -3  -3  -1   25.94    1.42 
  -3   3  -1   27.21    0.82 
  -3   3  -1   27.48    1.09 
   3   3   1   26.36    0.94 
   3   3   1   27.04    1.35 
  -3   3  -1   28.37    1.56 
  -4  -3  -1   45.79    1.95 
   4   3   1   46.67    1.76 
  -4   3  -1   47.85    1.30 
  -4   3  -1   47.25    1.33 
   4   3   1   44.06    1.39 
  -5  -3  -1   59.00    2.27 
   5   3   1   59.92    1.77 
  -5   3  -1   58.90    1.32 
   5   3   1   56.95    1.52 
  -5   3  -1   61.28    1.66 
   5   3   1   61.45    1.99 
  -6  -3  -1   44.43    1.98 
   6   3   1   46.41    1.66 
   6   3   1   43.44    1.57 
  -6   3  -1   45.43    1.50 
  -7  -3  -1   34.18    1.76 
   7  -3   1   32.52    0.88 
  -7   3  -1   32.63    1.36 
   7   3   1   33.46    1.45 
  -8  -3  -1   16.49    1.25 
   8   3   1   15.93    1.08 
  -9  -3  -1   12.52    1.35 
   9   3   1   14.08    1.09 
 -10  -3  -1    4.47    0.85 
  10   3   1    5.34    0.81 
 -11  -3  -1    5.74    0.98 
  11   3   1    7.40    0.97 
 -12  -3  -1    2.42    0.69 
  12   3   1    2.17    0.69 
 -10  -4   1    0.24    0.55 
  10   4  -1   -0.20    0.28 
  -9  -4   1    0.26    0.47 
   9   4  -1    0.09    0.28 
  -8  -4   1    1.00    0.53 
   8   4  -1    1.97    0.46 
  -7  -4   1    0.40    0.43 
   7   4  -1    0.25    0.27 
  -6  -4   1    1.98    0.69 
   6   4  -1    1.25    0.35 
  -5  -4   1    0.47    0.47 
  -5   4   1    0.40    0.25 
   5   4  -1    0.22    0.23 
  -4  -4   1   -0.10    0.34 
  -4   4   1   -0.27    0.13 
   4   4  -1    0.40    0.21 
  -4   4   1    0.27    0.26 
   3   4  -1   -0.07    0.15 
  -3   4   1    0.74    0.34 
  -3   4   1    0.13    0.15 
  -2   4   1    0.31    0.12 
   2   4  -1    0.56    0.15 
  -2   4   1    0.57    0.34 
  -1   4   1    0.29    0.35 
  -1   4   1    0.37    0.11 
   0   4   1    3.46    0.69 
   0   4  -1    2.76    0.65 
  -1   4  -1    0.12    0.34 
   1   4   1   -0.05    0.33 
   1   4   1    0.00    0.11 
   2   4   1    0.80    0.20 
  -2   4  -1    0.51    0.14 
   2   4   1    1.07    0.50 
  -2   4  -1    0.80    0.36 
  -3   4  -1    2.86    0.56 
   3   4   1    2.41    0.34 
  -3   4  -1    2.13    0.27 
  -4   4  -1    0.01    0.17 
   4   4   1   -0.31    0.16 
  -4   4  -1   -0.14    0.23 
   5   4   1    1.92    0.36 
  -6  -4  -1    0.99    0.54 
   6   4   1    1.01    0.36 
  -7  -4  -1    0.47    0.45 
   7   4   1    0.74    0.34 
  -8  -4  -1    0.93    0.55 
   8   4   1    2.63    0.56 
  -9  -4  -1    0.61    0.52 
   9   4   1    0.42    0.33 
 -10  -4  -1    0.35    0.49 
  10   4   1    0.11    0.37 
   5   5  -1    0.06    0.23 
   4   5  -1    2.55    0.38 
   3   5  -1   -0.11    0.14 
   3   5  -1   -0.42    0.41 
   2   5  -1    2.23    0.73 
  -2   5   1    3.05    0.74 
  -1   5   1    1.37    0.57 
   1   5  -1    0.20    0.47 
   0   5   1    1.85    0.67 
   0   5  -1    5.10    0.94 
  -1   5  -1    2.05    0.67 
   1   5   1    3.35    0.83 
  -2   5  -1    2.79    0.68 
   2   5   1    3.53    0.86 
   2   5   1    3.93    0.33 
   3   5   1    3.27    0.83 
   3   5   1    2.65    0.36 
   4   5   1    1.43    0.31 
   4   5   1    0.73    0.62 
   5   5   1    2.44    0.91 
   5   5   1    3.43    0.50 
 -15   0   2    0.96    0.48 
  15   0  -2    1.10    0.69 
 -14   0   2    4.26    0.76 
  14   0  -2    4.88    0.91 
  13   0  -2    5.64    0.87 
  12   0  -2    7.83    0.97 
  11   0  -2   19.03    1.26 
 -10   0   2   20.53    1.12 
  10   0  -2   23.11    1.29 
   9   0  -2   64.57    2.12 
  -9   0   2   64.12    1.98 
   8   0  -2   38.83    1.48 
  -8   0   2   37.59    1.36 
   7   0  -2  106.89    2.66 
  -7   0   2  106.21    2.52 
  -7   0   2  109.42    2.69 
  -6   0   2   47.69    1.48 
  -6   0   2   46.74    1.37 
   6   0  -2   45.21    1.45 
  -5   0   2  292.60    5.35 
  -5   0   2  305.78    5.51 
  -4   0   2  141.51    2.87 
   4   0  -2  139.89    2.86 
   4   0  -2  145.38    2.79 
  -4   0   2  146.75    2.79 
   3   0  -2  753.22   12.47 
  -3   0   2  761.45   12.39 
   3   0  -2  775.49   12.41 
  -3   0   2  778.84   12.48 
  -2   0   2  128.69    2.36 
   2   0  -2  130.46    2.42 
   2   0  -2  130.71    2.37 
  -2   0   2  133.18    2.42 
   1   0  -2  137.19    2.32 
  -1   0   2  136.15    2.36 
   1   0  -2  128.35    2.31 
   1   0  -2  133.79    2.35 
  -1   0   2  132.87    2.31 
   0   0   2   47.92    0.94 
   0   0  -2   47.33    0.94 
  -1   0  -2  109.97    2.01 
  -1   0  -2  115.33    2.08 
  -1   0  -2  109.26    2.01 
   1   0   2  110.51    2.07 
   1   0   2  112.51    2.01 
  -1   0  -2  115.32    1.84 
   2   0   2   81.04    1.67 
  -2   0  -2   80.39    1.60 
  -2   0  -2   83.43    1.68 
   2   0   2   79.30    1.58 
   2   0   2   79.70    1.59 
  -3   0  -2  666.01   10.78 
  -3   0  -2  655.67   10.86 
   3   0   2  660.52   10.88 
  -4   0  -2   39.71    1.08 
   4   0   2   39.18    1.17 
  -4   0  -2   40.31    1.18 
  -5   0  -2  188.85    3.69 
  -5   0  -2  194.90    3.87 
   5   0   2  197.62    3.87 
  -6   0  -2   11.33    0.62 
   6   0   2   10.92    0.69 
  -6   0  -2   11.18    0.71 
   7   0   2   73.06    2.11 
  -7   0  -2   75.53    1.98 
  -7   0  -2   74.85    2.14 
  -8   0  -2    2.60    0.39 
  -8   0  -2    2.29    0.40 
   8   0   2    2.38    0.45 
   9   0   2   75.74    2.38 
  -9   0  -2   73.49    2.17 
  -9   0  -2   75.99    2.20 
 -10   0  -2   -0.01    0.20 
  10   0   2   -0.16    0.25 
 -10   0  -2    0.17    0.23 
  11   0   2   43.05    1.92 
 -11   0  -2   42.45    1.74 
  12   0   2    0.96    0.46 
 -12   0  -2    0.89    0.39 
 -13   0  -2   24.86    1.42 
  13   0   2   21.81    1.53 
  14   0   2    2.01    0.66 
  14   0   2    1.12    0.81 
 -14   0  -2    1.65    0.52 
 -15   0  -2    8.08    1.06 
  15   0   2    9.00    1.26 
  15   1  -2    1.02    0.65 
 -14  -1   2    1.34    0.46 
  14   1  -2    1.59    0.60 
  13  -1  -2    2.49    0.65 
 -13  -1   2    3.44    0.64 
  13   1  -2    3.31    0.76 
 -12  -1   2    7.89    0.87 
  12  -1  -2    6.94    0.89 
  12   1  -2    5.16    0.80 
  11  -1  -2    8.04    0.94 
 -11  -1   2    6.34    0.71 
  11   1  -2    5.91    0.83 
  10  -1  -2   14.72    0.76 
  10  -1  -2   18.43    1.12 
 -10  -1   2   14.59    0.90 
 -10  -1   2   14.81    0.92 
  10   1  -2   17.27    1.15 
   9  -1  -2   10.75    0.61 
  -9  -1   2   10.99    0.74 
  -9  -1   2   10.02    0.72 
   9  -1  -2   10.63    0.85 
   9   1  -2   11.93    0.91 
  -9   1   2   11.08    0.87 
   8  -1  -2   49.17    1.68 
  -8  -1   2   49.54    1.54 
  -8  -1   2   49.52    1.55 
   8  -1  -2   47.42    1.34 
   8   1  -2   50.98    1.78 
  -8   1   2   50.14    1.74 
  -7  -1   2   21.57    0.90 
  -7  -1   2   20.52    0.87 
   7  -1  -2   20.16    0.99 
   7  -1  -2   22.00    0.78 
   7   1  -2   21.74    0.95 
  -7   1   2   21.15    1.01 
   7   1  -2   21.82    1.06 
   6  -1  -2   85.76    1.84 
  -6  -1   2   83.04    1.97 
   6  -1  -2   86.41    2.15 
  -6  -1   2   84.86    1.98 
   6   1  -2   85.89    2.08 
  -6   1   2   82.77    2.14 
   6   1  -2   84.62    2.19 
  -5  -1   2   68.81    1.59 
   5  -1  -2   70.62    1.52 
  -5  -1   2   66.22    1.73 
  -5  -1   2   70.66    1.60 
   5  -1  -2   66.68    1.72 
   5   1  -2   68.53    1.67 
  -5   1   2   71.06    1.78 
  -5   1   2   65.48    1.62 
   5   1  -2   66.81    1.77 
  -4  -1   2  132.88    2.70 
   4  -1  -2  137.83    2.56 
   4  -1  -2  139.49    2.70 
  -4  -1   2  137.74    2.55 
  -4  -1   2  131.97    2.52 
  -4   1   2  130.40    2.58 
   4   1  -2  133.14    2.63 
  -4   1   2  134.14    2.71 
   4   1  -2  130.80    2.74 
  -4   1   2  134.96    2.43 
  -3  -1   2    4.65    0.23 
  -3  -1   2    4.12    0.43 
  -3  -1   2    4.47    0.24 
   3  -1  -2    4.36    0.30 
  -3  -1   2    5.06    0.32 
   3   1  -2    4.87    0.33 
  -3   1   2    4.71    0.32 
  -3   1   2    4.81    0.26 
   3   1  -2    4.73    0.28 
  -2  -1   2  253.48    4.63 
   2  -1  -2  244.44    4.37 
  -2  -1   2  251.09    4.22 
   2  -1  -2  252.87    4.24 
  -2   1   2  242.85    4.26 
  -2   1   2  248.88    4.27 
   2   1  -2  250.58    4.27 
   2   1  -2  252.32    4.50 
   2   1  -2  250.63    4.15 
   1  -1  -2    5.27    0.35 
  -1  -1   2    4.84    0.20 
   1   1  -2    5.17    0.23 
  -1   1   2    4.88    0.25 
  -1   1   2    5.19    0.33 
   1   1  -2    4.76    0.35 
   0  -1   2  224.61    4.23 
   0  -1  -2  226.60    4.15 
   0   1   2  225.99    4.12 
   0   1  -2  234.53    3.72 
   0   1  -2  224.74    4.19 
   1  -1   2  179.35    2.89 
   1  -1   2  179.14    2.89 
  -1   1  -2  172.71    2.98 
   1   1   2  170.95    3.25 
   1   1   2  170.82    3.38 
   1   1   2  179.29    2.91 
  -1   1  -2  178.04    3.42 
  -2  -1  -2  134.62    2.25 
  -2  -1  -2  133.77    2.26 
   2  -1   2  136.90    2.39 
  -2  -1  -2  130.42    2.59 
  -2   1  -2  134.09    2.45 
   2   1   2  136.53    2.42 
   2   1   2  131.04    2.56 
   2   1   2  131.84    2.54 
  -3  -1  -2   45.40    1.06 
  -3  -1  -2   44.80    1.02 
  -3  -1  -2   45.60    1.19 
  -3  -1  -2   46.63    1.22 
   3   1   2   45.60    1.23 
  -3   1  -2   47.07    1.17 
   3   1   2   46.36    1.14 
  -4  -1  -2  137.55    2.79 
  -4  -1  -2  134.45    2.67 
  -4  -1  -2  130.75    2.61 
   4  -1   2  117.90    2.60 
  -4  -1  -2  133.80    2.54 
  -4   1  -2  136.08    2.72 
   4   1   2  136.21    2.82 
   4   1   2  129.68    2.63 
  -5  -1  -2    1.77    0.33 
  -5  -1  -2    0.76    0.18 
   5  -1   2    0.75    0.23 
  -5  -1  -2    0.74    0.19 
  -5  -1  -2    1.01    0.21 
   5   1   2    0.96    0.25 
   5   1   2    1.87    0.31 
  -5   1  -2    0.62    0.22 
  -6  -1  -2   92.37    2.15 
  -6  -1  -2   96.79    2.26 
   6  -1   2   93.69    2.29 
   6  -1   2   92.56    1.66 
  -6   1  -2   91.59    2.33 
   6   1   2   95.28    2.42 
  -7  -1  -2    5.89    0.49 
  -7  -1  -2    6.85    0.55 
   7  -1   2    6.22    0.31 
   7  -1   2    5.39    0.57 
  -7   1  -2    4.83    0.56 
   7   1   2    6.57    0.70 
   8  -1   2   56.17    1.82 
  -8  -1  -2   52.54    1.68 
  -8  -1  -2   49.68    1.61 
   8  -1   2   51.59    1.22 
  -8   1  -2   50.34    1.79 
   8   1   2   50.94    1.84 
   9  -1   2    4.34    0.35 
   9  -1   2    4.61    0.67 
  -9  -1  -2    5.25    0.61 
  -9  -1  -2    5.15    0.63 
   9   1   2    4.63    0.71 
  -9   1  -2    3.58    0.57 
  10  -1   2   31.73    1.01 
  10  -1   2   29.95    0.90 
 -10  -1  -2   31.15    1.38 
  10  -1   2   31.33    1.49 
 -10  -1  -2   30.83    1.35 
  10   1   2   33.98    1.66 
  11  -1   2    0.30    0.21 
 -11  -1  -2    0.09    0.26 
  11  -1   2    0.14    0.34 
  11   1   2    0.68    0.42 
  12  -1   2   19.37    1.35 
 -12  -1  -2   21.59    1.25 
  12   1   2   22.07    1.50 
 -13  -1  -2    0.31    0.31 
  13  -1   2   -0.15    0.47 
  13   1   2   -0.11    0.38 
 -13   1  -2    0.04    0.32 
 -14  -1  -2    3.57    0.71 
  14   1   2    3.39    0.82 
 -14  -2   2    0.24    0.52 
 -14  -2   2   -0.18    0.21 
  14   2  -2    0.03    0.49 
 -13  -2   2    0.64    0.51 
 -13  -2   2   -0.02    0.22 
  13   2  -2    0.01    0.43 
 -12  -2   2   -0.29    0.15 
 -12  -2   2    0.38    0.43 
 -12  -2   2    0.19    0.23 
  12   2  -2    0.24    0.40 
 -11  -2   2    1.47    0.54 
 -11  -2   2    0.88    0.30 
 -11  -2   2    0.78    0.26 
  11   2  -2    0.49    0.45 
 -10  -2   2   -0.03    0.13 
  10  -2  -2    0.18    0.29 
 -10  -2   2    0.03    0.18 
 -10  -2   2   -0.39    0.26 
  10   2  -2   -0.27    0.25 
  -9  -2   2    0.98    0.29 
   9  -2  -2    0.98    0.22 
   9  -2  -2    0.82    0.34 
  -9  -2   2    1.33    0.50 
  -9  -2   2    0.60    0.21 
   9   2  -2    0.20    0.31 
  -9   2   2    1.27    0.41 
  -8  -2   2    0.07    0.31 
  -8  -2   2    0.20    0.13 
  -8  -2   2   -0.16    0.14 
   8  -2  -2    0.57    0.17 
   8  -2  -2   -0.15    0.18 
  -8   2   2    0.22    0.25 
   8   2  -2    0.21    0.19 
   8   2  -2    0.10    0.27 
  -7  -2   2    0.12    0.24 
  -7  -2   2   -0.03    0.08 
  -7  -2   2    0.03    0.09 
   7  -2  -2    0.09    0.13 
   7  -2  -2   -0.11    0.14 
   7   2  -2   -0.38    0.19 
  -7   2   2   -0.14    0.16 
   7   2  -2    0.09    0.16 
  -6  -2   2    0.14    0.22 
   6  -2  -2    0.39    0.16 
   6  -2  -2   -0.08    0.15 
   6   2  -2   -0.22    0.17 
   6   2  -2    0.03    0.14 
  -6   2   2    0.29    0.21 
   5  -2  -2    4.44    0.40 
   5  -2  -2    4.20    0.37 
  -5  -2   2    4.06    0.62 
  -5   2   2    4.40    0.30 
   5   2  -2    4.43    0.36 
   5   2  -2    4.02    0.46 
  -5   2   2    4.54    0.46 
  -4  -2   2    2.96    0.50 
   4  -2  -2    3.60    0.29 
  -4   2   2    3.80    0.38 
   4   2  -2    3.33    0.30 
  -4   2   2    3.60    0.31 
   4   2  -2    3.40    0.39 
  -3  -2   2   17.06    1.00 
  -3  -2   2   16.73    0.49 
   3   2  -2   16.04    0.86 
  -3   2   2   15.49    0.61 
   3   2  -2   16.02    0.50 
   3   2  -2   15.57    0.63 
  -3   2   2   16.66    0.68 
  -2  -2   2    0.53    0.27 
   2   2  -2    0.24    0.12 
  -2   2   2    0.41    0.13 
  -2   2   2    0.13    0.16 
   2   2  -2    0.54    0.22 
  -1  -2   2    0.27    0.22 
  -1   2   2    0.30    0.19 
   1   2  -2   -0.20    0.16 
   1   2  -2    0.05    0.07 
   0  -2   2    1.89    0.38 
   0   2  -2    1.70    0.38 
   0   2   2    1.43    0.33 
   0   2  -2    2.02    0.12 
   0   2   2    2.00    0.42 
  -1   2  -2    0.89    0.11 
   1   2   2    0.51    0.24 
   1   2   2    0.84    0.27 
  -1   2  -2    0.58    0.27 
  -2  -2  -2    0.72    0.27 
   2   2   2    1.07    0.20 
  -2   2  -2    0.76    0.30 
  -2   2  -2    0.81    0.15 
   2   2   2    1.12    0.12 
   2   2   2    1.10    0.29 
  -3  -2  -2   24.67    1.09 
  -3   2  -2   22.98    0.75 
   3   2   2   23.11    0.68 
   3   2   2   23.70    1.00 
  -3   2  -2   25.02    0.78 
  -3   2  -2   24.55    1.20 
   3   2   2   24.53    0.89 
   4  -2   2    3.51    0.26 
  -4  -2  -2    3.24    0.48 
  -4   2  -2    3.65    0.38 
  -4   2  -2    3.29    0.20 
   4   2   2    3.64    0.42 
   4   2   2    3.58    0.42 
  -5  -2  -2    6.55    0.67 
   5  -2   2    5.29    0.40 
  -5   2  -2    6.29    0.51 
   5   2   2    5.13    0.53 
  -6  -2  -2    0.74    0.12 
   6  -2   2    0.48    0.21 
  -6  -2  -2    0.56    0.11 
  -6  -2  -2    0.89    0.30 
  -6   2  -2    0.50    0.24 
   6   2   2    0.64    0.28 
  -7  -2  -2    0.03    0.12 
   7  -2   2    0.07    0.19 
  -7  -2  -2    0.22    0.14 
  -7  -2  -2    0.59    0.26 
  -7   2  -2    0.16    0.22 
   7   2   2   -0.07    0.21 
  -8  -2  -2    0.41    0.19 
  -8  -2  -2    1.11    0.36 
  -8  -2  -2    0.63    0.21 
   8  -2   2    0.05    0.14 
  -8   2  -2    0.47    0.28 
   8   2   2    0.76    0.33 
   9  -2   2    2.02    0.45 
  -9  -2  -2    1.87    0.37 
  -9  -2  -2    2.73    0.39 
  -9  -2  -2    3.34    0.58 
   9   2   2    1.78    0.46 
  -9   2  -2    1.88    0.45 
 -10  -2  -2    4.64    0.58 
  10  -2   2    4.87    0.69 
 -10  -2  -2    5.92    0.78 
 -10  -2  -2    4.17    0.52 
  10   2   2    5.43    0.85 
 -11  -2  -2    1.02    0.36 
 -11  -2  -2    1.47    0.47 
 -11  -2  -2    1.56    0.38 
  11   2   2    1.48    0.58 
 -12  -2  -2    0.37    0.36 
 -12  -2  -2    0.28    0.25 
  12   2   2    0.24    0.43 
 -13  -2  -2    0.41    0.28 
 -13  -2  -2    0.92    0.47 
  13   2   2   -0.35    0.43 
 -14  -2  -2   -0.17    0.21 
  14   2   2   -0.03    0.46 
 -12  -3   2    0.59    0.54 
  12   3  -2    0.53    0.49 
 -11  -3   2    1.18    0.60 
  11   3  -2    1.05    0.50 
 -10  -3   2    4.35    0.93 
  10   3  -2    3.11    0.67 
  -9  -3   2    6.35    1.04 
   9   3  -2    7.04    0.86 
  -8  -3   2    9.44    1.25 
   8   3  -2    9.75    0.85 
  -7  -3   2    6.08    0.95 
  -7   3   2    5.97    0.33 
   7   3  -2    5.26    0.64 
  -7   3   2    4.52    0.59 
  -6  -3   2    5.43    0.86 
   6   3  -2    4.83    0.58 
  -6   3   2    5.56    0.37 
   6   3  -2    6.73    0.75 
  -6   3   2    5.29    0.56 
  -5  -3   2    5.21    0.83 
  -5   3   2    4.61    0.41 
  -5   3   2    4.54    0.48 
   5   3  -2    4.99    0.61 
   5   3  -2    3.86    0.48 
  -4  -3   2   19.98    1.35 
  -4   3   2   19.52    0.88 
  -4   3   2   21.23    0.82 
   4   3  -2   20.44    0.86 
   4   3  -2   20.23    1.17 
  -3  -3   2    9.68    1.11 
   3   3  -2    8.99    0.51 
  -3   3   2    9.27    0.68 
  -3   3   2    8.87    0.48 
   3   3  -2    8.50    0.89 
  -2  -3   2   44.07    1.96 
   2   3  -2   43.91    1.07 
  -2   3   2   41.75    1.07 
  -2   3   2   44.91    1.59 
  -2   3   2   43.72    1.93 
   2   3  -2   43.32    1.79 
  -1   3   2    9.52    0.41 
   1   3  -2    9.14    0.35 
  -1   3   2    8.46    0.94 
  -1   3   2    9.05    0.75 
   1   3  -2   10.23    1.04 
   0   3   2   28.70    1.36 
   0   3   2   28.52    1.47 
   0   3  -2   27.85    1.47 
   1   3   2    4.23    0.66 
   1   3   2    4.66    0.71 
  -1   3  -2    4.46    0.21 
  -1   3  -2    4.18    0.71 
   1   3   2    4.81    0.34 
   2   3   2   37.16    1.09 
   2   3   2   38.53    1.65 
   2   3   2   38.01    1.69 
  -2   3  -2   36.51    0.90 
  -2   3  -2   36.15    1.74 
  -3   3  -2    1.71    0.48 
   3   3   2    2.23    0.49 
  -3   3  -2    2.19    0.27 
   3   3   2    1.92    0.31 
  -3   3  -2    2.17    0.39 
  -4  -3  -2   28.52    1.47 
   4   3   2   27.54    1.07 
  -4   3  -2   26.60    0.94 
   4   3   2   25.99    1.29 
  -4   3  -2   25.74    0.93 
  -5  -3  -2    1.54    0.46 
   5   3   2    2.10    0.44 
  -5   3  -2    1.53    0.22 
  -5   3  -2    1.80    0.35 
   5   3   2    1.88    0.38 
  -6  -3  -2   11.79    1.00 
   6   3   2   10.78    0.80 
  -6   3  -2   10.67    0.73 
   7  -3   2   -0.18    0.14 
  -7  -3  -2    0.88    0.40 
  -7   3  -2    0.06    0.25 
   7   3   2   -0.22    0.24 
  -8  -3  -2   17.68    1.27 
   8   3   2   19.48    1.19 
  -9  -3  -2    0.61    0.36 
   9   3   2    0.46    0.39 
 -10  -3  -2    6.16    0.91 
  10   3   2    4.90    0.79 
 -11  -3  -2   -0.05    0.37 
  11   3   2   -0.09    0.35 
  12   3   2    1.49    0.60 
 -10  -4   2    1.81    0.74 
  10   4  -2    3.27    0.70 
  -9  -4   2    4.10    1.05 
   9   4  -2    3.83    0.68 
  -8  -4   2    1.79    0.69 
   8   4  -2    1.74    0.48 
  -7  -4   2   12.88    1.60 
   7   4  -2   15.71    1.01 
  -6  -4   2    1.86    0.70 
   6   4  -2    2.87    0.50 
  -5  -4   2   19.93    1.60 
   5   4  -2   22.90    1.04 
  -5   4   2   23.95    1.03 
  -4  -4   2    7.68    1.13 
  -4   4   2    9.03    0.57 
  -4   4   2    9.79    0.75 
   4   4  -2    8.49    0.59 
  -3   4   2   30.21    0.96 
   3   4  -2   29.34    0.98 
  -3   4   2   29.18    1.39 
   2   4  -2    3.62    0.31 
  -2   4   2    4.31    0.71 
  -2   4   2    4.04    0.33 
  -1   4   2   35.79    1.71 
  -1   4   2   36.66    0.95 
   1   4  -2   37.22    0.83 
   0   4   2    1.75    0.55 
   0   4   2    1.82    0.23 
   1   4   2   41.82    1.96 
   1   4   2   36.94    1.06 
  -1   4  -2   40.91    1.81 
   2   4   2    3.25    0.74 
  -2   4  -2    3.00    0.61 
  -2   4  -2    2.95    0.24 
   2   4   2    3.35    0.37 
  -3   4  -2   38.78    1.07 
   3   4   2   40.53    1.29 
   3   4   2   44.17    2.17 
  -3   4  -2   40.00    1.59 
  -4   4  -2    1.03    0.32 
   4   4   2    1.53    0.59 
   4   4   2    1.22    0.31 
  -4   4  -2    1.46    0.28 
   5   4   2   35.12    2.06 
   5   4   2   36.04    1.39 
   6   4   2    2.35    0.46 
  -7  -4  -2   21.75    1.59 
   7   4   2   22.66    1.25 
  -8  -4  -2    2.02    0.68 
   8   4   2    1.75    0.49 
  -9  -4  -2    8.37    1.19 
   9   4   2    9.41    1.08 
 -10  -4  -2    0.75    0.55 
  10   4   2    0.26    0.36 
   5   5  -2    0.42    0.29 
   4   5  -2    7.47    0.56 
   3   5  -2    0.43    0.19 
   2   5  -2   13.80    1.66 
  -2   5   2   12.27    1.13 
  -1   5   2    0.81    0.49 
   1   5  -2    1.06    0.57 
   0   5  -2   11.22    1.36 
   0   5   2   10.79    1.31 
   1   5   2    2.63    0.78 
  -1   5  -2    0.91    0.54 
   1   5   2    1.52    0.21 
   2   5   2    8.70    0.50 
  -2   5  -2    9.65    1.74 
   2   5   2    7.65    1.25 
   3   5   2    2.02    0.76 
   3   5   2    1.66    0.31 
   4   5   2    6.86    0.60 
   4   5   2    6.73    1.24 
   5   5   2    1.09    0.37 
   5   5   2    1.26    0.70 
  15   0  -3   -0.56    0.45 
 -15   0   3   -0.19    0.34 
  14   0  -3   -0.13    0.42 
  13   0  -3   -0.10    0.39 
  12   0  -3   -0.44    0.30 
  11   0  -3    0.13    0.32 
  10   0  -3   -0.40    0.23 
 -10   0   3    0.33    0.27 
   9   0  -3   -0.06    0.23 
  -9   0   3    0.00    0.18 
   8   0  -3   -0.03    0.20 
  -8   0   3    0.07    0.15 
  -7   0   3   -0.11    0.17 
  -7   0   3   -0.08    0.13 
   7   0  -3   -0.04    0.21 
   6   0  -3   -0.07    0.11 
  -6   0   3    0.12    0.14 
  -6   0   3   -0.19    0.13 
   6   0  -3   -0.23    0.14 
  -5   0   3   -0.12    0.08 
   5   0  -3   -0.10    0.09 
  -5   0   3   -0.17    0.11 
   5   0  -3   -0.17    0.12 
   4   0  -3   -0.01    0.15 
  -4   0   3   -0.07    0.12 
  -4   0   3   -0.08    0.10 
   4   0  -3   -0.03    0.10 
  -3   0   3   -0.13    0.12 
   3   0  -3   -0.22    0.10 
   3   0  -3   -0.25    0.09 
  -3   0   3   -0.16    0.10 
   2   0  -3   -0.36    0.08 
  -2   0   3   -0.20    0.08 
   2   0  -3   -0.24    0.08 
  -2   0   3    0.05    0.11 
   2   0  -3   -0.05    0.10 
  -1   0   3   -0.53    0.05 
   1   0  -3   -0.26    0.08 
   1   0  -3    0.06    0.12 
   1   0  -3   -0.11    0.11 
  -1   0   3   -0.48    0.06 
  -1   0   3   -0.33    0.08 
   0   0   3   -0.43    0.08 
   0   0  -3   -0.26    0.09 
   0   0   3    0.12    0.13 
   1   0   3   -0.12    0.09 
   1   0   3   -0.14    0.07 
  -1   0  -3   -0.14    0.06 
  -1   0  -3   -0.15    0.07 
   1   0   3   -0.09    0.05 
   1   0   3   -0.07    0.08 
   2   0   3   -0.11    0.08 
  -2   0  -3   -0.09    0.08 
  -2   0  -3    0.06    0.09 
   2   0   3   -0.06    0.08 
   2   0   3    0.41    0.14 
  -2   0  -3    0.10    0.11 
  -3   0  -3    0.52    0.17 
   3   0   3   -0.09    0.12 
   3   0   3   -0.15    0.10 
  -3   0  -3   -0.16    0.08 
   3   0   3   -0.06    0.10 
  -4   0  -3    0.06    0.10 
   4   0   3    0.17    0.13 
   4   0   3    0.26    0.16 
  -4   0  -3    0.08    0.12 
   5   0   3    0.18    0.13 
   5   0   3    0.09    0.15 
  -5   0  -3   -0.04    0.10 
  -5   0  -3    0.36    0.19 
   6   0   3   -0.08    0.14 
  -6   0  -3   -0.15    0.13 
  -6   0  -3    0.11    0.14 
  -7   0  -3   -0.09    0.12 
   7   0   3   -0.05    0.18 
  -7   0  -3    0.00    0.17 
  -8   0  -3   -0.28    0.14 
   8   0   3    0.22    0.25 
   9   0   3   -0.38    0.23 
  -9   0  -3   -0.23    0.18 
  -9   0  -3    0.25    0.22 
 -10   0  -3    0.07    0.22 
  10   0   3   -0.11    0.30 
 -10   0  -3   -0.02    0.27 
  11   0   3    0.31    0.28 
  11   0   3   -0.15    0.30 
 -11   0  -3    0.20    0.27 
 -12   0  -3   -0.05    0.27 
  12   0   3    0.04    0.32 
  12   0   3    0.17    0.37 
 -13   0  -3    0.18    0.30 
  13   0   3   -0.39    0.28 
  13   0   3    0.08    0.40 
 -14   0  -3    0.35    0.36 
  14   0   3   -0.47    0.40 
  15   0   3   -0.54    0.45 
 -15   0  -3   -0.32    0.36 
 -14  -1   3    0.48    0.31 
  14   1  -3   -0.17    0.44 
 -13  -1   3    2.33    0.53 
  13  -1  -3    2.20    0.62 
  13   1  -3    2.03    0.65 
  12  -1  -3    0.13    0.37 
 -12  -1   3   -0.07    0.23 
  12   1  -3   -0.07    0.37 
 -11  -1   3   12.94    0.90 
  11  -1  -3   12.19    1.02 
  11   1  -3   13.52    1.11 
  10  -1  -3    0.59    0.24 
 -10  -1   3    0.30    0.22 
  10  -1  -3    0.15    0.28 
 -10  -1   3    0.18    0.23 
  10   1  -3    0.59    0.39 
   9  -1  -3   35.12    1.21 
  -9  -1   3   36.11    1.35 
  -9  -1   3   37.65    1.40 
   9  -1  -3   37.50    1.55 
   9   1  -3   36.01    1.57 
  -9   1   3   37.18    1.60 
  -8  -1   3    0.52    0.22 
   8  -1  -3    0.72    0.23 
   8  -1  -3    0.34    0.26 
   8   1  -3    0.77    0.27 
  -8   1   3    0.25    0.24 
   8   1  -3    0.19    0.27 
   7  -1  -3   72.80    1.78 
   7  -1  -3   77.01    2.10 
  -7  -1   3   73.60    1.91 
   7   1  -3   72.72    2.12 
  -7   1   3   73.84    2.09 
   7   1  -3   74.80    2.01 
   6  -1  -3    0.13    0.12 
  -6  -1   3    0.18    0.13 
   6  -1  -3    0.25    0.21 
  -6   1   3    0.02    0.16 
   6   1  -3    0.26    0.15 
   6   1  -3    0.20    0.22 
   5  -1  -3  169.46    3.15 
  -5  -1   3  162.61    3.32 
   5  -1  -3  164.33    3.31 
  -5  -1   3  160.24    3.13 
   5   1  -3  161.58    3.36 
   5   1  -3  161.96    3.24 
  -5   1   3  161.67    3.32 
  -5   1   3  156.70    3.19 
  -4  -1   3    2.77    0.31 
   4  -1  -3    3.22    0.30 
  -4  -1   3    3.00    0.25 
   4  -1  -3    2.96    0.33 
  -4   1   3    2.63    0.32 
   4   1  -3    2.43    0.27 
  -4   1   3    3.34    0.26 
  -4   1   3    3.19    0.29 
   4   1  -3    3.09    0.35 
  -3  -1   3  176.07    3.05 
  -3  -1   3  177.33    3.57 
   3  -1  -3  175.32    3.30 
  -3  -1   3  178.97    3.26 
  -3   1   3  172.09    3.16 
   3   1  -3  170.33    3.27 
  -3   1   3  172.58    3.27 
  -3   1   3  175.62    3.14 
   3   1  -3  174.79    3.18 
   2  -1  -3   22.02    0.77 
  -2  -1   3   22.91    0.47 
  -2  -1   3   23.21    0.67 
  -2  -1   3   22.58    0.46 
   2   1  -3   22.99    0.69 
  -2   1   3   21.39    0.61 
  -2   1   3   23.28    0.71 
   2   1  -3   22.29    0.61 
  -2   1   3   22.48    0.70 
  -1  -1   3  197.93    3.90 
  -1  -1   3  207.71    3.45 
   1  -1  -3  206.59    3.82 
   1   1  -3  202.67    3.50 
   1   1  -3  205.42    3.38 
  -1   1   3  199.36    3.72 
  -1   1   3  205.32    3.42 
   1   1  -3  201.46    3.82 
   0  -1   3   15.76    0.70 
   0  -1  -3   15.85    0.68 
   0  -1   3   15.76    0.42 
   0  -1   3   15.28    0.45 
   0   1  -3   14.69    0.65 
   0   1   3   15.40    0.43 
   0   1  -3   15.37    0.47 
   0   1  -3   15.86    0.34 
   1  -1   3  276.49    4.57 
  -1  -1  -3  278.38    4.40 
  -1  -1  -3  278.74    4.41 
   1  -1   3  272.97    5.01 
  -1   1  -3  272.14    4.98 
   1   1   3  268.64    4.78 
  -1   1  -3  274.78    4.66 
   1   1   3  280.26    4.59 
   1   1   3  266.79    5.00 
  -2  -1  -3   77.28    1.47 
  -2  -1  -3   77.30    1.49 
   2  -1   3   75.58    1.57 
  -2  -1  -3   77.78    1.65 
  -2   1  -3   76.80    1.64 
   2   1   3   76.07    1.92 
   2   1   3   80.41    1.61 
   2   1   3   77.89    1.74 
  -2   1  -3   75.54    1.39 
   2   1   3   75.77    1.61 
  -2   1  -3   80.87    1.89 
  -3  -1  -3  105.60    2.01 
  -3  -1  -3  104.19    2.24 
  -3  -1  -3  103.46    2.08 
  -3  -1  -3  106.17    2.06 
   3   1   3  102.00    2.26 
  -3   1  -3   98.28    1.75 
   3   1   3  100.99    2.12 
  -3   1  -3  102.15    2.15 
   3   1   3  102.39    1.96 
   3   1   3  100.60    2.41 
  -4  -1  -3   40.20    1.26 
  -4  -1  -3   40.35    1.10 
   4  -1   3   40.11    1.16 
  -4  -1  -3   42.63    1.10 
  -4  -1  -3   40.47    1.14 
  -4   1  -3   38.48    1.19 
   4   1   3   42.61    1.31 
   4   1   3   43.43    1.19 
  -5  -1  -3   60.12    1.59 
  -5  -1  -3   60.53    1.52 
  -5  -1  -3   58.51    1.69 
  -5  -1  -3   61.25    1.51 
   5  -1   3   60.39    1.62 
   5   1   3   57.94    1.73 
   5   1   3   58.64    1.58 
  -5   1  -3   61.25    1.68 
  -6  -1  -3   29.31    1.00 
   6  -1   3   27.06    0.61 
  -6  -1  -3   28.94    1.08 
  -6  -1  -3   28.00    1.01 
   6  -1   3   28.45    1.11 
   6   1   3   28.40    1.20 
  -6   1  -3   28.17    1.14 
  -7  -1  -3   34.78    1.29 
  -7  -1  -3   35.62    1.24 
   7  -1   3   34.58    1.34 
   7  -1   3   35.90    0.84 
  -7  -1  -3   37.47    1.21 
   7   1   3   35.99    1.45 
  -7   1  -3   36.33    1.40 
   8  -1   3   22.69    1.14 
   8  -1   3   23.15    0.70 
  -8  -1  -3   24.96    1.13 
  -8  -1  -3   24.83    1.08 
   8   1   3   25.79    1.28 
  -8   1  -3   24.57    1.22 
  -9  -1  -3   13.45    0.87 
  -9  -1  -3   11.86    0.79 
   9  -1   3   12.20    0.53 
   9  -1   3   10.55    0.86 
  -9   1  -3   11.40    0.92 
   9   1   3   11.24    0.95 
  10  -1   3   15.76    1.08 
 -10  -1  -3   13.70    0.94 
 -10  -1  -3   12.01    0.87 
  10  -1   3   13.94    0.60 
  10   1   3   12.90    1.08 
  11  -1   3    9.26    1.02 
  11  -1   3    9.48    0.54 
 -11  -1  -3   10.16    0.86 
 -11   1  -3    9.72    0.86 
  11   1   3   10.68    1.16 
  12  -1   3    5.39    0.85 
 -12  -1  -3    6.89    0.81 
  12   1   3    7.29    1.00 
 -12   1  -3    6.17    0.78 
 -13  -1  -3    4.75    0.77 
 -13   1  -3    3.61    0.78 
  13   1   3    5.81    0.96 
 -14  -1  -3    1.15    0.41 
  14   1   3    2.28    0.72 
  14   1   3    1.57    0.60 
 -14  -2   3    3.32    0.92 
 -14  -2   3    3.45    0.58 
  14   2  -3    1.92    0.68 
 -13  -2   3   -0.05    0.21 
 -13  -2   3    0.02    0.43 
  13   2  -3   -0.01    0.44 
 -12  -2   3   10.71    0.77 
 -12  -2   3   12.91    0.91 
 -12  -2   3   11.76    1.45 
  12   2  -3   13.87    1.24 
 -11  -2   3    0.15    0.19 
 -11  -2   3    0.21    0.19 
 -11  -2   3    0.18    0.38 
  11   2  -3   -0.32    0.31 
 -10  -2   3   30.02    1.83 
  10  -2  -3   33.65    1.49 
 -10  -2   3   35.05    1.22 
 -10  -2   3   33.70    1.31 
  10   2  -3   35.32    1.67 
  -9  -2   3    0.14    0.19 
  -9  -2   3    0.01    0.30 
   9  -2  -3   -0.29    0.23 
  -9  -2   3    0.09    0.12 
   9  -2  -3    0.19    0.18 
  -9   2   3    0.09    0.27 
   9   2  -3   -0.28    0.27 
   9   2  -3   -0.12    0.18 
  -8  -2   3   50.61    1.29 
  -8  -2   3   47.96    1.37 
   8  -2  -3   52.76    1.47 
  -8  -2   3   47.66    2.13 
   8  -2  -3   48.89    1.64 
   8   2  -3   49.19    1.65 
  -8   2   3   52.63    1.82 
   8   2  -3   45.57    1.75 
  -7  -2   3    0.48    0.13 
   7  -2  -3    0.08    0.12 
  -7  -2   3    0.19    0.12 
   7  -2  -3    0.32    0.18 
  -7  -2   3    0.21    0.25 
   7   2  -3    0.11    0.17 
   7   2  -3    0.00    0.23 
  -7   2   3    0.30    0.24 
  -6  -2   3  115.38    3.30 
   6  -2  -3  122.34    2.63 
   6  -2  -3  114.60    2.59 
  -6   2   3  120.60    2.36 
  -6   2   3  117.99    2.78 
   6   2  -3  121.62    2.68 
   6   2  -3  118.23    2.83 
   5  -2  -3    5.35    0.45 
  -5  -2   3    6.18    0.78 
   5  -2  -3    5.57    0.42 
  -5   2   3    5.31    0.45 
   5   2  -3    4.14    0.45 
  -5   2   3    5.59    0.36 
   5   2  -3    5.56    0.42 
  -4  -2   3  251.41    5.43 
   4  -2  -3  257.79    4.82 
  -4   2   3  247.89    4.65 
  -4   2   3  252.30    4.53 
   4   2  -3  252.18    4.49 
   4   2  -3  252.00    4.68 
   3  -2  -3   19.77    0.89 
  -3  -2   3   20.18    0.59 
  -3  -2   3   18.74    1.07 
  -3   2   3   20.76    0.80 
   3   2  -3   20.17    0.60 
   3   2  -3   19.01    0.72 
   3   2  -3   20.08    0.96 
  -3   2   3   19.77    0.72 
  -2  -2   3  257.51    5.41 
   2   2  -3  259.86    4.51 
   2   2  -3  258.46    5.20 
  -2   2   3  265.00    4.56 
  -2   2   3  259.09    4.91 
  -1  -2   3   12.70    0.85 
   1   2  -3   10.90    0.41 
  -1   2   3   11.27    0.68 
   1   2  -3   12.32    0.79 
   0  -2   3  297.90    5.91 
   0   2  -3  286.17    5.77 
   0   2  -3  293.63    4.82 
   0   2   3  288.63    5.71 
   0   2   3  292.36    5.62 
  -1   2  -3   51.59    1.74 
   1   2   3   50.33    1.65 
  -1   2  -3   48.66    1.09 
   1   2   3   49.21    1.60 
   2   2   3  243.33    4.45 
   2   2   3  238.94    5.00 
  -2   2  -3  242.88    5.08 
   2   2   3  242.81    4.79 
  -2   2  -3  242.68    4.22 
  -3  -2  -3   74.98    2.05 
   3  -2   3   72.48    1.30 
  -3   2  -3   71.95    1.66 
   3   2   3   73.82    1.84 
  -3   2  -3   77.73    2.30 
   3   2   3   73.36    1.94 
   4  -2   3  116.65    2.27 
  -4  -2  -3  121.22    2.87 
  -4   2  -3  115.67    2.08 
  -4   2  -3  123.27    2.58 
  -4   2  -3  123.50    3.18 
   4   2   3  121.71    2.68 
  -4   2  -3  119.31    2.01 
   4   2   3  120.82    2.73 
  -5  -2  -3   34.92    1.35 
   5  -2   3   36.28    1.05 
   5   2   3   35.62    1.33 
  -5   2  -3   36.96    1.24 
  -6  -2  -3   89.48    2.42 
  -6  -2  -3   89.09    1.75 
  -6  -2  -3   89.25    1.71 
   6  -2   3   84.44    2.06 
  -6   2  -3   89.22    2.31 
   6   2   3   91.23    2.45 
  -7  -2  -3   27.96    0.94 
   7  -2   3   27.03    1.08 
  -7  -2  -3   28.82    1.28 
  -7  -2  -3   28.28    0.88 
  -7   2  -3   27.51    1.22 
   7   2   3   28.97    1.33 
  -8  -2  -3   51.57    1.81 
  -8  -2  -3   50.94    1.41 
  -8  -2  -3   46.84    1.47 
   8   2   3   51.54    1.93 
  -8   2  -3   48.67    1.79 
   9  -2   3   12.94    0.89 
  -9  -2  -3   11.67    0.75 
  -9  -2  -3   12.41    0.91 
  -9  -2  -3   13.91    0.73 
   9   2   3   13.10    1.06 
  -9   2  -3   12.75    1.03 
 -10  -2  -3   19.44    1.05 
  10  -2   3   22.39    1.50 
 -10  -2  -3   22.43    1.26 
 -10  -2  -3   22.77    1.03 
  10   2   3   22.46    1.43 
 -11  -2  -3    4.63    0.73 
 -11  -2  -3    3.37    0.54 
 -11  -2  -3    3.43    0.51 
  11   2   3    4.53    0.84 
 -12  -2  -3    5.37    0.73 
 -12  -2  -3    5.83    0.83 
  12   2   3    5.85    0.95 
 -13  -2  -3    3.60    0.62 
  13   2   3    5.01    0.96 
 -12  -3   3    0.04    0.52 
  12   3  -3   -0.17    0.41 
 -11  -3   3    5.57    1.09 
  11   3  -3    4.26    0.79 
 -10  -3   3    0.35    0.44 
  10   3  -3   -0.33    0.29 
  -9  -3   3   13.64    1.55 
   9   3  -3   14.27    1.06 
  -8  -3   3    0.22    0.40 
   8   3  -3   -0.05    0.26 
  -7  -3   3   28.84    1.79 
   7   3  -3   28.92    1.31 
  -7   3   3   29.16    0.90 
  -6  -3   3    0.11    0.32 
  -6   3   3    0.00    0.14 
  -6   3   3    0.23    0.21 
   6   3  -3   -0.15    0.19 
  -5  -3   3   49.62    2.23 
   5   3  -3   49.61    1.55 
  -5   3   3   48.26    1.40 
   5   3  -3   51.81    1.55 
  -5   3   3   49.62    1.51 
  -4  -3   3    2.04    0.58 
  -4   3   3    1.47    0.32 
  -4   3   3    1.75    0.29 
   4   3  -3    2.00    0.57 
   4   3  -3    2.60    0.37 
  -3  -3   3   61.83    2.41 
  -3   3   3   60.87    1.53 
  -3   3   3   62.70    1.88 
   3   3  -3   61.36    2.17 
   3   3  -3   62.33    1.54 
  -2  -3   3    8.97    1.02 
  -2   3   3    7.93    0.70 
   2   3  -3    8.11    0.43 
   2   3  -3    9.00    0.94 
  -2   3   3    8.40    0.98 
  -2   3   3    8.46    0.46 
  -1  -3   3   86.70    2.88 
  -1   3   3   84.71    2.78 
   1   3  -3   89.30    2.79 
  -1   3   3   86.36    2.51 
   1   3  -3   87.43    1.70 
   0   3   3    9.28    0.80 
   0   3  -3    9.13    0.36 
   0   3   3   10.46    0.93 
   0   3  -3    9.36    1.01 
   1   3   3   98.02    2.90 
  -1   3  -3   94.44    1.84 
  -1   3  -3   98.94    3.03 
   1   3   3   98.04    2.85 
   2   3   3   13.38    0.98 
  -2   3  -3   12.86    0.51 
  -2   3  -3   12.81    1.05 
   2   3   3   12.77    0.65 
   2   3   3   13.96    1.05 
   3   3   3   63.57    2.15 
   3   3   3   63.42    1.74 
  -3   3  -3   66.03    2.46 
  -3   3  -3   64.02    1.53 
   3   3   3   65.61    2.39 
   4   3   3   11.04    0.71 
  -4   3  -3    9.73    0.58 
   4   3   3   11.36    1.01 
   4   3   3   10.51    0.82 
  -4   3  -3    9.69    0.57 
  -5  -3  -3   39.97    1.73 
   5   3   3   40.63    1.55 
   5   3   3   39.69    1.48 
  -5   3  -3   40.85    1.35 
  -5   3  -3   39.11    0.89 
  -6  -3  -3    4.29    0.68 
  -6   3  -3    2.87    0.45 
   6   3   3    2.79    0.50 
   7  -3   3   24.20    0.81 
  -7  -3  -3   24.41    1.40 
   7   3   3   25.33    1.30 
  -8  -3  -3    0.52    0.36 
   8   3   3    0.39    0.31 
  -9  -3  -3   10.68    1.14 
   9   3   3   11.40    1.15 
 -10  -3  -3    1.39    0.48 
  10   3   3    1.77    0.57 
 -11  -3  -3    6.22    0.93 
  11   3   3    5.83    0.97 
  12   3   3    0.36    0.47 
  12   3   3    0.31    0.61 
  10   4  -3    0.59    0.37 
  -9  -4   3   -0.03    0.50 
   9   4  -3    0.01    0.30 
  -8  -4   3    1.34    0.67 
   8   4  -3    0.31    0.32 
  -7  -4   3    0.87    0.48 
   7   4  -3   -0.19    0.23 
  -6  -4   3    0.88    0.52 
   6   4  -3    0.97    0.33 
  -5  -4   3   -0.06    0.36 
  -5   4   3    0.19    0.25 
   5   4  -3   -0.10    0.20 
  -4  -4   3    2.58    0.71 
  -4   4   3    1.50    0.40 
  -4   4   3    1.45    0.39 
   4   4  -3    1.39    0.32 
  -3  -4   3    0.00    0.30 
  -3   4   3    0.10    0.16 
  -3   4   3    0.08    0.28 
   3   4  -3    0.03    0.17 
   2   4  -3    1.64    0.26 
  -2   4   3    1.90    0.54 
  -2   4   3    2.00    0.28 
  -1   4   3    0.02    0.13 
   1   4  -3   -0.12    0.11 
  -1   4   3   -0.02    0.33 
   0   4   3    1.85    0.57 
   1   4   3   -0.18    0.13 
   1   4   3    0.07    0.35 
   2   4   3    2.16    0.33 
   2   4   3    2.17    0.62 
  -2   4  -3    3.04    0.61 
   3   4   3   -0.10    0.36 
  -3   4  -3   -0.07    0.14 
   3   4   3    0.03    0.18 
  -3   4  -3   -0.39    0.23 
  -4   4  -3    1.95    0.42 
  -4   4  -3    1.33    0.28 
   4   4   3    1.28    0.61 
   4   4   3    1.19    0.32 
   5   4   3    0.40    0.46 
   5   4   3    0.32    0.24 
   6   4   3    0.36    0.45 
   6   4   3   -0.04    0.22 
   7   4   3    1.10    0.64 
   7   4   3   -0.09    0.26 
   8   4   3    0.64    0.57 
   8   4   3    0.97    0.41 
  -9  -4  -3   -0.11    0.38 
   9   4   3   -0.41    0.52 
   9   4   3    0.40    0.36 
   5   5  -3    2.08    0.42 
   4   5  -3    0.01    0.21 
  -3   5   3    2.72    0.68 
   3   5  -3    2.53    0.35 
  -2   5   3    1.05    0.50 
  -1   5   3    2.63    0.72 
  -1   5   3    2.33    0.28 
   0   5   3    1.05    0.22 
   0   5   3    0.99    0.57 
   0   5  -3    1.21    0.58 
  -1   5  -3    3.81    0.84 
   1   5   3    4.11    0.39 
   1   5   3    5.42    1.04 
   2   5   3    1.34    0.65 
   2   5   3    0.99    0.25 
   3   5   3    4.57    0.50 
   3   5   3    3.66    0.96 
   4   5   3    1.04    0.71 
   4   5   3    0.06    0.24 
   5   5   3    2.83    0.86 
   5   5   3    1.95    0.40 
  15   0  -4    4.02    0.89 
 -15   0   4    4.48    0.79 
  14   0  -4    0.86    0.57 
  13   0  -4   10.62    1.22 
  12   0  -4   24.67    1.52 
  11   0  -4   35.74    1.72 
  10   0  -4   45.80    1.87 
 -10   0   4   47.62    1.76 
  -9   0   4   69.04    2.10 
   9   0  -4   70.21    2.26 
   8   0  -4   24.70    1.20 
  -8   0   4   25.80    1.12 
   7   0  -4  119.61    2.75 
   7   0  -4  111.60    2.82 
  -7   0   4  115.06    2.71 
  -7   0   4  114.49    2.88 
   6   0  -4  102.85    2.53 
  -6   0   4  103.73    2.39 
   6   0  -4  103.76    2.41 
  -6   0   4   98.83    2.49 
  -5   0   4  154.08    3.14 
   5   0  -4  152.56    3.15 
   5   0  -4  157.56    3.28 
  -5   0   4  155.98    3.25 
  -4   0   4  346.88    5.99 
   4   0  -4  343.65    5.99 
   4   0  -4  338.44    6.08 
  -4   0   4  345.88    6.08 
   4   0  -4  331.86    5.88 
  -3   0   4  307.11    5.29 
   3   0  -4  305.90    5.31 
  -3   0   4  309.59    5.39 
   3   0  -4  306.36    5.39 
   3   0  -4  292.19    5.23 
   2   0  -4  220.52    3.97 
  -2   0   4  220.93    3.95 
   2   0  -4  231.50    4.06 
  -2   0   4  227.00    4.04 
   2   0  -4  225.04    3.96 
  -2   0   4  226.75    3.98 
   1   0  -4  440.57    7.41 
   1   0  -4  442.22    7.40 
   1   0  -4  463.67    7.50 
  -1   0   4  452.65    7.43 
  -1   0   4  447.85    7.47 
   0   0  -4  338.73    5.68 
   0   0   4  342.25    5.68 
   0   0   4  339.69    5.69 
   0   0  -4  333.72    5.68 
  -1   0  -4  174.75    3.19 
   1   0   4  178.42    3.18 
   1   0   4  179.14    3.27 
   1   0   4  170.24    3.15 
  -1   0  -4  175.13    3.18 
   1   0   4  175.73    2.92 
  -2   0  -4  346.67    5.91 
   2   0   4  329.21    5.75 
   2   0   4  347.52    5.92 
  -2   0  -4  325.14    5.78 
   2   0   4  339.63    5.77 
  -2   0  -4  339.04    5.39 
  -2   0  -4  333.86    5.79 
   3   0   4  168.71    3.24 
  -3   0  -4  168.85    3.28 
  -3   0  -4  173.03    3.40 
   3   0   4  174.40    3.40 
   3   0   4  175.49    3.25 
  -3   0  -4  170.17    3.28 
  -4   0  -4  384.20    6.77 
   4   0   4  374.60    6.54 
  -4   0  -4  374.62    6.61 
   4   0   4  376.09    6.76 
   5   0   4  101.51    2.27 
   5   0   4  101.42    2.47 
  -5   0  -4   99.64    2.32 
  -5   0  -4  107.23    2.51 
  -6   0  -4  247.31    4.77 
  -6   0  -4  243.68    4.94 
   6   0   4  243.29    4.66 
   6   0   4  249.27    4.96 
  -7   0  -4   19.36    1.05 
   7   0   4   19.06    1.02 
   7   0   4   17.73    0.86 
  -7   0  -4   18.59    0.91 
  -8   0  -4  119.99    2.92 
   8   0   4  117.21    3.08 
   8   0   4  114.45    2.78 
  -9   0  -4    7.61    0.79 
   9   0   4    8.23    0.87 
   9   0   4    8.48    0.67 
 -10   0  -4   64.50    2.17 
  10   0   4   66.45    2.06 
  10   0   4   65.51    2.36 
 -10   0  -4   64.55    2.16 
  11   0   4    3.89    0.72 
  11   0   4    4.33    0.62 
 -11   0  -4    4.53    0.70 
  12   0   4   25.86    1.58 
 -12   0  -4   23.95    1.38 
  12   0   4   23.08    1.24 
  13   0   4    2.83    0.59 
 -13   0  -4    1.70    0.52 
  13   0   4    2.00    0.66 
 -14   0  -4    3.88    0.77 
  14   0   4    3.47    0.84 
 -14  -1   4    5.52    0.79 
  14   1  -4    5.76    1.02 
 -13  -1   4    1.52    0.44 
  13  -1  -4    2.81    0.68 
  13   1  -4    1.75    0.63 
  12  -1  -4   16.76    1.26 
 -12  -1   4   17.33    1.10 
  12   1  -4   16.15    1.30 
  11  -1  -4    7.56    0.90 
 -11  -1   4    6.24    0.74 
  11   1  -4    6.33    0.88 
  10  -1  -4    6.66    0.58 
  10  -1  -4    6.70    0.80 
 -10  -1   4    5.50    0.67 
  10   1  -4    5.94    0.81 
  -9  -1   4   22.88    1.08 
   9  -1  -4   25.58    1.29 
   9  -1  -4   23.71    1.02 
   9   1  -4   24.56    1.20 
   9   1  -4   26.29    1.34 
   8  -1  -4   23.79    1.16 
  -8  -1   4   21.60    0.98 
   8  -1  -4   22.83    0.95 
   8   1  -4   22.31    1.06 
  -8   1   4   22.44    1.13 
   8   1  -4   22.40    1.16 
  -7  -1   4   46.39    1.42 
   7  -1  -4   47.07    1.59 
   7  -1  -4   47.75    1.40 
   7   1  -4   46.14    1.62 
  -7   1   4   46.32    1.60 
   7   1  -4   48.11    1.54 
  -6  -1   4  102.59    2.34 
   6  -1  -4  106.47    2.54 
   6  -1  -4  107.92    2.37 
  -6   1   4  106.90    2.56 
   6   1  -4  101.83    2.43 
   5  -1  -4   61.28    1.55 
   5  -1  -4   59.53    1.63 
  -5  -1   4   58.10    1.47 
  -5  -1   4   60.41    1.84 
   5   1  -4   58.80    1.66 
  -5   1   4   59.20    1.64 
   5   1  -4   55.35    1.53 
   4  -1  -4   84.65    1.93 
   4  -1  -4   80.97    1.93 
  -4  -1   4   83.88    1.78 
  -4  -1   4   85.50    1.94 
  -4   1   4   84.30    1.98 
  -4   1   4   83.44    1.86 
   4   1  -4   80.76    1.87 
  -4   1   4   80.92    1.77 
   4   1  -4   82.87    1.98 
   3  -1  -4   85.38    1.94 
  -3  -1   4   82.02    1.67 
   3  -1  -4   83.08    1.86 
  -3  -1   4   84.87    1.84 
  -3  -1   4   85.91    2.11 
   3   1  -4   83.48    1.79 
   3   1  -4   82.58    1.87 
  -3   1   4   82.73    1.77 
  -3   1   4   82.82    1.88 
  -3   1   4   81.15    1.77 
   2  -1  -4   72.32    1.73 
  -2  -1   4   68.83    1.80 
  -2  -1   4   70.34    1.33 
  -2  -1   4   68.74    1.50 
   2  -1  -4   71.63    1.39 
  -2   1   4   68.90    1.57 
   2   1  -4   68.91    1.46 
   2   1  -4   66.83    1.53 
  -2   1   4   67.09    1.46 
  -2   1   4   68.91    1.57 
   1  -1  -4  197.28    3.87 
  -1  -1   4  203.36    3.53 
  -1  -1   4  201.05    3.93 
   1  -1  -4  196.66    3.38 
  -1   1   4  202.29    3.51 
   1   1  -4  203.66    3.82 
   1   1  -4  202.33    3.58 
   1   1  -4  203.09    3.48 
  -1   1   4  201.88    3.77 
   0  -1  -4  146.23    3.05 
   0  -1   4  145.97    2.69 
   0  -1   4  146.66    3.04 
   0  -1  -4  145.87    2.53 
   0  -1   4  150.43    2.65 
   0   1  -4  145.92    2.59 
   0   1   4  150.48    2.66 
   0   1   4  151.03    3.01 
   0   1  -4  143.69    2.95 
   1  -1   4  190.20    3.72 
  -1  -1  -4  189.55    3.82 
   1  -1   4  187.44    3.40 
  -1  -1  -4  195.82    3.28 
  -1   1  -4  190.81    3.28 
  -1   1  -4  188.36    3.47 
  -1   1  -4  196.58    3.32 
   1   1   4  187.22    3.75 
  -1   1  -4  191.24    3.69 
   1   1   4  191.50    3.39 
  -2  -1  -4  129.34    2.37 
   2   1   4  124.34    2.36 
  -2   1  -4  122.77    2.23 
   2   1   4  124.30    2.77 
  -2   1  -4  125.17    2.52 
   2   1   4  128.82    2.46 
  -2   1  -4  128.41    2.70 
  -2   1  -4  125.82    2.33 
   2   1   4  125.28    2.61 
  -3  -1  -4  127.93    2.42 
  -3  -1  -4  130.72    2.54 
   3   1   4  131.47    2.61 
   3   1   4  122.69    2.85 
   3   1   4  128.95    2.76 
  -3   1  -4  129.72    2.65 
  -3   1  -4  125.08    2.26 
  -3   1  -4  128.35    2.77 
   3   1   4  127.43    2.32 
  -4  -1  -4   69.62    1.70 
  -4  -1  -4   69.36    1.54 
   4  -1   4   72.50    1.32 
  -4  -1  -4   69.74    1.85 
   4  -1   4   70.99    1.75 
   4   1   4   68.62    1.97 
   4   1   4   73.13    1.76 
  -4   1  -4   70.16    1.79 
  -4   1  -4   70.53    1.37 
   4   1   4   70.48    1.89 
  -5  -1  -4  135.04    2.63 
   5  -1   4  133.00    2.89 
   5  -1   4  128.08    2.29 
  -5  -1  -4  133.14    2.87 
   5   1   4  131.15    3.14 
   5   1   4  132.39    2.85 
   5   1   4  134.90    3.08 
  -5   1  -4  135.89    2.97 
   6  -1   4   21.48    0.97 
  -6  -1  -4   23.43    0.98 
  -6  -1  -4   22.10    0.91 
   6  -1   4   21.27    0.57 
  -6  -1  -4   22.58    0.82 
  -6   1  -4   23.12    1.03 
   6   1   4   23.13    1.10 
   6   1   4   24.01    1.23 
   6   1   4   22.45    1.12 
   7  -1   4   83.96    2.30 
   7  -1   4   84.82    1.62 
  -7  -1  -4   84.54    2.00 
  -7  -1  -4   84.02    2.25 
  -7  -1  -4   82.17    2.14 
  -7   1  -4   81.88    2.33 
   7   1   4   80.97    2.41 
  -8  -1  -4   11.32    0.77 
   8  -1   4   10.26    0.78 
  -8  -1  -4    9.33    0.59 
   8  -1   4    9.02    0.41 
  -8  -1  -4    8.41    0.65 
   8   1   4   10.02    0.85 
  -8   1  -4    9.36    0.69 
  -8   1  -4    9.59    0.78 
  -9  -1  -4   32.69    1.36 
   9  -1   4   34.27    1.51 
   9  -1   4   33.95    0.94 
  -9  -1  -4   35.62    1.47 
  -9   1  -4   35.56    1.42 
   9   1   4   34.09    1.60 
  -9   1  -4   34.38    1.84 
  10  -1   4    3.49    0.66 
  10  -1   4    4.16    0.34 
 -10  -1  -4    2.71    0.51 
 -10  -1  -4    3.00    0.55 
  10   1   4    3.27    0.66 
 -10   1  -4    4.25    0.63 
  10   1   4    3.27    0.62 
 -11  -1  -4   12.65    0.97 
  11  -1   4   12.86    0.59 
  11  -1   4   13.75    1.11 
  11   1   4   11.25    1.17 
 -11   1  -4   12.42    0.98 
  11   1   4   14.34    1.14 
 -12  -1  -4    0.26    0.31 
  12  -1   4    0.28    0.39 
 -12   1  -4   -0.02    0.31 
  12   1   4    0.35    0.44 
  12   1   4    0.16    0.41 
 -13  -1  -4    5.35    0.82 
  13   1   4    5.81    0.94 
  13   1   4    5.35    0.93 
 -14  -1  -4    0.72    0.39 
  14   1   4    0.38    0.44 
  14   1   4   -0.22    0.39 
 -14  -2   4    0.22    0.26 
 -14  -2   4    0.35    0.60 
  14   2  -4    0.13    0.53 
 -13  -2   4   -0.13    0.41 
 -13  -2   4    0.03    0.22 
  13   2  -4    0.07    0.42 
 -12  -2   4    0.32    0.22 
 -12  -2   4   -0.05    0.38 
 -12  -2   4    0.82    0.28 
  12   2  -4    0.02    0.39 
 -11  -2   4    0.20    0.38 
 -11  -2   4    0.12    0.18 
 -11  -2   4   -0.13    0.18 
  11   2  -4   -0.20    0.31 
 -10  -2   4    0.40    0.41 
 -10  -2   4   -0.05    0.15 
 -10  -2   4    0.32    0.16 
  10  -2  -4    0.25    0.31 
  10   2  -4   -0.03    0.29 
  -9  -2   4    0.42    0.35 
  -9  -2   4    0.07    0.13 
   9  -2  -4   -0.01    0.25 
  -9  -2   4   -0.05    0.15 
   9  -2  -4   -0.12    0.20 
  -9   2   4   -0.12    0.25 
   9   2  -4    0.08    0.21 
   9   2  -4   -0.02    0.29 
  -8  -2   4   -0.09    0.26 
  -8  -2   4    0.34    0.17 
   8  -2  -4    0.43    0.23 
   8  -2  -4    0.17    0.24 
  -8  -2   4    0.26    0.13 
   8   2  -4    0.21    0.31 
  -8   2   4    0.67    0.29 
   8   2  -4    0.10    0.19 
  -7  -2   4    2.59    0.26 
   7  -2  -4    2.49    0.44 
  -7  -2   4    2.63    0.29 
  -7  -2   4    1.96    0.54 
   7   2  -4    2.18    0.43 
   7   2  -4    2.43    0.39 
  -7   2   4    2.89    0.49 
   6  -2  -4    0.34    0.20 
  -6  -2   4    0.41    0.29 
   6  -2  -4    0.07    0.17 
  -6   2   4    0.54    0.17 
  -6   2   4    0.12    0.19 
   6   2  -4    0.13    0.22 
   6   2  -4    0.04    0.14 
   5  -2  -4    0.30    0.18 
  -5  -2   4    0.01    0.22 
   5  -2  -4    0.60    0.24 
  -5   2   4    0.60    0.19 
   5   2  -4    0.11    0.18 
  -5   2   4    0.36    0.19 
   5   2  -4    0.20    0.14 
  -4  -2   4    4.42    0.66 
   4  -2  -4    4.29    0.52 
  -4   2   4    4.28    0.44 
   4   2  -4    2.90    0.36 
  -4   2   4    4.05    0.37 
   4   2  -4    3.95    0.34 
  -3  -2   4    0.97    0.33 
   3  -2  -4    1.40    0.33 
  -3  -2   4    1.04    0.18 
  -3   2   4    1.32    0.24 
   3   2  -4    1.57    0.33 
   3   2  -4    1.14    0.18 
   3   2  -4    1.19    0.23 
  -3   2   4    1.54    0.30 
  -2  -2   4    0.55    0.09 
  -2  -2   4    0.57    0.10 
  -2  -2   4    0.41    0.25 
   2  -2  -4    1.00    0.29 
   2   2  -4    0.50    0.11 
   2   2  -4    0.54    0.16 
  -2   2   4    0.94    0.27 
  -2   2   4    0.58    0.16 
   2   2  -4    0.27    0.19 
  -1  -2   4    0.10    0.23 
   1   2  -4    0.26    0.12 
   1   2  -4    0.38    0.20 
  -1   2   4    0.48    0.22 
   0  -2   4    0.19    0.22 
   0   2   4    0.10    0.21 
   0   2  -4    0.16    0.19 
   0   2  -4    0.22    0.10 
   1  -2   4    0.95    0.32 
  -1   2  -4    0.61    0.15 
   1   2   4    0.51    0.23 
  -1   2  -4    0.86    0.30 
   1   2   4    0.69    0.28 
  -2   2  -4    1.34    0.21 
  -2   2  -4    1.56    0.38 
   2   2   4    1.93    0.29 
   2   2   4    1.38    0.36 
   2   2   4    1.36    0.31 
   3  -2   4    3.20    0.22 
   3   2   4    3.58    0.56 
  -3   2  -4    2.90    0.33 
   3   2   4    3.21    0.41 
  -3   2  -4    3.19    0.53 
   3   2   4    2.75    0.39 
  -4  -2  -4    1.03    0.28 
   4  -2   4    0.73    0.17 
  -4   2  -4    0.84    0.22 
  -4   2  -4    0.76    0.11 
   4   2   4    0.71    0.22 
   4   2   4    0.74    0.25 
   4   2   4    0.31    0.26 
  -4   2  -4    0.89    0.32 
   5  -2   4    3.29    0.36 
  -5  -2  -4    2.04    0.37 
   5   2   4    2.76    0.45 
  -5   2  -4    3.13    0.55 
   5   2   4    2.97    0.58 
  -5   2  -4    2.95    0.40 
   6  -2   4    0.11    0.17 
  -6  -2  -4   -0.06    0.09 
  -6  -2  -4    0.30    0.23 
  -6  -2  -4   -0.02    0.10 
  -6   2  -4    0.24    0.19 
   6   2   4   -0.05    0.22 
  -7  -2  -4    1.30    0.25 
   7  -2   4    1.75    0.34 
  -7  -2  -4    1.79    0.38 
  -7  -2  -4    1.84    0.29 
   7   2   4    2.47    0.50 
  -7   2  -4    1.88    0.41 
   8  -2   4    0.12    0.15 
  -8  -2  -4   -0.18    0.12 
  -8  -2  -4    0.19    0.16 
  -8  -2  -4    0.13    0.22 
  -8   2  -4   -0.33    0.20 
   8   2   4   -0.36    0.23 
  -9  -2  -4    0.17    0.17 
  -9  -2  -4    0.36    0.23 
   9  -2   4    0.18    0.27 
  -9  -2  -4    0.08    0.17 
   9   2   4    0.15    0.31 
 -10  -2  -4    0.02    0.18 
 -10  -2  -4    0.09    0.19 
 -10  -2  -4    0.16    0.24 
  10   2   4   -0.27    0.30 
 -11  -2  -4    0.08    0.25 
 -11  -2  -4    0.17    0.20 
 -11  -2  -4   -0.04    0.23 
  11   2   4    0.33    0.42 
  11   2   4    0.13    0.44 
 -12  -2  -4   -0.19    0.21 
  12   2   4   -0.34    0.40 
  12   2   4    0.13    0.41 
 -13  -2  -4   -0.01    0.24 
  13   2   4   -0.11    0.51 
  13   2   4    0.04    0.39 
 -12  -3   4    2.74    0.95 
  12   3  -4    2.27    0.67 
 -11  -3   4    1.11    0.71 
  11   3  -4    1.33    0.53 
 -10  -3   4    6.26    1.21 
  10   3  -4    6.38    0.88 
  -9  -3   4    2.52    0.76 
   9   3  -4    2.07    0.51 
  -8  -3   4    8.58    1.23 
   8   3  -4    8.54    0.87 
  -7  -3   4    9.75    1.27 
  -7   3   4   10.18    0.57 
   7   3  -4   11.44    0.85 
  -6  -3   4   17.85    1.40 
  -6   3   4   15.46    0.73 
  -6   3   4   15.72    0.88 
   6   3  -4   17.02    0.97 
  -5  -3   4   25.86    1.62 
  -5   3   4   27.42    1.04 
   5   3  -4   27.39    1.00 
   5   3  -4   27.48    1.13 
  -5   3   4   27.82    1.10 
  -4  -3   4   23.86    1.51 
  -4   3   4   24.32    0.98 
  -4   3   4   25.36    1.07 
   4   3  -4   23.81    0.98 
  -3  -3   4   16.37    1.25 
  -3   3   4   16.58    0.74 
   3   3  -4   15.13    1.23 
   3   3  -4   16.85    0.73 
  -3   3   4   15.36    0.89 
  -2  -3   4   29.06    1.61 
   2   3  -4   26.60    0.86 
  -2   3   4   26.09    1.23 
  -2   3   4   29.18    0.94 
   2   3  -4   27.30    1.41 
  -1  -3   4   30.12    1.63 
   1   3  -4   28.56    0.83 
  -1   3   4   30.83    1.40 
  -1   3   4   30.89    1.56 
   1   3  -4   30.98    1.53 
   0   3  -4   17.55    1.16 
   0   3   4   16.30    1.06 
   0   3   4   17.26    1.15 
   1   3   4   51.80    1.98 
  -1   3  -4   49.63    2.04 
   1   3   4   48.23    1.92 
   2   3   4   12.36    0.94 
  -2   3  -4   12.19    1.05 
   2   3   4   13.81    1.03 
  -2   3  -4   12.12    0.56 
   2   3   4   11.94    0.69 
   3   3   4   34.88    1.24 
   3   3   4   33.52    1.49 
   3   3   4   32.03    1.64 
  -3   3  -4   33.19    1.06 
  -4   3  -4   10.42    0.59 
   4   3   4    8.46    1.02 
   4   3   4   11.05    0.83 
  -4   3  -4   11.02    0.64 
   4   3   4   10.70    0.74 
   5   3   4   32.34    1.73 
   5   3   4   29.36    1.29 
   5   3   4   29.43    1.30 
  -5   3  -4   31.30    1.19 
  -6  -3  -4    4.43    0.67 
   6   3   4    3.91    0.76 
   6   3   4    4.20    0.59 
  -6   3  -4    3.57    0.50 
  -7  -3  -4   16.26    1.11 
   7   3   4   14.83    1.03 
   7   3   4   17.03    1.41 
  -8  -3  -4    1.05    0.42 
   8   3   4    1.50    0.47 
   8   3   4    2.51    0.75 
  -9  -3  -4    4.95    0.75 
   9   3   4    4.41    0.74 
   9   3   4    7.15    1.22 
 -10  -3  -4    0.38    0.38 
  10   3   4   -0.55    0.47 
  10   3   4   -0.29    0.33 
  11   3   4    5.44    0.92 
  11   3   4    7.75    1.33 
  12   3   4   -0.49    0.40 
  12   3   4   -0.34    0.55 
  10   4  -4    3.33    0.70 
  -9  -4   4    5.55    1.26 
   9   4  -4    4.47    0.77 
  -8  -4   4    5.17    1.11 
   8   4  -4    4.78    0.73 
  -7  -4   4    9.50    1.43 
   7   4  -4   12.26    0.94 
  -6  -4   4    4.00    0.92 
  -6   4   4    9.39    0.71 
   6   4  -4    9.07    0.76 
  -5  -4   4    7.91    1.23 
  -5   4   4    9.19    0.73 
   5   4  -4    7.86    0.68 
  -4  -4   4   22.14    1.70 
   4   4  -4   22.26    0.97 
  -4   4   4   21.65    1.16 
  -3  -4   4   10.18    1.33 
  -3   4   4   11.42    0.65 
  -3   4   4    9.21    0.86 
   3   4  -4   10.39    0.61 
   2   4  -4   33.48    1.00 
  -2   4   4   30.88    1.06 
  -2   4   4   30.67    1.56 
  -1   4   4   25.99    0.93 
  -1   4   4   28.63    1.54 
   0   4   4   30.60    1.67 
   1   4   4   15.29    0.76 
   1   4   4   18.46    1.35 
   2   4   4   29.52    1.13 
   2   4   4   29.74    1.73 
   3   4   4   13.16    1.43 
   3   4   4   11.43    0.73 
  -3   4  -4   10.69    0.58 
  -3   4  -4   10.23    0.84 
   4   4   4   24.59    1.67 
   4   4   4   24.18    1.14 
  -4   4  -4   26.33    1.20 
  -4   4  -4   26.54    1.15 
   5   4   4    8.07    0.81 
   5   4   4    9.39    1.35 
   6   4   4   19.02    1.58 
   6   4   4   17.30    1.08 
   7   4   4    1.50    0.66 
   7   4   4    1.58    0.47 
   8   4   4   12.83    1.06 
   8   4   4   11.26    1.62 
   9   4   4    3.12    1.06 
   9   4   4    2.27    0.58 
   5   5  -4    4.11    0.56 
   4   5  -4    3.75    0.49 
   3   5  -4    1.85    0.32 
  -3   5   4    2.37    0.59 
  -2   5   4    1.70    0.63 
  -1   5   4    5.00    0.96 
  -1   5   4    4.03    0.44 
   0   5   4    3.19    0.82 
   0   5   4    2.77    0.37 
  -1   5  -4    6.54    1.04 
   1   5   4    5.63    0.47 
   1   5   4    5.95    1.10 
   2   5   4    3.37    0.88 
   2   5   4    4.27    0.49 
   3   5   4    5.19    0.57 
   3   5   4    5.55    1.07 
   4   5   4    1.17    0.65 
   4   5   4    0.87    0.34 
  15   0  -5    0.24    0.52 
  14   0  -5    0.13    0.47 
  13   0  -5    0.10    0.43 
  12   0  -5    0.08    0.36 
  11   0  -5    0.21    0.34 
  10   0  -5    0.17    0.30 
 -10   0   5   -0.09    0.23 
  -9   0   5   -0.18    0.17 
   9   0  -5   -0.42    0.22 
  -8   0   5   -0.24    0.16 
   8   0  -5    0.12    0.21 
   8   0  -5    0.00    0.25 
   8   0  -5   -0.07    0.14 
   7   0  -5   -0.27    0.20 
  -7   0   5   -0.16    0.12 
   7   0  -5   -0.11    0.12 
   7   0  -5    0.05    0.14 
   6   0  -5   -0.04    0.12 
  -6   0   5   -0.03    0.17 
  -6   0   5   -0.02    0.12 
   6   0  -5   -0.07    0.11 
   6   0  -5    0.00    0.17 
  -5   0   5   -0.11    0.11 
   5   0  -5   -0.06    0.10 
   5   0  -5   -0.07    0.10 
  -5   0   5    0.01    0.14 
   5   0  -5   -0.17    0.14 
   4   0  -5   -0.03    0.11 
  -4   0   5   -0.03    0.12 
   4   0  -5   -0.12    0.08 
   4   0  -5    0.14    0.14 
  -4   0   5   -0.15    0.07 
  -3   0   5   -0.24    0.06 
   3   0  -5   -0.19    0.07 
   3   0  -5   -0.06    0.11 
  -3   0   5    0.02    0.12 
   3   0  -5   -0.14    0.12 
  -2   0   5    0.15    0.13 
   2   0  -5   -0.16    0.10 
  -2   0   5   -0.08    0.12 
  -2   0   5   -0.06    0.11 
   2   0  -5   -0.32    0.08 
   1   0  -5   -0.30    0.10 
  -1   0   5   -0.25    0.08 
   1   0  -5   -0.33    0.08 
  -1   0   5   -0.23    0.11 
  -1   0   5   -0.18    0.11 
   0   0   5   -0.05    0.12 
   0   0  -5   -0.25    0.09 
   0   0   5   -0.21    0.11 
   0   0  -5   -0.05    0.11 
   1   0   5   -0.22    0.11 
  -1   0  -5   -0.38    0.09 
  -1   0  -5   -0.25    0.10 
   1   0   5   -0.24    0.09 
   1   0   5   -0.17    0.08 
  -2   0  -5   -0.27    0.10 
   2   0   5   -0.13    0.13 
   2   0   5   -0.31    0.09 
  -2   0  -5   -0.27    0.08 
   2   0   5   -0.27    0.09 
   3   0   5    0.04    0.13 
   3   0   5   -0.24    0.08 
  -3   0  -5   -0.24    0.10 
  -3   0  -5    0.00    0.06 
  -3   0  -5   -0.14    0.11 
  -3   0  -5   -0.13    0.11 
   3   0   5   -0.04    0.14 
   4   0   5    0.13    0.13 
   4   0   5    0.01    0.15 
  -4   0  -5   -0.17    0.11 
   4   0   5    0.47    0.17 
  -4   0  -5   -0.18    0.07 
   5   0   5   -0.05    0.13 
  -5   0  -5   -0.10    0.13 
  -5   0  -5   -0.01    0.11 
   5   0   5   -0.03    0.18 
  -6   0  -5   -0.15    0.16 
   6   0   5   -0.10    0.18 
  -6   0  -5   -0.05    0.16 
   6   0   5    0.00    0.15 
   7   0   5    0.09    0.22 
   7   0   5    0.13    0.18 
  -7   0  -5    0.20    0.19 
  -8   0  -5   -0.32    0.12 
   8   0   5    0.09    0.20 
   8   0   5    0.37    0.31 
   9   0   5   -0.15    0.25 
   9   0   5    0.30    0.25 
  -9   0  -5   -0.08    0.18 
 -10   0  -5    0.17    0.27 
  10   0   5    0.16    0.26 
  10   0   5   -0.18    0.27 
  11   0   5    0.10    0.25 
 -11   0  -5   -0.07    0.25 
  11   0   5   -0.03    0.32 
  12   0   5   -0.06    0.34 
  12   0   5    0.20    0.27 
 -12   0  -5   -0.07    0.29 
 -13   0  -5   -0.13    0.30 
  13   0   5   -0.22    0.26 
  13   0   5    0.09    0.40 
 -14   0  -5    0.05    0.35 
  14   0   5    0.07    0.49 
 -14  -1   5    3.57    0.64 
  14   1  -5    5.27    1.02 
  13  -1  -5    2.45    0.77 
 -13  -1   5    3.61    0.64 
  13   1  -5    2.68    0.69 
  12  -1  -5   13.42    1.16 
 -12  -1   5   16.75    1.07 
  12   1  -5   16.51    1.31 
  11  -1  -5    9.93    1.08 
  11   1  -5   10.16    1.09 
 -10  -1   5   16.50    0.97 
  10  -1  -5   17.52    1.15 
  10  -1  -5   16.89    1.06 
  10   1  -5   18.57    1.11 
  10   1  -5   15.82    1.15 
  -9  -1   5   22.29    1.08 
   9  -1  -5   23.07    1.06 
   9  -1  -5   25.09    1.30 
   9   1  -5   25.62    1.36 
   9   1  -5   24.39    1.20 
  -8  -1   5   44.93    1.51 
   8  -1  -5   45.29    1.49 
   8  -1  -5   49.70    1.74 
   8   1  -5   47.12    1.76 
   8   1  -5   47.57    1.64 
  -8   1   5   46.67    1.73 
   7  -1  -5   10.09    0.74 
   7  -1  -5   10.35    0.65 
  -7  -1   5    9.54    0.62 
   7   1  -5   10.39    0.69 
  -7   1   5   10.31    0.74 
   7   1  -5    9.98    0.76 
   6  -1  -5  123.31    2.72 
  -6  -1   5  123.34    2.67 
   6  -1  -5  122.55    2.87 
   6   1  -5  121.35    2.91 
   6   1  -5  122.32    2.78 
  -6   1   5  122.07    2.87 
   5  -1  -5    5.91    0.47 
  -5  -1   5    6.17    0.42 
   5  -1  -5    6.05    0.51 
  -5   1   5    6.72    0.53 
   5   1  -5    5.94    0.46 
  -5   1   5    6.79    0.43 
   5   1  -5    4.88    0.51 
  -4  -1   5  157.72    3.16 
   4  -1  -5  156.09    3.19 
   4  -1  -5  157.24    3.20 
   4  -1  -5  154.25    2.99 
  -4  -1   5  151.39    2.96 
   4   1  -5  152.98    3.19 
  -4   1   5  155.67    3.02 
   4   1  -5  156.90    3.11 
  -4   1   5  154.05    3.08 
  -4   1   5  152.75    3.19 
   3  -1  -5   28.48    0.96 
   3  -1  -5   29.90    0.85 
  -3  -1   5   28.26    0.81 
  -3  -1   5   28.63    1.10 
   3  -1  -5   29.67    1.03 
  -3  -1   5   28.06    0.92 
   3   1  -5   30.49    0.99 
  -3   1   5   29.17    0.90 
  -3   1   5   27.89    0.97 
   3   1  -5   28.24    0.89 
  -3   1   5   27.82    0.90 
   2  -1  -5  182.46    3.26 
  -2  -1   5  182.31    3.39 
  -2  -1   5  187.22    3.76 
   2  -1  -5  188.32    3.68 
  -2  -1   5  180.82    3.21 
  -2   1   5  178.89    3.36 
   2   1  -5  179.86    3.35 
  -2   1   5  184.02    3.48 
  -2   1   5  182.24    3.48 
   2   1  -5  179.47    3.44 
   1  -1  -5    2.06    0.19 
  -1  -1   5    2.18    0.17 
   1  -1  -5    1.81    0.30 
  -1  -1   5    2.09    0.24 
  -1  -1   5    1.86    0.31 
  -1   1   5    1.84    0.22 
   1   1  -5    1.76    0.23 
   1   1  -5    1.68    0.20 
  -1   1   5    1.80    0.27 
   0  -1   5  134.25    2.26 
   0  -1   5  126.04    2.48 
   0  -1   5  134.66    2.85 
   0  -1  -5  131.70    2.42 
   0  -1  -5  131.04    2.89 
   0   1   5  129.33    2.79 
   0   1  -5  133.13    2.75 
   0   1  -5  128.85    2.47 
   0   1  -5  131.18    2.52 
   0   1   5  135.46    2.52 
   1  -1   5    2.18    0.33 
  -1  -1  -5    2.61    0.40 
  -1  -1  -5    2.02    0.22 
   1   1   5    1.86    0.22 
  -1   1  -5    2.48    0.25 
  -1   1  -5    2.25    0.31 
  -1   1  -5    2.36    0.21 
   1   1   5    2.03    0.33 
  -2  -1  -5  174.22    3.78 
  -2  -1  -5  184.38    3.32 
   2   1   5  178.89    3.55 
  -2   1  -5  174.83    3.16 
   2   1   5  182.51    3.74 
   2   1   5  182.98    3.39 
  -2   1  -5  181.61    3.50 
   2   1   5  179.33    3.20 
  -2   1  -5  176.65    3.28 
  -2   1  -5  181.16    3.55 
  -3  -1  -5    2.28    0.27 
   3  -1   5    2.78    0.21 
   3  -1   5    2.15    0.30 
   3   1   5    2.64    0.38 
   3   1   5    2.30    0.38 
   3   1   5    2.54    0.19 
  -3   1  -5    2.80    0.30 
  -3   1  -5    2.67    0.35 
  -3   1  -5    2.64    0.21 
  -3   1  -5    3.01    0.37 
   3   1   5    3.01    0.34 
   4  -1   5  130.18    2.35 
  -4  -1  -5  125.29    2.36 
   4  -1   5  128.65    2.77 
  -4  -1  -5  129.32    2.89 
  -4  -1  -5  128.71    2.72 
  -4   1  -5  126.64    2.64 
  -4   1  -5  122.40    2.37 
   4   1   5  127.68    3.01 
  -4   1  -5  125.27    2.81 
  -4   1  -5  131.32    2.83 
   4   1   5  126.77    2.92 
   4   1   5  126.57    2.74 
  -5  -1  -5    6.14    0.35 
  -5  -1  -5    5.71    0.47 
   5  -1   5    6.14    0.31 
   5  -1   5    6.57    0.53 
   5   1   5    5.76    0.48 
   5   1   5    5.81    0.60 
  -5   1  -5    6.36    0.54 
  -5   1  -5    6.53    0.47 
  -6  -1  -5   64.44    1.50 
  -6  -1  -5   64.67    1.84 
   6  -1   5   65.15    1.88 
   6  -1   5   56.54    1.30 
  -6   1  -5   66.02    1.77 
   6   1   5   61.44    2.00 
  -6   1  -5   64.55    1.93 
   6   1   5   63.65    2.01 
   6   1   5   64.47    2.61 
  -7  -1  -5    2.17    0.39 
   7  -1   5    2.32    0.24 
  -7  -1  -5    2.47    0.32 
  -7  -1  -5    1.71    0.34 
   7  -1   5    1.75    0.39 
  -7   1  -5    1.52    0.33 
   7   1   5    2.46    0.50 
   7   1   5    1.37    0.39 
  -7   1  -5    1.56    0.38 
   8  -1   5   50.94    1.80 
  -8  -1  -5   43.62    1.58 
   8  -1   5   48.57    1.15 
  -8  -1  -5   49.45    1.72 
  -8  -1  -5   50.25    1.42 
  -8   1  -5   48.35    1.82 
   8   1   5   50.17    1.91 
   8   1   5   47.85    1.86 
  -8   1  -5   49.32    1.67 
  -9  -1  -5    1.49    0.39 
   9  -1   5    1.12    0.38 
  -9  -1  -5    1.51    0.31 
   9  -1   5    1.87    0.25 
  -9  -1  -5    0.57    0.28 
  -9   1  -5    1.39    0.39 
   9   1   5    1.57    0.46 
   9   1   5    2.02    0.55 
  10  -1   5   18.79    1.21 
 -10  -1  -5   22.17    0.99 
 -10  -1  -5   23.04    1.23 
 -10  -1  -5   17.25    1.07 
  10  -1   5   21.72    0.73 
  10   1   5   22.85    1.36 
  10   1   5   20.80    1.35 
 -10   1  -5   20.31    1.18 
  11  -1   5    1.71    0.51 
 -11  -1  -5    1.45    0.42 
  11  -1   5    1.30    0.25 
 -11  -1  -5    1.58    0.37 
 -11   1  -5    1.21    0.41 
  11   1   5    1.42    0.54 
  11   1   5    1.92    0.57 
 -12  -1  -5    4.66    0.60 
 -12  -1  -5    4.52    0.72 
  12  -1   5    5.89    0.91 
  12   1   5    4.74    0.83 
 -12   1  -5    3.52    0.64 
  12   1   5    4.74    0.87 
 -13  -1  -5    0.51    0.36 
  13   1   5    0.64    0.53 
  13   1   5    0.27    0.44 
 -14  -1  -5    1.12    0.45 
  14   1   5    2.53    0.77 
  14   1   5    2.29    0.67 
 -13  -2   5    7.11    0.82 
 -13  -2   5    4.64    1.10 
  13   2  -5    6.33    1.00 
 -12  -2   5    3.24    0.50 
 -12  -2   5    1.28    0.71 
 -12  -2   5    2.73    0.49 
  12   2  -5    2.09    0.64 
 -11  -2   5   14.00    0.81 
 -11  -2   5   13.75    0.87 
 -11  -2   5    9.78    1.40 
  11   2  -5   13.48    1.18 
 -10  -2   5    3.44    0.49 
  10  -2  -5    3.64    0.72 
 -10  -2   5    3.56    0.43 
 -10  -2   5    3.43    0.79 
  10   2  -5    2.68    0.57 
  -9  -2   5   44.68    2.33 
   9  -2  -5   54.87    1.89 
  -9  -2   5   60.99    1.60 
   9  -2  -5   59.66    1.98 
  -9  -2   5   61.93    1.72 
   9   2  -5   61.84    2.19 
   9   2  -5   60.54    2.01 
  -8  -2   5   21.61    0.78 
   8  -2  -5   21.98    1.09 
  -8  -2   5   18.12    1.37 
  -8  -2   5   21.40    0.85 
   8  -2  -5   20.52    1.09 
   8   2  -5   21.88    1.20 
  -8   2   5   21.09    1.14 
   8   2  -5   21.54    1.07 
   7  -2  -5  142.42    3.37 
  -7  -2   5  135.36    2.69 
  -7  -2   5  146.37    2.65 
  -7  -2   5  134.49    3.97 
   7   2  -5  141.19    3.23 
   7   2  -5  146.69    3.46 
  -7   2   5  143.19    3.36 
   6  -2  -5   15.60    0.90 
  -6  -2   5   13.92    1.08 
  -6   2   5   14.68    0.68 
  -6   2   5   13.81    0.82 
   6   2  -5   14.53    0.77 
   6   2  -5   14.50    0.87 
  -5  -2   5  136.74    3.67 
   5  -2  -5  135.33    2.88 
   5  -2  -5  138.47    3.23 
  -5   2   5  132.23    3.00 
   5   2  -5  135.46    3.03 
   5   2  -5  135.34    2.88 
  -5   2   5  133.50    2.80 
  -4  -2   5    1.52    0.42 
   4  -2  -5    1.35    0.34 
   4   2  -5    1.38    0.28 
   4   2  -5    1.54    0.26 
  -4   2   5    1.42    0.27 
  -4   2   5    1.45    0.30 
  -3  -2   5  193.00    4.62 
   3  -2  -5  212.83    4.41 
  -3   2   5  206.99    3.98 
  -3   2   5  208.64    4.06 
   3   2  -5  204.56    3.92 
   3   2  -5  207.20    3.76 
   2  -2  -5    0.06    0.19 
  -2  -2   5   -0.02    0.21 
  -2  -2   5    0.07    0.08 
   2   2  -5    0.09    0.13 
  -2   2   5    0.26    0.18 
   2   2  -5   -0.08    0.06 
   2   2  -5   -0.05    0.15 
  -2   2   5    0.00    0.13 
  -1  -2   5  335.47    5.45 
   1  -2  -5  346.42    6.64 
  -1  -2   5  336.19    5.47 
  -1  -2   5  336.40    6.77 
  -1   2   5  344.07    6.43 
   1   2  -5  345.06    6.57 
   1   2  -5  339.65    5.62 
   1   2  -5  343.19    5.87 
   0  -2   5    0.87    0.30 
   0   2  -5    0.75    0.28 
   0   2  -5    1.62    0.15 
   0   2   5    1.10    0.33 
   1  -2   5  264.04    5.44 
   1   2   5  255.21    5.27 
  -1   2  -5  255.33    5.31 
   1   2   5  259.75    5.11 
   2  -2   5    0.25    0.09 
   2  -2   5    0.55    0.11 
  -2   2  -5    0.87    0.32 
   2   2   5    0.34    0.18 
   2   2   5    0.20    0.19 
  -2   2  -5    0.63    0.18 
   2   2   5    0.22    0.25 
   3  -2   5  196.07    3.46 
  -3   2  -5  202.75    4.43 
  -3   2  -5  193.93    3.43 
   3   2   5  196.09    3.91 
   3   2   5  193.06    3.99 
   3   2   5  189.98    4.37 
  -3   2  -5  191.99    3.81 
   4  -2   5    3.81    0.33 
  -4   2  -5    5.04    0.45 
   4   2   5    4.48    0.53 
  -4   2  -5    3.97    0.60 
   4   2   5    4.39    0.65 
  -4   2  -5    4.19    0.22 
   4   2   5    4.78    0.42 
  -5  -2  -5  129.66    2.94 
  -5  -2  -5  132.36    2.37 
   5  -2   5  131.00    2.74 
  -5  -2  -5  133.22    2.36 
   5   2   5  128.53    3.48 
  -5   2  -5  131.51    3.00 
   5   2   5  124.85    3.12 
  -5   2  -5  130.67    3.40 
  -6  -2  -5    1.32    0.22 
  -6  -2  -5    0.80    0.26 
  -6  -2  -5    1.42    0.23 
   6  -2   5    1.67    0.32 
  -6   2  -5    1.40    0.34 
   6   2   5    0.81    0.32 
   6   2   5    1.40    0.44 
  -6   2  -5    1.52    0.44 
  -7  -2  -5   73.56    1.74 
  -7  -2  -5   73.22    1.83 
   7  -2   5   56.95    1.84 
  -7  -2  -5   72.11    2.03 
  -7   2  -5   69.75    2.16 
   7   2   5   71.70    2.54 
   7   2   5   72.34    2.33 
   8  -2   5   -0.08    0.19 
  -8  -2  -5    0.50    0.21 
  -8  -2  -5    0.24    0.22 
  -8  -2  -5    0.88    0.24 
   8   2   5    1.22    0.41 
   8   2   5    1.45    0.52 
  -8   2  -5    0.79    0.34 
   9  -2   5   43.35    1.66 
  -9  -2  -5   42.35    1.56 
  -9  -2  -5   43.43    1.45 
  -9  -2  -5   42.81    1.54 
   9   2   5   44.79    2.10 
   9   2   5   41.81    1.90 
 -10  -2  -5    3.82    0.57 
 -10  -2  -5    3.72    0.52 
 -10  -2  -5    4.59    0.63 
  10   2   5    3.73    0.70 
  10   2   5    5.36    0.91 
 -11  -2  -5   16.83    1.05 
 -11  -2  -5   17.67    1.01 
 -11  -2  -5   16.54    1.05 
  11   2   5   18.32    1.48 
  11   2   5   17.97    1.38 
 -12  -2  -5    0.99    0.35 
  12   2   5    1.21    0.59 
  12   2   5    1.98    0.76 
 -13  -2  -5    6.64    0.88 
  13   2   5    6.18    1.03 
  13   2   5    7.42    1.22 
 -12  -3   5    4.90    1.82 
  12   3  -5    5.50    0.91 
 -11  -3   5    0.06    0.55 
  11   3  -5    1.71    0.63 
 -10  -3   5    6.23    1.22 
  10   3  -5    6.91    0.93 
  -9  -3   5    2.40    0.76 
   9   3  -5    2.67    0.56 
  -8  -3   5   17.25    1.81 
   8   3  -5   18.78    1.17 
  -7  -3   5    0.04    0.33 
  -7   3   5    0.54    0.21 
   7   3  -5    0.09    0.24 
  -6  -3   5   57.43    2.62 
  -6   3   5   65.60    1.75 
  -6   3   5   64.74    1.97 
   6   3  -5   67.49    2.03 
  -5  -3   5    0.49    0.39 
   5   3  -5    1.40    0.34 
   5   3  -5    0.96    0.26 
  -5   3   5    0.55    0.26 
  -5   3   5    1.46    0.34 
  -4  -3   5   82.63    3.03 
   4   3  -5   88.01    2.19 
  -4   3   5   86.84    2.29 
  -4   3   5   90.45    2.21 
  -3  -3   5    0.43    0.41 
   3   3  -5    0.49    0.22 
  -3   3   5    0.53    0.21 
  -3   3   5    0.55    0.26 
  -2  -3   5   63.91    2.49 
   2   3  -5   63.51    1.58 
  -2   3   5   66.01    1.69 
  -2   3   5   62.80    2.07 
  -1  -3   5    0.19    0.29 
  -1   3   5    1.09    0.39 
  -1   3   5   -0.01    0.29 
   1   3  -5   -0.15    0.21 
   1   3  -5    0.07    0.13 
   0  -3   5   71.26    2.63 
   0   3   5   74.10    2.41 
   0   3   5   75.71    2.51 
   0   3  -5   77.03    2.60 
  -1   3  -5    0.74    0.36 
   1   3   5    0.63    0.38 
   1   3   5    0.95    0.37 
  -2   3  -5   87.91    2.05 
   2   3   5   93.19    2.73 
   2   3   5   91.34    2.29 
   2   3   5   89.71    2.84 
  -2   3  -5  100.38    3.17 
  -3   3  -5   -0.10    0.13 
   3   3   5    0.24    0.21 
   3   3   5    0.14    0.26 
   3   3   5    0.13    0.29 
   4   3   5   52.07    1.74 
  -4   3  -5   50.97    1.56 
  -4   3  -5   51.47    1.21 
   4   3   5   56.37    1.86 
   4   3   5   54.75    2.22 
   5   3   5    0.10    0.23 
   5   3   5   -0.12    0.31 
  -5   3  -5    0.01    0.17 
   5   3   5   -0.23    0.19 
   6   3   5   24.51    1.28 
  -6   3  -5   25.45    1.18 
   6   3   5   25.11    1.60 
  -7  -3  -5   -0.04    0.24 
   7   3   5   -0.12    0.36 
   7   3   5   -0.10    0.25 
  -8  -3  -5   22.18    1.26 
   8   3   5   23.41    1.70 
   8   3   5   22.25    1.37 
  -9  -3  -5   -0.07    0.26 
   9   3   5    0.05    0.50 
   9   3   5    0.48    0.36 
  10   3   5   10.46    1.47 
  10   3   5   11.64    1.27 
  11   3   5    0.64    0.63 
  11   3   5    0.20    0.41 
  12   3   5    1.89    0.73 
  12   3   5    2.11    0.85 
   9   4  -5    0.60    0.39 
  -8  -4   5    0.17    0.47 
   8   4  -5   -0.07    0.29 
  -7  -4   5    2.21    0.82 
   7   4  -5    1.00    0.39 
  -6  -4   5    0.42    0.48 
   6   4  -5   -0.04    0.25 
  -6   4   5   -0.08    0.23 
  -5  -4   5    0.62    0.55 
   5   4  -5    0.65    0.31 
  -5   4   5    1.31    0.37 
  -4  -4   5    2.59    0.74 
   4   4  -5    3.12    0.45 
  -4   4   5    2.98    0.56 
  -3  -4   5    0.40    0.40 
  -3   4   5    0.56    0.34 
   3   4  -5    0.71    0.26 
  -2  -4   5    1.00    0.51 
   2   4  -5    1.00    0.26 
  -2   4   5    0.78    0.45 
  -2   4   5    1.05    0.27 
  -1   4   5    1.63    0.32 
  -1   4   5    1.50    0.54 
   0   4   5    0.07    0.38 
   1   4   5    1.14    0.52 
   1   4   5    1.03    0.29 
   2   4   5    0.05    0.18 
   2   4   5    0.01    0.37 
   3   4   5   -0.08    0.19 
   3   4   5    0.35    0.42 
   4   4   5   -0.06    0.41 
   4   4   5    0.55    0.31 
   5   4   5    1.49    0.64 
   5   4   5    1.39    0.39 
   6   4   5    0.26    0.44 
   6   4   5    0.05    0.26 
   7   4   5    1.16    0.64 
   7   4   5    0.63    0.39 
   8   4   5    0.54    0.37 
   8   4   5   -0.26    0.44 
   9   4   5    0.98    0.73 
   9   4   5   -0.10    0.28 
   4   5  -5    3.25    0.48 
   3   5  -5    0.00    0.18 
  -3   5   5   -0.58    0.33 
  -2   5   5   10.37    1.26 
  -1   5   5    0.21    0.45 
  -1   5   5    0.06    0.17 
   0   5   5    5.60    0.56 
   0   5   5    8.93    1.26 
   1   5   5    0.06    0.21 
   1   5   5   -0.10    0.42 
  -1   5  -5   -0.13    0.41 
   2   5   5    4.34    0.95 
   2   5   5    2.80    0.43 
   3   5   5    1.06    0.63 
   3   5   5   -0.02    0.21 
   4   5   5    3.53    0.55 
   4   5   5    3.06    0.91 
  14   0  -6    8.27    1.15 
  13   0  -6    0.18    0.45 
  12   0  -6   14.98    1.25 
  11   0  -6   15.12    1.17 
 -10   0   6   29.15    1.63 
  10   0  -6   31.35    1.56 
   9   0  -6    0.72    0.33 
  -9   0   6    1.12    0.35 
   8   0  -6  114.18    3.02 
  -8   0   6  114.74    2.85 
   8   0  -6  111.54    2.85 
  -7   0   6   26.20    1.11 
   7   0  -6   27.18    1.13 
   7   0  -6   25.01    1.18 
   7   0  -6   24.68    1.01 
  -6   0   6  236.32    4.73 
   6   0  -6  229.88    4.48 
  -6   0   6  234.72    4.58 
   6   0  -6  228.09    4.58 
   6   0  -6  235.23    4.77 
  -5   0   6    1.70    0.31 
   5   0  -6    2.33    0.36 
   5   0  -6    2.43    0.36 
   5   0  -6    1.05    0.27 
  -5   0   6    2.12    0.36 
   4   0  -6  292.85    5.33 
   4   0  -6  294.84    5.51 
   4   0  -6  299.61    5.41 
  -4   0   6  295.85    5.38 
  -4   0   6  292.63    5.49 
   3   0  -6   22.37    0.81 
   3   0  -6   22.38    0.82 
   3   0  -6   21.73    0.87 
  -3   0   6   23.30    0.83 
  -3   0   6   21.21    0.85 
   2   0  -6  418.78    7.08 
   2   0  -6  402.53    6.93 
   2   0  -6  390.42    6.93 
  -2   0   6  408.69    6.96 
  -2   0   6  391.17    7.00 
  -2   0   6  412.09    6.95 
   1   0  -6  273.95    4.89 
   1   0  -6  274.91    4.90 
  -1   0   6  274.85    4.88 
  -1   0   6  276.12    4.96 
   0   0   6  497.16    8.32 
   0   0  -6  486.80    8.31 
   0   0   6  502.18    8.30 
   0   0  -6  489.65    8.32 
  -1   0  -6  328.41    5.89 
   1   0   6  333.94    5.53 
   1   0   6  334.72    5.84 
  -1   0  -6  345.63    5.90 
   1   0   6  332.41    5.84 
   2   0   6  205.68    3.41 
  -2   0  -6  197.52    3.86 
  -2   0  -6  199.52    3.85 
   2   0   6  202.68    3.81 
   2   0   6  208.48    3.84 
   2   0   6  201.09    3.98 
   3   0   6  338.91    6.05 
  -3   0  -6  336.84    5.46 
  -3   0  -6  338.22    6.12 
  -3   0  -6  346.71    6.28 
   3   0   6  334.60    6.04 
   3   0   6  350.90    6.29 
  -3   0  -6  341.49    6.13 
  -4   0  -6  128.01    2.84 
   4   0   6  132.11    2.99 
  -4   0  -6  129.62    2.85 
  -4   0  -6  128.52    2.27 
   4   0   6  124.53    2.76 
  -4   0  -6  132.59    2.98 
   4   0   6  131.76    2.77 
  -5   0  -6  141.50    3.16 
   5   0   6  143.91    3.06 
  -5   0  -6  143.37    3.31 
   5   0   6  145.57    3.32 
   6   0   6  135.29    3.30 
   6   0   6  136.64    3.01 
  -6   0  -6  136.77    3.13 
  -6   0  -6  135.96    3.29 
   7   0   6  100.24    2.77 
  -7   0  -6  100.00    2.62 
   7   0   6  100.51    2.48 
   8   0   6   30.74    1.24 
  -8   0  -6   31.86    1.36 
   8   0   6   31.68    1.48 
   9   0   6   76.24    2.52 
   9   0   6   73.78    2.15 
  -9   0  -6   74.90    2.33 
 -10   0  -6    5.10    0.67 
  10   0   6    5.48    0.82 
  10   0   6    5.85    0.69 
 -11   0  -6   20.20    1.26 
  11   0   6   20.43    1.40 
  11   0   6   22.35    1.17 
  12   0   6    8.32    0.89 
 -12   0  -6    7.48    0.94 
  12   0   6    8.60    1.07 
  13   0   6    7.03    0.91 
 -13   0  -6    7.19    0.94 
  13   0   6    8.54    1.15 
  14   0   6    1.90    0.68 
 -14   0  -6    1.54    0.58 
 -14  -1   6    0.37    0.33 
  14   1  -6    0.04    0.44 
 -13  -1   6    0.42    0.30 
  13   1  -6    0.54    0.52 
  12  -1  -6    0.56    0.42 
  12   1  -6    0.53    0.44 
  11  -1  -6   15.87    1.17 
  11   1  -6   13.29    1.16 
 -10  -1   6    0.14    0.21 
  10  -1  -6    0.08    0.31 
  10   1  -6   -0.10    0.30 
  10   1  -6    0.06    0.22 
  -9  -1   6   72.81    2.15 
   9  -1  -6   72.94    2.36 
   9   1  -6   75.84    2.47 
   9   1  -6   75.91    2.30 
   8  -1  -6   -0.18    0.22 
   8  -1  -6   -0.03    0.18 
  -8  -1   6   -0.03    0.14 
   8   1  -6    0.20    0.28 
   8   1  -6   -0.21    0.13 
  -8   1   6    0.08    0.23 
   7  -1  -6   44.10    1.58 
   7  -1  -6   43.32    1.45 
  -7  -1   6   40.06    1.36 
   7   1  -6   42.25    1.47 
  -7   1   6   43.68    1.57 
   7   1  -6   41.72    1.60 
   6  -1  -6   10.25    0.72 
   6  -1  -6   10.37    0.66 
  -6  -1   6    9.91    0.59 
  -6   1   6   10.56    0.71 
   6   1  -6    9.65    0.71 
   6   1  -6    8.93    0.61 
   5  -1  -6   73.51    1.79 
  -5  -1   6   73.06    1.77 
   5  -1  -6   75.39    1.95 
   5  -1  -6   72.85    1.96 
   5   1  -6   71.12    1.97 
   5   1  -6   71.06    1.87 
  -5   1   6   71.07    1.77 
  -5   1   6   73.58    1.99 
   4  -1  -6   28.21    1.06 
  -4  -1   6   26.62    1.12 
   4  -1  -6   26.35    0.89 
  -4  -1   6   27.36    0.89 
   4  -1  -6   26.00    1.01 
  -4   1   6   26.95    1.03 
   4   1  -6   26.61    0.95 
  -4   1   6   27.69    0.94 
  -4   1   6   27.00    0.96 
   4   1  -6   25.45    1.01 
   3  -1  -6  323.76    5.75 
  -3  -1   6  330.87    5.72 
  -3  -1   6  334.57    6.23 
  -3  -1   6  336.37    5.92 
   3  -1  -6  328.49    6.10 
   3  -1  -6  332.95    5.99 
  -3   1   6  332.36    5.86 
  -3   1   6  336.91    6.02 
   3   1  -6  324.80    5.86 
   3   1  -6  332.12    5.98 
  -3   1   6  336.24    5.90 
  -2  -1   6   26.30    0.89 
   2  -1  -6   27.36    1.06 
  -2  -1   6   28.13    0.79 
   2  -1  -6   26.40    0.81 
   2   1  -6   26.81    0.93 
  -2   1   6   27.28    0.89 
   2   1  -6   26.58    0.87 
  -2   1   6   27.48    0.94 
  -2   1   6   26.80    0.95 
   1  -1  -6  280.74    4.88 
   1  -1  -6  284.07    5.38 
  -1  -1   6  289.60    4.99 
  -1  -1   6  278.17    5.29 
  -1  -1   6  278.06    4.80 
   1   1  -6  277.95    4.96 
  -1   1   6  283.08    5.18 
   1   1  -6  281.49    5.01 
  -1   1   6  286.41    4.99 
   1   1  -6  278.57    5.07 
   0  -1   6  130.61    2.39 
   0  -1   6  125.24    2.56 
   0  -1  -6  130.19    2.97 
   0  -1   6  132.75    2.86 
   0  -1  -6  133.05    2.52 
   0   1  -6  130.22    2.73 
   0   1   6  132.70    2.61 
   0   1  -6  131.23    2.57 
   0   1  -6  130.04    2.57 
   0   1   6  127.77    2.83 
  -1  -1  -6  166.05    3.70 
   1  -1   6  178.47    3.58 
   1  -1   6  177.94    3.10 
  -1  -1  -6  176.62    3.26 
  -1   1  -6  175.17    3.46 
  -1   1  -6  175.35    3.23 
   1   1   6  181.70    3.36 
  -1   1  -6  171.23    3.29 
   1   1   6  175.34    3.65 
   2  -1   6  148.59    3.05 
  -2  -1  -6  147.89    3.38 
   2  -1   6  149.21    3.13 
  -2  -1  -6  153.05    2.96 
  -2   1  -6  147.34    2.78 
   2   1   6  144.60    3.27 
  -2   1  -6  150.43    2.95 
   2   1   6  148.89    3.17 
   2   1   6  151.24    2.73 
  -2   1  -6  153.23    3.12 
   2   1   6  156.80    3.02 
  -2   1  -6  147.98    3.07 
  -3  -1  -6   88.49    2.02 
  -3  -1  -6   85.68    2.36 
   3  -1   6   88.34    2.10 
   3  -1   6   90.00    1.83 
  -3   1  -6   83.69    1.79 
  -3   1  -6   85.44    1.97 
   3   1   6   89.47    2.25 
  -3   1  -6   87.91    2.08 
  -3   1  -6   89.29    2.16 
   3   1   6   85.64    2.04 
   3   1   6   85.83    2.29 
   3   1   6   85.24    1.58 
  -4  -1  -6   50.82    1.47 
   4  -1   6   49.98    1.52 
   4  -1   6   50.94    1.22 
   4   1   6   49.28    1.47 
  -4   1  -6   50.81    1.25 
   4   1   6   50.75    1.68 
  -4   1  -6   51.65    1.49 
  -4   1  -6   49.07    1.56 
   4   1   6   52.30    1.66 
  -4   1  -6   51.39    1.42 
  -5  -1  -6   48.17    1.51 
  -5  -1  -6   47.98    1.07 
   5  -1   6   46.04    1.17 
   5  -1   6   49.41    1.56 
  -5   1  -6   48.51    1.60 
  -5   1  -6   47.80    1.24 
   5   1   6   51.45    1.73 
   5   1   6   50.53    1.56 
  -5   1  -6   51.49    1.48 
   5   1   6   48.18    1.67 
  -5   1  -6   50.18    1.52 
  -6  -1  -6   54.59    1.69 
   6  -1   6   47.09    1.22 
  -6  -1  -6   52.52    1.23 
   6  -1   6   57.79    1.78 
  -6   1  -6   52.67    1.77 
   6   1   6   52.48    1.84 
   6   1   6   54.08    1.86 
  -6   1  -6   54.88    1.63 
   7  -1   6   40.04    1.53 
  -7  -1  -6   42.64    1.53 
  -7  -1  -6   41.21    1.12 
   7  -1   6   41.29    1.06 
   7   1   6   39.89    1.67 
  -7   1  -6   39.95    1.59 
  -7   1  -6   40.38    1.44 
   7   1   6   40.48    1.64 
  -8  -1  -6   47.98    1.31 
  -8  -1  -6   41.68    1.59 
   8  -1   6   48.64    1.20 
   8  -1   6   47.16    1.78 
  -8  -1  -6   49.23    1.75 
  -8   1  -6   48.92    1.87 
   8   1   6   50.42    1.91 
   8   1   6   48.51    1.92 
  -8   1  -6   49.00    1.69 
  -9  -1  -6   11.09    0.62 
  -9  -1  -6    8.29    0.74 
   9  -1   6   11.60    0.52 
  -9  -1  -6   12.57    0.90 
   9  -1   6   12.79    0.96 
  -9   1  -6   10.80    0.82 
   9   1   6   12.03    1.03 
   9   1   6   12.97    0.99 
 -10  -1  -6    9.66    0.62 
  10  -1   6    9.95    0.50 
 -10  -1  -6   10.34    0.86 
  10  -1   6    9.75    1.00 
 -10   1  -6   11.09    0.89 
  10   1   6   11.31    0.98 
  10   1   6   10.01    1.09 
 -11  -1  -6    2.59    0.42 
  11  -1   6    1.99    0.56 
 -11  -1  -6    2.82    0.59 
  11   1   6    2.35    0.66 
  11   1   6    2.70    0.64 
 -11   1  -6    2.71    0.59 
 -12  -1  -6    3.73    0.70 
  12  -1   6    2.92    0.68 
 -12   1  -6    3.40    0.66 
  12   1   6    3.52    0.79 
  12   1   6    4.07    0.81 
 -13  -1  -6    2.20    0.55 
  13   1   6    1.29    0.54 
  13   1   6    2.04    0.69 
 -14  -1  -6    2.63    0.60 
  14   1   6    2.55    0.72 
  14   1   6    3.87    0.90 
 -13  -2   6    1.47    0.40 
 -13  -2   6   -0.10    0.52 
  13   2  -6    1.38    0.64 
 -12  -2   6    0.21    0.17 
 -12  -2   6    0.21    0.21 
 -12  -2   6   -0.38    0.38 
  12   2  -6   -0.16    0.38 
 -11  -2   6   -0.23    0.39 
 -11  -2   6   -0.15    0.18 
 -11  -2   6    0.07    0.16 
  11   2  -6   -0.49    0.33 
 -10  -2   6    0.13    0.18 
 -10  -2   6   -0.42    0.27 
 -10  -2   6    0.01    0.13 
  10   2  -6   -0.21    0.29 
   9  -2  -6    2.42    0.58 
  -9  -2   6    2.67    0.40 
  -9  -2   6    1.77    0.31 
   9  -2  -6    2.90    0.54 
  -9  -2   6    1.83    0.66 
   9   2  -6    2.64    0.53 
   9   2  -6    2.02    0.50 
   8  -2  -6    2.74    0.58 
  -8  -2   6    3.91    0.42 
  -8  -2   6    2.20    0.63 
  -8  -2   6    3.75    0.38 
   8  -2  -6    3.76    0.57 
  -8   2   6    2.53    0.53 
   8   2  -6    4.03    0.57 
   8   2  -6    3.02    0.56 
   7  -2  -6    8.16    0.69 
  -7  -2   6    8.97    0.43 
   7  -2  -6    7.15    0.85 
  -7  -2   6    8.12    0.44 
  -7  -2   6    7.16    0.97 
  -7   2   6    9.06    0.74 
   7   2  -6    8.95    0.67 
   7   2  -6    7.03    0.78 
  -7   2   6    8.80    0.57 
  -6  -2   6    9.24    1.06 
   6  -2  -6    6.19    0.79 
  -6   2   6    6.67    0.50 
   6   2  -6    5.97    0.52 
   6   2  -6    6.09    0.66 
  -6   2   6    5.98    0.68 
   5  -2  -6    0.34    0.25 
  -5  -2   6    0.74    0.31 
   5   2  -6   -0.14    0.16 
  -5   2   6    0.22    0.19 
  -5   2   6    0.16    0.16 
   5   2  -6    0.07    0.14 
  -4  -2   6    0.54    0.28 
   4  -2  -6    0.90    0.32 
   4   2  -6    0.02    0.16 
  -4   2   6    0.46    0.23 
   4   2  -6    0.26    0.15 
  -4   2   6    0.21    0.18 
   3  -2  -6    0.48    0.27 
  -3  -2   6    0.31    0.25 
  -3   2   6   -0.06    0.16 
   3   2  -6    0.10    0.15 
   3   2  -6    0.02    0.11 
  -3   2   6   -0.02    0.14 
  -2  -2   6   15.97    1.04 
   2  -2  -6   15.00    0.94 
  -2   2   6   16.22    0.85 
   2   2  -6   15.64    0.60 
  -2   2   6   17.19    0.77 
   2   2  -6   15.10    0.69 
   2   2  -6   15.45    0.88 
   1  -2  -6    7.43    0.82 
  -1  -2   6    6.00    0.34 
  -1  -2   6    6.18    0.75 
  -1  -2   6    5.65    0.31 
   1   2  -6    5.00    0.40 
   1   2  -6    5.40    0.33 
   1   2  -6    5.53    0.61 
  -1   2   6    4.79    0.55 
   0  -2   6   24.78    0.65 
   0  -2   6   25.79    1.27 
   0  -2   6   25.92    0.69 
   0  -2  -6   25.08    1.26 
   0   2  -6   27.32    1.21 
   0   2  -6   24.95    0.73 
   0   2   6   25.31    1.17 
   1  -2   6    0.39    0.12 
   1  -2   6    0.24    0.24 
   1  -2   6    0.51    0.12 
  -1   2  -6    0.68    0.14 
  -1   2  -6    0.14    0.22 
   1   2   6    0.58    0.29 
   1   2   6    0.46    0.22 
   2  -2   6    0.23    0.12 
  -2   2  -6    0.12    0.15 
  -2   2  -6    0.15    0.10 
  -2   2  -6    0.17    0.11 
   2   2   6   -0.05    0.16 
   2   2   6    1.10    0.27 
  -2   2  -6   -0.12    0.19 
   2   2   6    0.27    0.23 
   3  -2   6    0.85    0.19 
  -3   2  -6    0.88    0.19 
   3   2   6    0.68    0.22 
   3   2   6    0.27    0.25 
  -3   2  -6    0.96    0.19 
  -3   2  -6    0.96    0.32 
  -3   2  -6    0.41    0.20 
   3   2   6    0.44    0.22 
  -4  -2  -6    1.61    0.15 
  -4  -2  -6    1.61    0.15 
   4  -2   6    1.57    0.27 
   4   2   6    1.27    0.27 
   4   2   6    1.35    0.43 
  -4   2  -6    1.50    0.19 
   4   2   6    1.47    0.36 
  -4   2  -6    1.96    0.46 
  -4   2  -6    1.25    0.31 
  -4   2  -6    1.17    0.23 
   5  -2   6    0.54    0.21 
  -5  -2  -6    0.74    0.16 
  -5  -2  -6    0.65    0.16 
  -5   2  -6    0.12    0.20 
   5   2   6    1.40    0.45 
  -5   2  -6    0.32    0.27 
   5   2   6    0.64    0.28 
  -6  -2  -6    4.05    0.42 
  -6  -2  -6    4.07    0.46 
   6  -2   6    4.18    0.50 
  -6  -2  -6    4.07    0.36 
   6   2   6    5.01    0.69 
  -6   2  -6    4.54    0.60 
  -6   2  -6    3.84    0.61 
  -6   2  -6    4.18    0.47 
   6   2   6    3.20    0.65 
   7  -2   6   -0.19    0.12 
  -7  -2  -6    0.03    0.14 
  -7  -2  -6    0.38    0.19 
  -7  -2  -6    0.37    0.21 
  -7   2  -6   -0.19    0.21 
   7   2   6    0.33    0.33 
  -7   2  -6    0.12    0.27 
   7   2   6   -0.22    0.31 
  -7   2  -6    0.48    0.24 
  -8  -2  -6    0.43    0.23 
  -8  -2  -6    0.03    0.16 
  -8  -2  -6    0.09    0.17 
   8  -2   6   -0.07    0.20 
   8   2   6    0.22    0.32 
  -8   2  -6    0.12    0.26 
  -8   2  -6    0.06    0.30 
  -8   2  -6    0.24    0.23 
   8   2   6    0.29    0.36 
  -9  -2  -6    0.08    0.19 
  -9  -2  -6    0.01    0.18 
   9  -2   6   -0.01    0.27 
  -9  -2  -6    0.26    0.21 
   9   2   6    0.06    0.39 
   9   2   6   -0.14    0.32 
 -10  -2  -6    0.43    0.26 
 -10  -2  -6    0.22    0.24 
 -10  -2  -6    0.16    0.21 
  10   2   6    0.28    0.43 
  10   2   6    0.15    0.37 
 -11  -2  -6    0.11    0.21 
  11   2   6    0.36    0.47 
  11   2   6   -0.62    0.32 
 -12  -2  -6    0.14    0.26 
  12   2   6    0.15    0.40 
  12   2   6    0.64    0.55 
 -13  -2  -6   -0.12    0.19 
  13   2   6    0.93    0.61 
  13   2   6   -0.41    0.48 
  12   3  -6    0.38    0.48 
 -11  -3   6    2.47    0.92 
  11   3  -6    2.84    0.71 
 -10  -3   6    0.03    0.50 
  10   3  -6   -0.06    0.41 
   9   3  -6    7.64    0.95 
  -8  -3   6    0.22    0.42 
   8   3  -6   -0.04    0.28 
  -8   3   6    0.24    0.19 
  -7  -3   6   15.97    1.71 
  -7   3   6   16.46    0.82 
   7   3  -6   15.86    1.04 
  -6  -3   6    0.74    0.47 
  -6   3   6    0.86    0.26 
  -6   3   6    0.41    0.38 
   6   3  -6    0.57    0.28 
  -5  -3   6   23.51    1.62 
   5   3  -6   25.53    1.13 
  -5   3   6   25.81    1.08 
  -5   3   6   24.22    1.13 
  -4  -3   6    4.77    0.85 
   4   3  -6    2.81    0.42 
  -4   3   6    3.92    0.51 
  -4   3   6    3.61    0.51 
  -3  -3   6   30.16    1.73 
  -3   3   6   29.69    1.29 
   3   3  -6   29.33    1.09 
  -3   3   6   29.69    1.14 
  -2  -3   6   21.35    1.43 
   2   3  -6   21.26    0.86 
  -2   3   6   22.45    1.17 
  -2   3   6   24.53    0.98 
  -1  -3   6   39.60    1.92 
  -1   3   6   36.23    1.72 
   1   3  -6   39.10    1.17 
  -1   3   6   36.65    1.59 
   0  -3   6    6.96    0.92 
   0   3   6    6.85    0.83 
   0   3   6    6.86    0.84 
   1   3   6   39.91    1.77 
   1   3   6   43.72    1.79 
   2   3   6   16.12    1.05 
   2   3   6   13.62    0.82 
   2   3   6   14.56    1.10 
   3   3   6   16.74    0.95 
   3   3   6   17.59    1.05 
  -3   3  -6   17.32    0.83 
   3   3   6   15.91    1.18 
   4   3   6   29.43    1.30 
  -4   3  -6   25.97    1.11 
   4   3   6   29.44    1.29 
   4   3   6   27.83    1.59 
  -4   3  -6   26.95    0.82 
  -5   3  -6    8.42    0.33 
  -5   3  -6    8.46    0.40 
   5   3   6    7.54    0.65 
  -5   3  -6    8.97    0.69 
   5   3   6    8.68    0.78 
   5   3   6    8.69    1.06 
   6   3   6   14.06    1.24 
   6   3   6   13.98    1.01 
   7   3   6    4.61    0.70 
   7   3   6    4.65    0.88 
   8   3   6    9.95    1.25 
   8   3   6   10.89    1.14 
  -9  -3  -6    1.29    0.43 
   9   3   6    1.49    0.65 
   9   3   6    1.12    0.51 
  10   3   6    5.57    0.95 
  10   3   6    6.10    1.11 
  11   3   6    0.38    0.56 
  11   3   6    1.15    0.54 
   9   4  -6    0.37    0.37 
  -8  -4   6   10.33    1.83 
   8   4  -6   10.80    1.08 
  -7  -4   6    4.47    1.11 
   7   4  -6    2.73    0.56 
  -6  -4   6   25.01    1.99 
   6   4  -6   25.44    1.27 
  -6   4   6   25.97    1.18 
  -5  -4   6    4.37    0.99 
  -5   4   6    4.85    0.65 
   5   4  -6    4.15    0.57 
  -4  -4   6   55.41    2.79 
   4   4  -6   56.44    1.75 
  -4   4   6   55.67    1.99 
  -3  -4   6    3.14    0.83 
   3   4  -6    5.06    0.54 
  -3   4   6    4.17    0.69 
  -2  -4   6   40.92    2.29 
  -2   4   6   41.75    1.87 
   2   4  -6   44.12    1.35 
  -1   4   6   10.78    1.02 
   0   4   6   35.59    1.82 
   1   4   6   21.66    1.48 
   1   4   6   20.89    1.03 
   2   4   6   41.10    2.06 
   2   4   6   38.38    1.47 
   3   4   6   16.84    0.99 
   3   4   6   16.81    1.37 
   4   4   6   18.12    1.09 
   4   4   6   24.95    1.68 
   5   4   6   11.38    1.37 
   5   4   6    7.83    0.85 
   6   4   6   10.20    1.02 
   6   4   6   11.98    1.56 
   7   4   6    7.93    0.93 
   7   4   6    8.59    1.30 
   8   4   6    3.17    0.86 
   8   4   6    5.21    0.82 
   9   4   6    4.58    0.83 
   9   4   6    5.40    1.22 
   4   5  -6    2.14    0.43 
  -3   5   6   10.02    1.18 
  -2   5   6    4.33    0.82 
  -1   5   6   15.98    1.41 
   0   5   6    2.45    0.44 
   0   5   6    4.25    0.96 
   1   5   6    7.69    1.22 
   1   5   6    7.01    0.70 
   2   5   6    2.80    0.48 
   2   5   6    3.06    0.84 
   3   5   6    4.91    1.03 
   3   5   6    5.16    0.66 
  14   0  -7    0.17    0.48 
  13   0  -7   -0.13    0.43 
  12   0  -7    0.19    0.41 
  11   0  -7   -0.63    0.32 
  10   0  -7   -0.19    0.29 
  -9   0   7    0.08    0.23 
   9   0  -7    0.16    0.23 
   9   0  -7   -0.32    0.24 
  -8   0   7    0.08    0.19 
   8   0  -7   -0.26    0.21 
   8   0  -7   -0.09    0.17 
   7   0  -7   -0.05    0.13 
   7   0  -7   -0.13    0.19 
  -7   0   7    0.10    0.17 
   6   0  -7   -0.13    0.12 
  -6   0   7   -0.14    0.13 
   6   0  -7    0.24    0.19 
   6   0  -7   -0.03    0.20 
  -5   0   7   -0.11    0.09 
   5   0  -7    0.04    0.13 
   5   0  -7   -0.07    0.12 
   5   0  -7   -0.18    0.14 
  -5   0   7   -0.07    0.15 
  -4   0   7   -0.17    0.10 
   4   0  -7    0.13    0.18 
  -4   0   7   -0.20    0.08 
   4   0  -7    0.04    0.12 
   4   0  -7   -0.22    0.08 
  -3   0   7    0.05    0.10 
   3   0  -7   -0.05    0.09 
  -3   0   7   -0.07    0.09 
   3   0  -7    0.16    0.14 
   3   0  -7   -0.04    0.13 
  -3   0   7   -0.06    0.11 
  -2   0   7    0.03    0.09 
   2   0  -7   -0.07    0.12 
  -2   0   7    0.00    0.10 
  -2   0   7    0.12    0.14 
   2   0  -7    0.14    0.12 
   2   0  -7   -0.05    0.09 
  -1   0   7   -0.08    0.06 
   1   0  -7   -0.02    0.09 
   1   0  -7   -0.08    0.07 
  -1   0   7    0.05    0.10 
  -1   0   7   -0.04    0.09 
   0   0  -7    0.12    0.11 
   0   0  -7    0.19    0.13 
   0   0   7    0.02    0.11 
   0   0   7   -0.06    0.08 
  -1   0  -7   -0.21    0.06 
   1   0   7    0.04    0.09 
   1   0   7   -0.05    0.09 
  -1   0  -7    0.26    0.16 
   1   0   7   -0.13    0.12 
  -2   0  -7   -0.02    0.11 
   2   0   7   -0.08    0.07 
   2   0   7   -0.08    0.11 
  -2   0  -7   -0.15    0.07 
   2   0   7    0.00    0.11 
   2   0   7   -0.20    0.14 
  -3   0  -7   -0.09    0.09 
   3   0   7   -0.11    0.09 
   3   0   7   -0.26    0.12 
   3   0   7    0.28    0.17 
  -3   0  -7    0.16    0.17 
  -4   0  -7    0.17    0.06 
  -4   0  -7   -0.18    0.11 
  -4   0  -7   -0.19    0.10 
  -4   0  -7    0.08    0.17 
   4   0   7   -0.09    0.12 
   4   0   7   -0.06    0.15 
   4   0   7   -0.09    0.14 
  -5   0  -7   -0.15    0.17 
   5   0   7    0.21    0.18 
   5   0   7   -0.06    0.11 
   5   0   7    0.11    0.20 
  -5   0  -7   -0.13    0.11 
  -5   0  -7   -0.05    0.06 
   6   0   7    0.17    0.18 
  -6   0  -7    0.04    0.22 
   6   0   7    0.47    0.28 
  -6   0  -7   -0.10    0.13 
  -7   0  -7    0.08    0.19 
   7   0   7    0.01    0.27 
   7   0   7    0.06    0.20 
   8   0   7    0.29    0.30 
  -8   0  -7   -0.11    0.17 
   8   0   7   -0.07    0.19 
  -9   0  -7    0.09    0.26 
   9   0   7    0.47    0.37 
   9   0   7   -0.16    0.21 
  10   0   7    0.01    0.22 
  10   0   7   -0.42    0.26 
 -10   0  -7    0.34    0.29 
  11   0   7   -0.10    0.33 
  11   0   7    0.10    0.26 
 -11   0  -7    0.04    0.28 
 -12   0  -7   -0.14    0.26 
  12   0   7   -0.06    0.26 
  12   0   7    0.20    0.41 
  13   0   7   -0.22    0.44 
 -13   0  -7    0.23    0.29 
 -14   0  -7    0.16    0.38 
  14   0   7   -0.05    0.43 
 -14  -1   7    0.65    0.43 
  14   1  -7    1.32    0.61 
  13   1  -7    0.03    0.40 
  12  -1  -7    2.64    0.67 
  12   1  -7    1.78    0.60 
  11  -1  -7    3.28    0.64 
  11   1  -7    3.29    0.60 
  11   1  -7    3.20    0.65 
  10  -1  -7    1.60    0.48 
 -10  -1   7    1.28    0.34 
  10   1  -7    1.24    0.49 
  10   1  -7    1.03    0.35 
  -9  -1   7   14.10    0.88 
   9  -1  -7   17.87    1.13 
   9   1  -7   14.76    0.96 
   9   1  -7   14.29    1.06 
   8  -1  -7    4.84    0.67 
  -8  -1   7    4.56    0.53 
   8   1  -7    3.74    0.51 
   8   1  -7    4.07    0.61 
   7  -1  -7   12.27    0.79 
  -7  -1   7   11.34    0.70 
   7  -1  -7   13.72    0.90 
   7   1  -7   14.22    0.94 
  -7   1   7   11.54    0.82 
   7   1  -7   12.99    0.81 
  -6  -1   7   22.76    0.94 
   6  -1  -7   23.34    1.05 
   6  -1  -7   24.40    0.98 
   6  -1  -7   24.48    1.12 
   6   1  -7   23.60    1.04 
   6   1  -7   24.91    1.15 
  -6   1   7   21.89    1.08 
   5  -1  -7   34.98    1.30 
   5  -1  -7   34.25    1.26 
  -5  -1   7   34.69    1.13 
   5  -1  -7   34.41    1.14 
  -5   1   7   35.40    1.16 
   5   1  -7   33.67    1.21 
   5   1  -7   35.12    1.32 
  -5   1   7   34.55    1.30 
   4  -1  -7   18.73    0.91 
   4  -1  -7   19.53    0.91 
  -4  -1   7   18.99    0.76 
   4  -1  -7   20.11    0.79 
  -4   1   7   20.96    1.05 
   4   1  -7   18.77    0.89 
  -4   1   7   19.61    0.91 
  -4   1   7   20.62    0.84 
   4   1  -7   19.50    0.83 
   3  -1  -7   90.02    2.29 
  -3  -1   7   85.94    1.94 
  -3  -1   7   89.81    2.33 
  -3  -1   7   92.37    2.32 
   3  -1  -7   87.77    1.99 
   3   1  -7   86.98    2.15 
  -3   1   7   88.58    2.18 
   3   1  -7   89.32    2.08 
  -3   1   7   91.44    2.12 
  -3   1   7   86.57    2.07 
  -2  -1   7    8.94    0.46 
   2  -1  -7    8.74    0.62 
   2  -1  -7    9.31    0.49 
  -2  -1   7   10.08    0.55 
  -2  -1   7    9.43    0.63 
  -2   1   7    9.17    0.57 
   2   1  -7    8.85    0.51 
   2   1  -7    9.50    0.54 
  -2   1   7    9.62    0.57 
  -2   1   7    9.71    0.54 
   2   1  -7    9.40    0.58 
  -1  -1   7  174.46    3.21 
  -1  -1   7  173.18    3.62 
  -1  -1   7  171.72    3.36 
   1  -1  -7  171.28    3.73 
   1  -1  -7  175.95    3.29 
  -1   1   7  173.18    3.50 
  -1   1   7  173.05    3.52 
   1   1  -7  171.55    3.37 
   1   1  -7  167.79    3.34 
  -1   1   7  175.24    3.38 
   0  -1  -7   26.64    0.86 
   0  -1  -7   23.99    1.09 
   0  -1   7   27.18    0.91 
   0  -1   7   25.32    0.78 
   0  -1   7   25.17    1.02 
   0   1  -7   26.69    0.90 
   0   1  -7   26.66    0.88 
  -1  -1  -7  275.51    4.94 
   1  -1   7  273.04    5.00 
   1  -1   7  278.66    5.13 
  -1  -1  -7  274.23    5.46 
   1  -1   7  272.62    4.81 
   1  -1   7  277.39    5.21 
  -1   1  -7  278.86    5.08 
   1   1   7  273.53    5.31 
  -1   1  -7  277.63    4.90 
   1   1   7  285.55    5.06 
  -1   1  -7  266.90    4.99 
  -2  -1  -7   19.18    1.00 
   2  -1   7   19.71    0.86 
   2  -1   7   21.15    0.77 
   2  -1   7   21.83    0.90 
  -2  -1  -7   21.47    0.81 
  -2   1  -7   19.21    0.70 
   2   1   7   21.00    0.94 
   2   1   7   20.17    0.82 
  -2   1  -7   20.30    0.83 
   2   1   7   20.26    0.98 
  -2   1  -7   19.76    0.80 
   3  -1   7  196.46    3.62 
  -3  -1  -7  198.73    3.82 
  -3  -1  -7  189.14    4.23 
   3  -1   7  190.86    3.89 
   3   1   7  196.29    3.85 
  -3   1  -7  189.57    3.77 
  -3   1  -7  187.78    3.76 
   3   1   7  183.30    4.06 
  -3   1  -7  190.81    3.57 
  -3   1  -7  191.46    3.96 
   3   1   7  186.17    3.16 
   3   1   7  195.10    4.08 
   4  -1   7   28.34    0.90 
   4  -1   7   28.24    1.13 
  -4  -1  -7   28.00    1.07 
  -4   1  -7   26.99    0.90 
  -4   1  -7   26.73    1.14 
   4   1   7   29.39    1.10 
   4   1   7   27.20    1.21 
  -4   1  -7   26.95    1.01 
  -4   1  -7   27.48    1.03 
   4   1   7   26.98    1.19 
  -5  -1  -7  154.05    3.39 
   5  -1   7  153.77    3.46 
   5  -1   7  143.33    2.95 
  -5   1  -7  149.49    3.03 
  -5   1  -7  150.16    3.24 
   5   1   7  151.96    3.61 
   5   1   7  153.89    3.62 
  -5   1  -7  152.95    3.53 
  -5   1  -7  153.92    3.31 
   5   1   7  165.73    4.30 
   6  -1   7    2.14    0.39 
  -6  -1  -7    2.11    0.38 
   6  -1   7    3.43    0.37 
  -6   1  -7    3.08    0.44 
   6   1   7    2.36    0.46 
  -6   1  -7    3.33    0.54 
  -6   1  -7    2.73    0.41 
   6   1   7    2.93    0.53 
  -7  -1  -7  101.63    2.64 
  -7  -1  -7   94.56    1.87 
   7  -1   7   94.05    2.65 
   7  -1   7   91.84    2.03 
   7   1   7   95.40    2.75 
   7   1   7   96.95    2.84 
  -7   1  -7   96.95    2.75 
  -7   1  -7   94.29    2.52 
  -8  -1  -7    0.35    0.14 
   8  -1   7    0.57    0.31 
   8  -1   7    0.67    0.18 
  -8  -1  -7    0.49    0.27 
  -8   1  -7    0.41    0.25 
  -8   1  -7    0.51    0.33 
   8   1   7    0.33    0.30 
   8   1   7    0.51    0.35 
  -9  -1  -7   45.01    1.77 
   9  -1   7   45.47    1.86 
   9  -1   7   45.34    1.20 
  -9  -1  -7   42.56    1.22 
  -9   1  -7   43.20    1.71 
   9   1   7   43.07    1.84 
   9   1   7   46.42    2.00 
 -10  -1  -7    0.52    0.21 
  10  -1   7    0.49    0.35 
 -10  -1  -7    0.82    0.32 
  10  -1   7    0.90    0.21 
  10   1   7    0.85    0.43 
  10   1   7    0.22    0.36 
 -10   1  -7    0.11    0.28 
 -11  -1  -7   20.88    1.28 
  11  -1   7   19.04    1.35 
  11   1   7   17.65    1.41 
 -11   1  -7   20.52    1.29 
  11   1   7   22.70    1.41 
 -12  -1  -7    0.06    0.25 
 -12   1  -7    0.12    0.36 
  12   1   7   -0.39    0.32 
  12   1   7   -0.11    0.34 
 -13  -1  -7    4.41    0.75 
  13   1   7    6.25    1.08 
  13   1   7    4.51    0.86 
 -14  -1  -7    0.62    0.41 
  14   1   7   -0.46    0.46 
  14   1   7    1.13    0.56 
 -13  -2   7    1.37    0.40 
  13   2  -7    0.80    0.53 
 -12  -2   7    5.39    0.68 
  12   2  -7    5.75    0.95 
 -11  -2   7   10.70    0.78 
 -11  -2   7   10.30    0.71 
  11   2  -7    8.75    1.04 
 -10  -2   7   15.32    0.80 
 -10  -2   7   15.37    0.86 
  10   2  -7   15.52    1.22 
  -9  -2   7    5.88    0.48 
   9  -2  -7    5.80    0.74 
  -9  -2   7    6.37    0.53 
  -9  -2   7    6.21    1.04 
   9   2  -7    8.05    0.94 
   8  -2  -7   15.51    0.96 
  -8  -2   7   14.28    0.65 
  -8  -2   7   15.99    0.74 
  -8  -2   7   13.21    1.42 
  -8   2   7   15.80    1.02 
   8   2  -7   13.81    0.91 
   8   2  -7   15.12    1.05 
   7  -2  -7    8.36    0.71 
  -7  -2   7    8.71    0.48 
   7  -2  -7    9.56    1.07 
  -7  -2   7    8.57    1.10 
  -7  -2   7    8.57    0.44 
   7   2  -7    9.38    0.70 
  -7   2   7    8.10    0.72 
  -7   2   7    8.81    0.60 
   7   2  -7    8.62    0.85 
  -6  -2   7   43.57    2.00 
   6  -2  -7   37.91    1.66 
   6  -2  -7   40.64    1.44 
  -6  -2   7   40.86    0.88 
   6   2  -7   42.57    1.44 
  -6   2   7   41.56    1.35 
  -6   2   7   39.28    1.50 
   6   2  -7   43.04    1.58 
   5  -2  -7   42.14    1.71 
  -5  -2   7   43.85    1.92 
  -5   2   7   43.04    1.37 
  -5   2   7   43.04    1.50 
   5   2  -7   39.59    1.45 
   5   2  -7   41.61    1.36 
   4  -2  -7  124.64    3.29 
  -4  -2   7  129.27    3.54 
  -4   2   7  121.50    2.89 
  -4   2   7  126.27    2.84 
   4   2  -7  126.05    2.76 
   4   2  -7  125.87    2.89 
   3  -2  -7   65.71    2.19 
  -3  -2   7   73.89    2.41 
   3   2  -7   65.78    1.66 
  -3   2   7   64.99    1.85 
   3   2  -7   63.48    1.76 
  -3   2   7   65.51    1.84 
  -2  -2   7  158.29    3.95 
   2  -2  -7  160.87    3.86 
   2   2  -7  155.77    3.09 
  -2   2   7  158.34    3.35 
  -2   2   7  155.08    3.48 
   2   2  -7  158.34    3.26 
  -1  -2   7   78.36    1.77 
   1  -2  -7   77.15    2.43 
  -1  -2   7   80.42    2.48 
   1   2  -7   82.32    2.29 
   1   2  -7   78.84    1.93 
  -1   2   7   80.77    2.25 
   1   2  -7   77.82    1.79 
   0  -2   7  163.04    3.99 
   0  -2   7  162.81    3.12 
   0   2  -7  170.16    3.20 
   0   2   7  172.43    3.86 
   1  -2   7   40.84    1.65 
   1  -2   7   41.03    1.10 
   1   2   7   41.39    1.60 
  -1   2  -7   41.49    1.56 
  -1   2  -7   42.17    1.14 
  -1   2  -7   41.66    1.19 
   1   2   7   42.04    1.44 
   2  -2   7  181.44    3.41 
   2   2   7  179.15    3.74 
  -2   2  -7  177.99    3.42 
  -2   2  -7  181.02    4.10 
   2   2   7  183.94    3.88 
  -2   2  -7  182.86    3.43 
   2   2   7  177.94    4.17 
   3  -2   7   23.36    0.85 
  -3  -2  -7   23.19    0.53 
  -3  -2  -7   23.28    0.52 
  -3   2  -7   22.15    0.98 
  -3   2  -7   23.77    1.19 
   3   2   7   21.88    1.08 
   3   2   7   23.08    0.92 
   3   2   7   23.51    1.24 
  -3   2  -7   22.21    0.83 
  -3   2  -7   22.49    0.75 
  -4  -2  -7  207.04    3.56 
   4  -2   7  200.60    3.92 
  -4  -2  -7  204.67    3.57 
  -4   2  -7  198.10    3.90 
  -4   2  -7  205.02    4.54 
   4   2   7  196.51    3.81 
  -4   2  -7  193.69    3.58 
   4   2   7  208.30    4.72 
   4   2   7  199.49    4.40 
  -4   2  -7  199.27    4.23 
  -5  -2  -7   13.74    0.61 
   5  -2   7   14.75    0.76 
  -5  -2  -7   14.24    0.60 
   5   2   7   14.14    0.94 
   5   2   7   14.10    1.05 
  -5   2  -7   13.74    0.51 
  -5   2  -7   12.87    0.94 
  -5   2  -7   13.69    0.73 
  -5   2  -7   13.22    0.84 
  -6  -2  -7  195.31    3.72 
   6  -2   7  192.28    4.01 
  -6  -2  -7  184.91    3.77 
   6   2   7  194.81    4.71 
   6   2   7  190.42    4.45 
  -6   2  -7  189.59    3.99 
  -6   2  -7  186.19    4.26 
  -6   2  -7  194.18    4.48 
  -7  -2  -7    2.65    0.38 
  -7  -2  -7    1.83    0.34 
   7   2   7    2.27    0.54 
  -7   2  -7    1.92    0.46 
  -7   2  -7    2.18    0.50 
  -7   2  -7    1.77    0.35 
   7   2   7    1.99    0.52 
  -8  -2  -7   67.73    1.88 
  -8  -2  -7   59.67    1.90 
   8  -2   7   64.02    2.05 
  -8  -2  -7   62.53    1.74 
  -8   2  -7   65.34    2.34 
   8   2   7   65.95    2.42 
   8   2   7   66.42    2.53 
  -9  -2  -7   -0.06    0.18 
  -9  -2  -7    0.03    0.18 
  -9  -2  -7    0.37    0.20 
   9   2   7    0.00    0.35 
  -9   2  -7    0.72    0.40 
   9   2   7    0.49    0.37 
 -10  -2  -7   23.46    1.17 
 -10  -2  -7   22.55    1.21 
  10   2   7   25.92    1.66 
  10   2   7   23.80    1.56 
 -11  -2  -7    0.16    0.25 
  11   2   7    0.03    0.42 
  11   2   7    0.09    0.40 
 -12  -2  -7   20.96    1.26 
  12   2   7   19.78    1.58 
  12   2   7   20.48    1.59 
 -13  -2  -7    0.34    0.29 
  13   2   7    1.07    0.65 
  13   2   7    1.70    0.72 
  11   3  -7    4.33    0.82 
 -10  -3   7    0.44    0.61 
  10   3  -7    0.97    0.50 
  -9  -3   7   16.74    1.98 
   9   3  -7   18.46    1.28 
  -8  -3   7    3.86    0.96 
   8   3  -7    3.89    0.66 
  -8   3   7    4.40    0.52 
  -7  -3   7   13.05    1.51 
  -7   3   7   12.12    0.75 
   7   3  -7   11.28    0.91 
  -6  -3   7   19.62    1.56 
  -6   3   7   19.12    0.95 
   6   3  -7   19.03    1.07 
  -5  -3   7   15.20    1.62 
   5   3  -7   13.10    0.86 
  -5   3   7   14.71    0.86 
  -5   3   7   13.91    0.89 
  -4  -3   7   29.30    1.77 
  -4   3   7   27.33    1.19 
  -4   3   7   30.40    1.27 
   4   3  -7   29.72    1.20 
   4   3  -7   29.06    1.25 
  -3  -3   7   33.17    1.86 
  -3   3   7   33.51    1.42 
   3   3  -7   32.56    1.21 
  -3   3   7   33.16    1.27 
  -2  -3   7   19.84    1.43 
  -2   3   7   21.43    0.98 
   2   3  -7   21.16    0.92 
  -2   3   7   21.46    1.18 
  -1  -3   7   52.56    2.27 
  -1   3   7   50.48    1.58 
  -1   3   7   52.71    1.96 
   0  -3   7   19.10    1.35 
   0   3   7   20.41    1.24 
   0   3   7   19.25    1.22 
   1   3   7   42.74    1.85 
   1   3   7   43.34    1.79 
   2   3   7   25.05    1.44 
   2   3   7   24.07    1.27 
   2   3   7   25.71    1.17 
  -3   3  -7   39.48    1.14 
   3   3   7   38.39    1.53 
   3   3   7   39.95    1.58 
   3   3   7   37.69    1.83 
  -4   3  -7   19.36    0.70 
   4   3   7   17.81    1.00 
   4   3   7   21.22    1.15 
   4   3   7   22.80    1.44 
  -4   3  -7   19.40    0.99 
   5   3   7   34.20    1.32 
  -5   3  -7   34.17    1.41 
   5   3   7   33.52    1.53 
   5   3   7   35.01    1.83 
   6   3   7    0.57    0.50 
   6   3   7    0.69    0.36 
   7   3   7   23.65    1.64 
   7   3   7   21.82    1.35 
   8   3   7   -0.05    0.35 
   8   3   7    0.46    0.50 
   9   3   7   16.09    1.72 
   9   3   7   16.83    1.33 
  10   3   7    0.38    0.50 
  10   3   7   -0.07    0.40 
  11   3   7    7.42    1.23 
  11   3   7    8.91    1.26 
   9   4  -7    0.50    0.41 
   8   4  -7    0.26    0.36 
  -7  -4   7   -0.07    0.54 
   7   4  -7    0.05    0.29 
  -6  -4   7    0.59    0.55 
  -6   4   7    0.50    0.30 
   6   4  -7    0.18    0.28 
  -5  -4   7    0.25    0.51 
   5   4  -7    0.50    0.28 
  -5   4   7    0.30    0.32 
  -4  -4   7    0.27    0.47 
  -4   4   7    0.93    0.39 
   4   4  -7    0.02    0.24 
  -3  -4   7    1.43    0.58 
  -3   4   7    2.07    0.57 
   3   4  -7    2.03    0.40 
  -2  -4   7    1.01    0.55 
  -2   4   7    1.56    0.52 
  -1   4   7    0.07    0.37 
   0   4   7   -0.09    0.34 
   1   4   7    0.52    0.40 
   1   4   7    0.58    0.30 
   2   4   7    0.07    0.24 
   2   4   7    0.28    0.42 
   3   4   7    1.77    0.61 
   3   4   7    2.13    0.47 
   4   4   7    1.06    0.57 
   4   4   7    0.64    0.31 
   5   4   7    0.85    0.52 
   5   4   7    0.39    0.32 
   6   4   7    0.35    0.50 
   6   4   7    1.06    0.40 
   7   4   7    0.19    0.30 
   7   4   7   -0.01    0.46 
   8   4   7    0.31    0.37 
   8   4   7    1.00    0.68 
  -3   5   7    1.38    0.54 
  -2   5   7    0.79    0.51 
  -1   5   7    1.05    0.58 
   0   5   7    1.70    0.40 
   0   5   7    3.52    0.89 
   1   5   7    3.37    0.55 
   1   5   7    4.29    0.98 
   2   5   7   -0.15    0.47 
   2   5   7    0.41    0.28 
   3   5   7    1.73    0.44 
  14   0  -8    1.50    0.63 
  13   0  -8   10.24    1.19 
  12   0  -8    0.12    0.39 
  11   0  -8   38.44    1.89 
  10   0  -8    2.02    0.51 
  10   0  -8    2.98    0.66 
   9   0  -8   56.63    1.96 
  -9   0   8   55.53    1.93 
   9   0  -8   55.55    2.09 
  -8   0   8    0.81    0.31 
   8   0  -8    1.26    0.34 
   8   0  -8    0.29    0.30 
   7   0  -8  115.92    3.03 
   7   0  -8  111.10    2.83 
   6   0  -8    4.50    0.49 
   6   0  -8    5.85    0.63 
  -6   0   8    6.64    0.56 
   5   0  -8  248.49    5.10 
   5   0  -8  248.23    4.96 
  -5   0   8  257.00    4.97 
   5   0  -8  258.43    4.96 
  -5   0   8  259.46    5.45 
   4   0  -8   52.65    1.65 
  -4   0   8   51.47    1.60 
   4   0  -8   50.79    1.52 
   4   0  -8   50.06    1.50 
  -4   0   8   52.99    1.53 
   3   0  -8  277.50    5.16 
  -3   0   8  261.62    5.12 
   3   0  -8  275.23    5.31 
   3   0  -8  272.71    5.15 
  -3   0   8  282.84    5.27 
  -3   0   8  284.09    5.18 
   2   0  -8   21.83    0.88 
  -2   0   8   22.12    0.92 
   2   0  -8   22.35    0.88 
  -2   0   8   23.52    0.92 
  -2   0   8   22.25    0.87 
  -1   0   8  320.72    5.70 
  -1   0   8  303.84    5.59 
  -1   0   8  312.48    5.72 
   1   0  -8  304.56    5.64 
   1   0  -8  306.04    5.63 
   0   0  -8   44.20    1.33 
   0   0   8   46.04    1.36 
   0   0   8   45.38    1.31 
   0   0  -8   44.97    1.35 
  -1   0  -8  511.84    8.83 
   1   0   8  509.70    8.79 
   1   0   8  509.99    8.39 
   1   0   8  520.44    8.78 
  -1   0  -8  496.02    8.83 
   2   0   8    4.61    0.42 
   2   0   8    3.53    0.45 
  -2   0  -8    3.31    0.40 
  -2   0  -8    4.01    0.46 
   2   0   8    4.04    0.27 
   2   0   8    4.25    0.42 
  -3   0  -8  432.51    7.85 
   3   0   8  443.97    8.04 
   3   0   8  444.07    7.78 
  -3   0  -8  441.83    7.91 
   3   0   8  437.43    7.75 
   4   0   8    2.39    0.41 
  -4   0  -8    1.96    0.33 
   4   0   8    2.07    0.33 
   4   0   8    2.45    0.37 
  -4   0  -8    2.68    0.43 
  -5   0  -8  153.35    3.48 
  -5   0  -8  150.57    3.48 
   5   0   8  154.50    3.34 
   5   0   8  152.56    3.35 
  -5   0  -8  155.05    3.63 
   5   0   8  157.27    3.66 
  -6   0  -8   51.21    1.73 
   6   0   8   50.02    1.59 
   6   0   8   51.15    1.85 
  -6   0  -8   49.60    1.05 
   7   0   8  135.98    3.11 
   7   0   8  132.11    3.47 
  -7   0  -8  129.80    2.49 
  -7   0  -8  131.11    3.29 
  -8   0  -8    2.48    0.47 
   8   0   8    3.01    0.57 
   8   0   8    3.48    0.53 
  -9   0  -8  128.98    3.43 
   9   0   8  124.04    3.57 
   9   0   8  128.36    3.14 
  10   0   8   -0.12    0.30 
 -10   0  -8   -0.05    0.23 
  10   0   8   -0.06    0.23 
 -11   0  -8   27.10    1.52 
  11   0   8   26.01    1.61 
  11   0   8   26.53    1.29 
  12   0   8    7.54    1.09 
  12   0   8    8.72    0.80 
 -12   0  -8    9.13    1.07 
  13   0   8    4.68    0.97 
 -13   0  -8    4.22    0.80 
 -14   0  -8    3.14    0.72 
 -14  -1   8    4.34    0.73 
  14   1  -8    4.18    0.91 
  13   1  -8    0.27    0.46 
  12  -1  -8   15.94    1.31 
  12   1  -8   16.15    1.35 
  11  -1  -8    0.15    0.39 
  11   1  -8    0.01    0.26 
  11   1  -8   -0.08    0.34 
  10  -1  -8   14.25    1.12 
  10   1  -8   11.63    0.94 
  10   1  -8   13.46    1.12 
   9  -1  -8    0.79    0.40 
  -9  -1   8    0.83    0.31 
   9   1  -8    1.45    0.39 
   9   1  -8    1.16    0.44 
  -8  -1   8   33.94    1.33 
   8  -1  -8   35.30    1.56 
   8   1  -8   34.11    1.44 
   8   1  -8   36.85    1.61 
  -7  -1   8    0.18    0.16 
   7  -1  -8   -0.20    0.19 
   7  -1  -8    0.12    0.17 
   7   1  -8    0.07    0.18 
   7   1  -8    0.28    0.28 
  -7   1   8    0.05    0.21 
  -6  -1   8  116.96    2.73 
   6  -1  -8  116.92    2.75 
   6  -1  -8  121.25    3.00 
   6   1  -8  116.98    3.00 
   6   1  -8  119.50    2.88 
  -6   1   8  122.97    3.01 
  -5  -1   8    1.84    0.30 
   5  -1  -8    2.69    0.44 
   5  -1  -8    1.72    0.37 
   5  -1  -8    2.41    0.37 
   5   1  -8    3.27    0.50 
  -5   1   8    2.69    0.45 
  -5   1   8    2.36    0.39 
   5   1  -8    2.35    0.38 
   4  -1  -8  107.16    2.63 
   4  -1  -8  108.98    2.69 
  -4  -1   8  107.20    2.38 
   4  -1  -8  105.54    2.40 
  -4   1   8  105.24    2.61 
   4   1  -8  102.89    2.59 
  -4   1   8  107.66    2.49 
   4   1  -8  107.95    2.52 
   3  -1  -8   18.92    0.79 
  -3  -1   8   19.92    0.77 
   3  -1  -8   18.10    0.94 
  -3  -1   8   19.00    0.96 
  -3   1   8   20.15    0.93 
   3   1  -8   19.97    0.92 
  -3   1   8   20.20    0.92 
   3   1  -8   18.97    0.85 
  -3   1   8   19.74    0.87 
   3   1  -8   18.77    0.83 
   2  -1  -8  119.97    2.56 
  -2  -1   8  119.89    2.50 
  -2  -1   8  120.17    2.87 
   2  -1  -8  122.61    2.95 
  -2   1   8  126.51    2.80 
  -2   1   8  121.31    2.64 
  -2   1   8  125.88    2.75 
   2   1  -8  119.74    2.64 
   2   1  -8  117.95    2.64 
   2   1  -8  115.81    2.73 
  -1  -1   8    1.01    0.27 
   1  -1  -8    0.94    0.31 
  -1  -1   8    0.64    0.22 
   1  -1  -8    0.75    0.19 
  -1  -1   8    0.59    0.16 
  -1   1   8    0.42    0.19 
  -1   1   8    0.15    0.15 
  -1   1   8    0.63    0.19 
   1   1  -8    0.90    0.21 
   1   1  -8    1.36    0.26 
   0  -1   8  103.47    2.36 
   0  -1  -8  103.99    2.30 
   0  -1   8  106.12    2.22 
   0  -1  -8  107.88    2.74 
   0  -1   8  108.17    2.56 
   0   1   8  108.05    2.39 
   0   1  -8  108.13    2.33 
   0   1  -8  102.23    2.35 
   0   1   8  105.17    2.54 
   1  -1   8    0.21    0.17 
  -1  -1  -8    0.45    0.16 
   1  -1   8    0.66    0.17 
  -1  -1  -8    0.53    0.24 
   1  -1   8    0.34    0.22 
   1  -1   8    0.45    0.21 
   1   1   8    0.59    0.26 
  -1   1  -8    0.66    0.19 
  -1   1  -8    0.55    0.17 
   1   1   8    0.42    0.16 
  -1   1  -8    0.65    0.19 
   2  -1   8  100.49    2.45 
   2  -1   8   99.73    2.17 
   2  -1   8  105.41    2.31 
  -2  -1  -8  105.52    2.77 
   2  -1   8  104.06    2.44 
  -2  -1  -8  103.61    2.35 
  -2   1  -8  101.37    2.37 
   2   1   8  104.65    2.41 
   2   1   8   99.82    2.55 
  -2   1  -8  102.55    2.32 
  -2   1  -8  102.11    2.22 
   2   1   8  102.09    2.60 
   3  -1   8   24.38    0.91 
   3  -1   8   24.35    1.05 
  -3  -1  -8   26.37    1.26 
  -3  -1  -8   26.47    1.02 
  -3   1  -8   25.01    1.00 
   3   1   8   24.78    1.16 
  -3   1  -8   25.58    0.95 
   3   1   8   25.53    1.02 
   3   1   8   25.70    1.17 
  -3   1  -8   24.30    0.88 
   4  -1   8  208.76    4.01 
   4  -1   8  201.86    4.34 
  -4  -1  -8  213.89    4.29 
   4   1   8  211.44    4.54 
   4   1   8  219.15    4.53 
   4   1   8  205.51    4.52 
  -4   1  -8  208.34    4.25 
  -4   1  -8  209.73    4.02 
  -4   1  -8  207.93    4.10 
  -4   1  -8  210.29    4.44 
   5  -1   8    9.62    0.56 
  -5  -1  -8   10.44    0.71 
   5  -1   8   10.73    0.78 
  -5   1  -8    9.93    0.68 
   5   1   8   11.00    0.84 
  -5   1  -8   10.90    0.79 
   5   1   8   11.37    0.83 
  -5   1  -8   10.65    0.60 
  -5   1  -8   11.33    0.66 
   6  -1   8   78.44    2.32 
   6  -1   8   66.61    1.78 
  -6  -1  -8   81.44    2.27 
   6   1   8   79.80    2.41 
  -6   1  -8   78.00    2.19 
  -6   1  -8   79.95    2.40 
  -6   1  -8   78.96    2.05 
   6   1   8   79.57    2.46 
   7  -1   8    1.16    0.37 
   7  -1   8    0.46    0.17 
  -7  -1  -8    0.59    0.28 
  -7   1  -8   -0.03    0.18 
   7   1   8    0.75    0.37 
   7   1   8    0.35    0.33 
  -7   1  -8    0.15    0.20 
  -7   1  -8    0.23    0.27 
  -8  -1  -8   18.82    1.08 
   8  -1   8   18.27    1.14 
   8  -1   8   17.69    0.74 
   8   1   8   19.11    1.26 
  -8   1  -8   17.15    0.93 
  -8   1  -8   18.52    1.07 
   8   1   8   18.21    1.16 
  -9  -1  -8    3.74    0.61 
  -9  -1  -8    4.12    0.29 
   9  -1   8    3.55    0.64 
   9  -1   8    4.23    0.38 
   9   1   8    3.54    0.67 
  -9   1  -8    4.47    0.58 
  -9   1  -8    3.88    0.61 
   9   1   8    3.85    0.68 
  10  -1   8   31.02    1.01 
 -10  -1  -8   35.05    1.61 
  10  -1   8   33.10    1.68 
  10   1   8   32.06    1.64 
 -10   1  -8   31.99    1.57 
  10   1   8   32.57    1.78 
 -11  -1  -8   12.51    1.03 
  11  -1   8   12.61    1.28 
  11   1   8   14.13    1.16 
  11   1   8   12.07    1.31 
 -11   1  -8   10.92    1.12 
 -12  -1  -8   15.65    1.18 
  12   1   8   17.96    1.48 
  12   1   8   15.40    1.26 
 -13  -1  -8    0.19    0.30 
  13   1   8    0.64    0.47 
  13   1   8   -0.13    0.45 
 -13  -2   8    0.22    0.25 
  13   2  -8    0.22    0.49 
 -12  -2   8    0.14    0.20 
 -12  -2   8   -0.50    0.42 
  12   2  -8    0.19    0.47 
 -11  -2   8    0.03    0.46 
 -11  -2   8    0.88    0.30 
 -11  -2   8    1.27    0.31 
  11   2  -8    0.03    0.38 
 -10  -2   8    0.38    0.24 
 -10  -2   8    0.03    0.42 
 -10  -2   8    0.14    0.14 
  10   2  -8    0.49    0.40 
  -9  -2   8    0.01    0.34 
   9  -2  -8    0.94    0.40 
  -9  -2   8    0.74    0.22 
  -9  -2   8    0.64    0.24 
   9   2  -8    0.65    0.38 
  -8  -2   8    0.32    0.16 
  -8  -2   8    0.13    0.18 
  -8  -2   8    0.51    0.39 
   8  -2  -8    0.47    0.30 
   8   2  -8    0.18    0.31 
  -8   2   8    0.63    0.46 
   8   2  -8    0.90    0.31 
  -7  -2   8   -0.09    0.09 
   7  -2  -8   -0.06    0.21 
  -7  -2   8    0.01    0.26 
  -7  -2   8   -0.13    0.12 
  -7   2   8    0.16    0.20 
   7   2  -8   -0.05    0.26 
  -7   2   8   -0.14    0.19 
   7   2  -8   -0.25    0.16 
  -6  -2   8    0.37    0.13 
  -6  -2   8    0.33    0.12 
  -6  -2   8    0.61    0.35 
   6   2  -8    0.25    0.24 
  -6   2   8    0.66    0.24 
  -6   2   8    0.38    0.24 
   6   2  -8    0.11    0.18 
  -5  -2   8    3.08    0.60 
   5   2  -8    2.37    0.42 
   5   2  -8    2.05    0.37 
  -5   2   8    2.25    0.43 
  -5   2   8    3.19    0.45 
  -4  -2   8    0.13    0.29 
  -4   2   8    0.21    0.21 
  -4   2   8   -0.06    0.18 
   4   2  -8   -0.07    0.17 
   4   2  -8    0.05    0.13 
  -3  -2   8   -0.07    0.23 
   3   2  -8   -0.06    0.13 
   3   2  -8    0.06    0.17 
  -3   2   8    0.64    0.26 
  -3   2   8    0.07    0.17 
  -2  -2   8    0.24    0.26 
   2   2  -8    0.12    0.13 
   2   2  -8    0.04    0.16 
  -2   2   8    0.14    0.18 
  -2   2   8    0.28    0.22 
  -1  -2   8   14.30    1.00 
  -1  -2   8   13.75    0.65 
  -1   2   8   14.00    0.87 
   1   2  -8   13.81    0.65 
   1   2  -8   15.01    0.86 
   0  -2   8    0.34    0.28 
   0  -2   8    0.11    0.13 
   0   2   8    0.39    0.24 
   0   2  -8    0.27    0.19 
   0   2  -8    0.14    0.12 
   0   2  -8    0.36    0.18 
   1  -2   8    0.54    0.19 
   1  -2   8    0.71    0.33 
  -1   2  -8    0.47    0.18 
  -1   2  -8   -0.01    0.17 
   1   2   8    0.61    0.31 
  -1   2  -8    0.34    0.14 
  -2  -2  -8    1.52    0.16 
   2  -2   8    1.25    0.25 
  -2  -2  -8    1.84    0.17 
   2  -2   8    1.83    0.43 
  -2   2  -8    1.23    0.35 
   2   2   8    1.38    0.31 
  -2   2  -8    1.85    0.30 
  -2   2  -8    1.35    0.26 
   2   2   8    1.94    0.48 
   3  -2   8    0.30    0.21 
  -3  -2  -8    1.02    0.19 
  -3  -2  -8    0.81    0.17 
   3   2   8    0.86    0.37 
   3   2   8    0.61    0.32 
   3   2   8    0.78    0.23 
  -3   2  -8    1.07    0.36 
  -3   2  -8    1.30    0.24 
  -3   2  -8    0.44    0.19 
  -4  -2  -8    0.12    0.13 
  -4  -2  -8    0.01    0.11 
   4  -2   8    0.28    0.19 
   4   2   8    0.24    0.31 
  -4   2  -8    0.00    0.18 
  -4   2  -8   -0.01    0.22 
  -4   2  -8    0.23    0.13 
  -4   2  -8    0.29    0.18 
   4   2   8   -0.09    0.13 
   4   2   8    0.02    0.22 
  -5  -2  -8    5.66    0.45 
   5  -2   8    6.11    0.60 
  -5  -2  -8    5.88    0.45 
   5   2   8    4.94    0.69 
   5   2   8    5.42    0.75 
  -5   2  -8    5.35    0.69 
  -5   2  -8    5.64    0.58 
  -5   2  -8    6.57    0.73 
  -5   2  -8    5.95    0.38 
  -6  -2  -8    2.55    0.39 
  -6  -2  -8    1.91    0.33 
   6  -2   8    1.48    0.34 
  -6   2  -8    2.42    0.43 
  -6   2  -8    2.29    0.50 
  -6   2  -8    2.03    0.48 
   6   2   8    2.49    0.56 
  -6   2  -8    2.06    0.24 
   6   2   8    2.36    0.63 
  -7  -2  -8   -0.05    0.13 
   7  -2   8    0.12    0.19 
  -7  -2  -8    0.04    0.15 
  -7   2  -8   -0.13    0.24 
   7   2   8    0.48    0.33 
  -7   2  -8    0.13    0.20 
  -7   2  -8    0.26    0.23 
   7   2   8   -0.43    0.27 
  -8  -2  -8   -0.10    0.16 
   8  -2   8   -0.28    0.20 
  -8  -2  -8    0.06    0.19 
   8   2   8   -0.20    0.33 
   8   2   8    0.36    0.34 
  -8   2  -8    0.14    0.28 
  -9  -2  -8    2.89    0.50 
  -9  -2  -8    1.94    0.41 
  -9   2  -8    2.35    0.59 
   9   2   8    1.67    0.55 
   9   2   8    2.97    0.67 
 -10  -2  -8    0.07    0.23 
 -10  -2  -8   -0.15    0.17 
  10   2   8   -0.31    0.33 
  10   2   8    0.70    0.46 
 -11  -2  -8   -0.06    0.22 
  11   2   8   -0.54    0.33 
  11   2   8    0.34    0.43 
 -12  -2  -8    0.12    0.29 
  12   2   8    0.43    0.55 
  12   2   8    0.12    0.50 
  11   3  -8    0.55    0.48 
 -10  -3   8    3.76    1.12 
  10   3  -8    3.63    0.74 
  -9  -3   8    0.17    0.55 
   9   3  -8   -0.21    0.32 
  -8  -3   8   10.02    1.50 
  -8   3   8   11.39    0.75 
   8   3  -8   11.51    1.11 
  -7  -3   8   -0.03    0.36 
   7   3  -8    0.06    0.30 
  -7   3   8    0.71    0.27 
  -6  -3   8   19.28    1.54 
   6   3  -8   17.11    1.05 
  -6   3   8   17.59    0.96 
  -5  -3   8    1.92    0.61 
  -5   3   8    2.09    0.45 
   5   3  -8    1.74    0.41 
  -4  -3   8   27.17    1.72 
  -4  -3   8   26.67    0.85 
  -4   3   8   28.75    1.25 
  -4   3   8   27.41    1.26 
   4   3  -8   26.95    1.19 
  -3  -3   8    1.01    0.50 
   3   3  -8    0.73    0.32 
  -3   3   8    1.30    0.39 
   3   3  -8    0.85    0.29 
  -3   3   8    0.38    0.26 
  -2  -3   8   33.28    1.88 
   2   3  -8   35.82    1.30 
  -2   3   8   35.72    1.55 
  -2   3   8   34.25    1.33 
  -1  -3   8    1.58    0.57 
  -1   3   8    0.97    0.29 
  -1   3   8    0.66    0.36 
   0  -3   8   34.28    1.81 
   0   3   8   35.10    1.65 
   0   3   8   33.83    1.63 
   1   3   8   10.39    0.95 
   1   3   8    9.77    1.00 
   2   3   8   35.21    1.74 
  -2   3  -8   36.41    1.19 
   2   3   8   37.71    1.51 
   2   3   8   36.72    1.58 
   3   3   8    0.11    0.26 
  -3   3  -8    0.31    0.19 
   3   3   8    0.37    0.32 
   3   3   8    0.12    0.24 
  -4   3  -8   30.63    1.12 
   4   3   8   33.31    1.50 
   4   3   8   30.59    1.29 
  -4   3  -8   31.42    1.33 
   4   3   8   33.88    1.77 
   5   3   8    0.92    0.35 
   5   3   8    0.59    0.29 
   5   3   8    0.79    0.42 
   6   3   8   15.62    1.14 
   6   3   8   16.23    1.36 
   7   3   8    4.06    0.75 
   7   3   8    5.53    1.01 
   8   3   8   10.52    1.17 
   8   3   8   12.11    1.48 
   9   3   8    0.80    0.44 
   9   3   8    1.03    0.62 
  10   3   8    4.50    1.00 
  10   3   8    4.49    0.91 
  11   3   8    0.58    0.67 
  11   3   8    0.79    0.54 
   8   4  -8    0.17    0.31 
   7   4  -8   18.40    1.22 
  -6  -4   8    0.00    0.42 
  -6   4   8   -0.06    0.24 
   6   4  -8   -0.06    0.24 
  -5  -4   8   15.75    1.90 
   5   4  -8   15.82    1.01 
  -5   4   8   14.57    1.00 
  -4  -4   8   -0.08    0.41 
   4   4  -8    0.29    0.29 
  -4   4   8    0.18    0.29 
  -3  -4   8   20.62    2.05 
  -3   4   8   19.41    1.24 
   3   4  -8   18.03    0.99 
  -2  -4   8    0.91    0.59 
  -2   4   8    0.73    0.37 
  -1  -4   8   34.49    2.14 
  -1   4   8   36.56    1.82 
   0   4   8    0.16    0.41 
   1   4   8   22.83    1.54 
   1   4   8   21.44    1.16 
   2   4   8    0.22    0.28 
   2   4   8    0.30    0.42 
   3   4   8   13.23    0.98 
   3   4   8   13.73    1.29 
   4   4   8    2.61    0.53 
   4   4   8    1.82    0.64 
   5   4   8   16.79    1.16 
   5   4   8   15.37    1.43 
   6   4   8    3.56    0.91 
   6   4   8    2.85    0.60 
   7   4   8   12.39    1.59 
   7   4   8   11.31    1.18 
   8   4   8    0.64    0.43 
   8   4   8    1.78    0.81 
  -1   5   8   -0.15    0.39 
   0   5   8    1.84    0.72 
   0   5   8    1.70    0.44 
   1   5   8    0.44    0.54 
   1   5   8    0.72    0.34 
  14   0  -9    0.08    0.56 
  13   0  -9   -0.50    0.40 
  12   0  -9   -0.29    0.38 
  11   0  -9   -0.15    0.36 
  10   0  -9   -0.22    0.28 
  10   0  -9   -0.05    0.23 
   9   0  -9   -0.23    0.27 
   9   0  -9   -0.17    0.19 
  -9   0   9   -0.38    0.29 
  -8   0   9   -0.15    0.18 
   8   0  -9   -0.03    0.27 
   8   0  -9    0.06    0.21 
   7   0  -9   -0.27    0.21 
   7   0  -9   -0.04    0.15 
  -7   0   9   -0.03    0.14 
  -6   0   9    0.02    0.16 
   6   0  -9    0.23    0.27 
   6   0  -9   -0.05    0.15 
   5   0  -9    0.21    0.21 
  -5   0   9   -0.10    0.12 
   5   0  -9   -0.33    0.18 
   4   0  -9    0.13    0.21 
  -4   0   9   -0.15    0.11 
  -4   0   9    0.10    0.19 
   4   0  -9    0.05    0.14 
   3   0  -9   -0.17    0.10 
  -3   0   9   -0.10    0.10 
  -3   0   9   -0.12    0.13 
   3   0  -9   -0.14    0.16 
   3   0  -9   -0.05    0.13 
  -3   0   9   -0.08    0.11 
   2   0  -9    0.07    0.11 
  -2   0   9   -0.04    0.09 
   2   0  -9    0.15    0.15 
  -2   0   9    0.01    0.12 
  -2   0   9    0.16    0.14 
   1   0  -9    0.05    0.12 
  -1   0   9    0.10    0.12 
   1   0  -9    0.02    0.13 
  -1   0   9    0.37    0.18 
  -1   0   9   -0.02    0.11 
   0   0  -9   -0.07    0.10 
   0   0  -9   -0.01    0.11 
   0   0   9    0.00    0.11 
   0   0   9    0.14    0.15 
   1   0   9    0.17    0.14 
  -1   0  -9    0.26    0.15 
   1   0   9   -0.14    0.08 
  -1   0  -9   -0.01    0.12 
   1   0   9    0.04    0.08 
  -2   0  -9    0.03    0.13 
   2   0   9   -0.06    0.16 
   2   0   9    0.15    0.14 
   2   0   9    0.05    0.14 
   2   0   9    0.07    0.08 
  -2   0  -9   -0.17    0.09 
   3   0   9   -0.12    0.16 
  -3   0  -9    0.05    0.15 
  -3   0  -9    0.28    0.15 
   3   0   9    0.00    0.11 
   3   0   9    0.02    0.14 
   4   0   9    0.08    0.14 
  -4   0  -9   -0.17    0.12 
   4   0   9   -0.04    0.13 
   4   0   9   -0.33    0.13 
  -4   0  -9    0.04    0.17 
  -5   0  -9   -0.03    0.16 
   5   0   9    0.07    0.17 
   5   0   9   -0.24    0.11 
   5   0   9   -0.18    0.18 
  -5   0  -9   -0.08    0.16 
   6   0   9    0.10    0.18 
  -6   0  -9   -0.13    0.16 
   6   0   9    0.07    0.18 
   6   0   9   -0.33    0.21 
   7   0   9   -0.17    0.26 
   7   0   9   -0.02    0.17 
  -7   0  -9    0.00    0.20 
  -8   0  -9    0.24    0.26 
  -8   0  -9    0.22    0.12 
   8   0   9   -0.17    0.28 
   8   0   9   -0.01    0.18 
  -9   0  -9    0.19    0.13 
   9   0   9    0.28    0.24 
   9   0   9    0.06    0.31 
  -9   0  -9   -0.02    0.28 
 -10   0  -9   -0.13    0.23 
  10   0   9   -0.03    0.20 
  10   0   9    0.43    0.40 
 -11   0  -9   -0.38    0.25 
  11   0   9    0.13    0.26 
  11   0   9    0.22    0.42 
  12   0   9    0.28    0.27 
 -12   0  -9    0.08    0.33 
  12   0   9    0.10    0.41 
 -13   0  -9   -0.36    0.32 
  13   0   9   -0.26    0.44 
  13   1  -9    4.75    0.88 
  12  -1  -9    1.35    0.56 
  12   1  -9    1.34    0.56 
  12   1  -9    0.82    0.42 
  11  -1  -9    5.68    0.85 
  11   1  -9    5.89    0.82 
  11   1  -9    5.37    0.83 
  10  -1  -9    1.18    0.49 
  10   1  -9    1.43    0.50 
  10   1  -9    1.78    0.47 
  -9  -1   9   19.80    1.06 
   9  -1  -9   21.70    1.30 
   9   1  -9   21.76    1.21 
   9   1  -9   20.13    1.30 
  -8  -1   9   11.46    0.78 
   8  -1  -9   10.56    0.90 
   8   1  -9   12.75    0.90 
   8   1  -9   11.48    0.97 
   7  -1  -9   37.40    1.57 
   7  -1  -9   37.95    1.40 
  -7  -1   9   36.27    1.36 
   7   1  -9   36.95    1.47 
   7   1  -9   39.24    1.63 
   6  -1  -9   33.04    1.24 
  -6  -1   9   30.08    1.17 
   6  -1  -9   31.64    1.38 
   6   1  -9   30.47    1.38 
   6   1  -9   33.41    1.32 
  -6   1   9   30.73    1.38 
   5  -1  -9   50.78    1.53 
   5  -1  -9   49.15    1.68 
  -5  -1   9   45.17    1.43 
   5   1  -9   44.40    1.64 
  -5   1   9   50.20    1.56 
  -5   1   9   47.25    1.66 
   5   1  -9   44.95    1.54 
   4  -1  -9   47.49    1.46 
  -4  -1   9   49.65    1.44 
  -4   1   9   49.97    1.65 
   4   1  -9   49.72    1.65 
   4   1  -9   49.14    1.56 
  -4   1   9   48.60    1.54 
   3  -1  -9   93.06    2.22 
  -3  -1   9   93.43    2.50 
   3  -1  -9   94.13    2.56 
  -3  -1   9   91.38    2.15 
   3   1  -9   90.54    2.29 
  -3   1   9   98.23    2.37 
  -3   1   9   96.59    2.44 
   3   1  -9   91.05    2.40 
   2  -1  -9  103.94    2.39 
  -2  -1   9  107.04    2.34 
  -2  -1   9  106.99    2.69 
   2  -1  -9  108.45    2.79 
  -2   1   9  106.85    2.61 
   2   1  -9  103.58    2.47 
  -2   1   9  111.60    2.59 
   2   1  -9  106.27    2.48 
   2   1  -9  103.01    2.58 
  -2   1   9  105.75    2.62 
  -1  -1   9  105.67    2.28 
   1  -1  -9  101.27    2.73 
  -1  -1   9  100.81    2.55 
   1  -1  -9  103.99    2.33 
  -1   1   9  100.99    2.52 
  -1   1   9  104.21    2.42 
   1   1  -9  101.94    2.38 
   1   1  -9  102.27    2.40 
  -1   1   9  103.00    2.51 
   0  -1  -9   62.91    1.67 
   0  -1   9   60.20    1.81 
   0  -1   9   63.91    1.59 
   0  -1  -9   64.36    2.04 
   0   1  -9   62.62    1.66 
   0   1   9   64.60    1.74 
   0   1   9   62.19    1.83 
   0   1  -9   62.30    1.72 
   1  -1   9   77.11    2.05 
  -1  -1  -9   74.82    2.29 
   1  -1   9   75.18    1.81 
  -1  -1  -9   76.69    1.93 
   1  -1   9   75.72    2.06 
  -1   1  -9   76.37    1.87 
  -1   1  -9   78.10    2.00 
   1   1   9   78.92    2.00 
   1   1   9   77.44    2.15 
  -2  -1  -9   58.01    1.65 
   2  -1   9   56.44    1.65 
   2  -1   9   57.24    1.61 
   2  -1   9   59.77    1.77 
   2  -1   9   56.86    1.50 
  -2  -1  -9   57.34    2.31 
  -2   1  -9   54.82    1.63 
   2   1   9   56.59    1.82 
   2   1   9   55.34    1.81 
  -2   1  -9   54.68    1.51 
  -2   1  -9   55.17    1.51 
   2   1   9   57.85    1.68 
   3  -1   9   31.81    1.12 
  -3  -1  -9   31.50    1.18 
   3  -1   9   32.57    1.29 
   3   1   9   31.05    1.43 
   3   1   9   29.66    1.32 
  -3   1  -9   30.44    1.07 
   3   1   9   30.60    1.31 
  -3   1  -9   28.87    1.15 
  -3   1  -9   30.77    1.06 
  -4  -1  -9   64.54    1.91 
   4  -1   9   64.86    1.76 
   4  -1   9   64.79    2.00 
  -4   1  -9   66.23    1.92 
   4   1   9   67.72    2.16 
  -4   1  -9   64.47    1.75 
   4   1   9   67.97    2.12 
  -4   1  -9   66.33    1.73 
  -5  -1  -9   13.38    0.83 
   5  -1   9   15.08    0.94 
   5  -1   9   11.73    0.66 
  -5   1  -9   12.81    0.81 
  -5   1  -9   13.52    0.72 
   5   1   9   13.76    0.96 
  -5   1  -9   14.85    0.73 
  -5   1  -9   13.54    0.91 
   5   1   9   12.85    0.91 
   6  -1   9   23.66    0.95 
   6  -1   9   24.97    1.26 
  -6  -1  -9   24.43    1.19 
   6   1   9   26.49    1.34 
  -6   1  -9   25.64    1.30 
  -6   1  -9   25.02    1.03 
  -6   1  -9   27.15    1.04 
   6   1   9   25.39    1.37 
  -6   1  -9   26.24    1.20 
   7  -1   9   21.85    0.90 
   7  -1   9   21.61    1.22 
  -7  -1  -9   23.96    1.21 
   7   1   9   23.72    1.29 
   7   1   9   24.19    1.38 
  -7   1  -9   24.62    1.34 
  -7   1  -9   24.28    1.20 
  -7   1  -9   23.03    1.01 
   8  -1   9    7.76    0.53 
  -8  -1  -9    6.95    0.77 
   8  -1   9    6.81    0.81 
   8   1   9    8.88    1.01 
  -8   1  -9    8.23    0.90 
   8   1   9    8.79    0.98 
  -8   1  -9    7.21    0.60 
  -9  -1  -9    4.71    0.66 
   9  -1   9    5.24    0.78 
   9  -1   9    5.09    0.44 
   9   1   9    4.48    0.74 
  -9   1  -9    4.37    0.70 
  -9   1  -9    4.60    0.57 
   9   1   9    4.89    0.80 
 -10  -1  -9    5.18    0.74 
  10  -1   9    3.41    0.66 
  10  -1   9    5.24    0.43 
  10   1   9    4.62    0.78 
 -10   1  -9    4.23    0.69 
  10   1   9    4.82    0.86 
  11  -1   9   -0.03    0.39 
 -11  -1  -9    0.01    0.26 
  11   1   9   -0.22    0.32 
 -11   1  -9   -0.22    0.28 
  11   1   9    0.33    0.42 
 -12  -1  -9    2.44    0.61 
  12   1   9    1.51    0.56 
  12   1   9    1.63    0.66 
 -13  -1  -9   -0.01    0.29 
  13   1   9    0.74    0.54 
  13   1   9    0.48    0.49 
 -13  -2   9    1.57    0.44 
  13   2  -9    1.17    0.65 
 -12  -2   9    6.89    0.77 
  12   2  -9    4.70    0.88 
 -11  -2   9    3.58    0.54 
 -11  -2   9    2.50    0.44 
 -11  -2   9    0.65    0.60 
  11   2  -9    3.99    0.80 
 -10  -2   9   18.35    0.96 
 -10  -2   9   13.05    1.71 
 -10  -2   9   19.06    0.92 
  10   2  -9   18.15    1.33 
  -9  -2   9    6.10    0.49 
  -9  -2   9    7.05    0.59 
  -9  -2   9    4.91    0.99 
   9  -2  -9    6.96    1.27 
   9   2  -9    5.93    0.82 
  -8  -2   9   46.35    1.41 
   8  -2  -9   43.78    1.74 
  -8  -2   9   43.43    2.28 
  -8  -2   9   43.79    1.32 
   8   2  -9   47.16    1.91 
  -7  -2   9   29.01    1.78 
  -7  -2   9   30.34    1.00 
  -7  -2   9   30.62    0.96 
   7   2  -9   31.24    1.48 
   7   2  -9   29.60    1.33 
  -7   2   9   29.54    1.44 
  -7   2   9   28.78    1.21 
  -6  -2   9   59.33    1.35 
  -6  -2   9   61.81    2.52 
  -6  -2   9   56.99    1.35 
  -6   2   9   57.89    1.80 
   6   2  -9   56.83    1.85 
  -6   2   9   62.24    2.06 
   6   2  -9   54.87    1.96 
  -5  -2   9   47.49    2.10 
   5   2  -9   47.10    1.58 
   5   2  -9   49.27    1.72 
  -5   2   9   46.79    1.70 
  -5   2   9   49.49    1.62 
  -4  -2   9   89.69    2.91 
  -4   2   9   91.36    2.38 
   4   2  -9   84.51    2.35 
   4   2  -9   87.53    2.27 
  -4   2   9   87.89    2.43 
  -3  -2   9   60.83    2.27 
   3   2  -9   57.02    1.79 
   3   2  -9   60.13    1.71 
  -3   2   9   57.62    1.82 
  -3   2   9   62.36    1.89 
  -2  -2   9   80.78    2.63 
   2   2  -9   79.62    2.16 
  -2   2   9   83.72    2.26 
  -2   2   9   81.60    2.30 
   2   2  -9   78.88    2.02 
   1  -2  -9  105.15    1.88 
  -1  -2   9  100.05    2.35 
  -1  -2   9  101.02    2.98 
  -1   2   9  103.72    2.74 
   1   2  -9  101.48    2.39 
   0  -2   9   53.75    1.55 
   0  -2  -9   57.29    1.17 
   0  -2   9   54.51    2.05 
   0   2  -9   56.27    1.85 
   0   2   9   60.24    1.99 
   0   2  -9   57.68    1.62 
   0   2  -9   54.89    1.57 
   1  -2   9  137.43    2.98 
  -1  -2  -9  142.04    2.56 
   1  -2   9  136.80    3.57 
   1   2   9  141.89    3.55 
  -1   2  -9  143.50    3.00 
  -1   2  -9  137.94    3.01 
  -1   2  -9  143.73    3.42 
   2  -2   9   74.44    1.96 
   2  -2   9   80.83    2.48 
  -2  -2  -9   80.18    1.67 
  -2   2  -9   76.26    1.99 
  -2   2  -9   77.56    2.29 
   2   2   9   78.98    2.48 
   2   2   9   77.75    2.03 
  -2   2  -9   79.06    1.90 
  -3  -2  -9  113.81    2.28 
   3  -2   9  106.95    2.56 
  -3   2  -9  109.43    2.92 
   3   2   9  106.67    2.41 
   3   2   9  109.04    3.12 
  -3   2  -9  106.71    2.57 
  -3   2  -9  109.18    2.37 
   3   2   9  114.95    2.99 
   4  -2   9   38.76    1.35 
  -4  -2  -9   41.06    1.19 
  -4   2  -9   36.31    1.32 
   4   2   9   35.63    1.04 
   4   2   9   37.72    1.61 
   4   2   9   38.03    1.71 
  -4   2  -9   36.86    1.12 
  -4   2  -9   40.93    1.59 
  -5  -2  -9   30.52    1.09 
   5  -2   9   26.71    1.17 
  -5  -2  -9   29.54    1.06 
   5   2   9   29.85    1.55 
  -5   2  -9   29.49    0.97 
  -5   2  -9   28.53    1.19 
  -5   2  -9   29.56    1.38 
  -5   2  -9   29.62    1.37 
   5   2   9   28.25    1.44 
  -6  -2  -9    9.16    0.62 
  -6  -2  -9    8.68    0.61 
   6   2   9    8.84    0.98 
  -6   2  -9    8.02    0.47 
  -6   2  -9    8.08    0.83 
   6   2   9    9.53    1.11 
  -6   2  -9    9.32    0.92 
  -6   2  -9    8.11    0.67 
  -7  -2  -9   23.60    1.10 
  -7  -2  -9   24.80    1.09 
   7  -2   9   26.14    1.24 
   7   2   9   25.66    1.48 
  -7   2  -9   25.29    1.33 
   7   2   9   23.17    1.48 
  -8  -2  -9    7.72    0.66 
  -8  -2  -9    6.96    0.75 
   8   2   9    9.60    1.19 
   8   2   9    9.55    1.11 
  -8   2  -9   10.45    0.92 
  -9  -2  -9   35.77    1.53 
  -9  -2  -9   35.82    1.47 
   9   2   9   35.98    1.91 
   9   2   9   38.55    1.97 
  -9   2  -9   33.25    2.26 
 -10  -2  -9    5.71    0.73 
  10   2   9    5.51    0.94 
  10   2   9    6.38    0.96 
 -11  -2  -9    7.42    0.91 
  11   2   9    7.54    1.18 
  11   2   9    7.80    1.18 
 -12  -2  -9    1.58    0.46 
  12   2   9    0.53    0.60 
  12   2   9    1.86    0.73 
  11   3  -9    2.91    0.76 
  10   3  -9    1.04    0.52 
  -9  -3   9    7.80    1.37 
   9   3  -9    8.71    1.01 
  -8  -3   9    6.52    1.27 
   8   3  -9    4.01    0.70 
  -8   3   9    3.92    0.56 
  -7  -3   9   17.59    1.57 
  -7   3   9   19.22    1.03 
   7   3  -9   21.03    1.25 
  -6  -3   9   11.12    1.41 
  -6   3   9   11.72    0.84 
   6   3  -9   12.03    0.93 
  -5  -3   9   11.07    1.36 
  -5   3   9   12.87    0.89 
   5   3  -9   12.95    0.91 
  -4  -3   9   19.08    0.74 
  -4  -3   9   17.28    1.44 
   4   3  -9   19.07    1.04 
  -4   3   9   17.83    1.05 
  -3  -3   9   15.51    1.34 
   3   3  -9   12.68    0.84 
  -3   3   9   14.09    0.91 
  -3   3   9   14.13    0.97 
  -2  -3   9   34.14    1.92 
   2   3  -9   37.26    1.38 
  -2   3   9   31.39    1.35 
  -2   3   9   33.08    1.53 
  -1  -3   9   29.82    1.74 
  -1   3   9   27.52    1.24 
  -1   3   9   29.31    1.48 
   0  -3   9   29.12    1.71 
   0   3   9   30.42    1.53 
   0   3   9   28.53    1.50 
   1  -3   9   18.01    1.33 
   1   3   9   16.86    1.20 
   1   3   9   16.98    1.12 
   2   3   9   26.69    1.34 
   2   3   9   28.20    1.35 
  -2   3  -9   27.76    1.06 
   2   3   9   30.11    1.61 
   3   3   9    1.41    0.39 
   3   3   9    0.45    0.32 
  -3   3  -9    1.36    0.28 
   3   3   9    1.59    0.50 
   4   3   9   36.29    1.85 
   4   3   9   35.71    1.62 
   4   3   9   30.57    1.29 
   5   3   9    2.28    0.40 
   5   3   9    2.81    0.60 
   5   3   9    2.02    0.60 
   6   3   9   21.08    1.53 
   6   3   9   19.76    1.33 
   7   3   9   13.94    1.52 
   7   3   9   12.70    1.29 
   8   3   9    9.46    1.27 
   8   3   9    9.76    1.15 
   9   3   9    3.01    0.72 
   9   3   9    1.72    0.73 
  10   3   9    4.26    0.90 
  10   3   9    4.56    0.96 
   8   4  -9    0.15    0.35 
   7   4  -9    0.46    0.38 
   6   4  -9    0.27    0.30 
  -6   4   9    0.12    0.30 
  -5  -4   9    1.93    0.83 
   5   4  -9    1.44    0.42 
  -5   4   9    2.90    0.60 
  -4  -4   9    0.71    0.60 
  -4   4   9    0.07    0.31 
   4   4  -9    0.05    0.24 
  -3  -4   9    0.04    0.47 
   3   4  -9    0.62    0.30 
  -3   4   9    0.80    0.48 
  -2  -4   9    0.29    0.48 
  -2   4   9    0.05    0.37 
  -1  -4   9   -0.02    0.44 
  -1   4   9   -0.44    0.32 
   0   4   9    0.14    0.37 
   1   4   9    4.62    0.67 
   1   4   9    4.94    0.92 
   2   4   9    0.71    0.46 
   2   4   9    0.02    0.23 
   3   4   9    1.40    0.45 
   3   4   9    1.73    0.65 
   4   4   9    0.58    0.34 
   4   4   9    0.09    0.41 
   5   4   9    0.05    0.41 
   5   4   9    0.25    0.32 
   6   4   9    0.17    0.51 
   6   4   9    0.21    0.33 
   7   4   9    0.21    0.53 
   7   4   9    0.47    0.36 
  13   0 -10    0.80    0.57 
  12   0 -10    7.68    1.11 
  11   0 -10    2.74    0.60 
  11   0 -10    1.81    0.59 
  10   0 -10   30.40    1.50 
  10   0 -10   30.95    1.68 
   9   0 -10    4.72    0.66 
   9   0 -10    4.29    0.71 
   8   0 -10   63.94    2.28 
  -8   0  10   61.69    2.08 
   8   0 -10   66.58    2.14 
   7   0 -10    6.11    0.65 
  -7   0  10    6.89    0.72 
   7   0 -10    5.89    0.72 
   6   0 -10   95.62    2.57 
  -6   0  10   96.20    2.56 
   6   0 -10  100.54    2.80 
   5   0 -10   21.00    1.12 
   5   0 -10   23.11    1.07 
  -4   0  10  222.21    4.49 
   4   0 -10  217.62    4.51 
   4   0 -10  221.85    4.70 
  -3   0  10   20.50    0.97 
  -3   0  10   21.81    0.96 
   3   0 -10   19.86    0.94 
  -2   0  10  311.05    5.94 
  -2   0  10  317.52    5.89 
   2   0 -10  316.85    6.30 
   2   0 -10  309.67    5.92 
  -1   0  10   27.84    1.07 
  -1   0  10   26.21    1.12 
   1   0 -10   26.69    1.08 
  -1   0  10   26.09    1.08 
   1   0 -10   26.61    1.08 
   0   0  10  291.46    5.51 
   0   0 -10  284.21    5.47 
   0   0 -10  283.64    5.50 
   0   0  10  281.11    5.39 
   0   0  10  286.76    5.55 
  -1   0 -10    2.50    0.39 
   1   0  10    3.86    0.52 
   1   0  10    2.87    0.40 
   1   0  10    3.48    0.31 
  -1   0 -10    2.53    0.42 
   2   0  10  273.50    5.21 
  -2   0 -10  262.06    5.33 
   2   0  10  272.87    5.45 
   2   0  10  266.05    4.67 
   2   0  10  261.59    5.19 
  -2   0 -10  269.68    5.29 
   3   0  10    8.18    0.61 
  -3   0 -10    9.67    0.69 
   3   0  10    9.62    0.65 
  -3   0 -10    8.89    0.69 
   3   0  10    9.57    0.76 
  -4   0 -10  236.80    4.89 
   4   0  10  231.73    5.03 
   4   0  10  234.25    4.73 
  -4   0 -10  234.00    4.92 
   4   0  10  235.43    4.71 
   5   0  10    1.01    0.36 
   5   0  10    1.48    0.32 
   5   0  10    1.48    0.33 
  -5   0 -10    0.92    0.34 
  -5   0 -10    1.25    0.35 
   6   0  10  137.18    3.59 
   6   0  10  140.17    3.23 
  -6   0 -10  138.30    3.43 
   6   0  10  135.26    3.25 
   7   0  10    0.50    0.36 
   7   0  10    1.32    0.34 
  -7   0 -10    0.67    0.29 
   8   0  10   32.60    1.36 
   8   0  10   35.22    1.74 
  -8   0 -10   38.06    1.66 
   9   0  10   22.52    1.14 
   9   0  10   22.54    1.44 
  -9   0 -10   21.90    1.30 
  10   0  10   13.45    0.91 
 -10   0 -10   14.22    1.10 
  10   0  10   13.05    1.35 
  11   0  10    5.82    0.99 
  11   0  10    4.87    0.67 
 -11   0 -10    5.57    0.83 
  12   0  10   14.79    1.14 
 -12   0 -10   14.04    1.20 
  12   0  10   12.67    1.41 
 -13   0 -10    0.40    0.37 
  13   0  10    0.67    0.54 
  13   1 -10    2.67    0.77 
  12  -1 -10    1.09    0.97 
  12   1 -10    0.31    0.52 
  12   1 -10    1.26    0.48 
  11  -1 -10    6.67    0.96 
  11   1 -10    5.87    0.88 
  11   1 -10    7.74    0.92 
  10  -1 -10    3.94    0.69 
  10   1 -10    2.75    0.67 
  10   1 -10    2.83    0.57 
  -9  -1  10   19.45    1.13 
   9  -1 -10   22.38    1.36 
   9   1 -10   19.86    1.19 
   9   1 -10   20.03    1.32 
   8  -1 -10    2.74    0.46 
  -8  -1  10    1.97    0.40 
   8  -1 -10    1.41    0.43 
   8   1 -10    2.39    0.53 
   8   1 -10    2.00    0.43 
   7  -1 -10   38.94    1.46 
   7  -1 -10   38.30    1.65 
  -7  -1  10   35.50    1.38 
   7   1 -10   38.38    1.55 
   7   1 -10   36.88    1.63 
   6  -1 -10    5.95    0.73 
   6  -1 -10    4.88    0.54 
  -6  -1  10    6.67    0.56 
   6   1 -10    4.82    0.68 
  -6   1  10    5.68    0.64 
   6   1 -10    6.46    0.71 
  -5  -1  10   62.17    1.79 
   5  -1 -10   65.05    2.06 
   5  -1 -10   62.34    1.82 
  -5   1  10   65.12    2.06 
   5   1 -10   63.30    2.04 
   5   1 -10   60.91    1.90 
  -5   1  10   61.78    1.88 
   4  -1 -10   13.69    0.75 
  -4  -1  10   11.59    0.67 
   4   1 -10   12.66    0.85 
   4   1 -10   13.63    0.79 
  -4   1  10   12.35    0.83 
  -4   1  10   12.92    0.78 
   3  -1 -10  106.08    2.52 
  -3  -1  10  108.52    2.80 
  -3  -1  10  101.16    2.42 
   3   1 -10  105.01    2.60 
  -3   1  10  107.29    2.73 
   3   1 -10  105.81    2.73 
  -3   1  10  112.36    2.68 
   2  -1 -10    4.53    0.47 
  -2  -1  10    5.36    0.62 
  -2  -1  10    4.95    0.43 
   2   1 -10    5.81    0.58 
  -2   1  10    4.88    0.56 
  -2   1  10    4.50    0.56 
  -1  -1  10  142.71    3.30 
   1  -1 -10  143.54    3.08 
  -1  -1  10  142.18    2.98 
   1   1 -10  139.17    3.14 
  -1   1  10  143.77    3.29 
   1   1 -10  147.97    3.16 
  -1   1  10  135.89    3.21 
   0  -1  10    0.52    0.19 
   0  -1  10    1.24    0.30 
   0  -1 -10    0.92    0.25 
   0   1 -10    0.83    0.23 
   0   1  10    1.08    0.31 
   0   1 -10    0.79    0.24 
   0   1  10    1.46    0.38 
   1  -1  10  206.71    4.22 
  -1  -1 -10  202.66    4.10 
   1  -1  10  204.85    3.94 
   1  -1  10  203.91    4.28 
   1   1  10  211.93    4.70 
  -1   1 -10  197.89    4.00 
  -1   1 -10  199.64    4.16 
   1   1  10  193.88    4.28 
   2  -1  10    2.05    0.33 
  -2  -1 -10    1.82    0.33 
   2  -1  10    2.75    0.42 
   2  -1  10    2.56    0.44 
   2  -1  10    2.23    0.41 
  -2   1 -10    2.26    0.37 
   2   1  10    1.70    0.38 
  -2   1 -10    1.57    0.31 
   2   1  10    2.16    0.44 
   3  -1  10   94.12    2.56 
   3  -1  10   94.26    2.25 
   3  -1  10   97.26    2.41 
  -3  -1 -10   96.08    2.47 
  -3   1 -10   93.36    2.32 
  -3   1 -10   98.69    2.51 
   3   1  10  100.62    2.69 
   3   1  10   95.77    2.70 
  -3   1 -10   98.10    2.22 
  -4  -1 -10    0.13    0.17 
   4  -1  10    0.14    0.21 
   4  -1  10    0.40    0.20 
  -4   1 -10    0.12    0.17 
   4   1  10    0.19    0.25 
  -4   1 -10    0.50    0.22 
   4   1  10    0.68    0.30 
  -4   1 -10    0.18    0.15 
   5  -1  10   46.47    1.54 
   5  -1  10   55.47    1.92 
  -5  -1 -10   53.47    1.81 
   5   1  10   54.19    1.93 
  -5   1 -10   54.20    1.50 
  -5   1 -10   53.13    1.63 
  -5   1 -10   53.48    1.80 
   5   1  10   53.75    2.00 
   6  -1  10    4.46    0.64 
  -6  -1 -10    4.46    0.60 
   6  -1  10    5.26    0.58 
  -6   1 -10    5.45    0.47 
  -6   1 -10    6.12    0.78 
   6   1  10    4.70    0.71 
  -6   1 -10    6.01    0.63 
   6   1  10    7.37    0.87 
  -6   1 -10    4.57    0.62 
  -7  -1 -10   74.36    2.35 
   7  -1  10   72.97    2.43 
   7  -1  10   73.85    1.96 
   7   1  10   72.91    2.44 
  -7   1 -10   72.56    1.94 
  -7   1 -10   74.28    2.35 
   7   1  10   75.61    2.60 
   8  -1  10    5.28    0.48 
  -8  -1 -10    4.95    0.71 
   8  -1  10    6.05    0.83 
  -8   1 -10    4.54    0.63 
   8   1  10    6.43    0.86 
  -8   1 -10    5.26    0.56 
   8   1  10    6.57    0.91 
   9  -1  10   27.47    1.53 
   9  -1  10   25.23    1.00 
  -9  -1 -10   26.50    1.41 
   9   1  10   27.16    1.50 
   9   1  10   25.64    1.60 
  -9   1 -10   25.09    1.40 
  10  -1  10    0.22    0.30 
  10  -1  10   -0.76    0.28 
 -10  -1 -10   -0.07    0.24 
 -10   1 -10    0.12    0.31 
  10   1  10   -0.49    0.29 
  10   1  10    0.22    0.34 
 -11  -1 -10    1.38    0.49 
  11   1  10    2.42    0.66 
  11   1  10    3.09    0.77 
 -12  -1 -10    0.37    0.34 
  12   1  10    0.20    0.42 
  12   1  10    0.43    0.57 
 -13  -1 -10    2.77    0.66 
  13   1  10    2.43    0.81 
  13   1  10    3.16    0.75 
 -12  -2  10    0.86    0.32 
  12   2 -10    0.25    0.51 
 -11  -2  10   -0.37    0.42 
 -11  -2  10    0.04    0.20 
 -11  -2  10    0.21    0.18 
  11   2 -10   -0.36    0.38 
 -10  -2  10    0.26    0.43 
 -10  -2  10    0.25    0.24 
 -10  -2  10    0.33    0.20 
  10   2 -10    0.06    0.39 
  -9  -2  10    0.26    0.20 
  -9  -2  10    0.04    0.14 
  -9  -2  10    0.62    0.51 
   9   2 -10   -0.09    0.35 
   8  -2 -10    0.15    0.31 
  -8  -2  10    0.65    0.24 
  -8  -2  10    0.00    0.14 
  -8  -2  10    1.07    0.50 
   8   2 -10    0.44    0.40 
  -7  -2  10   -0.02    0.10 
  -7  -2  10   -0.11    0.14 
  -7  -2  10    0.14    0.32 
   7   2 -10    0.36    0.28 
  -7   2  10   -0.06    0.22 
   7   2 -10    0.17    0.30 
  -6  -2  10    0.07    0.11 
  -6  -2  10    0.56    0.18 
  -6  -2  10    0.00    0.30 
   6   2 -10   -0.05    0.20 
  -6   2  10    0.21    0.29 
  -6   2  10    0.33    0.25 
   6   2 -10    0.42    0.32 
  -5  -2  10   -0.04    0.08 
  -5  -2  10    0.20    0.10 
  -5  -2  10    0.13    0.31 
   5   2 -10   -0.11    0.22 
  -5   2  10    0.17    0.22 
   5   2 -10    0.03    0.19 
  -5   2  10    0.04    0.23 
  -4  -2  10   -0.07    0.27 
  -4   2  10   -0.10    0.22 
   4   2 -10   -0.06    0.15 
  -4   2  10    0.65    0.28 
   4   2 -10    0.04    0.23 
  -3  -2  10   -0.04    0.25 
   3  -2 -10    0.12    0.11 
   3   2 -10    0.24    0.22 
  -3   2  10    0.33    0.27 
  -3   2  10    0.02    0.21 
   3   2 -10   -0.05    0.15 
   2  -2 -10    3.19    0.27 
  -2  -2  10    3.13    0.62 
   2   2 -10    3.55    0.45 
  -2   2  10    3.64    0.54 
  -2   2  10    3.39    0.51 
  -1  -2  10    0.00    0.23 
  -1  -2  10    0.42    0.22 
   1  -2 -10    0.30    0.12 
  -1   2  10   -0.06    0.18 
  -1   2  10    0.46    0.27 
   1   2 -10    0.28    0.17 
   0  -2 -10    1.81    0.24 
   0  -2  10    1.75    0.48 
   0  -2  10    1.97    0.36 
   0   2 -10    1.52    0.32 
   0   2 -10    1.87    0.39 
   0   2  10    1.87    0.44 
   1  -2  10    0.22    0.20 
   1  -2  10    0.17    0.28 
  -1  -2 -10   -0.05    0.10 
   1   2  10    0.40    0.28 
  -1   2 -10    0.01    0.16 
  -1   2 -10    0.06    0.16 
  -1   2 -10   -0.05    0.14 
  -2  -2 -10   -0.23    0.08 
   2  -2  10    0.19    0.24 
   2  -2  10    0.08    0.19 
  -2   2 -10   -0.01    0.15 
   2   2  10   -0.06    0.15 
  -2   2 -10   -0.25    0.17 
   2   2  10    0.05    0.24 
  -2   2 -10   -0.03    0.13 
   3  -2  10    0.77    0.27 
  -3  -2 -10    0.31    0.16 
  -3   2 -10    0.56    0.19 
  -3   2 -10    0.05    0.23 
   3   2  10    0.15    0.28 
   3   2  10    0.61    0.20 
  -3   2 -10    0.33    0.18 
   3   2  10    1.17    0.39 
   4  -2  10    6.97    0.63 
  -4  -2 -10    5.41    0.46 
  -4   2 -10    5.64    0.45 
   4   2  10    5.82    0.38 
  -4   2 -10    8.10    0.83 
  -4   2 -10    5.27    0.60 
   4   2  10    5.32    0.72 
   4   2  10    7.22    0.91 
   5  -2  10   -0.05    0.13 
  -5  -2 -10    0.12    0.14 
  -5   2 -10    0.23    0.19 
   5   2  10    0.07    0.28 
  -5   2 -10    0.18    0.24 
  -5   2 -10    0.62    0.24 
   5   2  10    0.33    0.38 
  -6  -2 -10    6.88    0.60 
  -6  -2 -10    6.58    0.58 
   6  -2  10    3.60    0.56 
  -6   2 -10    6.47    0.83 
   6   2  10    5.99    0.85 
  -6   2 -10    6.35    0.75 
   6   2  10    5.81    0.85 
  -6   2 -10    7.09    0.56 
  -6   2 -10    7.21    0.95 
  -7  -2 -10    0.82    0.30 
   7  -2  10    0.47    0.32 
  -7  -2 -10    0.97    0.32 
   7   2  10    1.28    0.52 
  -7   2 -10    0.98    0.36 
   7   2  10    0.76    0.43 
  -8  -2 -10    0.00    0.18 
  -8  -2 -10    0.24    0.23 
  -8   2 -10    0.35    0.35 
   8   2  10    0.48    0.41 
   8   2  10   -0.09    0.38 
  -9  -2 -10   -0.29    0.17 
  -9  -2 -10    0.10    0.23 
   9   2  10    0.20    0.42 
   9   2  10   -0.14    0.36 
 -10  -2 -10    0.55    0.30 
  10   2  10    1.30    0.54 
  10   2  10    1.05    0.56 
 -11  -2 -10    0.56    0.32 
  11   2  10    0.16    0.50 
  11   2  10    0.03    0.47 
 -12  -2 -10    1.94    0.51 
  12   2  10    2.60    0.77 
  12   2  10    1.47    0.66 
  10   3 -10    1.54    0.62 
  -9  -3  10    5.14    1.25 
   9   3 -10    4.28    0.78 
  -8  -3  10    0.69    0.62 
  -8   3  10    0.66    0.32 
   8   3 -10    0.80    0.42 
  -7  -3  10    8.70    1.36 
  -7   3  10    8.26    0.87 
   7   3 -10    5.53    0.79 
  -6  -3  10    3.06    0.86 
   6   3 -10    1.69    0.49 
  -6   3  10    1.74    0.45 
  -5  -3  10   14.16    1.61 
   5   3 -10   16.48    1.05 
  -5   3  10   15.07    0.99 
  -4  -3  10    0.52    0.45 
   4   3 -10    0.61    0.31 
  -4   3  10    0.52    0.35 
  -3  -3  10   21.48    1.59 
  -3  -3  10   24.65    0.97 
   3   3 -10   25.09    1.21 
  -3   3  10   26.56    1.34 
  -2  -3  10   -0.07    0.29 
  -2   3  10   -0.26    0.28 
  -2   3  10   -0.05    0.28 
  -1  -3  10   31.51    1.81 
  -1   3  10   27.87    1.47 
  -1   3  10   29.24    1.39 
   0  -3  10    2.65    0.68 
   0   3  10    3.80    0.68 
   0   3  10    2.47    0.56 
   1  -3  10   29.08    1.70 
   1   3  10   28.77    1.45 
   1   3  10   28.68    1.56 
   2   3  10    0.12    0.29 
   2   3  10    0.03    0.24 
   2   3  10    0.20    0.34 
   3   3  10   19.54    1.24 
   3   3  10   19.34    1.37 
   3   3  10   19.55    1.07 
   4   3  10    3.98    0.68 
   4   3  10    5.38    0.92 
   4   3  10    4.32    0.55 
   5   3  10   15.37    1.32 
   5   3  10   15.61    1.19 
   6   3  10    0.52    0.41 
   6   3  10    0.72    0.49 
   7   3  10    9.59    1.13 
   7   3  10   11.98    1.42 
   8   3  10    0.70    0.56 
   8   3  10    0.77    0.47 
   9   3  10    3.75    0.95 
   9   3  10    3.44    0.83 
  10   3  10    3.33    0.94 
  10   3  10    2.13    0.69 
  -7   4  10    1.62    0.54 
   7   4 -10    1.55    0.51 
   6   4 -10   11.43    1.02 
  -6   4  10   12.37    0.99 
  -5  -4  10    0.90    0.86 
  -5   4  10    1.12    0.46 
   5   4 -10    1.36    0.46 
  -4  -4  10   21.17    1.88 
   4   4 -10   21.75    1.22 
  -4   4  10   22.47    1.35 
  -3  -4  10    0.74    0.59 
  -3   4  10    0.62    0.44 
  -2  -4  10   22.08    1.84 
  -2   4  10   25.91    1.53 
  -1  -4  10    0.56    0.53 
  -1   4  10    0.53    0.38 
   0   4  10   28.64    1.70 
   1   4  10    0.31    0.30 
   1   4  10    1.35    0.59 
   2   4  10   38.84    1.79 
   2   4  10   40.62    2.14 
   3   4  10    1.27    0.62 
   3   4  10    0.23    0.32 
   4   4  10   25.93    1.80 
   4   4  10   26.81    1.52 
   5   4  10    0.06    0.48 
   5   4  10    0.41    0.36 
   6   4  10   12.48    1.53 
   6   4  10   13.62    1.17 
   7   4  10    1.17    0.52 
   7   4  10    0.30    0.52 
  13   0 -11    0.19    0.49 
  12   0 -11    0.45    0.50 
  11   0 -11    0.23    0.31 
  11   0 -11   -0.15    0.40 
  10   0 -11   -0.01    0.25 
  10   0 -11    0.38    0.42 
   9   0 -11   -0.22    0.30 
   9   0 -11    0.03    0.22 
   8   0 -11   -0.22    0.19 
   8   0 -11    0.22    0.33 
  -7   0  11   -0.09    0.18 
   7   0 -11    0.00    0.18 
   7   0 -11   -0.40    0.25 
   6   0 -11   -0.13    0.21 
  -6   0  11   -0.21    0.15 
   6   0 -11    0.16    0.20 
  -5   0  11   -0.01    0.17 
   5   0 -11    0.48    0.24 
   5   0 -11   -0.32    0.17 
  -4   0  11   -0.31    0.13 
   4   0 -11   -0.35    0.19 
   4   0 -11   -0.19    0.14 
  -3   0  11    0.16    0.17 
   3   0 -11    0.15    0.16 
  -3   0  11   -0.11    0.12 
  -2   0  11    0.04    0.13 
  -2   0  11   -0.01    0.14 
   2   0 -11    0.20    0.13 
  -1   0  11    0.04    0.17 
   1   0 -11    0.03    0.11 
  -1   0  11    0.01    0.12 
   0   0  11    0.60    0.22 
   0   0  11    0.27    0.17 
   0   0 -11    0.15    0.16 
   1   0  11    0.11    0.11 
   1   0  11   -0.04    0.13 
  -1   0 -11   -0.13    0.10 
   1   0  11   -0.09    0.12 
  -2   0 -11   -0.19    0.12 
   2   0  11   -0.14    0.11 
   2   0  11    0.09    0.19 
   2   0  11    0.07    0.10 
   2   0  11   -0.03    0.19 
   3   0  11    0.01    0.08 
   3   0  11    0.29    0.20 
   3   0  11   -0.01    0.13 
   3   0  11   -0.21    0.18 
  -3   0 -11   -0.09    0.16 
   4   0  11   -0.12    0.16 
   4   0  11   -0.02    0.24 
   4   0  11   -0.02    0.14 
  -4   0 -11   -0.04    0.16 
   5   0  11   -0.36    0.23 
  -5   0 -11   -0.24    0.14 
   5   0  11   -0.01    0.16 
   5   0  11   -0.29    0.16 
   6   0  11   -0.22    0.24 
   6   0  11   -0.02    0.19 
   6   0  11    0.00    0.19 
  -6   0 -11    0.15    0.20 
   7   0  11    0.06    0.19 
   7   0  11   -0.17    0.28 
  -7   0 -11   -0.25    0.18 
  -8   0 -11    0.12    0.26 
   8   0  11    0.11    0.23 
   8   0  11   -0.16    0.29 
  -9   0 -11    0.30    0.28 
   9   0  11    0.01    0.36 
   9   0  11    0.19    0.22 
  10   0  11    0.21    0.28 
 -10   0 -11   -0.21    0.26 
  10   0  11   -0.21    0.35 
  11   0  11    0.20    0.26 
 -11   0 -11    0.23    0.33 
  11   0  11    0.20    0.43 
  12   0  11   -0.79    0.41 
 -12   0 -11   -0.36    0.31 
  13   1 -11    0.71    0.60 
  12   1 -11    4.11    0.74 
  12   1 -11    3.75    0.83 
  11  -1 -11    0.76    0.54 
  11   1 -11    1.07    0.45 
  11   1 -11    0.83    0.51 
  10  -1 -11   15.98    1.26 
  10   1 -11   15.38    1.13 
  10   1 -11   16.00    1.28 
   9  -1 -11    2.28    0.57 
   9   1 -11    1.81    0.47 
   9   1 -11    2.06    0.56 
   8  -1 -11   26.97    1.47 
  -8  -1  11   26.30    1.24 
   8  -1 -11   28.92    1.31 
   8   1 -11   26.85    1.36 
   8   1 -11   27.07    1.49 
  -7  -1  11    4.23    0.58 
   7  -1 -11    2.57    0.57 
   7  -1 -11    2.81    0.46 
   7   1 -11    4.15    0.62 
   7   1 -11    4.08    0.68 
   6  -1 -11   54.03    1.75 
  -6  -1  11   50.08    1.66 
   6  -1 -11   53.11    1.95 
   6   1 -11   50.93    1.93 
  -6   1  11   53.85    1.78 
   6   1 -11   51.54    1.82 
   5  -1 -11   13.69    0.82 
  -5  -1  11   12.97    0.76 
   5   1 -11   13.70    0.96 
  -5   1  11   14.16    0.87 
   5   1 -11   14.58    0.89 
  -4  -1  11   68.50    2.21 
   4  -1 -11   70.26    1.97 
  -4  -1  11   69.49    1.91 
  -4   1  11   69.96    2.07 
   4   1 -11   67.80    2.05 
  -4   1  11   69.24    2.16 
   4   1 -11   67.85    2.17 
  -3  -1  11   17.71    0.84 
  -3  -1  11   17.68    1.01 
   3  -1 -11   17.34    0.88 
  -3   1  11   19.67    1.00 
  -3   1  11   17.98    1.01 
   3   1 -11   17.24    1.02 
   3   1 -11   17.91    0.94 
  -2  -1  11   77.24    1.99 
   2  -1 -11   77.74    2.08 
  -2  -1  11   80.31    2.31 
  -2   1  11   75.71    2.18 
   2   1 -11   80.02    2.17 
  -2   1  11   74.34    2.22 
   1  -1 -11   22.22    0.98 
  -1  -1  11   22.29    1.08 
  -1  -1  11   21.61    0.91 
   1   1 -11   20.83    0.99 
  -1   1  11   20.15    1.04 
   0  -1  11  101.73    2.62 
   0  -1  11   97.99    2.35 
   0  -1 -11   98.43    2.47 
   0   1 -11  100.73    2.56 
   0   1  11  102.53    2.65 
  -1  -1 -11   41.96    1.43 
   1  -1  11   40.35    1.30 
   1  -1  11   39.45    1.43 
   1  -1  11   42.18    1.47 
   1  -1  11   38.56    1.49 
   1   1  11   41.58    1.55 
  -1   1 -11   39.01    1.35 
  -1   1 -11   39.99    1.45 
   2  -1  11   70.03    1.83 
   2  -1  11   67.15    1.98 
   2  -1  11   68.45    1.95 
  -2  -1 -11   70.04    2.00 
   2  -1  11   68.27    2.11 
   2   1  11   68.50    2.21 
  -2   1 -11   65.62    2.00 
   2   1  11   67.18    2.11 
  -2   1 -11   68.92    1.91 
   3  -1  11   20.50    1.00 
   3  -1  11   18.42    1.05 
   3  -1  11   18.97    0.87 
  -3  -1 -11   19.90    1.01 
   3   1  11   21.05    1.12 
  -3   1 -11   20.12    1.03 
   3   1  11   20.37    1.16 
  -3   1 -11   20.60    0.97 
  -4  -1 -11   47.63    1.69 
   4  -1  11   48.80    1.78 
   4  -1  11   45.09    1.56 
  -4   1 -11   48.27    1.59 
   4   1  11   46.33    1.86 
  -4   1 -11   44.29    1.31 
   4   1  11   47.75    1.79 
  -4   1 -11   47.46    1.68 
  -5  -1 -11   25.57    1.22 
   5  -1  11   25.10    1.28 
   5  -1  11   21.66    1.03 
  -5   1 -11   22.59    1.08 
  -5   1 -11   23.52    0.90 
   5   1  11   23.27    1.26 
  -5   1 -11   22.46    1.16 
   5   1  11   23.69    1.34 
   6  -1  11   21.70    1.27 
   6  -1  11   20.16    0.98 
  -6  -1 -11   19.72    1.14 
  -6   1 -11   21.58    1.17 
  -6   1 -11   19.43    0.83 
   6   1  11   20.99    1.22 
  -6   1 -11   21.05    1.04 
   6   1  11   21.06    1.32 
   7  -1  11   29.72    1.21 
  -7  -1 -11   32.50    1.50 
   7  -1  11   31.96    1.58 
  -7   1 -11   32.87    1.52 
   7   1  11   31.03    1.65 
   7   1  11   33.76    1.60 
  -7   1 -11   29.10    1.08 
  -8  -1 -11    9.69    1.01 
   8  -1  11    7.88    0.99 
   8  -1  11    7.83    0.60 
   8   1  11    9.50    1.13 
  -8   1 -11    8.40    0.88 
   8   1  11    9.39    1.06 
   9  -1  11   14.35    1.19 
  -9  -1 -11   15.32    1.11 
   9  -1  11   16.63    0.84 
   9   1  11   16.32    1.20 
  -9   1 -11   17.03    1.19 
   9   1  11   15.83    1.32 
 -10  -1 -11    6.69    0.90 
  10  -1  11    6.23    0.93 
 -10   1 -11    4.90    0.80 
  10   1  11    5.10    0.85 
  10   1  11    6.16    0.94 
 -11  -1 -11    8.75    1.06 
  11   1  11    8.44    1.09 
  11   1  11   10.08    1.33 
 -12  -1 -11    1.86    0.53 
  12   1  11    2.08    0.62 
  12   1  11    2.88    0.82 
 -12  -2  11    0.00    0.23 
  12   2 -11   -0.14    0.46 
 -11  -2  11   13.06    0.90 
 -11  -2  11   11.26    0.97 
  11   2 -11   10.55    1.22 
 -10  -2  11    0.59    0.54 
 -10  -2  11    0.70    0.27 
 -10  -2  11    0.99    0.34 
  10   2 -11    0.75    0.47 
  -9  -2  11   25.85    1.11 
  -9  -2  11   24.16    1.02 
  -9  -2  11   25.42    1.86 
   9   2 -11   27.40    1.60 
  -8  -2  11    3.85    0.45 
  -8  -2  11    3.83    0.87 
   8   2 -11    4.48    0.76 
  -7  -2  11   54.91    2.55 
  -7  -2  11   51.11    1.45 
  -7   2  11   54.52    1.87 
   7   2 -11   54.66    2.11 
  -6  -2  11   12.60    1.40 
  -6  -2  11   10.01    0.53 
   6   2 -11   10.10    0.90 
   6   2 -11    9.96    0.86 
  -6   2  11    9.11    1.00 
  -6   2  11   10.09    0.79 
  -5  -2  11   82.14    1.75 
  -5  -2  11   81.67    2.93 
  -5   2  11   82.63    2.40 
   5   2 -11   81.21    2.49 
  -5   2  11   83.34    2.54 
   5   2 -11   81.78    2.37 
   4  -2 -11   21.94    0.83 
  -4  -2  11   22.16    1.40 
  -4   2  11   21.61    1.12 
   4   2 -11   22.48    1.09 
  -4   2  11   19.49    1.13 
   4   2 -11   20.26    1.14 
   3  -2 -11   92.49    2.06 
  -3  -2  11   92.06    3.00 
  -3   2  11   94.34    2.64 
   3   2 -11   92.20    2.44 
   3   2 -11   89.70    2.56 
  -3   2  11   94.43    2.61 
  -2  -2  11   25.79    1.44 
   2  -2 -11   24.42    0.85 
  -2   2  11   23.29    1.19 
  -2   2  11   24.10    1.21 
   2   2 -11   24.20    1.10 
   1  -2 -11  123.22    2.53 
  -1  -2  11  123.13    2.91 
  -1  -2  11  124.58    3.49 
  -1   2  11  124.33    3.22 
  -1   2  11  122.80    3.14 
   1   2 -11  121.97    2.93 
   0  -2 -11   33.55    1.03 
   0  -2  11   32.94    1.29 
   0  -2  11   33.59    1.60 
   0   2  11   33.70    1.50 
   0   2 -11   34.21    1.31 
   1  -2  11   92.07    2.43 
   1  -2  11  101.44    2.94 
  -1  -2 -11   94.85    2.13 
   1   2  11  100.63    2.88 
  -1   2 -11   94.18    2.57 
  -1   2 -11   95.11    2.47 
   2  -2  11   42.95    1.79 
   2  -2  11   45.58    1.56 
  -2  -2 -11   45.12    1.31 
   2   2  11   43.83    1.42 
  -2   2 -11   43.93    1.42 
  -2   2 -11   45.86    1.66 
  -2   2 -11   44.18    1.54 
   2   2  11   44.27    1.83 
   2   2  11   43.06    1.77 
  -3  -2 -11   72.12    1.83 
   3  -2  11   57.81    1.92 
  -3   2 -11   65.78    2.02 
  -3   2 -11   66.83    1.82 
   3   2  11   71.56    2.44 
   3   2  11   71.22    2.39 
  -3   2 -11   72.45    2.18 
   3   2  11   67.92    1.68 
  -4  -2 -11   45.05    1.43 
  -4   2 -11   40.88    1.56 
  -4   2 -11   44.35    1.40 
   4   2  11   41.36    1.87 
   4   2  11   45.23    1.90 
  -4   2 -11   42.73    1.62 
   4   2  11   43.15    1.05 
  -5  -2 -11   73.90    2.04 
  -5   2 -11   71.65    2.24 
   5   2  11   72.17    2.54 
  -5   2 -11   67.55    2.34 
   5   2  11   69.57    2.56 
  -5   2 -11   73.11    1.93 
   6  -2  11   39.20    1.60 
  -6  -2 -11   39.16    1.47 
  -6   2 -11   36.97    1.56 
   6   2  11   39.98    1.91 
   6   2  11   42.26    1.94 
  -7  -2 -11   33.81    1.38 
  -7  -2 -11   30.32    1.36 
   7   2  11   33.42    1.78 
   7   2  11   34.50    1.81 
  -7   2 -11   32.80    1.48 
  -8  -2 -11   17.16    1.03 
  -8  -2 -11   18.21    1.08 
   8   2  11   19.28    1.41 
   8   2  11   18.59    1.40 
  -9  -2 -11   10.33    0.87 
   9   2  11    8.43    1.09 
   9   2  11   10.28    1.25 
 -10  -2 -11   11.52    0.95 
  10   2  11   10.78    1.30 
  10   2  11   13.32    1.44 
 -11  -2 -11    4.97    0.78 
  11   2  11    6.59    1.11 
  11   2  11    4.52    0.95 
  10   3 -11   10.19    1.24 
   9   3 -11    0.71    0.47 
  -8  -3  11    9.79    1.51 
  -8   3  11   13.22    0.93 
   8   3 -11   14.57    1.21 
  -7  -3  11    0.95    0.59 
  -7   3  11    1.55    0.43 
   7   3 -11    1.30    0.45 
  -6  -3  11   17.21    1.82 
  -6   3  11   16.87    1.08 
   6   3 -11   15.97    1.13 
  -5  -3  11    4.82    0.97 
   5   3 -11    4.18    0.68 
  -5   3  11    6.40    0.81 
  -4  -3  11   24.10    1.75 
  -4   3  11   22.24    1.25 
   4   3 -11   25.02    1.30 
  -3  -3  11    6.66    1.06 
   3   3 -11    5.47    0.70 
  -3   3  11    6.55    0.86 
  -2  -3  11   26.12    1.75 
  -2   3  11   27.87    1.46 
  -1  -3  11   11.12    1.34 
  -1   3  11   10.82    0.96 
   0  -3  11   33.07    1.87 
   0   3  11   30.12    1.56 
   0   3  11   33.59    1.68 
   1  -3  11   12.89    1.36 
   1   3  11   13.10    1.08 
   1   3  11   12.64    1.00 
   2   3  11   35.65    1.58 
   2   3  11   36.81    1.84 
   2   3  11   39.91    1.77 
   3   3  11    7.79    1.04 
   3   3  11    6.04    0.82 
   3   3  11    8.48    0.74 
   4   3  11   28.39    1.70 
   4   3  11   26.17    1.53 
   5   3  11    7.08    1.04 
   5   3  11    7.91    0.99 
   6   3  11   14.52    1.55 
   6   3  11   14.76    1.26 
   7   3  11    7.98    1.08 
   7   3  11    6.91    1.12 
   8   3  11   11.01    1.44 
   8   3  11    8.13    1.14 
   9   3  11    6.84    1.15 
   9   3  11    4.48    1.03 
  -7   4  11    0.97    0.50 
   7   4 -11    0.72    0.45 
   6   4 -11   -0.21    0.32 
  -6   4  11    0.34    0.35 
  -5   4  11    0.30    0.36 
   5   4 -11    0.25    0.35 
  -4  -4  11   -0.13    0.86 
  -4   4  11    0.55    0.39 
   4   4 -11    0.53    0.33 
  -3  -4  11    0.45    0.57 
  -3   4  11    0.52    0.39 
  -2  -4  11   -0.24    0.48 
  -2   4  11    0.47    0.45 
  -1  -4  11    0.66    0.54 
  -1   4  11    0.38    0.41 
   0   4  11    0.03    0.38 
   1   4  11    0.21    0.42 
   1   4  11    0.33    0.32 
   2   4  11    0.70    0.36 
   2   4  11    0.80    0.54 
   3   4  11    0.02    0.43 
   3   4  11    0.63    0.40 
   4   4  11    0.13    0.31 
   4   4  11    0.57    0.52 
   5   4  11    0.63    0.53 
   5   4  11    0.41    0.38 
   6   4  11    0.06    0.50 
   6   4  11    0.31    0.36 
  13   0 -12    2.06    0.73 
  12   0 -12    6.74    1.06 
  11   0 -12    9.63    1.22 
  11   0 -12   10.06    1.09 
  10   0 -12   24.34    1.54 
  10   0 -12   21.42    1.33 
   9   0 -12   23.75    1.50 
   9   0 -12   25.64    1.39 
   8   0 -12   44.99    1.79 
   8   0 -12   44.76    1.96 
   7   0 -12   58.64    2.18 
  -7   0  12   52.16    1.91 
   7   0 -12   54.36    1.95 
   6   0 -12   49.42    1.82 
  -6   0  12   52.23    1.84 
   6   0 -12   52.33    2.01 
   5   0 -12   93.63    2.72 
  -5   0  12   87.10    2.48 
   5   0 -12   86.72    2.48 
   4   0 -12   71.40    2.18 
  -4   0  12   77.99    2.21 
   3   0 -12  182.49    4.07 
  -3   0  12  189.06    4.05 
  -3   0  12  184.90    4.10 
  -2   0  12  143.33    3.40 
  -2   0  12  142.60    3.31 
   2   0 -12  142.28    3.37 
  -1   0  12  256.51    5.06 
  -1   0  12  241.50    5.10 
   1   0 -12  249.25    5.08 
   0   0 -12   65.91    2.03 
   0   0  12   67.94    2.06 
   0   0  12   66.47    1.96 
   1   0  12  156.63    3.55 
   1   0  12  157.87    3.17 
  -1   0 -12  161.80    3.67 
   1   0  12  156.53    3.62 
   2   0  12   21.77    1.07 
   2   0  12   20.67    1.16 
   2   0  12   21.44    0.77 
  -2   0 -12   20.66    1.07 
   2   0  12   21.93    1.04 
   3   0  12  163.46    3.00 
  -3   0 -12  162.24    3.82 
   3   0  12  157.19    3.67 
   3   0  12  167.87    4.05 
   3   0  12  166.00    3.74 
   4   0  12   14.10    0.87 
   4   0  12   14.27    0.88 
   4   0  12   13.12    1.00 
  -4   0 -12   15.68    0.98 
  -5   0 -12  151.69    3.72 
   5   0  12  142.27    3.46 
   5   0  12  150.73    3.88 
   5   0  12  146.69    3.48 
   6   0  12    5.03    0.62 
  -6   0 -12    5.59    0.68 
   6   0  12    6.43    0.81 
   6   0  12    7.33    0.65 
   7   0  12   76.36    2.69 
   7   0  12   76.33    2.29 
  -7   0 -12   82.82    2.62 
   8   0  12    2.33    0.62 
  -8   0 -12    2.19    0.51 
   8   0  12    3.24    0.55 
   9   0  12   44.72    1.71 
  -9   0 -12   47.72    2.03 
   9   0  12   47.67    2.19 
  10   0  12    0.27    0.42 
  10   0  12    0.61    0.31 
 -10   0 -12    1.70    0.51 
  11   0  12   19.46    1.12 
  11   0  12   18.44    1.51 
 -11   0 -12   18.89    1.37 
 -12   0 -12    0.41    0.34 
  12   0  12    0.32    0.50 
  12   1 -12    0.73    0.51 
  12   1 -12    0.34    0.57 
  11  -1 -12    6.55    1.03 
  11   1 -12    6.80    0.93 
  11   1 -12    5.52    0.93 
  10  -1 -12    6.15    0.92 
  10   1 -12    4.76    0.76 
  10   1 -12    6.18    0.93 
   9  -1 -12    9.99    1.06 
   9  -1 -12   12.57    0.93 
   9   1 -12   10.50    1.10 
   9   1 -12   12.75    1.00 
  -8  -1  12   18.54    1.33 
   8  -1 -12   18.19    1.08 
   8  -1 -12   19.76    1.32 
   8   1 -12   18.43    1.16 
   8   1 -12   21.80    1.36 
  -7  -1  12   16.16    0.95 
   7  -1 -12   16.88    1.15 
   7  -1 -12   16.73    0.99 
   7   1 -12   16.30    1.17 
   7   1 -12   15.35    1.04 
  -6  -1  12   38.25    1.45 
   6  -1 -12   40.05    1.53 
  -6   1  12   39.99    1.56 
   6   1 -12   38.45    1.59 
   6   1 -12   39.95    1.74 
   5  -1 -12   33.11    1.35 
  -5  -1  12   34.81    1.33 
  -5   1  12   34.23    1.42 
   5   1 -12   34.29    1.43 
   5   1 -12   32.76    1.54 
   4  -1 -12   41.33    1.49 
  -4  -1  12   41.35    1.67 
  -4  -1  12   38.92    1.40 
   4   1 -12   41.46    1.58 
   4   1 -12   42.07    1.69 
  -4   1  12   42.93    1.60 
  -3  -1  12   47.40    1.77 
  -3  -1  12   46.43    1.50 
   3  -1 -12   48.05    1.60 
   3   1 -12   46.52    1.66 
  -3   1  12   50.51    2.06 
  -3   1  12   45.43    1.67 
  -2  -1  12   76.19    2.07 
   2  -1 -12   80.85    2.21 
  -2  -1  12   80.23    2.39 
  -2   1  12   83.62    2.41 
   2   1 -12   81.85    2.29 
  -2   1  12   78.86    2.31 
   1  -1 -12   18.44    0.94 
  -1  -1  12   16.84    0.84 
  -1  -1  12   19.26    1.03 
  -1   1  12   16.30    0.95 
   1   1 -12   15.51    0.92 
  -1   1  12   17.07    1.01 
   0  -1 -12  143.52    3.26 
   0  -1  12  144.18    3.37 
   0  -1  12  137.54    3.08 
   0   1 -12  138.86    3.32 
   0   1  12  136.20    3.37 
   1  -1  12   13.45    0.75 
   1  -1  12   14.64    0.87 
  -1  -1 -12   13.88    0.83 
   1  -1  12   14.82    0.91 
   1  -1  12   14.40    0.94 
   1   1  12   15.22    0.96 
  -1   1 -12   13.48    0.85 
  -2  -1 -12   92.22    2.53 
   2  -1  12   96.28    2.71 
   2  -1  12   95.24    2.36 
   2  -1  12   97.78    2.60 
   2  -1  12   97.47    2.49 
   2   1  12   96.36    2.82 
   2   1  12   98.47    2.71 
  -2   1 -12   93.75    2.59 
   3  -1  12   19.53    1.12 
  -3  -1 -12   19.78    1.05 
   3  -1  12   20.52    0.95 
   3  -1  12   18.08    1.00 
   3  -1  12   19.11    0.91 
   3   1  12   17.50    1.14 
   3   1  12   18.96    1.10 
  -3   1 -12   17.12    0.99 
   4  -1  12   60.65    2.10 
   4  -1  12   56.20    1.88 
  -4  -1 -12   60.89    2.01 
   4   1  12   61.16    2.24 
  -4   1 -12   61.52    1.96 
  -4   1 -12   61.51    2.04 
   4   1  12   60.85    2.09 
   5  -1  12    5.03    0.62 
   5  -1  12    5.02    0.73 
  -5  -1 -12    4.84    0.63 
  -5   1 -12    6.45    0.71 
  -5   1 -12    5.09    0.66 
   5   1  12    5.70    0.81 
   5   1  12    5.53    0.77 
   6  -1  12   45.58    1.59 
   6  -1  12   45.61    1.89 
  -6  -1 -12   42.99    1.76 
   6   1  12   46.83    2.03 
  -6   1 -12   45.75    1.81 
  -6   1 -12   41.98    1.62 
   6   1  12   44.70    1.85 
  -6   1 -12   45.28    1.29 
   7  -1  12    1.81    0.51 
  -7  -1 -12    1.61    0.44 
   7  -1  12    3.16    0.51 
   7   1  12    0.96    0.44 
   7   1  12    2.48    0.56 
  -7   1 -12    1.19    0.26 
  -7   1 -12    2.06    0.46 
  -8  -1 -12   26.82    1.45 
   8  -1  12   28.79    1.20 
   8  -1  12   25.47    1.52 
  -8   1 -12   27.63    1.47 
   8   1  12   30.41    1.57 
   8   1  12   25.82    1.62 
   9  -1  12    0.78    0.28 
  -9  -1 -12    0.57    0.34 
   9  -1  12    0.40    0.44 
  -9   1 -12    0.04    0.32 
   9   1  12    0.46    0.35 
   9   1  12    0.44    0.44 
 -10  -1 -12   16.41    1.21 
  10   1  12   17.20    1.25 
  10   1  12   16.34    1.64 
 -11  -1 -12    0.10    0.27 
  11   1  12    0.27    0.49 
  11   1  12   -0.01    0.36 
 -12  -1 -12    4.90    0.79 
  12   1  12    4.99    0.89 
  12   1  12    6.13    1.10 
 -11  -2  12    0.72    0.32 
  11   2 -12    0.72    0.53 
 -10  -2  12    0.12    0.43 
 -10  -2  12    0.22    0.22 
 -10  -2  12   -0.10    0.14 
  10   2 -12    0.48    0.47 
  -9  -2  12   -0.04    0.16 
  -9  -2  12    0.57    0.50 
   9   2 -12    0.43    0.42 
  -8  -2  12   -0.06    0.12 
  -8  -2  12    0.36    0.50 
   8   2 -12    0.20    0.36 
  -7  -2  12    0.11    0.38 
  -7  -2  12   -0.04    0.12 
   7   2 -12    0.20    0.35 
  -7   2  12    0.18    0.27 
  -6  -2  12    0.39    0.18 
  -6  -2  12    0.63    0.47 
  -6   2  12    0.36    0.30 
   6   2 -12   -0.16    0.29 
  -5  -2  12    0.24    0.34 
  -5  -2  12   -0.11    0.10 
  -5   2  12    0.40    0.28 
   5   2 -12    0.05    0.29 
   5   2 -12   -0.10    0.24 
  -5   2  12   -0.09    0.27 
  -4  -2  12    0.54    0.41 
  -4  -2  12    0.43    0.14 
   4  -2 -12    0.23    0.18 
   4   2 -12    0.65    0.30 
  -4   2  12    0.23    0.30 
   4   2 -12    0.23    0.28 
  -4   2  12    0.66    0.34 
  -3  -2  12    1.35    0.48 
   3  -2 -12    1.32    0.27 
  -3   2  12    1.20    0.38 
  -3   2  12    1.13    0.39 
   3   2 -12    1.75    0.39 
  -2  -2  12    0.41    0.34 
   2  -2 -12    0.04    0.12 
   2   2 -12    0.33    0.20 
  -2   2  12   -0.13    0.22 
  -2   2  12    0.16    0.25 
   1  -2 -12    1.16    0.24 
  -1  -2  12    2.34    0.55 
  -1   2  12    0.75    0.35 
   1   2 -12    0.95    0.30 
  -1   2  12    1.27    0.38 
   0  -2  12    0.10    0.17 
   0  -2 -12   -0.01    0.12 
   0  -2  12    0.17    0.29 
   0   2  12   -0.16    0.20 
   0   2 -12   -0.01    0.16 
   1  -2  12    0.32    0.21 
   1  -2  12    0.70    0.36 
  -1  -2 -12    0.29    0.18 
  -1   2 -12    0.47    0.26 
   1   2  12    0.75    0.38 
   2  -2  12    0.10    0.17 
  -2  -2 -12    0.97    0.26 
   2  -2  12    1.02    0.40 
   2   2  12    0.63    0.35 
   2   2  12    1.01    0.28 
  -2   2 -12    0.58    0.26 
  -2   2 -12    0.75    0.28 
   2   2  12    0.66    0.36 
  -3  -2 -12    0.50    0.23 
   3  -2  12   -0.06    0.14 
   3   2  12    1.09    0.47 
  -3   2 -12    0.71    0.30 
  -3   2 -12    1.12    0.37 
   3   2  12    0.69    0.40 
   3   2  12    0.82    0.22 
  -3   2 -12    0.62    0.26 
  -4  -2 -12    0.10    0.19 
   4  -2  12    0.02    0.22 
  -4   2 -12   -0.06    0.23 
  -4   2 -12    0.40    0.22 
   4   2  12    1.00    0.47 
   4   2  12   -0.13    0.31 
   4   2  12    0.28    0.10 
  -4   2 -12    0.37    0.27 
   5  -2  12    0.09    0.25 
  -5  -2 -12    0.45    0.25 
   5   2  12   -0.18    0.33 
  -5   2 -12    0.08    0.26 
   5   2  12   -0.01    0.34 
  -6  -2 -12    0.44    0.27 
   6   2  12    1.81    0.57 
  -6   2 -12    0.47    0.31 
   6   2  12    1.16    0.48 
  -7  -2 -12   -0.07    0.21 
   7   2  12   -0.13    0.36 
   7   2  12    0.73    0.50 
  -8  -2 -12    0.46    0.30 
   8   2  12   -0.17    0.36 
   8   2  12    0.43    0.44 
  -9  -2 -12   -0.21    0.20 
   9   2  12    0.10    0.42 
   9   2  12    0.45    0.50 
 -10  -2 -12    0.08    0.28 
  10   2  12    0.33    0.49 
  10   2  12    0.61    0.51 
 -11  -2 -12   -0.03    0.27 
  11   2  12    0.20    0.46 
  11   2  12   -0.05    0.51 
  10   3 -12    1.34    0.64 
   9   3 -12    1.68    0.63 
   8   3 -12    3.93    0.78 
  -8   3  12    4.21    0.68 
  -7  -3  12    8.71    1.42 
   7   3 -12    9.60    1.08 
  -7   3  12    9.85    0.87 
  -6  -3  12    8.40    1.29 
  -6   3  12    7.81    0.90 
   6   3 -12    7.66    0.95 
  -5  -3  12    6.96    1.19 
   5   3 -12    7.42    0.87 
  -5   3  12    7.49    0.89 
  -4  -3  12   15.10    1.65 
  -4   3  12   13.00    1.02 
   4   3 -12   14.17    1.05 
  -3  -3  12   13.22    1.55 
  -3   3  12   10.00    0.91 
  -2  -3  12   20.15    1.56 
  -2   3  12   23.51    1.34 
  -1  -3  12    9.36    1.22 
  -1   3  12   10.64    1.18 
   0  -3  12   22.07    1.56 
   0   3  12   24.19    1.44 
   1  -3  12    4.39    0.84 
   1   3  12    4.94    0.85 
   1   3  12    4.29    0.70 
   2   3  12   27.00    1.36 
   2   3  12   26.42    1.51 
   2   3  12   26.69    1.57 
   3   3  12    5.35    0.88 
   3   3  12    6.01    0.90 
   4   3  12   25.25    1.64 
   4   3  12   30.62    1.71 
   5   3  12    2.30    0.66 
   5   3  12    1.83    0.64 
   6   3  12   11.17    1.27 
   6   3  12   13.79    1.57 
   7   3  12   -0.09    0.38 
   7   3  12    0.46    0.51 
   8   3  12    6.94    1.08 
   8   3  12    5.12    1.03 
   9   3  12    0.26    0.52 
   9   3  12    0.43    0.47 
   6   4 -12    3.42    0.68 
  -6   4  12    4.42    0.76 
   5   4 -12   12.27    1.09 
  -5   4  12   11.43    1.19 
  -4   4  12    5.39    0.85 
  -3   4  12   17.27    1.29 
  -2  -4  12    5.77    1.25 
  -2   4  12    6.79    0.98 
  -1  -4  12   25.61    2.01 
  -1   4  12   27.06    1.65 
   0   4  12    3.71    0.81 
   1   4  12   23.26    1.64 
   1   4  12   24.00    1.49 
   2   4  12    3.70    0.79 
   2   4  12    3.36    0.69 
   3   4  12   19.00    1.54 
   3   4  12   21.43    1.45 
   4   4  12    0.97    0.47 
   4   4  12    0.57    0.60 
   5   4  12   21.57    1.74 
   5   4  12   24.22    1.59 
  12   0 -13    0.26    0.36 
  12   0 -13   -0.20    0.47 
  11   0 -13   -0.01    0.27 
  11   0 -13   -0.30    0.44 
  10   0 -13   -0.22    0.35 
  10   0 -13   -0.13    0.26 
   9   0 -13   -0.21    0.21 
   9   0 -13    0.32    0.39 
   8   0 -13    0.06    0.37 
   8   0 -13    0.14    0.24 
   7   0 -13    0.03    0.29 
   7   0 -13    0.10    0.25 
  -6   0  13   -0.13    0.20 
   6   0 -13   -0.46    0.24 
   6   0 -13   -0.22    0.19 
  -5   0  13    0.17    0.21 
   5   0 -13    0.49    0.25 
  -4   0  13   -0.02    0.17 
   4   0 -13   -0.07    0.18 
  -3   0  13    0.02    0.19 
  -3   0  13   -0.01    0.17 
   3   0 -13    0.15    0.19 
  -2   0  13    0.09    0.18 
  -2   0  13    0.09    0.21 
   2   0 -13   -0.12    0.13 
   1   0 -13    0.12    0.16 
  -1   0  13    0.54    0.25 
  -1   0  13    0.19    0.18 
   0   0  13    0.32    0.23 
   0   0 -13   -0.06    0.15 
   0   0  13   -0.04    0.11 
   0   0  13    0.15    0.18 
   1   0  13    0.12    0.15 
  -1   0 -13   -0.06    0.15 
   1   0  13    0.30    0.21 
   1   0  13    0.02    0.14 
   2   0  13    0.06    0.12 
  -2   0 -13    0.00    0.18 
   2   0  13   -0.03    0.24 
   2   0  13   -0.11    0.15 
   2   0  13   -0.20    0.15 
   3   0  13   -0.03    0.16 
  -3   0 -13   -0.03    0.17 
   3   0  13   -0.25    0.23 
   3   0  13   -0.08    0.10 
   3   0  13   -0.12    0.18 
   4   0  13   -0.20    0.21 
   4   0  13    0.04    0.22 
   4   0  13   -0.01    0.18 
  -4   0 -13   -0.23    0.17 
   5   0  13    0.04    0.18 
  -5   0 -13   -0.07    0.19 
   5   0  13   -0.22    0.23 
   5   0  13    0.23    0.23 
   6   0  13   -0.27    0.26 
  -6   0 -13    0.34    0.28 
   6   0  13   -0.17    0.15 
  -7   0 -13   -0.18    0.21 
   7   0  13    0.02    0.20 
   7   0  13    0.06    0.30 
  -8   0 -13   -0.06    0.25 
   8   0  13   -0.21    0.19 
   8   0  13   -0.13    0.36 
   9   0  13    0.00    0.21 
  -9   0 -13    0.07    0.28 
   9   0  13    0.04    0.39 
  10   0  13    0.05    0.22 
 -10   0 -13    0.18    0.33 
  10   0  13    0.29    0.40 
  11   0  13   -0.09    0.24 
  11   0  13   -0.06    0.44 
 -11   0 -13    0.30    0.38 
 -12   0 -13    0.12    0.35 
  12   1 -13    0.30    0.55 
  11   1 -13    6.55    1.06 
  11   1 -13    5.93    0.90 
  10  -1 -13    1.54    0.59 
  10   1 -13    1.16    0.45 
  10   1 -13    1.27    0.54 
   9  -1 -13    9.59    0.86 
   9  -1 -13    7.84    0.99 
   9   1 -13   10.40    1.15 
   9   1 -13    8.19    0.90 
   8  -1 -13    0.40    0.40 
   8  -1 -13    1.22    0.36 
   8   1 -13    1.00    0.37 
   8   1 -13    0.81    0.45 
   7  -1 -13   17.99    1.06 
  -7  -1  13   18.04    1.03 
   7   1 -13   16.42    1.20 
   7   1 -13   17.10    1.12 
   6  -1 -13    2.20    0.42 
  -6  -1  13    3.22    0.51 
  -6   1  13    3.05    0.57 
   6   1 -13    2.09    0.54 
   6   1 -13    2.70    0.53 
   5  -1 -13   42.73    1.59 
  -5  -1  13   40.77    1.50 
   5   1 -13   40.60    1.77 
   5   1 -13   42.48    1.65 
  -5   1  13   40.30    1.62 
  -4  -1  13    6.71    0.79 
  -4  -1  13    7.02    0.60 
   4  -1 -13    6.31    0.68 
  -4   1  13    7.80    0.86 
   4   1 -13    7.50    0.80 
  -3  -1  13   73.54    2.34 
  -3  -1  13   72.89    2.05 
   3  -1 -13   71.24    2.12 
   3   1 -13   73.86    2.25 
  -3   1  13   71.75    2.25 
   2  -1 -13    1.84    0.38 
  -2  -1  13    3.41    0.46 
  -2  -1  13    2.11    0.45 
   2   1 -13    2.25    0.43 
  -2   1  13    3.16    0.53 
  -1  -1  13   49.13    1.76 
  -1  -1  13   48.10    1.57 
   1  -1 -13   49.42    1.68 
  -1   1  13   48.32    1.78 
   1   1 -13   50.79    1.77 
   0  -1 -13    0.17    0.18 
   0  -1  13    0.40    0.26 
   0  -1  13    0.16    0.17 
   0   1  13    0.62    0.30 
   0   1 -13    0.03    0.16 
  -1  -1 -13   53.72    1.80 
   1  -1  13   52.60    1.92 
   1  -1  13   53.80    1.66 
   1  -1  13   52.34    1.77 
   1  -1  13   51.69    1.83 
  -1   1 -13   52.33    1.83 
   1   1  13   53.71    1.89 
   2  -1  13    2.07    0.45 
  -2  -1 -13    1.89    0.39 
   2  -1  13    1.97    0.41 
   2  -1  13    1.67    0.34 
   2  -1  13    1.87    0.45 
  -2   1 -13    1.54    0.37 
   2   1  13    1.97    0.46 
   2   1  13    2.80    0.54 
  -3  -1 -13   76.55    2.34 
   3  -1  13   72.94    2.27 
   3  -1  13   75.32    2.43 
   3  -1  13   74.65    2.09 
   3  -1  13   74.58    2.09 
   3   1  13   80.89    2.63 
   3   1  13   75.52    2.39 
  -3   1 -13   76.23    2.36 
   4  -1  13    5.53    0.59 
   4  -1  13    5.68    0.70 
   4  -1  13    4.83    0.70 
  -4  -1 -13    3.67    0.55 
  -4   1 -13    5.70    0.69 
   4   1  13    5.28    0.72 
   4   1  13    6.66    0.87 
   5  -1  13   43.13    1.84 
   5  -1  13   41.82    1.62 
  -5  -1 -13   44.56    1.78 
   5   1  13   45.72    2.00 
   5   1  13   43.59    1.80 
  -5   1 -13   42.80    1.77 
   6  -1  13    4.29    0.61 
  -6  -1 -13    3.11    0.58 
   6  -1  13    2.97    0.61 
   6   1  13    4.46    0.73 
  -6   1 -13    2.77    0.52 
   6   1  13    3.57    0.72 
   7  -1  13   20.35    1.06 
   7  -1  13   21.29    1.39 
  -7  -1 -13   20.48    1.25 
  -7   1 -13   21.53    1.29 
   7   1  13   20.62    1.45 
   7   1  13   19.67    1.26 
   8  -1  13    6.83    0.74 
   8  -1  13    4.61    0.77 
  -8  -1 -13    4.43    0.72 
  -8   1 -13    4.92    0.71 
   8   1  13    5.20    0.88 
   8   1  13    5.14    0.78 
   9  -1  13   10.99    0.78 
  -9  -1 -13    9.42    1.03 
   9   1  13    9.71    1.13 
   9   1  13   11.12    1.32 
 -10  -1 -13    3.98    0.71 
  10   1  13    3.36    0.80 
  10   1  13    5.21    0.85 
 -11  -1 -13    5.10    0.82 
  11   1  13    4.38    0.94 
  11   1  13    4.00    0.79 
 -11  -2  13   -0.06    0.22 
  11   2 -13   -0.44    0.42 
 -10  -2  13   10.91    0.80 
 -10  -2  13   10.81    0.74 
  10   2 -13   11.73    1.28 
  -9  -2  13    0.11    0.48 
  -9  -2  13    0.18    0.17 
   9   2 -13    0.48    0.43 
  -8  -2  13   23.29    1.80 
  -8  -2  13   24.76    1.04 
   8   2 -13   26.81    1.61 
  -7  -2  13    2.63    0.76 
  -7  -2  13    2.46    0.38 
  -7   2  13    2.48    0.53 
   7   2 -13    1.87    0.53 
  -6  -2  13   31.52    1.89 
  -6  -2  13   30.52    1.06 
  -6   2  13   33.22    1.50 
   6   2 -13   29.98    1.59 
  -5  -2  13    5.20    0.90 
  -5  -2  13    5.42    0.42 
   5  -2 -13    6.34    0.53 
  -5   2  13    6.73    0.79 
   5   2 -13    4.58    0.71 
   4  -2 -13   59.25    1.70 
  -4  -2  13   60.14    1.44 
  -4  -2  13   61.37    2.49 
  -4   2  13   63.35    2.14 
   4   2 -13   60.30    2.19 
  -3  -2  13   -0.04    0.10 
  -3  -2  13    0.16    0.28 
   3  -2 -13    0.06    0.15 
   3   2 -13   -0.28    0.17 
  -3   2  13   -0.30    0.30 
  -3   2  13    0.41    0.31 
  -2  -2  13  105.70    3.29 
   2  -2 -13  106.31    2.46 
  -2   2  13  107.52    3.01 
   2   2 -13  102.56    2.82 
  -2   2  13  105.55    3.02 
   1  -2 -13    1.27    0.29 
  -1  -2  13    0.64    0.31 
  -1  -2  13    1.44    0.47 
  -1   2  13    1.67    0.47 
  -1   2  13    0.87    0.38 
   1   2 -13    2.35    0.48 
   0  -2 -13  125.84    2.77 
   0  -2  13  122.06    3.50 
   0   2  13  120.77    3.32 
   0   2 -13  115.65    3.06 
   1  -2  13    0.37    0.32 
  -1  -2 -13    1.15    0.29 
   1  -2  13   -0.03    0.19 
   1   2  13    0.95    0.36 
  -1   2 -13    0.91    0.33 
  -2  -2 -13  112.34    2.68 
   2  -2  13  115.07    3.27 
  -2   2 -13  111.17    3.20 
   2   2  13  115.72    3.37 
   2   2  13  114.76    2.66 
   2   2  13  111.12    3.25 
   3  -2  13    0.73    0.32 
  -3  -2 -13    0.38    0.23 
   3   2  13    0.74    0.44 
   3   2  13    0.35    0.36 
  -3   2 -13    0.59    0.27 
   3   2  13    0.68    0.20 
  -4  -2 -13   72.18    2.14 
   4  -2  13   75.09    2.35 
   4   2  13   78.90    2.70 
  -4   2 -13   71.82    2.19 
   4   2  13   70.83    2.65 
  -5  -2 -13   10.42    0.78 
   5   2  13   11.31    1.21 
   5   2  13   11.50    1.06 
  -5   2 -13   11.72    0.84 
  -6  -2 -13   50.56    1.83 
   6   2  13   50.12    2.26 
   6   2  13   53.49    2.27 
  -7  -2 -13    7.44    0.83 
   7   2  13    7.13    1.00 
   7   2  13    8.29    1.08 
  -8  -2 -13   31.73    1.53 
   8   2  13   36.96    2.02 
   8   2  13   33.86    1.88 
  -9  -2 -13    3.73    0.64 
   9   2  13    4.81    0.89 
   9   2  13    3.72    0.86 
 -10  -2 -13    8.53    0.97 
  10   2  13   12.01    1.44 
  10   2  13   10.89    1.37 
   9   3 -13    2.20    0.73 
   8   3 -13    0.15    0.46 
  -8   3  13    0.42    0.35 
  -7  -3  13    4.86    1.16 
   7   3 -13    5.22    0.83 
  -7   3  13    3.70    0.67 
  -6  -3  13    0.60    0.62 
  -6   3  13    0.19    0.33 
   6   3 -13   -0.02    0.34 
  -5  -3  13   19.32    1.66 
   5   3 -13   24.15    1.42 
  -5   3  13   22.48    1.33 
  -4  -3  13   -0.03    0.43 
  -4   3  13    0.37    0.35 
  -3  -3  13   39.20    2.24 
  -3   3  13   45.56    1.91 
  -2  -3  13    0.23    0.42 
  -2   3  13   -0.06    0.29 
  -1  -3  13   25.91    1.75 
  -1   3  13   29.77    1.59 
   0  -3  13    1.37    0.59 
   0   3  13    0.42    0.39 
   1  -3  13   33.05    1.90 
   1   3  13   28.11    2.05 
   1   3  13   32.03    1.71 
   2   3  13    1.99    0.62 
   2   3  13    2.14    0.59 
   3   3  13   56.69    2.42 
   3   3  13   52.87    2.32 
   4   3  13    2.35    0.65 
   4   3  13    1.04    0.52 
   5   3  13   32.64    1.86 
   5   3  13   32.93    1.93 
   6   3  13    0.29    0.41 
   6   3  13    0.32    0.48 
   7   3  13   10.00    1.27 
   7   3  13   15.79    1.71 
   8   3  13    1.63    0.65 
   8   3  13    0.83    0.64 
  -5   4  13   -0.01    0.35 
  -4   4  13   -0.21    0.35 
  -3   4  13   -0.01    0.36 
  -2   4  13    1.06    0.48 
  -1  -4  13    0.33    1.05 
  -1   4  13    1.05    0.52 
   0   4  13    1.05    0.52 
   1   4  13   -0.15    0.39 
   1   4  13    0.52    0.35 
   2   4  13    0.41    0.37 
   2   4  13    0.94    0.52 
   3   4  13    0.02    0.29 
   3   4  13   -0.13    0.42 
   4   4  13    1.53    0.61 
   4   4  13    0.20    0.37 
  12   0 -14    2.74    0.67 
  12   0 -14    3.60    0.89 
  11   0 -14   12.14    1.44 
  11   0 -14   10.32    1.08 
  10   0 -14    3.32    0.76 
  10   0 -14    3.22    0.67 
   9   0 -14   10.75    1.26 
   9   0 -14    7.68    0.95 
   8   0 -14    8.76    0.94 
   8   0 -14    8.51    1.03 
   7   0 -14   31.36    1.50 
   7   0 -14   28.50    1.61 
   6   0 -14   27.38    1.40 
   6   0 -14   26.88    1.51 
  -5   0  14   83.92    2.53 
   5   0 -14   80.41    2.51 
  -4   0  14   23.25    1.20 
   4   0 -14   24.74    1.25 
   3   0 -14   23.75    1.21 
  -3   0  14   24.31    1.20 
  -3   0  14   22.92    1.21 
  -2   0  14   15.19    0.94 
  -2   0  14   16.50    1.01 
   2   0 -14   14.70    0.96 
   1   0 -14   14.61    0.94 
  -1   0  14   13.40    0.88 
  -1   0  14   13.56    0.94 
   0   0 -14   64.74    2.14 
   0   0  14   66.97    2.17 
   0   0  14   67.68    2.09 
   0   0  14   63.67    1.79 
  -1   0 -14  102.20    2.86 
   1   0  14  103.58    2.87 
   1   0  14  102.21    2.38 
   1   0  14  101.47    2.74 
  -2   0 -14   88.15    2.61 
   2   0  14   83.02    2.45 
   2   0  14   84.68    2.72 
   2   0  14   85.56    2.02 
   2   0  14   86.32    2.55 
  -3   0 -14   68.75    2.29 
   3   0  14   67.15    1.55 
   3   0  14   70.63    2.23 
   3   0  14   64.90    2.39 
   3   0  14   69.36    2.18 
   4   0  14   46.72    1.75 
  -4   0 -14   45.03    1.83 
   4   0  14   45.48    1.97 
   4   0  14   44.46    1.69 
  -5   0 -14   17.56    1.14 
   5   0  14   16.97    1.22 
   5   0  14   15.82    1.01 
   6   0  14   45.97    1.75 
  -6   0 -14   44.45    1.90 
   6   0  14   47.65    2.10 
  -7   0 -14   14.93    1.13 
   7   0  14   17.14    1.30 
   7   0  14   15.15    0.99 
   8   0  14   40.58    1.66 
  -8   0 -14   43.12    1.96 
   8   0  14   43.73    2.14 
   9   0  14   15.13    1.35 
   9   0  14   12.18    0.92 
  -9   0 -14   12.95    1.11 
 -10   0 -14   22.63    1.52 
  10   0  14   21.28    1.20 
  10   0  14   24.23    1.72 
  11   0  14    3.07    0.85 
 -11   0 -14    3.21    0.73 
  11   1 -14    2.62    0.76 
  10  -1 -14    4.81    0.88 
  10  -1 -14    5.79    0.78 
  10   1 -14    4.42    0.87 
  10   1 -14    4.98    0.83 
   9  -1 -14    4.34    0.66 
   9  -1 -14    4.02    0.83 
   9   1 -14    5.49    0.90 
   9   1 -14    3.24    0.62 
   8  -1 -14   16.17    1.08 
   8   1 -14   16.12    1.27 
   8   1 -14   14.15    1.07 
   7  -1 -14    1.37    0.38 
   7   1 -14    1.35    0.51 
   7   1 -14    1.50    0.44 
   6  -1 -14   17.10    1.04 
  -6  -1  14   14.95    0.94 
   6   1 -14   17.52    1.11 
   6   1 -14   17.27    1.22 
  -6   1  14   15.56    1.03 
  -5  -1  14   20.83    1.06 
  -5  -1  14   19.28    1.23 
   5  -1 -14   19.79    1.10 
  -5   1  14   20.54    1.16 
   5   1 -14   18.61    1.25 
   5   1 -14   19.52    1.15 
  -4  -1  14   10.22    1.04 
  -4  -1  14   10.20    0.74 
   4  -1 -14    9.39    0.76 
   4   1 -14   10.56    0.86 
  -4   1  14   10.83    0.86 
  -3  -1  14   49.77    1.68 
  -3  -1  14   48.93    1.93 
   3  -1 -14   53.94    1.82 
  -3   1  14   54.45    1.94 
   3   1 -14   51.36    1.88 
  -2  -1  14   36.28    1.37 
   2  -1 -14   37.39    1.49 
  -2  -1  14   36.07    1.57 
   2   1 -14   33.88    1.48 
  -2   1  14   36.15    1.56 
  -1  -1  14    7.60    0.82 
   1  -1 -14    5.95    0.69 
  -1  -1  14    6.80    0.59 
   1   1 -14    6.45    0.76 
  -1   1  14    7.60    0.72 
   0  -1  14   50.60    1.82 
   0  -1 -14   52.87    1.83 
   0  -1  14   53.22    1.96 
   0  -1  14   50.67    1.66 
   0   1  14   51.82    1.90 
   0   1 -14   50.05    1.85 
   1  -1  14    8.04    0.70 
  -1  -1 -14    6.65    0.73 
   1  -1  14    6.95    0.60 
   1  -1  14    6.19    0.75 
  -1   1 -14    6.64    0.74 
   1   1  14    8.73    0.79 
   2  -1  14   19.79    1.21 
   2  -1  14   20.92    1.06 
   2  -1  14   20.30    1.00 
  -2  -1 -14   22.45    1.17 
   2  -1  14   18.82    1.13 
   2   1  14   19.54    1.27 
  -2   1 -14   20.83    1.17 
   2   1  14   20.86    1.18 
   3  -1  14   49.39    1.63 
  -3  -1 -14   49.68    1.87 
   3  -1  14   48.20    1.84 
   3  -1  14   49.57    1.66 
   3  -1  14   51.97    2.00 
   3   1  14   49.51    1.91 
  -3   1 -14   51.49    1.93 
   3   1  14   46.90    2.03 
   4  -1  14   18.22    0.97 
   4  -1  14   18.02    1.19 
  -4  -1 -14   19.28    1.16 
   4  -1  14   18.21    1.09 
  -4   1 -14   19.32    1.18 
   4   1  14   19.94    1.20 
   4   1  14   18.51    1.30 
  -5  -1 -14   30.05    1.48 
   5  -1  14   29.58    1.56 
   5  -1  14   27.89    1.36 
  -5   1 -14   33.21    1.56 
   5   1  14   31.51    1.71 
   5   1  14   29.72    1.50 
   6  -1  14   19.60    1.10 
  -6  -1 -14   20.52    1.26 
   6  -1  14   21.99    1.40 
   6   1  14   20.98    1.28 
   6   1  14   18.99    1.40 
  -6   1 -14   22.22    1.31 
   7  -1  14   10.15    0.80 
  -7  -1 -14    9.67    1.03 
   7  -1  14   10.51    1.17 
   7   1  14    8.00    0.95 
   7   1  14   10.64    1.25 
  -7   1 -14    8.76    0.96 
  -8  -1 -14    8.88    1.01 
   8  -1  14    8.91    0.75 
   8  -1  14    8.59    1.10 
   8   1  14    8.45    1.09 
  -8   1 -14    7.20    0.98 
   8   1  14    8.40    1.01 
  -9  -1 -14   10.50    1.15 
   9   1  14   11.96    1.41 
   9   1  14   11.22    1.03 
 -10  -1 -14    4.16    0.79 
  10   1  14    4.65    0.82 
  10   1  14    3.81    0.90 
 -11  -1 -14    9.31    1.16 
  11   1  14   10.15    1.40 
  11   1  14   10.79    1.22 
  10   2 -14   -0.01    0.46 
  -9  -2  14   -0.06    0.17 
  -9  -2  14    0.06    0.59 
   9   2 -14   -0.18    0.42 
  -8  -2  14    0.40    0.54 
  -8  -2  14    0.83    0.28 
   8   2 -14    1.25    0.53 
  -7  -2  14    0.15    0.17 
  -7  -2  14    0.13    0.41 
   7   2 -14    0.22    0.35 
  -7   2  14    0.28    0.32 
  -6  -2  14    6.85    1.12 
  -6  -2  14    5.33    0.52 
   6  -2 -14    5.18    0.59 
   6   2 -14    4.44    0.77 
  -6   2  14    5.83    0.82 
   5  -2 -14    2.94    0.44 
  -5  -2  14    3.16    0.39 
  -5  -2  14    4.57    0.85 
  -5   2  14    2.93    0.57 
   5   2 -14    2.27    0.56 
  -4  -2  14    0.89    0.21 
   4  -2 -14    1.12    0.30 
  -4  -2  14    0.98    0.48 
  -4   2  14    0.87    0.37 
  -3  -2  14    0.25    0.14 
   3  -2 -14    0.35    0.20 
  -3  -2  14    0.42    0.39 
  -3   2  14    0.23    0.29 
  -2  -2  14    0.73    0.40 
  -2  -2  14    0.75    0.17 
   2  -2 -14   -0.02    0.13 
  -2   2  14    0.40    0.32 
  -1  -2  14   -0.01    0.22 
  -1  -2  14    0.00    0.28 
   1  -2 -14   -0.05    0.13 
  -1   2  14   -0.03    0.24 
  -1   2  14   -0.45    0.35 
   0  -2  14    1.35    0.39 
   0  -2  14    1.20    0.48 
   0  -2 -14    0.53    0.21 
   0   2  14    0.87    0.37 
   1  -2  14    9.06    0.90 
  -1  -2 -14    8.19    0.63 
   1  -2  14    7.69    0.94 
   1   2  14    7.49    0.95 
   2  -2  14    0.17    0.28 
   2  -2  14   -0.02    0.30 
  -2  -2 -14   -0.11    0.16 
   2   2  14    0.27    0.36 
   2   2  14   -0.06    0.32 
   2   2  14   -0.10    0.19 
   3  -2  14    8.26    1.19 
  -3  -2 -14    5.68    0.65 
   3   2  14    6.47    0.50 
   3   2  14    7.82    1.01 
   3   2  14    6.89    0.94 
  -4  -2 -14    0.33    0.23 
   4   2  14    0.38    0.38 
   4   2  14    0.29    0.39 
  -5  -2 -14    0.07    0.22 
   5   2  14    0.14    0.38 
   5   2  14    0.15    0.37 
  -6  -2 -14   -0.27    0.20 
   6   2  14    0.02    0.33 
   6   2  14    0.00    0.43 
  -7  -2 -14    0.48    0.31 
   7   2  14    2.01    0.63 
   7   2  14    0.86    0.53 
  -8  -2 -14    0.08    0.24 
   8   2  14    0.16    0.44 
   8   2  14    0.88    0.48 
  -9  -2 -14    1.43    0.47 
   9   2  14    2.64    0.85 
   9   2  14    1.89    0.65 
 -10  -2 -14    0.32    0.33 
  10   2  14    0.19    0.51 
  10   2  14   -0.16    0.42 
   8   3 -14    1.51    0.59 
  -8   3  14    0.99    0.46 
   7   3 -14    1.87    0.60 
  -7   3  14    2.25    0.59 
  -6  -3  14    2.68    0.85 
  -6   3  14    2.22    0.59 
   6   3 -14    3.11    0.68 
  -5  -3  14    2.89    0.93 
  -5   3  14    2.22    0.56 
   5   3 -14    2.02    0.57 
  -4  -3  14    8.18    1.30 
  -4   3  14    7.02    0.96 
  -3  -3  14    2.75    0.80 
  -3   3  14    2.49    0.60 
  -2  -3  14    4.74    0.95 
  -2   3  14    5.39    0.85 
  -1  -3  14    6.56    1.09 
  -1   3  14    4.91    0.78 
   0  -3  14    7.10    1.09 
   0   3  14    7.37    1.02 
   1  -3  14    8.70    1.19 
   1   3  14    9.11    1.15 
   2   3  14    5.49    0.89 
   2   3  14    4.12    0.78 
   3   3  14    4.59    0.86 
   3   3  14    5.15    0.94 
   4   3  14    1.84    0.66 
   4   3  14    1.77    0.62 
   5   3  14    6.97    1.06 
   5   3  14    8.03    1.14 
   6   3  14    2.33    0.74 
   6   3  14    2.29    0.75 
   7   3  14    8.98    1.29 
   7   3  14   10.73    1.36 
  -3   4  14    7.59    1.05 
  -2   4  14    7.76    1.11 
  -1   4  14    9.37    1.26 
   0   4  14    6.58    1.09 
   1   4  14    8.76    1.17 
   1   4  14   10.00    1.24 
   2   4  14    9.93    1.27 
   2   4  14    9.20    1.30 
   3   4  14   10.58    1.37 
   3   4  14    9.59    1.26 
  11   0 -15    0.26    0.48 
  11   0 -15   -0.01    0.31 
  10   0 -15    0.22    0.27 
  10   0 -15    0.23    0.44 
   9   0 -15    0.03    0.30 
   9   0 -15   -0.30    0.39 
   8   0 -15    0.05    0.35 
   8   0 -15   -0.02    0.27 
   7   0 -15   -0.13    0.19 
   7   0 -15   -0.43    0.30 
   6   0 -15   -0.24    0.18 
   5   0 -15   -0.21    0.20 
   4   0 -15   -0.24    0.20 
  -3   0  15   -0.20    0.21 
   3   0 -15   -0.04    0.20 
  -3   0  15    0.25    0.23 
   2   0 -15    0.09    0.19 
  -2   0  15    0.14    0.25 
  -2   0  15    0.17    0.21 
  -1   0  15    0.00    0.22 
   1   0 -15    0.01    0.17 
  -1   0  15    0.11    0.22 
   0   0 -15   -0.02    0.17 
   0   0  15    0.16    0.17 
   0   0  15    0.22    0.25 
   0   0  15    0.00    0.18 
   1   0  15    0.22    0.23 
   1   0  15    0.12    0.20 
   1   0  15    0.10    0.16 
   1   0  15    0.29    0.31 
  -1   0 -15    0.23    0.22 
  -2   0 -15   -0.03    0.19 
   2   0  15    0.53    0.30 
   2   0  15   -0.03    0.13 
   2   0  15    0.10    0.22 
   2   0  15    0.12    0.30 
   3   0  15   -0.07    0.22 
   3   0  15   -0.09    0.26 
   3   0  15   -0.17    0.30 
   3   0  15    0.09    0.12 
  -3   0 -15   -0.23    0.19 
  -4   0 -15    0.01    0.23 
   4   0  15    0.00    0.20 
   4   0  15    0.18    0.30 
   5   0  15   -0.07    0.31 
   5   0  15   -0.26    0.21 
  -5   0 -15   -0.11    0.21 
   6   0  15   -0.33    0.29 
  -6   0 -15   -0.03    0.27 
   6   0  15    0.14    0.23 
   7   0  15   -0.46    0.30 
  -7   0 -15   -0.37    0.24 
   7   0  15    0.18    0.28 
  -8   0 -15    0.07    0.29 
   8   0  15    0.31    0.30 
   8   0  15   -0.26    0.39 
  -9   0 -15   -0.20    0.31 
   9   0  15    0.46    0.52 
   9   0  15    0.20    0.27 
  10   0  15   -0.08    0.28 
  10   0  15   -0.15    0.44 
 -10   0 -15    0.56    0.37 
  11   1 -15    1.38    0.65 
  10  -1 -15    3.93    0.68 
  10   1 -15    4.73    0.90 
   9  -1 -15    2.01    0.49 
   9   1 -15    1.64    0.66 
   9   1 -15    1.24    0.47 
   8  -1 -15   13.00    1.01 
   8   1 -15   13.79    1.10 
   8   1 -15   12.69    1.32 
   7  -1 -15    4.80    0.70 
   7   1 -15    4.18    0.69 
   7   1 -15    3.34    0.71 
  -6  -1  15   24.73    1.49 
   6  -1 -15   22.90    1.25 
  -6   1  15   23.65    1.32 
   6   1 -15   23.22    1.34 
   6   1 -15   23.39    1.47 
   5  -1 -15    0.08    0.21 
  -5  -1  15    0.24    0.30 
  -5  -1  15    0.56    0.27 
  -5   1  15    0.25    0.31 
   5   1 -15    0.58    0.32 
  -4  -1  15   25.29    1.41 
  -4  -1  15   24.08    1.17 
   4  -1 -15   23.35    1.23 
  -4   1  15   24.68    1.34 
   4   1 -15   26.25    1.37 
  -3  -1  15    0.25    0.29 
  -3  -1  15    0.20    0.20 
   3  -1 -15    0.24    0.23 
  -3   1  15    0.43    0.27 
   3   1 -15   -0.07    0.20 
  -2  -1  15   47.91    1.87 
  -2  -1  15   45.11    1.62 
   2  -1 -15   48.73    1.80 
  -2   1  15   45.62    1.84 
   2   1 -15   47.08    1.84 
  -1  -1  15    0.09    0.24 
   1  -1 -15   -0.13    0.17 
  -1  -1  15   -0.16    0.14 
  -1   1  15    0.08    0.27 
   1   1 -15    0.19    0.25 
   0  -1 -15   89.18    2.57 
   0  -1  15   80.46    2.29 
   0  -1  15   79.21    2.61 
   0  -1  15   82.07    2.50 
   0   1 -15   83.58    2.60 
   0   1  15   84.11    2.62 
   1  -1  15    0.76    0.31 
   1  -1  15    0.37    0.33 
   1  -1  15    0.46    0.25 
  -1  -1 -15    0.11    0.26 
  -1   1 -15    0.04    0.22 
   1   1  15    0.61    0.36 
  -2  -1 -15   48.71    1.85 
   2  -1  15   46.33    1.88 
   2  -1  15   50.74    2.02 
   2  -1  15   47.76    1.70 
   2  -1  15   48.56    1.66 
   2   1  15   47.39    2.06 
   2   1  15   46.57    1.17 
   2   1  15   47.01    1.89 
  -2   1 -15   49.79    1.93 
   3  -1  15    0.36    0.23 
   3  -1  15    0.47    0.32 
   3  -1  15    0.30    0.33 
  -3  -1 -15    0.21    0.25 
   3  -1  15    0.32    0.24 
   3   1  15    0.34    0.36 
   3   1  15    0.25    0.30 
  -3   1 -15    0.57    0.30 
   4  -1  15   32.32    1.64 
  -4  -1 -15   31.18    1.52 
   4  -1  15   30.81    1.31 
   4  -1  15   30.37    1.47 
   4   1  15   32.76    1.57 
  -4   1 -15   32.57    1.58 
   4   1  15   29.80    1.69 
   5  -1  15    1.05    0.41 
  -5  -1 -15    0.31    0.30 
   5  -1  15    0.61    0.39 
   5   1  15    0.08    0.35 
   5   1  15    1.46    0.45 
  -5   1 -15    0.73    0.32 
   6  -1  15   34.22    1.52 
  -6  -1 -15   31.80    1.61 
   6  -1  15   33.85    1.76 
   6   1  15   34.46    1.89 
  -6   1 -15   31.86    1.64 
   6   1  15   32.24    1.63 
   7  -1  15    0.59    0.44 
  -7  -1 -15    0.36    0.33 
   7  -1  15    0.49    0.30 
  -7   1 -15    0.23    0.35 
   7   1  15    0.23    0.43 
   7   1  15    0.67    0.37 
   8  -1  15   21.91    1.18 
  -8  -1 -15   19.49    1.34 
   8   1  15   21.90    1.61 
   8   1  15   20.45    1.35 
  -9  -1 -15   -0.07    0.29 
   9   1  15   -0.39    0.40 
   9   1  15    0.22    0.35 
 -10  -1 -15    8.73    1.06 
  10   1  15   11.56    1.07 
  10   1  15   11.78    1.48 
  10   2 -15    2.72    0.72 
  -9  -2  15   10.52    0.73 
   9   2 -15   10.91    1.24 
  -8  -2  15    1.80    0.79 
  -8  -2  15    3.27    0.47 
   8   2 -15    2.57    0.74 
  -7  -2  15   30.82    1.18 
  -7  -2  15   31.80    2.06 
  -7   2  15   33.43    1.61 
   7   2 -15   32.16    1.81 
  -6  -2  15    0.65    0.23 
   6  -2 -15    0.43    0.25 
  -6  -2  15    0.90    0.49 
   6   2 -15   -0.22    0.33 
  -6   2  15    1.03    0.45 
   5  -2 -15   65.24    1.96 
  -5  -2  15   65.31    2.75 
  -5  -2  15   63.07    1.70 
  -5   2  15   64.63    2.32 
   4  -2 -15    1.59    0.37 
  -4  -2  15    1.47    0.28 
  -4  -2  15    1.11    0.54 
  -4   2  15    1.84    0.53 
  -3  -2  15   59.02    1.51 
   3  -2 -15   62.76    1.86 
  -3  -2  15   59.02    2.49 
  -3   2  15   62.74    2.27 
  -2  -2  15    7.46    1.00 
   2  -2 -15    6.78    0.60 
  -2  -2  15    6.86    0.43 
  -2   2  15    8.61    1.01 
  -1  -2  15   65.63    2.55 
   1  -2 -15   66.12    1.96 
  -1   2  15   68.15    2.41 
   0  -2  15    0.41    0.35 
   0  -2 -15    0.06    0.18 
   0   2  15    1.97    0.54 
   1  -2  15   74.26    2.62 
  -1  -2 -15   76.44    2.19 
   1   2  15   75.88    2.62 
   2  -2  15    3.17    0.65 
  -2  -2 -15    2.83    0.48 
   2   2  15    2.68    0.60 
   2   2  15    3.40    0.69 
  -3  -2 -15   63.56    2.04 
   3   2  15   62.67    2.55 
   3   2  15   60.60    2.37 
  -4  -2 -15   -0.07    0.16 
   4   2  15   -0.02    0.33 
   4   2  15   -0.11    0.35 
  -5  -2 -15   38.81    1.65 
   5   2  15   40.49    1.96 
   5   2  15   42.07    2.13 
  -6  -2 -15    0.12    0.27 
   6   2  15    0.05    0.35 
   6   2  15    0.65    0.47 
  -7  -2 -15   23.39    1.32 
   7   2  15   23.84    1.58 
   7   2  15   22.61    1.68 
  -8  -2 -15   -0.28    0.23 
   8   2  15    0.46    0.45 
   8   2  15   -0.52    0.39 
  -9  -2 -15   13.24    1.10 
   9   2  15   13.01    1.48 
   9   2  15   14.29    1.55 
  -7   3  15    2.55    0.64 
   7   3 -15    2.58    0.67 
   6   3 -15   19.33    1.45 
  -6   3  15   18.36    1.27 
  -5  -3  15    0.66    0.65 
  -5   3  15    2.11    0.58 
  -4  -3  15   11.89    1.54 
  -4   3  15   14.41    1.16 
  -3  -3  15    0.88    0.60 
  -3   3  15   -0.05    0.34 
  -2  -3  15   24.05    1.79 
  -2   3  15   25.13    1.50 
  -1  -3  15    1.53    0.62 
  -1   3  15    2.11    0.63 
   0  -3  15   36.54    2.10 
   0   3  15   35.79    1.84 
   1  -3  15    1.18    0.58 
   1   3  15    2.54    0.66 
   2   3  15   14.64    1.32 
   2   3  15   13.67    1.22 
   3   3  15    0.54    0.44 
   3   3  15    0.53    0.42 
   4   3  15    3.03    0.73 
   4   3  15    6.04    0.99 
   5   3  15    0.22    0.49 
   5   3  15    0.44    0.47 
   6   3  15    7.64    1.17 
   6   3  15    6.18    1.03 
   7   3  15    0.06    0.53 
   7   3  15    0.30    0.47 
  11   0 -16    0.79    0.57 
  11   0 -16    0.17    0.34 
  10   0 -16   15.77    1.25 
  10   0 -16   18.20    1.51 
   9   0 -16    0.22    0.42 
   9   0 -16    0.59    0.36 
   8   0 -16   41.34    2.10 
   8   0 -16   38.42    1.84 
   7   0 -16    1.21    0.44 
   6   0 -16   39.50    1.78 
   5   0 -16    3.27    0.59 
   4   0 -16   72.96    2.46 
  -3   0  16   17.20    1.17 
   3   0 -16   17.55    1.16 
   2   0 -16  194.13    4.60 
  -2   0  16  192.74    4.64 
  -1   0  16   30.87    1.27 
  -1   0  16   32.74    1.58 
   1   0 -16   30.05    1.52 
   0   0  16  115.72    2.86 
   0   0  16  120.19    3.35 
   0   0 -16  121.98    3.34 
   1   0  16   25.90    1.08 
   1   0  16   27.66    1.43 
   1   0  16   31.17    1.62 
  -1   0 -16   25.77    1.41 
   2   0  16   72.61    2.64 
  -2   0 -16   75.12    2.52 
   2   0  16   69.04    1.85 
   2   0  16   75.76    2.49 
  -3   0 -16   35.68    1.70 
   3   0  16   36.51    1.86 
   3   0  16   37.16    1.67 
   3   0  16   36.18    1.06 
   4   0  16   91.66    3.12 
  -4   0 -16   96.90    3.01 
   4   0  16   93.42    2.83 
   5   0  16   32.96    1.81 
   5   0  16   34.27    1.59 
  -5   0 -16   37.83    1.80 
  -6   0 -16   50.19    2.14 
   6   0  16   50.88    2.30 
   6   0  16   47.03    1.91 
   7   0  16   22.39    1.57 
   7   0  16   21.79    1.26 
  -7   0 -16   20.97    1.41 
  -8   0 -16   13.88    1.20 
   8   0  16   16.79    1.12 
   8   0  16   17.06    1.46 
   9   0  16    8.87    1.20 
  -9   0 -16    9.69    1.19 
   9   0  16    9.85    0.89 
  10   0  16    7.56    0.90 
 -10   0 -16    6.76    0.97 
  10  -1 -16   -0.19    0.25 
  10   1 -16    0.17    0.51 
   9  -1 -16   10.66    0.95 
   9   1 -16    9.24    1.27 
   8  -1 -16    1.66    0.46 
   8   1 -16    1.36    0.57 
   8   1 -16    0.60    0.38 
  -7  -1  16   16.76    1.34 
   7  -1 -16   18.20    1.18 
   7   1 -16   18.51    1.26 
   7   1 -16   19.48    1.43 
   6  -1 -16    3.87    0.64 
  -6  -1  16    2.92    0.67 
   6   1 -16    3.00    0.60 
  -5  -1  16   36.59    1.81 
   5  -1 -16   39.52    1.67 
  -5   1  16   38.33    1.75 
   5   1 -16   36.79    1.70 
  -4  -1  16    0.57    0.36 
   4  -1 -16    0.35    0.28 
   4   1 -16   -0.13    0.23 
  -4   1  16   -0.26    0.21 
  -3  -1  16   49.83    1.78 
   3  -1 -16   55.07    1.99 
  -3  -1  16   51.47    2.07 
   3   1 -16   51.73    2.04 
  -3   1  16   53.19    2.06 
   2  -1 -16    4.71    0.67 
  -2  -1  16    5.14    0.63 
  -2  -1  16    6.29    0.79 
   2   1 -16    5.39    0.78 
  -2   1  16    4.71    0.71 
  -1  -1  16   46.87    1.88 
  -1  -1  16   48.37    1.70 
   1  -1 -16   47.29    1.83 
  -1   1  16   44.75    1.90 
   1   1 -16   45.70    1.89 
   0  -1  16   30.90    1.60 
   0  -1  16   30.96    1.34 
   0  -1  16   31.19    1.47 
   0  -1 -16   32.33    1.51 
   0   1 -16   31.94    1.56 
   0   1  16   33.85    1.62 
   1  -1  16   46.86    2.01 
   1  -1  16   48.42    1.70 
  -1  -1 -16   51.31    1.96 
   1  -1  16   50.03    1.83 
   1   1  16   50.06    2.00 
  -1   1 -16   48.38    1.97 
   2  -1  16    9.71    1.06 
   2  -1  16   10.57    1.11 
   2  -1  16   10.56    0.78 
   2  -1  16   10.68    0.82 
  -2  -1 -16   10.02    0.89 
   2   1  16   10.76    0.51 
  -2   1 -16   10.92    0.94 
   2   1  16   10.05    1.13 
   3  -1  16   41.30    1.58 
   3  -1  16   43.31    1.95 
   3  -1  16   40.50    1.78 
  -3  -1 -16   40.83    1.78 
   3  -1  16   40.34    1.51 
   3   1  16   44.41    2.08 
   3   1  16   40.77    1.80 
  -3   1 -16   43.44    1.87 
  -4  -1 -16    8.28    0.98 
   4  -1  16    7.90    0.96 
   4  -1  16    8.93    1.00 
   4   1  16    8.61    1.01 
   4   1  16    9.03    1.11 
  -4   1 -16    7.38    0.86 
  -5  -1 -16   23.47    1.40 
   5  -1  16   22.96    1.31 
   5  -1  16   22.33    1.47 
   5   1  16   23.67    1.39 
  -5   1 -16   25.60    1.47 
   5   1  16   24.77    1.63 
   6  -1  16   15.27    1.06 
  -6  -1 -16   17.09    1.23 
   6  -1  16   18.41    1.40 
   6   1  16   15.37    1.14 
   6   1  16   12.48    1.32 
  -6   1 -16   17.20    1.37 
   7  -1  16    9.77    0.87 
  -7  -1 -16    9.51    1.06 
   7   1  16   12.35    1.07 
   7   1  16    9.09    1.26 
   8  -1  16    8.32    0.92 
  -8  -1 -16    8.66    1.10 
   8   1  16    7.01    1.08 
   8   1  16    6.92    0.95 
  -9  -1 -16    2.29    0.59 
   9   1  16    3.68    0.84 
   9   1  16    3.43    0.70 
   9   2 -16    0.10    0.48 
  -8  -2  16    0.72    0.27 
   8   2 -16   -0.03    0.40 
  -7  -2  16    0.30    0.50 
  -7  -2  16    0.30    0.19 
  -7   2  16    1.10    0.45 
   7   2 -16   -0.46    0.35 
   6  -2 -16    0.12    0.21 
  -6  -2  16    0.03    0.17 
  -6  -2  16    0.28    0.46 
  -6   2  16   -0.43    0.24 
  -5  -2  16    0.46    0.22 
   5  -2 -16   -0.03    0.21 
  -5  -2  16    0.86    0.51 
  -5   2  16    0.87    0.46 
  -4  -2  16    0.17    0.40 
   4  -2 -16   -0.22    0.16 
  -4  -2  16    0.02    0.17 
  -4   2  16    0.42    0.38 
   3  -2 -16   -0.08    0.15 
  -3  -2  16   -0.32    0.33 
  -3  -2  16   -0.02    0.13 
  -3   2  16    0.48    0.35 
  -2  -2  16    2.03    0.31 
  -2  -2  16    1.52    0.56 
   2  -2 -16    1.50    0.36 
  -2   2  16    1.64    0.52 
   1  -2 -16   -0.03    0.18 
  -1  -2  16    0.50    0.37 
  -1   2  16    0.58    0.37 
   0  -2 -16   -0.06    0.16 
   0  -2  16    0.23    0.34 
   0   2  16    0.38    0.33 
  -1  -2 -16    0.37    0.23 
   1  -2  16   -0.06    0.27 
   1   2  16    0.61    0.39 
   2  -2  16    0.78    0.44 
  -2  -2 -16    0.92    0.32 
   2   2  16    0.79    0.41 
   2   2  16    1.93    0.61 
  -3  -2 -16    0.07    0.21 
   3   2  16    0.05    0.35 
   3   2  16   -0.32    0.32 
  -4  -2 -16    0.24    0.27 
   4   2  16    0.00    0.35 
   4   2  16   -0.22    0.36 
  -5  -2 -16   -0.32    0.18 
   5   2  16   -0.25    0.35 
   5   2  16    0.22    0.35 
  -6  -2 -16   -0.13    0.22 
   6   2  16   -0.41    0.40 
   6   2  16    0.01    0.34 
  -7  -2 -16    0.16    0.29 
   7   2  16    0.17    0.49 
   7   2  16    0.10    0.38 
  -8  -2 -16    0.85    0.38 
   8   2  16    0.73    0.47 
   8   2  16   -0.31    0.45 
  -6   3  16    0.37    0.37 
  -5   3  16    9.18    1.12 
  -4  -3  16    1.03    0.66 
  -4   3  16    1.23    0.50 
  -3  -3  16   10.70    1.44 
  -3   3  16   12.21    1.11 
  -2  -3  16    1.91    0.73 
  -2   3  16    3.69    0.73 
  -1  -3  16   17.09    1.81 
  -1   3  16   17.28    1.29 
   0  -3  16    2.09    0.70 
   0   3  16    2.02    0.63 
   1  -3  16   11.57    1.43 
   1   3  16   14.23    1.51 
   1   3  16   13.90    1.21 
   2   3  16    5.67    0.99 
   2   3  16    6.87    1.06 
   3   3  16   11.37    1.37 
   3   3  16   10.34    1.25 
   4   3  16    6.51    1.07 
   4   3  16    5.18    0.98 
   5   3  16    5.58    1.00 
   5   3  16    8.07    1.20 
  10   0 -17   -0.17    0.46 
  10   0 -17    0.11    0.36 
   9   0 -17    0.04    0.28 
   8   0 -17   -0.02    0.25 
   7   0 -17   -0.04    0.23 
   6   0 -17    0.04    0.27 
   5   0 -17   -0.17    0.24 
   4   0 -17    0.04    0.24 
  -3   0  17   -0.23    0.28 
   3   0 -17    0.06    0.23 
   2   0 -17    0.15    0.26 
  -2   0  17    0.97    0.41 
  -1   0  17   -0.04    0.24 
  -1   0  17   -0.17    0.19 
   1   0 -17    0.00    0.24 
   0   0  17    0.21    0.32 
   0   0 -17   -0.08    0.22 
   0   0  17   -0.03    0.20 
  -1   0 -17   -0.26    0.22 
   1   0  17   -0.06    0.30 
   1   0  17   -0.22    0.17 
   1   0  17    0.00    0.24 
   2   0  17    0.10    0.27 
  -2   0 -17   -0.07    0.23 
   2   0  17   -0.02    0.16 
   2   0  17   -0.19    0.29 
  -3   0 -17   -0.29    0.23 
   3   0  17    0.21    0.28 
   3   0  17   -0.19    0.33 
   3   0  17    0.17    0.25 
   4   0  17   -0.35    0.33 
   4   0  17   -0.03    0.26 
  -4   0 -17   -0.03    0.25 
   5   0  17   -0.13    0.24 
   5   0  17   -0.45    0.30 
  -5   0 -17   -0.44    0.22 
   6   0  17   -0.22    0.26 
   6   0  17    0.26    0.44 
  -6   0 -17    0.09    0.29 
  -7   0 -17    0.04    0.30 
   7   0  17   -0.13    0.38 
   7   0  17    0.16    0.30 
   8   0  17   -0.12    0.28 
  -8   0 -17   -0.31    0.30 
   8   0  17   -0.14    0.47 
   9   0  17   -0.11    0.26 
  -9   0 -17   -0.41    0.29 
   9  -1 -17    2.69    0.60 
   9   1 -17    2.39    0.74 
  -8  -1  17    3.38    0.82 
   8  -1 -17    3.20    0.61 
   8   1 -17    3.56    0.84 
  -7  -1  17    5.49    0.93 
   7  -1 -17    7.25    0.89 
   7   1 -17    7.35    0.97 
   6  -1 -17    6.95    0.88 
  -6  -1  17    5.82    0.94 
   6   1 -17    6.48    0.90 
  -5  -1  17   11.48    1.25 
   5  -1 -17   11.40    0.94 
   5   1 -17   11.79    1.01 
  -5   1  17   11.82    1.01 
   4  -1 -17   15.66    1.09 
  -4  -1  17   16.29    1.22 
  -4   1  17   15.52    1.15 
   4   1 -17   16.24    1.18 
   3  -1 -17   25.49    1.34 
  -3  -1  17   24.51    1.44 
   3   1 -17   25.32    1.43 
  -3   1  17   24.09    1.41 
   2  -1 -17   11.69    0.94 
  -2  -1  17   13.64    1.06 
  -2   1  17   11.85    0.99 
   2   1 -17   10.73    0.96 
   1  -1 -17   28.03    1.42 
  -1  -1  17   22.67    1.34 
   1   1 -17   24.74    1.41 
  -1   1  17   26.25    1.47 
   0  -1  17   13.13    1.10 
   0  -1  17   12.75    0.99 
   0  -1 -17   13.14    1.01 
   0   1  17   12.55    1.05 
   0   1 -17   13.60    1.09 
   1  -1  17   28.98    1.41 
   1  -1  17   25.04    1.52 
  -1  -1 -17   29.15    1.50 
  -1   1 -17   28.52    1.53 
   1   1  17   30.36    1.58 
   2  -1  17   13.19    1.07 
   2  -1  17   15.18    0.97 
   2  -1  17   13.80    1.17 
  -2  -1 -17   14.72    1.07 
  -2   1 -17   16.19    1.16 
   2   1  17   15.48    1.15 
   2   1  17   13.52    1.23 
   3  -1  17   36.68    1.82 
   3  -1  17   32.99    1.67 
  -3  -1 -17   30.41    1.58 
  -3   1 -17   32.20    1.67 
   3   1  17   33.27    1.67 
   3   1  17   32.98    1.88 
   4  -1  17    7.23    0.97 
  -4  -1 -17    5.75    0.83 
   4  -1  17    7.49    1.01 
  -4   1 -17    4.64    0.72 
   4   1  17    6.87    0.91 
   4   1  17    6.17    1.00 
  -5  -1 -17   22.70    1.43 
   5  -1  17   21.63    2.64 
   5  -1  17   22.42    1.34 
   5   1  17   22.86    1.61 
   5   1  17   23.24    1.40 
   6  -1  17    4.65    0.74 
  -6  -1 -17    3.99    0.76 
   6   1  17    3.36    0.78 
   6   1  17    3.63    0.70 
   7  -1  17   11.07    0.95 
  -7  -1 -17   12.82    1.13 
   7   1  17   11.75    1.05 
   7   1  17   12.10    1.40 
  -8  -1 -17    0.85    0.41 
   8   1  17    1.03    0.61 
   8   1  17    1.77    0.56 
   9   1  17    3.96    0.89 
  -8  -2  17    7.59    0.64 
   8   2 -17    8.26    1.16 
  -7  -2  17    8.71    0.66 
   7  -2 -17    8.58    0.87 
  -7   2  17    9.00    1.09 
  -6  -2  17    9.55    0.66 
  -6  -2  17   11.00    1.44 
   6  -2 -17    7.28    0.77 
  -6   2  17   10.77    1.02 
   5  -2 -17   15.29    0.96 
  -5  -2  17   14.00    0.76 
  -5  -2  17   13.57    1.54 
  -5   2  17   16.05    1.21 
  -4  -2  17   23.92    1.68 
   4  -2 -17   22.81    1.15 
  -4  -2  17   21.05    0.90 
  -4   2  17   22.54    1.41 
   3  -2 -17   17.97    1.03 
  -3  -2  17   18.37    1.45 
  -3  -2  17   16.45    0.77 
  -3   2  17   19.16    1.32 
   2  -2 -17   38.13    1.52 
  -2  -2  17   34.77    1.95 
  -2  -2  17   36.20    1.15 
  -2   2  17   39.16    1.86 
   1  -2 -17   15.54    0.98 
  -1  -2  17   17.54    1.34 
  -1   2  17   18.46    1.29 
   0  -2 -17   31.33    1.40 
   0  -2  17   36.16    1.87 
   0   2  17   34.52    1.75 
  -1  -2 -17   21.54    1.17 
   1  -2  17   21.81    1.43 
   1   2  17   22.28    1.43 
   2  -2  17   40.16    1.90 
  -2  -2 -17   40.84    1.66 
   2   2  17   42.73    2.20 
   2   2  17   41.12    1.96 
  -3  -2 -17   14.74    1.01 
   3   2  17   17.25    1.45 
   3   2  17   15.09    1.23 
  -4  -2 -17   37.45    1.67 
   4   2  17   41.72    2.23 
   4   2  17   37.72    1.92 
  -5  -2 -17    4.40    0.70 
   5   2  17    4.47    0.81 
   5   2  17    5.08    0.96 
  -6  -2 -17   25.37    1.43 
   6   2  17   24.15    1.59 
   6   2  17   21.83    1.73 
  -7  -2 -17    0.78    0.40 
   7   2  17    0.49    0.45 
   7   2  17    0.43    0.58 
  -5   3  17    7.11    1.00 
  -4   3  17    6.48    1.03 
  -3  -3  17    7.36    1.25 
  -3   3  17    8.26    1.07 
  -2  -3  17    3.31    0.92 
  -2   3  17    6.57    0.98 
  -1  -3  17    7.34    1.23 
  -1   3  17    8.12    1.07 
   0  -3  17    3.31    0.86 
   0   3  17    3.62    0.76 
   1  -3  17    8.07    1.18 
   1   3  17    8.49    1.10 
   1   3  17   11.04    1.38 
   2   3  17    4.33    0.89 
   2   3  17    3.83    0.87 
   3   3  17   13.77    1.55 
   3   3  17   12.85    1.45 
   4   3  17    1.74    0.71 
   4   3  17    1.38    0.67 
   9   0 -18   16.52    1.29 
   8   0 -18    1.03    0.46 
   7   0 -18   21.40    1.39 
   6   0 -18    1.23    0.44 
   5   0 -18   47.89    2.07 
   4   0 -18    0.20    0.32 
   3   0 -18   67.74    2.47 
  -2   0  18    0.44    0.32 
  -2   0  18    0.54    0.37 
   2   0 -18   -0.09    0.29 
   1   0 -18   73.88    2.64 
  -1   0  18   75.66    2.30 
  -1   0  18   74.58    2.65 
   0   0  18    0.35    0.25 
   0   0 -18   -0.22    0.25 
   0   0  18    0.02    0.29 
  -1   0 -18   82.94    2.83 
   1   0  18   86.02    3.04 
   1   0  18   85.85    2.87 
   1   0  18   84.45    2.30 
   2   0  18    2.30    0.60 
   2   0  18    1.01    0.49 
  -2   0 -18    1.52    0.50 
   2   0  18    1.90    0.54 
  -3   0 -18   57.14    2.33 
   3   0  18   55.71    2.46 
   3   0  18   58.16    2.27 
  -4   0 -18    0.57    0.38 
   4   0  18    1.57    0.51 
   4   0  18    1.85    0.60 
   5   0  18   38.92    2.09 
   5   0  18   42.63    1.89 
  -5   0 -18   42.58    2.03 
   6   0  18    0.42    0.51 
  -6   0 -18    1.05    0.44 
   6   0  18    2.23    0.57 
   7   0  18   27.34    1.50 
  -7   0 -18   29.46    1.74 
   7   0  18   26.83    1.83 
  -8   0 -18    0.96    0.46 
   8   0  18    2.04    0.54 
   8   0  18    2.33    1.24 
   9  -1 -18    0.33    0.33 
   8  -1 -18    5.65    0.79 
  -7  -1  18   -0.07    0.43 
   7  -1 -18   -0.05    0.24 
   6  -1 -18   17.08    1.19 
  -6  -1  18   18.70    1.42 
   5  -1 -18    0.06    0.24 
  -5  -1  18    0.21    0.36 
  -5   1  18    0.82    0.40 
   5   1 -18    0.77    0.40 
   4  -1 -18   29.33    1.53 
  -4  -1  18   28.66    1.64 
   4   1 -18   26.77    1.55 
  -4   1  18   27.58    1.55 
  -3  -1  18   -0.01    0.32 
   3  -1 -18   -0.07    0.22 
   3   1 -18    0.10    0.31 
  -3   1  18    0.13    0.32 
   2  -1 -18   32.87    1.60 
  -2  -1  18   29.59    1.59 
   2   1 -18   30.57    1.65 
  -2   1  18   31.39    1.65 
   1  -1 -18    0.09    0.25 
  -1  -1  18    0.87    0.40 
  -1   1  18    0.04    0.33 
   1   1 -18   -0.07    0.30 
   0  -1  18   34.61    1.65 
   0  -1  18   35.48    1.83 
   0  -1 -18   36.02    1.72 
   0   1 -18   36.87    1.80 
   0   1  18   38.21    1.83 
   1  -1  18    0.79    0.37 
  -1  -1 -18    0.43    0.32 
   1  -1  18    1.02    0.49 
   1   1  18    0.08    0.36 
  -1   1 -18    0.45    0.35 
   1   1  18    1.21    0.49 
  -2  -1 -18   32.48    1.67 
   2  -1  18   31.10    1.76 
   2  -1  18   33.61    1.47 
   2   1  18   31.66    1.88 
   2   1  18   33.94    1.72 
  -2   1 -18   30.30    1.67 
  -3  -1 -18    0.34    0.35 
   3  -1  18    1.15    0.47 
   3  -1  18    1.85    0.60 
  -3   1 -18    1.33    0.58 
   3   1  18    1.22    0.55 
   3   1  18    1.38    0.50 
   4  -1  18   24.13    1.44 
  -4  -1 -18   22.75    1.42 
   4   1  18   22.96    1.65 
   4   1  18   22.09    1.41 
   5  -1  18    0.22    0.34 
  -5  -1 -18   -0.04    0.30 
   5   1  18    0.32    0.35 
   5   1  18    0.25    0.46 
  -6  -1 -18   17.38    1.30 
   6  -1  18   13.49    1.07 
   6   1  18   15.33    1.19 
   6   1  18   12.95    1.43 
   7  -1  18    1.72    0.51 
  -7  -1 -18    1.07    0.47 
   7   1  18    1.83    0.69 
   7   1  18    1.55    0.53 
  -8  -1 -18   11.28    1.26 
   8   1  18   11.79    1.45 
   8   1  18   11.24    1.28 
   7  -2 -18    0.08    0.24 
  -7  -2  18    0.01    0.19 
  -7   2  18    0.36    0.42 
  -6  -2  18   -0.05    0.16 
  -6  -2  18    0.09    0.73 
   6  -2 -18    0.00    0.23 
  -6   2  18    0.09    0.30 
  -5  -2  18    0.29    0.23 
   5  -2 -18    0.00    0.20 
  -5  -2  18    0.00    0.49 
  -5   2  18   -0.37    0.30 
  -4  -2  18    0.12    0.47 
   4  -2 -18   -0.17    0.18 
  -4  -2  18    0.07    0.16 
  -4   2  18    0.12    0.30 
  -3  -2  18    0.80    0.48 
   3  -2 -18    0.37    0.25 
  -3  -2  18    0.63    0.23 
  -3   2  18    0.28    0.35 
  -2  -2  18    0.21    0.41 
  -2  -2  18    0.22    0.17 
   2  -2 -18   -0.08    0.19 
  -2   2  18    0.20    0.35 
   1  -2 -18    0.27    0.25 
  -1  -2  18    0.90    0.54 
  -1   2  18    0.57    0.38 
   0  -2  18    0.13    0.39 
   0  -2 -18    0.05    0.20 
   0   2  18    0.02    0.32 
  -1  -2 -18   -0.12    0.18 
   1  -2  18    0.62    0.42 
   1   2  18    0.32    0.37 
   1   2  18   -0.14    0.43 
   2  -2  18    0.03    0.32 
  -2  -2 -18   -0.08    0.23 
   2   2  18    0.30    0.39 
   2   2  18    0.26    0.43 
  -3  -2 -18    0.30    0.27 
   3   2  18    0.13    0.44 
   3   2  18    0.01    0.35 
  -4  -2 -18   -0.20    0.25 
   4   2  18   -0.04    0.42 
   4   2  18   -0.49    0.33 
  -5  -2 -18    0.26    0.27 
   5   2  18    0.19    0.42 
   5   2  18    0.14    0.46 
  -6  -2 -18   -0.14    0.27 
   6   2  18   -0.41    0.48 
   6   2  18    0.32    0.41 
  -3   3  18    0.35    0.42 
  -2  -3  18    6.25    1.37 
  -2   3  18    5.76    0.93 
  -1  -3  18    0.20    0.56 
  -1   3  18    0.19    0.36 
   0  -3  18    7.17    1.21 
   0   3  18   10.00    1.28 
   1  -3  18    0.39    0.53 
   1   3  18    0.50    0.42 
   1   3  18    0.28    0.53 
   2   3  18    7.53    1.24 
   2   3  18    7.71    1.09 
   8   0 -19    0.24    0.35 
   7   0 -19    0.05    0.27 
   6   0 -19   -0.29    0.25 
   5   0 -19    0.31    0.30 
   4   0 -19    0.00    0.24 
   3   0 -19    0.03    0.22 
  -3   0  19    0.03    0.27 
  -2   0  19   -0.21    0.22 
   2   0 -19   -0.29    0.22 
  -2   0  19   -0.25    0.28 
   1   0 -19    0.01    0.25 
  -1   0  19    0.49    0.30 
  -1   0  19    0.14    0.34 
   0   0  19    0.38    0.35 
   0   0  19    0.18    0.27 
   0   0 -19   -0.38    0.22 
   1   0  19    0.62    0.36 
   1   0  19   -0.22    0.32 
  -1   0 -19    0.28    0.32 
   2   0  19   -0.17    0.34 
   2   0  19    0.04    0.29 
  -2   0 -19   -0.61    0.22 
   3   0  19    0.16    0.32 
   3   0  19    0.17    0.41 
  -3   0 -19   -0.16    0.27 
   4   0  19   -0.12    0.30 
   4   0  19   -0.14    0.38 
  -4   0 -19    0.33    0.36 
  -5   0 -19   -0.01    0.33 
   5   0  19    0.14    0.32 
   5   0  19   -0.24    0.36 
  -6   0 -19   -0.16    0.33 
   6   0  19   -0.28    0.42 
   6   0  19    0.10    0.34 
   7   0  19    0.21    0.35 
  -7   0 -19   -0.27    0.31 
   7  -1 -19    4.53    0.73 
   6  -1 -19    3.79    0.69 
  -6  -1  19    3.34    0.77 
  -5  -1  19   10.92    1.28 
   5  -1 -19   11.30    1.00 
  -5   1  19   11.66    1.29 
   4  -1 -19    7.30    0.92 
  -4  -1  19    8.53    1.10 
  -4   1  19    6.34    0.93 
  -3  -1  19   15.36    1.24 
   3  -1 -19   16.36    1.16 
  -3   1  19   17.99    1.30 
  -2  -1  19    7.67    0.98 
   2  -1 -19    7.76    0.95 
  -2   1  19    9.13    1.13 
   1  -1 -19   22.45    1.37 
  -1  -1  19   22.59    1.40 
   1   1 -19   19.86    2.14 
  -1   1  19   22.70    1.47 
   0  -1  19   12.04    1.04 
   0  -1 -19   11.31    1.15 
   0   1  19   12.06    1.10 
   1  -1  19   16.52    1.12 
  -1  -1 -19   14.96    1.17 
   1   1  19   16.63    1.26 
   1   1  19   15.66    1.37 
  -2  -1 -19    9.28    1.10 
   2   1  19   11.51    1.06 
   2   1  19   10.57    1.30 
  -3  -1 -19   12.50    1.10 
   3   1  19   15.18    1.22 
   3   1  19   13.31    1.44 
  -4  -1 -19   10.26    1.14 
   4  -1  19   12.13    1.09 
   4   1  19    9.40    1.11 
   4   1  19   10.44    1.30 
  -5  -1 -19    6.91    0.99 
   5  -1  19    8.12    1.10 
   5   1  19    8.18    1.23 
   5   1  19    6.91    0.96 
  -6  -1 -19    8.78    1.07 
   6  -1  19   10.32    1.16 
   6   1  19   10.84    1.26 
   6   1  19    8.37    1.26 
   6  -2 -19   17.39    1.11 
  -6  -2  19   16.77    0.89 
  -6   2  19   18.17    1.36 
   5  -2 -19    4.57    0.65 
  -5  -2  19    5.07    0.56 
  -5  -2  19    4.33    1.15 
  -5   2  19    4.90    0.88 
  -4  -2  19   17.29    0.85 
   4  -2 -19   18.32    1.12 
  -4  -2  19   20.69    1.65 
  -4   2  19   18.33    1.36 
  -3  -2  19    6.39    0.53 
   3  -2 -19    6.06    0.74 
  -3  -2  19    6.14    1.08 
  -3   2  19    5.00    0.88 
   2  -2 -19   20.12    1.19 
  -2  -2  19   19.37    1.56 
  -2  -2  19   20.48    0.88 
  -2   2  19   23.27    1.51 
   1  -2 -19   14.10    1.02 
  -1  -2  19   15.28    1.34 
  -1   2  19   16.51    1.31 
   0  -2  19   25.58    1.68 
   0  -2 -19   24.92    1.34 
   0   2  19   23.90    1.56 
   1  -2  19   19.53    1.43 
  -1  -2 -19   17.68    1.16 
   1   2  19   20.16    1.46 
   1   2  19   22.21    1.71 
   2  -2  19   20.83    1.80 
  -2  -2 -19   19.60    1.23 
   2   2  19   21.95    1.75 
  -3  -2 -19   15.58    1.10 
   3   2  19   16.65    1.69 
   3   2  19   16.44    1.33 
  -4  -2 -19   14.33    1.11 
   4   2  19   15.70    1.64 
   4   2  19   15.77    1.32 
  -5  -2 -19   16.38    1.21 
   5   2  19   15.57    1.66 
   5   2  19   20.17    1.48 
   7   0 -20    0.36    0.37 
   6   0 -20   37.20    1.95 
   5   0 -20    2.35    0.58 
   4   0 -20   33.25    1.80 
   3   0 -20    6.79    0.94 
  -3   0  20    6.85    0.87 
   2   0 -20   28.91    1.69 
  -2   0  20   31.02    1.74 
  -2   0  20   29.23    1.49 
  -1   0  20    8.46    1.09 
  -1   0  20    9.23    0.96 
   1   0 -20    6.41    0.95 
   0   0  20   36.24    2.03 
   0   0 -20   36.14    1.90 
   0   0  20   36.95    1.89 
   1   0  20    9.41    1.13 
  -1   0 -20    8.44    1.04 
   1   0  20    9.70    1.26 
  -2   0 -20   41.80    2.05 
   2   0  20   41.02    2.22 
   2   0  20   44.10    2.07 
   3   0  20    3.41    0.75 
   3   0  20    2.01    0.64 
  -3   0 -20    1.68    0.54 
   4   0  20   36.59    2.14 
  -4   0 -20   39.69    2.03 
   4   0  20   38.59    1.93 
   5   0  20    0.76    0.40 
  -5   0 -20    0.93    0.48 
   5   0  20    0.14    0.48 
  -6   0 -20   23.24    1.63 
   6   0  20   25.25    1.55 
   6  -1 -20    1.10    0.45 
  -6  -1  20    1.10    0.65 
  -5  -1  20    8.50    1.14 
   5  -1 -20    9.17    1.07 
  -5   1  20   10.23    1.24 
   4  -1 -20   -0.11    0.27 
  -4  -1  20    0.21    0.42 
  -4   1  20    0.09    0.35 
   3  -1 -20   15.48    1.16 
  -3  -1  20   14.01    1.40 
  -3   1  20   14.05    1.20 
   2  -1 -20    1.90    0.52 
  -2  -1  20    1.62    0.59 
  -2   1  20    2.36    0.70 
  -1  -1  20   15.56    1.21 
   1  -1 -20   15.44    1.17 
  -1   1  20   16.22    1.28 
   0  -1 -20    2.50    0.58 
   0  -1  20    3.05    0.68 
   0   1  20    3.77    0.77 
  -1  -1 -20   20.85    1.39 
   1   1  20   20.86    1.45 
   1   1  20   21.72    1.67 
  -2  -1 -20    2.59    0.62 
   2   1  20    2.57    0.63 
   2   1  20    1.97    0.70 
  -3  -1 -20   22.60    1.51 
   3   1  20   24.11    1.54 
   3   1  20   23.85    1.79 
  -4  -1 -20    0.69    0.42 
   4   1  20    1.49    0.55 
   4   1  20    1.24    0.68 
   5  -1  20   11.73    1.26 
  -5  -1 -20   10.95    1.20 
   5   1  20   10.72    1.41 
   5   1  20   12.72    1.18 
   4  -2 -20   -0.01    0.22 
  -4  -2  20   -0.02    0.16 
  -4  -2  20   -0.19    0.55 
  -4   2  20    0.09    0.38 
  -3  -2  20    0.36    0.53 
   3  -2 -20    0.24    0.27 
  -3  -2  20    0.49    0.23 
  -3   2  20    0.89    0.44 
  -2  -2  20   -0.07    0.47 
  -2  -2  20    0.50    0.23 
   2  -2 -20   -0.02    0.21 
  -2   2  20    0.20    0.36 
   1  -2 -20    0.07    0.22 
  -1  -2  20    0.40    0.51 
  -1   2  20   -0.19    0.35 
   0  -2 -20   -0.14    0.24 
   0  -2  20    0.45    0.51 
   0   2  20    0.50    0.47 
  -1  -2 -20    0.09    0.23 
   1   2  20    0.78    0.57 
   1   2  20   -0.15    0.36 
  -2  -2 -20    0.55    0.31 
   2   2  20    0.40    0.53 
   2   2  20    0.30    0.44 
  -3  -2 -20    0.01    0.27 
   3   2  20    0.10    0.42 
   3   2  20    0.01    0.57 
   5   0 -21   -0.14    0.28 
  -4   0  21   -0.01    0.34 
   4   0 -21    0.01    0.33 
  -3   0  21    0.16    0.34 
   3   0 -21    0.20    0.32 
   2   0 -21   -0.19    0.27 
  -2   0  21    0.22    0.37 
   1   0 -21    0.17    0.35 
  -1   0  21   -0.25    0.31 
   0   0  21    0.81    0.52 
   0   0  21   -0.01    0.35 
   0   0 -21   -0.04    0.33 
   1   0  21    0.02    0.30 
  -1   0 -21    0.03    0.31 
   1   0  21    0.83    0.53 
  -2   0 -21   -0.31    0.29 
   2   0  21   -0.18    0.45 
   2   0  21    0.37    0.38 
  -3   0 -21   -0.08    0.34 
   3   0  21   -0.22    0.46 
   3   0  21   -0.32    0.25 
   4   0  21    0.18    0.39 
  -4   0 -21   -0.22    0.36 
   4  -1 -21   13.11    1.17 
  -4  -1  21   12.16    1.41 
  -4   1  21   14.30    1.26 
  -3  -1  21    0.65    0.47 
   3  -1 -21    0.40    0.32 
  -3   1  21    0.13    0.37 
   2  -1 -21    8.93    1.03 
  -2  -1  21   11.30    1.29 
  -2   1  21   11.72    1.36 
   1  -1 -21    0.20    0.30 
  -1   1  21    1.39    0.54 
   0  -1 -21    7.99    1.02 
   0   1  21    9.69    1.29 
   0   1  21    9.33    1.21 
  -1  -1 -21    1.85    0.58 
   1   1  21    2.37    0.68 
   1   1  21    2.53    0.80 
  -2  -1 -21    8.27    1.04 
   2   1  21    6.87    1.13 
   2   1  21    7.80    1.06 
  -3  -1 -21    2.52    0.65 
   3   1  21    2.72    0.69 
   3   1  21    2.98    0.88 
   2   0 -22   11.82    1.32 
  -1   0  22   22.34    3.07 
  -1   0  22   22.71    1.59 
   1   0 -22   22.60    1.60 
   0   0 -22    3.01    0.74 
   0   0  22    3.64    0.85 
   1   0  22   31.94    1.88 
  -1   0 -22   33.29    1.94 
   0   0   0    0.00    0.00 
;
_shelx_hkl_checksum              77896
loop_
_space_group_symop_operation_xyz
'x, y, z'
'-x, y+1/2, -z+1/2'
'-x, -y, -z'
'x, -y-1/2, z-1/2'
loop_
_atom_site_label
_atom_site_type_symbol
_atom_site_fract_x
_atom_site_fract_y
_atom_site_fract_z
_atom_site_U_iso_or_equiv
_atom_site_adp_type
_atom_site_occupancy
_atom_site_site_symmetry_order
_atom_site_calc_flag
_atom_site_refinement_flags_posn
_atom_site_refinement_flags_adp
C1 C 0.1411(2) 0.3637(8) 0.83091(16) 0.0338(7) Uani 1 1 d . .
C2 C 0.0849(3) 0.2546(8) 0.89241(18) 0.0405(8) Uani 1 1 d . .
H2 H 0.0212 0.1291 0.8840 0.049 Uiso 1 1 calc R U
C3 C 0.1209(3) 0.3275(8) 0.96807(18) 0.0399(8) Uani 1 1 d . .
H3 H 0.0805 0.2509 1.0089 0.048 Uiso 1 1 calc R U
C4 C 0.2136(3) 0.5081(8) 0.98276(16) 0.0337(7) Uani 1 1 d . .
C5 C 0.2779(2) 0.6223(8) 0.92137(16) 0.0321(7) Uani 1 1 d . .
C6 C 0.3768(3) 0.8029(9) 0.93036(19) 0.0438(9) Uani 1 1 d . .
H6 H 0.4045 0.8575 0.9794 0.053 Uiso 1 1 calc R U
C7 C 0.4323(3) 0.8979(10) 0.8672(2) 0.0519(9) Uani 1 1 d . .
H7 H 0.4984 1.0150 0.8725 0.062 Uiso 1 1 calc R U
C8 C 0.3878(3) 0.8159(9) 0.79419(19) 0.0475(9) Uani 1 1 d . .
H8 H 0.4259 0.8848 0.7515 0.057 Uiso 1 1 calc R U
C9 C 0.2402(2) 0.5497(7) 0.84468(16) 0.0315(7) Uani 1 1 d . .
I1 I 0.25542(2) 0.63063(6) 1.09797(2) 0.04428(10) Uani 1 1 d . .
N1 N 0.2966(2) 0.6494(7) 0.78197(14) 0.0395(7) Uani 1 1 d . .
N2 N 0.1031(3) 0.3113(9) 0.75586(18) 0.0475(8) Uani 1 1 d . .
H1N H 0.057(3) 0.158(9) 0.750(2) 0.052(12) Uiso 1 1 d . .
H2N H 0.148(3) 0.328(9) 0.728(2) 0.048(14) Uiso 1 1 d . .
loop_
_atom_site_aniso_label
_atom_site_aniso_U_11
_atom_site_aniso_U_22
_atom_site_aniso_U_33
_atom_site_aniso_U_23
_atom_site_aniso_U_13
_atom_site_aniso_U_12
C1 0.0349(16) 0.0342(18) 0.0317(15) -0.0049(15) -0.0048(12) 0.0086(15)
C2 0.0378(18) 0.0410(19) 0.0422(18) -0.0020(16) -0.0034(14) -0.0022(15)
C3 0.0410(18) 0.043(2) 0.0362(17) 0.0027(16) 0.0060(14) -0.0009(16)
C4 0.0395(17) 0.0347(17) 0.0267(15) -0.0008(14) -0.0010(13) 0.0030(15)
C5 0.0369(16) 0.0315(18) 0.0278(14) -0.0001(14) -0.0012(12) 0.0053(14)
C6 0.0437(19) 0.052(2) 0.0349(17) -0.0015(17) -0.0046(14) -0.0073(17)
C7 0.0416(19) 0.065(3) 0.049(2) 0.002(2) 0.0014(15) -0.0147(19)
C8 0.045(2) 0.060(3) 0.0378(18) 0.0024(18) 0.0106(15) -0.0052(19)
C9 0.0336(16) 0.0318(18) 0.0290(15) -0.0022(14) 0.0004(12) 0.0086(14)
I1 0.05970(16) 0.04576(16) 0.02715(12) -0.00094(10) -0.00136(9) -0.00470(11)
N1 0.0439(16) 0.0450(17) 0.0299(13) 0.0014(13) 0.0042(11) 0.0051(14)
N2 0.050(2) 0.058(2) 0.0346(17) -0.0039(16) -0.0080(16) -0.0066(18)
loop_
_atom_type_symbol
_atom_type_description
_atom_type_scat_dispersion_real
_atom_type_scat_dispersion_imag
_atom_type_scat_source
C C 0.0033 0.0016 'International Tables Vol C Tables 4.2.6.8 and 6.1.1.4'
H H 0.0000 0.0000 'International Tables Vol C Tables 4.2.6.8 and 6.1.1.4'
N N 0.0061 0.0033 'International Tables Vol C Tables 4.2.6.8 and 6.1.1.4'
I I -0.4742 1.8119 'International Tables Vol C Tables 4.2.6.8 and 6.1.1.4'
loop_
_geom_angle_atom_site_label_1
_geom_angle_atom_site_label_2
_geom_angle_atom_site_label_3
_geom_angle
C2 C1 N2 122.3(3)
C2 C1 C9 118.8(3)
N2 C1 C9 118.9(3)
C1 C2 C3 121.3(3)
C1 C2 H2 119.3
C3 C2 H2 119.3
C4 C3 C2 121.1(3)
C4 C3 H3 119.5
C2 C3 H3 119.5
C3 C4 C5 120.5(3)
C3 C4 I1 118.4(2)
C5 C4 I1 121.0(2)
C6 C5 C4 125.0(3)
C6 C5 C9 116.9(3)
C4 C5 C9 118.1(3)
C7 C6 C5 120.0(3)
C7 C6 H6 120.0
C5 C6 H6 120.0
C6 C7 C8 118.7(3)
C6 C7 H7 120.7
C8 C7 H7 120.7
N1 C8 C7 124.3(3)
N1 C8 H8 117.8
C7 C8 H8 117.8
N1 C9 C5 122.2(3)
N1 C9 C1 117.6(3)
C5 C9 C1 120.2(3)
C8 N1 C9 117.9(3)
C1 N2 H1N 115(3)
C1 N2 H2N 113(3)
H1N N2 H2N 118(4)
loop_
_geom_bond_atom_site_label_1
_geom_bond_atom_site_label_2
_geom_bond_distance
C1 C2 1.362(4)
C1 N2 1.380(4)
C1 C9 1.428(4)
C2 C3 1.400(4)
C2 H2 0.9300
C3 C4 1.356(4)
C3 H3 0.9300
C4 C5 1.421(4)
C4 I1 2.107(3)
C5 C6 1.405(4)
C5 C9 1.422(4)
C6 C7 1.363(5)
C6 H6 0.9300
C7 C8 1.397(5)
C7 H7 0.9300
C8 N1 1.303(4)
C8 H8 0.9300
C9 N1 1.368(4)
N2 H1N 0.85(4)
N2 H2N 0.74(4)
loop_
_geom_torsion_atom_site_label_1
_geom_torsion_atom_site_label_2
_geom_torsion_atom_site_label_3
_geom_torsion_atom_site_label_4
_geom_torsion
N2 C1 C2 C3 -175.9(3)
C9 C1 C2 C3 1.5(5)
C1 C2 C3 C4 -0.4(5)
C2 C3 C4 C5 -1.3(5)
C2 C3 C4 I1 176.1(2)
C3 C4 C5 C6 -178.1(3)
I1 C4 C5 C6 4.6(4)
C3 C4 C5 C9 1.9(5)
I1 C4 C5 C9 -175.4(2)
C4 C5 C6 C7 179.5(3)
C9 C5 C6 C7 -0.5(5)
C5 C6 C7 C8 0.9(6)
C6 C7 C8 N1 -0.9(6)
C6 C5 C9 N1 0.0(5)
C4 C5 C9 N1 180.0(3)
C6 C5 C9 C1 179.2(3)
C4 C5 C9 C1 -0.8(4)
C2 C1 C9 N1 178.4(3)
N2 C1 C9 N1 -4.2(4)
C2 C1 C9 C5 -0.9(4)
N2 C1 C9 C5 176.6(3)
C7 C8 N1 C9 0.4(5)
C5 C9 N1 C8 0.1(5)
C1 C9 N1 C8 -179.2(3)
