#------------------------------------------------------------------------------
#$Date: 2019-11-04 14:29:06 +0200 (Mon, 04 Nov 2019) $
#$Revision: 223016 $
#$URL: file:///home/coder/svn-repositories/cod/cif/4/03/45/4034511.cif $
#------------------------------------------------------------------------------
#
# This file is available in the Crystallography Open Database (COD),
# http://www.crystallography.net/
#
# All data on this site have been placed in the public domain by the
# contributors.
#
data_4034511
loop_
_publ_author_name
'He, Xinwei'
'Xie, Mengqing'
'Tang, Qiang'
'Zuo, Youpeng'
'Li, Ruxue'
'Shang, Yongjia'
_publ_section_title
;
 Catalyst-Free Synthesis of 2,3-Dihydrobenzofurans via a Formal [4+1]
 Annulation of Propargylamines with Sulfur Ylides.
;
_journal_issue                   18
_journal_name_full               'The Journal of organic chemistry'
_journal_page_first              11623
_journal_page_last               11638
_journal_paper_doi               10.1021/acs.joc.9b01557
_journal_volume                  84
_journal_year                    2019
_chemical_formula_sum            'C21 H15 Br O2'
_chemical_formula_weight         379.24
_space_group_crystal_system      triclinic
_space_group_IT_number           2
_space_group_name_Hall           '-P 1'
_space_group_name_H-M_alt        'P -1'
_atom_sites_solution_hydrogens   geom
_audit_creation_method           SHELXL-2018/1
_cell_angle_alpha                82.961(2)
_cell_angle_beta                 75.096(2)
_cell_angle_gamma                69.699(2)
_cell_formula_units_Z            2
_cell_length_a                   7.9383(11)
_cell_length_b                   9.6261(13)
_cell_length_c                   12.0805(17)
_cell_measurement_reflns_used    4121
_cell_measurement_temperature    293(2)
_cell_measurement_theta_max      27.38
_cell_measurement_theta_min      2.26
_cell_volume                     836.1(2)
_computing_cell_refinement       'Bruker SAINT'
_computing_data_collection       'Bruker APEX2'
_computing_data_reduction        'Bruker SAINT'
_computing_molecular_graphics    'Bruker SHELXTL'
_computing_publication_material  'Bruker SHELXTL'
_computing_structure_refinement  'SHELXL-2018/1 (Sheldrick, 2018)'
_computing_structure_solution    'SHELXS-97 (Sheldrick, 2008)'
_diffrn_ambient_temperature      293(2)
_diffrn_measured_fraction_theta_full 0.989
_diffrn_measured_fraction_theta_max 0.970
_diffrn_measurement_device_type  'Bruker APEX-II CCD'
_diffrn_measurement_method       '\f and \w scans'
_diffrn_radiation_type           MoK\a
_diffrn_radiation_wavelength     0.71073
_diffrn_reflns_av_R_equivalents  0.0286
_diffrn_reflns_av_unetI/netI     0.0439
_diffrn_reflns_Laue_measured_fraction_full 0.989
_diffrn_reflns_Laue_measured_fraction_max 0.970
_diffrn_reflns_limit_h_max       10
_diffrn_reflns_limit_h_min       -10
_diffrn_reflns_limit_k_max       12
_diffrn_reflns_limit_k_min       -12
_diffrn_reflns_limit_l_max       15
_diffrn_reflns_limit_l_min       -15
_diffrn_reflns_number            6986
_diffrn_reflns_point_group_measured_fraction_full 0.989
_diffrn_reflns_point_group_measured_fraction_max 0.970
_diffrn_reflns_theta_full        25.242
_diffrn_reflns_theta_max         27.443
_diffrn_reflns_theta_min         1.746
_exptl_absorpt_coefficient_mu    2.468
_exptl_crystal_colour            colorless
_exptl_crystal_density_diffrn    1.506
_exptl_crystal_description       block
_exptl_crystal_F_000             384
_refine_diff_density_max         0.499
_refine_diff_density_min         -0.639
_refine_diff_density_rms         0.072
_refine_ls_extinction_method     none
_refine_ls_goodness_of_fit_ref   1.092
_refine_ls_hydrogen_treatment    constr
_refine_ls_matrix_type           full
_refine_ls_number_parameters     217
_refine_ls_number_reflns         3705
_refine_ls_number_restraints     0
_refine_ls_restrained_S_all      1.092
_refine_ls_R_factor_all          0.0718
_refine_ls_R_factor_gt           0.0534
_refine_ls_shift/su_max          0.000
_refine_ls_shift/su_mean         0.000
_refine_ls_structure_factor_coef Fsqd
_refine_ls_weighting_details
'w=1/[\s^2^(Fo^2^)+(0.0301P)^2^+1.6629P] where P=(Fo^2^+2Fc^2^)/3'
_refine_ls_weighting_scheme      calc
_refine_ls_wR_factor_gt          0.1218
_refine_ls_wR_factor_ref         0.1309
_reflns_Friedel_coverage         0.000
_reflns_number_gt                2910
_reflns_number_total             3705
_reflns_threshold_expression     'I > 2\s(I)'
_cod_data_source_file            jo9b01557_si_003.cif
_cod_data_source_block           181219a_0m
_cod_database_code               4034511
_shelx_shelxl_version_number     2018/1
_shelx_space_group_comment
;
The symmetry employed for this shelxl refinement is uniquely defined
by the following loop, which should always be used as a source of
symmetry information in preference to the above space-group names.
They are only intended as comments.
;
_shelx_res_file
;
TITL 181219a_0m in P1            New: P-1
    181219a_0m.res
    created by SHELXL-2018/1 at 15:27:35 on 19-Dec-2018
CELL  0.71073    7.9383    9.6261   12.0805    82.961    75.096    69.699
ZERR  2           0.0011    0.0013    0.0017     0.002     0.002     0.002
LATT 1
SFAC C  H  Br O
UNIT 42  30  2  4
L.S. 10
ACTA
BOND $H
FMAP 2
PLAN 2
CONF
WGHT    0.030100    1.662900
FVAR       0.21174
BR1   3    0.421457    0.280584    0.638325    11.00000    0.05392    0.06055 =
         0.05872   -0.00750    0.00575   -0.01876
C1    1    1.290194   -0.039873   -0.102667    11.00000    0.05355    0.07559 =
         0.04903   -0.01859   -0.00720   -0.02018
AFIX  43
H1    2    1.224573    0.039054   -0.144061    11.00000   -1.20000
AFIX   0
C2    1    1.403144   -0.168068   -0.156964    11.00000    0.05697    0.10440 =
         0.06733   -0.03904    0.00049   -0.03017
AFIX  43
H2    2    1.413895   -0.175589   -0.234671    11.00000   -1.20000
AFIX   0
C3    1    1.500379   -0.285359   -0.096249    11.00000    0.05365    0.07109 =
         0.08826   -0.03823    0.01686   -0.02266
AFIX  43
H3    2    1.575276   -0.372832   -0.132667    11.00000   -1.20000
AFIX   0
C4    1    1.487051   -0.273518    0.018018    11.00000    0.05940    0.05407 =
         0.08333   -0.00481    0.00824   -0.01296
AFIX  43
H4    2    1.554338   -0.352564    0.058524    11.00000   -1.20000
AFIX   0
C5    1    1.373652   -0.144155    0.073302    11.00000    0.05609    0.05067 =
         0.05096   -0.00381    0.00070   -0.01901
AFIX  43
H5    2    1.365561   -0.136538    0.150634    11.00000   -1.20000
AFIX   0
C6    1    1.272600   -0.026485    0.013673    11.00000    0.04431    0.04809 =
         0.04255   -0.00851    0.00016   -0.02239
C7    1    1.149952    0.115244    0.067111    11.00000    0.05236    0.04487 =
         0.04091   -0.00010   -0.01023   -0.02007
C8    1    1.110305    0.126991    0.196938    11.00000    0.04468    0.03227 =
         0.04402    0.00237   -0.01128   -0.01561
AFIX  13
H8    2    1.223826    0.122787    0.217289    11.00000   -1.20000
AFIX   0
C9    1    0.955422    0.269994    0.244297    11.00000    0.04470    0.03306 =
         0.04063    0.00189   -0.01300   -0.01431
AFIX  13
H9    2    0.876656    0.309324    0.189464    11.00000   -1.20000
AFIX   0
C10   1    0.848893    0.208331    0.349478    11.00000    0.04528    0.03173 =
         0.04220    0.00065   -0.01199   -0.01656
C11   1    0.703720    0.277209    0.436783    11.00000    0.04279    0.03367 =
         0.04971   -0.00307   -0.00834   -0.01322
AFIX  43
H11   2    0.658703    0.379922    0.440590    11.00000   -1.20000
AFIX   0
C12   1    0.626961    0.189247    0.518514    11.00000    0.03932    0.04617 =
         0.04498   -0.00334   -0.00653   -0.01490
C13   1    0.691702    0.036784    0.514898    11.00000    0.05165    0.04402 =
         0.04640    0.00817   -0.01011   -0.02208
AFIX  43
H13   2    0.637423   -0.019210    0.571654    11.00000   -1.20000
AFIX   0
C14   1    0.837244   -0.033417    0.427115    11.00000    0.05457    0.03169 =
         0.04943    0.00270   -0.00849   -0.01427
AFIX  43
H14   2    0.881715   -0.136100    0.423049    11.00000   -1.20000
AFIX   0
C15   1    0.913531    0.055254    0.345954    11.00000    0.04504    0.03391 =
         0.04160   -0.00202   -0.01064   -0.01349
C16   1    1.027322    0.389324    0.264198    11.00000    0.03749    0.02871 =
         0.03836   -0.00135   -0.00554   -0.00850
C17   1    1.010922    0.515158    0.191973    11.00000    0.04428    0.03791 =
         0.04384    0.00572   -0.01310   -0.01259
AFIX  43
H17   2    0.952267    0.527768    0.132215    11.00000   -1.20000
AFIX   0
C18   1    1.081752    0.621828    0.208804    11.00000    0.05486    0.03453 =
         0.06569    0.00950   -0.01349   -0.01855
AFIX  43
H18   2    1.070259    0.705649    0.160166    11.00000   -1.20000
AFIX   0
C19   1    1.168285    0.604882    0.296218    11.00000    0.05116    0.03824 =
         0.06445   -0.01346   -0.00279   -0.01888
AFIX  43
H19   2    1.215750    0.676789    0.306802    11.00000   -1.20000
AFIX   0
C20   1    1.184954    0.482090    0.368056    11.00000    0.06818    0.05684 =
         0.04284   -0.00879   -0.01817   -0.02219
AFIX  43
H20   2    1.244762    0.469862    0.427202    11.00000   -1.20000
AFIX   0
C21   1    1.112342    0.375388    0.352607    11.00000    0.06689    0.04018 =
         0.04069    0.00445   -0.01522   -0.02184
AFIX  43
H21   2    1.121509    0.293283    0.402951    11.00000   -1.20000
AFIX   0
O1    4    1.084655    0.222820    0.010511    11.00000    0.10247    0.05491 =
         0.04680    0.00533   -0.02084   -0.00501
O2    4    1.055623    0.001544    0.253584    11.00000    0.05952    0.03051 =
         0.04479   -0.00099   -0.00033   -0.01413
HKLF 4




REM  181219a_0m in P1            New: P-1
REM R1 =  0.0534 for    2910 Fo > 4sig(Fo)  and  0.0718 for all    3705 data
REM    217 parameters refined using      0 restraints

END

WGHT      0.0295      1.6679

REM Highest difference peak  0.499,  deepest hole -0.639,  1-sigma level  0.072
Q1    1   0.5750  0.2348  0.5775  11.00000  0.05    0.50
Q2    1   0.4080  0.3582  0.6886  11.00000  0.05    0.49
;
_shelx_res_checksum              99475
_shelx_hkl_file
;
   1   0   0    3.14    0.16
   1   0   0    3.02    0.14
   2   0   0  110.02    4.48
   2   0   0  113.86    4.21
   2   0   0  104.26    4.44
  -3   0   0    1.10    0.10
   3   0   0    0.83    0.14
   3   0   0    0.89    0.09
  -4   0   0   29.74    1.19
   4   0   0   28.55    1.32
   4   0   0   32.19    1.27
  -5   0   0    4.11    0.23
   5   0   0    4.12    0.32
   5   0   0    3.87    0.45
   6   0   0   10.47    0.69
   7   0   0   10.26    0.69
   8   0   0    1.55    0.41
   9   0   0    0.78    0.39
   8  -1   0    0.95    0.38
   7  -1   0    2.16    0.39
   6  -1   0    3.63    0.49
   5  -1   0    0.35    0.26
   5  -1   0    0.16    0.13
   4  -1   0   72.34    2.90
   4  -1   0   72.35    2.95
  -4   1   0   66.65    2.72
   3  -1   0   97.54    4.02
   3  -1   0  103.02    4.07
  -3   1   0   95.39    3.80
   2  -1   0   59.63    2.36
  -2   1   0   54.43    2.20
   1  -1   0    2.17    0.12
  -1   1   0    2.76    0.15
   0  -1   0   38.56    1.65
   0   1   0   42.13    1.65
  -1  -1   0   -0.51    0.04
   1   1   0   -0.43    0.06
   1   1   0   -0.31    0.05
   2   1   0   30.18    1.29
   2   1   0   31.37    1.26
   2   1   0   31.04    1.21
   3   1   0   50.80    1.91
   3   1   0   48.44    1.99
   3   1   0   47.07    2.03
   4   1   0   25.75    1.17
   4   1   0   27.18    1.11
  -5  -1   0   55.05    2.23
   5   1   0   60.57    2.35
   5   1   0   55.49    2.42
  -6  -1   0    1.09    0.19
   6   1   0    1.13    0.29
   7   1   0    0.48    0.34
   8   1   0    0.90    0.37
   9   1   0    0.32    0.43
  -8   2   0   -0.11    0.27
  -7   2   0   -0.03    0.23
   5  -2   0   14.36    0.68
   4  -2   0   20.05    0.88
   3  -2   0    0.51    0.07
  -3   2   0    0.46    0.08
  -3   2   0    0.61    0.15
   2  -2   0    0.66    0.11
  -2   2   0    0.47    0.12
   1  -2   0  175.45    7.42
  -1   2   0  189.71    7.44
   0  -2   0   96.01    3.97
   0   2   0   96.42    3.77
   0   2   0  100.70    4.01
  -1  -2   0  480.33   20.19
   1   2   0  530.49   20.33
   1   2   0  484.16   19.22
  -2  -2   0  615.19   26.10
   2   2   0  667.30   26.32
   2   2   0  651.46   24.88
   3   2   0   75.92    3.25
   3   2   0   80.32    3.07
   3   2   0   80.64    3.21
   4   2   0    8.33    0.48
   4   2   0    9.47    0.41
   4   2   0    9.45    0.42
   5   2   0    3.14    0.37
   5   2   0    3.12    0.23
  -6  -2   0   22.18    0.94
   6   2   0   24.12    1.12
  -7  -2   0    8.61    0.41
   7   2   0    7.91    0.58
   8   2   0    2.72    0.45
   9   2   0   -0.12    0.39
  -8   3   0    1.12    0.32
  -7   3   0    2.45    0.37
  -6   3   0    1.33    0.28
   5  -3   0    6.66    0.38
   4  -3   0   15.66    0.72
  -4   3   0   15.95    0.77
   3  -3   0   20.75    0.90
  -3   3   0   21.20    0.94
   2  -3   0   91.23    3.78
  -2   3   0   94.48    3.82
   1  -3   0   30.94    1.32
  -1   3   0   33.21    1.34
   0  -3   0   90.87    3.79
   0   3   0   97.34    3.79
   0   3   0   90.41    3.58
  -1  -3   0    0.06    0.03
   1   3   0    0.06    0.05
   1   3   0    0.04    0.05
  -2  -3   0   45.69    1.89
   2   3   0   45.33    1.82
   2   3   0   48.35    1.92
  -3  -3   0   42.31    1.83
   3   3   0   46.20    1.87
   3   3   0   46.23    1.77
  -4  -3   0    1.34    0.12
   4   3   0    1.46    0.18
   4   3   0    1.55    0.21
   5   3   0    3.54    0.37
   5   3   0    3.35    0.26
   6   3   0   14.62    0.78
  -7  -3   0   -0.01    0.14
   7   3   0   -0.04    0.30
  -8  -3   0    2.63    0.26
   8   3   0    2.48    0.43
   9   3   0    4.59    0.61
  -7   4   0   -0.06    0.27
  -6   4   0    0.36    0.24
   5  -4   0    1.37    0.25
  -5   4   0    0.20    0.24
   4  -4   0   13.96    0.64
  -4   4   0   13.05    0.70
   3  -4   0   29.61    1.28
  -3   4   0   30.90    1.33
   2  -4   0    2.92    0.21
  -2   4   0    3.04    0.25
   1  -4   0    7.38    0.36
  -1   4   0    7.96    0.37
  -1   4   0    8.02    0.32
   0  -4   0  116.79    4.87
   0   4   0  124.34    4.89
   0   4   0  118.31    4.62
  -1  -4   0   54.92    2.24
   1   4   0   56.58    2.26
   1   4   0   53.32    2.14
  -2  -4   0  115.78    4.68
   2   4   0  111.05    4.46
   2   4   0  119.45    4.72
  -3  -4   0   33.49    1.40
   3   4   0   36.19    1.44
   3   4   0   32.63    1.36
  -4  -4   0  168.55    7.21
   4   4   0  183.44    7.29
   4   4   0  182.49    6.89
   5   4   0    7.77    0.47
   5   4   0    7.52    0.40
   6   4   0    9.79    0.49
   6   4   0    9.71    0.60
  -7  -4   0   12.38    0.57
   7   4   0   12.31    0.72
  -8  -4   0   12.05    0.58
   8   4   0   12.68    0.78
  -9  -4   0    0.54    0.20
   9   4   0   -0.48    0.40
  -7   5   0    1.05    0.32
  -6   5   0    2.30    0.33
   4  -5   0   13.29    0.60
  -4   5   0   11.48    0.66
   3  -5   0   16.27    0.73
  -3   5   0   16.19    0.77
   2  -5   0   32.90    1.42
  -2   5   0   34.87    1.45
   1  -5   0   51.96    2.22
  -1   5   0   53.76    2.25
  -1   5   0   56.36    2.09
   0  -5   0    5.69    0.29
   0   5   0    5.60    0.29
   0   5   0    6.04    0.27
  -1  -5   0   63.74    2.59
   1   5   0   62.44    2.47
   1   5   0   64.01    2.61
  -2  -5   0    1.31    0.13
   2   5   0    1.47    0.16
   2   5   0    1.42    0.16
  -3  -5   0    7.71    0.35
   3   5   0    7.34    0.37
   3   5   0    8.01    0.40
  -4  -5   0   36.37    1.52
   4   5   0   36.18    1.49
   4   5   0   38.65    1.58
   5   5   0    8.96    0.51
   5   5   0    9.08    0.45
   6   5   0    0.23    0.24
   6   5   0    0.20    0.16
   7   5   0    1.90    0.31
  -8  -5   0    0.09    0.19
   8   5   0    0.06    0.34
  -9  -5   0    0.16    0.20
   9   5   0    0.05    0.41
  -6   6   0    0.83    0.27
  -5   6   0   -0.19    0.24
   4  -6   0    6.60    0.39
  -4   6   0    5.33    0.44
   3  -6   0    2.92    0.27
  -3   6   0    2.29    0.31
   2  -6   0    1.59    0.23
  -2   6   0    1.75    0.25
   1  -6   0    6.86    0.36
  -1   6   0    6.68    0.37
   0  -6   0    1.00    0.17
   0   6   0    1.08    0.17
   0   6   0    1.37    0.14
  -1  -6   0   47.94    1.98
   1   6   0   47.27    1.99
   1   6   0   48.84    1.88
  -2  -6   0   26.19    1.10
   2   6   0   26.20    1.11
   2   6   0   26.15    1.06
  -3  -6   0   40.44    1.65
   3   6   0   39.92    1.68
   3   6   0   39.85    1.60
  -4  -6   0   18.03    0.77
   4   6   0   17.49    0.77
   4   6   0   18.78    0.82
   5   6   0    1.49    0.23
   5   6   0    1.37    0.21
   6   6   0    1.17    0.24
   6   6   0    1.03    0.18
   7   6   0    5.99    0.45
  -8  -6   0    4.81    0.36
   8   6   0    4.48    0.46
  -9  -6   0    4.87    0.38
   9   6   0    4.34    0.57
   5  -7   0    0.91    0.25
  -5   7   0    0.21    0.26
   4  -7   0    0.47    0.20
  -4   7   0    0.26    0.24
   3  -7   0    0.72    0.17
  -3   7   0    0.25    0.21
   2  -7   0    8.01    0.44
  -2   7   0    8.22    0.47
   1  -7   0   37.28    1.59
  -1   7   0   38.22    1.61
   0  -7   0   25.39    1.09
   0   7   0   25.48    1.10
  -1  -7   0   14.95    0.68
   1   7   0   15.08    0.69
   1   7   0   15.71    0.65
  -2  -7   0    1.45    0.17
   2   7   0    1.40    0.20
   2   7   0    1.53    0.18
  -3  -7   0    4.33    0.25
   3   7   0    4.09    0.28
   3   7   0    4.29    0.30
  -4  -7   0    0.45    0.09
   4   7   0    0.34    0.14
   4   7   0    0.24    0.15
   5   7   0    7.08    0.40
   5   7   0    7.56    0.46
   6   7   0   15.07    0.69
   6   7   0   15.15    0.76
   7   7   0    0.14    0.26
  -8  -7   0    0.46    0.22
   8   7   0    0.55    0.32
  -9  -7   0    0.31    0.24
   9   7   0   -0.03    0.35
   5  -8   0    0.22    0.26
  -5   8   0    0.21    0.27
   4  -8   0    3.64    0.38
  -4   8   0    3.26    0.39
   3  -8   0    3.37    0.33
  -3   8   0    3.34    0.36
   2  -8   0    0.29    0.16
  -2   8   0    0.14    0.19
   1  -8   0    3.99    0.29
  -1   8   0    3.58    0.30
   0  -8   0    9.14    0.47
   0   8   0    9.27    0.48
  -1  -8   0   11.45    0.53
   1   8   0   10.35    0.53
  -2  -8   0   14.29    0.65
   2   8   0   14.72    0.63
   2   8   0   14.43    0.67
  -3  -8   0   14.23    0.63
   3   8   0   13.53    0.65
   3   8   0   14.34    0.63
  -4  -8   0   19.94    0.83
   4   8   0   18.72    0.82
   4   8   0   18.59    0.86
   5   8   0    2.12    0.26
   5   8   0    2.37    0.30
   6   8   0   -0.19    0.22
   6   8   0   -0.08    0.16
   7   8   0    0.97    0.29
  -8  -8   0    1.87    0.32
  -9  -8   0    0.73    0.26
   9   8   0    0.03    0.38
   4  -9   0    0.67    0.27
  -4   9   0    0.47    0.27
   3  -9   0    0.24    0.22
  -3   9   0    0.11    0.22
   2  -9   0    0.12    0.18
  -2   9   0   -0.12    0.20
   1  -9   0    4.02    0.32
  -1   9   0    3.54    0.33
   0  -9   0   16.91    0.78
   0   9   0   16.88    0.79
  -1  -9   0    4.34    0.30
   1   9   0    3.82    0.28
  -2  -9   0   17.83    0.78
   2   9   0   16.99    0.80
  -3  -9   0    1.03    0.15
   3   9   0    1.07    0.18
   3   9   0    0.90    0.16
  -4  -9   0    1.90    0.22
   4   9   0    1.88    0.25
   4   9   0    2.01    0.27
   5   9   0   -0.11    0.16
   5   9   0    0.17    0.20
   6   9   0    1.98    0.28
   6   9   0    1.86    0.33
   7   9   0    1.95    0.32
  -8  -9   0    2.29    0.34
   8   9   0    1.57    0.33
   2 -10   0    4.66    0.38
  -2  10   0    3.94    0.37
   1 -10   0    0.03    0.19
  -1  10   0    0.06    0.21
   0 -10   0    2.16    0.28
   0  10   0    2.06    0.25
  -1 -10   0    0.54    0.17
   1  10   0    0.53    0.19
  -2 -10   0    2.54    0.27
   2  10   0    2.28    0.24
  -3 -10   0    0.11    0.14
   3  10   0    0.21    0.17
  -4 -10   0    4.64    0.32
   4  10   0    4.22    0.33
   4  10   0    4.23    0.34
   5  10   0    4.57    0.37
   5  10   0    4.22    0.34
   6  10   0   -0.01    0.23
  -7 -10   0    0.56    0.24
   7  10   0    0.04    0.28
  -8 -10   0    0.87    0.28
   8  10   0    0.69    0.33
   1 -11   0    0.66    0.23
  -1  11   0    0.37    0.24
   0 -11   0    0.76    0.22
   0  11   0    0.74    0.23
  -1 -11   0    2.37    0.29
   1  11   0    1.87    0.25
  -2 -11   0    1.53    0.26
   2  11   0    1.53    0.27
  -3 -11   0    1.47    0.21
   3  11   0    1.05    0.22
  -4 -11   0    1.12    0.19
   4  11   0    1.10    0.23
   5  11   0    0.20    0.22
   6  11   0    3.07    0.37
  -7 -11   0    0.48    0.26
   7  11   0    0.22    0.29
  -1 -12   0    0.07    0.22
   1  12   0   -0.02    0.19
  -2 -12   0    0.07    0.20
   2  12   0    0.10    0.21
  -3 -12   0   -0.19    0.19
   3  12   0    0.13    0.21
  -4 -12   0    6.36    0.42
   4  12   0    6.13    0.44
   5  12   0    0.54    0.26
   4  12  -1    1.32    0.27
  -4 -12   1    1.21    0.22
   3  12  -1    1.06    0.25
  -3 -12   1    1.12    0.22
   2  12  -1    0.23    0.20
  -2 -12   1    0.37    0.20
   6  11  -1    2.74    0.36
   6  11  -1    2.51    0.33
   5  11  -1    0.26    0.19
   5  11  -1    0.45    0.24
   4  11  -1    2.00    0.29
   4  11  -1    1.59    0.29
  -4 -11   1    2.17    0.27
   3  11  -1    0.93    0.23
  -3 -11   1    1.11    0.19
   2  11  -1    0.12    0.20
  -2 -11   1    0.05    0.17
   1  11  -1    0.43    0.20
  -1 -11   1    0.50    0.19
   0  11  -1    0.60    0.23
   0 -11   1    1.20    0.22
  -1  11  -1    0.68    0.25
   1 -11   1    1.19    0.24
   7  10  -1    2.62    0.38
   7  10  -1    2.25    0.33
   6  10  -1    0.08    0.23
   6  10  -1    0.00    0.19
   5  10  -1    0.16    0.18
   5  10  -1   -0.03    0.21
   4  10  -1    3.34    0.31
   4  10  -1    3.30    0.32
  -4 -10   1    3.41    0.27
   3  10  -1    5.11    0.34
   3  10  -1    4.89    0.34
  -3 -10   1    5.38    0.33
   2  10  -1    4.37    0.33
  -2 -10   1    4.67    0.32
   1  10  -1    0.15    0.18
  -1 -10   1    0.09    0.16
   0  10  -1    0.25    0.20
   0 -10   1    0.35    0.17
  -1  10  -1   -0.06    0.21
   1 -10   1    0.00    0.18
  -2  10  -1   -0.04    0.21
   2 -10   1    0.12    0.21
   8   9  -1    0.33    0.32
   7   9  -1    0.33    0.27
   7   9  -1    0.22    0.21
   6   9  -1    2.63    0.30
   6   9  -1    2.71    0.34
   5   9  -1    2.91    0.32
   5   9  -1    3.21    0.29
   4   9  -1    8.21    0.44
   4   9  -1    7.98    0.46
  -4  -9   1    8.07    0.41
   3   9  -1    3.48    0.29
   3   9  -1    3.59    0.30
  -3  -9   1    3.89    0.26
   2   9  -1    1.84    0.22
   2   9  -1    1.96    0.25
  -2  -9   1    1.92    0.22
   1   9  -1    1.75    0.24
  -1  -9   1    1.77    0.23
   0   9  -1    7.35    0.43
   0  -9   1    7.49    0.42
  -1   9  -1    3.41    0.33
   1  -9   1    3.92    0.31
  -2   9  -1    0.66    0.21
   2  -9   1    0.65    0.19
  -3   9  -1    1.78    0.33
   3  -9   1    1.94    0.32
  -4   9  -1    0.41    0.26
   4  -9   1    0.21    0.24
   9   8  -1    0.01    0.38
  -9  -8   1    0.50    0.26
   8   8  -1    5.23    0.51
   7   8  -1    6.98    0.47
   7   8  -1    7.03    0.43
   6   8  -1    1.13    0.20
   6   8  -1    1.16    0.26
   5   8  -1    1.17    0.19
   5   8  -1    1.29    0.22
   4   8  -1   -0.05    0.14
   4   8  -1    0.02    0.16
  -4  -8   1    0.00    0.10
   3   8  -1   59.18    2.48
   3   8  -1   58.21    2.35
  -3  -8   1   60.77    2.45
   2   8  -1    3.60    0.27
   2   8  -1    3.70    0.28
  -2  -8   1    3.76    0.25
   1   8  -1   41.77    1.79
  -1  -8   1   43.12    1.77
   0   8  -1    0.64    0.15
   0  -8   1    0.74    0.14
  -1   8  -1    0.29    0.17
   1  -8   1    0.53    0.14
  -2   8  -1    0.17    0.19
   2  -8   1    0.63    0.17
  -3   8  -1    2.15    0.32
   3  -8   1    2.78    0.30
  -4   8  -1    1.15    0.29
  -5   8  -1    1.01    0.30
   5  -8   1    1.18    0.27
   9   7  -1   -0.03    0.40
  -9  -7   1    0.68    0.26
   8   7  -1   -0.24    0.31
   7   7  -1    1.94    0.33
   7   7  -1    1.62    0.28
   6   7  -1    0.87    0.18
   6   7  -1    0.98    0.23
   5   7  -1   16.10    0.71
   5   7  -1   15.73    0.77
  -5  -7   1   15.89    0.69
   4   7  -1    3.19    0.27
   4   7  -1    3.15    0.27
  -4  -7   1    3.23    0.22
   3   7  -1   36.49    1.60
   3   7  -1   37.84    1.52
  -3  -7   1   39.52    1.58
   2   7  -1   11.82    0.53
   2   7  -1   12.14    0.57
  -2  -7   1   12.03    0.54
   1   7  -1    0.21    0.11
   1   7  -1    0.19    0.10
  -1  -7   1    0.11    0.09
   0   7  -1    1.85    0.22
   0  -7   1    1.74    0.20
  -1   7  -1    0.04    0.14
   1  -7   1    0.16    0.12
  -2   7  -1   23.00    1.05
   2  -7   1   23.05    1.01
  -3   7  -1    0.45    0.21
   3  -7   1    0.82    0.17
  -4   7  -1    1.42    0.28
  -5   7  -1    0.33    0.26
   5  -7   1    0.63    0.22
   9   6  -1    1.01    0.43
  -9  -6   1    1.47    0.26
   8   6  -1    0.60    0.36
   7   6  -1   14.28    0.69
   7   6  -1   15.28    0.79
   6   6  -1   17.69    0.80
   6   6  -1   18.51    0.88
   5   6  -1   21.48    0.98
   5   6  -1   21.41    0.91
  -5  -6   1   21.12    0.90
   4   6  -1    3.98    0.27
   4   6  -1    4.19    0.30
  -4  -6   1    4.48    0.24
   3   6  -1    0.37    0.12
   3   6  -1    0.39    0.11
  -3  -6   1    0.32    0.08
   2   6  -1   44.45    1.86
   2   6  -1   43.82    1.76
  -2  -6   1   45.18    1.83
   1   6  -1   25.41    1.08
   1   6  -1   24.47    1.01
  -1  -6   1   25.78    1.06
   0   6  -1   19.36    0.83
   0   6  -1   18.75    0.77
   0  -6   1   19.03    0.82
  -1   6  -1   15.43    0.70
   1  -6   1   14.90    0.67
  -2   6  -1   -0.22    0.15
   2  -6   1    0.13    0.11
  -3   6  -1    8.06    0.48
   3  -6   1    8.16    0.44
  -4   6  -1    3.39    0.34
   4  -6   1    4.50    0.32
  -6   6  -1    0.60    0.28
   9   5  -1    1.87    0.47
  -9  -5   1    3.14    0.34
   8   5  -1    0.39    0.36
   7   5  -1   -0.02    0.17
   7   5  -1    0.07    0.28
   6   5  -1    5.14    0.41
   6   5  -1    5.04    0.34
   5   5  -1   17.45    0.81
   5   5  -1   17.63    0.75
  -5  -5   1   17.02    0.74
   4   5  -1    7.94    0.39
   4   5  -1    8.19    0.43
  -4  -5   1    7.89    0.36
   3   5  -1   91.19    3.67
   3   5  -1   88.36    3.46
  -3  -5   1   87.62    3.62
   2   5  -1   29.14    1.16
   2   5  -1   28.77    1.23
  -2  -5   1   29.64    1.21
   1   5  -1   13.62    0.60
   1   5  -1   13.31    0.56
  -1  -5   1   14.05    0.59
   0   5  -1    0.23    0.07
   0   5  -1    0.43    0.09
   0  -5   1    0.31    0.07
  -1   5  -1    6.05    0.27
  -1   5  -1    6.54    0.33
   1  -5   1    6.31    0.31
  -2   5  -1    5.99    0.36
   2  -5   1    5.28    0.31
  -3   5  -1    7.93    0.46
   3  -5   1    7.57    0.41
  -4   5  -1    8.79    0.55
   4  -5   1    9.84    0.48
  -5   5  -1    7.63    0.54
   5  -5   1   10.82    0.51
  -6   5  -1    1.45    0.29
  -7   5  -1    0.06    0.28
   9   4  -1   -0.34    0.38
  -9  -4   1    0.54    0.20
   8   4  -1    3.91    0.54
  -8  -4   1    4.05    0.31
   7   4  -1   15.87    0.85
   7   4  -1   15.51    0.71
   6   4  -1   19.95    0.86
   6   4  -1   20.19    0.98
   5   4  -1   43.08    1.69
   5   4  -1   43.49    1.82
  -5  -4   1   40.70    1.74
   4   4  -1   32.11    1.36
   4   4  -1   32.44    1.28
  -4  -4   1   30.74    1.31
   3   4  -1    0.30    0.10
   3   4  -1    0.47    0.09
  -3  -4   1    0.27    0.06
   2   4  -1    3.74    0.20
   2   4  -1    3.71    0.22
  -2  -4   1    3.79    0.19
   1   4  -1   35.38    1.43
   1   4  -1   33.21    1.35
  -1  -4   1   34.65    1.41
   0   4  -1   68.74    2.77
   0   4  -1   64.08    2.61
   0  -4   1   69.47    2.75
  -1   4  -1  102.00    4.19
  -1   4  -1  117.45    4.47
   1  -4   1  107.46    4.43
  -2   4  -1    0.71    0.08
  -2   4  -1    0.49    0.13
   2  -4   1    0.60    0.09
  -3   4  -1    7.73    0.45
   3  -4   1    7.31    0.38
  -4   4  -1   14.60    0.77
   4  -4   1   16.68    0.71
  -5   4  -1   11.84    0.69
   5  -4   1   13.98    0.62
  -6   4  -1    0.39    0.26
  -7   4  -1    2.74    0.39
   9   3  -1    3.32    0.54
   8   3  -1    0.14    0.38
   7   3  -1    1.28    0.35
   6   3  -1    1.06    0.17
   6   3  -1    0.86    0.27
   5   3  -1    3.67    0.34
   5   3  -1    4.43    0.26
   5   3  -1    3.67    0.27
   4   3  -1  112.48    4.28
   4   3  -1  102.54    4.33
   4   3  -1  100.31    4.08
   3   3  -1   46.12    1.85
   3   3  -1   44.28    1.74
  -3  -3   1   42.47    1.81
   2   3  -1  101.89    3.99
   2   3  -1  107.13    4.22
  -2  -3   1  100.50    4.19
   1   3  -1   57.04    2.31
   1   3  -1   54.74    2.19
  -1  -3   1   57.41    2.30
   0   3  -1    0.68    0.07
   0   3  -1    0.56    0.08
   0  -3   1    0.39    0.08
  -1   3  -1   12.12    0.48
  -1   3  -1   12.24    0.53
   1  -3   1   11.76    0.51
  -2   3  -1   45.12    1.67
  -2   3  -1   43.59    1.82
   2  -3   1   41.26    1.78
  -3   3  -1   13.22    0.64
   3  -3   1   13.32    0.58
  -4   3  -1   22.85    1.05
  -5   3  -1    3.72    0.39
   5  -3   1    3.36    0.28
  -6   3  -1    3.09    0.37
  -7   3  -1    0.07    0.27
  -8   3  -1   -0.11    0.28
   9   2  -1   -0.30    0.44
   8   2  -1    0.46    0.40
   7   2  -1   23.18    1.14
  -7  -2   1   22.16    0.93
   6   2  -1   18.67    0.78
   6   2  -1   17.66    0.91
   5   2  -1   55.07    2.24
   5   2  -1   54.85    2.41
   5   2  -1   60.92    2.35
   4   2  -1   60.41    2.39
   4   2  -1   57.77    2.28
   4   2  -1   56.62    2.43
   3   2  -1   30.41    1.22
   3   2  -1   30.05    1.17
   3   2  -1   28.02    1.25
   2   2  -1   74.86    2.96
   2   2  -1   76.31    3.11
   2   2  -1   78.49    3.14
   1   2  -1    5.52    0.26
   1   2  -1    5.50    0.24
  -1  -2   1    5.86    0.25
   0   2  -1  109.56    4.35
   0   2  -1  105.16    4.10
   0  -2   1  103.69    4.33
  -1   2  -1  136.47    5.41
  -1   2  -1  140.48    5.10
   1  -2   1  120.64    5.38
  -2   2  -1   33.58    1.30
  -2   2  -1   34.11    1.41
   2  -2   1   32.57    1.37
  -3   2  -1    7.81    0.35
  -3   2  -1    7.91    0.44
  -4   2  -1    0.48    0.20
   4  -2   1    0.40    0.09
  -5   2  -1    0.20    0.21
   5  -2   1    0.10    0.12
  -6   2  -1   17.77    0.87
  -7   2  -1    3.51    0.35
  -8   2  -1    3.04    0.38
   9   1  -1    2.18    0.50
   8   1  -1    4.33    0.52
   7   1  -1    4.75    0.49
   6   1  -1    3.55    0.51
  -6  -1   1    3.79    0.24
   5   1  -1   -0.06    0.11
   5   1  -1    0.14    0.09
   5   1  -1    0.31    0.24
   4   1  -1   13.07    0.58
   4   1  -1   12.59    0.63
   3   1  -1   49.89    2.05
   3   1  -1   49.28    2.08
   3   1  -1   50.50    1.95
   2   1  -1  360.28   14.95
   2   1  -1  369.36   14.84
   2   1  -1  365.29   14.07
   1   1  -1   42.83    1.73
   1   1  -1   41.52    1.63
   0   1  -1   20.93    0.79
   0   1  -1   20.45    0.83
   0  -1   1   19.52    0.83
  -1   1  -1  227.90    8.53
  -1   1  -1  214.05    9.06
  -2   1  -1   50.25    1.93
   2  -1   1   50.82    2.07
   2  -1   1   48.34    2.03
  -3   1  -1   36.64    1.43
   3  -1   1   35.07    1.50
   3  -1   1   38.03    1.55
  -4   1  -1   36.89    1.47
   4  -1   1   36.98    1.56
   4  -1   1   38.83    1.62
  -5   1  -1   39.02    1.62
   5  -1   1   42.08    1.81
   5  -1   1   42.89    1.73
   6  -1   1    2.80    0.42
   7  -1   1    0.70    0.34
   8  -1   1    0.72    0.34
   9   0  -1    1.51    0.46
   8   0  -1    0.14    0.38
   7   0  -1    1.60    0.38
   6   0  -1   10.85    0.67
   5   0  -1   43.91    1.75
   5   0  -1   38.57    1.81
   4   0  -1  125.18    4.51
   4   0  -1  117.39    4.76
   4   0  -1  107.64    4.81
   3   0  -1   17.87    0.81
   3   0  -1   20.56    0.76
   3   0  -1   18.36    0.85
   2   0  -1  267.30   10.12
   2   0  -1  258.60   10.80
   1   0  -1    6.43    0.27
   1   0  -1    6.58    0.29
   0   0  -1   28.31    1.15
   0   0  -1   28.33    1.09
  -1   0  -1   21.61    0.84
   1   0   1   21.36    0.89
  -2   0  -1  115.03    4.41
   2   0   1  111.35    4.64
   2   0   1  117.50    4.69
  -3   0  -1   15.66    0.65
   3   0   1   15.95    0.68
   3   0   1   16.90    0.74
  -4   0  -1    2.58    0.17
   4   0   1    2.79    0.29
   4   0   1    2.49    0.20
  -5   0  -1    2.07    0.18
   5   0   1    1.95    0.35
   5   0   1    1.73    0.24
  -6   0  -1    0.08    0.12
   6   0   1    0.03    0.27
   7   0   1    8.46    0.63
   8   0   1    9.44    0.69
   9   0   1    2.97    0.54
   8  -1  -1    4.69    0.56
   7  -1  -1    5.85    0.56
   6  -1  -1   13.95    0.79
   5  -1  -1    4.50    0.38
   5  -1  -1    4.07    0.42
   4  -1  -1   10.73    0.53
   4  -1  -1   11.22    0.61
  -4   1   1   10.73    0.45
   3  -1  -1   22.11    0.84
   3  -1  -1   20.18    0.95
   2  -1  -1    7.47    0.39
   2  -1  -1    8.33    0.31
   2  -1  -1    6.71    0.35
   1  -1  -1  241.71    9.83
   0  -1  -1   27.58    1.21
   0   1   1   31.57    1.21
  -1  -1  -1   94.33    3.66
   1   1   1   94.39    3.85
  -2  -1  -1   35.05    1.39
   2   1   1   36.14    1.48
  -3  -1  -1   10.20    0.43
   3   1   1    9.99    0.48
  -4  -1  -1   70.00    2.76
   4   1   1   73.58    2.89
   4   1   1   69.71    2.96
  -5  -1  -1   52.47    2.01
   5   1   1   50.00    2.18
  -6  -1  -1   19.47    0.82
   6   1   1   20.59    1.01
  -7  -1  -1    5.42    0.31
   7   1   1    5.06    0.54
   8   1   1    0.15    0.37
   9   1   1    0.42    0.38
  -8   2   1    0.70    0.30
  -7   2   1    1.01    0.29
   5  -2  -1   27.92    1.23
   3  -2  -1  237.26    9.70
  -3   2   1  240.53    9.76
   2  -2  -1    4.68    0.25
  -2   2   1    4.67    0.28
   1  -2  -1   12.06    0.55
  -1   2   1   13.57    0.56
   0  -2  -1   22.25    0.89
   0  -2  -1   22.70    0.95
   0   2   1   23.83    0.95
  -1  -2  -1  270.11   10.56
  -1  -2  -1  264.81   11.12
   1   2   1  286.65   11.18
  -2  -2  -1    7.24    0.31
   2   2   1    7.48    0.35
  -3  -2  -1   40.52    1.61
   3   2   1   41.66    1.71
  -4  -2  -1   57.23    2.23
   4   2   1   57.09    2.39
  -5  -2  -1    1.66    0.20
   5   2   1    1.62    0.29
  -6  -2  -1    1.39    0.21
   6   2   1    1.17    0.28
  -7  -2  -1    4.99    0.30
   7   2   1    3.89    0.46
   8   2   1    3.51    0.47
   9   2   1    0.80    0.44
  -8   3   1    0.03    0.27
  -7   3   1    2.67    0.37
  -6   3   1    8.52    0.54
   5  -3  -1    2.40    0.26
  -5   3   1    2.93    0.35
   4  -3  -1    6.42    0.37
  -4   3   1    5.81    0.43
   3  -3  -1    3.14    0.24
  -3   3   1    2.87    0.26
   2  -3  -1   26.20    1.14
  -2   3   1   27.80    1.16
   1  -3  -1    5.08    0.26
  -1   3   1    5.63    0.27
   0  -3  -1  131.13    5.56
   0  -3  -1  139.92    5.25
   0   3   1  136.95    5.54
  -1  -3  -1   80.99    3.35
   1   3   1   84.74    3.37
   1   3   1   81.81    3.19
  -2  -3  -1   46.93    1.92
   2   3   1   48.26    1.94
   2   3   1   46.28    1.84
  -3  -3  -1   38.23    1.56
   3   3   1   38.51    1.51
   3   3   1   38.21    1.60
  -4  -3  -1   58.45    2.44
   4   3   1   61.92    2.50
  -5  -3  -1   32.12    1.28
   5   3   1   31.79    1.39
  -6  -3  -1   23.08    0.98
   6   3   1   24.38    1.12
  -7  -3  -1   14.85    0.65
   7   3   1   15.12    0.84
  -8  -3  -1    3.21    0.27
   8   3   1    2.81    0.44
   9   3   1    1.08    0.40
  10   3   1    0.69    0.50
  -7   4   1    0.09    0.28
  -6   4   1   -0.20    0.26
   5  -4  -1    0.90    0.17
  -5   4   1    0.74    0.26
   4  -4  -1   22.84    1.02
  -4   4   1   23.02    1.07
   3  -4  -1   56.82    2.35
  -3   4   1   56.51    2.38
   2  -4  -1   15.23    0.69
  -2   4   1   15.97    0.71
   1  -4  -1   77.44    3.27
  -1   4   1   82.77    3.29
   0  -4  -1    2.78    0.18
   0   4   1    2.97    0.17
  -1  -4  -1   76.78    3.13
   1   4   1   76.32    3.15
   1   4   1   77.44    2.97
  -2  -4  -1    1.79    0.12
   2   4   1    1.45    0.15
   2   4   1    1.75    0.16
  -3  -4  -1   94.58    3.83
   3   4   1   92.99    3.67
   3   4   1   95.80    3.88
  -4  -4  -1   13.70    0.59
   4   4   1   14.31    0.62
   4   4   1   14.69    0.66
   5   4   1    5.69    0.40
  -6  -4  -1    6.24    0.35
   6   4   1    5.84    0.45
  -7  -4  -1    1.21    0.18
   7   4   1    0.84    0.29
  -8  -4  -1    7.58    0.41
   8   4   1    7.18    0.56
  -9  -4  -1    0.59    0.19
   9   4   1    0.14    0.37
  10   4   1    0.25    0.48
  -7   5   1    1.42    0.33
  -6   5   1    1.98    0.36
   5  -5  -1   12.77    0.61
  -5   5   1   10.12    0.62
   4  -5  -1    2.03    0.28
   3  -5  -1   12.86    0.62
  -3   5   1   13.12    0.66
   2  -5  -1    1.70    0.22
  -2   5   1    1.73    0.23
   1  -5  -1   13.13    0.60
  -1   5   1   13.41    0.60
   0  -5  -1   13.13    0.59
   0   5   1   13.63    0.59
  -1  -5  -1   53.59    2.19
   1   5   1   54.35    2.07
   1   5   1   51.79    2.20
  -2  -5  -1    8.30    0.39
   2   5   1    8.62    0.39
   2   5   1    8.65    0.40
  -3  -5  -1   32.40    1.34
   3   5   1   32.10    1.30
   3   5   1   32.75    1.37
  -4  -5  -1   27.20    1.14
   4   5   1   28.03    1.19
   4   5   1   27.31    1.12
   5   5   1    1.60    0.22
  -6  -5  -1   42.58    1.71
   6   5   1   43.03    1.84
  -7  -5  -1   15.62    0.70
   7   5   1   15.39    0.82
  -8  -5  -1    2.98    0.30
   8   5   1    2.49    0.41
  -9  -5  -1    4.31    0.33
   9   5   1    3.72    0.57
 -10  -5  -1    0.62    0.22
  10   5   1   -0.46    0.47
  -6   6   1    0.36    0.28
  -5   6   1   -0.17    0.25
  -4   6   1    0.35    0.23
   3  -6  -1   19.77    0.90
  -3   6   1   20.19    0.94
   2  -6  -1   24.31    1.09
  -2   6   1   25.81    1.11
   1  -6  -1   15.48    0.71
  -1   6   1   15.93    0.71
   0  -6  -1    5.73    0.32
   0  -6  -1    6.03    0.27
   0   6   1    6.01    0.32
  -1  -6  -1    0.96    0.17
   1   6   1    1.12    0.14
   1   6   1    1.17    0.15
  -2  -6  -1    3.37    0.22
   2   6   1    3.95    0.24
   2   6   1    3.57    0.23
  -3  -6  -1   66.76    2.71
   3   6   1   67.91    2.75
   3   6   1   64.27    2.60
  -4  -6  -1   10.38    0.46
   4   6   1   10.57    0.49
   4   6   1   10.14    0.52
   5   6   1   28.20    1.17
   5   6   1   28.20    1.24
   6   6   1    0.79    0.25
  -7  -6  -1    0.91    0.20
   7   6   1    0.70    0.26
  -8  -6  -1    0.46    0.20
   8   6   1    0.54    0.34
  -9  -6  -1    0.71    0.23
   9   6   1    0.64    0.40
   5  -7  -1    4.20    0.42
   4  -7  -1    4.78    0.39
  -4   7   1    3.81    0.40
   3  -7  -1    0.53    0.18
  -3   7   1    0.40    0.22
   2  -7  -1    1.00    0.17
  -2   7   1    0.77    0.20
   1  -7  -1    0.65    0.14
  -1   7   1    0.77    0.16
   0  -7  -1    2.11    0.22
   0   7   1    2.54    0.22
  -1  -7  -1   30.74    1.25
   1   7   1   28.23    1.25
  -2  -7  -1    6.62    0.36
   2   7   1    7.34    0.35
   2   7   1    6.85    0.37
  -3  -7  -1    1.07    0.12
   3   7   1    1.32    0.22
   3   7   1    1.14    0.17
  -4  -7  -1    4.08    0.25
   4   7   1    3.95    0.29
   4   7   1    3.99    0.33
   5   7   1    0.05    0.19
   6   7   1    7.34    0.48
  -7  -7  -1    3.31    0.32
   7   7   1    3.41    0.40
  -8  -7  -1   18.83    0.84
   8   7   1   18.61    0.96
  -9  -7  -1    1.91    0.32
   9   7   1    0.89    0.38
   4  -8  -1   -0.01    0.23
  -4   8   1    0.08    0.23
   3  -8  -1    2.42    0.31
  -3   8   1    2.30    0.33
   2  -8  -1    6.32    0.40
  -2   8   1    6.01    0.39
   1  -8  -1    3.80    0.30
  -1   8   1    3.69    0.30
   0  -8  -1   10.59    0.53
   0   8   1   10.61    0.53
  -1  -8  -1    6.27    0.36
   1   8   1    6.17    0.36
  -2  -8  -1   15.45    0.68
   2   8   1   14.36    0.69
  -3  -8  -1    1.51    0.20
   3   8   1    1.50    0.22
   3   8   1    1.34    0.24
  -4  -8  -1   49.24    2.01
   4   8   1   47.81    1.94
   4   8   1   48.55    2.05
   5   8   1    8.70    0.48
  -6  -8  -1    2.16    0.28
   6   8   1    1.94    0.33
  -7  -8  -1    0.56    0.21
   7   8   1    0.39    0.25
  -8  -8  -1    0.78    0.24
   8   8   1    0.52    0.33
  -9  -8  -1    0.54    0.25
   9   8   1   -0.34    0.34
   3  -9  -1    2.44    0.35
  -3   9   1    2.02    0.35
   2  -9  -1    1.27    0.23
  -2   9   1    0.92    0.24
   1  -9  -1    0.01    0.16
  -1   9   1   -0.06    0.19
   0  -9  -1    4.33    0.32
   0   9   1    4.07    0.31
  -1  -9  -1    0.22    0.15
   1   9   1    0.26    0.15
  -2  -9  -1    5.56    0.34
   2   9   1    5.31    0.33
  -3  -9  -1    5.80    0.35
   3   9   1    5.63    0.36
  -4  -9  -1    0.65    0.14
   4   9   1    0.62    0.17
   5   9   1    2.93    0.32
  -6  -9  -1   -0.06    0.19
   6   9   1    0.03    0.21
  -7  -9  -1    3.81    0.36
   7   9   1    3.72    0.41
  -8  -9  -1    1.31    0.26
   8   9   1    0.90    0.33
  -9  -9  -1    3.08    0.36
   9   9   1    2.07    0.43
   2 -10  -1    0.31    0.22
  -2  10   1    0.22    0.24
   1 -10  -1    3.51    0.34
  -1  10   1    3.28    0.31
   0 -10  -1    2.53    0.30
   0  10   1    2.60    0.29
  -1 -10  -1    0.94    0.20
   1  10   1    0.74    0.19
  -2 -10  -1    4.89    0.34
   2  10   1    4.34    0.33
  -3 -10  -1    4.99    0.33
   3  10   1    4.44    0.34
  -4 -10  -1    2.92    0.28
  -4 -10  -1    3.17    0.30
   4  10   1    2.52    0.30
  -5 -10  -1    6.40    0.42
   5  10   1    6.35    0.44
  -6 -10  -1    1.25    0.24
   6  10   1    1.26    0.27
  -7 -10  -1    3.92    0.37
   7  10   1    3.19    0.40
  -8 -10  -1    0.49    0.26
   8  10   1   -0.05    0.28
   1 -11  -1    0.02    0.22
  -1  11   1    0.09    0.23
   0 -11  -1    0.34    0.22
   0  11   1    0.59    0.23
  -1 -11  -1    0.39    0.20
   1  11   1    0.29    0.19
  -2 -11  -1    1.17    0.22
   2  11   1    1.15    0.22
  -3 -11  -1    0.22    0.18
   3  11   1    0.16    0.19
  -4 -11  -1    0.89    0.20
   4  11   1    0.91    0.22
  -5 -11  -1    2.09    0.33
   5  11   1    1.46    0.25
  -6 -11  -1    0.15    0.23
   6  11   1    0.15    0.25
  -7 -11  -1    0.80    0.27
   7  11   1    0.78    0.30
  -1 -12  -1    0.82    0.24
   1  12   1    0.80    0.24
  -2 -12  -1    0.67    0.23
   2  12   1    0.73    0.23
  -3 -12  -1    0.00    0.21
   3  12   1    0.09    0.21
  -4 -12  -1    0.50    0.21
   4  12   1    0.57    0.23
   5  12   1    1.19    0.27
   4  12  -2    0.16    0.22
   3  12  -2    2.02    0.32
  -3 -12   2    2.14    0.29
   2  12  -2    0.15    0.23
  -2 -12   2    0.23    0.20
   6  11  -2    0.31    0.22
   6  11  -2    0.23    0.24
   5  11  -2    3.48    0.33
   5  11  -2    3.19    0.34
   4  11  -2    0.80    0.21
   4  11  -2    0.55    0.20
  -4 -11   2    0.52    0.16
   3  11  -2    0.00    0.20
  -3 -11   2    0.22    0.16
   2  11  -2    4.65    0.34
  -2 -11   2    4.78    0.34
   1  11  -2    1.07    0.23
  -1 -11   2    1.14    0.21
   0  11  -2   -0.10    0.22
   0 -11   2    0.03    0.19
  -1  11  -2    1.34    0.28
   1 -11   2    1.76    0.30
   7  10  -2    1.52    0.32
   7  10  -2    1.25    0.25
   6  10  -2    0.53    0.25
   6  10  -2    0.39    0.21
   5  10  -2    1.11    0.22
   5  10  -2    1.54    0.25
   4  10  -2    0.31    0.18
   4  10  -2    0.10    0.17
  -4 -10   2    0.36    0.14
   3  10  -2    0.13    0.16
   3  10  -2    0.37    0.18
  -3 -10   2    0.09    0.13
   2  10  -2    2.49    0.28
  -2 -10   2    2.43    0.24
   1  10  -2    2.74    0.29
  -1 -10   2    3.22    0.27
   0  10  -2    1.00    0.23
   0 -10   2    1.20    0.20
  -1  10  -2    0.98    0.24
   1 -10   2    1.10    0.21
  -2  10  -2   -0.10    0.23
   2 -10   2    0.27    0.21
   8   9  -2    0.42    0.23
   8   9  -2    0.19    0.30
   7   9  -2    1.12    0.30
   7   9  -2    1.35    0.24
   6   9  -2    0.50    0.20
   6   9  -2    0.40    0.24
   5   9  -2    3.26    0.30
   5   9  -2    2.99    0.33
  -5  -9   2    3.38    0.26
   4   9  -2    1.29    0.20
   4   9  -2    1.39    0.21
  -4  -9   2    1.36    0.21
   3   9  -2   11.44    0.59
   3   9  -2   11.69    0.56
  -3  -9   2   12.23    0.56
   2   9  -2    7.69    0.42
   2   9  -2    8.10    0.42
  -2  -9   2    7.71    0.41
   1   9  -2    2.30    0.26
  -1  -9   2    2.46    0.23
   0   9  -2    0.06    0.16
   0  -9   2    0.06    0.14
  -1   9  -2    2.76    0.31
   1  -9   2    3.10    0.28
  -2   9  -2    1.71    0.30
   2  -9   2    1.99    0.28
  -3   9  -2    1.27    0.28
   3  -9   2    1.52    0.24
  -4   9  -2    0.35    0.25
   4  -9   2    0.40    0.23
   8   8  -2   -0.11    0.22
   8   8  -2    0.23    0.33
   7   8  -2    4.38    0.36
   7   8  -2    4.30    0.43
   6   8  -2    4.20    0.39
   6   8  -2    3.90    0.33
   5   8  -2   10.42    0.55
   5   8  -2   10.42    0.53
  -5  -8   2   11.03    0.50
   4   8  -2    0.20    0.15
   4   8  -2    0.05    0.14
  -4  -8   2    0.22    0.11
   3   8  -2    5.90    0.35
   3   8  -2    6.10    0.37
  -3  -8   2    6.10    0.33
   2   8  -2    3.89    0.28
   2   8  -2    3.88    0.28
  -2  -8   2    4.07    0.26
   1   8  -2    7.77    0.39
   1   8  -2    8.22    0.43
  -1  -8   2    7.64    0.40
   0   8  -2    2.70    0.26
   0  -8   2    2.74    0.23
  -1   8  -2   18.36    0.87
   1  -8   2   18.73    0.83
  -2   8  -2    1.54    0.28
   2  -8   2    1.92    0.25
  -3   8  -2    1.96    0.32
   3  -8   2    2.73    0.30
  -4   8  -2    0.92    0.27
   4  -8   2    1.29    0.23
  -5   8  -2    0.68    0.28
   5  -8   2    0.85    0.25
   9   7  -2    1.38    0.45
   8   7  -2    3.53    0.36
   8   7  -2    4.12    0.49
   7   7  -2    1.01    0.28
   7   7  -2    1.20    0.22
   6   7  -2    0.50    0.18
   6   7  -2    0.27    0.23
   5   7  -2    0.53    0.20
   5   7  -2    0.29    0.15
  -5  -7   2    0.27    0.10
   4   7  -2    1.51    0.22
   4   7  -2    1.47    0.27
  -4  -7   2    1.62    0.18
   3   7  -2   12.39    0.61
   3   7  -2   13.31    0.59
  -3  -7   2   13.07    0.58
   2   7  -2   39.21    1.57
   2   7  -2   38.56    1.66
  -2  -7   2   40.63    1.64
   1   7  -2    8.23    0.42
   1   7  -2    7.75    0.38
  -1  -7   2    8.14    0.40
   0   7  -2    2.48    0.24
   0   7  -2    2.52    0.20
   0  -7   2    2.38    0.21
  -1   7  -2   16.80    0.77
   1  -7   2   16.45    0.74
  -2   7  -2    2.64    0.29
   2  -7   2    2.91    0.25
  -3   7  -2    2.31    0.29
   3  -7   2    2.76    0.27
  -4   7  -2    3.10    0.34
   4  -7   2    3.77    0.33
  -5   7  -2    0.71    0.27
   9   6  -2    0.13    0.42
   8   6  -2    0.44    0.22
   8   6  -2    0.33    0.36
   7   6  -2    0.26    0.19
   7   6  -2    0.33    0.29
   6   6  -2   21.27    1.01
   6   6  -2   21.60    0.93
   5   6  -2    1.87    0.25
   5   6  -2    2.09    0.24
  -5  -6   2    1.95    0.19
   4   6  -2   31.71    1.37
   4   6  -2   31.91    1.29
  -4  -6   2   31.32    1.32
   3   6  -2    3.02    0.26
   3   6  -2    3.11    0.23
  -3  -6   2    3.21    0.21
   2   6  -2   27.94    1.21
   2   6  -2   28.26    1.15
  -2  -6   2   29.26    1.19
   1   6  -2    1.10    0.17
   1   6  -2    1.02    0.16
  -1  -6   2    1.06    0.15
   0   6  -2   30.61    1.26
   0   6  -2   28.38    1.17
   0  -6   2   29.81    1.24
  -1   6  -2   10.78    0.52
   1  -6   2   10.40    0.49
  -2   6  -2   14.93    0.72
   2  -6   2   15.05    0.67
  -3   6  -2   16.39    0.80
   3  -6   2   15.87    0.73
  -4   6  -2    0.03    0.19
   4  -6   2    0.24    0.15
  -5   6  -2    0.05    0.22
   5  -6   2    0.35    0.18
  -6   6  -2    0.67    0.28
   9   5  -2    0.65    0.45
  -9  -5   2    1.34    0.25
   8   5  -2    1.91    0.33
   8   5  -2    2.28    0.42
   7   5  -2    9.69    0.63
   7   5  -2    9.75    0.51
   6   5  -2   11.40    0.56
   6   5  -2   11.75    0.63
   5   5  -2    0.54    0.15
   5   5  -2    0.58    0.21
  -5  -5   2    0.48    0.10
   4   5  -2    0.63    0.13
   4   5  -2    0.61    0.17
  -4  -5   2    0.68    0.09
   3   5  -2   40.11    1.70
   3   5  -2   40.99    1.60
  -3  -5   2   40.27    1.67
   2   5  -2   11.48    0.50
   2   5  -2   11.34    0.52
  -2  -5   2   11.73    0.51
   1   5  -2   81.81    3.26
   1   5  -2   84.67    3.45
  -1  -5   2   85.75    3.43
   0   5  -2    9.46    0.43
   0   5  -2    8.67    0.39
   0  -5   2    9.14    0.41
  -1   5  -2    9.92    0.46
  -1   5  -2    9.02    0.39
   1  -5   2    9.17    0.43
  -2   5  -2    1.21    0.23
   2  -5   2    1.50    0.17
  -3   5  -2   36.01    1.57
   3  -5   2   36.18    1.51
  -4   5  -2    6.33    0.45
   4  -5   2    7.47    0.40
   5  -5   2    7.86    0.45
  -6   5  -2    0.51    0.27
  -7   5  -2   -0.05    0.27
   9   4  -2    2.14    0.50
   8   4  -2    1.95    0.43
   7   4  -2    5.48    0.38
   7   4  -2    5.45    0.52
   6   4  -2   12.02    0.56
   6   4  -2   11.53    0.65
   5   4  -2   13.55    0.62
   5   4  -2   14.59    0.71
  -5  -4   2   13.59    0.62
   4   4  -2   25.26    1.10
   4   4  -2   25.88    1.03
  -4  -4   2   24.76    1.06
   3   4  -2    0.52    0.11
   3   4  -2    0.65    0.10
  -3  -4   2    0.46    0.08
   2   4  -2   33.18    1.38
   2   4  -2   32.87    1.30
  -2  -4   2   32.66    1.36
   1   4  -2    0.68    0.11
   1   4  -2    0.77    0.11
  -1  -4   2    0.69    0.11
   0   4  -2  114.08    4.53
   0   4  -2  109.18    4.27
   0  -4   2  108.99    4.50
  -1   4  -2   64.14    2.57
  -1   4  -2   61.89    2.40
   1  -4   2   60.23    2.54
  -2   4  -2   12.25    0.49
  -2   4  -2   12.26    0.58
   2  -4   2   11.65    0.53
  -3   4  -2   28.62    1.25
   3  -4   2   27.43    1.18
  -4   4  -2    2.91    0.36
   4  -4   2    4.04    0.27
  -5   4  -2    2.63    0.32
  -6   4  -2    0.86    0.26
  -7   4  -2    1.32    0.31
   9   3  -2    1.18    0.48
   8   3  -2    4.14    0.59
   7   3  -2    0.03    0.32
   7   3  -2    0.10    0.17
   6   3  -2   44.49    1.77
   6   3  -2   43.61    1.93
   5   3  -2    1.52    0.22
   5   3  -2    2.07    0.26
   5   3  -2    1.63    0.26
   4   3  -2   14.76    0.62
   4   3  -2   13.18    0.58
   4   3  -2   12.98    0.64
   3   3  -2    4.49    0.23
   3   3  -2    4.22    0.28
   2   3  -2  264.07   10.29
   2   3  -2  276.49   10.90
  -2  -3   2  259.58   10.81
   1   3  -2   22.80    0.90
   1   3  -2   23.18    0.95
  -1  -3   2   22.05    0.94
   0   3  -2  108.43    4.42
   0   3  -2  109.65    4.18
   0  -3   2  106.93    4.40
  -1   3  -2    1.58    0.15
  -1   3  -2    1.93    0.11
   1  -3   2    1.80    0.12
  -2   3  -2   59.61    2.43
  -2   3  -2   59.76    2.26
   2  -3   2   56.03    2.39
  -3   3  -2   16.18    0.78
  -3   3  -2   17.05    0.67
   3  -3   2   17.04    0.72
  -4   3  -2   11.73    0.64
  -5   3  -2   28.85    1.34
   5  -3   2   29.97    1.25
  -6   3  -2    7.82    0.52
  -7   3  -2   -0.09    0.23
  -8   3  -2   -0.14    0.25
   9   2  -2    1.39    0.49
   8   2  -2    4.99    0.61
   7   2  -2    0.67    0.17
   7   2  -2    0.64    0.35
   6   2  -2    3.39    0.50
   6   2  -2    3.88    0.29
   5   2  -2   26.74    1.23
   5   2  -2   26.56    1.11
   5   2  -2   29.21    1.19
   4   2  -2   46.26    1.87
   4   2  -2   44.93    1.90
   4   2  -2   43.61    1.77
   3   2  -2   43.62    1.73
   3   2  -2   43.55    1.84
   3   2  -2   45.09    1.82
   2   2  -2    0.61    0.09
   2   2  -2    0.59    0.09
   2   2  -2    0.72    0.08
   1   2  -2    8.51    0.34
   1   2  -2    8.09    0.37
   0   2  -2    5.64    0.26
   0   2  -2    5.76    0.24
   0  -2   2    5.74    0.26
  -1   2  -2   76.73    3.00
  -1   2  -2   80.44    3.19
   1  -2   2   76.41    3.16
  -2   2  -2  189.35    7.16
  -2   2  -2  189.01    7.61
   2  -2   2  180.26    7.56
  -3   2  -2   24.78    1.07
  -3   2  -2   24.54    0.97
   3  -2   2   23.35    1.00
  -4   2  -2   29.73    1.36
  -4   2  -2   32.06    1.25
   4  -2   2   32.14    1.30
  -5   2  -2    2.11    0.33
   5  -2   2    1.30    0.20
  -6   2  -2    0.34    0.22
  -7   2  -2    1.03    0.27
  -8   2  -2    0.92    0.29
   9   1  -2   -0.51    0.44
   8   1  -2    2.43    0.46
   7   1  -2   12.56    0.79
   6   1  -2    9.89    0.68
   6   1  -2   10.04    0.48
   5   1  -2   10.37    0.59
   5   1  -2   11.30    0.54
   5   1  -2    8.56    0.45
   4   1  -2    9.80    0.49
   4   1  -2   10.08    0.55
   3   1  -2    2.39    0.15
   3   1  -2    2.16    0.24
   3   1  -2    1.79    0.19
   2   1  -2   23.35    0.91
   2   1  -2   23.62    0.98
   2   1  -2   22.79    0.97
   1   1  -2   58.27    2.41
   1   1  -2   59.98    2.28
   0   1  -2  434.08   17.64
   0   1  -2  442.26   16.69
   0   1  -2  423.22   17.59
  -1   1  -2  286.02   11.69
  -1   1  -2  291.46   11.04
   1  -1   2  280.45   11.60
  -2   1  -2    9.48    0.39
  -2   1  -2    8.95    0.43
   2  -1   2    8.55    0.38
  -3   1  -2   -0.06    0.09
   3  -1   2    0.06    0.14
   3  -1   2    0.09    0.04
  -4   1  -2    0.01    0.10
   4  -1   2    0.08    0.05
   4  -1   2    0.00    0.17
  -5   1  -2   43.66    1.77
   5  -1   2   44.41    1.87
   5  -1   2   46.86    1.94
   6  -1   2    3.26    0.46
   7  -1   2   13.33    0.78
   8  -1   2    0.77    0.37
  -9   1  -2   -0.25    0.25
   9   0  -2    2.39    0.49
   8   0  -2    3.89    0.58
   7   0  -2    1.41    0.39
   6   0  -2   -0.01    0.28
   5   0  -2   -0.08    0.14
   5   0  -2    0.12    0.11
   5   0  -2    0.19    0.27
   4   0  -2   27.58    1.07
   4   0  -2   26.97    1.16
   4   0  -2   26.27    1.21
   3   0  -2  114.10    4.81
   3   0  -2  120.05    4.52
   2   0  -2  194.70    7.34
   2   0  -2  190.95    7.78
   2   0  -2  186.60    7.76
   1   0  -2   38.02    1.51
   1   0  -2   35.33    1.51
   0   0  -2    2.47    0.11
   0   0  -2    2.28    0.13
  -1   0  -2  466.75   17.69
  -1   0  -2  453.00   18.57
   1   0   2  455.00   18.69
  -2   0  -2   18.47    0.74
   2   0   2   18.20    0.81
   2   0   2   18.64    0.75
  -3   0  -2  140.67    5.44
   3   0   2  135.26    5.72
   3   0   2  147.68    5.79
  -4   0  -2   24.01    1.01
   4   0   2   25.01    1.05
   4   0   2   26.87    1.13
  -5   0  -2   27.72    1.14
   5   0   2   29.01    1.28
  -6   0  -2    8.07    0.41
   6   0   2    8.69    0.62
   7   0   2    0.65    0.33
   8   0   2    0.41    0.34
   9   0   2    0.59    0.41
   8  -1  -2    1.15    0.40
   7  -1  -2    1.07    0.37
   6  -1  -2   22.89    1.12
   5  -1  -2   31.83    1.51
   5  -1  -2   35.55    1.47
   4  -1  -2    6.61    0.31
   4  -1  -2    6.53    0.48
   3  -1  -2   21.32    0.82
   3  -1  -2   20.81    0.91
   3  -1  -2   20.02    0.94
   2  -1  -2   44.12    1.69
   2  -1  -2   44.09    1.82
   2  -1  -2   42.58    1.81
   1  -1  -2  322.06   11.35
   1  -1  -2  288.94   12.05
   1  -1  -2  273.45   12.02
   0  -1  -2    5.49    0.26
   0   1   2    5.93    0.24
  -1  -1  -2  131.85    5.06
  -1  -1  -2  126.46    5.33
   1   1   2  135.34    5.36
  -2  -1  -2  953.21   37.57
   2   1   2 1000.00   39.80
  -3  -1  -2    4.09    0.21
   3   1   2    4.34    0.27
  -4  -1  -2    5.28    0.27
   4   1   2    5.95    0.40
  -5  -1  -2    2.81    0.22
   5   1   2    3.31    0.40
  -6  -1  -2   21.48    0.88
   6   1   2   21.23    1.04
  -7  -1  -2    4.49    0.29
   7   1   2    4.16    0.46
   8   1   2    3.84    0.47
   9   1   2    0.46    0.38
  -8   2   2    1.00    0.31
  -7   2   2    2.55    0.36
   4  -2  -2   10.26    0.54
   3  -2  -2   25.59    0.97
   3  -2  -2   23.69    1.06
   2  -2  -2   25.21    0.94
   2  -2  -2   22.90    1.03
  -2   2   2   24.06    1.03
   1  -2  -2  379.38   13.91
   1  -2  -2  335.38   14.72
  -1   2   2  371.60   14.79
   0  -2  -2   10.25    0.48
   0  -2  -2   10.40    0.43
   0   2   2   11.26    0.45
  -1  -2  -2    1.01    0.09
   1   2   2    1.09    0.10
  -2  -2  -2  186.14    7.04
  -2  -2  -2  174.62    7.39
   2   2   2  186.54    7.45
  -3  -2  -2   17.42    0.70
   3   2   2   17.18    0.75
  -4  -2  -2   27.09    1.13
   4   2   2   29.34    1.22
  -5  -2  -2   33.15    1.33
   5   2   2   33.38    1.45
  -6  -2  -2   10.36    0.48
   6   2   2   10.32    0.62
  -7  -2  -2    2.09    0.24
   7   2   2    1.87    0.37
  -8  -2  -2    0.30    0.17
   8   2   2   -0.37    0.36
   9   2   2    2.65    0.48
  10   2   2    0.15    0.46
  -7   3   2    0.13    0.28
  -6   3   2    3.92    0.39
   5  -3  -2    6.49    0.41
  -5   3   2    5.25    0.43
   4  -3  -2   24.17    1.06
  -4   3   2   23.85    1.09
   3  -3  -2    7.25    0.40
  -3   3   2    7.00    0.40
   2  -3  -2    5.94    0.33
  -2   3   2    5.44    0.32
   1  -3  -2   75.04    3.18
  -1   3   2   80.62    3.19
   0  -3  -2   36.89    1.50
   0  -3  -2   34.74    1.40
   0   3   2   37.14    1.49
  -1  -3  -2  195.71    8.17
   1   3   2  206.38    8.19
  -2  -3  -2  161.61    6.20
  -2  -3  -2  155.83    6.50
   2   3   2  163.57    6.54
  -3  -3  -2   18.37    0.77
  -3  -3  -2   18.33    0.75
   3   3   2   18.96    0.80
  -4  -3  -2  102.94    4.00
   4   3   2  103.05    4.24
  -5  -3  -2    0.17    0.12
   5   3   2    0.15    0.18
  -6  -3  -2   11.77    0.54
   6   3   2   11.58    0.67
  -7  -3  -2    8.74    0.43
   7   3   2    8.38    0.58
  -8  -3  -2    1.93    0.26
   8   3   2    1.30    0.40
   9   3   2    6.70    0.59
  10   3   2    0.71    0.45
  -7   4   2    0.77    0.31
  -6   4   2    1.06    0.29
   5  -4  -2    5.16    0.37
  -5   4   2    4.17    0.40
   4  -4  -2    2.51    0.30
  -4   4   2    2.41    0.33
   3  -4  -2   17.66    0.81
  -3   4   2   17.88    0.83
   2  -4  -2   39.14    1.67
  -2   4   2   40.46    1.68
   1  -4  -2   21.16    0.92
  -1   4   2   21.91    0.92
   0  -4  -2   15.35    0.68
   0  -4  -2   16.01    0.62
   0   4   2   15.54    0.67
  -1  -4  -2   25.05    0.98
  -1  -4  -2   25.07    1.05
   1   4   2   25.13    1.05
  -2  -4  -2    3.20    0.19
  -2  -4  -2    3.21    0.19
   2   4   2    3.38    0.20
  -3  -4  -2   43.06    1.75
  -3  -4  -2   43.48    1.68
   3   4   2   41.57    1.78
  -4  -4  -2   34.60    1.39
  -4  -4  -2   34.41    1.43
   4   4   2   35.42    1.48
  -5  -4  -2   63.03    2.48
   5   4   2   62.90    2.63
  -6  -4  -2    0.22    0.15
   6   4   2    0.31    0.24
  -7  -4  -2    3.90    0.29
   7   4   2    3.38    0.46
  -8  -4  -2    0.13    0.18
   8   4   2    0.07    0.34
  -9  -4  -2    0.46    0.20
   9   4   2   -0.15    0.36
  10   4   2   -0.21    0.46
  -6   5   2    0.75    0.29
   5  -5  -2    4.73    0.37
  -5   5   2    3.86    0.38
   4  -5  -2    6.07    0.38
  -4   5   2    5.03    0.41
   3  -5  -2    4.20    0.33
  -3   5   2    3.21    0.33
   2  -5  -2   14.77    0.68
  -2   5   2   14.65    0.68
   1  -5  -2    1.18    0.19
  -1   5   2    1.00    0.17
   0  -5  -2   12.56    0.49
   0  -5  -2   11.93    0.56
   0   5   2   12.51    0.55
  -1  -5  -2   59.36    2.42
  -1  -5  -2   59.59    2.28
   1   5   2   57.25    2.42
  -2  -5  -2  165.67    6.82
  -2  -5  -2  175.28    6.48
   2   5   2  163.01    6.85
  -3  -5  -2   33.27    1.37
  -3  -5  -2   32.62    1.32
   3   5   2   33.47    1.40
  -4  -5  -2   10.80    0.52
  -4  -5  -2   11.86    0.51
   4   5   2   11.81    0.56
  -5  -5  -2    5.04    0.33
   5   5   2    5.65    0.39
  -6  -5  -2    4.61    0.33
   6   5   2    5.51    0.44
  -7  -5  -2    4.32    0.32
   7   5   2    3.87    0.45
  -8  -5  -2    7.96    0.44
   8   5   2    8.04    0.61
  -9  -5  -2    2.78    0.30
   9   5   2    2.37    0.46
 -10  -5  -2    1.91    0.31
  10   5   2    0.81    0.45
  -6   6   2    2.12    0.39
  -5   6   2   -0.20    0.25
   4  -6  -2    4.41    0.36
  -4   6   2    3.18    0.37
   3  -6  -2    2.59    0.29
  -3   6   2    1.62    0.28
   2  -6  -2   20.57    0.94
  -2   6   2   21.60    0.95
   1  -6  -2   16.55    0.77
  -1   6   2   17.51    0.76
   0  -6  -2   31.85    1.36
   0   6   2   32.48    1.36
  -1  -6  -2    6.34    0.30
  -1  -6  -2    6.40    0.35
   1   6   2    6.53    0.33
  -2  -6  -2    0.05    0.09
  -2  -6  -2    0.14    0.05
   2   6   2    0.14    0.10
  -3  -6  -2    5.65    0.30
  -3  -6  -2    5.50    0.31
   3   6   2    5.39    0.31
  -4  -6  -2   17.63    0.75
  -4  -6  -2   16.59    0.74
   4   6   2   17.42    0.78
  -5  -6  -2   13.73    0.63
   5   6   2   14.51    0.68
  -6  -6  -2   12.63    0.60
   6   6   2   12.93    0.68
  -7  -6  -2    5.02    0.35
   7   6   2    4.70    0.41
  -8  -6  -2    0.49    0.21
   8   6   2    0.57    0.31
  -9  -6  -2    0.45    0.22
   9   6   2   -0.09    0.38
 -10  -6  -2    0.39    0.23
  10   6   2    0.15    0.46
   5  -7  -2    2.73    0.39
  -4   7   2    2.58    0.36
   3  -7  -2    2.76    0.32
  -3   7   2    2.27    0.32
   2  -7  -2    9.04    0.48
  -2   7   2    8.94    0.48
   1  -7  -2    0.26    0.14
  -1   7   2    0.58    0.15
   0  -7  -2    0.06    0.12
   0   7   2    0.10    0.12
  -1  -7  -2    6.23    0.30
  -1  -7  -2    5.97    0.35
   1   7   2    5.98    0.33
  -2  -7  -2   15.55    0.63
  -2  -7  -2   14.75    0.67
   2   7   2   14.41    0.68
  -3  -7  -2   40.65    1.56
  -3  -7  -2   38.64    1.64
   3   7   2   38.26    1.66
  -4  -7  -2   26.32    1.12
  -4  -7  -2   26.74    1.09
   4   7   2   25.86    1.15
  -5  -7  -2    2.61    0.29
   5   7   2    3.09    0.30
  -6  -7  -2    3.19    0.30
   6   7   2    3.12    0.32
  -7  -7  -2    2.50    0.30
   7   7   2    2.77    0.35
  -8  -7  -2    0.61    0.22
   8   7   2    0.65    0.33
  -9  -7  -2    2.27    0.31
   9   7   2    1.35    0.42
   4  -8  -2    0.31    0.24
  -4   8   2    0.14    0.24
   3  -8  -2   -0.03    0.21
  -3   8   2    0.13    0.23
   2  -8  -2    3.59    0.33
  -2   8   2    3.89    0.33
   1  -8  -2    0.17    0.15
  -1   8   2    0.28    0.16
   0  -8  -2   36.83    1.52
   0   8   2   34.20    1.51
  -1  -8  -2    3.60    0.30
   1   8   2    3.73    0.27
  -2  -8  -2   12.78    0.54
  -2  -8  -2   12.06    0.59
   2   8   2   11.81    0.58
  -3  -8  -2    0.20    0.14
  -3  -8  -2    0.30    0.13
   3   8   2    0.17    0.15
  -4  -8  -2    4.37    0.33
  -4  -8  -2    4.48    0.29
   4   8   2    4.39    0.32
  -5  -8  -2    5.72    0.37
   5   8   2    5.92    0.41
  -6  -8  -2    0.53    0.19
   6   8   2    0.07    0.22
  -7  -8  -2    3.16    0.32
   7   8   2    3.44    0.40
  -8  -8  -2    2.21    0.32
   8   8   2    2.12    0.35
  -9  -8  -2    0.56    0.25
   9   8   2    0.33    0.39
   3  -9  -2    0.24    0.25
  -3   9   2    0.14    0.25
   2  -9  -2    8.60    0.51
  -2   9   2    8.71    0.52
   1  -9  -2    0.02    0.18
  -1   9   2    0.23    0.19
   0  -9  -2    2.26    0.28
   0   9   2    2.43    0.26
  -1  -9  -2    3.64    0.31
   1   9   2    3.15    0.25
  -2  -9  -2    2.24    0.27
   2   9   2    2.18    0.24
  -3  -9  -2    4.77    0.32
  -3  -9  -2    3.81    0.26
   3   9   2    4.25    0.31
  -4  -9  -2    1.76    0.24
  -4  -9  -2    1.56    0.28
   4   9   2    1.67    0.24
  -5  -9  -2   17.88    0.77
   5   9   2   16.43    0.81
  -6  -9  -2    3.59    0.34
   6   9   2    3.86    0.38
  -7  -9  -2    0.63    0.23
   7   9   2    0.36    0.28
  -8  -9  -2    0.41    0.24
   8   9   2    0.11    0.29
  -9  -9  -2    1.69    0.28
   9   9   2    1.50    0.42
   2 -10  -2    0.19    0.24
  -2  10   2    0.14    0.24
   1 -10  -2    5.26    0.41
  -1  10   2    5.58    0.40
   0 -10  -2    0.49    0.20
   0  10   2    0.38    0.19
  -1 -10  -2   11.73    0.59
   1  10   2   11.07    0.58
  -2 -10  -2    4.19    0.34
   2  10   2    3.77    0.31
  -3 -10  -2    0.64    0.18
   3  10   2    0.46    0.18
  -4 -10  -2    1.26    0.20
  -4 -10  -2    1.09    0.19
   4  10   2    1.00    0.22
  -5 -10  -2    3.73    0.33
   5  10   2    3.30    0.35
  -6 -10  -2    1.93    0.31
   6  10   2    1.84    0.30
  -7 -10  -2    0.49    0.24
   7  10   2    0.34    0.29
  -8 -10  -2    1.32    0.28
   8  10   2    0.62    0.34
   1 -11  -2   -0.04    0.23
  -1  11   2    0.28    0.23
   0 -11  -2    1.30    0.26
   0  11   2    0.86    0.24
  -1 -11  -2   -0.10    0.20
   1  11   2    0.29    0.19
  -2 -11  -2    0.04    0.19
   2  11   2    0.08    0.19
  -3 -11  -2    0.34    0.20
   3  11   2    0.30    0.20
  -4 -11  -2    5.50    0.39
   4  11   2    5.11    0.39
  -5 -11  -2    0.80    0.22
   5  11   2    0.47    0.22
  -6 -11  -2    2.09    0.33
   6  11   2    2.26    0.35
  -7 -11  -2    0.55    0.25
   7  11   2   -0.18    0.29
  -1 -12  -2    2.83    0.37
   1  12   2    2.57    0.32
  -2 -12  -2    0.62    0.24
   2  12   2    0.49    0.22
  -3 -12  -2    0.36    0.22
   3  12   2    0.37    0.22
  -4 -12  -2    0.72    0.23
   4  12   2    0.63    0.24
   5  12   2    0.96    0.27
  -6 -12  -2    0.94    0.26
   6  12   2    0.48    0.28
   5  11  -3    1.13    0.27
   5  11  -3    1.14    0.24
   4  11  -3    0.10    0.19
   4  11  -3    0.31    0.22
  -4 -11   3    0.10    0.15
   3  11  -3    3.54    0.34
  -3 -11   3    3.37    0.29
   2  11  -3    2.14    0.31
  -2 -11   3    2.40    0.27
   1  11  -3    1.18    0.24
  -1 -11   3    1.26    0.21
   0  11  -3   -0.05    0.21
   0 -11   3    0.22    0.19
   7  10  -3    0.13    0.23
   7  10  -3    0.09    0.28
   6  10  -3    1.21    0.28
   6  10  -3    1.22    0.24
   5  10  -3    2.21    0.30
   5  10  -3    1.91    0.32
   4  10  -3    3.34    0.33
   4  10  -3    3.24    0.33
  -4 -10   3    3.82    0.29
   3  10  -3    0.55    0.20
   3  10  -3    0.29    0.18
  -3 -10   3    0.29    0.14
   2  10  -3    0.07    0.18
  -2 -10   3    0.17    0.14
   1  10  -3    0.10    0.18
  -1 -10   3    0.06    0.14
   0  10  -3    0.20    0.21
   0 -10   3    0.30    0.17
  -1  10  -3    1.82    0.30
   1 -10   3    1.85    0.27
  -2  10  -3    0.28    0.24
   2 -10   3    0.44    0.21
   7   9  -3    2.17    0.38
   7   9  -3    1.97    0.33
   6   9  -3    0.69    0.22
   6   9  -3    0.62    0.25
   5   9  -3    0.22    0.18
   5   9  -3    0.27    0.19
  -5  -9   3    0.14    0.13
   4   9  -3    0.22    0.17
   4   9  -3    0.28    0.19
  -4  -9   3    0.09    0.12
   3   9  -3    4.18    0.31
   3   9  -3    4.02    0.30
  -3  -9   3    4.45    0.28
   2   9  -3    8.70    0.45
   2   9  -3    8.82    0.47
  -2  -9   3    8.62    0.44
   1   9  -3    5.98    0.38
  -1  -9   3    5.73    0.34
   0   9  -3    2.44    0.29
   0  -9   3    2.92    0.25
  -1   9  -3    0.05    0.20
   1  -9   3    0.32    0.16
  -2   9  -3    0.05    0.20
   2  -9   3    0.39    0.18
  -3   9  -3   -0.07    0.21
   3  -9   3    0.17    0.20
   8   8  -3    0.31    0.34
   8   8  -3    0.15    0.23
   7   8  -3    0.39    0.22
   7   8  -3    0.35    0.28
   6   8  -3    1.48    0.23
   6   8  -3    1.57    0.28
   5   8  -3   11.58    0.56
   5   8  -3   10.82    0.58
  -5  -8   3   11.82    0.54
   4   8  -3    2.75    0.27
   4   8  -3    2.75    0.29
  -4  -8   3    2.74    0.23
   3   8  -3    9.37    0.47
   3   8  -3    8.83    0.47
  -3  -8   3    9.32    0.45
   2   8  -3    0.22    0.14
   2   8  -3    0.34    0.15
  -2  -8   3    0.39    0.12
   1   8  -3    3.81    0.27
   1   8  -3    4.15    0.30
  -1  -8   3    3.98    0.27
   0   8  -3    6.59    0.40
   0  -8   3    6.59    0.36
  -1   8  -3   -0.12    0.17
   1  -8   3    0.01    0.12
  -2   8  -3   10.09    0.57
   2  -8   3   10.72    0.53
  -3   8  -3    1.92    0.29
   3  -8   3    2.12    0.27
  -4   8  -3    0.28    0.24
   4  -8   3    0.06    0.20
  -5   8  -3    0.37    0.27
   5  -8   3    0.18    0.22
   8   7  -3    1.53    0.38
   8   7  -3    1.12    0.25
   7   7  -3    1.59    0.32
   7   7  -3    1.17    0.23
   6   7  -3    5.18    0.42
   6   7  -3    4.73    0.35
   5   7  -3   11.52    0.60
   5   7  -3   11.94    0.57
  -5  -7   3   12.42    0.56
   4   7  -3    8.78    0.44
   4   7  -3    8.03    0.45
  -4  -7   3    8.55    0.41
   3   7  -3    3.11    0.25
   3   7  -3    2.82    0.25
  -3  -7   3    3.00    0.22
   2   7  -3   32.16    1.29
   2   7  -3   31.40    1.36
  -2  -7   3   32.24    1.34
   1   7  -3   31.79    1.28
   1   7  -3   31.82    1.36
  -1  -7   3   32.22    1.34
   0   7  -3    2.84    0.26
   0   7  -3    2.71    0.22
   0  -7   3    2.88    0.22
  -1   7  -3    7.76    0.44
   1  -7   3    8.03    0.40
  -2   7  -3    0.70    0.20
   2  -7   3    1.11    0.20
  -3   7  -3    2.38    0.32
   3  -7   3    2.71    0.26
  -4   7  -3    0.09    0.23
   4  -7   3    0.40    0.17
  -5   7  -3    2.71    0.38
   5  -7   3    2.95    0.35
   9   6  -3    0.82    0.45
   9   6  -3    0.76    0.27
   8   6  -3    2.68    0.35
   8   6  -3    2.74    0.49
   7   6  -3    0.87    0.22
   7   6  -3    0.90    0.31
   6   6  -3    6.13    0.46
   6   6  -3    6.03    0.38
   5   6  -3    0.54    0.16
   5   6  -3    0.42    0.19
  -5  -6   3    0.49    0.12
   4   6  -3   51.33    2.05
   4   6  -3   52.04    2.18
  -4  -6   3   51.83    2.13
   3   6  -3    4.78    0.30
   3   6  -3    5.26    0.30
  -3  -6   3    5.06    0.28
   2   6  -3   34.75    1.38
   2   6  -3   33.73    1.46
  -2  -6   3   35.21    1.44
   1   6  -3    3.86    0.24
   1   6  -3    3.70    0.24
  -1  -6   3    3.90    0.23
   0   6  -3    1.99    0.21
   0   6  -3    1.67    0.17
   0  -6   3    1.68    0.17
  -1   6  -3    7.26    0.41
  -1   6  -3    7.19    0.34
   1  -6   3    7.42    0.36
  -2   6  -3   11.02    0.58
   2  -6   3   11.02    0.52
  -3   6  -3    1.08    0.23
   3  -6   3    1.47    0.21
  -4   6  -3    7.22    0.50
   4  -6   3    7.50    0.42
  -5   6  -3    0.49    0.25
   5  -6   3    0.76    0.18
  -6   6  -3    0.71    0.28
   9   5  -3   -0.40    0.44
   8   5  -3    1.50    0.25
   8   5  -3    1.39    0.41
   7   5  -3   11.89    0.71
   7   5  -3   11.39    0.59
   6   5  -3    7.36    0.52
   6   5  -3    7.92    0.43
   5   5  -3   17.90    0.78
   5   5  -3   17.98    0.86
  -5  -5   3   18.36    0.80
   4   5  -3    5.12    0.34
   4   5  -3    5.01    0.30
  -4  -5   3    5.05    0.29
   3   5  -3   -0.07    0.12
   3   5  -3    0.04    0.10
  -3  -5   3    0.02    0.08
   2   5  -3   38.98    1.54
   2   5  -3   38.62    1.62
  -2  -5   3   38.89    1.61
   1   5  -3   35.17    1.39
   1   5  -3   34.88    1.47
  -1  -5   3   35.18    1.45
   0   5  -3   11.47    0.51
   0   5  -3   10.87    0.48
   0  -5   3   10.99    0.50
  -1   5  -3   70.48    2.90
  -1   5  -3   69.79    2.72
   1  -5   3   69.77    2.87
  -2   5  -3    0.24    0.15
   2  -5   3    0.38    0.09
  -3   5  -3    2.88    0.31
   3  -5   3    2.50    0.22
  -4   5  -3    2.14    0.29
   4  -5   3    2.16    0.23
  -5   5  -3    3.11    0.39
   5  -5   3    4.41    0.32
  -6   5  -3    3.57    0.40
  -7   5  -3    0.30    0.28
   9   4  -3    1.14    0.50
   8   4  -3    4.24    0.38
   8   4  -3    4.45    0.58
   7   4  -3    0.13    0.18
   7   4  -3    0.17    0.33
   6   4  -3    0.06    0.16
   6   4  -3    0.27    0.27
   5   4  -3    3.37    0.27
   5   4  -3    3.07    0.33
   4   4  -3   20.52    0.86
   4   4  -3   20.83    0.93
   3   4  -3   25.00    1.00
   3   4  -3   24.47    1.06
  -3  -4   3   24.35    1.04
   2   4  -3   65.14    2.73
   2   4  -3   67.94    2.58
  -2  -4   3   65.87    2.71
   1   4  -3   60.00    2.54
   1   4  -3   64.79    2.40
  -1  -4   3   60.35    2.52
   0   4  -3   15.90    0.67
   0   4  -3   15.20    0.63
   0  -4   3   14.90    0.66
  -1   4  -3    0.07    0.07
  -1   4  -3    0.03    0.08
   1  -4   3    0.00    0.06
  -2   4  -3   18.92    0.85
  -2   4  -3   19.07    0.76
   2  -4   3   18.31    0.80
  -3   4  -3    5.74    0.39
   3  -4   3    5.34    0.29
  -4   4  -3   18.77    0.92
   4  -4   3   19.66    0.84
  -5   4  -3    0.40    0.22
  -6   4  -3    6.23    0.49
  -7   4  -3    0.52    0.28
   9   3  -3   -0.12    0.46
   8   3  -3   -0.01    0.40
   7   3  -3    0.66    0.19
   7   3  -3    0.68    0.35
   6   3  -3   32.75    1.35
   6   3  -3   33.37    1.50
   5   3  -3   43.83    1.84
   5   3  -3   45.97    1.99
   5   3  -3   49.65    1.96
   4   3  -3   26.70    1.27
   4   3  -3   32.03    1.31
   4   3  -3   31.86    1.21
   3   3  -3   11.40    0.54
   3   3  -3   11.31    0.49
   3   3  -3   11.44    0.53
   2   3  -3   14.25    0.59
   2   3  -3   14.37    0.63
   1   3  -3   56.87    2.33
   1   3  -3   57.29    2.20
  -1  -3   3   55.98    2.32
   0   3  -3  109.30    4.22
   0   3  -3  112.21    4.46
   0  -3   3  106.25    4.44
  -1   3  -3   21.15    0.85
  -1   3  -3   21.94    0.91
   1  -3   3   20.84    0.89
  -2   3  -3   66.16    2.55
  -2   3  -3   65.71    2.73
   2  -3   3   65.02    2.68
  -3   3  -3    5.15    0.34
  -3   3  -3    5.13    0.26
   3  -3   3    5.02    0.26
  -4   3  -3    0.55    0.22
   4  -3   3    0.24    0.08
   5  -3   3    4.03    0.28
  -6   3  -3    4.39    0.38
  -7   3  -3    3.65    0.40
  -8   3  -3    0.11    0.28
   9   2  -3    3.16    0.55
   8   2  -3    1.02    0.43
   7   2  -3    7.25    0.39
   6   2  -3    1.54    0.33
   6   2  -3    1.20    0.18
   5   2  -3    0.24    0.13
   5   2  -3    0.10    0.22
   5   2  -3    0.28    0.15
   4   2  -3    6.82    0.33
   4   2  -3    7.06    0.43
   4   2  -3    6.24    0.38
   3   2  -3   34.53    1.45
   3   2  -3   34.99    1.44
   3   2  -3   33.71    1.36
   2   2  -3   73.59    2.97
   2   2  -3   74.23    2.81
   2   2  -3   69.29    2.97
   1   2  -3   80.38    3.02
   1   2  -3   75.87    3.19
   0   2  -3  137.58    5.17
   0  -2   3  130.75    5.45
  -1   2  -3    2.10    0.12
  -1   2  -3    1.93    0.14
   1  -2   3    2.02    0.12
  -2   2  -3    0.12    0.08
  -2   2  -3    0.07    0.06
   2  -2   3    0.15    0.05
  -3   2  -3    4.24    0.25
  -3   2  -3    4.53    0.33
   3  -2   3    4.28    0.22
  -4   2  -3   38.11    1.69
  -4   2  -3   38.90    1.55
   4  -2   3   40.17    1.61
  -5   2  -3    4.67    0.42
   5  -2   3    4.53    0.27
  -6   2  -3    7.98    0.51
  -7   2  -3    0.37    0.26
  -8   2  -3    0.32    0.27
   9   1  -3    1.56    0.50
   8   1  -3   -0.30    0.39
   7   1  -3    0.32    0.37
   6   1  -3    5.92    0.56
   6   1  -3    6.21    0.35
   5   1  -3   76.37    3.05
   5   1  -3   70.43    3.09
   4   1  -3   36.33    1.53
   4   1  -3   33.98    1.39
   3   1  -3   92.50    3.79
   3   1  -3   91.25    3.77
   3   1  -3   92.59    3.56
   2   1  -3    2.26    0.20
   2   1  -3    2.85    0.15
   1   1  -3    1.57    0.13
   1   1  -3    1.82    0.11
   1   1  -3    1.79    0.18
   0   1  -3   66.80    2.71
   0   1  -3   66.53    2.56
   0   1  -3   65.62    2.70
  -1   1  -3  286.83   10.92
  -1   1  -3  277.51   11.53
   1  -1   3  284.14   11.49
  -2   1  -3   56.41    2.10
  -2   1  -3   53.26    2.23
   2  -1   3   51.29    2.18
  -3   1  -3   68.38    2.59
   3  -1   3   64.15    2.69
  -4   1  -3    1.22    0.21
   4  -1   3    1.43    0.21
  -5   1  -3    1.23    0.18
   5  -1   3    1.37    0.27
   6  -1   3    2.45    0.45
   7  -1   3    4.21    0.49
  -9   1  -3    1.13    0.31
   8   0  -3    5.16    0.62
   7   0  -3    4.70    0.57
   6   0  -3    4.74    0.52
   5   0  -3    0.23    0.11
   5   0  -3   -0.06    0.27
   5   0  -3    0.02    0.18
   4   0  -3    1.14    0.16
   4   0  -3    1.51    0.24
   3   0  -3  113.31    4.63
   3   0  -3  112.59    4.67
   3   0  -3  114.14    4.37
   2   0  -3   24.76    1.04
   2   0  -3   24.38    1.04
   1   0  -3   77.52    2.95
   1   0  -3   74.24    3.12
   1   0  -3   77.07    3.12
   0   0  -3  156.79    6.45
   0   0  -3  161.39    6.14
  -1   0  -3    7.00    0.34
  -1   0  -3    7.32    0.33
  -1   0  -3    7.48    0.33
  -2   0  -3   15.50    0.62
   2   0   3   14.15    0.65
   2   0   3   14.68    0.62
  -3   0  -3   12.31    0.52
   3   0   3   12.11    0.50
   3   0   3   12.00    0.58
  -4   0  -3    8.10    0.39
   4   0   3    8.67    0.50
   4   0   3    8.25    0.36
  -5   0  -3   25.09    1.06
   5   0   3   27.46    1.19
  -6   0  -3   14.73    0.66
   6   0   3   15.52    0.84
   7   0   3    4.78    0.47
   8   0   3    0.00    0.36
   9   0   3    1.76    0.43
   8  -1  -3    3.62    0.56
   7  -1  -3    0.42    0.36
   6  -1  -3    2.93    0.47
   5  -1  -3   24.02    1.14
   4  -1  -3   15.45    0.79
   4  -1  -3   15.36    0.64
   4  -1  -3   15.96    0.76
   3  -1  -3  166.85    6.84
   3  -1  -3  166.71    6.80
   3  -1  -3  166.98    6.42
   2  -1  -3   28.92    1.29
   2  -1  -3   32.28    1.19
   1  -1  -3   35.61    1.34
   1  -1  -3   32.65    1.44
   1  -1  -3   35.28    1.43
   0  -1  -3    0.37    0.08
  -1  -1  -3   24.30    1.06
  -1  -1  -3   26.94    1.02
   1   1   3   25.89    1.06
  -2  -1  -3  503.34   19.80
  -2  -1  -3  519.85   20.79
   2   1   3  517.07   20.96
  -3  -1  -3   44.19    1.73
   3   1   3   44.57    1.86
  -4  -1  -3   23.79    0.96
   4   1   3   23.98    1.06
  -5  -1  -3    0.09    0.12
   5   1   3    0.07    0.22
  -6  -1  -3    9.83    0.47
   6   1   3    9.39    0.61
  -7  -1  -3    2.50    0.27
   7   1   3    2.07    0.38
   8   1   3    2.13    0.39
   9   1   3    1.37    0.44
  -8   2   3    0.51    0.31
  -7   2   3    5.50    0.46
   5  -2  -3   17.77    0.87
   4  -2  -3    9.55    0.54
   3  -2  -3    5.55    0.36
   3  -2  -3    5.63    0.25
   2  -2  -3  251.67    9.13
   2  -2  -3  230.53    9.65
  -2   2   3  230.66    9.69
   1  -2  -3   16.40    0.74
   1  -2  -3   17.07    0.67
  -1   2   3   17.54    0.72
   0  -2  -3   65.68    2.80
   0  -2  -3   68.08    2.65
   0   2   3   71.35    2.79
  -1  -2  -3   43.24    1.79
  -1  -2  -3   41.11    1.70
   1   2   3   46.39    1.78
  -2  -2  -3    2.45    0.15
  -2  -2  -3    2.11    0.14
   2   2   3    2.49    0.16
  -3  -2  -3   25.54    1.01
   3   2   3   25.40    1.08
  -4  -2  -3   24.12    1.02
   4   2   3   26.56    1.11
  -5  -2  -3    5.16    0.32
   5   2   3    6.07    0.44
  -6  -2  -3    7.47    0.40
   6   2   3    7.25    0.52
  -7  -2  -3   17.78    0.75
   7   2   3   16.23    0.88
  -8  -2  -3    1.68    0.27
   8   2   3    1.05    0.39
   9   2   3   -0.13    0.36
  10   2   3    0.16    0.46
  -7   3   3   -0.04    0.29
  -6   3   3   -0.25    0.26
   5  -3  -3    3.65    0.36
  -5   3   3    2.65    0.35
   4  -3  -3   14.76    0.70
  -4   3   3   13.45    0.71
   3  -3  -3   35.83    1.54
  -3   3   3   36.55    1.55
   2  -3  -3   42.99    1.83
  -2   3   3   44.74    1.84
   1  -3  -3  127.72    5.39
   1  -3  -3  132.02    5.08
  -1   3   3  137.10    5.40
   0  -3  -3    7.54    0.37
   0   3   3    7.48    0.33
  -1  -3  -3   56.94    2.39
   1   3   3   59.75    2.39
  -2  -3  -3    5.40    0.24
  -2  -3  -3    4.87    0.26
   2   3   3    5.21    0.26
  -3  -3  -3  176.26    6.73
  -3  -3  -3  172.32    7.07
   3   3   3  175.23    7.12
  -4  -3  -3   15.05    0.64
   4   3   3   15.39    0.70
  -5  -3  -3   22.84    0.95
   5   3   3   23.29    1.04
  -6  -3  -3    0.23    0.16
   6   3   3    0.07    0.23
  -7  -3  -3    0.60    0.18
   7   3   3    0.32    0.32
  -8  -3  -3   11.06    0.53
   8   3   3   10.12    0.72
  -9  -3  -3    2.48    0.30
   9   3   3    1.40    0.46
  10   3   3    0.20    0.47
  -7   4   3    0.83    0.32
  -6   4   3    6.48    0.49
   5  -4  -3    6.64    0.44
  -5   4   3    5.93    0.46
   4  -4  -3   10.50    0.55
  -4   4   3   10.36    0.58
   3  -4  -3    6.79    0.41
  -3   4   3    6.38    0.41
   2  -4  -3   12.08    0.59
  -2   4   3   12.33    0.58
   1  -4  -3   29.50    1.28
  -1   4   3   30.95    1.27
   0  -4  -3   65.14    2.91
   0  -4  -3   79.73    3.10
   0   4   3   81.82    3.10
  -1  -4  -3   16.12    0.73
  -1  -4  -3   17.18    0.67
   1   4   3   16.83    0.71
  -2  -4  -3   17.99    0.72
  -2  -4  -3   17.24    0.77
   2   4   3   18.43    0.77
  -3  -4  -3   14.97    0.60
  -3  -4  -3   13.53    0.62
   3   4   3   14.34    0.64
  -4  -4  -3    4.14    0.27
  -4  -4  -3    4.31    0.22
   4   4   3    4.33    0.27
  -5  -4  -3   10.85    0.52
   5   4   3   11.49    0.58
  -6  -4  -3   20.06    0.85
   6   4   3   19.55    0.93
  -7  -4  -3    1.30    0.20
   7   4   3    1.27    0.32
  -8  -4  -3    4.60    0.35
   8   4   3    4.09    0.47
  -9  -4  -3    0.50    0.21
   9   4   3   -0.30    0.40
  10   4   3    1.03    0.44
  -6   5   3   -0.45    0.27
   5  -5  -3    0.21    0.19
   4  -5  -3    3.82    0.33
  -4   5   3    3.37    0.36
  -3   5   3    0.56    0.20
   2  -5  -3   45.49    1.92
  -2   5   3   46.08    1.93
   1  -5  -3   53.64    2.24
  -1   5   3   53.96    2.23
   0  -5  -3    2.79    0.25
   0  -5  -3    3.08    0.16
   0   5   3    2.61    0.18
  -1  -5  -3   61.16    2.49
  -1  -5  -3   59.10    2.33
   1   5   3   60.65    2.48
  -2  -5  -3   83.70    3.46
  -2  -5  -3   85.69    3.28
   2   5   3   84.50    3.47
  -3  -5  -3   15.86    0.65
  -3  -5  -3   14.72    0.68
   3   5   3   15.90    0.69
  -4  -5  -3   25.56    1.05
  -4  -5  -3   24.68    1.08
   4   5   3   26.67    1.11
  -5  -5  -3   14.86    0.67
   5   5   3   15.12    0.71
  -6  -5  -3   15.21    0.70
   6   5   3   15.86    0.78
  -7  -5  -3    1.76    0.28
   7   5   3    2.23    0.41
  -8  -5  -3    0.29    0.20
   8   5   3   -0.38    0.32
  -9  -5  -3    2.68    0.31
   9   5   3    2.34    0.46
 -10  -5  -3    4.34    0.37
  10   5   3    4.12    0.63
  -6   6   3    1.49    0.33
   5  -6  -3    5.48    0.41
  -5   6   3    3.83    0.43
   4  -6  -3   12.48    0.62
  -4   6   3   10.90    0.64
   3  -6  -3    3.53    0.33
  -3   6   3    2.67    0.31
   2  -6  -3    6.65    0.41
  -2   6   3    6.14    0.38
   1  -6  -3    3.03    0.30
  -1   6   3    3.46    0.25
   0  -6  -3   37.37    1.55
   0   6   3   35.81    1.53
  -1  -6  -3   17.39    0.77
  -1  -6  -3   16.86    0.68
   1   6   3   16.78    0.74
  -2  -6  -3   26.84    1.15
   2   6   3   26.71    1.14
  -3  -6  -3    3.86    0.27
  -3  -6  -3    3.88    0.28
   3   6   3    4.42    0.28
  -4  -6  -3   -0.01    0.13
  -4  -6  -3    0.06    0.11
   4   6   3    0.34    0.16
  -5  -6  -3   -0.16    0.15
   5   6   3   -0.02    0.17
  -6  -6  -3   17.67    0.78
   6   6   3   17.42    0.84
  -7  -6  -3    0.55    0.20
   7   6   3    0.70    0.28
  -8  -6  -3    7.89    0.45
   8   6   3    7.64    0.59
  -9  -6  -3    1.41    0.25
   9   6   3    0.85    0.41
 -10  -6  -3    0.56    0.24
  10   6   3   -0.13    0.45
  -5   7   3    0.09    0.29
   4  -7  -3    0.54    0.23
  -4   7   3   -0.14    0.25
   3  -7  -3    3.64    0.36
  -3   7   3    3.59    0.35
   2  -7  -3    1.34    0.21
  -2   7   3    1.21    0.21
   1  -7  -3   22.98    1.04
  -1   7   3   24.23    1.04
   0  -7  -3    4.18    0.33
   0   7   3    4.11    0.27
  -1  -7  -3    8.69    0.47
   1   7   3    8.79    0.43
  -2  -7  -3    0.12    0.10
  -2  -7  -3    0.06    0.13
   2   7   3    0.18    0.13
  -3  -7  -3    6.10    0.34
  -3  -7  -3    6.02    0.37
   3   7   3    6.36    0.37
  -4  -7  -3    3.95    0.30
  -4  -7  -3    4.35    0.31
   4   7   3    4.54    0.34
  -5  -7  -3   29.36    1.25
   5   7   3   31.38    1.34
  -6  -7  -3    6.54    0.41
   6   7   3    6.88    0.46
  -7  -7  -3    0.28    0.20
   7   7   3    0.17    0.27
  -8  -7  -3    0.23    0.21
   8   7   3    0.02    0.32
  -9  -7  -3    2.25    0.32
   9   7   3    1.51    0.43
   4  -8  -3    4.41    0.44
  -4   8   3    4.00    0.43
   3  -8  -3    1.08    0.25
  -3   8   3    0.88    0.25
   2  -8  -3    2.61    0.34
  -2   8   3    2.80    0.31
   1  -8  -3   -0.04    0.17
  -1   8   3    0.22    0.16
   0  -8  -3    7.89    0.46
   0   8   3    8.17    0.43
  -1  -8  -3    5.39    0.36
   1   8   3    5.27    0.32
  -2  -8  -3   26.00    1.11
  -2  -8  -3   26.71    1.02
   2   8   3   22.73    1.08
  -3  -8  -3    5.17    0.32
  -3  -8  -3    4.97    0.35
   3   8   3    5.37    0.35
  -4  -8  -3    3.23    0.30
  -4  -8  -3    3.56    0.29
   4   8   3    3.06    0.31
  -5  -8  -3    8.47    0.47
   5   8   3    8.90    0.51
  -6  -8  -3    0.40    0.20
   6   8   3    0.75    0.23
  -7  -8  -3    2.75    0.32
   7   8   3    2.84    0.39
  -8  -8  -3    2.71    0.32
   8   8   3    2.71    0.44
  -9  -8  -3    0.77    0.26
   9   8   3    0.37    0.39
   3  -9  -3    0.34    0.26
  -3   9   3    0.51    0.26
   2  -9  -3    0.95    0.25
  -2   9   3    1.01    0.24
   1  -9  -3    5.41    0.41
  -1   9   3    6.10    0.39
   0  -9  -3    1.95    0.29
   0   9   3    2.12    0.25
  -1  -9  -3    0.58    0.19
   1   9   3    0.32    0.16
  -2  -9  -3    1.71    0.28
   2   9   3    1.94    0.24
  -3  -9  -3    0.28    0.17
  -3  -9  -3    0.09    0.09
   3   9   3    0.23    0.17
  -4  -9  -3    4.24    0.34
  -4  -9  -3    4.35    0.33
   4   9   3    4.45    0.34
  -5  -9  -3    1.22    0.21
   5   9   3    1.31    0.23
  -6  -9  -3    9.92    0.53
   6   9   3    9.74    0.58
  -7  -9  -3    2.76    0.33
   7   9   3    2.97    0.40
  -8  -9  -3    0.32    0.24
   8   9   3    0.05    0.29
  -9  -9  -3    0.49    0.26
   9   9   3   -0.32    0.37
   2 -10  -3   -0.17    0.26
  -2  10   3    0.39    0.25
   1 -10  -3    1.45    0.27
  -1  10   3    1.28    0.25
   0 -10  -3    0.22    0.21
   0  10   3    0.33    0.19
  -1 -10  -3    4.55    0.37
   1  10   3    4.26    0.32
  -2 -10  -3    5.13    0.39
   2  10   3    4.92    0.35
  -3 -10  -3    3.72    0.33
   3  10   3    3.16    0.30
  -4 -10  -3    1.48    0.23
  -4 -10  -3    1.96    0.29
   4  10   3    1.70    0.29
  -5 -10  -3    1.11    0.22
   5  10   3    1.01    0.25
  -6 -10  -3    2.10    0.32
   6  10   3    1.98    0.35
  -7 -10  -3    0.12    0.24
   7  10   3   -0.05    0.28
  -8 -10  -3    1.20    0.28
   8  10   3    0.98    0.32
   1 -11  -3    1.09    0.29
  -1  11   3    0.92    0.26
   0 -11  -3    0.28    0.25
   0  11   3    0.38    0.22
  -1 -11  -3    1.43    0.27
   1  11   3    1.45    0.26
  -2 -11  -3    0.48    0.23
   2  11   3    0.42    0.19
  -3 -11  -3    0.29    0.21
   3  11   3    0.20    0.20
  -4 -11  -3   -0.09    0.19
   4  11   3    0.13    0.21
  -5 -11  -3    1.23    0.23
   5  11   3    1.01    0.26
  -6 -11  -3    2.82    0.34
   6  11   3    2.26    0.33
  -7 -11  -3    1.30    0.28
   7  11   3    1.21    0.32
  -2 -12  -3    0.50    0.25
   2  12   3    0.35    0.22
  -3 -12  -3    1.35    0.27
   3  12   3    1.31    0.26
   4  12   3    0.95    0.25
   5  12   3   -0.16    0.25
  -6 -12  -3    0.76    0.26
   6  12   3    0.33    0.28
   5  11  -4   -0.02    0.21
   5  11  -4   -0.05    0.24
   4  11  -4    0.56    0.24
   4  11  -4    0.41    0.22
  -4 -11   4    0.43    0.17
   3  11  -4    0.44    0.21
  -3 -11   4    0.10    0.16
   2  11  -4   -0.07    0.22
  -2 -11   4    0.08    0.16
   1  11  -4    4.66    0.41
  -1 -11   4    5.16    0.35
   0  11  -4   -0.04    0.24
   0 -11   4    0.21    0.19
   6  10  -4    0.26    0.23
   6  10  -4   -0.10    0.25
   5  10  -4    0.27    0.21
   5  10  -4    0.12    0.20
  -5 -10   4   -0.05    0.15
   4  10  -4    3.01    0.30
   4  10  -4    2.88    0.32
  -4 -10   4    2.94    0.27
   3  10  -4    6.20    0.40
   3  10  -4    6.32    0.41
  -3 -10   4    6.14    0.37
   2  10  -4    0.43    0.20
  -2 -10   4    0.31    0.15
   1  10  -4    0.71    0.22
  -1 -10   4    0.92    0.17
   0  10  -4    0.03    0.21
   0 -10   4    0.26    0.16
  -1  10  -4    0.17    0.23
   1 -10   4    0.76    0.19
  -2  10  -4    0.22    0.25
   2 -10   4    0.35    0.20
   7   9  -4    1.27    0.27
   7   9  -4    1.88    0.33
   6   9  -4    4.59    0.38
   6   9  -4    4.29    0.41
   5   9  -4    2.63    0.30
   5   9  -4    2.48    0.33
  -5  -9   4    2.80    0.26
   4   9  -4    0.40    0.19
   4   9  -4    0.51    0.20
  -4  -9   4    0.47    0.14
   3   9  -4    0.28    0.16
   3   9  -4    0.03    0.16
  -3  -9   4    0.03    0.13
   2   9  -4    3.21    0.29
   2   9  -4    3.65    0.30
  -2  -9   4    3.17    0.26
   1   9  -4    0.02    0.17
  -1  -9   4    0.23    0.13
   0   9  -4    4.64    0.37
   0  -9   4    4.71    0.31
  -1   9  -4    0.28    0.21
   1  -9   4    0.54    0.16
  -2   9  -4   -0.05    0.19
   2  -9   4   -0.04    0.17
  -3   9  -4    0.31    0.24
   3  -9   4    0.19    0.19
   8   8  -4    1.17    0.38
   8   8  -4    1.51    0.27
   7   8  -4    1.40    0.32
   7   8  -4    1.37    0.25
   6   8  -4    0.43    0.25
   6   8  -4    0.42    0.20
   5   8  -4    0.25    0.18
   5   8  -4    0.27    0.21
  -5  -8   4    0.16    0.13
   4   8  -4    0.88    0.18
   4   8  -4    1.04    0.21
  -4  -8   4    0.76    0.14
   3   8  -4    7.89    0.42
   3   8  -4    7.92    0.44
  -3  -8   4    7.84    0.40
   2   8  -4    1.05    0.17
   2   8  -4    1.12    0.18
  -2  -8   4    1.11    0.19
   1   8  -4   25.89    1.12
   1   8  -4   25.36    1.05
  -1  -8   4   24.79    1.09
   0   8  -4    0.21    0.17
   0  -8   4    0.18    0.12
  -1   8  -4   -0.17    0.17
   1  -8   4   -0.03    0.13
  -2   8  -4    2.52    0.32
   2  -8   4    2.85    0.26
  -3   8  -4    2.02    0.30
   3  -8   4    2.22    0.27
  -4   8  -4    2.10    0.32
   4  -8   4    2.18    0.31
   8   7  -4    0.24    0.24
   8   7  -4    0.25    0.37
   7   7  -4    0.33    0.21
   7   7  -4    0.20    0.29
   6   7  -4   11.08    0.55
   6   7  -4   10.45    0.61
   5   7  -4   11.00    0.53
   5   7  -4   10.04    0.57
  -5  -7   4   10.57    0.51
   4   7  -4   11.54    0.59
   4   7  -4   11.87    0.55
  -4  -7   4   11.58    0.54
   3   7  -4    7.07    0.41
   3   7  -4    7.42    0.39
  -3  -7   4    7.30    0.37
   2   7  -4    2.41    0.22
   2   7  -4    2.52    0.23
  -2  -7   4    2.39    0.21
   1   7  -4   25.06    1.02
   1   7  -4   24.26    1.07
  -1  -7   4   24.81    1.06
   0   7  -4    0.20    0.15
   0   7  -4    0.20    0.12
   0  -7   4    0.27    0.11
  -1   7  -4    7.67    0.45
   1  -7   4    7.64    0.39
  -2   7  -4    1.13    0.22
   2  -7   4    1.58    0.21
  -3   7  -4    0.70    0.21
   3  -7   4    0.93    0.17
  -4   7  -4    0.33    0.24
   4  -7   4    0.21    0.17
  -5   7  -4    0.56    0.24
   5  -7   4    0.35    0.20
   8   6  -4    6.11    0.44
   8   6  -4    5.35    0.59
   7   6  -4    0.19    0.20
   7   6  -4    0.30    0.31
   6   6  -4   10.55    0.52
   6   6  -4    9.96    0.60
   5   6  -4    4.80    0.39
   5   6  -4    5.02    0.33
  -5  -6   4    4.99    0.32
   4   6  -4   -0.01    0.17
   4   6  -4    0.12    0.14
  -4  -6   4    0.02    0.11
   3   6  -4    9.35    0.44
   3   6  -4    8.45    0.46
  -3  -6   4    8.95    0.43
   2   6  -4    4.95    0.31
   2   6  -4    5.26    0.29
  -2  -6   4    5.08    0.28
   1   6  -4   10.67    0.48
   1   6  -4   10.34    0.50
  -1  -6   4   10.68    0.49
   0   6  -4   33.16    1.33
   0   6  -4   34.44    1.42
   0  -6   4   32.42    1.39
  -1   6  -4   -0.08    0.10
  -1   6  -4   -0.14    0.11
   1  -6   4    0.03    0.09
   2  -6   4    0.02    0.10
  -3   6  -4    9.01    0.54
   3  -6   4    9.37    0.46
  -4   6  -4    7.16    0.48
   4  -6   4    7.43    0.41
  -5   6  -4    1.24    0.29
   5  -6   4    1.03    0.19
  -6   6  -4    1.29    0.31
   8   5  -4    0.80    0.24
   8   5  -4    0.26    0.39
   7   5  -4    0.68    0.21
   7   5  -4    0.80    0.34
   6   5  -4    2.59    0.35
   6   5  -4    2.89    0.29
   5   5  -4   27.55    1.24
   5   5  -4   27.67    1.15
  -5  -5   4   27.95    1.19
   4   5  -4   31.36    1.36
   4   5  -4   31.15    1.27
  -4  -5   4   31.31    1.33
   3   5  -4   23.22    0.94
   3   5  -4   22.59    1.00
  -3  -5   4   22.35    0.97
   2   5  -4    2.32    0.18
   2   5  -4    2.02    0.20
  -2  -5   4    1.97    0.19
   1   5  -4    1.74    0.17
   1   5  -4    1.71    0.17
  -1  -5   4    1.68    0.16
   0   5  -4   76.01    3.03
   0   5  -4   72.25    2.86
   0  -5   4   71.94    3.00
  -1   5  -4    7.05    0.39
  -1   5  -4    7.24    0.34
   1  -5   4    7.32    0.35
  -2   5  -4   27.17    1.24
  -2   5  -4   28.97    1.13
   2  -5   4   28.62    1.19
  -3   5  -4    1.86    0.29
   3  -5   4    1.83    0.20
  -4   5  -4    1.78    0.32
   4  -5   4    1.50    0.21
  -5   5  -4    0.01    0.24
   5  -5   4    0.22    0.14
  -6   5  -4    1.45    0.31
  -7   5  -4    0.19    0.25
   8   4  -4    2.11    0.45
   8   4  -4    2.76    0.35
   7   4  -4    9.91    0.53
   7   4  -4    9.98    0.69
   6   4  -4    0.95    0.19
   6   4  -4    0.88    0.29
   5   4  -4    3.23    0.26
   5   4  -4    3.18    0.39
   5   4  -4    3.02    0.24
   4   4  -4    0.20    0.18
   4   4  -4    0.40    0.12
   4   4  -4    0.42    0.12
   3   4  -4   12.91    0.55
   3   4  -4   12.40    0.59
  -3  -4   4   12.41    0.57
   2   4  -4   10.16    0.48
   2   4  -4   10.54    0.46
  -2  -4   4   10.51    0.48
   1   4  -4   62.18    2.38
   1   4  -4   61.36    2.51
  -1  -4   4   59.26    2.50
   0   4  -4    9.67    0.43
   0   4  -4   10.45    0.46
   0  -4   4    9.79    0.45
  -1   4  -4   11.96    0.56
  -1   4  -4   12.20    0.52
   1  -4   4   12.40    0.54
  -2   4  -4    0.62    0.10
  -2   4  -4    0.37    0.14
   2  -4   4    0.61    0.09
  -3   4  -4    0.92    0.20
  -3   4  -4    1.42    0.17
   3  -4   4    0.98    0.15
  -4   4  -4    1.18    0.25
   4  -4   4    0.88    0.13
  -5   4  -4   17.61    0.90
   5  -4   4   18.15    0.79
  -6   4  -4    3.02    0.39
  -7   4  -4    0.97    0.30
   8   3  -4    2.64    0.49
   7   3  -4    1.12    0.21
   7   3  -4    1.08    0.38
   6   3  -4    0.10    0.16
   6   3  -4   -0.11    0.27
   5   3  -4   31.36    1.30
   5   3  -4   33.45    1.44
   5   3  -4   32.02    1.39
   4   3  -4   43.62    1.79
   4   3  -4   44.92    1.92
   4   3  -4   47.06    1.90
   3   3  -4   42.94    1.77
   3   3  -4   41.67    1.77
   3   3  -4   42.14    1.67
   2   3  -4   92.10    3.50
   2   3  -4   89.54    3.70
   2   3  -4   88.82    3.69
   1   3  -4   20.35    0.80
  -1  -3   4   19.51    0.85
   0   3  -4   15.68    0.66
   0   3  -4   15.44    0.63
   0  -3   4   15.33    0.66
  -1   3  -4   31.32    1.28
  -1   3  -4   30.20    1.21
   1  -3   4   30.06    1.26
  -2   3  -4   94.35    3.92
  -2   3  -4   95.77    3.68
   2  -3   4   94.96    3.87
  -3   3  -4   57.57    2.37
  -3   3  -4   55.17    2.20
   3  -3   4   55.64    2.30
  -4   3  -4    0.57    0.12
  -4   3  -4    0.89    0.24
   4  -3   4    0.74    0.10
  -5   3  -4    5.33    0.47
   5  -3   4    6.64    0.34
  -6   3  -4    2.02    0.36
  -7   3  -4   -0.09    0.27
  -8   3  -4   -0.32    0.28
   8   2  -4    1.78    0.47
   7   2  -4   19.36    1.03
   6   2  -4    3.44    0.47
   6   2  -4    3.18    0.29
   5   2  -4    6.17    0.43
   5   2  -4    7.37    0.37
   5   2  -4    7.31    0.56
   4   2  -4   10.65    0.59
   4   2  -4   10.46    0.47
   4   2  -4    9.86    0.54
   3   2  -4   15.59    0.80
   3   2  -4   19.62    0.81
   3   2  -4   18.89    0.74
   2   2  -4    0.82    0.12
   2   2  -4    0.85    0.12
   2   2  -4    0.73    0.11
   1   2  -4  146.63    5.86
   1   2  -4  142.18    5.85
   1   2  -4  142.22    5.54
   0   2  -4   66.35    2.72
   0   2  -4   66.89    2.58
  -1   2  -4   29.45    1.16
   1  -2   4   29.29    1.22
  -2   2  -4    0.89    0.12
  -2   2  -4    0.74    0.12
   2  -2   4    1.05    0.11
  -3   2  -4    1.25    0.14
   3  -2   4    1.35    0.12
  -4   2  -4    0.47    0.15
  -4   2  -4    0.81    0.21
   4  -2   4    0.73    0.13
  -5   2  -4   13.92    0.74
  -6   2  -4    3.71    0.39
  -7   2  -4    5.09    0.44
  -8   2  -4    1.05    0.31
   8   1  -4    2.81    0.49
   7   1  -4    2.42    0.43
   6   1  -4    0.34    0.31
   4   1  -4   39.20    1.53
   4   1  -4   37.86    1.67
   4   1  -4   39.02    1.65
   3   1  -4   45.97    1.94
   3   1  -4   46.95    1.82
   2   1  -4   84.43    3.54
   2   1  -4   87.06    3.55
   2   1  -4   88.13    3.35
   1   1  -4   79.71    3.14
   1   1  -4   80.14    3.32
   1   1  -4   83.66    3.32
   0   1  -4    1.87    0.12
   0   1  -4    1.78    0.10
   0   1  -4    1.90    0.18
  -1   1  -4    1.72    0.12
  -1   1  -4    1.48    0.16
  -1   1  -4    1.93    0.13
  -2   1  -4   74.27    2.89
  -3   1  -4   65.25    2.73
  -3   1  -4   67.16    2.57
   3  -1   4   63.95    2.66
  -4   1  -4   41.96    1.67
   4  -1   4   41.80    1.71
  -5   1  -4   14.11    0.64
   5  -1   4   14.73    0.77
   6  -1   4    0.06    0.28
  -9   1  -4   -0.17    0.29
   8   0  -4    1.68    0.45
   7   0  -4    4.05    0.61
   6   0  -4   11.94    0.73
   5   0  -4   32.86    1.50
   5   0  -4   33.76    1.33
   5   0  -4   33.30    1.47
   4   0  -4   18.61    0.89
   4   0  -4   18.30    0.88
   4   0  -4   18.53    0.76
   3   0  -4    3.81    0.32
   3   0  -4    4.14    0.21
   2   0  -4    1.16    0.22
   2   0  -4    1.23    0.20
   2   0  -4    1.36    0.11
   1   0  -4  192.07    7.72
   1   0  -4  182.60    7.70
   1   0  -4  194.49    7.30
   0   0  -4   32.89    1.25
   0   0  -4   31.16    1.33
  -1   0  -4  114.92    4.21
  -1   0  -4  104.89    4.42
  -1   0  -4  106.37    4.43
  -2   0  -4    6.11    0.30
  -2   0  -4    7.21    0.33
   2   0   4    6.43    0.33
  -3   0  -4   98.40    3.78
   3   0   4   99.70    3.95
   3   0   4   93.89    4.00
  -4   0  -4   27.74    1.14
   4   0   4   30.05    1.16
   4   0   4   27.03    1.25
  -5   0  -4    2.66    0.27
   5   0   4    2.72    0.37
  -6   0  -4    5.60    0.36
   6   0   4    5.81    0.54
   7   0   4   13.43    0.75
   8   0   4   -0.04    0.36
   9   0   4    1.29    0.43
   7  -1  -4    3.71    0.53
   6  -1  -4    1.70    0.35
   5  -1  -4    0.96    0.30
   5  -1  -4    0.82    0.23
   4  -1  -4    9.26    0.42
   4  -1  -4    9.68    0.56
   4  -1  -4    9.68    0.61
   3  -1  -4   18.94    0.88
   3  -1  -4   19.96    0.78
   2  -1  -4   49.19    2.03
   2  -1  -4   49.96    1.89
   2  -1  -4   46.90    2.03
   1  -1  -4  133.79    4.98
   1  -1  -4  124.56    4.97
   1  -1  -4  107.79    4.70
   0  -1  -4   65.78    2.45
   0  -1  -4   60.91    2.59
  -1  -1  -4    9.39    0.41
  -1  -1  -4    9.36    0.42
  -2  -1  -4   79.64    3.15
  -2  -1  -4   78.46    3.01
   2   1   4   73.95    3.17
  -3  -1  -4   48.96    1.93
   3   1   4   49.33    2.05
  -4  -1  -4   18.46    0.78
   4   1   4   19.28    0.87
  -5  -1  -4   17.49    0.78
   5   1   4   19.35    0.91
  -6  -1  -4   12.13    0.57
   6   1   4   12.06    0.69
  -7  -1  -4    0.53    0.19
   7   1   4    0.43    0.33
   8   1   4    0.68    0.38
   9   1   4    1.26    0.43
  -7   2   4   -0.25    0.26
  -6   2   4    7.69    0.51
   5  -2  -4    8.48    0.55
   4  -2  -4   37.26    1.62
   3  -2  -4   56.43    2.37
   3  -2  -4   56.73    2.19
   2  -2  -4   25.05    1.12
   2  -2  -4   27.26    1.02
  -2   2   4   25.64    1.11
   1  -2  -4    8.15    0.42
   1  -2  -4    8.68    0.35
  -1   2   4    8.69    0.39
   0  -2  -4   30.52    1.32
   0  -2  -4   31.99    1.24
   0   2   4   32.25    1.30
  -1  -2  -4  159.04    6.38
  -1  -2  -4  167.06    6.72
   1   2   4  170.43    6.73
  -2  -2  -4   28.21    1.21
  -2  -2  -4   29.86    1.17
   2   2   4   30.30    1.22
  -3  -2  -4   24.87    1.01
  -3  -2  -4   25.06    1.04
   3   2   4   25.80    1.08
  -4  -2  -4   36.30    1.46
   4   2   4   37.47    1.57
  -5  -2  -4    3.97    0.29
   5   2   4    4.62    0.41
  -6  -2  -4   11.36    0.55
   6   2   4   11.72    0.66
  -7  -2  -4   11.20    0.54
   7   2   4   10.74    0.70
  -8  -2  -4    1.16    0.22
   8   2   4    1.25    0.40
   9   2   4    2.04    0.45
  10   2   4    0.24    0.46
  -7   3   4    0.47    0.30
  -6   3   4    2.49    0.37
   5  -3  -4    0.39    0.21
  -5   3   4    0.04    0.23
   4  -3  -4    0.10    0.18
  -4   3   4   -0.04    0.21
   3  -3  -4   11.87    0.62
  -3   3   4   11.89    0.60
   2  -3  -4   37.72    1.42
   2  -3  -4   34.90    1.55
  -2   3   4   36.84    1.54
   1  -3  -4   48.10    2.07
   1  -3  -4   49.81    1.92
  -1   3   4   51.10    2.05
   0  -3  -4   27.83    1.18
   0  -3  -4   26.98    1.09
   0   3   4   28.25    1.14
  -1  -3  -4   19.87    0.88
   1   3   4   21.24    0.86
  -2  -3  -4    0.16    0.07
  -2  -3  -4    0.02    0.07
   2   3   4    0.08    0.07
  -3  -3  -4   14.08    0.56
  -3  -3  -4   13.00    0.56
   3   3   4   12.85    0.59
  -4  -3  -4   29.65    1.19
   4   3   4   29.46    1.27
  -5  -3  -4   16.22    0.73
   5   3   4   17.59    0.81
  -6  -3  -4    8.68    0.46
   6   3   4    8.72    0.54
  -7  -3  -4    7.22    0.41
   7   3   4    6.42    0.57
  -8  -3  -4    0.43    0.21
   8   3   4   -0.16    0.33
  -9  -3  -4    0.67    0.22
   9   3   4    0.30    0.42
  10   3   4    1.63    0.50
  -7   4   4   -0.57    0.29
  -6   4   4   -0.33    0.27
   5  -4  -4    6.77    0.47
  -5   4   4    6.18    0.49
   4  -4  -4   22.00    1.00
  -4   4   4   21.72    1.01
   3  -4  -4    6.68    0.43
  -3   4   4    6.68    0.41
   2  -4  -4   17.33    0.81
  -2   4   4   17.90    0.79
   1  -4  -4    0.15    0.12
  -1   4   4    0.14    0.09
   0  -4  -4    4.55    0.31
   0   4   4    4.83    0.24
  -1  -4  -4   81.76    3.24
  -1  -4  -4   81.55    3.43
   1   4   4   87.76    3.43
  -2  -4  -4   28.42    1.25
  -2  -4  -4   29.49    1.17
   2   4   4   30.98    1.24
  -3  -4  -4  120.67    4.58
  -3  -4  -4  119.39    4.82
   3   4   4  115.49    4.85
  -4  -4  -4   18.31    0.77
  -4  -4  -4   18.77    0.77
   4   4   4   18.24    0.82
  -5  -4  -4    1.62    0.25
   5   4   4    1.97    0.30
  -6  -4  -4   -0.16    0.17
   6   4   4    0.58    0.26
  -7  -4  -4    1.21    0.21
   7   4   4    1.44    0.33
  -8  -4  -4   13.74    0.65
   8   4   4   13.80    0.81
  -9  -4  -4    0.65    0.23
   9   4   4   -0.50    0.40
 -10  -4  -4    1.10    0.25
  10   4   4    0.08    0.47
  -6   5   4    1.57    0.34
   5  -5  -4    1.41    0.24
  -5   5   4    0.73    0.28
   4  -5  -4    0.69    0.20
  -4   5   4   -0.16    0.24
   3  -5  -4    0.54    0.18
  -3   5   4    0.04    0.18
   2  -5  -4   33.61    1.43
  -2   5   4   32.69    1.42
   1  -5  -4   22.45    0.99
  -1   5   4   22.05    0.96
   0  -5  -4   53.64    2.06
   0  -5  -4   44.95    1.90
   0   5   4   48.50    2.02
  -1  -5  -4    6.54    0.29
  -1  -5  -4    5.87    0.37
   1   5   4    5.89    0.31
  -2  -5  -4    0.45    0.09
  -2  -5  -4    0.38    0.12
   2   5   4    0.39    0.10
  -3  -5  -4    0.90    0.13
  -3  -5  -4    0.91    0.12
   3   5   4    1.07    0.19
  -4  -5  -4    2.69    0.23
  -4  -5  -4    2.43    0.23
   4   5   4    3.22    0.26
  -5  -5  -4   10.55    0.52
   5   5   4   11.16    0.57
  -6  -5  -4   11.70    0.58
   6   5   4   12.17    0.65
  -7  -5  -4    5.49    0.38
   7   5   4    5.50    0.44
  -8  -5  -4    0.69    0.22
   8   5   4    0.54    0.35
  -9  -5  -4    0.25    0.23
   9   5   4   -0.13    0.39
 -10  -5  -4    0.38    0.24
  10   5   4   -0.64    0.45
   5  -6  -4    4.46    0.40
  -5   6   4    3.64    0.43
  -4   6   4    1.73    0.30
   3  -6  -4   16.37    0.77
  -3   6   4   15.21    0.77
   2  -6  -4    4.21    0.33
  -2   6   4    3.52    0.30
   1  -6  -4    0.30    0.16
  -1   6   4    0.26    0.13
   0  -6  -4    8.19    0.45
   0   6   4    7.72    0.39
  -1  -6  -4   15.30    0.61
  -1  -6  -4   14.45    0.70
   1   6   4   14.73    0.66
  -2  -6  -4   11.45    0.57
   2   6   4   11.57    0.53
  -3  -6  -4   40.81    1.57
  -3  -6  -4   37.66    1.67
   3   6   4   40.78    1.67
  -4  -6  -4   35.55    1.54
  -4  -6  -4   37.87    1.47
   4   6   4   36.50    1.56
  -5  -6  -4    4.94    0.35
   5   6   4    5.34    0.38
  -6  -6  -4   -0.10    0.18
   6   6   4    0.02    0.23
  -7  -6  -4    0.13    0.20
   7   6   4    0.49    0.25
  -8  -6  -4    1.99    0.31
   8   6   4    1.54    0.37
  -9  -6  -4    2.07    0.33
   9   6   4    1.78    0.43
 -10  -6  -4    1.61    0.28
  10   6   4    1.06    0.49
  -4   7   4    1.16    0.28
   3  -7  -4    0.78    0.23
  -3   7   4    0.22    0.22
   2  -7  -4    0.31    0.19
  -2   7   4    0.32    0.18
   1  -7  -4   20.19    0.93
  -1   7   4   20.03    0.90
   0  -7  -4   12.96    0.65
   0   7   4   12.67    0.59
  -1  -7  -4   19.58    0.90
   1   7   4   20.03    0.87
  -2  -7  -4    5.49    0.38
  -2  -7  -4    5.37    0.30
   2   7   4    5.30    0.34
  -3  -7  -4    1.03    0.18
  -3  -7  -4    1.04    0.15
   3   7   4    1.09    0.17
  -4  -7  -4    1.02    0.18
  -4  -7  -4    1.08    0.18
   4   7   4    1.19    0.21
  -5  -7  -4    7.41    0.43
   5   7   4    7.80    0.47
  -6  -7  -4    3.08    0.31
   6   7   4    2.85    0.35
  -7  -7  -4    4.12    0.36
   7   7   4    4.12    0.42
  -8  -7  -4    0.38    0.23
   8   7   4    0.11    0.33
  -9  -7  -4    0.30    0.24
   9   7   4   -0.36    0.37
  -4   8   4    1.01    0.29
   3  -8  -4    2.06    0.36
  -3   8   4    1.81    0.33
   2  -8  -4    6.16    0.44
  -2   8   4    6.23    0.42
   1  -8  -4    0.32    0.20
  -1   8   4    0.32    0.18
   0  -8  -4   10.51    0.56
   0   8   4   10.40    0.52
  -1  -8  -4    5.27    0.39
   1   8   4    5.20    0.32
  -2  -8  -4    0.26    0.18
   2   8   4    0.36    0.15
  -3  -8  -4   15.03    0.63
  -3  -8  -4   15.10    0.72
   3   8   4   13.92    0.69
  -4  -8  -4    4.20    0.30
  -4  -8  -4    3.46    0.33
   4   8   4    3.97    0.33
  -5  -8  -4    7.87    0.45
   5   8   4    8.32    0.49
  -6  -8  -4    3.77    0.34
   6   8   4    3.73    0.37
  -7  -8  -4   -0.01    0.22
   7   8   4    0.37    0.28
  -8  -8  -4    0.40    0.24
   8   8   4    0.09    0.32
  -9  -8  -4    2.12    0.35
   9   8   4    2.24    0.44
   3  -9  -4    0.79    0.28
  -3   9   4    0.71    0.27
   2  -9  -4    0.04    0.24
  -2   9   4    0.22    0.22
   1  -9  -4    5.85    0.45
  -1   9   4    6.29    0.40
   0  -9  -4    3.94    0.38
   0   9   4    3.92    0.30
  -1  -9  -4    3.40    0.35
   1   9   4    2.96    0.27
  -2  -9  -4    8.73    0.50
   2   9   4    8.05    0.45
  -3  -9  -4    3.58    0.34
   3   9   4    3.41    0.30
  -4  -9  -4    1.02    0.21
  -4  -9  -4    1.41    0.20
   4   9   4    1.51    0.27
  -5  -9  -4    0.12    0.19
   5   9   4    0.13    0.22
  -6  -9  -4   12.99    0.64
   6   9   4   12.72    0.69
  -7  -9  -4    2.02    0.33
   7   9   4    2.10    0.38
  -8  -9  -4    0.28    0.25
   8   9   4   -0.01    0.33
  -9  -9  -4    0.61    0.27
   9   9   4    0.29    0.40
   2 -10  -4    0.41    0.28
  -2  10   4    0.78    0.26
   1 -10  -4    5.62    0.47
  -1  10   4    5.77    0.41
   0 -10  -4   -0.09    0.23
   0  10   4    0.15    0.19
  -1 -10  -4    0.92    0.25
   1  10   4    0.87    0.20
  -2 -10  -4    0.56    0.23
   2  10   4    0.55    0.19
  -3 -10  -4    1.36    0.25
   3  10   4    0.94    0.21
  -4 -10  -4    2.49    0.30
  -4 -10  -4    2.30    0.34
   4  10   4    2.24    0.31
  -5 -10  -4    2.74    0.33
   5  10   4    2.55    0.35
  -6 -10  -4    0.30    0.23
   6  10   4    0.04    0.25
  -7 -10  -4    3.26    0.36
   7  10   4    2.63    0.40
  -8 -10  -4    0.92    0.28
   8  10   4    0.56    0.35
   0 -11  -4    0.52    0.28
   0  11   4    0.65    0.23
  -1 -11  -4    2.46    0.39
   1  11   4    2.36    0.29
  -2 -11  -4    1.98    0.29
   2  11   4    1.91    0.28
  -3 -11  -4    1.82    0.28
   3  11   4    1.57    0.29
   4  11   4    1.45    0.26
   5  11   4    0.70    0.23
  -6 -11  -4    0.49    0.24
   6  11   4    0.20    0.27
  -7 -11  -4    3.59    0.40
   7  11   4    2.90    0.43
  -2 -12  -4    0.32    0.27
   2  12   4    0.10    0.22
  -3 -12  -4    0.25    0.26
   3  12   4    0.96    0.24
   4  12   4    0.17    0.24
   5  12   4    0.81    0.28
   4  11  -5    0.12    0.22
   4  11  -5    0.20    0.24
  -4 -11   5    0.02    0.17
   3  11  -5    2.23    0.35
  -3 -11   5    2.06    0.28
   2  11  -5    0.03    0.24
  -2 -11   5   -0.01    0.16
   1  11  -5    1.24    0.28
  -1 -11   5    1.33    0.21
   5  10  -5    0.61    0.23
   5  10  -5    0.67    0.25
  -5 -10   5    0.42    0.18
   4  10  -5    2.93    0.34
   4  10  -5    2.68    0.33
  -4 -10   5    2.45    0.27
   3  10  -5    0.47    0.22
   3  10  -5    0.17    0.19
  -3 -10   5    0.33    0.16
   2  10  -5    1.24    0.24
  -2 -10   5    1.41    0.24
   1  10  -5    0.45    0.23
  -1 -10   5    0.47    0.16
   0  10  -5    1.05    0.26
   0 -10   5    1.51    0.24
  -1  10  -5   -0.23    0.22
   1 -10   5   -0.06    0.17
  -2  10  -5   -0.05    0.24
   2 -10   5    0.13    0.20
   6   9  -5    1.28    0.25
   6   9  -5    1.49    0.30
   5   9  -5    0.97    0.25
   5   9  -5    1.08    0.23
  -5  -9   5    0.84    0.18
   4   9  -5    3.40    0.32
   4   9  -5    3.42    0.34
  -4  -9   5    3.17    0.27
   3   9  -5    1.24    0.21
   3   9  -5    1.58    0.23
  -3  -9   5    1.24    0.22
   2   9  -5    2.67    0.28
   2   9  -5    2.75    0.30
  -2  -9   5    2.38    0.24
   1   9  -5    0.42    0.19
  -1  -9   5    0.41    0.15
   0   9  -5    1.01    0.23
   0  -9   5    1.47    0.22
  -1   9  -5    0.57    0.22
   1  -9   5    0.80    0.17
  -2   9  -5    1.51    0.28
   2  -9   5    2.26    0.27
  -3   9  -5    0.38    0.24
   3  -9   5    0.61    0.21
   7   8  -5    2.36    0.34
   7   8  -5    2.09    0.36
   6   8  -5    2.08    0.36
   6   8  -5    2.33    0.31
   5   8  -5    3.66    0.33
   5   8  -5    3.88    0.37
  -5  -8   5    4.06    0.30
   4   8  -5    0.36    0.19
   4   8  -5    0.21    0.17
  -4  -8   5    0.26    0.14
   3   8  -5    0.33    0.17
   3   8  -5    0.20    0.16
  -3  -8   5    0.17    0.13
   2   8  -5    6.87    0.40
   2   8  -5    6.88    0.39
  -2  -8   5    6.50    0.36
   1   8  -5    4.95    0.34
   1   8  -5    4.78    0.32
  -1  -8   5    4.40    0.29
   0   8  -5   10.86    0.57
   0  -8   5   10.38    0.51
  -1   8  -5   -0.32    0.17
   1  -8   5    0.06    0.13
  -2   8  -5    0.12    0.19
   2  -8   5    0.53    0.16
  -3   8  -5    0.77    0.25
   3  -8   5    0.83    0.19
   4  -8   5    0.89    0.21
   7   7  -5    1.06    0.33
   7   7  -5    0.92    0.24
   6   7  -5    1.28    0.22
   6   7  -5    1.38    0.29
   5   7  -5    1.76    0.25
   5   7  -5    1.71    0.26
  -5  -7   5    1.84    0.25
   4   7  -5   12.01    0.57
   4   7  -5   11.58    0.61
  -4  -7   5   12.43    0.57
   3   7  -5    7.39    0.39
   3   7  -5    6.80    0.41
  -3  -7   5    7.13    0.38
   2   7  -5    6.93    0.38
   2   7  -5    7.24    0.40
  -2  -7   5    6.93    0.37
   1   7  -5    2.14    0.24
   1   7  -5    2.06    0.22
  -1  -7   5    1.72    0.20
   0   7  -5    4.15    0.31
   0   7  -5    3.64    0.27
   0  -7   5    3.72    0.26
  -1   7  -5    3.89    0.30
   1  -7   5    4.26    0.27
  -2   7  -5    1.92    0.28
   2  -7   5    2.48    0.23
  -3   7  -5    4.29    0.37
   3  -7   5    4.14    0.30
  -4   7  -5    3.48    0.38
   4  -7   5    3.03    0.30
  -5   7  -5    2.08    0.33
   8   6  -5    0.92    0.26
   8   6  -5    0.82    0.44
   7   6  -5    8.41    0.61
   7   6  -5    8.53    0.49
   6   6  -5   13.69    0.65
   6   6  -5   13.21    0.72
   5   6  -5    0.37    0.16
   5   6  -5    0.34    0.21
  -5  -6   5    0.06    0.15
   4   6  -5   19.67    0.90
   4   6  -5   20.35    0.85
  -4  -6   5   19.17    0.87
   3   6  -5    1.92    0.22
   3   6  -5    1.62    0.25
  -3  -6   5    1.92    0.21
   2   6  -5    4.10    0.29
   2   6  -5    4.37    0.27
  -2  -6   5    3.96    0.27
   1   6  -5    6.68    0.37
   1   6  -5    6.69    0.35
  -1  -6   5    6.93    0.35
   0   6  -5   43.87    1.71
   0   6  -5   43.52    1.81
   0  -6   5   41.94    1.79
  -1   6  -5    9.88    0.53
  -1   6  -5   11.00    0.48
   1  -6   5   10.50    0.49
  -2   6  -5    0.12    0.16
   2  -6   5    0.37    0.12
  -3   6  -5   -0.12    0.17
   3  -6   5    0.03    0.12
  -4   6  -5    1.83    0.32
   4  -6   5    1.63    0.24
  -5   6  -5    0.90    0.29
  -6   6  -5    1.24    0.31
   8   5  -5    0.62    0.41
   8   5  -5    0.69    0.25
   7   5  -5    1.23    0.23
   7   5  -5    0.91    0.36
   6   5  -5    0.28    0.18
   6   5  -5    0.14    0.29
   5   5  -5    0.82    0.17
   5   5  -5    0.73    0.23
  -5  -5   5    0.61    0.17
   4   5  -5   15.86    0.76
   4   5  -5   16.04    0.70
  -4  -5   5   15.88    0.73
   3   5  -5   10.55    0.54
   3   5  -5   10.99    0.50
  -3  -5   5   11.00    0.52
   2   5  -5   26.28    1.05
   2   5  -5   24.90    1.10
  -2  -5   5   26.10    1.10
   1   5  -5    8.07    0.39
   1   5  -5    8.04    0.41
  -1  -5   5    8.51    0.40
   0   5  -5    0.11    0.10
   0   5  -5    0.16    0.10
   0  -5   5    0.06    0.09
  -1   5  -5   -0.23    0.11
  -1   5  -5   -0.02    0.10
   1  -5   5   -0.04    0.09
  -2   5  -5    2.14    0.26
  -2   5  -5    3.19    0.23
   2  -5   5    2.76    0.21
  -3   5  -5    6.61    0.44
   3  -5   5    7.07    0.36
  -4   5  -5   11.64    0.64
   4  -5   5   11.94    0.56
  -5   5  -5    0.45    0.27
  -6   5  -5    4.08    0.44
  -7   5  -5    0.48    0.30
   8   4  -5    0.88    0.25
   8   4  -5    0.72    0.43
   7   4  -5    2.31    0.41
   7   4  -5    2.68    0.32
   6   4  -5    5.00    0.36
   6   4  -5    5.01    0.49
   5   4  -5   44.67    1.83
   5   4  -5   44.98    1.96
   5   4  -5   47.55    1.94
   4   4  -5   11.52    0.60
   4   4  -5   11.33    0.53
   4   4  -5   12.48    0.60
   3   4  -5   10.02    0.46
   3   4  -5   10.45    0.52
   2   4  -5    1.35    0.16
   2   4  -5    1.23    0.18
  -2  -4   5    1.48    0.20
   1   4  -5   13.31    0.60
   1   4  -5   13.89    0.57
  -1  -4   5   13.30    0.60
   0   4  -5   73.04    2.85
   0   4  -5   75.38    3.01
   0  -4   5   70.82    2.99
  -1   4  -5   30.86    1.26
  -1   4  -5   32.76    1.34
   1  -4   5   30.97    1.32
  -2   4  -5    7.30    0.43
  -2   4  -5    8.17    0.38
   2  -4   5    8.45    0.39
  -3   4  -5   11.83    0.61
  -3   4  -5   11.69    0.52
   3  -4   5   11.47    0.53
  -4   4  -5    0.21    0.21
   4  -4   5    0.12    0.10
  -5   4  -5    8.79    0.58
  -6   4  -5    0.37    0.26
  -7   4  -5    4.90    0.47
   8   3  -5    4.86    0.65
   7   3  -5    4.30    0.36
   7   3  -5    4.85    0.56
   6   3  -5    7.91    0.44
   6   3  -5    8.48    0.59
   5   3  -5   17.16    0.85
   5   3  -5   16.69    0.73
   5   3  -5   17.19    0.82
   4   3  -5    1.88    0.21
   4   3  -5    2.00    0.30
   4   3  -5    1.86    0.25
   3   3  -5   24.94    1.02
   3   3  -5   25.54    1.11
   2   3  -5   32.42    1.39
   2   3  -5   34.21    1.39
   2   3  -5   32.23    1.31
   1   3  -5    1.08    0.14
   1   3  -5    1.02    0.14
   0   3  -5   62.52    2.55
   0   3  -5   61.80    2.42
   0  -3   5   61.89    2.55
  -1   3  -5    0.10    0.07
  -1   3  -5    0.16    0.08
   1  -3   5    0.09    0.07
  -2   3  -5    0.11    0.09
  -2   3  -5   -0.16    0.10
   2  -3   5   -0.02    0.07
  -3   3  -5   29.81    1.25
  -3   3  -5   27.15    1.14
   3  -3   5   27.57    1.17
  -4   3  -5    2.18    0.33
  -4   3  -5    1.39    0.20
   4  -3   5    1.26    0.15
  -5   3  -5   12.64    0.71
  -6   3  -5    0.46    0.28
  -7   3  -5    0.11    0.28
  -8   3  -5    0.36    0.31
   8   2  -5    0.72    0.45
   7   2  -5   -0.12    0.36
   6   2  -5   10.56    0.72
   6   2  -5   10.70    0.53
   5   2  -5    4.43    0.46
   5   2  -5    3.85    0.39
   5   2  -5    4.74    0.30
   4   2  -5   50.75    2.02
   4   2  -5   51.88    2.16
   3   2  -5   80.68    3.17
   3   2  -5   80.61    3.36
   3   2  -5   83.24    3.37
   2   2  -5    2.32    0.17
   2   2  -5    2.07    0.25
   2   2  -5    2.54    0.21
   1   2  -5    0.16    0.10
   1   2  -5    0.08    0.08
   1   2  -5    0.14    0.07
   0   2  -5   75.64    2.88
   0   2  -5   72.51    3.04
   0   2  -5   74.10    3.03
  -1   2  -5   84.31    3.25
  -1   2  -5   76.87    3.08
   1  -2   5   76.97    3.24
  -2   2  -5   55.53    2.15
   2  -2   5   54.02    2.24
  -3   2  -5   13.16    0.61
  -3   2  -5   11.30    0.54
  -4   2  -5   11.00    0.58
  -4   2  -5    9.63    0.49
   4  -2   5    9.32    0.44
  -5   2  -5    0.63    0.18
  -5   2  -5    0.89    0.27
  -6   2  -5    2.75    0.38
  -7   2  -5    3.15    0.40
  -8   2  -5    0.72    0.31
   8   1  -5    3.88    0.62
   7   1  -5    8.37    0.68
   6   1  -5    7.99    0.62
   5   1  -5    6.53    0.53
   5   1  -5    6.26    0.47
   4   1  -5   14.55    0.61
   4   1  -5   13.88    0.71
   3   1  -5   14.04    0.69
   3   1  -5   14.37    0.68
   3   1  -5   14.79    0.60
   2   1  -5   58.97    2.34
   2   1  -5   59.55    2.50
   2   1  -5   62.19    2.49
   1   1  -5   14.59    0.62
   1   1  -5   14.83    0.60
   1   1  -5   14.49    0.66
   0   1  -5   19.20    0.81
   0   1  -5   19.75    0.79
   0   1  -5   19.94    0.85
  -1   1  -5   14.60    0.60
  -1   1  -5   15.45    0.61
  -1   1  -5   13.54    0.64
  -2   1  -5   -0.09    0.07
   2  -1   5    0.16    0.07
  -3   1  -5    3.54    0.27
  -3   1  -5    3.06    0.27
   3  -1   5    3.07    0.18
  -4   1  -5    9.79    0.49
  -4   1  -5    9.80    0.53
   4  -1   5    9.08    0.42
  -5   1  -5    5.74    0.38
  -5   1  -5    5.92    0.44
  -6   1  -5    5.49    0.38
  -7   1  -5    1.53    0.30
  -8   1  -5    0.34    0.28
  -9   1  -5    0.14    0.29
   8   0  -5    1.49    0.47
   7   0  -5    0.11    0.36
   6   0  -5    4.21    0.45
   6   0  -5    4.62    0.52
   5   0  -5   12.20    0.73
   5   0  -5   13.62    0.72
   4   0  -5   21.26    0.85
   4   0  -5   20.42    0.98
   3   0  -5   64.43    2.68
   3   0  -5   63.89    2.68
   2   0  -5    8.07    0.35
   2   0  -5    7.58    0.42
   2   0  -5    8.09    0.43
   1   0  -5   73.50    3.08
   1   0  -5   75.22    2.91
   1   0  -5   76.47    3.07
   0   0  -5   37.46    1.42
   0   0  -5   34.90    1.51
  -1   0  -5   13.63    0.58
  -1   0  -5   12.68    0.60
  -1   0  -5   15.04    0.57
  -2   0  -5  109.22    4.32
  -2   0  -5   95.60    4.30
  -2   0  -5  111.89    4.11
  -3   0  -5  133.84    5.08
   3   0   5  128.91    5.36
   3   0   5  129.87    5.31
  -4   0  -5   10.46    0.49
   4   0   5   10.31    0.43
   4   0   5    9.10    0.54
  -5   0  -5    6.55    0.39
   5   0   5    5.91    0.45
  -6   0  -5    5.12    0.37
   6   0   5    5.44    0.52
   7   0   5    3.79    0.43
   8   0   5    2.88    0.50
   9   0   5    1.53    0.40
   7  -1  -5   10.02    0.73
   6  -1  -5    8.16    0.63
   6  -1  -5    8.48    0.64
   5  -1  -5   11.36    0.66
   5  -1  -5   10.47    0.65
   4  -1  -5   -0.11    0.20
   4  -1  -5    0.06    0.10
   3  -1  -5    0.29    0.17
   3  -1  -5    0.54    0.20
   3  -1  -5    0.44    0.09
   2  -1  -5   15.49    0.75
   2  -1  -5   16.44    0.65
   2  -1  -5   16.57    0.74
   1  -1  -5  163.44    6.45
   1  -1  -5  153.03    6.44
   0  -1  -5   91.62    3.44
   0  -1  -5   86.26    3.63
  -1  -1  -5   11.16    0.51
  -1  -1  -5   11.62    0.50
  -2  -1  -5   42.37    1.74
  -2  -1  -5   43.27    1.67
   2   1   5   40.97    1.74
  -3  -1  -5   98.28    3.77
  -3  -1  -5  100.14    3.94
   3   1   5   92.36    3.98
  -4  -1  -5    3.84    0.27
   4   1   5    3.34    0.34
   4   1   5    3.50    0.17
  -5  -1  -5    5.85    0.36
   5   1   5    6.03    0.48
  -6  -1  -5    5.10    0.37
   6   1   5    5.68    0.48
  -7  -1  -5    2.10    0.30
   7   1   5    2.51    0.39
   8   1   5    4.09    0.48
   9   1   5   -0.16    0.40
  -7   2   5   -0.39    0.28
   6  -2  -5    0.33    0.28
  -6   2   5   -0.15    0.25
  -5   2   5    0.54    0.24
   4  -2  -5   83.08    3.47
   3  -2  -5    6.93    0.45
  -3   2   5    6.00    0.40
   2  -2  -5   41.22    1.78
   2  -2  -5   42.29    1.64
  -2   2   5   42.51    1.75
   1  -2  -5    7.98    0.33
   1  -2  -5    7.58    0.42
  -1   2   5    7.92    0.36
   0  -2  -5    5.03    0.29
   0   2   5    5.27    0.23
  -1  -2  -5    0.34    0.08
   1   2   5    0.28    0.04
  -2  -2  -5   28.66    1.18
  -2  -2  -5   29.52    1.23
   2   2   5   30.56    1.23
  -3  -2  -5   37.41    1.53
  -3  -2  -5   36.44    1.48
   3   2   5   38.11    1.57
  -4  -2  -5  147.43    6.17
  -4  -2  -5  150.99    5.89
   4   2   5  158.81    6.25
  -5  -2  -5    8.39    0.43
   5   2   5    7.93    0.53
  -6  -2  -5    0.18    0.19
   6   2   5    0.03    0.29
  -7  -2  -5    0.62    0.21
   7   2   5    0.35    0.34
  -8  -2  -5    6.50    0.42
   8   2   5    6.54    0.60
   9   2   5    0.98    0.39
  10   2   5    0.17    0.46
   6  -3  -5   11.33    0.68
  -6   3   5    9.72    0.62
   5  -3  -5    8.48    0.56
  -5   3   5    7.94    0.54
   4  -3  -5    8.60    0.51
  -4   3   5    6.71    0.46
   3  -3  -5   -0.04    0.18
  -3   3   5   -0.02    0.18
   2  -3  -5    2.94    0.32
  -2   3   5    3.32    0.25
   1  -3  -5   34.35    1.32
   1  -3  -5   33.54    1.44
  -1   3   5   33.37    1.40
   0  -3  -5   67.51    2.87
   0  -3  -5   71.56    2.70
   0   3   5   69.62    2.84
  -1  -3  -5   59.33    2.63
  -1  -3  -5   71.01    2.77
   1   3   5   72.16    2.76
  -2  -3  -5   10.36    0.45
  -2  -3  -5   10.56    0.47
   2   3   5   10.00    0.45
  -3  -3  -5    4.65    0.25
  -3  -3  -5    4.26    0.23
   3   3   5    4.12    0.26
  -4  -3  -5   18.65    0.80
  -4  -3  -5   19.58    0.80
   4   3   5   19.21    0.86
  -5  -3  -5    0.13    0.16
   5   3   5    0.13    0.21
  -6  -3  -5   21.73    0.96
   6   3   5   23.17    1.08
  -7  -3  -5    0.26    0.21
   7   3   5    0.27    0.32
  -8  -3  -5    3.04    0.33
   8   3   5    2.41    0.43
  -9  -3  -5    0.22    0.24
   9   3   5    0.21    0.42
  10   3   5   -0.11    0.46
   6  -4  -5   -0.27    0.24
   5  -4  -5    1.75    0.27
  -5   4   5    1.11    0.30
   4  -4  -5    0.80    0.21
  -4   4   5    0.52    0.22
   3  -4  -5   15.50    0.75
  -3   4   5   14.91    0.72
   2  -4  -5   20.37    0.94
  -2   4   5   20.66    0.91
   1  -4  -5   30.22    1.32
   1  -4  -5   31.08    1.19
  -1   4   5   30.09    1.28
   0  -4  -5    0.76    0.11
   0  -4  -5    1.10    0.16
   0   4   5    1.26    0.12
  -1  -4  -5    9.12    0.47
   1   4   5    9.35    0.42
  -2  -4  -5   14.44    0.67
  -2  -4  -5   15.58    0.63
   2   4   5   15.45    0.66
  -3  -4  -5   32.54    1.25
  -3  -4  -5   31.67    1.31
   3   4   5   30.25    1.32
  -4  -4  -5   30.54    1.19
  -4  -4  -5   28.93    1.21
   4   4   5   28.78    1.25
  -5  -4  -5   14.98    0.67
   5   4   5   15.10    0.73
  -6  -4  -5   20.41    0.90
   6   4   5   21.39    1.00
  -7  -4  -5    0.48    0.21
   7   4   5    0.50    0.28
  -8  -4  -5    0.36    0.23
   8   4   5    0.06    0.36
  -9  -4  -5    1.96    0.33
   9   4   5    1.44    0.41
 -10  -4  -5    1.18    0.28
  10   4   5    1.37    0.46
   6  -5  -5    2.04    0.31
   5  -5  -5    5.03    0.43
  -5   5   5    4.75    0.44
   4  -5  -5   12.98    0.68
  -4   5   5   13.12    0.70
   3  -5  -5    7.18    0.45
  -3   5   5    6.32    0.44
   2  -5  -5    0.52    0.18
  -2   5   5    0.30    0.15
   1  -5  -5   20.06    0.92
  -1   5   5   19.91    0.87
   0  -5  -5   41.14    1.62
   0  -5  -5   41.80    1.75
   0   5   5   41.01    1.71
  -1  -5  -5   11.45    0.49
  -1  -5  -5   10.97    0.57
   1   5   5   11.10    0.50
  -2  -5  -5   54.27    2.15
  -2  -5  -5   53.83    2.29
   2   5   5   57.07    2.28
  -3  -5  -5    0.51    0.13
  -3  -5  -5    0.60    0.12
   3   5   5    0.59    0.13
  -4  -5  -5    7.32    0.35
  -4  -5  -5    7.05    0.37
   4   5   5    6.45    0.39
  -5  -5  -5   15.94    0.71
   5   5   5   15.75    0.75
  -6  -5  -5    1.37    0.23
   6   5   5    1.53    0.28
  -7  -5  -5   18.15    0.82
   7   5   5   18.20    0.91
  -8  -5  -5    0.26    0.23
   8   5   5    0.32    0.35
  -9  -5  -5    0.60    0.26
   9   5   5    0.28    0.40
 -10  -5  -5    0.45    0.27
  10   5   5   -0.28    0.41
   5  -6  -5    0.18    0.24
   4  -6  -5    2.05    0.34
  -4   6   5    0.58    0.27
   3  -6  -5    7.78    0.48
  -3   6   5    7.48    0.48
   2  -6  -5    2.97    0.34
  -2   6   5    3.37    0.30
   1  -6  -5    1.11    0.21
  -1   6   5    0.92    0.16
   0  -6  -5   39.10    1.67
   0   6   5   38.79    1.63
  -1  -6  -5    1.17    0.19
  -1  -6  -5    0.73    0.19
  -2  -6  -5    0.26    0.17
  -2  -6  -5    0.38    0.09
   2   6   5    0.64    0.13
  -3  -6  -5    0.67    0.14
  -3  -6  -5    0.45    0.16
   3   6   5    0.76    0.15
  -4  -6  -5   38.91    1.55
  -4  -6  -5   38.51    1.62
   4   6   5   38.56    1.64
  -5  -6  -5    7.52    0.42
   5   6   5    7.05    0.44
  -6  -6  -5    3.80    0.34
   6   6   5    3.91    0.38
  -7  -6  -5    3.11    0.34
   7   6   5    3.07    0.41
  -8  -6  -5    1.48    0.27
   8   6   5    1.44    0.36
  -9  -6  -5    1.10    0.27
   9   6   5    0.40    0.39
 -10  -6  -5    0.79    0.28
  10   6   5    0.15    0.46
   4  -7  -5    5.07    0.45
   3  -7  -5    5.75    0.43
  -3   7   5    5.14    0.41
   2  -7  -5    5.89    0.43
  -2   7   5    5.54    0.38
   1  -7  -5    0.12    0.19
  -1   7   5    0.06    0.14
   0  -7  -5   14.47    0.72
   0   7   5   14.46    0.67
  -1  -7  -5   15.41    0.74
   1   7   5   14.23    0.67
  -2  -7  -5   14.76    0.73
  -2  -7  -5   14.70    0.62
   2   7   5   14.52    0.68
  -3  -7  -5    9.89    0.47
  -3  -7  -5    9.82    0.55
   3   7   5   10.09    0.51
  -4  -7  -5    1.50    0.25
  -4  -7  -5    1.31    0.21
   4   7   5    1.60    0.28
  -5  -7  -5   -0.11    0.18
   5   7   5   -0.10    0.20
  -6  -7  -5    3.07    0.33
   6   7   5    3.05    0.35
  -7  -7  -5    4.17    0.38
   7   7   5    4.50    0.43
  -8  -7  -5    2.72    0.36
   8   7   5    2.95    0.45
  -9  -7  -5    0.42    0.27
   9   7   5    0.02    0.39
   3  -8  -5    0.62    0.26
   2  -8  -5    2.45    0.36
  -2   8   5    2.56    0.31
   1  -8  -5    4.04    0.39
  -1   8   5    4.44    0.34
   0  -8  -5    2.29    0.33
   0   8   5    2.37    0.24
  -1  -8  -5    2.89    0.36
   1   8   5    2.74    0.25
  -2  -8  -5    0.05    0.20
   2   8   5    0.18    0.15
  -3  -8  -5    0.25    0.21
   3   8   5    0.34    0.17
  -4  -8  -5    1.99    0.33
  -4  -8  -5    2.48    0.28
   4   8   5    2.69    0.32
  -5  -8  -5    8.65    0.46
   5   8   5    7.76    0.49
  -6  -8  -5    0.68    0.23
   6   8   5    0.77    0.25
  -7  -8  -5    6.89    0.46
   7   8   5    7.08    0.51
  -8  -8  -5    0.53    0.26
   8   8   5    0.10    0.32
  -9  -8  -5    0.17    0.27
   9   8   5   -0.22    0.34
   3  -9  -5    1.85    0.32
   2  -9  -5    2.09    0.38
  -2   9   5    2.47    0.32
   1  -9  -5    0.02    0.24
  -1   9   5    0.05    0.19
   0  -9  -5    0.27    0.24
   0   9   5    0.18    0.17
  -1  -9  -5    0.23    0.23
   1   9   5    0.39    0.18
  -2  -9  -5   17.93    0.86
   2   9   5   16.91    0.81
  -3  -9  -5    3.39    0.40
   3   9   5    3.42    0.30
  -4  -9  -5    5.43    0.36
  -4  -9  -5    4.87    0.43
   4   9   5    5.12    0.40
  -5  -9  -5    1.24    0.22
   5   9   5    1.05    0.25
  -6  -9  -5    1.14    0.25
   6   9   5    0.66    0.27
  -7  -9  -5    2.77    0.36
   7   9   5    2.69    0.40
  -8  -9  -5    0.15    0.26
   8   9   5    0.36    0.34
  -9  -9  -5    0.79    0.29
   9   9   5    0.43    0.40
   1 -10  -5    0.35    0.28
  -1  10   5    0.52    0.22
   0 -10  -5    2.21    0.32
   0  10   5    2.37    0.29
  -1 -10  -5    3.62    0.42
   1  10   5    3.98    0.33
  -2 -10  -5    0.34    0.26
   2  10   5    0.40    0.19
  -3 -10  -5    0.19    0.24
   3  10   5    0.32    0.20
  -4 -10  -5    0.21    0.24
   4  10   5    0.36    0.21
  -5 -10  -5    0.52    0.22
   5  10   5    0.19    0.24
  -6 -10  -5    1.64    0.28
   6  10   5    1.97    0.31
  -7 -10  -5    1.19    0.28
   7  10   5    1.51    0.33
  -8 -10  -5    1.90    0.32
   8  10   5    1.78    0.39
   0 -11  -5    0.11    0.29
  -1 -11  -5    0.23    0.29
   1  11   5    0.46    0.21
  -2 -11  -5   -0.07    0.27
   2  11   5    0.29    0.21
  -3 -11  -5    3.03    0.43
   3  11   5    2.39    0.32
   4  11   5    4.69    0.39
   5  11   5    0.41    0.27
  -6 -11  -5    0.22    0.26
   6  11   5    0.37    0.28
  -7 -11  -5    0.36    0.28
   7  11   5   -0.12    0.33
  -3 -12  -5    0.04    0.29
   3  12   5    0.50    0.24
   4  12   5    0.15    0.25
   5  12   5    0.32    0.27
   5  10  -6    1.51    0.27
   5  10  -6    1.67    0.30
  -5 -10   6    1.16    0.21
   4  10  -6    0.40    0.22
   4  10  -6    0.22    0.23
  -4 -10   6    0.30    0.17
   3  10  -6    0.75    0.24
   3  10  -6    0.34    0.21
  -3 -10   6    0.38    0.17
   2  10  -6    0.88    0.25
  -2 -10   6    0.71    0.18
   1  10  -6    0.11    0.23
  -1 -10   6    0.06    0.16
   0  10  -6    1.35    0.28
   0 -10   6    2.05    0.26
  -1  10  -6    0.39    0.26
   6   9  -6    0.32    0.22
   6   9  -6    0.28    0.27
   5   9  -6    0.14    0.21
   5   9  -6    0.49    0.24
  -5  -9   6    0.23    0.17
   4   9  -6    1.25    0.23
   4   9  -6    1.35    0.25
  -4  -9   6    1.42    0.25
   3   9  -6    0.60    0.21
   3   9  -6    0.35    0.19
  -3  -9   6    0.46    0.16
   2   9  -6    3.88    0.34
   2   9  -6    3.41    0.32
  -2  -9   6    3.43    0.28
   1   9  -6    1.49    0.25
  -1  -9   6    1.49    0.22
   0   9  -6   -0.17    0.20
   0  -9   6    0.01    0.15
   1  -9   6   -0.09    0.15
  -2   9  -6   -0.18    0.20
   2  -9   6    0.10    0.17
  -3   9  -6    0.63    0.26
   3  -9   6    0.48    0.20
   6   8  -6    1.38    0.25
   6   8  -6    1.15    0.29
   5   8  -6    3.28    0.40
   5   8  -6    3.73    0.33
  -5  -8   6    3.98    0.31
   4   8  -6    4.55    0.38
   4   8  -6    4.91    0.35
  -4  -8   6    4.84    0.32
   3   8  -6    0.33    0.17
   3   8  -6    0.36    0.18
  -3  -8   6    0.26    0.14
   2   8  -6    0.51    0.18
   2   8  -6    0.45    0.17
  -2  -8   6    0.43    0.14
   1   8  -6    4.59    0.32
   1   8  -6    5.33    0.36
  -1  -8   6    4.11    0.29
   0   8  -6   10.93    0.59
   0  -8   6   11.08    0.53
  -1   8  -6   -0.33    0.18
   1  -8   6    0.25    0.14
  -2   8  -6    4.55    0.40
   2  -8   6    5.74    0.34
  -3   8  -6    0.30    0.21
   3  -8   6    0.28    0.17
  -4   8  -6    0.49    0.25
   4  -8   6   -0.02    0.19
   7   7  -6    0.48    0.34
   7   7  -6    0.47    0.23
   6   7  -6    3.03    0.40
   6   7  -6    2.98    0.32
   5   7  -6   -0.07    0.17
   5   7  -6    0.10    0.24
  -5  -7   6   -0.16    0.15
   4   7  -6    5.35    0.35
   4   7  -6    5.35    0.38
  -4  -7   6    5.17    0.34
   3   7  -6    4.13    0.32
   3   7  -6    3.97    0.30
  -3  -7   6    4.20    0.29
   2   7  -6    4.09    0.30
   2   7  -6    4.31    0.29
  -2  -7   6    3.92    0.28
   1   7  -6    9.23    0.47
   1   7  -6    8.31    0.43
  -1  -7   6    8.15    0.43
   0   7  -6    1.02    0.19
   0   7  -6    0.70    0.16
   0  -7   6    0.84    0.14
  -1   7  -6   12.60    0.65
   1  -7   6   13.75    0.61
  -2   7  -6    0.77    0.20
   2  -7   6    1.18    0.21
  -3   7  -6    0.55    0.21
   3  -7   6    0.68    0.16
   4  -7   6    1.18    0.19
  -5   7  -6    3.33    0.42
   7   6  -6    3.15    0.35
   7   6  -6    3.57    0.50
   6   6  -6    0.14    0.27
   6   6  -6    0.17    0.19
   5   6  -6   10.91    0.60
   5   6  -6    9.92    0.51
  -5  -6   6   10.26    0.54
   4   6  -6    5.73    0.39
   4   6  -6    5.09    0.33
  -4  -6   6    5.34    0.35
   3   6  -6    9.35    0.50
   3   6  -6    9.07    0.45
  -3  -6   6    8.99    0.47
   2   6  -6    2.39    0.25
   2   6  -6    2.46    0.23
  -2  -6   6    2.42    0.23
   1   6  -6   -0.07    0.13
   1   6  -6    0.01    0.12
  -1  -6   6   -0.04    0.11
   0   6  -6    7.26    0.39
   0   6  -6    8.26    0.42
   0  -6   6    7.16    0.39
  -1   6  -6   28.03    1.11
  -1   6  -6   25.77    1.19
   1  -6   6   27.23    1.15
  -2   6  -6    2.34    0.28
   2  -6   6    3.26    0.24
  -3   6  -6    1.12    0.22
   3  -6   6    1.31    0.20
  -4   6  -6    0.83    0.24
   4  -6   6    0.56    0.15
  -6   6  -6    2.31    0.40
   8   5  -6    0.40    0.26
   7   5  -6    8.91    0.69
   7   5  -6    8.75    0.51
   6   5  -6    2.03    0.34
   6   5  -6    1.90    0.28
   5   5  -6    1.60    0.25
   5   5  -6    1.77    0.27
  -5  -5   6    1.55    0.22
   4   5  -6    0.97    0.16
   4   5  -6    1.05    0.21
  -4  -5   6    0.78    0.18
   3   5  -6    2.57    0.28
   3   5  -6    2.82    0.23
  -3  -5   6    2.84    0.28
   2   5  -6   26.68    1.17
   2   5  -6   27.37    1.11
  -2  -5   6   27.76    1.17
   1   5  -6   12.80    0.59
   1   5  -6   12.57    0.57
  -1  -5   6   13.15    0.59
   0   5  -6    9.26    0.43
   0   5  -6    8.05    0.40
   0  -5   6    8.03    0.42
  -1   5  -6    4.58    0.31
  -1   5  -6    4.59    0.29
   1  -5   6    5.05    0.28
  -2   5  -6    1.96    0.22
   2  -5   6    1.92    0.20
  -3   5  -6    2.58    0.29
   3  -5   6    2.82    0.23
  -4   5  -6    0.47    0.21
  -5   5  -6    4.53    0.40
  -6   5  -6    2.49    0.41
  -7   5  -6    0.36    0.30
   7   4  -6    1.01    0.38
   7   4  -6    1.43    0.24
   6   4  -6    1.90    0.28
   6   4  -6    1.71    0.34
   5   4  -6    3.99    0.34
   5   4  -6    3.32    0.39
   5   4  -6    3.02    0.28
   4   4  -6   17.81    0.80
   4   4  -6   17.25    0.80
   4   4  -6   15.67    0.72
   3   4  -6   28.14    1.21
   3   4  -6   27.43    1.13
   2   4  -6   13.90    0.66
   2   4  -6   15.14    0.63
  -2  -4   6   15.19    0.68
   1   4  -6    0.16    0.09
   1   4  -6    0.17    0.10
  -1  -4   6    0.35    0.12
   0   4  -6    3.72    0.23
   0  -4   6    3.50    0.25
  -1   4  -6    8.98    0.43
  -1   4  -6    8.32    0.40
   1  -4   6    8.43    0.42
  -2   4  -6   12.87    0.66
  -2   4  -6   14.91    0.62
   2  -4   6   14.89    0.63
  -3   4  -6   24.97    1.13
  -3   4  -6   24.46    1.02
   3  -4   6   25.07    1.05
  -4   4  -6    2.56    0.33
   4  -4   6    2.07    0.20
  -5   4  -6    1.47    0.30
  -6   4  -6    0.30    0.28
  -7   4  -6    0.58    0.32
   7   3  -6    7.09    0.65
   7   3  -6    7.31    0.46
   6   3  -6    9.72    0.65
   6   3  -6    9.89    0.51
   5   3  -6    4.95    0.42
   5   3  -6    5.25    0.45
   5   3  -6    5.54    0.34
   4   3  -6    0.14    0.17
   4   3  -6    0.15    0.13
   4   3  -6    0.12    0.13
   3   3  -6   12.39    0.59
   3   3  -6   12.46    0.62
   3   3  -6   11.55    0.53
   2   3  -6    1.45    0.26
   2   3  -6    1.58    0.17
   2   3  -6    1.59    0.22
   1   3  -6   48.95    1.97
   1   3  -6   47.22    1.99
   1   3  -6   46.82    1.87
   0   3  -6   15.84    0.65
   0   3  -6   15.82    0.67
   0  -3   6   15.16    0.69
  -1   3  -6   84.95    3.24
  -1   3  -6   76.06    3.07
   1  -3   6   75.67    3.23
  -2   3  -6    1.02    0.18
  -2   3  -6    0.83    0.13
   2  -3   6    1.10    0.16
  -3   3  -6    5.42    0.33
  -3   3  -6    5.96    0.37
   3  -3   6    5.97    0.31
  -4   3  -6   14.16    0.69
  -4   3  -6   17.42    0.81
  -5   3  -6    0.18    0.24
  -6   3  -6    2.69    0.40
  -7   3  -6    0.80    0.30
  -8   3  -6    0.59    0.33
   6   2  -6    0.14    0.32
   6   2  -6    0.08    0.22
   6   2  -6    0.24    0.18
   5   2  -6   -0.05    0.17
   5   2  -6    0.09    0.19
   5   2  -6    0.20    0.15
   4   2  -6   17.05    0.73
   4   2  -6   17.20    0.84
   4   2  -6   18.06    0.84
   3   2  -6   51.84    2.05
   3   2  -6   51.84    2.20
   3   2  -6   52.94    2.19
   2   2  -6   16.79    0.71
   2   2  -6   17.60    0.76
   2   2  -6   17.53    0.80
   1   2  -6   46.30    1.93
   1   2  -6   47.42    1.90
   1   2  -6   44.45    1.80
   0   2  -6    0.19    0.08
   0   2  -6    0.12    0.10
   0   2  -6    0.23    0.07
  -1   2  -6   25.09    1.05
  -1   2  -6   28.85    1.10
   1  -2   6   24.52    1.10
  -2   2  -6    8.64    0.47
  -2   2  -6   10.56    0.47
   2  -2   6   11.17    0.47
  -3   2  -6    6.79    0.38
  -3   2  -6    6.00    0.34
  -4   2  -6   44.92    1.81
  -4   2  -6   47.38    1.95
   4  -2   6   42.46    1.84
  -5   2  -6    3.90    0.33
  -5   2  -6    4.95    0.43
  -6   2  -6    0.00    0.27
  -7   2  -6   -0.12    0.28
  -8   2  -6    0.78    0.32
   6   1  -6    4.60    0.49
   6   1  -6    4.92    0.58
   5   1  -6   25.65    1.13
   5   1  -6   22.69    0.99
   4   1  -6    0.45    0.25
   4   1  -6    0.20    0.12
   4   1  -6   -0.11    0.18
   3   1  -6    5.47    0.41
   3   1  -6    5.39    0.40
   3   1  -6    5.60    0.29
   2   1  -6   14.14    0.68
   2   1  -6   14.83    0.65
   2   1  -6   13.76    0.59
   1   1  -6   46.60    1.85
   1   1  -6   44.14    1.88
   1   1  -6   44.20    1.76
   0   1  -6   41.91    1.72
   0   1  -6   41.69    1.65
   0   1  -6   42.24    1.75
  -1   1  -6   58.75    2.26
  -1   1  -6   53.51    2.38
  -1   1  -6   60.95    2.36
  -2   1  -6   28.05    1.26
  -2   1  -6   32.21    1.23
  -3   1  -6    9.67    0.49
  -3   1  -6   10.67    0.50
   3  -1   6    9.31    0.44
  -4   1  -6    3.06    0.30
  -4   1  -6    3.86    0.37
   4  -1   6    2.69    0.18
  -5   1  -6    1.34    0.22
  -5   1  -6    1.23    0.26
  -6   1  -6    3.33    0.37
  -6   1  -6    2.99    0.32
  -7   1  -6    2.37    0.36
  -8   1  -6    0.28    0.29
  -9   1  -6    0.49    0.32
   6   0  -6    6.48    0.57
   5   0  -6    0.75    0.25
   5   0  -6    0.25    0.20
   4   0  -6    5.37    0.29
   4   0  -6    4.43    0.45
   4   0  -6    4.91    0.45
   3   0  -6   37.35    1.58
   3   0  -6   33.55    1.44
   3   0  -6   38.59    1.58
   2   0  -6   51.89    2.20
   2   0  -6   53.57    2.19
   2   0  -6   52.14    2.05
   1   0  -6   16.73    0.68
   1   0  -6   17.24    0.72
   1   0  -6   16.16    0.75
   0   0  -6   20.94    0.92
   0   0  -6   21.61    0.86
  -1   0  -6   13.44    0.56
  -1   0  -6   13.46    0.61
  -1   0  -6   14.04    0.58
  -2   0  -6   35.13    1.54
  -2   0  -6   36.25    1.54
  -2   0  -6   39.78    1.50
  -3   0  -6   10.90    0.52
  -3   0  -6   10.87    0.52
   3   0   6   10.14    0.47
  -4   0  -6   56.56    2.27
   4   0   6   58.71    2.33
   4   0   6   56.20    2.40
  -5   0  -6    4.35    0.36
   5   0   6    3.71    0.43
  -6   0  -6    2.76    0.32
   6   0   6    2.64    0.44
  -7   0  -6    0.23    0.21
   7   0   6    1.08    0.35
   8   0   6    1.90    0.42
   6  -1  -6   11.29    0.74
   4  -1  -6    1.71    0.27
   4  -1  -6    1.53    0.29
   3  -1  -6   19.31    0.94
   3  -1  -6   19.85    0.79
   3  -1  -6   19.24    0.92
   2  -1  -6    0.12    0.07
   2  -1  -6    0.16    0.15
   2  -1  -6   -0.07    0.14
   1  -1  -6   47.78    2.03
   1  -1  -6   49.29    1.89
   0  -1  -6   15.24    0.61
   0  -1  -6   14.39    0.67
  -1  -1  -6  171.17    6.38
  -1  -1  -6  158.57    6.70
  -2  -1  -6   53.85    2.05
  -2  -1  -6   49.63    2.13
  -3  -1  -6    0.31    0.13
   3   1   6    0.26    0.14
  -4  -1  -6   10.20    0.49
   4   1   6   10.11    0.43
   4   1   6    8.92    0.55
  -5  -1  -6    2.70    0.29
   5   1   6    2.19    0.40
  -6  -1  -6    4.90    0.38
   6   1   6    5.29    0.52
  -7  -1  -6    3.04    0.35
   7   1   6    3.02    0.48
  -8  -1  -6    2.74    0.37
   8   1   6    3.71    0.47
   9   1   6    1.09    0.43
   6  -2  -6    4.57    0.55
   5  -2  -6    0.04    0.25
   4  -2  -6   -0.24    0.21
  -4   2   6   -0.34    0.20
   3  -2  -6   12.41    0.67
  -3   2   6   11.57    0.59
   2  -2  -6   60.04    2.57
   2  -2  -6   60.71    2.39
  -2   2   6   63.64    2.54
   1  -2  -6   14.16    0.68
   1  -2  -6   14.45    0.59
  -1   2   6   14.46    0.61
   0  -2  -6   93.28    3.51
   0  -2  -6   87.51    3.71
   0   2   6   90.79    3.68
  -1  -2  -6    0.70    0.11
  -1  -2  -6    0.21    0.11
  -2  -2  -6    3.91    0.24
  -2  -2  -6    3.87    0.26
   2   2   6    3.80    0.24
  -3  -2  -6    0.66    0.13
  -3  -2  -6    0.44    0.09
   3   2   6    0.46    0.14
  -4  -2  -6   65.41    2.62
  -4  -2  -6   63.30    2.52
   4   2   6   63.94    2.68
  -5  -2  -6   19.16    0.86
   5   2   6   20.86    0.98
  -6  -2  -6    3.30    0.34
   6   2   6    3.76    0.48
  -7  -2  -6    1.61    0.25
   7   2   6    1.78    0.37
  -8  -2  -6    0.12    0.24
   8   2   6    0.12    0.38
   9   2   6    0.11    0.42
  10   2   6    0.53    0.47
   6  -3  -6   -0.13    0.28
   5  -3  -6    9.92    0.62
   4  -3  -6    9.85    0.59
   3  -3  -6   13.38    0.71
  -3   3   6   13.70    0.66
   2  -3  -6    0.85    0.20
  -2   3   6    0.77    0.14
   1  -3  -6    8.00    0.34
   1  -3  -6    7.93    0.47
  -1   3   6    7.73    0.37
   0  -3  -6   62.12    2.65
   0  -3  -6   67.09    2.50
   0   3   6   62.98    2.62
  -1  -3  -6   38.83    1.54
  -1  -3  -6   32.25    1.46
   1   3   6   38.97    1.51
  -2  -3  -6   21.95    0.92
  -2  -3  -6   21.28    0.89
   2   3   6   21.63    0.91
  -3  -3  -6   83.46    3.41
  -3  -3  -6   82.62    3.26
   3   3   6   85.01    3.44
  -4  -3  -6    2.25    0.24
  -4  -3  -6    1.94    0.18
   4   3   6    1.58    0.29
  -5  -3  -6    3.53    0.31
   5   3   6    3.11    0.38
  -6  -3  -6    0.67    0.21
   6   3   6    0.91    0.31
  -7  -3  -6    0.12    0.21
   7   3   6    0.06    0.33
  -8  -3  -6    5.75    0.42
   8   3   6    5.46    0.57
  -9  -3  -6    0.53    0.26
   9   3   6    1.03    0.45
  10   3   6    0.35    0.47
   6  -4  -6   -0.12    0.27
   5  -4  -6    2.21    0.38
   4  -4  -6    0.72    0.24
   3  -4  -6    9.17    0.55
   2  -4  -6    1.91    0.25
  -2   4   6    1.78    0.23
   1  -4  -6   40.04    1.70
  -1   4   6   39.14    1.65
   0  -4  -6   52.28    1.93
   0  -4  -6   48.46    2.07
   0   4   6   47.03    2.03
  -1  -4  -6   32.30    1.40
   1   4   6   33.54    1.37
  -2  -4  -6    8.53    0.42
  -2  -4  -6    8.13    0.38
   2   4   6    7.25    0.37
  -3  -4  -6   11.16    0.48
  -3  -4  -6   10.62    0.49
   3   4   6    9.80    0.48
  -4  -4  -6    1.91    0.18
  -4  -4  -6    2.08    0.24
   4   4   6    1.78    0.24
  -5  -4  -6   13.09    0.60
   5   4   6   12.31    0.65
  -6  -4  -6    8.07    0.48
   6   4   6    8.77    0.56
  -7  -4  -6    1.30    0.25
   7   4   6    1.22    0.33
  -8  -4  -6    3.58    0.39
   8   4   6    2.61    0.44
  -9  -4  -6    0.16    0.26
   9   4   6    0.14    0.42
 -10  -4  -6   -0.30    0.27
  10   4   6   -0.67    0.46
   5  -5  -6    2.43    0.39
   4  -5  -6    5.92    0.45
   3  -5  -6    6.71    0.47
   2  -5  -6   24.88    1.14
  -2   5   6   25.87    1.11
   1  -5  -6    2.92    0.36
  -1   5   6    2.98    0.23
   0  -5  -6    5.17    0.39
   0  -5  -6    4.62    0.27
   0   5   6    4.84    0.27
  -1  -5  -6    8.26    0.47
  -1  -5  -6    6.51    0.38
   1   5   6    8.53    0.38
  -2  -5  -6   16.44    0.65
  -2  -5  -6   15.19    0.72
   2   5   6   14.59    0.68
  -3  -5  -6   37.35    1.48
  -3  -5  -6   39.37    1.57
   3   5   6   35.36    1.56
  -4  -5  -6    2.99    0.27
  -4  -5  -6    3.32    0.24
   4   5   6    2.77    0.28
  -5  -5  -6   34.90    1.37
   5   5   6   32.13    1.44
  -6  -5  -6   -0.05    0.20
   6   5   6    0.06    0.25
  -7  -5  -6    6.33    0.44
   7   5   6    6.00    0.49
  -8  -5  -6    0.15    0.25
   8   5   6   -0.12    0.35
  -9  -5  -6    0.95    0.28
   9   5   6    0.08    0.41
 -10  -5  -6    0.37    0.29
  10   5   6    0.44    0.47
   5  -6  -6    0.77    0.27
   4  -6  -6    0.78    0.25
   3  -6  -6    0.45    0.23
   2  -6  -6    2.75    0.35
   1  -6  -6    6.20    0.44
  -1   6   6    6.09    0.35
   0  -6  -6   19.68    0.91
   0   6   6   18.90    0.84
  -1  -6  -6   27.91    1.12
  -1  -6  -6   27.85    1.23
   1   6   6   27.41    1.18
  -2  -6  -6   18.86    0.89
   2   6   6   19.55    0.84
  -3  -6  -6    4.41    0.27
  -3  -6  -6    3.68    0.35
   3   6   6    3.94    0.28
  -4  -6  -6   11.71    0.53
  -4  -6  -6   12.00    0.55
   4   6   6   10.24    0.55
  -5  -6  -6    3.07    0.32
   5   6   6    2.70    0.35
  -6  -6  -6    3.52    0.33
   6   6   6    3.79    0.37
  -7  -6  -6    1.28    0.27
   7   6   6    1.49    0.31
  -8  -6  -6    2.35    0.37
   8   6   6    1.95    0.38
  -9  -6  -6    0.06    0.28
   9   6   6   -0.12    0.39
 -10  -6  -6   -0.03    0.29
  10   6   6    0.06    0.47
   4  -7  -6    2.54    0.40
   3  -7  -6    9.14    0.56
   2  -7  -6    1.88    0.34
   1  -7  -6   13.77    0.70
   0  -7  -6    3.93    0.38
   0   7   6    3.96    0.28
  -1  -7  -6    0.16    0.22
   1   7   6    0.30    0.13
  -2  -7  -6   10.89    0.48
  -2  -7  -6   10.17    0.60
   2   7   6    9.73    0.50
  -3  -7  -6   12.06    0.64
  -3  -7  -6   12.36    0.56
   3   7   6   12.39    0.60
  -4  -7  -6    2.81    0.28
  -4  -7  -6    2.54    0.32
   4   7   6    3.14    0.33
  -5  -7  -6    9.75    0.50
   5   7   6    8.78    0.51
  -6  -7  -6    0.51    0.23
   6   7   6    0.85    0.25
  -7  -7  -6    0.61    0.26
   7   7   6    0.66    0.28
  -8  -7  -6    0.73    0.29
   8   7   6    1.18    0.36
  -9  -7  -6    0.80    0.30
   9   7   6    0.68    0.41
   3  -8  -6    0.82    0.27
   2  -8  -6    0.05    0.24
   1  -8  -6    3.03    0.38
   0  -8  -6    3.39    0.39
  -1  -8  -6   22.47    1.02
   1   8   6   20.96    0.96
  -2  -8  -6    1.05    0.25
   2   8   6    1.06    0.18
  -3  -8  -6    9.91    0.60
   3   8   6   10.97    0.55
  -4  -8  -6    0.22    0.17
  -4  -8  -6    0.14    0.21
   4   8   6    0.27    0.20
  -5  -8  -6    0.59    0.21
   5   8   6    0.51    0.22
  -6  -8  -6    1.39    0.26
   6   8   6    1.15    0.27
  -7  -8  -6    6.48    0.47
   7   8   6    6.49    0.50
  -8  -8  -6    0.37    0.28
   8   8   6    0.04    0.33
  -9  -8  -6    0.36    0.30
   9   8   6   -0.03    0.39
   2  -9  -6    1.57    0.31
   1  -9  -6    2.34    0.38
   0  -9  -6    1.01    0.28
  -1  -9  -6    0.08    0.24
  -2  -9  -6   -0.01    0.25
   2   9   6    0.07    0.16
  -3  -9  -6    3.41    0.42
   3   9   6    3.61    0.32
  -4  -9  -6    9.89    0.50
   4   9   6    9.15    0.53
  -5  -9  -6    1.11    0.24
   5   9   6    1.43    0.26
  -6  -9  -6    0.52    0.26
   6   9   6    0.64    0.26
  -7  -9  -6    0.22    0.27
   7   9   6    0.07    0.28
  -8  -9  -6    0.07    0.29
   8   9   6   -0.27    0.33
  -9  -9  -6    0.40    0.31
   9   9   6    0.00    0.40
   1 -10  -6    1.22    0.31
   0 -10  -6    3.33    0.44
  -1 -10  -6    2.87    0.43
  -2 -10  -6    5.25    0.49
  -3 -10  -6    0.44    0.28
   3  10   6    0.41    0.20
   4  10   6    1.48    0.26
  -5 -10  -6    0.45    0.24
   5  10   6    0.30    0.24
  -6 -10  -6    0.33    0.26
   6  10   6    0.18    0.29
  -7 -10  -6    0.14    0.29
   7  10   6    0.20    0.30
  -8 -10  -6    3.30    0.44
   8  10   6    3.46    0.52
  -1 -11  -6    1.15    0.33
  -2 -11  -6    0.37    0.31
  -3 -11  -6    1.39    0.34
   4  11   6    0.29    0.24
   5  11   6    1.40    0.29
  -6 -11  -6    0.84    0.29
   6  11   6    0.61    0.29
  -7 -11  -6    0.70    0.31
   7  11   6    0.80    0.34
   3  10  -7    0.03    0.23
   3  10  -7   -0.11    0.21
  -3 -10   7   -0.07    0.17
   2  10  -7    1.61    0.28
   2  10  -7    0.86    0.23
  -2 -10   7    0.98    0.19
   1  10  -7   -0.18    0.23
  -1 -10   7   -0.04    0.17
   0 -10   7    0.16    0.18
   5   9  -7   -0.04    0.25
   5   9  -7   -0.01    0.21
  -5  -9   7   -0.10    0.18
   4   9  -7    1.46    0.24
   4   9  -7    1.66    0.27
  -4  -9   7    1.44    0.26
   3   9  -7    0.39    0.21
   3   9  -7    0.25    0.20
  -3  -9   7    0.38    0.17
   2   9  -7    3.91    0.34
   2   9  -7    4.43    0.37
  -2  -9   7    3.91    0.31
   1   9  -7    1.50    0.23
   1   9  -7    1.97    0.31
  -1  -9   7    1.71    0.25
   0   9  -7    0.21    0.21
   0  -9   7    0.63    0.17
  -1   9  -7   -0.40    0.20
   1  -9   7    0.29    0.17
  -2   9  -7    0.02    0.21
   2  -9   7    0.19    0.18
   6   8  -7    1.91    0.31
   5   8  -7    3.28    0.32
   5   8  -7    3.26    0.38
  -5  -8   7    3.45    0.32
   4   8  -7    2.53    0.29
   4   8  -7    2.73    0.33
  -4  -8   7    2.61    0.28
   3   8  -7    4.24    0.33
   3   8  -7    4.34    0.35
  -3  -8   7    3.87    0.31
   2   8  -7    1.13    0.21
   2   8  -7    0.89    0.19
  -2  -8   7    0.85    0.17
   1   8  -7   -0.25    0.15
   1   8  -7    0.16    0.18
  -1  -8   7   -0.08    0.14
   0   8  -7    0.46    0.20
   0   8  -7    0.22    0.17
   0  -8   7    0.48    0.15
  -1   8  -7    1.85    0.27
   1  -8   7    2.94    0.26
  -2   8  -7   -0.23    0.18
   2  -8   7    0.19    0.16
  -3   8  -7    0.66    0.22
   3  -8   7    0.52    0.18
  -4   8  -7    2.01    0.35
   6   7  -7    3.44    0.33
   5   7  -7    0.47    0.24
   5   7  -7    0.54    0.19
  -5  -7   7    0.30    0.19
   4   7  -7    1.58    0.25
   4   7  -7    1.43    0.21
  -4  -7   7    1.44    0.25
   3   7  -7    0.72    0.20
   3   7  -7    0.62    0.17
  -3  -7   7    0.72    0.16
   2   7  -7    1.22    0.19
   2   7  -7    1.01    0.17
  -2  -7   7    0.95    0.17
   1   7  -7    3.12    0.27
   1   7  -7    3.26    0.29
  -1  -7   7    2.88    0.26
   0   7  -7    2.70    0.29
   0   7  -7    2.61    0.27
   0  -7   7    2.77    0.25
  -1   7  -7   12.54    0.57
  -1   7  -7   10.56    0.61
   1  -7   7   12.19    0.57
  -2   7  -7   -0.26    0.16
   2  -7   7    0.11    0.14
  -3   7  -7    0.24    0.19
   3  -7   7    0.09    0.15
  -4   7  -7    1.72    0.31
  -5   7  -7    3.95    0.43
   7   6  -7    0.20    0.22
   6   6  -7    0.17    0.20
   5   6  -7    1.02    0.20
   5   6  -7    0.72    0.25
  -5  -6   7    0.96    0.22
   4   6  -7    3.77    0.29
   4   6  -7    4.11    0.35
  -4  -6   7    3.45    0.33
   3   6  -7   29.51    1.27
   3   6  -7   28.51    1.19
  -3  -6   7   29.10    1.25
   2   6  -7    2.64    0.28
   2   6  -7    2.42    0.23
  -2  -6   7    2.46    0.25
   1   6  -7   10.73    0.52
   1   6  -7   11.33    0.55
  -1  -6   7   11.38    0.54
   0   6  -7    0.43    0.15
   0   6  -7    0.14    0.14
   0  -6   7    0.17    0.13
  -1   6  -7    9.95    0.49
  -1   6  -7    9.43    0.52
   1  -6   7   10.49    0.49
  -2   6  -7    1.03    0.18
  -2   6  -7    0.74    0.18
   2  -6   7    1.39    0.21
  -3   6  -7    4.38    0.36
   3  -6   7    4.68    0.30
  -4   6  -7    1.67    0.30
   7   5  -7    0.54    0.23
   6   5  -7    4.60    0.35
   5   5  -7   10.78    0.54
   5   5  -7   11.66    0.66
   4   5  -7    9.36    0.45
   4   5  -7    7.66    0.48
  -4  -5   7    9.60    0.50
   3   5  -7    2.00    0.22
  -3  -5   7    1.92    0.27
   2   5  -7    3.35    0.25
  -2  -5   7    3.56    0.28
   1   5  -7    2.19    0.22
  -1  -5   7    2.24    0.24
   0   5  -7   10.30    0.48
   0  -5   7   10.12    0.49
  -1   5  -7    2.36    0.23
  -1   5  -7    1.78    0.23
   1  -5   7    2.30    0.22
  -2   5  -7   24.23    1.21
  -2   5  -7   29.27    1.14
   2  -5   7   29.20    1.18
  -3   5  -7    0.08    0.15
   3  -5   7    0.11    0.12
  -4   5  -7    0.34    0.20
   4  -5   7    0.01    0.12
  -5   5  -7    4.21    0.42
  -6   5  -7    1.28    0.30
   7   4  -7    2.99    0.36
   6   4  -7    0.40    0.19
   5   4  -7    0.08    0.16
   5   4  -7    0.24    0.18
   4   4  -7   10.54    0.55
   4   4  -7   10.64    0.57
   4   4  -7    9.33    0.48
   3   4  -7    7.27    0.43
   3   4  -7    7.15    0.36
   3   4  -7    7.17    0.42
   2   4  -7   37.81    1.55
   2   4  -7   35.25    1.46
   1   4  -7   24.95    1.05
   1   4  -7   25.93    1.10
  -1  -4   7   26.59    1.12
   0   4  -7    0.68    0.13
   0   4  -7    0.84    0.12
   0  -4   7    0.85    0.14
  -1   4  -7    1.42    0.19
  -1   4  -7    1.42    0.17
   1  -4   7    1.59    0.20
  -2   4  -7    8.69    0.44
   2  -4   7    9.09    0.44
  -3   4  -7    6.65    0.38
  -3   4  -7    6.93    0.42
   3  -4   7    6.92    0.36
  -4   4  -7    0.43    0.19
   4  -4   7    0.06    0.11
  -5   4  -7   11.93    0.71
  -6   4  -7    0.40    0.30
  -7   4  -7    0.80    0.33
   6   3  -7    4.47    0.45
   6   3  -7    4.43    0.35
   5   3  -7   14.15    0.74
   5   3  -7   14.14    0.64
   4   3  -7    2.48    0.23
   4   3  -7    2.28    0.33
   3   3  -7   29.95    1.24
   3   3  -7   32.31    1.34
   3   3  -7   30.15    1.35
   2   3  -7    3.70    0.29
   2   3  -7    3.54    0.24
   2   3  -7    3.61    0.33
   1   3  -7    3.88    0.32
   1   3  -7    4.06    0.24
   1   3  -7    4.07    0.25
   0   3  -7    2.55    0.21
   0   3  -7    2.69    0.20
   0  -3   7    2.85    0.25
  -1   3  -7   13.83    0.56
  -1   3  -7   11.68    0.55
   1  -3   7   11.51    0.57
  -2   3  -7   26.97    1.07
  -2   3  -7   22.81    1.11
   2  -3   7   27.80    1.10
  -3   3  -7    5.76    0.35
  -3   3  -7    5.96    0.38
   3  -3   7    5.93    0.32
  -4   3  -7    0.16    0.15
  -4   3  -7    0.38    0.20
  -5   3  -7    4.48    0.42
  -6   3  -7    5.83    0.49
  -7   3  -7    0.61    0.31
  -8   3  -7    1.00    0.34
   6   2  -7    7.56    0.57
   6   2  -7    8.28    0.46
   5   2  -7    4.92    0.32
   5   2  -7    4.31    0.44
   4   2  -7    0.07    0.19
   4   2  -7    0.02    0.12
   3   2  -7   42.82    1.81
   3   2  -7   41.54    1.67
   2   2  -7   25.46    1.05
   2   2  -7   23.84    1.08
   2   2  -7   23.18    0.98
   1   2  -7   29.27    1.31
   1   2  -7   30.00    1.21
   1   2  -7   31.77    1.27
   0   2  -7   30.45    1.26
   0   2  -7   29.64    1.29
   0   2  -7   30.89    1.22
  -1   2  -7   -0.02    0.10
  -1   2  -7    0.16    0.08
  -2   2  -7    6.30    0.35
   2  -2   7    6.08    0.34
  -3   2  -7    7.67    0.43
  -3   2  -7    8.62    0.45
   3  -2   7    8.33    0.40
  -4   2  -7   11.59    0.59
  -4   2  -7    9.59    0.52
   4  -2   7    9.33    0.46
  -5   2  -7   12.40    0.64
  -5   2  -7   13.68    0.71
  -6   2  -7    0.56    0.28
  -7   2  -7    1.23    0.33
  -8   2  -7   -0.15    0.31
   6   1  -7   15.56    0.86
   5   1  -7    7.85    0.57
   5   1  -7    9.09    0.44
   4   1  -7   29.93    1.35
   4   1  -7   30.34    1.22
   3   1  -7    1.33    0.17
   3   1  -7    1.14    0.22
   2   1  -7   32.91    1.33
   2   1  -7   33.98    1.45
   1   1  -7    9.47    0.42
   1   1  -7    9.16    0.49
   0   1  -7    1.48    0.23
   0   1  -7    1.05    0.16
   0   1  -7    1.13    0.13
  -1   1  -7   18.17    0.85
  -1   1  -7   19.55    0.80
  -1   1  -7   20.08    0.81
  -2   1  -7   36.45    1.54
  -2   1  -7   40.48    1.49
  -2   1  -7   32.99    1.52
  -3   1  -7    6.93    0.39
  -3   1  -7    7.09    0.41
  -4   1  -7    9.93    0.50
  -4   1  -7    7.51    0.46
   4  -1   7    8.98    0.41
  -5   1  -7    0.26    0.25
  -5   1  -7    0.17    0.21
  -6   1  -7    0.18    0.21
  -6   1  -7    0.46    0.28
  -7   1  -7    1.37    0.31
  -8   1  -7    0.88    0.31
  -9   1  -7    0.57    0.34
   6   0  -7    2.86    0.49
   5   0  -7    4.40    0.49
   4   0  -7    5.27    0.28
   3   0  -7    2.07    0.19
   3   0  -7    1.88    0.26
   2   0  -7   23.57    1.07
   2   0  -7   23.57    0.95
   1   0  -7   39.59    1.54
   1   0  -7   38.47    1.65
   0   0  -7   73.78    2.78
   0   0  -7   68.94    2.94
  -1   0  -7    2.22    0.21
  -1   0  -7    2.84    0.23
  -2   0  -7    4.58    0.28
  -2   0  -7    4.07    0.29
  -3   0  -7    0.67    0.18
  -3   0  -7    0.70    0.15
  -4   0  -7   15.83    0.74
  -4   0  -7   15.51    0.72
   4   0   7   14.98    0.66
  -5   0  -7    5.75    0.41
  -6   0  -7    7.70    0.47
  -7   0  -7    0.70    0.23
  -9   0  -7    0.25    0.31
   6  -1  -7    0.64    0.32
   5  -1  -7    4.41    0.51
   4  -1  -7   41.88    1.84
   3  -1  -7   28.50    1.32
   3  -1  -7   29.34    1.16
   2  -1  -7   27.97    1.25
   1  -1  -7    3.82    0.23
   1  -1  -7    3.95    0.34
   0  -1  -7    2.26    0.25
   0  -1  -7    1.96    0.18
  -1  -1  -7    1.81    0.21
  -1  -1  -7    1.25    0.15
  -2  -1  -7    6.09    0.36
  -2  -1  -7    6.55    0.33
  -2  -1  -7    5.27    0.27
  -3  -1  -7   33.65    1.37
  -3  -1  -7   32.96    1.40
   3   1   7   33.69    1.41
  -4  -1  -7    7.08    0.41
   4   1   7    6.14    0.44
  -5  -1  -7   14.94    0.69
   5   1   7   14.23    0.77
  -6  -1  -7    0.24    0.21
   6   1   7    0.19    0.31
  -7  -1  -7    0.56    0.24
   7   1   7    0.95    0.35
  -8  -1  -7    0.10    0.25
   8   1   7    0.76    0.39
   9   1   7    2.44    0.47
   6  -2  -7    8.97    0.70
   5  -2  -7    2.84    0.38
   4  -2  -7    7.70    0.56
   3  -2  -7    2.12    0.39
   2  -2  -7    2.31    0.37
   2  -2  -7    2.36    0.18
   1  -2  -7   11.49    0.48
   0  -2  -7    9.88    0.52
   0  -2  -7   10.42    0.46
  -1  -2  -7  107.68    4.30
  -1  -2  -7  113.71    4.52
  -2  -2  -7   12.77    0.59
  -2  -2  -7   13.18    0.59
  -3  -2  -7    2.73    0.26
  -3  -2  -7    2.55    0.22
   3   2   7    2.17    0.27
  -4  -2  -7    0.69    0.17
  -4  -2  -7    0.27    0.11
   4   2   7    0.22    0.21
  -5  -2  -7   25.54    1.09
   5   2   7   26.70    1.21
  -6  -2  -7    0.32    0.22
   6   2   7    0.41    0.34
  -7  -2  -7    4.94    0.40
   7   2   7    5.55    0.53
  -8  -2  -7    0.43    0.26
   8   2   7    0.95    0.40
   9   2   7    0.30    0.43
   6  -3  -7    0.03    0.32
   5  -3  -7    3.73    0.47
   4  -3  -7    4.88    0.46
   3  -3  -7    9.35    0.57
   2  -3  -7   84.24    3.51
   1  -3  -7   26.01    1.02
   1  -3  -7   25.28    1.15
   0  -3  -7    0.44    0.17
  -1  -3  -7    0.46    0.14
  -2  -3  -7    9.51    0.47
  -2  -3  -7   10.79    0.49
  -3  -3  -7    1.93    0.23
  -3  -3  -7    1.42    0.20
   3   3   7    1.41    0.22
  -4  -3  -7   20.10    0.86
  -4  -3  -7   20.64    0.86
   4   3   7   19.59    0.93
  -5  -3  -7    6.12    0.39
   5   3   7    5.39    0.49
  -6  -3  -7   16.44    0.77
   6   3   7   17.13    0.88
  -7  -3  -7    1.19    0.26
   7   3   7    1.14    0.38
  -8  -3  -7   -0.05    0.26
   8   3   7    0.55    0.42
  -9  -3  -7    0.62    0.29
   9   3   7    0.72    0.43
  10   3   7    0.89    0.49
   5  -4  -7    8.62    0.59
   4  -4  -7    4.71    0.45
   3  -4  -7    5.37    0.44
   2  -4  -7    0.95    0.23
   1  -4  -7    3.73    0.40
   0  -4  -7    2.11    0.20
   0  -4  -7    2.19    0.34
  -1  -4  -7   20.23    0.84
  -2  -4  -7   13.29    0.61
  -2  -4  -7   14.84    0.65
  -3  -4  -7    8.86    0.41
  -3  -4  -7    8.06    0.42
   3   4   7    7.76    0.42
  -4  -4  -7    3.14    0.24
  -4  -4  -7    3.51    0.27
   4   4   7    2.70    0.30
  -5  -4  -7   29.98    1.25
   5   4   7   30.89    1.35
  -6  -4  -7    0.59    0.22
   6   4   7    0.18    0.29
  -7  -4  -7    4.98    0.41
   7   4   7    5.43    0.51
  -8  -4  -7    1.77    0.30
   8   4   7    1.39    0.41
  -9  -4  -7    0.21    0.28
   9   4   7    0.43    0.44
  10   4   7    0.30    0.49
   5  -5  -7    0.04    0.26
   4  -5  -7    1.81    0.29
   3  -5  -7    6.99    0.50
   2  -5  -7   20.05    0.95
   1  -5  -7    4.72    0.42
   0  -5  -7   39.78    1.72
  -1  -5  -7    1.95    0.18
  -2  -5  -7    3.45    0.36
  -2  -5  -7    4.08    0.27
  -3  -5  -7    6.82    0.35
  -3  -5  -7    5.47    0.36
   3   5   7    5.02    0.33
  -4  -5  -7    3.15    0.26
  -4  -5  -7    3.54    0.29
   4   5   7    3.06    0.31
  -5  -5  -7   30.06    1.24
   5   5   7   30.16    1.32
  -6  -5  -7    0.03    0.21
   6   5   7    0.14    0.25
  -7  -5  -7    4.77    0.42
   7   5   7    5.41    0.49
  -8  -5  -7   -0.08    0.28
   8   5   7    0.12    0.36
  -9  -5  -7    0.06    0.29
   9   5   7    0.08    0.42
 -10  -5  -7    0.45    0.31
  10   5   7    0.34    0.49
   4  -6  -7    3.59    0.41
   3  -6  -7    6.71    0.49
   2  -6  -7    2.75    0.36
   1  -6  -7    1.01    0.24
   0  -6  -7    3.91    0.39
  -1  -6  -7   28.01    1.26
  -1  -6  -7   27.90    1.13
  -2  -6  -7    2.60    0.36
  -3  -6  -7    5.29    0.40
  -3  -6  -7    5.70    0.33
   3   6   7    4.52    0.33
  -4  -6  -7    0.90    0.18
  -4  -6  -7    0.69    0.17
   4   6   7    0.57    0.18
  -5  -6  -7   -0.09    0.19
   5   6   7    0.05    0.19
  -6  -6  -7    1.10    0.24
   6   6   7    1.29    0.26
  -7  -6  -7    3.65    0.40
   7   6   7    3.67    0.44
  -8  -6  -7    1.49    0.32
   8   6   7    1.51    0.38
  -9  -6  -7    0.74    0.32
   9   6   7    0.61    0.41
   4  -7  -7    0.77    0.29
   3  -7  -7    2.65    0.40
   2  -7  -7    4.70    0.44
   1  -7  -7   12.10    0.67
   0  -7  -7    2.43    0.37
  -1  -7  -7    0.50    0.24
  -2  -7  -7   12.00    0.68
  -2  -7  -7   13.40    0.58
  -3  -7  -7    0.95    0.17
  -3  -7  -7    0.63    0.22
  -4  -7  -7    8.63    0.48
  -4  -7  -7    8.33    0.44
   4   7   7    8.17    0.47
  -5  -7  -7    2.03    0.30
   5   7   7    2.06    0.28
  -6  -7  -7   10.85    0.57
   6   7   7   10.31    0.58
  -7  -7  -7    0.08    0.27
   7   7   7    0.16    0.28
  -8  -7  -7    0.13    0.29
   8   7   7   -0.24    0.33
  -9  -7  -7   -0.42    0.31
   9   7   7    0.27    0.39
   3  -8  -7    0.99    0.31
   2  -8  -7    3.91    0.43
   1  -8  -7    0.82    0.27
   0  -8  -7    0.30    0.26
  -1  -8  -7    2.60    0.40
  -2  -8  -7    9.45    0.59
  -3  -8  -7    6.37    0.49
  -4  -8  -7   -0.09    0.18
  -5  -8  -7    0.24    0.21
   5   8   7    0.14    0.21
  -6  -8  -7    0.28    0.25
   6   8   7    0.46    0.26
  -7  -8  -7    0.50    0.29
   7   8   7    0.75    0.29
  -8  -8  -7    1.06    0.32
   8   8   7    1.39    0.36
  -9  -8  -7    1.59    0.36
   9   8   7    1.86    0.44
   2  -9  -7    0.72    0.31
   1  -9  -7    2.21    0.41
   0  -9  -7    3.83    0.44
  -1  -9  -7    0.59    0.29
  -2  -9  -7    3.99    0.45
  -3  -9  -7    1.00    0.29
  -4  -9  -7   -0.21    0.19
  -5  -9  -7    0.54    0.24
  -6  -9  -7    5.10    0.43
   6   9   7    5.25    0.45
  -7  -9  -7    0.44    0.30
   7   9   7    0.49    0.29
  -8  -9  -7    0.29    0.32
   8   9   7    0.48    0.36
   0 -10  -7    0.69    0.32
  -1 -10  -7    1.94    0.35
  -2 -10  -7    0.71    0.31
  -3 -10  -7    0.06    0.30
  -5 -10  -7    0.04    0.24
  -6 -10  -7   -0.39    0.26
  -7 -10  -7   -0.19    0.30
  -8 -10  -7    0.94    0.34
   8  10   7    0.54    0.36
  -1 -11  -7    2.14    0.38
  -2 -11  -7    0.19    0.33
  -3 -11  -7    0.57    0.34
  -6 -11  -7   -0.43    0.28
   4   9  -8    1.09    0.23
  -4  -9   8    1.03    0.21
   3   9  -8    0.02    0.20
  -3  -9   8    0.02    0.17
   2   9  -8   -0.17    0.19
   2   9  -8    0.04    0.22
  -2  -9   8    0.10    0.17
   1   9  -8    1.12    0.22
   1   9  -8    1.42    0.26
  -1  -9   8    1.44    0.25
   0   9  -8    0.13    0.23
   0  -9   8    0.83    0.19
  -1   9  -8   -0.30    0.20
   1  -9   8    0.36    0.18
   5   8  -8    0.38    0.21
  -5  -8   8    0.19    0.20
   4   8  -8    0.78    0.21
  -4  -8   8    0.94    0.20
   3   8  -8    1.73    0.27
  -3  -8   8    1.72    0.26
   2   8  -8    2.12    0.29
   2   8  -8    1.56    0.26
  -2  -8   8    1.53    0.25
   1   8  -8    1.80    0.29
   1   8  -8    1.21    0.21
  -1  -8   8    1.41    0.24
   0   8  -8    0.10    0.17
   0   8  -8   -0.12    0.19
   0  -8   8    0.05    0.15
   1  -8   8    0.00    0.16
  -2   8  -8   -0.25    0.17
   2  -8   8    0.05    0.16
   3  -8   8    1.21    0.21
   6   7  -8    0.89    0.23
   5   7  -8    4.99    0.36
  -5  -7   8    5.02    0.39
   4   7  -8    0.39    0.18
  -4  -7   8    0.24    0.19
   3   7  -8    2.27    0.26
  -3  -7   8    1.99    0.26
   2   7  -8    0.09    0.18
   2   7  -8    0.11    0.15
  -2  -7   8    0.02    0.15
   1   7  -8   -0.25    0.15
   1   7  -8   -0.10    0.17
  -1  -7   8    0.09    0.14
   0   7  -8    0.64    0.18
   0   7  -8    0.63    0.19
   0  -7   8    0.56    0.16
  -1   7  -8    4.57    0.34
   1  -7   8    4.73    0.32
  -2   7  -8    4.55    0.39
   2  -7   8    6.50    0.36
  -3   7  -8    0.27    0.17
   3  -7   8    0.11    0.16
   4  -7   8    0.33    0.17
   6   6  -8    0.62    0.21
   5   6  -8    2.04    0.27
  -5  -6   8    1.77    0.26
   4   6  -8    0.01    0.16
  -4  -6   8   -0.05    0.19
   3   6  -8   -0.05    0.14
  -3  -6   8    0.02    0.17
   2   6  -8   14.86    0.68
  -2  -6   8   15.76    0.72
   1   6  -8    4.08    0.29
  -1  -6   8    3.94    0.29
   0   6  -8    5.31    0.32
   0   6  -8    4.19    0.32
   0  -6   8    4.51    0.31
  -1   6  -8    0.30    0.15
  -1   6  -8    0.17    0.16
   1  -6   8    0.43    0.15
  -2   6  -8    1.54    0.26
   2  -6   8    1.95    0.24
  -3   6  -8    1.98    0.26
   3  -6   8    1.69    0.23
   4  -6   8    1.81    0.24
   6   5  -8    0.78    0.21
   5   5  -8    4.65    0.33
   4   5  -8    6.23    0.36
  -4  -5   8    6.04    0.42
   3   5  -8    4.12    0.28
  -3  -5   8    3.86    0.33
   2   5  -8    5.65    0.33
  -2  -5   8    5.88    0.38
   1   5  -8    2.78    0.24
   1   5  -8    2.58    0.25
  -1  -5   8    2.60    0.27
   0   5  -8   -0.03    0.13
   0   5  -8    0.29    0.14
   0  -5   8    0.08    0.13
  -1   5  -8    6.23    0.36
   1  -5   8    6.18    0.35
  -2   5  -8    5.40    0.35
   2  -5   8    5.76    0.34
  -3   5  -8    9.16    0.52
  -3   5  -8    9.81    0.50
   3  -5   8    9.90    0.48
   4  -5   8    1.39    0.22
   7   4  -8    1.69    0.27
   6   4  -8    5.43    0.40
   6   4  -8    6.81    0.48
   5   4  -8    3.65    0.37
   5   4  -8    2.94    0.29
   4   4  -8    1.81    0.29
   4   4  -8    1.04    0.17
   3   4  -8    0.34    0.16
   3   4  -8    0.16    0.13
   2   4  -8    8.64    0.41
   1   4  -8    0.16    0.12
  -1  -4   8    0.31    0.15
   0   4  -8   23.00    0.99
   0   4  -8   24.65    1.03
   0  -4   8   23.92    1.04
  -1   4  -8   13.25    0.64
  -1   4  -8   15.97    0.66
   1  -4   8   13.89    0.66
  -2   4  -8    1.08    0.17
   2  -4   8    1.25    0.21
  -3   4  -8    6.81    0.40
  -3   4  -8    6.05    0.39
   3  -4   8    7.45    0.38
  -4   4  -8    6.30    0.41
  -4   4  -8    8.60    0.48
   4  -4   8    6.92    0.38
  -5   4  -8    1.72    0.32
  -6   4  -8    2.14    0.39
  -7   4  -8    1.41    0.35
   6   3  -8   -0.05    0.25
   6   3  -8    0.22    0.20
   5   3  -8    1.90    0.25
   5   3  -8    1.28    0.27
   4   3  -8    1.34    0.21
   4   3  -8    1.33    0.24
   3   3  -8   25.84    1.07
   3   3  -8   26.64    1.18
   2   3  -8    5.55    0.40
   2   3  -8    5.64    0.30
   1   3  -8   16.35    0.69
   1   3  -8   15.88    0.76
   0   3  -8    0.29    0.12
  -1   3  -8    8.21    0.43
  -1   3  -8    9.37    0.42
   1  -3   8    8.36    0.45
  -2   3  -8   31.52    1.25
  -2   3  -8   26.69    1.29
   2  -3   8   32.85    1.29
  -3   3  -8    0.44    0.14
  -3   3  -8    0.20    0.16
   3  -3   8    0.61    0.12
  -4   3  -8   11.66    0.57
  -4   3  -8   13.23    0.62
   4  -3   8    9.74    0.52
  -5   3  -8    2.18    0.34
  -6   3  -8    2.46    0.40
  -7   3  -8    1.47    0.35
   6   2  -8    2.40    0.44
   5   2  -8    8.75    0.59
   5   2  -8    9.49    0.47
   4   2  -8    8.71    0.42
   4   2  -8    8.52    0.54
   3   2  -8    0.06    0.12
   3   2  -8    0.14    0.18
   2   2  -8    5.99    0.32
   2   2  -8    6.17    0.43
   1   2  -8    8.80    0.50
   1   2  -8    8.89    0.41
   0   2  -8   20.64    0.95
   0   2  -8   22.21    0.89
  -1   2  -8    0.18    0.12
  -1   2  -8   -0.12    0.14
  -2   2  -8   34.62    1.39
  -2   2  -8   31.98    1.42
   2  -2   8   35.14    1.43
  -3   2  -8    1.70    0.28
  -3   2  -8    2.14    0.22
   3  -2   8    2.82    0.23
  -4   2  -8    0.68    0.18
  -4   2  -8    0.03    0.16
   4  -2   8    0.07    0.10
  -5   2  -8    2.63    0.34
  -5   2  -8    2.11    0.30
  -6   2  -8    3.05    0.41
  -7   2  -8    0.88    0.32
  -8   2  -8    0.31    0.36
   6   1  -8    3.14    0.47
   5   1  -8   -0.35    0.24
   5   1  -8    0.15    0.17
   4   1  -8   11.15    0.65
   4   1  -8   11.75    0.53
   3   1  -8    0.31    0.12
   3   1  -8    0.34    0.20
   2   1  -8   36.12    1.46
   2   1  -8   37.21    1.59
   1   1  -8   19.53    0.90
   1   1  -8   19.44    0.80
   0   1  -8    5.84    0.31
   0   1  -8    6.14    0.38
  -1   1  -8    0.24    0.12
  -1   1  -8    0.34    0.14
  -2   1  -8    6.81    0.38
  -2   1  -8    6.10    0.37
  -3   1  -8   52.85    2.31
  -3   1  -8   59.26    2.23
   3  -1   8   54.33    2.29
  -4   1  -8    6.78    0.41
  -4   1  -8    5.91    0.42
   4  -1   8    5.53    0.31
  -5   1  -8    4.06    0.36
  -6   1  -8    3.33    0.43
  -6   1  -8    3.09    0.36
  -7   1  -8   -0.30    0.31
  -8   1  -8   -0.06    0.34
   6   0  -8    7.39    0.62
   5   0  -8   12.03    0.74
   4   0  -8    2.14    0.39
   3   0  -8    7.64    0.50
   3   0  -8    7.63    0.37
   2   0  -8    3.38    0.22
   2   0  -8    3.01    0.35
   1   0  -8    1.89    0.30
   1   0  -8    1.57    0.18
   0   0  -8   35.26    1.54
   0   0  -8   37.08    1.45
  -1   0  -8   17.73    0.75
  -1   0  -8   17.15    0.79
  -2   0  -8   20.84    0.92
  -2   0  -8   21.38    0.91
  -3   0  -8    0.86    0.19
  -3   0  -8    0.59    0.15
  -4   0  -8    2.69    0.34
  -4   0  -8    3.18    0.32
   4   0   8    2.59    0.23
  -5   0  -8    0.83    0.23
  -5   0  -8    1.23    0.26
  -6   0  -8    3.08    0.35
  -6   0  -8    2.74    0.39
  -7   0  -8   -0.12    0.26
  -7   0  -8   -0.19    0.22
  -8   0  -8    3.08    0.41
  -9   0  -8    0.10    0.32
   6  -1  -8    0.96    0.38
   5  -1  -8    1.17    0.33
   4  -1  -8    2.15    0.32
   3  -1  -8    5.72    0.48
   3  -1  -8    6.47    0.32
   2  -1  -8   14.47    0.75
   2  -1  -8   14.33    0.61
   1  -1  -8   39.75    1.73
   1  -1  -8   41.01    1.60
   0  -1  -8    6.56    0.41
   0  -1  -8    6.96    0.35
  -1  -1  -8    3.44    0.26
  -1  -1  -8    2.44    0.24
  -2  -1  -8    0.50    0.14
  -2  -1  -8    0.04    0.14
  -3  -1  -8    6.23    0.36
  -3  -1  -8    6.81    0.42
  -4  -1  -8    9.41    0.51
  -4  -1  -8   12.24    0.56
  -5  -1  -8   34.68    1.40
   5   1   8   32.75    1.48
  -6  -1  -8    7.53    0.46
   6   1   8    7.57    0.57
  -7  -1  -8   -0.04    0.24
   7   1   8    0.12    0.33
  -8  -1  -8   -0.26    0.26
   8   1   8    0.61    0.38
   9   1   8    1.82    0.46
   6  -2  -8    0.99    0.38
   5  -2  -8    6.83    0.59
   4  -2  -8   18.94    0.98
   3  -2  -8    7.57    0.55
   2  -2  -8    4.78    0.27
   2  -2  -8    4.56    0.45
   1  -2  -8    0.35    0.20
   1  -2  -8    0.48    0.11
   0  -2  -8    5.56    0.38
   0  -2  -8    5.52    0.31
  -1  -2  -8   59.00    2.40
  -1  -2  -8   62.81    2.53
  -2  -2  -8   12.93    0.61
  -2  -2  -8   13.17    0.61
  -3  -2  -8   32.73    1.35
  -3  -2  -8   32.96    1.38
  -4  -2  -8    3.59    0.31
  -4  -2  -8    3.00    0.26
  -5  -2  -8    7.97    0.46
   5   2   8    7.14    0.54
  -6  -2  -8    1.12    0.24
   6   2   8    1.27    0.32
  -7  -2  -8    0.03    0.24
   7   2   8    0.16    0.35
  -8  -2  -8    0.42    0.28
   8   2   8    0.93    0.40
  -9  -2  -8   -0.31    0.28
   9   2   8    0.53    0.43
   5  -3  -8    1.99    0.36
   4  -3  -8    0.29    0.27
   3  -3  -8    0.01    0.24
   2  -3  -8    4.44    0.43
   1  -3  -8    7.04    0.50
   1  -3  -8    7.08    0.35
   0  -3  -8   51.23    2.08
   0  -3  -8   47.22    1.94
  -1  -3  -8    1.28    0.19
  -2  -3  -8    9.70    0.46
  -2  -3  -8    7.86    0.45
  -3  -3  -8    1.98    0.23
  -3  -3  -8    2.59    0.26
  -4  -3  -8    5.94    0.34
  -4  -3  -8    6.62    0.39
  -5  -3  -8    0.77    0.20
   5   3   8    0.58    0.31
  -6  -3  -8   33.03    1.43
   6   3   8   36.63    1.58
  -7  -3  -8    3.36    0.39
   7   3   8    3.65    0.55
  -8  -3  -8   -0.03    0.28
   8   3   8    0.49    0.40
  -9  -3  -8   -0.51    0.30
   9   3   8   -0.33    0.42
   5  -4  -8    0.34    0.30
   4  -4  -8    6.36    0.51
   3  -4  -8   10.19    0.62
   2  -4  -8    4.55    0.42
   1  -4  -8    3.50    0.41
   0  -4  -8   35.04    1.58
   0  -4  -8   37.53    1.45
  -1  -4  -8    2.04    0.23
  -2  -4  -8   26.61    1.06
  -2  -4  -8   21.48    0.99
  -3  -4  -8   30.95    1.26
  -3  -4  -8   31.02    1.31
  -4  -4  -8    2.94    0.29
  -4  -4  -8    2.01    0.24
  -5  -4  -8    8.58    0.48
  -6  -4  -8    0.48    0.22
   6   4   8    0.06    0.30
  -7  -4  -8    1.14    0.28
   7   4   8    1.56    0.39
  -8  -4  -8    0.18    0.29
   8   4   8    0.14    0.39
  -9  -4  -8   -0.24    0.30
   9   4   8    0.05    0.43
   4  -5  -8    0.67    0.28
   3  -5  -8    0.80    0.26
   2  -5  -8    0.35    0.24
   1  -5  -8   13.76    0.73
   0  -5  -8    0.41    0.23
  -1  -5  -8   20.21    0.86
  -1  -5  -8   15.18    0.75
  -2  -5  -8    9.73    0.49
  -2  -5  -8   11.16    0.56
  -3  -5  -8   11.01    0.52
  -3  -5  -8   10.06    0.54
  -4  -5  -8    5.27    0.36
  -5  -5  -8    5.18    0.37
  -6  -5  -8    4.42    0.38
  -7  -5  -8    1.92    0.30
   7   5   8    2.05    0.37
  -8  -5  -8    1.14    0.31
   8   5   8    0.95    0.39
  -9  -5  -8    0.62    0.33
   9   5   8    0.68    0.43
   4  -6  -8    1.08    0.30
   3  -6  -8    4.42    0.45
   2  -6  -8    5.18    0.46
   1  -6  -8    7.15    0.52
   0  -6  -8    1.22    0.27
  -1  -6  -8    7.51    0.51
  -2  -6  -8   26.11    1.06
  -3  -6  -8    1.65    0.23
  -4  -6  -8   18.53    0.80
  -5  -6  -8    0.68    0.21
  -6  -6  -8    0.51    0.24
  -7  -6  -8    1.14    0.29
  -8  -6  -8    0.16    0.31
   8   6   8    0.77    0.37
  -9  -6  -8    2.33    0.38
   9   6   8    1.98    0.47
   3  -7  -8    1.23    0.31
   2  -7  -8    1.77    0.31
   1  -7  -8    2.30    0.41
   0  -7  -8    4.43    0.46
  -1  -7  -8    0.61    0.27
  -2  -7  -8   10.51    0.62
  -3  -7  -8    0.31    0.17
  -3  -7  -8    0.00    0.23
  -4  -7  -8    8.47    0.46
  -5  -7  -8    0.10    0.21
  -6  -7  -8    5.49    0.42
  -7  -7  -8    0.72    0.29
  -8  -7  -8    0.79    0.33
  -9  -7  -8   -0.40    0.34
   2  -8  -8    4.19    0.47
   1  -8  -8    2.37    0.42
   0  -8  -8    1.36    0.32
  -1  -8  -8    1.83    0.33
  -2  -8  -8    9.18    0.60
  -3  -8  -8    2.09    0.32
  -4  -8  -8   17.66    0.77
  -5  -8  -8    3.48    0.35
  -6  -8  -8   -0.27    0.25
  -7  -8  -8    1.47    0.32
  -8  -8  -8    0.81    0.34
  -9  -8  -8   -0.21    0.35
   1  -9  -8    0.45    0.32
   0  -9  -8    1.04    0.33
  -1  -9  -8    3.50    0.46
  -2  -9  -8    2.89    0.46
  -3  -9  -8    1.66    0.33
  -4  -9  -8   -0.40    0.20
  -5  -9  -8   -0.40    0.23
  -6  -9  -8   -0.23    0.27
  -7  -9  -8   -0.20    0.31
  -8  -9  -8    0.63    0.36
   0 -10  -8    2.24    0.38
  -1 -10  -8    0.32    0.34
  -2 -10  -8    0.04    0.32
  -3 -10  -8    0.50    0.33
  -5 -10  -8    2.31    0.30
  -6 -10  -8    4.28    0.43
  -7 -10  -8   -0.67    0.31
  -2 -11  -8    1.20    0.38
  -3 -11  -8    2.88    0.50
   2   9  -9   -0.12    0.20
  -2  -9   9   -0.03    0.18
   1   9  -9   -0.34    0.19
  -1  -9   9    0.02    0.18
   0  -9   9    0.21    0.19
   4   8  -9    0.81    0.21
  -4  -8   9    0.63    0.22
   3   8  -9    0.08    0.19
  -3  -8   9   -0.08    0.18
   2   8  -9   -0.15    0.18
  -2  -8   9    0.12    0.17
   1   8  -9    0.67    0.20
  -1  -8   9    0.68    0.18
   0   8  -9    1.73    0.29
   0  -8   9    2.11    0.26
   1  -8   9    0.94    0.20
   2  -8   9    0.21    0.18
   5   7  -9   -0.12    0.19
  -5  -7   9   -0.15    0.21
   4   7  -9    3.48    0.31
  -4  -7   9    3.17    0.34
   3   7  -9    5.96    0.38
   2   7  -9    2.10    0.26
  -2  -7   9    2.59    0.28
   1   7  -9    2.85    0.29
  -1  -7   9    3.06    0.28
   0   7  -9    0.06    0.17
   0  -7   9    0.12    0.16
  -1   7  -9   -0.16    0.17
   1  -7   9   -0.07    0.16
   2  -7   9    1.98    0.26
  -3   7  -9    2.30    0.30
   4  -7   9    0.32    0.18
   5   6  -9    2.35    0.28
  -5  -6   9    2.16    0.36
   4   6  -9    1.99    0.26
  -4  -6   9    1.84    0.32
   3   6  -9    0.55    0.17
  -3  -6   9    0.37    0.20
   2   6  -9    1.00    0.18
  -2  -6   9    1.19    0.20
   1   6  -9    0.07    0.15
  -1  -6   9    0.17    0.16
   0   6  -9    5.88    0.37
   0  -6   9    6.16    0.37
  -1   6  -9    0.26    0.17
   1  -6   9    0.50    0.16
  -2   6  -9    0.34    0.18
   2  -6   9    0.62    0.17
   3  -6   9    5.45    0.35
   6   5  -9    0.41    0.21
   5   5  -9    1.01    0.20
   4   5  -9    0.58    0.17
   3   5  -9    3.50    0.27
  -3  -5   9    3.71    0.34
   2   5  -9    5.31    0.33
  -2  -5   9    5.78    0.39
   1   5  -9   25.49    1.09
  -1  -5   9   26.60    1.15
   0   5  -9    0.36    0.16
   0  -5   9    0.49    0.16
  -1   5  -9    0.74    0.18
   1  -5   9    0.85    0.17
  -2   5  -9    0.77    0.18
   2  -5   9    0.97    0.17
  -3   5  -9   12.01    0.61
   3  -5   9   12.76    0.60
   4  -5   9    0.53    0.15
  -5   5  -9    6.20    0.46
   6   4  -9    1.16    0.23
   5   4  -9    4.08    0.39
   5   4  -9    3.27    0.30
   4   4  -9    7.11    0.45
   4   4  -9    6.13    0.36
   3   4  -9    1.38    0.21
   3   4  -9    2.13    0.29
   2   4  -9    0.71    0.15
   2   4  -9    1.13    0.19
   1   4  -9    9.49    0.47
  -1  -4   9   10.18    0.52
   0   4  -9    2.68    0.25
   0  -4   9    2.63    0.29
  -1   4  -9    0.32    0.15
   1  -4   9    0.43    0.15
  -2   4  -9    5.67    0.36
   2  -4   9    6.09    0.36
  -3   4  -9    0.99    0.20
   3  -4   9    1.00    0.16
  -4   4  -9    1.44    0.22
   4  -4   9    1.69    0.23
  -6   4  -9    3.69    0.39
   6   3  -9    2.65    0.32
   6   3  -9    2.29    0.36
   5   3  -9    1.70    0.25
   5   3  -9    1.52    0.29
   4   3  -9    1.63    0.27
   4   3  -9    1.81    0.23
   3   3  -9    1.59    0.21
   3   3  -9    1.75    0.25
   2   3  -9   17.78    0.77
   2   3  -9   18.62    0.86
   1   3  -9    7.99    0.46
   1   3  -9    8.66    0.41
   0   3  -9   20.14    0.86
  -1   3  -9   11.37    0.55
   1  -3   9   11.88    0.57
  -2   3  -9    1.42    0.20
   2  -3   9    1.48    0.24
  -3   3  -9   -0.28    0.15
   3  -3   9   -0.10    0.13
  -4   3  -9    8.80    0.50
   4  -3   9    8.81    0.45
  -5   3  -9    2.06    0.30
  -5   3  -9    3.02    0.33
  -6   3  -9    0.92    0.29
  -7   3  -9    0.42    0.32
   6   2  -9    3.44    0.50
   5   2  -9    6.62    0.38
   5   2  -9    5.62    0.50
   4   2  -9    9.96    0.47
   4   2  -9    9.75    0.60
   3   2  -9    5.82    0.33
   3   2  -9    6.14    0.44
   2   2  -9    1.06    0.21
   2   2  -9    1.24    0.18
   1   2  -9    0.34    0.17
   1   2  -9    0.23    0.12
   0   2  -9    0.88    0.18
   0   2  -9    0.94    0.15
  -1   2  -9   37.94    1.48
  -1   2  -9   34.43    1.55
  -2   2  -9    0.85    0.18
   2  -2   9    1.33    0.18
  -3   2  -9    2.52    0.30
   3  -2   9    3.08    0.26
  -5   2  -9    0.25    0.19
  -6   2  -9    0.41    0.26
  -7   2  -9    0.30    0.32
   6   1  -9    1.43    0.37
   5   1  -9    0.10    0.28
   4   1  -9    2.45    0.33
   4   1  -9    2.84    0.25
   3   1  -9   -0.12    0.20
   3   1  -9    0.12    0.13
   2   1  -9    6.06    0.43
   2   1  -9    5.68    0.31
   1   1  -9   50.79    2.17
   1   1  -9   51.93    2.03
   0   1  -9    5.45    0.32
   0   1  -9    5.54    0.37
  -1   1  -9   29.77    1.33
  -1   1  -9   31.94    1.27
  -2   1  -9   -0.21    0.15
  -2   1  -9    0.26    0.16
  -3   1  -9    0.25    0.18
   3  -1   9    0.55    0.15
  -4   1  -9    0.47    0.20
   4  -1   9    0.41    0.12
  -5   1  -9    5.29    0.41
  -6   1  -9    2.79    0.36
  -7   1  -9    2.97    0.42
  -8   1  -9    0.73    0.35
   6   0  -9   -0.50    0.34
   5   0  -9    7.21    0.59
   4   0  -9   14.06    0.78
   3   0  -9   22.16    1.03
   3   0  -9   21.15    0.89
   2   0  -9    5.97    0.45
   2   0  -9    6.18    0.32
   1   0  -9    0.26    0.13
   1   0  -9    0.24    0.19
   0   0  -9    1.70    0.29
   0   0  -9    1.67    0.21
  -1   0  -9    4.43    0.31
  -1   0  -9    4.79    0.34
  -2   0  -9    7.60    0.42
  -2   0  -9    6.80    0.41
  -3   0  -9   14.78    0.73
  -3   0  -9   17.55    0.76
  -4   0  -9   10.25    0.56
   4   0   9   10.02    0.50
  -5   0  -9    1.61    0.26
  -6   0  -9    0.82    0.25
  -7   0  -9    0.32    0.25
  -8   0  -9    0.35    0.32
   6  -1  -9    1.37    0.41
   5  -1  -9    2.43    0.39
   4  -1  -9    0.17    0.28
   3  -1  -9    0.03    0.06
   3  -1  -9   -0.02    0.23
   2  -1  -9   -0.06    0.11
   2  -1  -9   -0.10    0.21
   1  -1  -9   19.70    0.81
   1  -1  -9   18.95    0.92
   0  -1  -9   15.39    0.66
   0  -1  -9   14.64    0.73
  -1  -1  -9   31.82    1.36
  -1  -1  -9   31.45    1.30
  -2  -1  -9    5.59    0.38
  -2  -1  -9    7.21    0.38
  -3  -1  -9    2.66    0.27
  -3  -1  -9    2.52    0.31
  -4  -1  -9    0.49    0.21
  -5  -1  -9    0.41    0.21
  -6  -1  -9    5.33    0.43
  -7  -1  -9    1.77    0.29
  -8  -1  -9   -0.14    0.26
   5  -2  -9    1.11    0.36
   4  -2  -9    3.71    0.48
   3  -2  -9   15.82    0.85
   2  -2  -9   21.10    1.02
   2  -2  -9   21.05    0.87
   1  -2  -9   29.78    1.19
   1  -2  -9   28.99    1.32
   0  -2  -9    0.44    0.14
   0  -2  -9    0.49    0.20
  -1  -2  -9    1.36    0.20
  -2  -2  -9    4.17    0.30
  -2  -2  -9    3.15    0.30
  -3  -2  -9   11.38    0.58
  -3  -2  -9   11.39    0.55
  -4  -2  -9    5.37    0.37
  -4  -2  -9    4.51    0.32
  -5  -2  -9    8.72    0.49
  -6  -2  -9    0.31    0.23
  -7  -2  -9    0.31    0.27
  -8  -2  -9   -0.17    0.28
  -9  -2  -9   -0.20    0.31
   5  -3  -9    5.42    0.59
   4  -3  -9    3.60    0.49
   3  -3  -9    0.88    0.30
   2  -3  -9    2.18    0.40
   1  -3  -9    7.80    0.38
   1  -3  -9    6.96    0.52
   0  -3  -9    6.36    0.48
   0  -3  -9    6.60    0.36
  -1  -3  -9    2.80    0.26
  -2  -3  -9   20.92    0.88
  -2  -3  -9   18.07    0.85
  -3  -3  -9    8.48    0.46
  -3  -3  -9    8.68    0.45
  -4  -3  -9    2.17    0.28
  -5  -3  -9    1.05    0.22
  -6  -3  -9    4.24    0.38
  -7  -3  -9    1.05    0.28
  -8  -3  -9   -0.35    0.28
  -9  -3  -9    0.59    0.33
   4  -4  -9    1.40    0.34
   3  -4  -9    5.94    0.51
   2  -4  -9   12.04    0.70
   1  -4  -9    8.22    0.55
   0  -4  -9   33.98    1.54
   0  -4  -9   36.10    1.41
  -1  -4  -9    2.27    0.25
  -2  -4  -9    5.49    0.37
  -2  -4  -9    7.41    0.43
  -3  -4  -9    6.92    0.40
  -3  -4  -9    6.84    0.41
  -4  -4  -9    2.61    0.30
  -5  -4  -9   10.79    0.55
  -6  -4  -9    0.39    0.23
  -7  -4  -9    2.53    0.38
  -8  -4  -9   -0.38    0.30
  -9  -4  -9    0.03    0.34
   4  -5  -9    1.28    0.33
   3  -5  -9    5.38    0.49
   2  -5  -9    1.38    0.30
   1  -5  -9    2.11    0.31
   0  -5  -9    4.18    0.43
  -1  -5  -9    6.96    0.36
  -2  -5  -9    0.48    0.16
  -3  -5  -9   19.83    0.88
  -3  -5  -9   18.96    0.83
  -4  -5  -9    0.73    0.19
  -5  -5  -9    2.66    0.32
  -6  -5  -9    3.32    0.38
  -7  -5  -9    1.95    0.32
  -8  -5  -9    0.07    0.31
  -9  -5  -9   -0.50    0.35
   3  -6  -9    5.07    0.49
   2  -6  -9    5.34    0.49
   1  -6  -9    6.10    0.49
   0  -6  -9   21.52    1.04
  -1  -6  -9    0.24    0.26
  -2  -6  -9    8.13    0.52
  -2  -6  -9    8.18    0.43
  -3  -6  -9    1.84    0.28
  -4  -6  -9   15.77    0.71
  -5  -6  -9    0.15    0.22
  -6  -6  -9    3.18    0.37
  -7  -6  -9    2.47    0.40
  -8  -6  -9   -0.43    0.32
  -9  -6  -9   -0.37    0.35
   2  -7  -9    1.16    0.32
   1  -7  -9    1.87    0.34
   0  -7  -9    0.80    0.31
  -1  -7  -9    1.53    0.32
  -2  -7  -9    6.19    0.51
  -3  -7  -9   12.41    0.60
  -3  -7  -9   12.82    0.68
  -4  -7  -9    0.22    0.19
  -5  -7  -9   -0.13    0.22
  -6  -7  -9   -0.02    0.25
  -7  -7  -9    1.32    0.32
  -8  -7  -9   -0.68    0.33
  -9  -7  -9    0.44    0.38
   2  -8  -9    1.24    0.34
   1  -8  -9    7.28    0.58
   0  -8  -9    3.96    0.49
  -1  -8  -9    5.69    0.54
  -2  -8  -9   -0.13    0.30
  -3  -8  -9   -0.21    0.28
  -4  -8  -9    0.57    0.22
  -5  -8  -9    0.56    0.24
  -6  -8  -9    2.41    0.39
  -7  -8  -9    0.04    0.31
  -8  -8  -9   -0.64    0.35
   0  -9  -9    0.55    0.36
  -1  -9  -9    0.33    0.34
  -2  -9  -9    0.06    0.34
  -3  -9  -9    5.35    0.55
  -5  -9  -9    0.55    0.26
  -6  -9  -9   -0.14    0.28
  -7  -9  -9   -0.10    0.32
  -1 -10  -9    2.44    0.43
  -2 -10  -9    0.77    0.38
  -3 -10  -9   -0.09    0.35
  -6 -10  -9   -0.42    0.30
  -7 -10  -9   -0.29    0.34
   3   8 -10    0.06    0.20
  -3  -8  10    0.05    0.20
   2   8 -10    0.48    0.21
  -2  -8  10    0.66    0.20
   1   8 -10   -0.13    0.19
  -1  -8  10    0.03    0.18
   0   8 -10    0.11    0.20
   0  -8  10    0.45    0.19
   1  -8  10    1.27    0.22
   4   7 -10    0.31    0.20
  -4  -7  10    0.09    0.22
   3   7 -10   -0.04    0.18
  -3  -7  10   -0.05    0.20
   2   7 -10    3.03    0.30
  -2  -7  10    3.23    0.31
   1   7 -10    0.85    0.21
  -1  -7  10    0.64    0.19
   0   7 -10    0.40    0.19
   0  -7  10    0.38    0.18
  -1   7 -10   -0.11    0.19
   1  -7  10    0.18    0.18
   2  -7  10    0.08    0.18
   3  -7  10    0.03    0.18
   5   6 -10    0.50    0.20
  -5  -6  10    0.21    0.25
   4   6 -10    4.62    0.34
  -4  -6  10    4.97    0.41
   3   6 -10    2.11    0.27
  -3  -6  10    2.26    0.32
   2   6 -10    0.63    0.18
  -2  -6  10    0.77    0.21
   1   6 -10   -0.11    0.16
  -1  -6  10   -0.07    0.17
   0   6 -10    0.05    0.17
   0  -6  10    0.05    0.17
  -1   6 -10    0.05    0.18
   1  -6  10    0.12    0.17
  -2   6 -10    1.10    0.22
   2  -6  10    1.76    0.27
   3  -6  10    1.66    0.26
   4  -6  10    1.52    0.26
   5   5 -10    0.29    0.19
   4   5 -10    0.25    0.17
   3   5 -10    0.52    0.17
  -3  -5  10    0.26    0.21
   2   5 -10    0.04    0.16
  -2  -5  10   -0.11    0.19
   1   5 -10    2.79    0.27
  -1  -5  10    2.92    0.30
   0   5 -10    3.64    0.30
   0  -5  10    3.88    0.32
  -1   5 -10    1.75    0.26
   1  -5  10    2.08    0.26
  -2   5 -10   -0.02    0.17
   2  -5  10    0.20    0.16
  -3   5 -10    2.70    0.31
   3  -5  10    2.86    0.30
   4  -5  10    0.05    0.15
   5   4 -10    0.62    0.25
   5   4 -10    0.32    0.19
   4   4 -10    1.66    0.24
   3   4 -10    8.78    0.51
   3   4 -10    7.92    0.43
   2   4 -10    6.21    0.40
   2   4 -10    5.25    0.34
   1   4 -10    0.96    0.17
  -1  -4  10    0.83    0.20
   0   4 -10    0.07    0.16
   0  -4  10    0.38    0.18
  -1   4 -10    2.44    0.27
   1  -4  10    2.58    0.28
  -2   4 -10    1.57    0.26
   2  -4  10    2.09    0.26
  -3   4 -10    0.60    0.20
   3  -4  10    0.87    0.17
  -4   4 -10    5.09    0.39
   4  -4  10    5.68    0.35
   5   3 -10    4.25    0.46
   5   3 -10    4.23    0.33
   4   3 -10    3.00    0.39
   4   3 -10    2.74    0.26
   3   3 -10    0.88    0.17
   3   3 -10    0.90    0.24
   2   3 -10    3.35    0.33
   2   3 -10    3.09    0.25
   1   3 -10    0.93    0.19
   1   3 -10    0.80    0.16
   0   3 -10   20.15    0.87
  -1   3 -10    2.57    0.27
   1  -3  10    2.98    0.30
  -2   3 -10   14.04    0.68
   2  -3  10   14.40    0.68
  -3   3 -10    0.06    0.17
   3  -3  10    0.02    0.14
  -4   3 -10    0.20    0.19
   4  -3  10    0.25    0.14
  -5   3 -10    0.70    0.21
   5   2 -10    0.11    0.18
   5   2 -10   -0.26    0.28
   4   2 -10    4.05    0.29
   4   2 -10    4.21    0.44
   3   2 -10    7.06    0.50
   3   2 -10    6.91    0.37
   2   2 -10    0.06    0.19
   2   2 -10    0.12    0.14
   1   2 -10   16.55    0.72
   1   2 -10   16.69    0.80
   0   2 -10    5.22    0.33
   0   2 -10    4.78    0.36
  -1   2 -10    0.53    0.18
  -1   2 -10    0.46    0.17
  -2   2 -10    1.33    0.21
   2  -2  10    1.73    0.27
  -3   2 -10   33.24    1.44
   3  -2  10   34.95    1.45
   4  -2  10    0.89    0.13
  -5   2 -10    2.49    0.32
  -6   2 -10    0.43    0.21
   5   1 -10    4.13    0.51
   4   1 -10    6.01    0.52
   4   1 -10    6.77    0.38
   3   1 -10    3.03    0.25
   3   1 -10    2.52    0.38
   2   1 -10    3.26    0.36
   2   1 -10    3.66    0.26
   1   1 -10   10.75    0.58
   1   1 -10   10.62    0.50
   0   1 -10    8.67    0.45
   0   1 -10    8.83    0.50
  -1   1 -10   11.84    0.61
  -1   1 -10   12.57    0.59
  -2   1 -10    2.57    0.27
  -2   1 -10    2.06    0.28
  -3   1 -10    0.38    0.19
   3  -1  10    0.74    0.16
  -4   1 -10    0.80    0.22
   4  -1  10    1.03    0.16
  -5   1 -10    0.68    0.23
  -6   1 -10    2.48    0.36
   4   0 -10   -0.37    0.26
   3   0 -10    2.53    0.38
   3   0 -10    2.63    0.25
   2   0 -10   15.35    0.78
   2   0 -10   15.35    0.67
   1   0 -10    0.62    0.15
   1   0 -10    0.49    0.20
   0   0 -10   10.34    0.56
   0   0 -10   10.47    0.51
  -1   0 -10    3.18    0.28
  -1   0 -10    3.65    0.32
  -2   0 -10    0.21    0.17
  -3   0 -10    0.63    0.16
  -3   0 -10    0.88    0.20
  -4   0 -10    8.04    0.49
   4   0  10    7.95    0.44
  -5   0 -10   12.56    0.66
  -6   0 -10    3.24    0.40
  -7   0 -10   -0.11    0.25
   5  -1 -10    2.53    0.42
   4  -1 -10   10.28    0.69
   3  -1 -10    8.05    0.58
   2  -1 -10    0.78    0.26
   2  -1 -10    0.95    0.15
   1  -1 -10    0.27    0.20
   1  -1 -10    0.17    0.14
   0  -1 -10    6.90    0.37
   0  -1 -10    6.36    0.43
  -1  -1 -10    3.98    0.33
  -1  -1 -10    5.47    0.37
  -2  -1 -10   23.30    0.99
  -2  -1 -10   21.41    0.97
  -3  -1 -10    3.00    0.29
  -3  -1 -10    2.99    0.30
  -4  -1 -10    1.48    0.24
  -5  -1 -10    2.51    0.34
  -6  -1 -10    0.22    0.24
  -7  -1 -10    0.00    0.26
  -8  -1 -10    0.50    0.29
   5  -2 -10    0.34    0.36
   4  -2 -10    0.13    0.32
   3  -2 -10    0.25    0.28
   2  -2 -10    1.59    0.30
   1  -2 -10   10.49    0.61
   1  -2 -10   10.26    0.48
   0  -2 -10    9.20    0.46
   0  -2 -10    9.29    0.54
  -1  -2 -10    8.82    0.48
  -1  -2 -10    9.78    0.52
  -2  -2 -10    1.45    0.21
  -3  -2 -10    0.75    0.18
  -3  -2 -10    0.60    0.19
  -4  -2 -10    2.74    0.32
  -5  -2 -10    4.02    0.37
  -6  -2 -10    0.46    0.24
  -7  -2 -10   12.83    0.68
  -8  -2 -10   -0.12    0.28
  -9  -2 -10   -0.61    0.30
   4  -3 -10    7.40    0.62
   3  -3 -10    3.61    0.49
   2  -3 -10   17.13    0.90
   1  -3 -10    0.21    0.25
   1  -3 -10    0.51    0.12
   0  -3 -10    2.07    0.26
   0  -3 -10    3.04    0.38
  -2  -3 -10    6.68    0.41
  -2  -3 -10    5.11    0.36
  -3  -3 -10   13.55    0.67
  -3  -3 -10   14.55    0.66
  -4  -3 -10   10.08    0.53
  -5  -3 -10    0.36    0.20
  -6  -3 -10    0.50    0.24
  -7  -3 -10    5.99    0.48
  -8  -3 -10   -0.21    0.31
  -9  -3 -10   -0.53    0.34
   4  -4 -10    1.21    0.37
   3  -4 -10    0.42    0.31
   2  -4 -10    1.08    0.32
   1  -4 -10    1.04    0.30
   0  -4 -10    5.02    0.28
  -1  -4 -10    2.81    0.27
  -2  -4 -10    2.52    0.26
  -3  -4 -10    0.36    0.18
  -3  -4 -10    0.43    0.17
  -4  -4 -10    1.70    0.28
  -5  -4 -10    2.60    0.32
  -6  -4 -10    2.51    0.36
  -7  -4 -10    0.45    0.28
  -8  -4 -10    3.80    0.47
  -9  -4 -10   -0.43    0.35
   3  -5 -10    3.16    0.47
   2  -5 -10    3.67    0.47
   1  -5 -10    5.25    0.50
   0  -5 -10    0.11    0.28
  -1  -5 -10    0.90    0.27
  -2  -5 -10   32.91    1.32
  -2  -5 -10   26.74    1.23
  -3  -5 -10    2.55    0.27
  -3  -5 -10    1.85    0.31
  -4  -5 -10    8.60    0.46
  -5  -5 -10    4.13    0.36
  -6  -5 -10    0.38    0.25
  -7  -5 -10    0.29    0.28
  -8  -5 -10   -0.38    0.31
  -9  -5 -10    0.35    0.38
   3  -6 -10    1.23    0.34
   2  -6 -10    0.71    0.32
   1  -6 -10    3.17    0.47
   0  -6 -10    4.15    0.48
  -1  -6 -10    0.68    0.30
  -2  -6 -10    3.07    0.31
  -2  -6 -10    3.27    0.41
  -3  -6 -10    0.53    0.23
  -4  -6 -10    5.65    0.40
  -5  -6 -10    0.65    0.23
  -6  -6 -10    1.49    0.28
  -7  -6 -10    1.95    0.34
  -8  -6 -10   -0.18    0.34
   2  -7 -10    4.03    0.50
   1  -7 -10    1.21    0.35
   0  -7 -10    2.01    0.37
  -1  -7 -10    0.25    0.31
  -2  -7 -10    0.78    0.30
  -3  -7 -10   18.76    0.82
  -3  -7 -10   18.56    0.91
  -4  -7 -10    7.09    0.43
  -5  -7 -10    1.56    0.27
  -6  -7 -10   -0.21    0.27
  -7  -7 -10   -0.51    0.30
   1  -8 -10    0.49    0.35
   0  -8 -10    1.08    0.37
  -1  -8 -10    5.60    0.56
  -2  -8 -10    0.25    0.33
  -3  -8 -10    0.05    0.29
  -4  -8 -10    0.54    0.24
  -5  -8 -10   -0.03    0.25
  -6  -8 -10   -0.43    0.29
  -7  -8 -10   -0.65    0.32
  -8  -8 -10    2.28    0.41
   0  -9 -10    2.36    0.42
  -1  -9 -10    0.49    0.39
  -2  -9 -10   -0.06    0.36
  -3  -9 -10   -0.03    0.34
  -5  -9 -10   -0.33    0.26
  -6  -9 -10    3.42    0.46
  -2 -10 -10    0.24    0.40
  -3 -10 -10    2.59    0.44
   2   7 -11   -0.25    0.19
  -2  -7  11    0.04    0.20
   1   7 -11    0.28    0.21
  -1  -7  11    0.43    0.20
   0   7 -11    0.34    0.21
   0  -7  11    0.66    0.20
  -1   7 -11    0.73    0.23
   1  -7  11    0.99    0.21
   2  -7  11   -0.01    0.19
   4   6 -11    0.55    0.20
  -4  -6  11    0.26    0.25
   3   6 -11    0.19    0.19
  -3  -6  11    0.09    0.22
   2   6 -11    2.24    0.28
  -2  -6  11    2.10    0.31
   1   6 -11    0.67    0.20
  -1  -6  11    0.71    0.21
   0   6 -11    1.08    0.22
   0  -6  11    1.30    0.22
  -1   6 -11   -0.22    0.18
   1  -6  11   -0.05    0.18
  -2   6 -11    0.08    0.20
   2  -6  11    0.30    0.19
   3  -6  11    0.01    0.18
   4   5 -11    0.14    0.18
  -4  -5  11   -0.36    0.24
   3   5 -11    2.19    0.27
  -3  -5  11    1.97    0.34
   2   5 -11    0.13    0.17
  -2  -5  11    0.04    0.21
   1   5 -11    2.61    0.28
  -1  -5  11    2.74    0.32
   0   5 -11    1.30    0.21
   0  -5  11    1.29    0.22
  -1   5 -11    1.20    0.22
   1  -5  11    1.64    0.27
  -2   5 -11    1.11    0.23
   2  -5  11    1.83    0.28
  -3   5 -11   -0.22    0.19
   3  -5  11   -0.07    0.17
   4   4 -11    0.64    0.24
   4   4 -11    0.04    0.17
   3   4 -11    2.93    0.28
   2   4 -11    2.31    0.25
   1   4 -11    1.03    0.19
  -1  -4  11    1.09    0.23
   0   4 -11    1.68    0.25
   0  -4  11    1.90    0.30
  -1   4 -11    3.72    0.33
   1  -4  11    4.18    0.34
  -2   4 -11   -0.08    0.18
   2  -4  11    0.15    0.17
  -3   4 -11   -0.23    0.18
   3  -4  11   -0.08    0.17
  -4   4 -11    0.88    0.23
   4  -4  11    1.07    0.19
   5   3 -11    1.54    0.36
   5   3 -11    1.64    0.29
   4   3 -11    2.14    0.27
   4   3 -11    2.82    0.41
   3   3 -11    1.56    0.24
   3   3 -11    1.90    0.34
   2   3 -11    2.64    0.25
   2   3 -11    2.73    0.32
   1   3 -11    0.28    0.16
   1   3 -11    0.52    0.19
   0   3 -11   -0.10    0.16
  -1   3 -11    7.50    0.46
   1  -3  11    8.67    0.48
  -2   3 -11    3.46    0.33
   2  -3  11    3.99    0.34
  -3   3 -11   -0.12    0.19
   3  -3  11    0.11    0.16
  -4   3 -11    0.99    0.23
  -5   3 -11    0.72    0.22
   5   2 -11    0.79    0.35
   4   2 -11    0.13    0.27
   4   2 -11    0.26    0.18
   3   2 -11    0.52    0.17
   3   2 -11    0.52    0.26
   2   2 -11    1.04    0.24
   2   2 -11    0.86    0.17
   1   2 -11   12.67    0.59
   1   2 -11   12.80    0.66
   0   2 -11    1.53    0.25
   0   2 -11    1.82    0.28
  -1   2 -11    7.25    0.43
  -1   2 -11    6.98    0.43
  -2   2 -11   -0.37    0.17
   2  -2  11    0.17    0.18
  -3   2 -11    0.35    0.20
   3  -2  11    0.92    0.19
  -4   2 -11    4.82    0.41
  -5   2 -11    0.76    0.23
  -6   2 -11    1.97    0.33
   5   1 -11    3.36    0.52
   4   1 -11    1.86    0.34
   4   1 -11    2.48    0.27
   3   1 -11    8.02    0.55
   3   1 -11    7.97    0.42
   2   1 -11    1.36    0.26
   2   1 -11    1.47    0.22
   1   1 -11    2.42    0.25
   1   1 -11    2.23    0.32
   0   1 -11    4.19    0.32
   0   1 -11    4.60    0.36
  -1   1 -11   -0.23    0.16
  -1   1 -11    0.18    0.18
  -2   1 -11    2.44    0.28
  -2   1 -11    2.08    0.28
  -3   1 -11    7.22    0.46
   3  -1  11    6.78    0.43
  -4   1 -11    2.34    0.34
  -5   1 -11    0.62    0.23
  -6   1 -11    0.80    0.24
  -7   1 -11    0.22    0.23
   5   0 -11    0.57    0.37
   4   0 -11    0.15    0.31
   3   0 -11    0.22    0.26
   3   0 -11    0.17    0.16
   2   0 -11    3.04    0.26
   2   0 -11    2.76    0.38
   1   0 -11    0.02    0.15
   1   0 -11    0.15    0.21
   0   0 -11   22.50    1.07
   0   0 -11   24.97    1.02
  -1   0 -11    8.92    0.49
  -1   0 -11    9.29    0.50
  -2   0 -11    1.21    0.22
  -3   0 -11    1.30    0.20
  -3   0 -11    1.51    0.24
  -4   0 -11    0.59    0.21
  -5   0 -11    0.86    0.24
  -6   0 -11    0.87    0.26
  -7   0 -11    1.24    0.29
   4  -1 -11    1.80    0.38
   3  -1 -11    7.29    0.56
   2  -1 -11    6.05    0.48
   2  -1 -11    5.24    0.33
   1  -1 -11    5.92    0.36
   1  -1 -11    5.52    0.44
   0  -1 -11   -0.23    0.16
   0  -1 -11    0.07    0.20
  -1  -1 -11    0.93    0.20
  -2  -1 -11   -0.16    0.16
  -2  -1 -11    0.75    0.19
  -3  -1 -11    7.63    0.43
  -3  -1 -11    7.38    0.45
  -4  -1 -11    1.32    0.24
  -5  -1 -11    5.64    0.43
  -6  -1 -11    0.72    0.27
  -7  -1 -11    0.58    0.29
  -8  -1 -11    0.47    0.30
   4  -2 -11    1.18    0.38
   3  -2 -11    1.25    0.34
   2  -2 -11    0.60    0.29
   1  -2 -11    0.33    0.17
   1  -2 -11    0.31    0.25
   0  -2 -11    7.58    0.43
   0  -2 -11    8.02    0.51
  -1  -2 -11    7.97    0.47
  -1  -2 -11    9.63    0.51
  -2  -2 -11    2.90    0.28
  -3  -2 -11    8.46    0.45
  -3  -2 -11    8.06    0.47
  -4  -2 -11    1.02    0.22
  -5  -2 -11    1.10    0.24
  -6  -2 -11    2.71    0.38
  -7  -2 -11    0.42    0.29
  -8  -2 -11    1.32    0.33
   4  -3 -11    0.72    0.37
   3  -3 -11    4.62    0.54
   2  -3 -11    6.33    0.55
   1  -3 -11    4.13    0.46
   0  -3 -11    3.75    0.30
   0  -3 -11    4.13    0.42
  -1  -3 -11    0.26    0.22
  -2  -3 -11    0.39    0.20
  -3  -3 -11    7.24    0.43
  -3  -3 -11    7.61    0.43
  -4  -3 -11    3.17    0.33
  -5  -3 -11    2.50    0.32
  -6  -3 -11    2.23    0.35
  -7  -3 -11    0.08    0.28
  -8  -3 -11   -0.01    0.31
   3  -4 -11    1.53    0.38
   2  -4 -11    0.72    0.34
   1  -4 -11    0.26    0.31
   0  -4 -11    4.24    0.47
  -1  -4 -11    3.57    0.31
  -2  -4 -11    2.55    0.26
  -3  -4 -11    2.59    0.30
  -3  -4 -11    2.63    0.32
  -4  -4 -11    5.54    0.39
  -5  -4 -11    0.74    0.23
  -6  -4 -11    1.10    0.26
  -7  -4 -11    0.14    0.29
  -8  -4 -11    2.40    0.40
   3  -5 -11    2.93    0.52
   2  -5 -11    3.51    0.51
   1  -5 -11    8.52    0.64
   0  -5 -11    2.87    0.47
  -1  -5 -11    3.45    0.44
  -1  -5 -11    2.37    0.31
  -2  -5 -11    0.36    0.26
  -3  -5 -11    0.17    0.19
  -3  -5 -11    0.74    0.20
  -4  -5 -11   12.29    0.61
  -5  -5 -11    2.60    0.33
  -6  -5 -11    0.15    0.27
  -7  -5 -11    0.55    0.31
  -8  -5 -11   -0.43    0.34
   2  -6 -11    0.74    0.36
   1  -6 -11    0.46    0.36
   0  -6 -11    0.33    0.34
  -1  -6 -11    5.00    0.52
  -2  -6 -11    0.75    0.21
  -2  -6 -11    1.38    0.31
  -3  -6 -11    4.00    0.34
  -3  -6 -11    2.88    0.39
  -4  -6 -11    4.50    0.37
  -5  -6 -11    0.98    0.25
  -6  -6 -11    0.00    0.27
  -7  -6 -11   -0.26    0.30
  -8  -6 -11   -0.13    0.35
   1  -7 -11    8.49    0.66
   0  -7 -11    1.27    0.38
  -1  -7 -11    5.63    0.55
  -2  -7 -11    3.38    0.47
  -3  -7 -11    4.24    0.37
  -3  -7 -11    3.41    0.43
  -4  -7 -11    0.20    0.23
  -5  -7 -11    0.62    0.26
  -6  -7 -11    2.18    0.38
  -7  -7 -11   -0.65    0.31
   0  -8 -11    0.78    0.39
  -1  -8 -11    0.23    0.37
  -2  -8 -11    0.85    0.32
  -3  -8 -11   -0.06    0.27
  -4  -8 -11    1.79    0.28
  -5  -8 -11    0.68    0.29
  -6  -8 -11   -0.61    0.29
  -2  -9 -11    1.23    0.41
  -3  -9 -11    0.41    0.31
  -5  -9 -11   -0.54    0.28
   2   6 -12    0.24    0.20
  -2  -6  12    0.40    0.23
   1   6 -12    0.27    0.21
  -1  -6  12    0.33    0.22
   0   6 -12    3.01    0.34
   0  -6  12    3.59    0.34
   1  -6  12   -0.26    0.19
  -2   6 -12    0.33    0.23
   2  -6  12    0.70    0.21
   3   5 -12    1.11    0.22
  -3  -5  12    1.37    0.28
   2   5 -12    0.64    0.20
  -2  -5  12    0.48    0.24
   1   5 -12    0.44    0.21
  -1  -5  12    0.77    0.23
   0   5 -12   -0.20    0.19
   0  -5  12    0.13    0.20
   1  -5  12    0.04    0.20
  -2   5 -12   -0.24    0.20
   2  -5  12   -0.05    0.19
  -3   5 -12    0.29    0.22
   3  -5  12    0.47    0.20
   3   4 -12   -0.22    0.18
   2   4 -12    0.03    0.18
   1   4 -12    1.88    0.26
  -1  -4  12    1.77    0.32
   0   4 -12    0.36    0.19
   0  -4  12    0.69    0.22
  -1   4 -12    3.53    0.34
   1  -4  12    4.21    0.36
  -2   4 -12   -0.03    0.20
   2  -4  12    0.30    0.19
  -3   4 -12    0.05    0.21
   3  -4  12    0.28    0.19
  -4   4 -12    0.17    0.21
   4   3 -12    1.68    0.28
   4   3 -12    1.79    0.33
   3   3 -12    0.81    0.26
   3   3 -12    0.75    0.20
   2   3 -12    3.73    0.36
   2   3 -12    3.65    0.31
   1   3 -12    0.20    0.20
   1   3 -12    0.02    0.17
   0   3 -12    1.85    0.27
  -1   3 -12    0.43    0.21
   1  -3  12    0.67    0.22
   2  -3  12   -0.11    0.19
  -3   3 -12    1.01    0.25
   3  -3  12    1.39    0.21
  -4   3 -12    0.33    0.21
  -5   3 -12    0.97    0.24
   4   2 -12    2.30    0.29
   4   2 -12    1.72    0.36
   3   2 -12    2.49    0.39
   3   2 -12    2.17    0.26
   2   2 -12    0.08    0.22
   2   2 -12   -0.05    0.17
   1   2 -12    0.21    0.18
   1   2 -12    0.54    0.22
   0   2 -12    1.37    0.22
   0   2 -12    1.46    0.23
  -1   2 -12    7.68    0.46
  -1   2 -12    7.67    0.46
  -2   2 -12    1.82    0.27
   2  -2  12    2.14    0.32
  -3   2 -12    0.05    0.20
   3  -2  12    0.17    0.19
  -4   2 -12    0.20    0.21
  -5   2 -12    0.94    0.25
  -6   2 -12    2.07    0.35
   4   1 -12    0.75    0.34
   3   1 -12    1.90    0.25
   3   1 -12    1.81    0.32
   2   1 -12    7.61    0.41
   2   1 -12    7.48    0.51
   1   1 -12    5.04    0.34
   1   1 -12    4.67    0.41
   0   1 -12    1.46    0.24
   0   1 -12    1.32    0.22
  -1   1 -12    5.84    0.40
  -1   1 -12    5.05    0.39
  -2   1 -12    0.16    0.20
  -2   1 -12    0.44    0.19
  -3   1 -12    0.02    0.20
   3  -1  12   -0.03    0.18
  -4   1 -12    0.51    0.22
  -5   1 -12    4.64    0.42
  -6   1 -12    1.03    0.26
  -7   1 -12    0.61    0.25
   4   0 -12    1.90    0.39
   3   0 -12    0.45    0.18
   3   0 -12    0.51    0.30
   2   0 -12    3.84    0.29
   2   0 -12    3.09    0.41
   1   0 -12    0.20    0.23
   1   0 -12   -0.08    0.17
   0   0 -12   -0.28    0.17
   0   0 -12    0.01    0.21
  -1   0 -12    7.98    0.48
  -1   0 -12    8.71    0.50
  -2   0 -12    3.25    0.34
  -2   0 -12    4.30    0.33
  -3   0 -12    2.79    0.32
  -3   0 -12    2.43    0.29
  -4   0 -12    2.06    0.32
  -5   0 -12    2.12    0.33
  -6   0 -12    0.46    0.25
  -7   0 -12    0.47    0.27
   4  -1 -12   -0.29    0.35
   3  -1 -12    2.52    0.46
   2  -1 -12    2.78    0.27
   2  -1 -12    2.60    0.40
   1  -1 -12    8.94    0.57
   1  -1 -12    9.12    0.47
   0  -1 -12    4.50    0.35
   0  -1 -12    4.70    0.40
  -1  -1 -12    0.03    0.20
  -2  -1 -12    0.22    0.19
  -3  -1 -12    0.18    0.17
  -3  -1 -12    0.16    0.18
  -4  -1 -12    0.31    0.20
  -5  -1 -12    2.90    0.35
  -6  -1 -12    0.95    0.27
  -7  -1 -12    0.78    0.30
  -8  -1 -12    0.59    0.32
   3  -2 -12    0.78    0.34
   2  -2 -12    3.24    0.46
   1  -2 -12    0.36    0.27
   1  -2 -12    0.66    0.19
   0  -2 -12   -0.33    0.19
   0  -2 -12    0.08    0.24
  -1  -2 -12    0.57    0.23
  -2  -2 -12    4.18    0.35
  -2  -2 -12    2.77    0.30
  -3  -2 -12    1.78    0.26
  -3  -2 -12    1.24    0.21
  -4  -2 -12    6.04    0.42
  -5  -2 -12    0.72    0.24
  -6  -2 -12    0.72    0.28
  -7  -2 -12    0.64    0.31
  -8  -2 -12    0.75    0.34
   3  -3 -12    0.15    0.35
   2  -3 -12    1.15    0.35
   1  -3 -12    5.27    0.51
   0  -3 -12    3.18    0.33
   0  -3 -12    3.64    0.43
  -1  -3 -12    4.29    0.35
  -2  -3 -12    1.62    0.24
  -3  -3 -12    0.31    0.18
  -3  -3 -12    0.37    0.17
  -4  -3 -12    2.72    0.32
  -5  -3 -12    0.95    0.25
  -6  -3 -12    1.22    0.28
  -7  -3 -12    0.70    0.31
  -8  -3 -12    0.19    0.34
   2  -4 -12    2.38    0.42
   1  -4 -12    0.39    0.34
   0  -4 -12    2.14    0.36
  -1  -4 -12    2.13    0.30
  -2  -4 -12   -0.22    0.15
  -2  -4 -12    0.59    0.21
  -3  -4 -12    1.66    0.26
  -3  -4 -12    1.43    0.24
  -4  -4 -12    2.27    0.32
  -5  -4 -12    2.92    0.35
  -6  -4 -12    2.38    0.36
  -7  -4 -12    0.70    0.31
  -8  -4 -12   -0.20    0.34
   2  -5 -12    0.48    0.38
   1  -5 -12    0.38    0.37
   0  -5 -12    4.82    0.55
  -1  -5 -12    1.74    0.36
  -2  -5 -12    3.04    0.29
  -3  -5 -12    1.91    0.35
  -3  -5 -12    2.17    0.29
  -4  -5 -12    1.91    0.31
  -5  -5 -12    2.34    0.35
  -6  -5 -12    0.42    0.27
  -7  -5 -12    1.66    0.33
  -8  -5 -12   -0.30    0.35
   1  -6 -12    0.51    0.39
   0  -6 -12    2.36    0.43
  -1  -6 -12    3.07    0.50
  -2  -6 -12    0.54    0.27
  -3  -6 -12    3.05    0.43
  -3  -6 -12    4.41    0.36
  -4  -6 -12    4.49    0.38
  -5  -6 -12    1.97    0.34
  -6  -6 -12    0.04    0.28
  -7  -6 -12   -0.06    0.32
  -8  -6 -12   -0.72    0.37
   0  -7 -12    0.16    0.41
  -1  -7 -12    5.19    0.60
  -2  -7 -12    0.65    0.31
  -3  -7 -12    1.59    0.34
  -4  -7 -12    0.67    0.26
  -5  -7 -12    0.20    0.27
  -6  -7 -12    0.10    0.29
  -7  -7 -12   -0.56    0.34
  -1  -8 -12    0.39    0.36
  -2  -8 -12    0.59    0.35
  -3  -8 -12   -0.34    0.29
  -5  -8 -12    2.25    0.33
  -6  -8 -12   -0.19    0.32
   1   5 -13   -0.16    0.20
  -1  -5  13    0.29    0.24
   0   5 -13   -0.33    0.20
   0  -5  13   -0.08    0.21
   1  -5  13    0.02    0.21
   2  -5  13   -0.11    0.20
   2   4 -13   -0.11    0.20
   1   4 -13    0.87    0.22
  -1  -4  13    0.57    0.25
   0   4 -13   -0.37    0.20
   0  -4  13   -0.33    0.22
  -1   4 -13    0.90    0.24
  -2   4 -13    0.20    0.23
   2  -4  13    0.34    0.22
  -3   4 -13    1.06    0.26
   3  -4  13    1.29    0.24
  -4   4 -13   -0.01    0.22
   3   3 -13   -0.24    0.20
   3   3 -13    0.37    0.26
   2   3 -13    0.65    0.24
   2   3 -13    0.30    0.21
   1   3 -13    1.92    0.29
   1   3 -13    2.53    0.32
   0   3 -13    3.47    0.34
   1  -3  13   -0.10    0.21
  -2   3 -13    0.03    0.22
   2  -3  13    0.38    0.22
  -3   3 -13   -0.13    0.22
   3  -3  13   -0.23    0.19
  -4   3 -13    1.15    0.26
  -5   3 -13    0.71    0.24
   3   2 -13    2.53    0.31
   3   2 -13    2.66    0.42
   2   2 -13   -0.01    0.19
   2   2 -13   -0.05    0.25
   1   2 -13    2.50    0.31
   1   2 -13    2.67    0.34
   0   2 -13    1.16    0.24
   0   2 -13    1.38    0.24
  -1   2 -13   -0.14    0.19
   2  -2  13    1.40    0.25
  -3   2 -13    0.41    0.23
   3  -2  13    0.04    0.20
  -4   2 -13    1.13    0.26
  -5   2 -13    0.54    0.24
   3   1 -13    0.65    0.33
   3   1 -13    0.75    0.21
   2   1 -13    1.78    0.32
   2   1 -13    2.38    0.28
   1   1 -13   -0.03    0.19
   1   1 -13    0.05    0.23
   0   1 -13    1.69    0.26
   0   1 -13    2.17    0.31
  -1   1 -13    1.30    0.25
  -1   1 -13    1.76    0.29
  -2   1 -13    3.14    0.32
  -2   1 -13    2.65    0.33
  -3   1 -13   -0.06    0.21
   3  -1  13   -0.33    0.19
  -4   1 -13    0.37    0.23
  -5   1 -13    2.31    0.35
  -6   1 -13    2.36    0.37
   3   0 -13    0.65    0.34
   2   0 -13    5.84    0.38
   2   0 -13    5.50    0.49
   1   0 -13   -0.08    0.20
   1   0 -13    0.17    0.25
   0   0 -13    1.78    0.33
   0   0 -13    1.75    0.30
  -1   0 -13    0.83    0.23
  -2   0 -13    0.89    0.23
  -2   0 -13    1.71    0.30
  -3   0 -13    1.17    0.24
  -3   0 -13    0.72    0.19
  -4   0 -13    0.51    0.22
  -5   0 -13    0.91    0.25
  -6   0 -13    0.72    0.26
  -7   0 -13    0.86    0.28
   3  -1 -13   -0.11    0.33
   2  -1 -13   -0.19    0.29
   1  -1 -13    0.77    0.22
   1  -1 -13    0.67    0.28
   0  -1 -13    2.33    0.36
   0  -1 -13    1.90    0.26
  -1  -1 -13    0.46    0.23
  -2  -1 -13    3.49    0.35
  -2  -1 -13    5.23    0.38
  -3  -1 -13    1.83    0.29
  -3  -1 -13    2.22    0.30
  -4  -1 -13    0.51    0.21
  -5  -1 -13    0.52    0.23
  -6  -1 -13    2.36    0.38
  -7  -1 -13    0.73    0.30
   2  -2 -13    2.92    0.48
   1  -2 -13    3.37    0.33
   1  -2 -13    3.55    0.45
   0  -2 -13    0.91    0.29
   0  -2 -13    0.48    0.23
  -1  -2 -13    0.64    0.25
  -2  -2 -13    1.83    0.25
  -3  -2 -13    0.03    0.17
  -3  -2 -13    0.12    0.18
  -4  -2 -13    4.90    0.37
  -5  -2 -13    0.94    0.25
  -6  -2 -13    0.82    0.27
  -7  -2 -13    0.67    0.31
   2  -3 -13    0.07    0.35
   1  -3 -13    0.22    0.33
   0  -3 -13    0.41    0.30
   0  -3 -13    0.20    0.22
  -1  -3 -13    1.46    0.29
  -2  -3 -13    1.99    0.26
  -3  -3 -13    0.63    0.19
  -3  -3 -13    0.94    0.23
  -4  -3 -13    1.85    0.29
  -5  -3 -13    1.00    0.25
  -7  -3 -13    0.78    0.32
   1  -4 -13    7.47    0.64
   0  -4 -13    2.63    0.47
  -1  -4 -13    0.46    0.30
  -2  -4 -13    0.12    0.22
  -3  -4 -13    1.29    0.26
  -3  -4 -13    1.45    0.25
  -5  -4 -13    5.22    0.42
  -6  -4 -13    1.27    0.30
  -7  -4 -13    0.40    0.32
   1  -5 -13    0.35    0.41
   0  -5 -13    0.94    0.40
  -1  -5 -13    1.09    0.37
  -2  -5 -13    2.83    0.30
  -3  -5 -13    1.79    0.28
  -4  -5 -13    3.34    0.36
  -5  -5 -13    2.14    0.37
  -6  -5 -13    1.10    0.31
  -7  -5 -13   -0.06    0.32
   0  -6 -13    0.99    0.44
  -1  -6 -13    5.05    0.59
  -2  -6 -13    0.24    0.29
  -3  -6 -13    0.14    0.25
  -3  -6 -13    1.09    0.23
  -4  -6 -13    4.31    0.40
  -5  -6 -13    1.40    0.30
  -6  -6 -13    2.47    0.39
  -7  -6 -13    0.29    0.33
  -1  -7 -13    0.63    0.37
  -2  -7 -13    0.14    0.33
  -4  -7 -13    1.23    0.29
  -5  -7 -13    0.64    0.30
  -6  -7 -13    0.58    0.32
  -5  -8 -13    2.22    0.35
   0   4 -14   -0.34    0.21
   0  -4  14   -0.16    0.24
  -1   4 -14   -0.28    0.22
   1  -4  14    0.05    0.23
  -2   4 -14    0.93    0.28
   2  -4  14    1.69    0.27
   1   3 -14    1.04    0.24
  -1   3 -14    0.55    0.25
  -2   3 -14   -0.02    0.23
   2  -3  14    0.05    0.23
  -3   3 -14    0.67    0.27
   3  -3  14    0.82    0.24
   1   2 -14    0.33    0.22
   1   2 -14    0.50    0.24
   0   2 -14    0.30    0.23
   0   2 -14    0.48    0.23
  -1   2 -14   -0.24    0.18
  -2   2 -14   -0.46    0.21
   2  -2  14   -0.02    0.23
  -3   2 -14    0.20    0.24
   3  -2  14   -0.04    0.22
  -4   2 -14    0.99    0.27
   2   1 -14   -0.03    0.21
   2   1 -14    0.00    0.29
   1   1 -14    0.28    0.26
   1   1 -14   -0.19    0.21
   0   1 -14    0.16    0.24
   0   1 -14   -0.39    0.21
  -1   1 -14    0.73    0.23
  -1   1 -14   -0.05    0.22
  -2   1 -14    0.28    0.19
  -2   1 -14   -0.30    0.21
  -3   1 -14    2.08    0.33
   3  -1  14    1.69    0.27
  -4   1 -14    1.04    0.26
  -5   1 -14    0.95    0.27
   2   0 -14    0.18    0.31
   2   0 -14    0.51    0.22
   1   0 -14    1.19    0.25
   1   0 -14    1.40    0.31
   0   0 -14    3.98    0.40
   0   0 -14    3.07    0.37
  -1   0 -14    0.40    0.23
  -2   0 -14    0.04    0.21
  -2   0 -14    0.52    0.21
  -3   0 -14    0.08    0.19
  -3   0 -14    0.11    0.21
  -4   0 -14    2.02    0.33
  -5   0 -14    0.82    0.26
  -6   0 -14    1.06    0.28
   1  -1 -14   -0.03    0.22
   1  -1 -14    0.29    0.30
   0  -1 -14   -0.46    0.21
   0  -1 -14    0.04    0.27
  -1  -1 -14    0.14    0.24
  -2  -1 -14   -0.22    0.18
  -2  -1 -14    0.23    0.21
  -3  -1 -14    4.50    0.38
  -3  -1 -14    4.40    0.38
  -5  -1 -14    1.16    0.26
  -6  -1 -14    1.14    0.28
   1  -2 -14    2.75    0.47
   0  -2 -14    2.28    0.41
   0  -2 -14    1.86    0.28
  -1  -2 -14    0.95    0.28
  -2  -2 -14   -0.11    0.19
  -2  -2 -14    0.77    0.25
  -3  -2 -14   -0.27    0.19
  -3  -2 -14    0.27    0.18
  -4  -2 -14    0.62    0.21
  -5  -2 -14    1.96    0.32
   1  -3 -14   -0.14    0.34
   0  -3 -14    0.63    0.33
  -1  -3 -14    0.09    0.25
  -2  -3 -14    0.22    0.22
  -3  -3 -14    1.96    0.33
  -3  -3 -14    1.73    0.26
  -4  -3 -14    1.56    0.27
  -5  -3 -14    2.49    0.34
  -6  -3 -14    1.21    0.30
   0  -4 -14    0.81    0.38
  -1  -4 -14    5.51    0.52
  -1  -4 -14    4.62    0.40
  -2  -4 -14    0.28    0.24
  -3  -4 -14    0.64    0.23
  -4  -4 -14    2.01    0.30
  -5  -4 -14    2.97    0.36
  -6  -4 -14    1.40    0.32
  -1  -5 -14    0.33    0.32
  -2  -5 -14   -0.09    0.27
  -2  -5 -14   -0.14    0.21
  -3  -5 -14    2.23    0.29
  -5  -5 -14    2.93    0.39
  -6  -5 -14    0.95    0.32
  -2  -6 -14    0.48    0.32
  -3  -6 -14    3.90    0.37
  -4  -6 -14    2.47    0.35
  -5  -6 -14    1.30    0.31
  -2   2 -15    1.80    0.31
   2  -2  15    2.46    0.39
   0   1 -15   -0.03    0.25
  -1   1 -15    0.14    0.21
  -2   1 -15    0.58    0.26
  -2   1 -15    1.15    0.26
  -3   1 -15    0.96    0.27
   3  -1  15    0.39    0.26
   0   0 -15   -0.45    0.23
   0   0 -15    0.39    0.28
  -1   0 -15    1.31    0.29
  -2   0 -15   -0.40    0.21
  -2   0 -15   -0.04    0.20
  -3   0 -15    0.64    0.23
  -3   0 -15    0.58    0.21
  -4   0 -15    1.10    0.26
   0  -1 -15    0.66    0.31
   0  -1 -15    0.13    0.26
  -1  -1 -15    0.42    0.25
  -2  -1 -15    0.01    0.21
  -3  -1 -15    0.36    0.21
  -3  -1 -15    0.90    0.23
  -4  -1 -15    2.35    0.33
  -5  -1 -15    1.00    0.26
  -1  -2 -15    0.87    0.27
  -1  -2 -15   -0.14    0.23
  -2  -2 -15    0.80    0.24
  -2  -2 -15    0.32    0.21
  -3  -2 -15    0.47    0.20
  -4  -2 -15    2.29    0.32
  -1  -3 -15   -0.28    0.27
  -2  -3 -15   -0.03    0.24
  -3  -3 -15    0.53    0.20
  -4  -3 -15    2.60    0.31
  -5  -3 -15    1.95    0.32
  -2  -4 -15    0.13    0.27
  -3  -4 -15    3.16    0.33
  -4  -4 -15    2.58    0.31
   0   0   0    0.00    0.00
;
_shelx_hkl_checksum              71606
loop_
_space_group_symop_operation_xyz
'x, y, z'
'-x, -y, -z'
loop_
_atom_site_label
_atom_site_type_symbol
_atom_site_fract_x
_atom_site_fract_y
_atom_site_fract_z
_atom_site_U_iso_or_equiv
_atom_site_adp_type
_atom_site_occupancy
_atom_site_site_symmetry_order
_atom_site_calc_flag
_atom_site_refinement_flags_posn
_atom_site_refinement_flags_adp
Br1 Br 0.42146(7) 0.28058(5) 0.63833(4) 0.06091(18) Uani 1 1 d . .
C1 C 1.2902(7) -0.0399(6) -0.1027(4) 0.0591(12) Uani 1 1 d . .
H1 H 1.224573 0.039054 -0.144061 0.071 Uiso 1 1 calc R U
C2 C 1.4031(7) -0.1681(7) -0.1570(5) 0.0749(16) Uani 1 1 d . .
H2 H 1.413895 -0.175589 -0.234671 0.090 Uiso 1 1 calc R U
C3 C 1.5004(7) -0.2854(6) -0.0962(5) 0.0737(16) Uani 1 1 d . .
H3 H 1.575276 -0.372832 -0.132667 0.088 Uiso 1 1 calc R U
C4 C 1.4871(7) -0.2735(6) 0.0180(5) 0.0717(15) Uani 1 1 d . .
H4 H 1.554338 -0.352564 0.058524 0.086 Uiso 1 1 calc R U
C5 C 1.3737(6) -0.1442(5) 0.0733(4) 0.0545(11) Uani 1 1 d . .
H5 H 1.365561 -0.136538 0.150634 0.065 Uiso 1 1 calc R U
C6 C 1.2726(6) -0.0265(4) 0.0137(3) 0.0444(9) Uani 1 1 d . .
C7 C 1.1500(6) 0.1152(4) 0.0671(3) 0.0452(9) Uani 1 1 d . .
C8 C 1.1103(5) 0.1270(4) 0.1969(3) 0.0397(8) Uani 1 1 d . .
H8 H 1.223826 0.122787 0.217289 0.048 Uiso 1 1 calc R U
C9 C 0.9554(5) 0.2700(4) 0.2443(3) 0.0387(8) Uani 1 1 d . .
H9 H 0.876656 0.309324 0.189464 0.046 Uiso 1 1 calc R U
C10 C 0.8489(5) 0.2083(4) 0.3495(3) 0.0385(8) Uani 1 1 d . .
C11 C 0.7037(5) 0.2772(4) 0.4368(3) 0.0422(9) Uani 1 1 d . .
H11 H 0.658703 0.379922 0.440590 0.051 Uiso 1 1 calc R U
C12 C 0.6270(5) 0.1892(4) 0.5185(3) 0.0437(9) Uani 1 1 d . .
C13 C 0.6917(6) 0.0368(4) 0.5149(3) 0.0468(9) Uani 1 1 d . .
H13 H 0.637423 -0.019210 0.571654 0.056 Uiso 1 1 calc R U
C14 C 0.8372(6) -0.0334(4) 0.4271(3) 0.0463(9) Uani 1 1 d . .
H14 H 0.881715 -0.136100 0.423049 0.056 Uiso 1 1 calc R U
C15 C 0.9135(5) 0.0553(4) 0.3460(3) 0.0399(8) Uani 1 1 d . .
C16 C 1.0273(5) 0.3893(4) 0.2642(3) 0.0361(8) Uani 1 1 d . .
C17 C 1.0109(5) 0.5152(4) 0.1920(3) 0.0423(9) Uani 1 1 d . .
H17 H 0.952267 0.527768 0.132215 0.051 Uiso 1 1 calc R U
C18 C 1.0818(6) 0.6218(4) 0.2088(4) 0.0518(11) Uani 1 1 d . .
H18 H 1.070259 0.705649 0.160166 0.062 Uiso 1 1 calc R U
C19 C 1.1683(6) 0.6049(4) 0.2962(4) 0.0512(10) Uani 1 1 d . .
H19 H 1.215750 0.676789 0.306802 0.061 Uiso 1 1 calc R U
C20 C 1.1850(7) 0.4821(5) 0.3681(4) 0.0538(11) Uani 1 1 d . .
H20 H 1.244762 0.469862 0.427202 0.065 Uiso 1 1 calc R U
C21 C 1.1123(6) 0.3754(4) 0.3526(3) 0.0481(10) Uani 1 1 d . .
H21 H 1.121509 0.293283 0.402951 0.058 Uiso 1 1 calc R U
O1 O 1.0847(6) 0.2228(4) 0.0105(3) 0.0736(10) Uani 1 1 d . .
O2 O 1.0556(4) 0.0015(3) 0.2536(2) 0.0474(7) Uani 1 1 d . .
loop_
_atom_site_aniso_label
_atom_site_aniso_U_11
_atom_site_aniso_U_22
_atom_site_aniso_U_33
_atom_site_aniso_U_23
_atom_site_aniso_U_13
_atom_site_aniso_U_12
Br1 0.0539(3) 0.0605(3) 0.0587(3) -0.0075(2) 0.0058(2) -0.0188(2)
C1 0.054(3) 0.076(3) 0.049(2) -0.019(2) -0.007(2) -0.020(2)
C2 0.057(3) 0.104(4) 0.067(3) -0.039(3) 0.000(3) -0.030(3)
C3 0.054(3) 0.071(3) 0.088(4) -0.038(3) 0.017(3) -0.023(3)
C4 0.059(3) 0.054(3) 0.083(4) -0.005(3) 0.008(3) -0.013(2)
C5 0.056(3) 0.051(2) 0.051(2) -0.0038(19) 0.001(2) -0.019(2)
C6 0.044(2) 0.048(2) 0.043(2) -0.0085(17) 0.0002(17) -0.0224(18)
C7 0.052(2) 0.045(2) 0.041(2) -0.0001(17) -0.0102(18) -0.0201(19)
C8 0.045(2) 0.0323(17) 0.044(2) 0.0024(15) -0.0113(17) -0.0156(16)
C9 0.045(2) 0.0331(17) 0.0406(19) 0.0019(15) -0.0130(17) -0.0143(16)
C10 0.045(2) 0.0317(17) 0.042(2) 0.0007(15) -0.0120(17) -0.0166(16)
C11 0.043(2) 0.0337(18) 0.050(2) -0.0031(16) -0.0083(18) -0.0132(16)
C12 0.039(2) 0.046(2) 0.045(2) -0.0033(17) -0.0065(17) -0.0149(17)
C13 0.052(2) 0.044(2) 0.046(2) 0.0082(17) -0.0101(19) -0.0221(18)
C14 0.055(2) 0.0317(18) 0.049(2) 0.0027(16) -0.0085(19) -0.0143(17)
C15 0.045(2) 0.0339(17) 0.042(2) -0.0020(15) -0.0106(17) -0.0135(16)
C16 0.0375(19) 0.0287(16) 0.0384(19) -0.0014(14) -0.0055(16) -0.0085(14)
C17 0.044(2) 0.0379(19) 0.044(2) 0.0057(16) -0.0131(18) -0.0126(17)
C18 0.055(3) 0.0345(19) 0.066(3) 0.0095(18) -0.013(2) -0.0185(18)
C19 0.051(2) 0.038(2) 0.064(3) -0.0135(19) -0.003(2) -0.0189(18)
C20 0.068(3) 0.057(3) 0.043(2) -0.0088(19) -0.018(2) -0.022(2)
C21 0.067(3) 0.040(2) 0.041(2) 0.0044(16) -0.015(2) -0.0218(19)
O1 0.102(3) 0.0549(19) 0.0468(18) 0.0053(15) -0.0208(18) -0.0050(18)
O2 0.0595(18) 0.0305(12) 0.0448(15) -0.0010(11) -0.0003(13) -0.0141(12)
loop_
_atom_type_symbol
_atom_type_description
_atom_type_scat_dispersion_real
_atom_type_scat_dispersion_imag
_atom_type_scat_source
C C 0.0033 0.0016 'International Tables Vol C Tables 4.2.6.8 and 6.1.1.4'
H H 0.0000 0.0000 'International Tables Vol C Tables 4.2.6.8 and 6.1.1.4'
Br Br -0.2901 2.4595 'International Tables Vol C Tables 4.2.6.8 and 6.1.1.4'
O O 0.0106 0.0060 'International Tables Vol C Tables 4.2.6.8 and 6.1.1.4'
loop_
_geom_angle_atom_site_label_1
_geom_angle_atom_site_label_2
_geom_angle_atom_site_label_3
_geom_angle
C2 C1 C6 120.9(5)
C2 C1 H1 119.6
C6 C1 H1 119.6
C1 C2 C3 119.9(5)
C1 C2 H2 120.1
C3 C2 H2 120.1
C4 C3 C2 120.1(5)
C4 C3 H3 119.9
C2 C3 H3 119.9
C3 C4 C5 120.3(5)
C3 C4 H4 119.9
C5 C4 H4 119.9
C6 C5 C4 120.1(5)
C6 C5 H5 119.9
C4 C5 H5 119.9
C5 C6 C1 118.7(4)
C5 C6 C7 123.0(4)
C1 C6 C7 118.3(4)
O1 C7 C6 121.6(4)
O1 C7 C8 119.0(4)
C6 C7 C8 119.4(3)
O2 C8 C7 109.3(3)
O2 C8 C9 107.5(3)
C7 C8 C9 114.3(3)
O2 C8 H8 108.5
C7 C8 H8 108.5
C9 C8 H8 108.5
C10 C9 C16 116.3(3)
C10 C9 C8 101.0(3)
C16 C9 C8 113.4(3)
C10 C9 H9 108.6
C16 C9 H9 108.6
C8 C9 H9 108.6
C11 C10 C15 119.8(3)
C11 C10 C9 131.6(3)
C15 C10 C9 108.5(3)
C10 C11 C12 118.0(3)
C10 C11 H11 121.0
C12 C11 H11 121.0
C13 C12 C11 122.0(4)
C13 C12 Br1 118.7(3)
C11 C12 Br1 119.3(3)
C12 C13 C14 120.3(3)
C12 C13 H13 119.8
C14 C13 H13 119.8
C15 C14 C13 117.3(3)
C15 C14 H14 121.4
C13 C14 H14 121.4
O2 C15 C14 123.7(3)
O2 C15 C10 113.8(3)
C14 C15 C10 122.5(4)
C21 C16 C17 118.3(3)
C21 C16 C9 121.1(3)
C17 C16 C9 120.6(3)
C18 C17 C16 120.2(4)
C18 C17 H17 119.9
C16 C17 H17 119.9
C19 C18 C17 120.6(4)
C19 C18 H18 119.7
C17 C18 H18 119.7
C20 C19 C18 119.9(4)
C20 C19 H19 120.1
C18 C19 H19 120.1
C19 C20 C21 119.9(4)
C19 C20 H20 120.0
C21 C20 H20 120.0
C16 C21 C20 121.1(4)
C16 C21 H21 119.5
C20 C21 H21 119.5
C15 O2 C8 106.9(3)
loop_
_geom_bond_atom_site_label_1
_geom_bond_atom_site_label_2
_geom_bond_distance
Br1 C12 1.906(4)
C1 C2 1.373(7)
C1 C6 1.394(6)
C1 H1 0.9300
C2 C3 1.376(8)
C2 H2 0.9300
C3 C4 1.373(8)
C3 H3 0.9300
C4 C5 1.387(6)
C4 H4 0.9300
C5 C6 1.383(6)
C5 H5 0.9300
C6 C7 1.482(6)
C7 O1 1.202(5)
C7 C8 1.529(5)
C8 O2 1.457(4)
C8 C9 1.546(5)
C8 H8 0.9800
C9 C10 1.514(5)
C9 C16 1.515(5)
C9 H9 0.9800
C10 C11 1.377(5)
C10 C15 1.384(5)
C11 C12 1.381(5)
C11 H11 0.9300
C12 C13 1.379(5)
C13 C14 1.386(6)
C13 H13 0.9300
C14 C15 1.380(5)
C14 H14 0.9300
C15 O2 1.369(5)
C16 C21 1.374(6)
C16 C17 1.391(5)
C17 C18 1.387(6)
C17 H17 0.9300
C18 C19 1.366(6)
C18 H18 0.9300
C19 C20 1.366(6)
C19 H19 0.9300
C20 C21 1.391(6)
C20 H20 0.9300
C21 H21 0.9300
loop_
_geom_torsion_atom_site_label_1
_geom_torsion_atom_site_label_2
_geom_torsion_atom_site_label_3
_geom_torsion_atom_site_label_4
_geom_torsion
C6 C1 C2 C3 0.1(7)
C1 C2 C3 C4 -1.1(8)
C2 C3 C4 C5 0.9(8)
C3 C4 C5 C6 0.3(7)
C4 C5 C6 C1 -1.3(6)
C4 C5 C6 C7 -179.5(4)
C2 C1 C6 C5 1.1(7)
C2 C1 C6 C7 179.4(4)
C5 C6 C7 O1 169.1(4)
C1 C6 C7 O1 -9.2(6)
C5 C6 C7 C8 -8.8(6)
C1 C6 C7 C8 172.9(4)
O1 C7 C8 O2 132.6(4)
C6 C7 C8 O2 -49.4(5)
O1 C7 C8 C9 12.1(5)
C6 C7 C8 C9 -169.9(3)
O2 C8 C9 C10 15.0(4)
C7 C8 C9 C10 136.5(3)
O2 C8 C9 C16 140.2(3)
C7 C8 C9 C16 -98.4(4)
C16 C9 C10 C11 50.2(6)
C8 C9 C10 C11 173.3(4)
C16 C9 C10 C15 -133.5(3)
C8 C9 C10 C15 -10.3(4)
C15 C10 C11 C12 -0.1(6)
C9 C10 C11 C12 175.9(4)
C10 C11 C12 C13 0.2(6)
C10 C11 C12 Br1 -178.3(3)
C11 C12 C13 C14 -0.5(7)
Br1 C12 C13 C14 178.0(3)
C12 C13 C14 C15 0.6(6)
C13 C14 C15 O2 -178.9(4)
C13 C14 C15 C10 -0.6(6)
C11 C10 C15 O2 178.8(3)
C9 C10 C15 O2 1.9(5)
C11 C10 C15 C14 0.3(6)
C9 C10 C15 C14 -176.5(4)
C10 C9 C16 C21 44.8(5)
C8 C9 C16 C21 -71.6(5)
C10 C9 C16 C17 -136.1(4)
C8 C9 C16 C17 107.5(4)
C21 C16 C17 C18 1.0(6)
C9 C16 C17 C18 -178.2(4)
C16 C17 C18 C19 0.0(6)
C17 C18 C19 C20 -0.2(7)
C18 C19 C20 C21 -0.6(7)
C17 C16 C21 C20 -1.7(6)
C9 C16 C21 C20 177.4(4)
C19 C20 C21 C16 1.6(7)
C14 C15 O2 C8 -173.4(4)
C10 C15 O2 C8 8.2(4)
C7 C8 O2 C15 -139.2(3)
C9 C8 O2 C15 -14.7(4)
