#------------------------------------------------------------------------------
#$Date: 2019-11-04 11:22:04 +0200 (Mon, 04 Nov 2019) $
#$Revision: 222589 $
#$URL: file:///home/coder/svn-repositories/cod/cif/4/03/40/4034029.cif $
#------------------------------------------------------------------------------
#
# This file is available in the Crystallography Open Database (COD),
# http://www.crystallography.net/
#
# All data on this site have been placed in the public domain by the
# contributors.
#
data_4034029
loop_
_publ_author_name
'Manabe, Yumehiro'
'Uesaka, Mitsuharu'
'Yoneda, Tomoki'
'Inokuma, Yasuhide'
_publ_section_title
;
 Two-Step Transformation of Aliphatic Polyketones into \p-Conjugated
 Polyimines.
;
_journal_issue                   16
_journal_name_full               'The Journal of organic chemistry'
_journal_page_first              9957
_journal_page_last               9964
_journal_paper_doi               10.1021/acs.joc.9b01119
_journal_volume                  84
_journal_year                    2019
_chemical_formula_moiety         'C14 H20 N4'
_chemical_formula_sum            'C14 H20 N4'
_chemical_formula_weight         244.34
_space_group_crystal_system      monoclinic
_space_group_IT_number           14
_space_group_name_Hall           '-P 2yn'
_space_group_name_H-M_alt        'P 1 21/n 1'
_atom_sites_solution_hydrogens   geom
_audit_creation_method           SHELXL-2018/3
_cell_angle_alpha                90
_cell_angle_beta                 104.044(8)
_cell_angle_gamma                90
_cell_formula_units_Z            2
_cell_length_a                   6.1286(4)
_cell_length_b                   12.4667(8)
_cell_length_c                   9.5271(8)
_cell_measurement_reflns_used    2413
_cell_measurement_temperature    123(2)
_cell_measurement_theta_max      28.4990
_cell_measurement_theta_min      3.2780
_cell_volume                     706.15(9)
_computing_cell_refinement       'CrysAlisPro 1.171.39.43a (Rigaku OD, 2018)'
_computing_data_collection       'CrysAlisPro 1.171.39.43a (Rigaku OD, 2018)'
_computing_data_reduction        'CrysAlisPro 1.171.39.43a (Rigaku OD, 2018)'
_computing_structure_refinement  'SHELXL-2018/3 (Sheldrick, 2018)'
_computing_structure_solution    'SHELXT 2018/2 (Sheldrick, 2018)'
_diffrn_ambient_temperature      123(2)
_diffrn_detector                 'CCD plate'
_diffrn_measured_fraction_theta_full 0.994
_diffrn_measured_fraction_theta_max 0.989
_diffrn_measurement_device       'four-circle diffractometer'
_diffrn_measurement_device_type  'XtaLAB AFC11 (RCD3): quarter-chi single'
_diffrn_radiation_monochromator  mirror
_diffrn_radiation_probe          x-ray
_diffrn_radiation_type           MoK\a
_diffrn_radiation_wavelength     0.71073
_diffrn_reflns_av_R_equivalents  0.0324
_diffrn_reflns_av_unetI/netI     0.0280
_diffrn_reflns_Laue_measured_fraction_full 0.994
_diffrn_reflns_Laue_measured_fraction_max 0.989
_diffrn_reflns_limit_h_max       7
_diffrn_reflns_limit_h_min       -6
_diffrn_reflns_limit_k_max       13
_diffrn_reflns_limit_k_min       -15
_diffrn_reflns_limit_l_max       11
_diffrn_reflns_limit_l_min       -11
_diffrn_reflns_number            5932
_diffrn_reflns_point_group_measured_fraction_full 0.994
_diffrn_reflns_point_group_measured_fraction_max 0.989
_diffrn_reflns_theta_full        25.242
_diffrn_reflns_theta_max         25.990
_diffrn_reflns_theta_min         2.743
_diffrn_source                   'Rotating-anode X-ray tube (dual wavelength)'
_diffrn_source_type              'Rigaku (Mo) X-ray DW Source'
_exptl_absorpt_coefficient_mu    0.071
_exptl_absorpt_correction_T_max  1.00000
_exptl_absorpt_correction_T_min  0.43754
_exptl_absorpt_correction_type   multi-scan
_exptl_absorpt_process_details
;
CrysAlisPro 1.171.39.43a (Rigaku Oxford Diffraction, 2018)
Empirical absorption correction using spherical harmonics,
 implemented in SCALE3 ABSPACK scaling algorithm.
;
_exptl_crystal_colour            brown
_exptl_crystal_density_diffrn    1.149
_exptl_crystal_density_method    'not measured'
_exptl_crystal_description       plate
_exptl_crystal_F_000             264
_exptl_crystal_size_max          0.450
_exptl_crystal_size_mid          0.310
_exptl_crystal_size_min          0.090
_refine_diff_density_max         0.252
_refine_diff_density_min         -0.129
_refine_diff_density_rms         0.036
_refine_ls_extinction_method     none
_refine_ls_goodness_of_fit_ref   1.100
_refine_ls_hydrogen_treatment    constr
_refine_ls_matrix_type           full
_refine_ls_number_parameters     85
_refine_ls_number_reflns         1381
_refine_ls_number_restraints     0
_refine_ls_restrained_S_all      1.100
_refine_ls_R_factor_all          0.0548
_refine_ls_R_factor_gt           0.0439
_refine_ls_shift/su_max          0.000
_refine_ls_shift/su_mean         0.000
_refine_ls_structure_factor_coef Fsqd
_refine_ls_weighting_details
'w=1/[\s^2^(Fo^2^)+(0.0485P)^2^+0.2053P] where P=(Fo^2^+2Fc^2^)/3'
_refine_ls_weighting_scheme      calc
_refine_ls_wR_factor_gt          0.1046
_refine_ls_wR_factor_ref         0.1106
_reflns_Friedel_coverage         0.000
_reflns_number_gt                1149
_reflns_number_total             1381
_reflns_threshold_expression     'I > 2\s(I)'
_cod_data_source_file            jo9b01119_si_003.cif
_cod_data_source_block           UMEX406_2
_cod_original_sg_symbol_H-M      'P 21/n'
_cod_database_code               4034029
_shelx_shelxl_version_number     2018/3
_shelx_space_group_comment
;
The symmetry employed for this shelxl refinement is uniquely defined
by the following loop, which should always be used as a source of
symmetry information in preference to the above space-group names.
They are only intended as comments.
;
_shelx_estimated_absorpt_t_min   0.969
_shelx_estimated_absorpt_t_max   0.994
_shelx_res_file
;
TITL umex406_2_a.res in P2(1)/n
    UMEX406_2.res
    created by SHELXL-2018/3 at 19:20:57 on 06-Mar-2019
REM  Yadorkari-X generated
CELL 0.71073 6.1286 12.4667 9.5271 90.0000 104.0440 90.0000
ZERR 2.0 0.0004 0.0008 0.0008 0.0000 0.0080 0.0000
LATT 1
SYMM 1/2-X, 1/2+Y, 1/2-Z
REM  SPGR P21/n monoclinic
SFAC C H N
UNIT 28 40 8
SIZE 0.45 0.31 0.09
TEMP -150.0
L.S. 10
FMAP 2
PLAN -20
ACTA
CONF
LIST 4
OMIT -10.000000 52.000000

list 4
fmap 2

WGHT    0.048500    0.205300
FVAR       0.86091
N2    3    0.652534    0.589268    0.749862    11.00000    0.04157    0.02598 =
         0.02906    0.00045    0.01349   -0.00146
N1    3    0.740921    0.545551    0.634825    11.00000    0.04122    0.03249 =
         0.02956   -0.00110    0.01535   -0.00526
C3    1    0.672868    0.403837    0.777819    11.00000    0.02606    0.02172 =
         0.02240   -0.00166    0.00407   -0.00063
C4    1    0.611740    0.511270    0.829062    11.00000    0.02493    0.02314 =
         0.02348    0.00015    0.00333   -0.00167
C2    1    0.749416    0.442800    0.648642    11.00000    0.02392    0.03011 =
         0.02548   -0.00279    0.00488   -0.00350
C5    1    0.521664    0.535661    0.952621    11.00000    0.03032    0.02099 =
         0.02664   -0.00236    0.00551   -0.00056
AFIX  43
H10   2    0.490547    0.608824    0.967774    11.00000   -1.20000
AFIX   0
C6    1    0.474123    0.325963    0.732624    11.00000    0.03405    0.02932 =
         0.02991   -0.00449    0.00864   -0.00791
AFIX 137
H1    2    0.411956    0.310712    0.816074    11.00000   -1.50000
H2    2    0.525957    0.259025    0.697559    11.00000   -1.50000
H3    2    0.357590    0.358442    0.655389    11.00000   -1.50000
AFIX   0
C7    1    0.870223    0.352242    0.887735    11.00000    0.03595    0.03255 =
         0.02919   -0.00150    0.00105    0.00840
AFIX 137
H4    2    0.995730    0.403074    0.912028    11.00000   -1.50000
H5    2    0.918471    0.287302    0.845735    11.00000   -1.50000
H6    2    0.822405    0.333425    0.975582    11.00000   -1.50000
AFIX   0
C1    1    0.823856    0.370645    0.544904    11.00000    0.03366    0.04097 =
         0.03300   -0.00802    0.01206   -0.00293
AFIX 137
H7    2    0.691900    0.339130    0.478486    11.00000   -1.50000
H8    2    0.918186    0.313349    0.598289    11.00000   -1.50000
H9    2    0.910523    0.411920    0.489594    11.00000   -1.50000

AFIX   0
HKLF 4 1 1 0 0 0 1 0 0 0 1




REM  umex406_2_a.res in P2(1)/n
REM wR2 = 0.1106, GooF = S = 1.100, Restrained GooF = 1.100 for all data
REM R1 = 0.0439 for 1149 Fo > 4sig(Fo) and 0.0548 for all 1381 data
REM 85 parameters refined using 0 restraints

END

WGHT      0.0485      0.2053

REM Highest difference peak  0.252,  deepest hole -0.129,  1-sigma level  0.036
Q1    1   0.7194  0.4151  0.7171  11.00000  0.05    0.25
Q2    1   0.6420  0.4524  0.8098  11.00000  0.05    0.24
Q3    1   0.5933  0.3666  0.7589  11.00000  0.05    0.24
Q4    1   0.7472  0.3812  0.8332  11.00000  0.05    0.21
Q5    1   0.7811  0.4071  0.6008  11.00000  0.05    0.18
Q6    1   0.5642  0.5120  0.8862  11.00000  0.05    0.17
Q7    1   0.6690  0.5446  0.8217  11.00000  0.05    0.15
Q8    1   0.4254  0.4995  0.9708  11.00000  0.05    0.15
Q9    1   0.5741  0.5398  0.7763  11.00000  0.05    0.14
Q10   1   0.6869  0.4839  0.6144  11.00000  0.05    0.14
Q11   1   0.9628  0.3244  0.8284  11.00000  0.05    0.13
Q12   1   0.7815  0.4097  0.4348  11.00000  0.05    0.13
Q13   1   0.7444  0.5951  0.5620  11.00000  0.05    0.13
Q14   1   0.9662  0.3701  0.5221  11.00000  0.05    0.12
Q15   1   0.8292  0.4914  0.6719  11.00000  0.05    0.12
Q16   1   0.7537  0.2979  0.5341  11.00000  0.05    0.12
Q17   1   0.4712  0.2746  0.8327  11.00000  0.05    0.11
Q18   1   0.6000  0.6219  0.9763  11.00000  0.05    0.10
Q19   1   0.6899  0.5797  0.6930  11.00000  0.05    0.10
Q20   1   0.5920  0.6610  0.7243  11.00000  0.05    0.09
;
_shelx_res_checksum              6964
_shelx_hkl_file
;
   0  -1   1   -0.12    0.09
   0  -1   1   -0.18    0.26
   0   1   1   -0.20    0.29
   0  -1  -1   -0.03    0.12
   0  -1   2   16.86    0.80
   0  -1   2   15.96    1.04
   0  -1   2   17.31    1.11
   0   1   2   13.83    1.00
   0  -1   3   28.13    1.44
   0   1   3   26.19    1.43
   0  -1   3   29.19    1.51
   0  -1  -3   28.17    1.47
   0  -1   3   30.84    1.24
   0  -1  -4   16.30    1.30
   0  -1   4   20.04    1.42
   0  -1   4   16.89    1.33
   0  -1   4   20.75    1.08
   0   1   4   17.73    1.34
   0   1   5   70.42    3.01
   0  -1   5   75.54    3.17
   0  -1  -5   73.84    3.21
   0  -1   5   70.01    3.02
   0  -1   5   75.15    2.82
   0  -1  -6  107.83    4.55
   0  -1   6  111.55    4.06
   0  -1   6  110.11    4.27
   0   1   6  108.92    4.26
   0  -1   6  111.92    4.45
   0   1   7  144.73    5.52
   0  -1   7  152.85    5.58
   0  -1   7  143.63    5.34
   0  -1   7  152.37    5.82
   0  -1   8   21.45    2.37
   0  -1   8   22.73    1.77
   0  -1   8   28.03    2.26
   0   1   8   29.61    2.26
   0  -1   9   -3.95    2.21
   0  -1   9    1.61    1.27
   0  -1  10    1.67    1.41
   0  -1  10    0.99    2.28
   0  -1  11   17.20    2.04
   0  -2   0 2672.97   85.52
   0   2   0 2882.67   85.51
   0  -2   1  919.73   28.86
   0   2  -1  925.50   28.86
   0   2   1  978.09   28.84
   0  -2  -1  958.20   28.85
   0  -2   1  920.11   28.84
   0   2   1  911.00   28.84
   0  -2   2   23.58    1.19
   0  -2  -2   26.38    1.20
   0   2   2   26.12    1.18
   0   2  -2   26.46    1.08
   0   2   2   23.78    1.15
   0  -2   2   24.66    1.05
   0   2   3   70.45    2.76
   0  -2   3   74.73    2.61
   0   2   3   73.69    2.74
   0  -2   3   69.62    2.72
   0  -2  -3   78.56    2.82
   0   2   4  107.49    4.02
   0  -2   4  110.29    4.19
   0   2   4  109.43    4.05
   0  -2   4  106.10    4.03
   0  -2  -4  116.30    4.17
   0  -2   4  114.10    3.87
   0  -2   5    0.64    0.61
   0  -2  -5    0.06    0.92
   0   2   5   -0.40    1.03
   0   2   5   -0.69    1.07
   0  -2   5    0.58    1.10
   0  -2   5    0.49    1.06
   0  -2   6   84.07    3.75
   0  -2   6   87.65    3.60
   0  -2   6   88.52    3.40
   0   2   6   87.10    3.57
   0  -2  -6   92.28    3.86
   0   2   6   86.39    3.65
   0   2   7    1.58    1.42
   0  -2   7    1.97    1.44
   0  -2  -7    0.62    1.45
   0  -2   7    0.82    0.92
   0  -2   7    0.78    1.48
   0   2   7    0.34    1.44
   0  -2   8    3.44    1.86
   0   2   8    3.14    1.66
   0   2   8    2.00    1.67
   0  -2   8    0.76    1.15
   0  -2   8    1.96    1.71
   0  -2   9    3.17    1.38
   0   2   9   -1.14    2.04
   0  -2   9   -0.95    2.07
   0   2  10   64.95    3.23
   0  -2  10   68.43    3.39
   0   2  10   61.41    3.78
   0  -2  10   70.18    4.02
   0  -2  11   14.52    2.04
   0   2  11   17.26    2.05
   0  -3   0    0.30    0.34
   0   3   0    0.13    0.34
   0   3  -1   52.03    1.83
   0  -3   1   52.47    1.73
   0   3   1   49.87    1.78
   0  -3   1   49.40    1.79
   0  -3  -1   49.55    1.77
   0   3   1   53.08    1.73
   0   3   2   -0.02    0.48
   0  -3  -2    0.07    0.46
   0  -3   2   -0.23    0.36
   0  -3   2   -0.25    0.55
   0   3   2   -0.33    0.52
   0   3  -2    0.42    0.43
   0   3   3  259.01    8.20
   0   3   3  255.34    8.21
   0  -3   3  251.09    8.15
   0   3  -3  253.22    8.14
   0  -3   3  244.89    8.19
   0  -3  -3  257.47    8.31
   0  -3   4  103.69    3.84
   0   3   4  105.09    3.84
   0  -3   4  104.75    4.05
   0   3   4   98.69    3.81
   0  -3  -4  112.31    4.01
   0  -3   4  108.23    3.74
   0  -3   5  242.21    8.39
   0   3   5  232.10    8.12
   0  -3   5  232.95    8.11
   0   3   5  245.82    8.20
   0  -3  -5  246.96    8.38
   0  -3   5  257.23    8.08
   0  -3   6   24.96    2.05
   0  -3   6   25.82    1.82
   0   3   6   29.49    1.84
   0  -3  -6   27.22    1.99
   0   3   6   29.47    1.87
   0  -3   6   25.96    1.58
   0   3   7  105.52    4.34
   0  -3   7  110.66    4.25
   0   3   7  108.24    4.44
   0  -3   7  112.41    4.39
   0  -3  -7  111.79    4.80
   0  -3   7  110.70    4.70
   0  -3  -8  148.37    6.15
   0   3   8  151.74    5.62
   0  -3   8  143.16    5.50
   0   3   8  144.05    5.73
   0  -3   8  148.29    5.65
   0  -3   8  143.98    5.95
   0  -3   9   70.43    3.81
   0  -3   9   76.17    3.46
   0   3   9   71.71    3.73
   0  -3  10   26.63    2.23
   0   3  10   27.22    2.77
   0  -3  10   27.01    2.93
   0  -3  11   -0.64    1.66
   0   3  11    3.15    1.58
   0  -4   0  683.63   20.44
   0   4   0  637.06   20.43
   0   4   1 1181.74   35.43
   0   4   1 1143.53   35.42
   0  -4  -1 1159.87   35.54
   0  -4   1 1163.81   35.42
   0   4  -1 1129.95   35.57
   0  -4   1 1132.41   35.57
   0  -4   1 1144.14   35.42
   0   4   1 1125.93   35.54
   0  -4   2    7.99    0.67
   0  -4  -2   10.25    0.69
   0   4   2    9.07    0.66
   0   4   2    9.51    0.67
   0   4  -2    8.44    0.69
   0  -4   2    8.44    0.63
   0  -4   3   10.20    0.81
   0   4   3    9.79    0.91
   0  -4  -3    9.65    0.94
   0  -4   3    9.40    0.89
   0   4  -3   10.96    0.85
   0   4   3   10.69    0.87
   0  -4   4  352.74   11.44
   0  -4  -4  374.46   11.70
   0  -4   4  338.81   11.45
   0   4   4  359.01   11.47
   0   4   4  362.54   11.48
   0   4   5  131.63    4.83
   0  -4   5  142.66    5.20
   0  -4   5  134.46    4.78
   0  -4   5  135.36    4.84
   0   4   5  136.45    4.84
   0  -4  -5  130.97    5.05
   0  -4   6  268.17    9.09
   0   4   6  275.20    9.18
   0  -4   6  278.03    9.52
   0  -4  -6  283.21    9.54
   0   4   6  264.27    9.11
   0  -4   6  269.59    9.14
   0  -4   7   32.18    2.53
   0  -4   7   30.27    1.93
   0   4   7   36.69    2.20
   0   4   7   36.78    2.20
   0  -4   7   32.84    2.19
   0  -4  -7   31.93    2.44
   0   4   8   48.62    2.75
   0  -4   8   52.12    3.25
   0   4   8   48.13    2.86
   0  -4   8   44.22    2.88
   0  -4   8   46.19    2.57
   0  -4  -8   51.64    3.24
   0  -4   8   55.41    2.89
   0   4   8   53.96    2.78
   0   4   9   32.89    2.68
   0  -4   9   32.16    2.77
   0  -4  -9   34.51    2.97
   0  -4   9   38.67    2.35
   0  -4  10   -0.09    2.30
   0  -4  10    1.36    1.49
   0   4  10    2.57    2.21
   0   4  11    1.43    1.54
   0  -4  11    0.56    1.69
   0   5   0   -0.13    0.41
   0  -5   0    0.18    0.36
   0   5   1  156.02    4.80
   0  -5   1  149.60    4.99
   0   5   1  150.61    4.98
   0  -5   1  156.61    4.79
   0   5   1  153.20    4.80
   0  -5  -1  150.63    4.98
   0  -5   1  152.02    4.79
   0   5  -1  149.38    5.02
   0  -5   2   49.69    1.94
   0   5   2   50.07    1.91
   0   5  -2   50.64    1.96
   0  -5   2   49.45    1.82
   0   5   2   51.70    1.84
   0  -5  -2   50.58    1.94
   0  -5   3    4.82    0.73
   0   5   3    4.45    0.71
   0   5   3    5.24    0.74
   0   5  -3    4.30    0.71
   0  -5  -3    4.78    0.82
   0  -5   3    3.65    0.63
   0   5  -4    4.00    0.77
   0   5   4    5.39    0.91
   0  -5   4    3.76    0.84
   0   5   4    3.37    0.81
   0  -5  -4    3.57    0.97
   0  -5   4    3.50    0.73
   0   5   5    0.08    0.86
   0  -5   5    2.81    1.01
   0  -5   5    0.17    0.70
   0   5   5    2.29    1.03
   0  -5  -5   -0.12    1.00
   0  -5   6    7.81    1.29
   0  -5   6    6.35    1.06
   0  -5   6    4.40    1.61
   0  -5  -6    5.23    1.37
   0   5   6    3.83    1.19
   0   5   6    7.39    1.28
   0  -5   7   46.05    2.44
   0   5   7   42.30    2.39
   0   5   7   47.31    2.43
   0  -5   7   47.27    3.00
   0   5   7   35.27    2.40
   0  -5   7   42.71    2.32
   0  -5  -7   41.92    2.76
   0  -5   7   39.44    2.48
   0  -5   8   13.12    1.83
   0  -5  -8   10.49    2.08
   0   5   8    9.92    1.90
   0  -5   8    9.34    1.55
   0   5   8   13.95    1.76
   0  -5  -9  136.19    5.95
   0   5   9  121.17    5.25
   0  -5   9  131.45    5.22
   0  -5   9  130.51    5.41
   0  -5  10   12.29    2.58
   0   5  10   10.50    2.40
   0  -5  10    9.21    1.78
   0  -5  11   13.87    2.13
   0  -6   0    0.62    0.47
   0   6   0    0.64    0.53
   0  -6   1  137.82    4.85
   0  -6  -1  152.18    4.87
   0   6  -1  144.35    4.90
   0   6   1  160.11    4.93
   0  -6   2  130.81    4.28
   0  -6   2  132.62    4.49
   0  -6   2  132.38    4.30
   0   6   2  130.93    4.31
   0   6  -2  132.57    4.50
   0   6   2  141.63    4.48
   0  -6  -2  133.41    4.49
   0   6   2  131.99    4.30
   0  -6   3  309.98    9.86
   0  -6   3  325.77   10.04
   0  -6   3  293.80    9.87
   0   6   3  319.33    9.97
   0   6  -3  320.72   10.02
   0  -6  -3  326.03   10.12
   0   6   3  291.92    9.87
   0   6   3  313.43    9.87
   0   6  -4   97.40    3.38
   0   6   4   90.58    3.34
   0  -6  -4   87.83    3.57
   0   6   4   94.59    3.32
   0  -6   4   88.78    3.30
   0  -6   4   86.78    3.37
   0  -6   4   88.37    3.28
   0  -6  -5   19.68    1.67
   0   6   5   23.07    1.46
   0  -6   5   18.31    1.47
   0  -6   5   20.55    1.40
   0   6   5   20.16    1.47
   0  -6   5   23.07    1.44
   0   6   5   21.11    1.45
   0   6   6   21.62    1.63
   0  -6   6   18.40    1.74
   0  -6  -6   22.20    1.98
   0   6   6   22.08    1.65
   0  -6   6   21.31    2.27
   0  -6   6   23.03    1.68
   0   6   6   21.82    1.74
   0  -6   6   22.10    1.57
   0  -6   7   20.52    2.43
   0   6   7   18.05    1.89
   0  -6   7   20.48    1.72
   0   6   7   24.60    1.87
   0  -6   7   24.36    1.85
   0   6   7   20.02    1.77
   0  -6   7   18.23    1.89
   0  -6  -7   18.17    2.13
   0   6   8   27.45    2.09
   0  -6   8   20.61    1.83
   0   6   8   19.43    2.15
   0  -6  -8   23.30    2.47
   0  -6   8   27.98    2.09
   0  -6   8   23.34    2.21
   0  -6   9    3.57    1.49
   0  -6   9    4.65    2.10
   0   6   9    3.01    1.98
   0  -6  -9    2.27    2.08
   0  -6  10    5.49    1.74
   0   6  10    8.57    2.33
   0  -6  10    6.39    2.49
   0  -6 -10    5.66    2.49
   0   7   0    0.07    0.56
   0  -7   0   -0.07    0.50
   0  -7  -1   73.73    2.59
   0   7  -1   70.43    2.62
   0  -7   1   70.46    2.60
   0   7   1   70.89    2.58
   0   7   2   10.52    0.61
   0  -7   2    8.77    0.61
   0   7   2    9.50    0.62
   0   7   2   10.61    0.85
   0   7  -2    9.04    0.84
   0  -7   2   10.63    0.59
   0  -7   2    9.77    0.82
   0  -7  -2   10.55    0.86
   0   7   3  228.47    7.62
   0  -7   3  242.22    7.80
   0  -7  -3  229.13    7.86
   0  -7   3  227.34    7.60
   0   7   3  247.00    7.76
   0   7  -3  245.54    7.80
   0  -7   3  241.89    7.59
   0   7   3  237.81    7.60
   0  -7  -4   23.83    1.63
   0  -7   4   21.41    1.38
   0  -7   4   24.85    1.41
   0   7   4   25.37    1.41
   0  -7   4   25.42    1.34
   0   7  -4   22.40    1.40
   0   7   4   24.88    1.35
   0   7   4   25.33    1.41
   0   7   5   29.77    1.60
   0   7   5   26.69    1.61
   0  -7   5   25.43    1.66
   0  -7   5   30.70    1.59
   0   7   5   25.86    1.68
   0  -7  -5   24.71    1.89
   0  -7   5   26.92    1.65
   0   7  -5   26.77    1.61
   0  -7   6  121.10    5.09
   0   7   6  117.10    4.25
   0  -7   6  105.57    4.29
   0   7   6  106.08    4.30
   0  -7   6  111.43    4.36
   0   7   6  117.95    4.32
   0  -7   6  117.74    4.25
   0  -7  -6  109.33    4.72
   0  -7   7  108.54    4.09
   0   7   7  105.58    4.09
   0   7   7  102.27    4.13
   0  -7  -7   98.78    4.58
   0  -7   7   95.61    4.14
   0  -7   7  116.31    5.07
   0   7   7   99.61    4.19
   0  -7   7  100.74    4.20
   0  -7  -8   10.37    2.18
   0   7   8   13.46    1.79
   0  -7   8    7.16    1.51
   0   7   8    8.63    1.86
   0  -7   8   15.64    1.82
   0  -7   8   10.44    1.99
   0  -7   9    2.19    1.49
   0  -7   9    0.64    2.00
   0  -7  -9   -0.36    2.09
   0   7   9    3.94    1.98
   0   7  10    3.44    2.32
   0  -7  10    0.90    1.63
   0  -7 -10    0.41    2.35
   0  -7  10    1.52    2.27
   0  -8   0   23.61    1.17
   0   8   0   21.99    1.20
   0   8   1   -0.18    0.58
   0   8  -1    0.03    0.63
   0  -8   1   -0.30    0.64
   0  -8  -1    0.19    0.56
   0   8   2   71.37    2.39
   0  -8   2   69.78    2.37
   0   8   2   77.32    2.80
   0   8  -2   73.51    2.78
   0  -8   2   72.72    2.71
   0  -8   3   45.37    1.67
   0  -8   3   43.17    1.93
   0  -8   3   41.03    1.67
   0  -8  -3   40.22    2.01
   0   8   3   41.25    1.90
   0   8   3   46.21    1.71
   0   8  -3   38.65    1.90
   0   8   3   42.85    1.67
   0   8   4    1.88    0.91
   0  -8   4    3.37    0.85
   0  -8   4    1.80    0.93
   0   8  -4    1.20    0.91
   0   8   4    1.89    0.91
   0  -8  -4    1.90    1.09
   0  -8   4    1.65    0.84
   0   8   4    2.48    0.86
   0   8   5   17.77    1.38
   0   8  -5   17.09    1.40
   0  -8   5   16.63    1.37
   0   8   5   17.24    1.39
   0  -8   5   19.27    1.40
   0  -8  -5   16.85    1.77
   0   8   5   15.67    1.44
   0  -8   5   17.26    1.47
   0   8   6    3.12    1.41
   0   8   6    6.06    1.35
   0  -8   6    3.24    1.43
   0  -8   6    4.49    1.20
   0   8   6    5.71    1.26
   0  -8  -6    8.89    1.71
   0  -8   6    5.54    1.30
   0   8   7  106.68    4.22
   0  -8   7  123.15    5.38
   0   8   7  106.76    4.30
   0  -8   7  103.09    4.16
   0  -8   7  103.55    4.26
   0  -8   7  104.79    4.32
   0  -8  -7  103.76    4.76
   0   8   7  109.80    4.24
   0   8   8   48.18    2.82
   0  -8   8   45.12    2.72
   0  -8   8   49.86    2.85
   0   8   8   51.11    2.70
   0  -8   8   49.61    2.69
   0  -8  -8   44.92    3.28
   0   8   9    5.33    2.10
   0  -8   9    3.17    1.64
   0  -8   9    6.06    2.07
   0  -8  -9    0.37    2.24
   0   8  10   13.85    2.46
   0  -8  10   15.85    2.52
   0  -8  10   15.50    2.16
   0  -8 -10   11.17    2.84
   0   9   0   -0.47    0.74
   0  -9   0    0.15    0.63
   0   9   1   19.03    1.20
   0   9  -1   18.37    1.21
   0  -9  -1   20.35    1.14
   0  -9   1   18.43    1.14
   0   9  -2    4.11    0.89
   0  -9   2    1.38    0.29
   0   9   2    1.89    0.30
   0  -9   2    1.71    0.26
   0  -9   2    2.81    0.71
   0  -9  -2    3.96    0.85
   0   9   2    3.47    0.85
   0  -9   3  284.33    9.52
   0   9  -3  297.37    9.57
   0  -9  -3  290.47    9.65
   0  -9   3  291.54    9.18
   0   9   3  289.31    9.19
   0   9   3  301.07    9.54
   0  -9   4    3.25    0.95
   0  -9   4    5.45    0.91
   0   9   4    4.54    1.05
   0   9   4    6.11    0.91
   0  -9  -4    3.84    1.29
   0   9  -4    4.91    1.04
   0   9   4    4.22    0.92
   0  -9   4    3.81    0.93
   0  -9  -5   23.17    2.04
   0  -9   5   28.15    1.67
   0  -9   5   25.25    1.71
   0   9   5   26.60    1.57
   0  -9   5   28.24    1.60
   0   9   5   24.02    1.66
   0   9   6  178.66    6.01
   0  -9   6  172.05    5.91
   0  -9  -6  158.91    6.54
   0  -9   6  163.15    6.14
   0   9   6  169.79    6.03
   0  -9   6  171.79    5.97
   0   9   6  168.74    5.93
   0  -9   7   11.36    1.56
   0   9   7   12.84    1.64
   0  -9   7   11.39    1.69
   0   9   7   14.50    1.78
   0  -9   7   15.65    1.64
   0  -9  -7   12.67    2.05
   0  -9   8   12.46    1.91
   0   9   8   10.25    1.92
   0  -9   8   12.79    1.76
   0  -9  -8   12.47    2.33
   0   9   9    2.36    1.97
   0  -9   9    3.26    1.66
   0  -9  -9    2.25    2.34
   0  -9   9    4.14    1.99
   0  -9  10    2.76    1.80
   0  -9 -10    2.51    2.60
   0   9  10    4.98    2.29
   0  10   0   14.97    1.19
   0 -10   0   16.36    1.12
   0 -10   1   48.55    2.06
   0  10   1   48.10    2.11
   0 -10  -1   48.59    2.07
   0  10  -1   47.11    2.13
   0  10  -2  135.34    4.77
   0 -10  -2  132.97    4.76
   0  10   2  131.42    4.69
   0 -10   2  137.51    4.75
   0 -10   3    0.98    0.80
   0  10  -3    1.41    0.97
   0  10   3   -0.30    1.06
   0  10   3    1.08    0.48
   0 -10  -3    1.25    1.05
   0 -10   3    1.55    0.47
   0  10   4  203.04    6.78
   0 -10  -4  202.21    7.40
   0  10  -4  210.18    7.16
   0  10   4  223.54    7.18
   0 -10   4  213.97    6.80
   0 -10   4  207.01    7.15
   0 -10  -5    6.56    1.61
   0  10   5   10.34    1.37
   0 -10   5    9.20    1.21
   0  10   5    9.78    1.17
   0 -10   5    7.50    1.28
   0  10  -5    7.05    1.28
   0 -10   5   10.53    1.17
   0  10   5    8.09    1.21
   0  10   6   10.57    1.45
   0 -10   6   11.94    1.45
   0  10   6    9.78    1.38
   0 -10  -6   11.16    1.94
   0  10   6   11.16    1.48
   0 -10   6   11.66    1.49
   0 -10   7    4.79    1.44
   0 -10  -7    5.53    1.95
   0  10   7    6.02    1.56
   0 -10   7    5.49    1.58
   0 -10  -8    2.36    2.17
   0 -10   8    3.51    1.57
   0  10   8    4.09    1.73
   0 -10  -9   -0.13    2.41
   0 -10   9    2.78    1.73
   0 -11   0   -0.03    0.81
   0  11   0   -0.46    0.89
   0 -11   1   15.11    1.19
   0  11  -1   16.22    1.32
   0 -11  -1   15.92    1.23
   0  11   1   14.41    1.29
   0 -11  -2   10.72    1.22
   0 -11   2   13.35    1.22
   0  11   2   12.59    1.22
   0  11  -2   10.36    1.23
   0  11   3   74.58    2.49
   0  11  -3   70.47    2.46
   0 -11  -3   73.40    2.64
   0 -11   3   73.42    2.43
   0  11  -4   27.83    1.82
   0 -11   4   27.43    1.76
   0  11   4   33.26    1.90
   0 -11  -4   30.34    2.16
   0  11  -5    9.95    1.42
   0  11   5    7.83    1.35
   0 -11  -5    8.47    1.77
   0 -11   5    8.53    1.35
   0 -11   6    0.45    1.26
   0 -11  -6    2.22    1.75
   0 -11   7   13.09    1.79
   0 -11  -7   13.74    2.29
   0 -11   8    9.22    1.85
   0 -11  -8   13.81    2.58
   0 -11  -9    0.65    2.53
   0 -11   9    4.45    1.91
   0  12   0    1.16    1.01
   0 -12   0    1.37    0.86
   0  12   1   14.43    1.36
   0  12  -1   15.91    1.41
   0 -12  -1   17.49    1.36
   0 -12   1   15.62    1.28
   0  12   2  189.33    6.49
   0 -12  -2  181.94    6.50
   0  12  -2  192.41    6.53
   0 -12   2  189.42    6.46
   0  12   3   50.99    2.38
   0 -12  -3   50.54    2.56
   0 -12   3   54.91    2.51
   0  12  -3   50.99    2.44
   0 -12  -4   57.35    3.05
   0 -12   4   57.84    2.70
   0  12  -4   65.65    2.86
   0  12   4   65.93    2.88
   0  12   5   18.64    1.71
   0 -12   5   20.38    1.67
   0  12  -5   19.39    1.72
   0 -12  -5   16.87    2.03
   0 -12   6   21.77    1.90
   0 -12  -6   19.43    2.34
   0 -12  -7    8.26    2.31
   0 -12   7    9.15    1.81
   0 -12  -8    7.52    2.50
   0 -12   8   11.12    1.99
   0 -13   0   -0.12    0.95
   0  13   0   -0.68    1.09
   0 -13   1    3.98    1.02
   0  13   1    4.33    1.19
   0 -13  -1    3.11    1.11
   0  13  -1    3.32    1.21
   0  13  -2    2.12    1.15
   0 -13  -2    2.10    1.16
   0 -13   2    2.09    1.02
   0  13   2    3.63    1.20
   0 -13   3   35.38    2.00
   0 -13  -3   32.72    2.17
   0 -13  -4    0.50    1.55
   0 -13   4    1.31    1.23
   0 -13   5    5.17    1.31
   0 -13  -5    2.81    1.82
   0 -13  -6   10.61    2.26
   0 -13   6    6.65    1.62
   0 -14   0   14.41    1.39
   0 -14  -1    4.89    1.27
   0 -14   1    3.82    1.11
   0 -14  -2    3.48    1.28
   0 -14   2    1.32    1.11
  -1   0  11    2.48    1.45
  -1   0  10   -0.57    1.23
  -1   0   8   -1.85    1.51
   1   0  -8   -2.17    1.75
  -1   0   7    0.19    1.29
   1   0  -7    0.34    1.34
  -1   0   6   -1.33    1.16
   1   0  -6   -0.56    1.07
  -1   0   5  174.84    6.10
   1   0  -5  174.25    6.21
  -1   0   4    0.25    0.78
   1   0  -4    0.39    0.81
   1   0  -3    9.84    0.83
  -1   0   3    9.29    0.82
   1   0  -2    0.11    0.51
  -1   0   2   -0.64    0.51
  -1   0   1 3847.92  118.36
   1   0  -1 3863.66  118.36
  -1   0   0    0.09    0.26
   1   0   0   -0.13    0.24
   1   0   1 9993.08  306.75
  -1   0  -1 9999.00  306.74
   1   0   2   -0.15    0.37
  -1   0  -2   -0.06    0.44
   1   0   3  370.05   12.11
   1   0   3  376.43   11.86
   1   0   4    0.29    0.60
   1   0   4   -0.55    1.09
   1   0   5   31.56    1.96
   1   0   5   31.27    1.58
   1   0   6    0.19    0.75
   1   0   6   -0.28    1.24
   1   0   7   21.08    2.16
   1   0   7   22.76    1.63
   1   0   8    0.26    1.13
   1   0   9    0.74    1.30
   1   0  10    1.41    1.48
   1   0  11    9.15    1.98
  -1  -1  11    1.49    2.24
  -1   1  11   -0.71    1.43
  -1   1  11    3.43    2.23
  -1  -1  11    0.08    1.39
  -1  -1  10   15.56    1.73
  -1  -1  10   15.20    2.27
  -1  -1   9   37.12    2.58
  -1  -1   9   38.73    2.24
  -1   1   8   62.03    3.18
  -1  -1   8   59.55    2.99
  -1  -1   8   63.71    2.95
  -1   1   8   57.30    2.89
  -1  -1   8   61.13    3.24
  -1  -1   7    2.58    1.38
   1   1  -7    3.01    1.42
  -1   1   7    5.12    1.31
  -1  -1   7    3.11    1.30
  -1   1   7    2.94    1.31
  -1  -1   7    2.98    1.26
  -1   1   6  173.73    6.20
  -1  -1   6  188.56    6.52
  -1   1   6  188.22    6.43
  -1  -1   6  184.46    6.23
   1   1  -6  184.59    6.65
  -1  -1   6  173.75    6.23
  -1   1   5    5.65    1.08
  -1  -1   5    4.83    1.16
  -1   1   5    7.04    1.02
  -1  -1   5    6.62    1.00
   1   1  -5    5.79    1.07
   1   1  -5    4.54    1.06
   1  -1  -5    4.67    1.08
  -1  -1   5    6.66    1.08
  -1   1   4  495.34   16.69
  -1  -1   4  538.79   16.90
  -1  -1   4  542.29   16.73
  -1   1   4  531.22   16.82
   1  -1  -4  557.78   16.88
  -1  -1   4  534.80   16.72
   1   1  -4  514.74   16.83
   1   1  -4  557.02   16.99
  -1  -1   3 1559.28   46.08
  -1  -1   3 1545.83   46.18
   1   1  -3 1534.29   46.23
  -1   1   3 1463.08   46.05
   1   1  -3 1404.19   46.07
   1   1  -3 1376.29   46.07
  -1  -1   3 1567.11   46.07
  -1   1   3 1477.74   46.11
   1  -1  -3 1490.33   46.10
   1  -1  -3 1535.24   46.11
   1  -1  -2   61.76    1.99
  -1  -1   2   58.75    1.98
   1   1  -2   56.28    1.99
   1   1  -2   45.87    2.01
  -1   1   2   56.54    2.00
   1  -1  -2   57.62    1.99
   1   1  -2   52.40    1.96
  -1  -1   2   61.58    2.03
  -1   1   2   51.96    1.96
   1   1  -1    4.49    0.41
   1  -1  -1    5.20    0.43
  -1  -1   1    5.54    0.34
  -1  -1   1    4.78    0.52
  -1   1   1    3.57    0.48
   1   1  -1    5.44    0.41
  -1   1   1    5.25    0.47
  -1   1   0 1768.11   58.39
   1  -1   0 1902.23   58.48
   1   1   0 1732.54   58.46
  -1  -1   0 2016.40   58.51
   1   1   0 1956.52   58.30
  -1  -1   0 2002.03   58.31
  -1   1   0 1667.46   58.48
  -1  -1  -1   38.09    1.34
   1   1   1   38.51    1.34
  -1   1  -1   34.17    1.44
   1   1   2 1129.30   35.35
  -1   1  -2 1134.52   35.24
   1   1   2 1147.69   35.18
   1   1   3  116.52    3.93
  -1   1  -3  114.95    3.99
   1   1   3  117.22    4.20
   1   1   4   88.60    3.50
   1   1   4   87.35    3.18
   1   1   5    9.69    1.38
   1   1   5   12.77    0.99
   1   1   6   71.87    3.35
   1   1   6   73.07    2.97
   1   1   7    2.19    1.60
   1   1   7    1.04    1.00
   1   1   7   -2.29    2.25
   1  -1   7   -4.84    2.39
   1   1   8  108.26    4.34
   1   1   9   52.53    2.83
   1   1  10   41.28    2.63
   1   1  11    0.18    1.69
  -1   2  11    1.94    2.16
  -1  -2  11    4.64    2.33
  -1  -2  11    2.31    1.54
  -1  -2  10   -0.07    1.94
  -1   2  10    0.87    1.90
  -1  -2  10   -0.88    1.29
  -1  -2   9   91.03    3.85
  -1   2   9   91.05    4.06
  -1  -2   9   92.17    4.03
  -1   2   8    8.70    1.60
  -1  -2   8   11.31    1.62
  -1   2   8    7.70    1.62
  -1  -2   8    7.78    1.23
  -1  -2   8    8.30    1.65
  -1  -2   8    7.06    1.83
  -1  -2   7   14.46    1.50
  -1  -2   7   11.91    1.68
  -1  -2   7   14.40    1.26
  -1   2   7   11.96    1.48
  -1  -2   7   12.64    1.48
  -1   2   7   12.27    1.46
  -1  -2   6   20.88    1.79
  -1  -2   6   23.87    1.59
  -1   2   6   25.09    1.55
  -1   2   6   22.91    1.55
  -1  -2   6   25.41    1.56
  -1  -2   5  401.03   12.89
   1   2  -5  408.94   13.16
  -1  -2   5  408.82   13.13
   1  -2  -5  425.17   13.17
  -1   2   5  393.22   12.88
  -1  -2   5  392.14   12.85
  -1   2   5  400.81   12.87
   1  -2  -4   24.92    1.40
  -1   2   4   25.42    1.29
  -1  -2   4   24.07    1.51
  -1   2   4   24.57    1.34
   1   2  -4   22.01    1.47
  -1  -2   4   26.44    1.33
  -1  -2   4   24.00    1.31
   1   2  -4   23.44    1.39
   1  -2  -3   12.15    0.92
  -1  -2   3   14.73    1.01
  -1   2   3   13.00    0.83
   1  -2  -3   14.05    0.84
  -1   2   3   14.90    0.89
   1   2  -3   12.39    0.92
   1   2  -3   14.98    0.85
  -1  -2   3   12.65    0.81
   1   2  -3   12.50    0.94
  -1  -2   3   13.75    0.85
  -1   2   2   40.80    1.69
   1   2  -2   50.52    1.70
   1  -2  -2   45.17    1.72
   1   2  -2   47.59    1.77
   1   2  -2   47.47    1.71
   1  -2  -2   50.26    1.70
  -1  -2   2   47.05    1.70
  -1  -2   2   47.46    1.77
  -1   2   1  313.87   10.08
   1   2  -1  325.63   10.05
   1  -2  -1  314.82   10.05
  -1  -2   1  334.96   10.09
   1   2   0  635.87   19.64
   1  -2   0  629.65   19.64
  -1   2   0  605.19   19.66
  -1  -2   0  660.55   19.69
   1   2   1 3866.63  118.80
   1   2   2  876.40   27.28
   1   2   3   77.11    2.98
   1   2   4    0.97    1.01
   1   2   5    4.92    1.20
   1  -2   6   -4.68    2.08
   1   2   6    0.69    0.80
   1   2   6   -2.92    1.83
   1   2   6   -0.59    1.39
   1   2   7    3.69    1.64
   1   2   7    3.40    1.03
   1   2   7    1.14    2.08
   1  -2   7   -0.10    2.28
   1   2   8   14.99    1.53
   1   2   9   10.63    1.50
   1   2  10    7.53    1.61
   1   2  11   24.40    2.33
  -1   3  11    2.69    2.17
  -1  -3  11    1.71    2.26
  -1  -3  11    2.01    1.59
  -1  -3  10   25.42    2.03
   1  -3 -10   19.78    2.80
  -1  -3  10   24.60    2.46
  -1   3  10   23.40    2.43
   1  -3  -9   17.49    2.48
  -1  -3   9   19.57    1.71
  -1   3   9   17.53    2.06
  -1  -3   9   20.27    2.14
  -1  -3   8   80.10    3.63
  -1  -3   8   85.65    3.58
  -1   3   8   86.81    3.57
  -1  -3   8   84.32    3.50
  -1   3   8   78.11    3.65
   1  -3  -8   85.09    4.14
  -1  -3   8   79.99    3.92
  -1   3   8   82.92    3.63
  -1   3   7   14.01    1.59
   1  -3  -7   16.14    1.79
  -1  -3   7   14.04    1.79
  -1   3   7   13.72    1.54
  -1  -3   7   14.66    1.57
  -1  -3   7   15.14    1.29
  -1   3   7   15.64    1.56
  -1  -3   7   15.66    1.54
  -1   3   6   45.60    2.11
  -1  -3   6   42.97    2.11
  -1  -3   6   43.32    2.02
  -1  -3   6   45.53    2.39
   1  -3  -6   46.03    2.40
  -1   3   6   40.45    2.13
  -1  -3   6   45.37    2.09
  -1   3   6   44.07    2.13
  -1  -3   5  131.15    4.56
  -1  -3   5  134.52    4.56
  -1  -3   5  129.74    4.59
   1  -3  -5  133.97    4.91
  -1   3   5  131.03    4.61
  -1   3   5  129.50    4.57
   1   3  -5  136.22    4.87
   1  -3  -5  126.60    4.82
  -1  -3   5  126.25    4.82
  -1  -3   4  402.76   13.74
  -1  -3   4  420.18   13.56
   1   3  -4  438.65   13.74
  -1  -3   4  435.96   13.57
  -1   3   4  433.27   13.57
   1  -3  -4  449.50   13.75
  -1   3   4  435.67   13.57
  -1  -3   4  422.85   13.55
   1  -3  -4  419.22   13.80
  -1  -3   3  263.61    8.17
  -1  -3   3  258.31    8.16
  -1  -3   3  262.19    8.18
  -1   3   3  261.71    8.18
   1   3  -3  256.39    8.24
  -1  -3   3  249.54    8.32
   1  -3  -3  251.48    8.31
   1  -3  -3  253.71    8.23
  -1   3   3  247.37    8.18
   1  -3  -2 1585.50   48.66
   1   3  -2 1631.61   48.66
  -1  -3   2 1446.51   48.60
  -1  -3   2 1578.22   48.73
   1  -3  -2 1627.33   48.76
   1  -3  -2 1628.87   48.66
  -1   3   2 1503.45   48.65
   1   3  -2 1633.62   48.67
  -1  -3   2 1644.05   48.65
  -1   3   1  405.70   13.48
   1   3  -1  441.65   13.44
  -1  -3   1  442.16   13.49
   1  -3  -1  418.59   13.44
   1  -3  -1  429.25   13.55
  -1  -3   1  444.15   13.36
   1   3   0  400.65   11.95
   1  -3   0  374.37   11.93
   1  -3   0  369.91   11.95
   1  -3   1  149.48    4.79
  -1  -3  -1  143.18    4.69
   1   3   1  143.69    4.64
   1   3   2   63.28    2.40
  -1  -3  -2   68.06    2.46
   1  -3   2   64.88    2.43
   1   3   3   13.63    1.15
  -1  -3  -3   15.84    1.19
   1  -3   3   14.12    0.98
   1  -3   4   85.07    3.21
  -1  -3  -4   87.36    3.45
   1   3   4   82.48    3.33
   1   3   5   58.45    2.68
   1  -3   5   55.78    2.47
   1  -3   6  337.55   10.43
   1   3   6  315.48   10.15
   1  -3   6  276.24   10.08
   1   3   6  276.02    9.83
   1  -3   6  268.16    9.66
   1   3   7    5.35    1.62
   1   3   7    5.72    2.09
   1  -3   7    7.31    1.88
   1   3   7    6.77    1.12
   1  -3   7    2.40    2.26
   1  -3   7    6.83    1.29
   1   3   8    3.47    1.18
   1  -3   8    3.34    1.35
   1   3   9  124.47    4.99
   1  -3   9  129.20    5.20
   1  -3  10   38.54    2.68
   1   3  10   41.67    2.56
   1   3  11    9.89    1.87
  -1   4  11   11.64    2.36
  -1  -4  11   13.20    2.50
  -1  -4  11   11.71    1.90
   1  -4 -11   13.60    2.93
   1  -4 -10   27.70    3.02
  -1  -4  10   30.11    2.62
  -1  -4  10   29.55    2.19
  -1   4  10   27.45    2.49
  -1  -4   9    0.34    1.19
  -1   4   9    2.08    1.70
   1  -4  -9    1.16    1.91
  -1  -4   9    2.86    1.72
  -1   4   8  139.71    5.18
   1  -4  -8  138.96    5.81
  -1  -4   8  138.59    5.19
  -1   4   8  134.76    5.21
  -1  -4   8  135.49    5.19
  -1   4   8  140.30    5.29
  -1  -4   8  137.68    5.14
  -1  -4   8  130.32    5.56
  -1  -4   7   16.60    1.55
  -1  -4   7   18.17    1.62
  -1   4   7   14.73    1.56
  -1   4   7   15.20    1.59
   1  -4  -7   17.33    1.87
  -1  -4   7   16.25    1.89
  -1  -4   7   16.01    1.39
  -1   4   7   16.42    1.55
  -1   4   6    6.35    1.13
  -1   4   6    5.46    1.10
  -1  -4   6    6.54    1.16
  -1   4   6    4.81    1.11
   1  -4  -6    5.19    1.31
  -1  -4   6    5.60    1.33
  -1  -4   6    4.90    1.06
  -1  -4   6    5.13    0.90
  -1  -4   5  275.55    9.03
  -1   4   5  273.88    9.05
   1  -4  -5  261.89    9.30
  -1   4   5  275.45    9.03
   1   4  -5  268.97    9.33
  -1   4   5  290.12    9.17
   1  -4  -5  285.84    9.39
  -1  -4   5  275.00    9.33
  -1  -4   5  282.03    9.07
  -1  -4   5  284.97    9.07
  -1  -4   4   48.51    2.29
  -1  -4   4   50.80    2.04
  -1   4   4   52.18    2.07
  -1  -4   4   53.42    2.06
  -1  -4   4   50.79    2.02
  -1   4   4   53.13    2.14
   1   4  -4   52.52    2.27
   1  -4  -4   53.39    2.30
   1  -4  -4   50.51    2.23
  -1   4   4   48.44    2.05
  -1   4   3  195.06    6.15
  -1   4   3  187.14    6.24
  -1  -4   3  188.90    6.12
  -1   4   3  186.17    6.13
  -1  -4   3  193.60    6.16
   1   4  -3  186.72    6.23
   1  -4  -3  193.95    6.31
  -1  -4   3  191.32    6.35
   1  -4  -3  188.36    6.22
   1   4  -2   33.20    1.29
  -1   4   2   36.19    1.43
   1  -4  -2   35.00    1.29
   1   4  -2   33.69    1.32
  -1   4   2   31.09    1.27
  -1  -4   2   31.69    1.25
   1  -4  -2   32.47    1.33
  -1  -4   2   33.65    1.26
   1  -4  -2   31.40    1.40
   1  -4  -1  330.58   10.17
  -1   4   1  312.14   10.05
  -1  -4   1  327.13    9.95
   1   4  -1  305.95    9.95
  -1  -4   1  332.52   10.07
   1   4  -1  322.34   10.00
  -1   4   1  331.92   10.20
   1  -4  -1  319.17   10.00
   1   4   0  186.70    5.84
   1   4   0  174.80    5.69
   1  -4   0  188.72    5.95
  -1  -4   0  186.80    5.70
   1  -4   0  185.46    5.83
  -1   4   0  187.05    5.95
  -1   4  -1    5.48    0.66
   1   4   1    5.18    0.43
   1  -4   1    4.95    0.61
  -1  -4  -1    4.97    0.53
   1  -4   2   13.62    0.91
  -1   4  -2   13.40    0.96
  -1  -4  -2   13.26    0.92
   1   4   2   12.26    0.84
   1  -4   3   16.07    1.07
  -1   4  -3   16.14    1.15
  -1  -4  -3   17.87    1.22
   1   4   3   15.60    1.10
  -1   4  -4  148.62    5.10
  -1  -4  -4  150.01    5.33
   1  -4   4  144.85    5.12
   1   4   4  140.73    5.13
   1  -4   5  329.84   11.02
  -1  -4  -5  336.54   11.32
   1   4   5  332.72   11.07
  -1   4  -5  341.95   11.00
   1   4   6   42.29    2.63
  -1  -4  -6   40.34    2.54
   1  -4   6   39.76    2.83
   1  -4   6   42.69    2.72
   1  -4   6   38.53    2.14
   1   4   6   42.57    2.35
   1   4   7   48.07    2.98
   1  -4   7   43.44    2.43
   1  -4   7   53.45    3.35
   1   4   7   44.18    2.66
   1  -4   7   42.96    3.00
   1  -4   8    9.08    1.53
   1   4   8   10.46    1.38
   1  -4   9   13.78    1.82
   1   4   9   11.37    1.54
   1   4  10   15.29    1.86
   1  -4  10   15.40    2.07
  -1  -5  11    4.83    2.29
   1  -5 -11    0.74    2.57
  -1  -5  11   -0.35    1.60
  -1  -5  10    6.58    1.60
   1  -5 -10    6.05    2.32
  -1  -5  10    9.50    2.01
  -1   5  10    8.41    2.03
  -1  -5   9    8.04    1.43
  -1   5   9    7.20    1.84
  -1  -5   9    9.70    1.86
   1  -5  -9    4.87    1.98
  -1   5   8  140.61    5.33
   1  -5  -8  140.16    5.88
  -1  -5   8  136.50    5.73
  -1  -5   8  146.80    5.25
  -1  -5   8  135.52    5.31
  -1   5   8  146.77    5.26
  -1  -5   8  136.96    5.29
  -1  -5   7   20.37    1.71
  -1   5   7   16.72    1.60
  -1  -5   7   16.69    1.60
  -1   5   7   16.92    1.61
   1  -5  -7   19.93    2.08
  -1  -5   7   16.74    1.95
  -1  -5   7   15.28    1.42
  -1   5   7   16.35    1.67
   1  -5  -6   28.14    2.10
  -1   5   6   31.14    1.83
  -1  -5   6   30.81    1.77
  -1   5   6   31.88    1.75
  -1  -5   6   32.71    1.75
  -1  -5   6   32.09    2.13
  -1  -5   6   31.27    1.71
  -1   5   6   30.71    1.78
  -1  -5   5   48.60    2.07
  -1  -5   5   50.09    2.44
  -1   5   5   48.37    2.10
  -1  -5   5   51.78    2.11
   1  -5  -5   50.05    2.42
  -1   5   5   50.32    2.19
  -1   5   5   47.60    2.12
  -1  -5   5   42.65    2.05
  -1   5   4   48.03    1.96
  -1   5   4   51.72    2.08
  -1  -5   4   46.22    2.23
  -1  -5   4   50.65    1.94
  -1   5   4   48.76    1.97
  -1  -5   4   46.84    1.96
   1   5  -4   45.09    2.18
   1  -5  -4   46.17    2.17
  -1  -5   4   49.79    1.95
   1  -5  -4   49.71    2.20
   1   5  -3  258.17    8.13
  -1   5   3  243.31    8.00
  -1  -5   3  252.33    8.05
  -1  -5   3  249.97    7.98
   1  -5  -3  255.88    8.12
   1  -5  -3  251.51    8.21
  -1   5   3  248.66    8.15
   1  -5  -2    5.64    0.56
   1  -5  -2    3.06    0.61
   1   5  -2    3.92    0.49
   1   5  -2    3.49    0.64
  -1  -5   2    3.42    0.45
  -1   5   2    3.09    0.48
   1  -5  -2    4.61    0.66
  -1  -5   2    3.81    0.47
   1   5  -2    5.99    0.57
  -1   5   2    4.96    0.69
   1  -5  -1   62.11    2.08
  -1   5   1   58.27    2.16
   1   5  -1   62.79    2.09
   1  -5  -1   64.49    2.33
   1   5  -1   65.16    2.10
  -1  -5   1   63.06    2.08
  -1   5   1   60.82    2.31
  -1  -5   1   62.22    2.18
  -1   5   0  114.61    4.03
   1  -5   0  129.62    4.09
   1   5   0  120.19    3.85
   1  -5   0  116.38    3.83
   1   5   0  113.97    3.77
  -1  -5   0  121.08    3.78
  -1   5  -1   84.49    3.01
   1  -5   1   81.55    2.99
  -1  -5  -1   82.01    2.85
   1   5   1   82.57    2.76
   1   5   1   87.03    3.00
   1  -5   1   83.83    2.98
  -1  -5  -2  102.19    3.59
  -1   5  -2  103.66    3.65
   1  -5   2  103.66    3.63
   1   5   2   98.20    3.44
  -1  -5  -3    0.48    0.74
   1  -5   3   -0.22    0.61
   1   5   3   -0.03    0.66
  -1   5  -3    0.15    0.71
  -1  -5  -4    0.32    0.99
   1  -5   4   -0.04    0.72
   1   5   4    0.44    0.81
  -1   5  -4    1.46    0.86
   1   5   5   49.19    2.57
  -1  -5  -5   47.14    2.54
  -1   5  -5   48.16    2.28
   1   5   5   49.12    2.30
   1  -5   5   47.01    2.28
   1  -5   5   47.88    2.74
  -1  -5  -6   18.33    1.92
   1  -5   6   18.69    1.57
   1   5   6   19.25    2.04
   1   5   6   20.24    1.70
   1  -5   6   15.93    2.24
   1  -5   7    1.40    1.17
   1  -5   7   -1.41    2.05
   1   5   7    1.46    1.40
   1   5   7   -1.23    1.87
   1  -5   7   -0.43    2.12
   1  -5   8    9.07    1.54
   1   5   9    3.10    1.30
   1  -5   9    2.97    1.57
   1  -5  10   29.74    2.52
   1   5  10   28.79    2.21
  -1  -6  11   -0.44    1.67
   1  -6 -11    1.19    2.50
  -1  -6  10    4.56    1.98
  -1   6  10    1.65    1.91
   1  -6 -10    1.60    2.36
  -1  -6  10    1.85    1.54
  -1  -6   9    8.03    1.52
  -1  -6   9   12.70    1.94
   1  -6  -9    9.53    2.31
  -1   6   9    9.14    1.85
   1  -6  -8   16.97    2.23
  -1   6   8   19.19    1.88
  -1  -6   8   15.98    2.28
  -1  -6   8   14.22    1.62
  -1  -6   8   19.51    1.76
  -1   6   8   17.95    1.79
  -1  -6   8   18.49    1.89
  -1  -6   7    7.15    1.42
  -1  -6   7    3.03    1.12
  -1  -6   7    7.56    1.77
  -1   6   7    7.96    1.46
  -1  -6   7    8.91    1.41
  -1   6   7    8.10    1.40
   1  -6  -7    5.39    1.67
  -1   6   7    5.57    1.35
  -1  -6   6   84.29    3.13
  -1  -6   6   80.64    3.58
  -1  -6   6   76.03    3.12
  -1  -6   6   77.39    3.16
   1  -6  -6   72.97    3.54
  -1   6   6   81.71    3.15
  -1   6   6   77.22    3.21
  -1   6   6   74.67    3.13
  -1  -6   5   58.90    2.42
  -1   6   5   61.29    2.44
  -1  -6   5   61.73    2.84
  -1  -6   5   61.55    2.49
  -1   6   5   57.88    2.52
  -1  -6   5   60.77    2.42
  -1   6   5   59.93    2.45
   1  -6  -5   60.30    2.81
  -1  -6   4    0.38    0.64
   1   6  -4   -0.94    0.93
  -1   6   4    0.37    0.69
  -1  -6   4    1.10    1.03
  -1  -6   4    0.10    0.70
   1  -6  -4    1.80    0.84
  -1  -6   4    0.56    0.63
   1  -6  -4   -1.20    0.93
  -1   6   4    1.38    0.78
  -1   6   4    1.62    0.69
  -1   6   3  303.42   10.08
  -1   6   3  328.22   10.30
  -1  -6   3  313.18   10.06
   1  -6  -3  332.77   10.26
   1   6  -3  322.04   10.12
   1   6  -3  325.93   10.25
   1  -6  -3  321.00   10.35
  -1  -6   3  319.16   10.15
  -1  -6   2   90.32    3.07
   1   6  -2   94.66    3.08
  -1   6   2   93.23    3.29
   1   6  -2   94.58    3.09
   1  -6  -2   94.89    3.27
   1  -6  -2   94.48    3.08
  -1  -6   2   91.66    3.05
   1   6  -1  264.72    7.85
   1   6  -1  252.19    7.84
   1  -6  -1  239.25    7.83
   1  -6  -1  253.09    7.84
   1   6  -1  247.46    7.91
   1  -6  -1  269.62    8.16
  -1  -6   1  247.52    7.95
  -1  -6   1  262.91    7.91
  -1   6   1  231.13    7.92
  -1   6   1  242.78    8.09
  -1   6   0  378.20   12.07
  -1  -6   0  374.04   11.80
   1   6   0  394.71   11.80
   1  -6   0  408.51   12.11
   1   6   0  370.39   11.81
   1  -6   0  365.93   11.78
   1  -6   1  200.98    6.36
  -1   6  -1  189.31    6.46
   1  -6   1  189.07    6.42
  -1  -6  -1  188.89    6.29
   1   6   1  197.87    6.22
   1   6   1  204.30    6.38
   1   6   2    0.86    0.49
   1  -6   2    2.19    0.66
  -1   6  -2    0.32    0.73
  -1  -6  -2    0.96    0.69
  -1   6  -3  211.68    7.03
  -1  -6  -3  203.11    7.04
   1   6   3  208.47    6.84
   1  -6   3  211.16    7.02
  -1   6  -4   26.55    1.56
   1   6   4   23.28    1.41
  -1  -6  -4   24.09    1.65
   1  -6   4   23.96    1.47
   1   6   5   52.67    2.62
  -1  -6  -5   48.52    2.60
   1  -6   5   44.27    2.30
   1   6   5   47.31    2.26
   1  -6   5   45.37    2.68
  -1   6  -5   50.88    2.35
  -1  -6  -6  115.06    4.77
   1   6   6  107.79    4.32
   1  -6   6  116.54    4.81
   1   6   6  116.33    4.68
   1  -6   6  113.16    4.46
  -1  -6  -7   71.35    3.79
   1   6   7   72.14    3.32
   1  -6   7   77.23    3.79
   1   6   7   77.56    3.63
   1  -6   7   65.93    3.30
   1  -6   8   10.75    1.60
   1  -6   9  147.02    5.90
   1   6  10    1.49    2.60
   1   6  10    0.96    1.43
   1  -6  10   -1.40    3.00
   1  -6  10    0.87    1.74
  -1  -7  11    4.30    1.83
   1  -7 -10    0.55    2.45
  -1  -7  10    4.45    1.98
  -1  -7  10    0.98    1.54
  -1   7  10    5.01    2.03
  -1   7   9    5.88    1.72
   1  -7  -9    6.53    2.15
  -1  -7   9    5.22    1.53
  -1  -7   9    9.03    1.83
  -1   7   8   48.78    2.59
  -1  -7   8   49.86    2.55
   1  -7  -8   40.98    3.09
  -1  -7   8   44.13    2.52
  -1  -7   8   48.88    3.21
  -1  -7   8   49.34    2.59
  -1   7   8   48.10    2.62
  -1   7   7   11.77    1.52
   1  -7  -7   10.35    1.95
  -1   7   7   12.06    1.53
  -1  -7   7   12.24    1.49
  -1   7   7   15.01    1.57
  -1  -7   7   13.46    1.55
  -1  -7   7   13.13    2.01
  -1  -7   7    9.79    1.39
  -1  -7   6  294.35    9.65
  -1   7   6  289.57    9.66
  -1   7   6  289.26    9.63
  -1  -7   6  292.66    9.80
  -1   7   6  304.48    9.82
  -1  -7   6  301.95   10.22
  -1  -7   6  297.50    9.63
   1  -7  -6  285.45   10.20
  -1  -7   5    5.98    1.01
  -1   7   5    8.07    1.12
  -1   7   5    7.01    1.07
  -1   7   5    7.46    0.99
   1  -7  -5    7.29    1.29
  -1  -7   5    7.07    0.96
  -1  -7   5    6.52    1.47
  -1  -7   5    7.73    1.02
  -1  -7   4   26.96    1.31
  -1   7   4   26.12    1.34
  -1   7   4   27.54    1.55
  -1  -7   4   28.46    1.41
   1  -7  -4   28.54    1.65
  -1   7   3   50.99    2.13
   1   7  -3   50.05    1.92
  -1  -7   3   50.36    1.93
  -1  -7   3   48.47    1.82
  -1   7   3   45.19    1.82
  -1  -7   2  212.87    6.75
   1   7  -2  215.92    6.81
  -1  -7   2  209.94    6.79
  -1   7   2  198.39    6.74
   1   7  -2  218.77    6.82
   1  -7  -2  198.90    6.80
   1  -7  -2  215.30    7.03
   1  -7  -1   42.58    1.79
   1   7  -1   41.47    1.57
   1   7  -1   40.79    1.47
  -1  -7   1   41.63    1.54
   1  -7  -1   39.40    1.46
  -1   7   1   41.68    1.55
   1   7  -1   43.38    1.44
  -1   7   1   39.67    1.75
  -1  -7   0   19.42    0.89
   1  -7   0   21.07    1.14
  -1   7   0   20.46    1.20
   1   7   0   19.10    0.75
   1   7   0   19.63    0.92
   1  -7   1    1.71    0.52
  -1  -7  -1    3.76    0.59
  -1   7  -1    3.03    0.75
   1   7   1    2.66    0.55
   1  -7   1    2.74    0.65
   1   7   1    1.97    0.54
  -1  -7  -2  162.77    5.59
  -1   7  -2  165.13    5.70
   1  -7   2  164.63    5.67
   1   7   2  170.11    5.45
  -1   7  -3  172.88    5.97
   1   7   3  173.95    5.73
  -1  -7  -3  168.16    5.98
   1  -7   3  175.08    5.98
   1   7   4   80.98    3.16
  -1  -7  -4   72.87    3.22
   1  -7   4   74.63    3.19
   1  -7   4   72.59    3.06
   1   7   4   76.47    2.94
  -1   7  -4   73.81    3.08
  -1   7  -5   69.36    2.93
  -1  -7  -5   65.32    3.14
   1   7   5   67.92    2.81
   1  -7   5   64.00    2.91
   1  -7   5   64.28    3.13
   1   7   5   67.06    3.08
   1  -7   6   10.06    1.37
  -1  -7  -6    8.35    1.73
   1  -7   6    6.83    1.77
   1   7   6    9.75    1.71
  -1   7  -6    8.26    1.40
  -1  -7  -7   92.70    4.51
   1  -7   7   94.14    4.09
   1  -7   7  104.13    4.35
   1   7   7   92.29    3.96
   1   7   7  100.29    4.26
  -1  -7  -8   -1.09    1.96
   1  -7   8    0.32    1.42
   1  -7   9    5.09    1.76
   1   7  10   -0.22    1.43
   1  -7  10   -0.59    2.87
   1   7  10   -0.71    2.48
  -1  -8  10   15.54    2.25
  -1   8  10   16.04    2.30
  -1  -8  10   14.97    2.04
   1  -8 -10   14.97    2.89
   1  -8  -9    5.32    2.30
  -1  -8   9    8.15    1.84
  -1  -8   9    8.39    1.66
  -1   8   9    6.23    1.84
  -1   8   8   12.22    1.65
  -1  -8   8   10.81    1.60
   1  -8  -8   14.62    2.25
  -1  -8   8   11.42    1.72
  -1  -8   8   10.08    1.58
  -1   8   8   13.16    1.74
  -1  -8   7   19.10    1.66
   1  -8  -7   20.15    2.29
  -1   8   7   21.41    1.76
  -1  -8   7   23.32    2.40
  -1  -8   7   20.76    1.74
  -1  -8   7   20.46    1.66
  -1   8   7   24.06    1.73
  -1  -8   6  101.58    3.77
  -1   8   6   98.48    3.78
  -1  -8   6   99.32    3.80
  -1   8   6   98.61    3.82
  -1  -8   6  100.73    3.96
  -1   8   6  108.85    4.02
   1  -8  -6   95.56    4.36
  -1  -8   5    4.35    0.96
  -1   8   5    4.99    0.97
   1  -8  -5    6.69    1.38
  -1  -8   5    5.85    1.00
  -1  -8   5    5.61    1.54
  -1   8   5    7.46    1.19
  -1   8   4    7.28    1.10
   1  -8  -4    8.51    1.15
  -1   8   4    7.14    0.78
  -1  -8   4    6.53    0.87
  -1  -8   4    8.60    0.76
  -1  -8   3    3.61    0.56
   1  -8  -3    3.37    0.88
  -1   8   3    3.80    0.58
  -1  -8   3    4.47    0.69
   1   8  -3    3.81    0.70
  -1   8   3    3.27    0.90
   1   8  -2   39.16    1.58
  -1  -8   2   36.17    1.44
   1  -8  -2   41.56    1.80
  -1   8   2   35.97    1.44
  -1   8   2   42.83    1.84
  -1  -8   2   37.05    1.52
   1   8  -1   28.97    1.34
   1  -8  -1   33.26    1.57
  -1  -8   1   31.97    1.31
  -1   8   1   33.67    1.61
   1   8   0    9.42    0.70
  -1   8   0    8.37    0.95
   1  -8   0    8.73    0.90
  -1  -8   0    9.13    0.66
   1   8   1    1.21    0.49
   1  -8   1    0.94    0.38
   1  -8   1    0.60    0.67
  -1   8  -1    0.68    0.74
   1   8   1    1.25    0.42
  -1  -8  -1    1.01    0.57
  -1  -8  -2  134.21    4.67
   1   8   2  139.65    4.52
   1  -8   2  135.93    4.75
   1  -8   2  128.09    4.55
  -1   8  -2  138.34    4.81
   1   8   2  137.29    4.65
   1  -8   2  132.07    4.62
   1   8   2  130.69    4.55
   1   8   3    7.44    0.88
  -1   8  -3    7.44    1.10
  -1  -8  -3    7.39    1.13
   1  -8   3    7.73    1.02
   1   8   3    7.36    1.12
   1  -8   3    5.57    1.08
   1   8   4    1.24    0.91
  -1  -8  -4    1.13    1.12
  -1   8  -4    2.03    1.10
   1  -8   4    0.04    1.25
   1  -8   4    1.23    0.94
   1   8   4   -0.52    1.15
  -1  -8  -5  120.44    5.08
  -1   8  -5  130.18    4.89
   1   8   5  136.66    4.94
   1  -8   5  134.52    4.94
   1   8   5  132.39    4.72
   1  -8   5  128.43    4.94
  -1   8  -6    0.94    1.24
   1   8   6    0.59    1.17
  -1  -8  -6    0.50    1.60
   1   8   6   -1.22    1.49
   1  -8   6   -0.38    1.16
   1  -8   6   -0.47    1.51
   1   8   7    8.10    1.50
   1  -8   7    7.83    1.84
   1  -8   7    5.97    1.44
   1   8   7    6.14    1.72
  -1  -8  -7    5.45    1.91
   1  -8   8    2.27    1.52
  -1  -8  -8    0.66    1.98
   1  -8   9   20.86    2.21
   1  -8   9   13.46    2.60
   1   8   9   12.97    2.47
   1   8  10    4.12    1.56
  -1  -9  10    1.37    1.96
  -1   9  10    1.79    1.99
   1  -9 -10    2.67    2.62
  -1  -9  10    5.08    1.85
  -1   9   9    2.18    1.72
  -1  -9   9    2.49    1.54
   1  -9  -9    5.23    2.40
  -1  -9   9    1.34    1.70
  -1  -9   8    9.40    1.67
   1  -9  -8   13.30    2.29
  -1   9   8   10.28    1.69
  -1   9   8   11.38    1.59
  -1  -9   8   10.38    1.59
  -1   9   7    1.45    1.24
   1  -9  -7    0.29    1.85
  -1  -9   7    1.88    2.00
  -1  -9   7    2.09    1.22
  -1  -9   7    1.06    1.20
  -1  -9   6   55.08    2.38
  -1   9   6   47.02    2.33
  -1   9   6   57.73    2.66
  -1  -9   6   56.39    3.24
  -1  -9   6   54.19    2.54
   1  -9  -6   53.24    3.01
  -1   9   5   74.55    3.06
  -1  -9   5   82.78    3.27
  -1  -9   5   96.45    3.98
   1  -9  -5   86.13    3.72
  -1   9   5   88.02    3.42
  -1  -9   5   82.76    3.07
   1  -9  -4   31.90    1.94
  -1   9   4   32.06    1.86
  -1  -9   4   34.00    1.43
  -1   9   4   30.67    1.43
  -1  -9   4   30.66    1.63
  -1  -9   3   99.98    3.39
  -1   9   3  117.29    3.94
   1  -9  -3  108.79    3.88
  -1   9   3   91.54    3.38
  -1  -9   3   99.17    3.53
   1   9  -3  100.07    3.54
  -1  -9   2  165.15    4.60
  -1   9   2  113.31    4.29
   1  -9  -2  145.72    4.77
  -1  -9   2  130.55    4.29
   1   9  -2  137.97    4.51
  -1   9   2  142.05    4.74
  -1   9   1   35.48    1.82
  -1  -9   1   38.64    1.53
   1  -9  -1   38.86    1.81
   1   9  -1   36.13    1.58
   1  -9   0    0.19    0.73
  -1  -9   0    0.21    0.54
  -1   9   0   -0.20    0.83
   1   9   0    0.20    0.57
   1   9   1   28.27    1.31
   1   9   1   28.60    1.03
  -1   9  -1   29.04    1.63
   1  -9   1   30.41    1.03
   1   9   1   31.63    1.06
   1  -9   1   34.93    1.72
   1  -9   1   23.73    0.98
  -1  -9  -1   29.36    1.37
   1   9   2   56.51    2.16
   1   9   2   59.10    2.11
   1  -9   2   51.69    2.13
  -1  -9  -2   51.80    2.31
   1  -9   2   49.07    2.29
   1   9   2   59.48    2.24
   1  -9   2   57.34    2.09
  -1   9  -2   53.07    2.48
   1   9   3   10.16    1.02
  -1   9  -3    8.24    1.27
  -1  -9  -3   10.21    1.29
   1  -9   3    9.67    1.12
   1  -9   3    9.02    1.07
   1   9   3    9.98    1.09
  -1  -9  -4  177.76    6.52
   1  -9   4  170.74    6.39
   1   9   4  195.28    6.26
   1   9   4  185.09    6.16
  -1   9  -4  177.01    6.39
   1  -9   4  177.21    6.19
  -1   9  -5   12.69    1.50
   1   9   5   11.95    1.31
  -1  -9  -5   11.94    1.70
   1  -9   5   12.98    1.50
   1  -9   5   12.15    1.47
   1   9   5   14.20    1.51
   1   9   6    1.65    1.14
  -1  -9  -6    0.76    1.60
   1   9   6    4.49    1.50
   1  -9   6   -0.47    1.18
   1  -9   6    3.43    1.48
   1  -9   7   71.10    3.35
  -1  -9  -7   67.87    3.81
   1   9   7   77.45    3.43
   1  -9   7   69.21    3.39
   1  -9   8    3.18    1.97
  -1  -9  -8    5.90    2.22
   1   9   8    4.53    2.02
   1  -9   8    5.56    1.69
   1  -9   9    3.38    2.32
   1   9   9    9.05    2.35
   1  -9   9    8.86    1.93
  -1 -10  10    3.98    1.85
  -1 -10   9   37.71    2.64
   1 -10  -8    7.32    2.26
  -1 -10   8    6.37    1.57
  -1 -10   7    3.74    2.26
  -1 -10   7    0.97    1.23
   1 -10  -7    1.00    1.91
   1 -10  -6   26.53    2.33
  -1 -10   6   24.76    1.72
  -1 -10   6   28.01    2.56
  -1  10   6   22.18    1.55
  -1 -10   5   69.38    2.94
  -1  10   5   71.55    3.09
  -1 -10   5   74.31    2.68
  -1  10   5   65.37    2.65
   1 -10  -5   69.02    3.35
  -1 -10   4   28.03    1.54
   1 -10  -4   27.58    1.89
  -1  10   4   29.09    1.84
   1  10  -4   27.84    1.54
  -1  10   4   24.19    1.32
  -1 -10   4   27.28    1.33
   1  10  -3   46.04    1.93
  -1 -10   3   44.65    1.87
  -1 -10   3   44.61    1.67
   1 -10  -3   48.17    2.24
  -1  10   3   49.63    2.27
   1 -10  -2    8.09    1.08
  -1 -10   2    6.85    0.80
   1  10  -2    7.28    0.87
  -1  10   2    8.31    1.11
  -1 -10   1    0.50    0.62
   1  10  -1    1.33    0.71
   1 -10  -1    0.41    0.87
  -1  10   1    0.91    0.96
   1 -10   0    0.12    0.80
  -1  10   0    0.48    0.96
  -1 -10   0    0.32    0.67
   1  10   0    0.65    0.67
  -1 -10  -1    6.03    0.88
  -1  10  -1    4.65    1.11
   1 -10   1    5.69    1.00
   1  10   1    5.85    0.81
   1  10   2   23.92    1.09
  -1  10  -2   20.80    1.65
  -1 -10  -2   24.21    1.50
   1 -10   2   23.94    1.08
   1  10   2   22.77    1.29
   1  10   2   27.41    1.06
   1  10   2   20.33    1.08
   1 -10   2   16.68    1.00
   1 -10   2   24.08    1.52
   1 -10   2   26.33    1.06
  -1 -10  -3  392.46   13.36
   1  10   3  396.40   13.14
   1  10   3  421.51   13.13
   1 -10   3  382.42   13.31
   1 -10   3  434.08   12.97
  -1  10  -3  404.60   13.41
   1  10   3  416.15   12.98
   1 -10   3  383.33   13.15
   1  10   3  420.42   12.97
   1 -10   3  419.84   12.99
  -1 -10  -4   43.23    2.46
  -1  10  -4   42.47    2.33
   1 -10   4   44.13    2.04
   1 -10   4   41.73    2.29
   1  10   4   46.20    2.07
   1  10   4   45.80    2.12
   1 -10   5  102.95    3.99
   1 -10   5  102.78    4.22
  -1  10  -5  101.02    4.17
   1  10   5  105.86    3.96
  -1 -10  -5  100.60    4.40
   1  10   5  107.41    3.97
   1  10   5  104.63    4.01
   1  10   6   23.35    1.74
   1 -10   6   21.95    1.92
   1  10   6   19.74    1.90
  -1 -10  -6   20.26    2.19
   1 -10   6   18.08    1.87
   1 -10   7    1.69    1.72
  -1 -10  -7    0.40    1.85
   1  10   7    0.23    1.75
   1 -10   7    1.39    1.49
  -1 -10  -8   11.71    2.45
   1 -11  -9    2.36    2.61
   1 -11  -8    4.37    2.35
  -1 -11   8    1.01    1.48
   1 -11  -7   13.95    2.37
  -1 -11   7   12.91    1.70
  -1 -11   6   19.57    1.67
   1 -11  -6   16.64    2.15
   1 -11  -5    2.94    1.46
  -1  11   5    2.01    1.32
  -1 -11   5    2.74    1.07
  -1 -11   4   57.58    2.51
   1 -11  -4   63.40    3.00
   1  11  -4   62.22    2.57
   1 -11  -3    2.37    1.22
   1  11  -3    3.16    0.92
  -1  11   3    3.63    1.15
  -1 -11   3    0.41    0.91
  -1  11   3    1.76    0.52
  -1 -11   3    1.62    0.40
  -1 -11   2  332.07   10.74
   1 -11  -2  348.69   11.09
   1  11  -2  331.81   10.77
  -1 -11   1   30.72    1.47
   1  11  -1   32.77    1.59
   1 -11  -1   33.72    1.80
   1  11   0   80.60    3.03
   1 -11   0   84.30    3.28
  -1 -11   0   82.46    3.00
   1  11   1    0.12    0.76
  -1 -11  -1   -0.16    0.80
   1 -11   1   -0.59    0.99
  -1 -11  -2    3.08    1.08
  -1  11  -2    2.62    1.21
   1 -11   2    1.98    1.12
   1  11   2    2.57    0.81
   1 -11   3    0.05    0.77
   1  11   3    2.82    0.75
   1  11   3    0.79    1.01
   1 -11   3    1.90    1.05
  -1 -11  -3    0.99    1.22
   1 -11   3    1.91    0.82
  -1  11  -3    0.33    1.17
   1  11   3    2.14    0.80
   1  11   3    2.10    0.82
   1  11   4    1.53    1.08
   1 -11   4    1.07    1.14
  -1  11  -4    2.04    1.28
  -1 -11  -4    1.53    1.39
   1  11   4    1.42    1.03
  -1 -11  -5   10.35    1.79
   1  11   5   10.59    1.34
   1 -11   5    9.24    1.50
   1  11   5    9.39    1.44
  -1 -11  -6    2.88    1.77
   1 -11   6    3.50    1.46
  -1 -11  -7   15.79    2.45
   1 -11   7   20.46    2.08
  -1 -11  -8   33.94    3.22
   1 -11   8   34.92    2.69
   1 -12  -8   12.04    2.65
   1 -12  -7   36.76    3.18
   1 -12  -6   20.63    2.38
  -1 -12   6   17.52    1.70
   1 -12  -5   13.52    1.92
  -1 -12   5   14.45    1.40
  -1 -12   4   16.05    1.34
   1 -12  -4   18.02    1.79
  -1  12   4   19.18    1.66
   1 -12  -3   13.83    1.59
  -1  12   3   13.19    1.45
   1  12  -3   16.58    1.26
  -1 -12   3   14.80    1.18
  -1 -12   2    1.40    0.81
   1  12  -2    2.20    0.89
  -1  12   2    2.08    1.18
   1 -12  -2    1.09    1.13
  -1 -12   1   28.56    1.44
   1 -12  -1   29.02    1.76
  -1  12   1   29.16    1.89
   1  12  -1   27.18    1.52
   1 -12   0   31.85    1.84
  -1  12   0   32.97    1.93
   1  12   0   29.77    1.57
  -1 -12   0   31.27    1.57
  -1 -12  -1    4.60    1.00
  -1  12  -1    5.12    1.28
   1  12   1    4.35    0.93
   1 -12   1    5.38    1.16
  -1 -12  -2    0.41    1.12
  -1  12  -2    1.90    1.25
   1  12   2    0.17    0.88
   1 -12   2   -0.05    1.10
  -1 -12  -3  132.00    5.10
  -1  12  -3  141.07    5.16
   1 -12   3  131.92    5.07
  -1 -12  -4   20.79    1.92
   1 -12   4   15.64    1.55
  -1 -12  -5    6.53    1.81
   1 -12   5    7.59    1.50
   1 -12   6   -0.66    1.44
   1 -12   7    2.13    1.66
   1 -13  -8    2.12    2.52
   1 -13  -7   27.39    3.09
   1 -13  -6   27.64    2.70
   1 -13  -5   27.55    2.45
   1 -13  -4    1.99    1.44
   1 -13  -3    1.04    1.30
  -1  13   2  100.65    4.07
   1 -13  -2  100.07    4.05
  -1  13   1    9.21    1.43
   1 -13  -1    6.36    1.26
   1 -13   0    5.69    1.24
  -1  13   0    6.75    1.38
   1 -13   1    0.72    1.14
  -1  13  -1   -0.99    1.28
  -1  13  -2    0.36    1.29
   1 -13   2    1.83    1.16
   1 -13   3    1.39    1.32
   1 -13   4    0.56    1.30
   1 -13   5    1.76    1.35
   1 -13   6    2.77    1.55
   1 -13   7    0.08    1.73
   1 -14  -7    0.92    2.57
   1 -14  -6    1.31    2.16
   1 -14  -5    7.85    2.08
   1 -14  -4    0.75    1.60
   1 -14  -3   16.10    1.86
   1 -14  -2    2.33    1.38
   1 -14  -1   12.20    1.49
   1 -14   0   10.95    1.44
   1 -14   1    9.40    1.45
   1 -14   2   12.84    1.58
   1 -14   3    0.37    1.35
   1 -14   4    6.26    1.65
   1 -14   5    2.95    1.57
   1 -14   6    3.82    1.68
   1 -15  -3   11.98    1.89
   1 -15  -2    2.40    1.53
   1 -15  -1   15.43    1.72
   1 -15   0   42.94    2.40
   1 -15   1   26.69    1.97
   1 -15   2    2.93    1.46
   2   0 -10   20.31    2.67
   2   0  -9    1.87    1.91
   2   0  -8  147.74    5.95
  -2   0   8  141.34    5.45
  -2   0   7    0.60    1.13
   2   0  -7    0.08    1.26
  -2   0   6  679.93   21.67
   2   0  -6  690.03   22.00
   2   0  -5   -0.80    0.97
  -2   0   5    1.50    0.81
   2   0  -4  684.48   21.96
  -2   0   4  706.41   21.81
  -2   0   3    0.57    0.55
   2   0  -3   -0.24    0.52
   2   0  -2    1.07    0.40
  -2   0   2    0.29    0.40
   2   0  -1    0.31    0.32
  -2   0   1    0.27    0.38
  -2   0   0  307.96    9.54
   2   0   0  298.05    9.52
  -2   0  -1    0.15    0.50
   2   0   1    0.19    0.44
   2   0   2  163.89    5.48
  -2   0  -2  166.24    5.48
  -2   0  -3   -0.34    0.68
   2   0   3   -0.42    0.59
   2   0   4   56.28    2.32
   2   0   5    0.60    1.25
   2   0   5    0.51    0.73
   2   0   6   55.45    3.12
   2   0   6   63.98    2.77
   2   0   7   -0.31    1.09
   2   0   7    0.77    1.69
   2   0   8    8.68    1.50
   2   0   9    0.08    1.42
   2   0  10    0.54    1.62
  -2  -1  12    6.12    1.67
  -2  -1  11    3.16    1.97
   2  -1 -11    0.43    2.43
  -2   1  11    0.44    1.91
  -2  -1  11    1.91    1.38
  -2  -1  10    3.22    1.78
   2  -1 -10    3.54    2.16
   2  -1  -9  111.08    5.16
   2   1  -9  117.40    5.19
  -2  -1   9  106.52    4.45
   2   1  -8    0.26    1.74
  -2   1   8    2.38    1.36
  -2   1   8    2.90    1.44
  -2  -1   8    3.93    1.44
  -2  -1   8    4.26    1.49
   2  -1  -8    1.63    1.62
  -2  -1   8    3.61    1.36
   2   1  -8    1.71    1.70
   2  -1  -8   -0.09    1.79
  -2   1   7  134.35    4.83
  -2  -1   7  130.51    4.86
  -2  -1   7  127.30    4.81
   2   1  -7  139.84    5.41
   2  -1  -7  139.18    5.27
  -2  -1   7  128.22    4.99
  -2   1   7  134.10    4.97
   2  -1  -7  141.96    5.38
   2   1  -7  134.71    5.23
   2   1  -6    0.42    0.97
  -2  -1   6    0.60    0.92
  -2   1   6    0.23    0.92
  -2  -1   6    1.43    0.95
   2  -1  -6    0.47    1.08
   2   1  -6    1.78    1.12
   2  -1  -6    1.94    1.01
  -2   1   6    0.40    0.90
  -2  -1   5  113.44    3.99
   2  -1  -5  107.31    4.21
  -2   1   5  106.32    3.96
   2   1  -5  115.17    4.24
   2  -1  -5  106.25    4.10
   2  -1  -5  116.85    4.07
   2   1  -5  104.02    4.02
  -2   1   5  118.95    4.03
  -2  -1   5  115.10    4.04
   2   1  -5  108.50    4.11
   2  -1  -4   38.38    1.75
   2   1  -4   37.04    1.80
   2   1  -4   34.81    1.62
   2   1  -4   36.27    1.75
   2  -1  -4   36.35    1.67
  -2  -1   4   37.68    1.63
  -2   1   4   33.53    1.62
  -2   1   4   32.96    1.57
  -2  -1   4   35.90    1.60
   2  -1  -4   38.79    1.78
   2   1  -3  228.50    7.98
  -2  -1   3  260.69    8.05
   2  -1  -3  255.12    8.03
  -2   1   3  248.57    7.98
  -2   1   3  239.06    8.01
  -2  -1   3  253.61    7.94
   2  -1  -3  244.97    8.04
   2   1  -3  263.42    8.07
   2   1  -2   22.83    1.14
  -2  -1   2   26.03    1.03
  -2   1   2   26.15    1.13
   2  -1  -2   26.37    1.14
  -2  -1   2   27.49    1.27
   2   1  -2   26.19    1.06
  -2   1   2   24.34    1.27
   2  -1  -2   23.84    1.09
   2  -1  -1  146.63    4.62
   2  -1  -1  156.97    4.78
  -2  -1   1  140.79    4.51
   2   1  -1  131.88    4.50
   2   1  -1  143.40    4.74
  -2   1   1  141.11    4.62
  -2   1   1  134.37    4.79
  -2  -1   1  151.08    4.84
  -2   1   0  940.83   31.45
  -2  -1   0 1032.39   31.50
  -2  -1   0 1009.77   31.12
   2  -1   0 1071.37   31.46
  -2   1   0 1007.42   31.22
   2  -1   0  987.65   31.19
   2   1   0  968.25   31.41
   2   1   0 1030.35   31.11
  -2  -1  -1 3053.41   93.90
  -2   1  -1 3069.67   94.00
   2  -1   1 3051.52   93.99
   2   1   1 3094.11   93.90
   2   1   1 2891.28   94.27
   2  -1   1 3095.54   94.31
   2   1   2    0.39    0.48
  -2  -1  -2    0.66    0.57
  -2   1  -2    0.57    0.67
   2  -1   2    0.53    0.54
  -2   1  -3  639.24   20.53
   2  -1   3  674.55   20.57
   2   1   3  646.25   20.47
  -2   1  -4    0.90    0.79
   2   1   4    0.99    0.63
   2   1   4    2.36    1.10
   2  -1   4    1.54    0.71
   2   1   5    7.16    1.45
   2   1   5    8.24    0.97
   2  -1   5    8.40    1.02
   2  -1   5    6.93    1.46
   2   1   6   46.18    2.68
   2  -1   6   45.74    2.73
   2  -1   6   40.97    2.20
   2   1   6   42.83    2.17
   2  -1   7   82.59    4.11
   2  -1   7   81.33    3.60
   2   1   7   86.68    3.61
   2   1   7   86.53    4.04
   2   1   8   47.74    2.63
   2  -1   8   48.35    2.69
   2   1   9   35.17    2.42
   2  -1   9   37.75    2.52
   2   1  10   20.78    2.19
   2  -1  10   21.06    2.21
  -2  -2  12    3.26    1.65
  -2  -2  11   30.25    2.24
  -2  -2  11   34.87    2.69
  -2   2  11   34.05    2.68
   2  -2 -11   28.95    3.33
   2  -2 -10   22.74    2.78
  -2  -2  10   20.54    1.75
  -2  -2  10   21.68    2.20
  -2   2  10   23.80    2.23
  -2  -2   9    0.06    1.53
   2  -2  -9    0.78    1.98
  -2   2   9    0.94    1.50
   2   2  -8  148.49    6.16
   2  -2  -8  145.03    6.11
   2  -2  -8  163.61    6.33
  -2  -2   8  158.01    5.64
  -2   2   8  155.83    5.66
  -2  -2   8  163.75    5.72
  -2   2   8  151.63    5.67
   2   2  -8  160.50    6.30
  -2   2   8  154.40    5.80
  -2  -2   8  162.13    5.94
   2  -2  -7  309.85   10.70
  -2  -2   7  302.39   10.15
  -2   2   7  304.66   10.15
  -2  -2   7  300.70   10.18
  -2   2   7  300.66   10.18
   2   2  -7  316.12   10.70
  -2  -2   7  321.09   10.42
  -2   2   7  318.13   10.32
   2   2  -7  314.08   10.59
   2  -2  -7  306.74   10.57
  -2  -2   6   24.77    1.56
  -2   2   6   26.31    1.57
   2   2  -6   28.09    1.88
   2  -2  -6   26.59    1.87
  -2  -2   6   27.32    1.71
   2   2  -6   29.73    1.80
   2  -2  -6   27.76    1.78
  -2   2   6   27.93    1.65
  -2  -2   5   60.73    2.42
   2   2  -5   59.45    2.66
  -2   2   5   57.98    2.42
  -2   2   5   64.11    2.49
   2   2  -5   54.16    2.55
   2   2  -5   63.41    2.50
   2  -2  -5   59.50    2.66
   2  -2  -5   57.40    2.56
   2  -2  -5   64.30    2.51
  -2  -2   5   58.55    2.49
   2  -2  -4  387.57   12.25
   2  -2  -4  377.74   12.22
  -2  -2   4  374.11   12.17
   2   2  -4  393.82   12.26
   2   2  -4  387.54   12.23
   2   2  -4  389.92   12.36
  -2   2   4  368.86   12.17
  -2   2   4  386.93   12.22
  -2  -2   4  387.71   12.19
   2  -2  -4  382.25   12.34
   2   2  -3   56.55    2.12
   2  -2  -3   56.89    2.12
  -2   2   3   55.56    2.13
   2   2  -3   58.58    2.18
  -2  -2   3   55.02    2.02
   2  -2  -3   54.21    2.16
  -2  -2   3   55.28    2.14
  -2   2   3   54.13    2.14
   2  -2  -2  128.87    4.28
   2   2  -2  131.70    4.28
  -2   2   2  135.82    4.31
  -2  -2   2  144.85    4.40
  -2   2   2  137.32    4.39
  -2  -2   2  136.35    4.11
   2  -2  -2  137.08    4.30
  -2   2   1   33.53    1.61
  -2  -2   1   37.05    1.63
   2  -2  -1   35.21    1.41
  -2  -2   1   34.10    1.21
   2   2  -1   37.56    1.51
   2  -2  -1   34.30    1.49
  -2   2   1   33.17    1.41
   2   2  -1   36.06    1.21
  -2  -2   0  495.94   14.47
  -2   2   0  451.83   14.17
   2   2   0  452.09   13.95
  -2   2   0  458.56   14.41
   2  -2   0  453.30   14.31
   2   2   0  459.71   14.32
  -2  -2   0  459.31   13.96
  -2  -2  -1    5.43    0.52
  -2   2  -1    5.49    0.72
   2   2   1    5.92    0.52
   2   2   1    6.02    0.90
   2  -2   1    6.29    0.90
   2  -2   1    6.38    0.67
   2   2   2 1125.65   35.10
   2  -2   2 1130.44   35.07
  -2   2  -2 1141.04   35.09
   2   2   2 1118.69   34.92
   2   2   3  159.19    5.34
   2   2   3  159.39    5.60
  -2   2  -3  163.19    5.50
   2  -2   3  156.45    5.47
   2   2   4    0.53    1.02
  -2   2  -4    0.79    0.83
   2   2   4    0.81    0.62
   2  -2   4    1.06    0.70
   2   2   5   87.53    3.74
   2   2   5   88.87    3.39
   2  -2   5   88.46    3.51
   2  -2   6   -1.06    1.58
   2   2   6   -0.80    1.47
   2  -2   6    0.18    1.03
   2   2   6    0.41    0.93
   2   2   7    6.83    1.82
   2  -2   7    4.86    1.32
   2   2   7    3.69    1.16
   2   2   8   33.24    2.16
   2  -2   8   33.51    2.26
   2   2   9    0.92    1.40
   2  -2   9    0.85    1.45
   2   2  10   -0.77    1.58
   2  -2  10    1.41    1.74
  -2  -3  11   35.90    2.71
  -2   3  11   29.78    2.58
  -2  -3  11   32.39    2.28
  -2  -3  10    4.53    1.78
  -2   3  10    2.36    1.75
  -2  -3  10    4.53    1.37
  -2  -3   9   -0.06    1.57
  -2   3   9    0.06    1.56
  -2  -3   9    1.01    1.10
   2  -3  -8   -2.79    1.85
   2   3  -8   -2.93    1.84
  -2  -3   8   -0.64    1.35
  -2   3   8    1.63    1.33
  -2  -3   8    0.26    1.42
  -2   3   8    1.99    1.39
  -2   3   8    1.19    1.39
  -2  -3   8    1.17    1.50
  -2  -3   7    8.03    1.31
  -2   3   7    8.06    1.27
  -2  -3   7    8.23    1.24
  -2   3   7    8.74    1.28
  -2   3   7    9.26    1.34
  -2  -3   7    9.30    1.50
   2   3  -7    6.69    1.55
   2  -3  -7    6.22    1.53
  -2  -3   6    1.45    0.95
  -2   3   6    2.45    0.98
  -2   3   6    4.15    1.07
  -2  -3   6    4.57    1.12
   2  -3  -6    3.18    1.07
   2   3  -6    4.25    1.23
   2   3  -6    4.87    1.18
  -2   3   5   17.52    1.24
   2   3  -5   18.03    1.41
   2  -3  -5   19.78    1.30
  -2  -3   5   18.70    1.30
  -2   3   5   17.93    1.25
   2   3  -5   17.94    1.48
   2  -3  -5   14.08    1.40
  -2  -3   5   18.73    1.26
   2   3  -4   38.37    1.70
   2   3  -4   37.29    1.79
  -2  -3   4   38.45    1.68
  -2   3   4   36.93    1.64
   2  -3  -4   37.58    1.68
   2  -3  -4   37.07    1.81
   2   3  -4   36.21    1.79
  -2   3   4   33.54    1.66
  -2  -3   4   39.20    1.64
  -2   3   3  818.91   27.18
   2  -3  -3  895.04   27.16
   2   3  -3  880.30   27.16
   2  -3  -3  864.90   27.15
   2   3  -3  894.20   27.16
  -2  -3   3  905.92   27.20
  -2   3   3  868.36   27.19
   2   3  -3  869.40   27.19
  -2  -3   3  866.31   27.06
  -2  -3   2   37.72    1.53
   2   3  -2   32.55    1.29
  -2  -3   2   33.63    1.18
  -2   3   2   31.22    1.46
  -2   3   2   31.92    1.47
   2   3  -2   33.86    1.39
   2  -3  -2   32.43    1.39
  -2   3   1   74.64    2.88
  -2  -3   1   92.07    3.11
  -2   3   1   81.79    3.05
   2   3  -1   84.60    2.95
   2  -3  -1   83.98    2.96
   2  -3   0  321.16   10.25
  -2   3   0  293.76   10.14
   2   3   0  322.65   10.26
   2   3   0  323.02    9.86
   2   3   1 1253.35   36.18
   2   3   1 1144.05   36.27
   2   3   1 1181.50   36.62
   2  -3   1 1170.07   36.63
  -2   3  -2    0.17    0.72
   2   3   2    0.51    0.71
   2   3   2    0.20    0.45
  -2   3  -3    0.55    0.78
   2   3   3    1.23    0.54
   2   3   3    2.37    0.87
   2   3   4    1.72    1.05
  -2   3  -4    0.35    0.85
   2   3   4   -0.10    0.61
  -2   3  -5    3.43    1.08
   2   3   5    5.45    1.32
   2   3   5    3.38    0.83
   2   3   6   23.03    2.07
   2   3   6   22.27    1.56
   2   3   7   10.91    1.93
   2   3   7   12.70    1.41
   2   3   8   18.02    1.77
   2   3   9    4.47    1.50
   2   3  10   31.48    2.50
  -2  -4  11    1.47    2.00
  -2   4  11    0.87    1.99
  -2  -4  11    2.13    1.49
  -2  -4  10    4.84    1.80
  -2   4  10    4.27    1.83
  -2  -4  10    5.84    1.40
  -2  -4   9    9.77    1.70
  -2   4   9   11.03    1.77
  -2  -4   9   12.04    1.42
  -2  -4   8   46.00    2.72
   2  -4  -8   43.37    2.90
  -2  -4   8   48.69    2.42
  -2   4   8   51.01    2.48
  -2  -4   8   48.61    2.34
   2   4  -8   39.21    2.86
  -2   4   8   43.96    2.48
  -2  -4   8   48.23    2.48
  -2  -4   7   18.90    1.34
  -2  -4   7   14.76    1.46
  -2   4   7   13.89    1.45
  -2  -4   7   15.27    1.69
   2   4  -7   15.14    1.83
   2  -4  -7   12.84    1.75
  -2  -4   6   39.04    2.13
  -2  -4   6   39.43    1.96
  -2   4   6   39.13    1.96
   2  -4  -6   40.28    2.17
  -2  -4   6   40.55    1.88
   2   4  -6   41.24    2.22
  -2  -4   5   67.43    2.77
   2  -4  -5   61.24    2.77
  -2  -4   5   69.15    2.57
   2   4  -5   70.28    2.78
   2  -4  -5   66.24    2.73
   2   4  -5   63.29    2.82
  -2  -4   5   71.14    2.65
  -2   4   5   69.09    2.68
  -2  -4   4  188.95    6.46
   2   4  -4  200.90    6.50
   2   4  -4  203.60    6.53
   2  -4  -4  190.44    6.48
  -2  -4   4  199.72    6.35
   2  -4  -4  191.43    6.49
  -2   4   4  189.97    6.43
  -2  -4   4  194.96    6.41
   2   4  -3   10.11    0.86
   2  -4  -3    9.63    0.80
   2   4  -3    8.95    0.92
   2  -4  -3    8.41    0.93
  -2  -4   3    9.28    0.61
  -2  -4   3    9.22    0.82
  -2   4   3    9.58    0.83
  -2  -4   3    9.28    0.74
  -2  -4   2   16.70    0.70
  -2   4   2   16.05    1.03
  -2  -4   2   19.98    1.10
  -2  -4   2   17.67    0.71
   2   4  -2   17.95    0.93
   2  -4  -2   19.76    0.93
   2   4  -1   71.98    2.62
  -2  -4   1   77.69    2.81
  -2   4   1   69.30    2.76
   2  -4  -1   71.73    2.62
   2   4   0  138.59    4.55
   2  -4   0  126.67    4.53
   2   4   1  215.48    7.13
   2   4   1  228.32    7.06
   2  -4   1  220.32    7.53
   2   4   1  236.33    7.55
   2   4   2   91.59    3.35
   2   4   2   96.33    3.20
   2   4   3   54.30    2.33
   2   4   3   53.84    2.08
   2   4   4   17.99    1.15
   2   4   4   18.54    1.48
   2   4   5   26.20    1.91
   2   4   5   29.29    1.57
   2   4   6   74.53    3.63
   2   4   6   85.76    3.32
   2   4   7    8.23    1.29
   2   4   7    8.39    1.88
   2   4   8    3.32    1.33
   2   4  10   24.29    2.25
   2  -5 -11    0.74    2.56
  -2  -5  11    2.08    1.45
  -2   5  10   -0.59    1.74
   2  -5 -10    3.90    2.28
  -2  -5  10    0.98    1.30
   2  -5  -9   12.93    2.33
  -2  -5   9    7.72    1.39
  -2  -5   8    5.02    1.38
  -2   5   8    4.65    1.42
   2  -5  -8    9.03    2.00
  -2  -5   8    7.97    1.73
  -2  -5   8    4.66    1.17
   2   5  -7  148.16    5.81
   2  -5  -7  145.10    5.76
  -2  -5   7  139.27    5.55
   2  -5  -7  153.05    5.95
  -2  -5   7  152.45    5.32
  -2   5   7  147.34    5.33
  -2  -5   7  150.55    5.32
  -2   5   7  153.01    5.47
  -2  -5   6   26.34    1.64
  -2  -5   6   29.20    1.89
  -2   5   6   26.54    1.67
  -2  -5   6   30.12    1.58
   2  -5  -6   33.13    1.98
  -2   5   6   28.62    1.77
   2   5  -6   29.78    1.96
   2  -5  -6   33.44    2.09
  -2  -5   5  172.22    6.27
   2  -5  -5  184.43    6.30
  -2   5   5  181.65    6.28
   2   5  -5  189.89    6.34
  -2  -5   5  181.51    6.12
  -2  -5   5  185.38    6.15
  -2   5   5  189.66    6.17
   2  -5  -5  181.97    6.48
   2   5  -4  182.74    6.05
  -2  -5   4  169.37    5.99
  -2  -5   4  183.27    5.87
   2  -5  -4  179.64    6.03
   2  -5  -4  173.41    5.98
  -2   5   4  182.78    6.10
   2   5  -4  179.94    6.01
  -2  -5   4  181.60    5.94
  -2   5   4  177.67    5.95
   2  -5  -4  181.36    6.18
  -2  -5   3  406.75   12.73
   2   5  -3  424.62   12.82
   2  -5  -3  410.84   12.81
  -2  -5   3  407.92   12.86
  -2   5   3  400.92   12.86
   2   5  -3  407.25   12.80
   2  -5  -3  390.64   12.78
  -2   5   3  393.79   12.93
  -2  -5   3  397.67   12.66
   2  -5  -3  411.89   12.98
   2  -5  -2    5.01    0.60
   2  -5  -2    5.52    0.75
  -2  -5   2    6.68    0.76
  -2   5   2    4.68    0.70
  -2  -5   2    4.85    0.34
  -2   5   2    4.19    0.82
   2   5  -2    4.71    0.61
  -2  -5   2    5.35    0.39
  -2   5   1  106.43    4.02
  -2  -5   1  125.85    4.10
  -2   5   1  100.23    3.95
   2   5  -1  117.23    3.88
   2  -5  -1  117.43    3.88
   2  -5  -1  117.15    4.01
   2  -5   0   73.48    2.76
  -2   5   0   67.64    2.74
   2   5   0   74.65    2.67
   2  -5   0   70.93    2.67
  -2   5  -1  108.73    4.13
   2  -5   1  118.36    4.24
   2  -5   1  114.93    4.14
   2   5   1  124.56    4.26
   2   5   1  113.74    3.77
   2   5   1  119.92    3.76
  -2   5  -2   89.48    3.49
   2  -5   2   98.09    3.51
   2   5   2   92.96    3.14
   2   5   2   91.98    3.22
  -2   5  -3  170.38    6.09
   2   5   3  179.20    5.82
   2  -5   3  180.74    6.12
   2   5   3  173.46    5.94
   2   5   4   21.65    1.53
   2  -5   4   21.38    1.49
  -2   5  -4   22.14    1.56
   2   5   4   22.84    1.27
   2   5   5   67.34    3.03
   2   5   5   65.91    2.72
   2  -5   5   66.27    2.97
  -2   5  -5   67.13    2.97
   2   5   6    0.69    1.43
   2   5   6    0.64    0.95
   2  -5   6    0.07    1.19
  -2   5  -6    1.75    1.29
   2   5   7   72.56    3.23
   2  -5   7   74.35    3.47
   2   5   7   76.38    3.62
   2   5   8   20.77    1.84
   2  -5   8   22.45    2.06
   2   5   9    5.63    1.56
   2  -5   9    7.57    1.82
   2   5  10    5.57    1.75
  -2  -6  11   17.51    2.06
   2  -6 -10    1.70    2.26
  -2  -6  10    2.99    1.43
  -2  -6   9   29.61    2.02
   2  -6  -9   28.96    2.77
  -2  -6   8    0.75    1.38
  -2   6   8    0.05    1.37
  -2  -6   8    3.10    1.66
  -2  -6   8    3.44    1.20
   2  -6  -8    4.19    1.86
   2   6  -7   -1.80    1.72
   2  -6  -7   -1.67    1.63
  -2  -6   7   -1.11    1.24
  -2   6   7   -0.27    1.25
  -2   6   7    1.19    1.32
   2  -6  -7    1.45    1.61
  -2  -6   7    0.94    1.46
  -2  -6   7    1.75    1.02
  -2  -6   6   26.89    1.91
  -2  -6   6   27.99    1.58
   2  -6  -6   27.14    2.07
  -2   6   6   29.62    1.78
   2   6  -6   27.05    1.97
   2  -6  -6   28.38    2.00
  -2  -6   6   26.58    1.61
  -2   6   6   27.88    1.66
  -2  -6   5   81.80    3.37
  -2  -6   5   89.79    3.20
   2  -6  -5   83.00    3.53
  -2   6   5   91.48    3.41
   2   6  -5   88.76    3.43
  -2   6   5   89.14    3.21
   2  -6  -5   79.82    3.37
  -2  -6   5   85.62    3.19
  -2  -6   4   74.95    2.91
  -2  -6   4   77.32    2.77
   2   6  -4   80.12    2.93
   2  -6  -4   73.28    2.87
  -2   6   4   83.08    3.07
  -2   6   4   75.59    2.84
   2  -6  -4   77.61    3.09
   2   6  -4   75.55    2.96
   2  -6  -4   76.48    2.94
  -2  -6   4   75.88    2.83
  -2  -6   3   15.08    0.95
  -2  -6   3   15.92    0.81
  -2   6   3   14.76    1.15
   2   6  -3   18.58    1.04
   2  -6  -3   15.68    0.98
   2   6  -3   16.73    1.09
   2  -6  -3   16.13    1.10
  -2   6   3   15.80    1.05
  -2  -6   3   15.60    1.03
   2  -6  -3   16.04    1.15
  -2  -6   2  260.07    8.08
   2   6  -2  276.80    8.28
   2  -6  -2  261.17    8.26
  -2  -6   2  243.60    8.02
   2  -6  -2  278.24    8.52
  -2   6   2  273.94    8.52
  -2  -6   2  275.44    8.42
  -2   6   2  256.76    8.39
   2  -6  -1   -0.32    0.64
   2  -6  -1    1.23    0.46
   2   6  -1    0.94    0.46
  -2  -6   1    1.03    0.73
  -2   6   1    0.31    0.75
  -2   6   1   -0.28    0.76
  -2   6   0  322.45   10.84
   2   6   0  342.74   10.72
   2  -6   0  318.38   10.69
   2   6   1   98.57    3.49
  -2   6  -1   88.28    3.44
   2  -6   1   88.79    3.39
   2  -6   1   90.02    3.46
   2   6   1   93.55    3.00
   2  -6   2  156.23    5.53
   2  -6   2  149.35    5.34
   2   6   2  164.15    5.55
  -2   6  -2  152.27    5.38
   2   6   2  149.21    4.99
   2   6   3    1.73    0.73
   2  -6   3    1.89    0.85
  -2   6  -3    2.20    1.01
   2   6   4    3.33    0.98
  -2   6  -4    2.99    1.11
   2  -6   4    4.00    1.00
   2   6   5   30.63    1.62
  -2   6  -5   28.13    1.92
   2  -6   5   24.78    1.85
   2   6   5   27.98    1.83
   2   6   6    0.64    1.38
   2  -6   6    1.36    1.21
   2   6   6    1.67    1.02
   2   6   7   38.18    2.19
   2  -6   7   37.19    2.41
   2   6   7   42.12    2.50
   2   6   8   68.02    3.22
   2  -6   8   70.52    3.52
   2  -6   9   13.32    2.08
   2   6   9   13.92    1.78
   2   6  10   51.17    3.05
  -2  -7  11   10.38    1.87
  -2  -7  10   25.23    2.17
   2  -7 -10   29.84    3.17
   2  -7  -9   16.92    2.55
  -2  -7   9   13.44    1.68
  -2  -7   8   -2.54    1.45
  -2   7   8   -3.09    1.50
  -2  -7   8   -0.67    1.70
   2  -7  -8    0.10    1.79
  -2  -7   8   -0.65    1.16
   2  -7  -7  165.83    6.44
  -2  -7   7  157.67    6.04
  -2  -7   7  167.45    5.84
  -2  -7   7  165.20    5.77
  -2   7   7  159.62    5.78
  -2  -7   6   21.97    1.38
   2  -7  -6   19.72    1.93
  -2  -7   6   16.79    1.64
  -2  -7   6   17.97    1.35
  -2   7   6   21.56    1.41
   2   7  -6   13.55    1.78
   2  -7  -6   13.85    1.70
  -2   7   6   19.98    1.61
  -2   7   5  174.52    5.97
  -2  -7   5  165.80    5.91
  -2  -7   5  173.09    5.76
  -2   7   5  171.52    5.73
  -2  -7   5  163.83    5.70
   2   7  -5  166.30    5.99
   2  -7  -5  168.51    5.98
   2  -7  -5  170.31    6.15
  -2  -7   4   13.74    1.13
   2  -7  -4   13.67    1.25
  -2   7   4   11.32    1.02
  -2  -7   4   11.56    1.01
   2  -7  -4   13.27    1.11
  -2  -7   4   12.52    0.91
   2   7  -4   14.13    1.15
  -2   7   4   14.65    1.27
  -2  -7   3   66.79    2.35
  -2  -7   3   64.60    2.47
   2  -7  -3   63.59    2.50
   2  -7  -3   70.14    2.79
   2   7  -3   69.02    2.54
   2   7  -3   69.24    2.59
  -2   7   3   75.21    2.85
   2  -7  -3   66.50    2.55
  -2   7   3   68.04    2.58
  -2  -7   3   68.82    2.57
  -2  -7   2   21.56    0.96
   2   7  -2   24.18    1.12
   2  -7  -2   22.64    1.10
   2   7  -2   22.88    1.16
   2  -7  -2   24.17    1.16
  -2  -7   2   23.37    0.87
  -2   7   2   24.53    1.39
  -2  -7   2   23.54    1.28
  -2   7   2   19.56    1.27
   2  -7  -2   24.24    1.36
  -2   7   1   41.75    1.97
   2   7  -1   42.29    1.64
   2  -7  -1   46.46    1.98
   2  -7  -1   39.97    1.63
  -2   7   1   41.27    1.96
  -2   7   0   40.26    1.96
   2  -7   0   46.03    2.02
   2   7   0   45.04    1.75
   2  -7   0   39.11    1.70
  -2  -7  -1  101.33    3.49
  -2   7  -1  101.65    3.86
   2   7   1  106.02    3.79
   2   7   1  106.76    3.37
   2  -7   1   98.48    3.74
   2  -7   1  103.84    3.83
   2  -7   2  126.63    4.69
  -2  -7  -2  125.37    4.47
  -2   7  -2  127.99    4.72
   2   7   2  137.51    4.78
   2  -7   2  131.65    4.82
   2   7   2  131.48    4.28
  -2   7  -3   37.67    2.04
   2   7   3   37.99    1.68
   2  -7   3   36.88    2.00
  -2   7  -4   71.24    3.10
   2  -7   4   73.65    3.14
   2   7   4   68.84    2.81
   2  -7   5   33.07    2.13
  -2   7  -5   37.55    2.23
   2   7   5   36.32    1.96
   2  -7   6    2.16    1.28
   2   7   6    3.37    1.14
   2   7   6    3.70    1.34
   2   7   7    8.24    1.62
   2   7   7    5.11    1.26
   2  -7   7    4.56    1.47
   2   7   8   12.15    1.64
   2  -7   8   11.39    1.81
   2   7   9   10.31    1.70
   2  -7   9    9.29    1.99
   2   7  10    1.92    1.67
  -2  -8  11    7.64    1.86
  -2  -8  10    0.68    1.56
   2  -8 -10    3.17    2.49
   2  -8  -9    6.55    2.29
  -2  -8   9    5.55    1.49
  -2   8   8   -0.83    1.40
   2  -8  -8    2.26    1.90
  -2  -8   8    2.27    1.76
  -2  -8   8    2.67    1.32
  -2  -8   8    3.22    1.32
   2  -8  -7   18.90    2.15
  -2  -8   7   16.43    1.86
  -2  -8   7   15.80    1.52
  -2  -8   7   17.65    1.45
  -2   8   7   15.63    1.42
  -2   8   6    8.04    1.37
   2   8  -6    1.41    1.56
   2  -8  -6    3.83    1.54
  -2   8   6    8.19    1.10
   2  -8  -6    7.98    1.67
  -2  -8   6    7.84    1.42
  -2  -8   6   10.70    1.11
  -2  -8   6    8.86    1.17
  -2  -8   5   24.98    1.46
  -2  -8   5   26.10    1.71
  -2   8   5   28.03    1.82
  -2  -8   5   24.89    1.42
  -2   8   5   25.29    1.47
   2  -8  -5   26.04    1.89
   2   8  -5   23.00    1.83
   2  -8  -5   24.21    1.80
  -2  -8   4   73.71    2.91
  -2   8   4   79.08    3.15
  -2  -8   4   76.31    2.75
  -2   8   4   71.31    2.86
   2   8  -4   75.87    3.00
   2  -8  -4   76.54    2.99
   2  -8  -4   78.37    3.24
  -2  -8   4   74.55    2.87
   2  -8  -3    3.70    0.94
  -2  -8   3    2.60    0.73
  -2   8   3    1.96    0.73
   2   8  -3    1.11    0.91
   2  -8  -3    2.61    0.90
   2  -8  -3    3.56    0.75
  -2  -8   3    1.83    0.49
  -2  -8   3    1.57    0.73
  -2   8   3    2.88    1.07
   2   8  -3    4.59    0.76
  -2  -8   2   32.03    1.43
   2   8  -2   40.38    1.56
   2  -8  -2   36.95    1.52
   2   8  -2   40.03    1.59
   2  -8  -2   37.08    1.57
  -2   8   2   33.98    1.77
  -2  -8   2   39.89    1.76
  -2  -8   2   38.32    1.31
   2  -8  -2   37.06    1.85
  -2   8   2   33.80    1.75
   2  -8  -1   13.00    1.11
   2  -8  -1    9.26    0.71
  -2   8   1   11.31    1.15
   2   8  -1   11.17    0.73
  -2  -8   0   10.45    0.60
   2   8   0    9.83    0.50
   2   8   0   12.30    0.82
   2  -8   0   10.26    0.79
  -2   8   0   10.95    1.16
   2  -8   0   12.75    1.11
   2  -8   1   85.64    3.25
  -2   8  -1   92.29    3.52
  -2  -8  -1   88.35    3.09
   2   8   1   87.25    2.94
   2  -8   1   95.97    3.52
   2   8   1   92.74    3.28
   2   8   2    6.88    0.70
  -2  -8  -2    8.27    0.96
  -2   8  -2    7.77    1.21
   2  -8   2    6.07    0.99
   2   8   2    7.65    1.09
   2  -8   2    8.02    1.15
   2  -8   3   99.63    3.99
  -2  -8  -3  101.58    3.88
   2   8   3  104.57    3.58
  -2   8  -3   96.38    4.00
   2   8   3  108.99    4.17
   2  -8   3  102.00    4.20
   2  -8   4  135.85    5.23
  -2   8  -4  134.81    5.19
   2   8   4  142.17    4.84
   2   8   5    6.73    1.19
   2  -8   5    4.00    1.32
   2  -8   6   92.72    4.47
   2   8   6   85.64    4.07
   2   8   6   86.14    3.54
   2  -8   6   79.55    3.75
   2   8   7   26.14    1.85
   2  -8   7   23.75    2.11
   2   8   7   27.27    2.08
   2  -8   8   34.07    2.57
   2   8   8   37.48    2.30
   2   8   9    3.85    1.56
  -2  -9  10   -0.71    1.68
   2  -9  -9    7.26    2.45
  -2  -9   9    7.35    1.64
   2  -9  -8   -1.68    2.12
  -2   9   8    1.94    1.24
  -2  -9   8    0.57    1.32
   2  -9  -7    8.38    1.96
  -2  -9   7    8.67    1.68
  -2   9   7   10.31    1.31
  -2  -9   7   10.91    1.27
  -2  -9   7    6.96    1.35
   2  -9  -6    1.31    1.54
  -2  -9   6    1.87    1.35
  -2  -9   6    1.06    1.00
  -2  -9   6    1.80    0.98
  -2   9   6    1.03    0.96
   2   9  -5    2.32    1.34
   2  -9  -5    6.42    1.41
  -2  -9   5    5.34    0.99
  -2   9   5    5.42    1.34
  -2  -9   5    6.14    1.27
  -2   9   5    4.23    0.99
  -2  -9   5    5.74    0.90
   2  -9  -4   14.26    1.48
  -2   9   4   13.35    1.14
  -2  -9   4   14.27    1.30
  -2  -9   4   14.82    1.01
  -2  -9   4   15.60    1.11
   2   9  -4   13.14    1.35
   2  -9  -4   10.72    1.35
  -2   9   4   15.09    1.54
  -2  -9   3  142.58    4.96
  -2  -9   3  147.37    4.78
  -2  -9   3  150.57    5.02
   2   9  -3  144.89    4.99
   2  -9  -3  150.17    5.01
   2  -9  -3  153.79    5.35
  -2   9   3  136.99    5.02
  -2   9   3  153.95    5.32
   2   9  -2   91.80    3.14
   2   9  -2   97.53    3.18
  -2  -9   2   88.74    3.11
  -2   9   2   88.60    3.53
   2  -9  -2   89.54    3.13
  -2  -9   2   88.87    2.96
   2  -9  -2   92.46    3.19
   2  -9  -2   94.24    3.56
  -2  -9   2   94.79    3.35
  -2   9   2   82.01    3.33
   2   9  -1  203.90    6.22
   2  -9  -1  205.79    6.22
   2  -9  -1  202.70    6.23
  -2   9   1  213.28    6.79
   2  -9  -1  213.90    6.75
  -2  -9   1  191.26    6.10
  -2  -9   0   54.37    2.01
  -2   9   0   63.11    2.64
   2   9   0   52.37    1.92
   2  -9   0   61.94    2.08
   2  -9   0   58.18    2.54
   2   9   0   62.95    2.10
   2   9   1   18.64    0.90
  -2  -9  -1   20.07    1.12
   2  -9   1   18.88    1.12
  -2   9  -1   22.55    1.58
   2  -9   1   20.54    1.60
   2   9   1   21.38    1.16
   2   9   2   -0.17    0.90
   2  -9   2   -0.16    0.91
  -2  -9  -2    0.53    0.85
  -2   9  -2    0.05    1.14
   2  -9   2   -0.15    0.92
   2   9   2    0.10    0.61
   2   9   3    1.16    0.74
  -2  -9  -3    1.38    1.06
  -2   9  -3    0.06    1.20
   2   9   3    0.37    1.10
   2  -9   3    0.06    1.17
   2  -9   3    1.52    1.08
  -2  -9  -4   47.86    2.48
   2  -9   4   42.59    2.44
  -2   9  -4   45.46    2.53
   2   9   4   49.33    2.09
   2  -9   5   -2.85    1.94
   2   9   5   -3.94    1.85
   2   9   5    1.59    1.08
   2  -9   5    1.60    1.26
   2   9   6   13.43    1.49
   2  -9   6   13.20    1.74
   2  -9   6   12.53    2.22
   2   9   6   10.67    2.10
   2   9   7   42.61    2.32
   2  -9   7   40.91    2.65
   2   9   8   38.04    2.36
   2  -9   8   42.11    2.80
   2   9   9    2.68    1.59
   2 -10  -9    4.18    2.46
   2 -10  -8   27.87    2.96
  -2 -10   8   32.61    2.25
   2 -10  -7    0.90    1.92
  -2 -10   7    1.58    1.22
  -2  10   6   62.73    2.73
  -2 -10   6   68.51    2.83
   2 -10  -6   61.01    3.34
  -2 -10   5  123.66    4.78
  -2 -10   5  135.09    4.62
  -2 -10   5  132.25    4.63
  -2  10   5  124.48    4.62
   2 -10  -5  136.48    5.19
  -2 -10   4   34.64    1.90
  -2  10   4   37.50    2.23
  -2 -10   4   35.73    1.74
  -2  10   4   36.05    1.79
  -2 -10   4   36.11    1.59
   2 -10  -4   40.65    2.25
  -2 -10   3   40.66    1.91
  -2 -10   3   42.38    1.90
  -2  10   3   44.68    2.23
  -2  10   3   40.90    1.93
  -2 -10   3   43.84    1.67
   2 -10  -3   44.25    2.28
   2  10  -3   41.58    1.96
   2 -10  -3   40.49    2.00
   2  10  -2   36.62    1.52
  -2  10   2   37.27    2.04
   2 -10  -2   36.68    1.55
   2 -10  -2   37.09    1.98
  -2 -10   2   32.22    1.31
   2  10  -1   21.44    0.97
   2 -10  -1   21.31    1.00
   2 -10  -1   20.53    1.05
   2  10  -1   15.99    0.84
   2 -10  -1   20.87    1.51
   2  10  -1   22.47    1.04
  -2  10   1   18.40    1.60
  -2 -10   1   17.58    0.89
  -2 -10   0    9.27    0.81
   2  10   0   10.42    0.65
  -2  10   0   12.90    1.39
   2  10   0   11.58    0.70
   2 -10   0    9.20    0.71
   2 -10   0   13.09    1.30
   2 -10   1    6.75    0.77
  -2 -10  -1    9.16    0.92
   2  10   1    9.75    0.84
   2  10   1    7.50    0.69
  -2  10  -1    9.26    1.35
   2 -10   1   10.42    1.37
  -2 -10  -2   46.30    2.07
  -2  10  -2   47.99    2.47
   2  10   2   46.69    1.79
   2  10   2   46.73    2.05
   2 -10   2   47.30    2.35
  -2 -10  -3   12.64    1.41
   2  10   3   15.75    1.39
  -2  10  -3   12.34    1.57
   2  10   3   15.02    1.08
   2 -10   3   11.22    1.38
   2 -10   3   12.32    1.46
   2  10   4  187.14    6.66
  -2 -10  -4  179.31    6.66
   2  10   4  185.27    6.67
   2 -10   4  170.90    6.79
   2  10   4  197.60    6.28
   2 -10   4  183.34    6.73
   2 -10   5   48.60    2.72
   2 -10   6   11.41    1.75
   2 -10   7    0.94    1.63
   2  10   7    2.37    1.29
   2 -11  -8   -0.12    2.30
   2 -11  -7    2.41    2.02
   2 -11  -6   18.74    2.14
   2 -11  -5   18.67    1.93
  -2 -11   5   15.44    1.25
  -2 -11   4    0.48    0.72
   2 -11  -4    0.13    1.36
  -2 -11   3   45.04    1.76
  -2  11   3   45.49    2.39
   2 -11  -3   46.85    2.44
  -2  11   2   27.93    1.88
   2 -11  -2   27.90    1.76
  -2 -11   2   24.37    1.10
   2  11  -1  295.75    8.99
  -2  11   1  369.19    9.90
  -2 -11   1  312.14    9.03
   2 -11  -1  277.69    8.95
   2 -11  -1  359.34    9.80
   2 -11   0   -0.59    1.11
  -2 -11   0   -1.03    0.79
   2  11   0    1.52    0.49
   2 -11   0    1.61    0.47
   2  11   0    0.90    0.53
   2 -11   0    1.04    0.53
   2  11   0    0.04    0.54
  -2  11   0    1.24    1.20
  -2 -11  -1    2.59    0.82
  -2  11  -1    1.76    1.27
   2  11   1    1.71    0.53
   2  11   1    1.11    0.59
   2 -11   1    2.43    0.51
   2 -11   1    1.11    1.12
   2  11   2    1.23    0.75
   2 -11   2    1.59    0.71
  -2 -11  -2    1.25    1.00
   2 -11   2    0.49    1.18
   2  11   3    0.63    1.01
   2 -11   3    0.20    0.98
  -2 -11  -3   -0.37    1.15
   2 -11   3    1.40    1.17
   2 -11   4    1.83    1.29
   2  11   4    0.92    1.15
   2 -11   5    2.99    1.44
   2 -11   6   15.24    1.92
   2 -11   7    0.18    1.75
   2 -12  -8   20.20    2.98
   2 -12  -6   13.26    2.19
   2 -12  -5   11.31    1.85
   2 -12  -4    2.66    1.46
   2 -12  -3    1.54    1.30
   2 -12  -2   12.56    1.49
   2 -12  -1    2.46    1.20
   2 -12   0    6.72    1.31
   2 -12   1    0.64    1.19
   2 -12   2    3.04    1.40
   2 -12   3    0.46    1.29
   2 -12   4   77.42    3.53
   2 -12   5   -0.22    1.38
   2 -12   6    4.52    1.68
   2 -13  -7    8.19    2.50
   2 -13  -6   23.93    2.63
   2 -13  -5    1.61    1.66
   2 -13  -4   -0.37    1.54
   2 -13  -3   10.97    1.68
   2 -13  -2    0.80    1.29
   2 -13  -1   44.21    2.40
   2 -13   0    1.15    1.22
   2 -13   1   15.16    1.66
   2 -13   2   52.56    2.74
   2 -13   3   21.30    2.15
   2 -13   4    8.37    1.64
   2 -13   5    3.86    1.57
   2 -13   6    6.61    1.81
   2 -14  -6    7.20    2.33
   2 -14  -5    9.58    2.05
   2 -14  -4    6.55    1.80
   2 -14  -3    2.01    1.60
   2 -14  -2    0.33    1.40
   2 -14  -1    6.45    1.44
   2 -14   0   12.16    1.60
   2 -14   1   11.07    1.64
   2 -14   2    5.79    1.55
   2 -14   3    0.67    1.57
   2 -14   4   17.88    2.15
   2 -14   5    0.57    1.70
   2 -15  -5   40.81    3.16
   2 -15  -4    7.40    2.02
   2 -15  -3   16.92    2.13
   2 -15  -2   10.01    1.84
   2 -15  -1    3.58    1.58
   2 -15   0   22.17    2.03
   2 -15   1   10.13    1.75
   2 -15   2    5.63    1.68
   2 -15   3    7.03    1.76
   2 -15   4    1.34    1.85
   2 -16  -2   29.55    2.53
   2 -16  -1    8.28    1.85
   2 -16   0    1.93    1.67
   2 -16   1    0.71    1.61
   3   0 -11    2.95    2.48
   3   0 -10    0.62    2.10
   3   0  -9   28.24    2.67
  -3   0   8   -1.11    1.31
   3   0  -8    0.93    1.67
   3   0  -7   46.13    2.73
  -3   0   7   48.92    2.36
  -3   0   6    0.60    0.87
   3   0  -6   -0.39    1.16
   3   0  -5  507.80   16.07
  -3   0   5  492.07   15.77
  -3   0   4    0.38    0.62
   3   0  -4    0.74    0.72
  -3   0   3   92.64    3.26
   3   0  -3   94.19    3.32
   3   0  -2    0.24    0.47
  -3   0   2   -0.11    0.56
   3   0  -1   92.06    3.16
  -3   0   1   90.53    3.19
  -3   0   0    0.22    0.58
   3   0   0    0.02    0.44
  -3   0  -1    3.99    0.71
   3   0   1    3.38    0.64
  -3   0  -2    0.20    0.73
   3   0   2    0.40    0.64
  -3   0  -3   35.38    1.72
   3   0   3   32.52    1.66
  -3   0  -4    0.09    0.87
   3   0   4    0.38    0.83
   3   0   5   30.32    1.82
   3   0   5   27.19    2.22
   3   0   6   -0.75    1.67
   3   0   6    0.24    1.12
   3   0   7   53.93    2.78
   3   0   8    0.31    1.38
   3   0   9   34.18    2.58
   3  -1 -11    7.89    2.67
   3   1 -11    1.11    2.44
   3  -1 -10    6.21    2.42
   3  -1 -10   14.34    2.50
   3   1 -10   11.24    2.44
   3  -1  -9   36.40    2.86
   3   1  -9   38.55    2.96
   3   1  -9   36.70    2.94
   3  -1  -9   38.47    2.95
   3  -1  -8  197.53    7.66
   3   1  -8  205.96    7.69
  -3   1   8  211.09    7.17
   3   1  -8  196.26    7.45
   3  -1  -8  196.69    7.44
  -3  -1   8  208.35    7.14
  -3  -1   8  201.61    7.09
  -3   1   8  200.96    7.09
   3   1  -7   24.80    2.03
   3  -1  -7   17.67    1.97
   3  -1  -7   21.48    2.03
   3   1  -7   22.80    1.79
   3  -1  -7   23.13    1.79
  -3   1   7   21.61    1.61
  -3  -1   7   19.65    1.57
  -3  -1   7   20.94    1.53
  -3   1   7   24.74    1.61
   3  -1  -6   59.64    3.03
   3   1  -6   71.45    3.16
   3  -1  -6   69.69    2.94
  -3  -1   6   67.01    2.77
   3   1  -6   67.99    3.02
   3  -1  -6   69.82    3.04
  -3   1   6   68.52    2.78
  -3   1   6   67.66    2.78
  -3  -1   6   70.32    2.76
   3   1  -6   62.36    2.89
   3   1  -5   40.29    2.13
  -3   1   5   41.51    1.87
   3   1  -5   39.57    1.97
   3  -1  -5   46.99    2.05
   3  -1  -5   44.51    2.10
  -3  -1   5   41.62    1.96
  -3   1   5   41.00    1.96
  -3  -1   5   43.47    1.85
   3   1  -5   42.69    2.10
   3  -1  -5   40.22    2.10
   3   1  -4   17.61    1.24
   3  -1  -4   21.52    1.28
  -3   1   4   20.59    1.19
  -3  -1   4   21.05    1.11
  -3   1   4   21.18    1.39
   3  -1  -4   21.19    1.30
   3   1  -4   21.89    1.33
  -3  -1   4   22.06    1.37
  -3  -1   3    8.49    0.69
   3  -1  -3    9.16    0.81
   3   1  -3    7.66    0.76
  -3  -1   3    9.49    1.02
  -3   1   3    8.89    1.03
   3   1  -3    8.85    0.82
   3  -1  -3    7.93    0.80
  -3   1   3    9.25    0.82
   3  -1  -2    4.95    0.63
   3   1  -2    4.65    0.55
  -3  -1   2    5.38    1.01
  -3   1   2    4.39    1.00
   3   1  -2    4.24    0.75
   3  -1  -2    5.08    0.75
  -3  -1   2    4.92    0.59
  -3   1   2    4.95    0.72
  -3   1   1  249.13    7.70
  -3  -1   1  241.74    8.12
  -3   1   1  231.67    8.07
   3  -1  -1  241.96    7.67
   3   1  -1  238.81    7.56
   3   1  -1  209.02    7.82
   3  -1  -1  240.63    7.90
  -3  -1   1  236.99    7.58
   3   1   0    6.28    0.96
   3  -1   0    6.97    0.94
  -3  -1   0    7.37    0.70
  -3   1   0    6.37    0.75
   3   1   0    6.66    0.57
   3  -1   0    6.96    0.67
  -3  -1  -1   67.35    2.43
  -3   1  -1   63.25    2.53
   3   1   1   65.51    2.41
   3  -1   1   66.21    2.51
   3   1   1   57.18    2.80
   3  -1   1   63.58    2.89
  -3   1  -2 2203.21   67.85
   3  -1   2 2194.46   67.85
   3   1   2 2103.97   68.35
   3  -1   2 2268.10   68.43
  -3  -1  -2 2173.69   67.74
   3   1   2 2216.05   67.75
  -3  -1  -3    5.56    0.87
  -3   1  -3    4.83    0.92
   3   1   3    5.02    0.83
   3  -1   3    4.62    0.84
   3  -1   4   73.13    2.98
  -3   1  -4   70.70    2.94
   3   1   4   70.14    2.89
   3   1   5   30.37    2.30
   3   1   5   29.77    1.79
   3  -1   5   31.83    1.90
   3  -1   6   24.02    1.81
   3   1   6   23.27    2.26
   3   1   6   23.43    1.74
   3  -1   6   21.13    2.29
   3   1   7   14.60    1.59
   3  -1   7   13.48    1.58
   3   1   8   10.01    1.68
   3  -1   8    7.44    1.66
   3   1   9    3.17    1.67
   3  -1   9    4.09    1.71
  -3  -2  12   11.09    1.69
   3  -2 -11   10.73    2.79
   3  -2 -10   -3.15    2.33
   3   2 -10   -2.27    2.34
   3  -2 -10    1.63    2.15
   3  -2  -9   13.88    2.27
   3   2  -9   14.17    2.21
   3   2  -9   11.21    2.16
   3  -2  -9   13.61    2.22
   3  -2  -8    8.23    1.90
  -3   2   8    7.16    1.46
  -3  -2   8    6.06    1.41
   3   2  -8    8.70    1.93
   3   2  -8    6.92    1.78
   3  -2  -8    9.26    1.79
  -3  -2   8   11.90    1.43
  -3   2   8   10.16    1.37
   3   2  -7   60.41    3.13
   3  -2  -7   59.68    3.12
   3  -2  -7   63.36    3.24
   3   2  -7   65.69    3.23
   3   2  -7   61.17    2.96
   3  -2  -7   62.61    2.97
  -3   2   7   63.48    2.79
  -3  -2   7   68.49    2.79
  -3  -2   7   58.68    2.75
  -3   2   7   68.92    2.82
   3   2  -6  269.06    9.49
   3   2  -6  274.09    9.31
   3  -2  -6  270.13    9.30
   3   2  -6  286.85    9.36
   3  -2  -6  278.37    9.35
  -3   2   6  271.27    9.19
  -3  -2   6  288.45    9.24
  -3   2   6  282.48    9.23
  -3  -2   6  280.18    9.14
   3  -2  -6  280.86    9.55
   3   2  -5  139.46    5.13
   3   2  -5  148.41    5.04
   3  -2  -5  140.33    5.03
   3   2  -5  145.48    5.04
   3  -2  -5  141.97    5.03
  -3   2   5  139.48    4.93
  -3  -2   5  143.99    5.02
  -3   2   5  140.56    5.01
  -3  -2   5  137.22    4.83
   3  -2  -5  145.39    5.14
   3   2  -4  160.36    5.38
   3   2  -4  153.17    5.32
   3  -2  -4  157.05    5.34
  -3  -2   4  160.03    5.43
   3  -2  -4  155.42    5.38
  -3   2   4  156.62    5.30
  -3   2   4  154.17    5.41
  -3  -2   4  149.98    5.12
  -3   2   3  267.51    8.63
  -3   2   3  260.34    8.78
  -3  -2   3  262.61    8.43
  -3  -2   3  267.44    8.79
   3  -2  -3  265.19    8.64
   3   2  -3  267.36    8.67
   3  -2  -3  268.32    8.68
   3   2  -3  267.71    8.56
   3  -2  -2    2.66    0.70
   3  -2  -2    4.44    0.66
  -3  -2   2    3.09    0.92
  -3   2   2    4.46    0.94
   3   2  -2    2.53    0.49
   3   2  -2    2.83    0.71
  -3  -2   2    3.50    0.47
  -3   2   2    3.35    0.72
  -3  -2   1   46.70    1.65
  -3   2   1   44.69    1.88
  -3  -2   1   45.52    2.26
  -3   2   1   41.44    2.21
   3  -2  -1   43.46    1.83
   3   2  -1   44.56    1.62
   3   2  -1   44.20    2.00
   3  -2  -1   42.02    1.96
   3   2   0   27.12    1.15
  -3  -2   0   31.25    1.26
  -3   2   0   31.59    1.48
   3   2   0   30.98    1.67
   3  -2   0   28.50    1.37
   3  -2   0   28.92    1.66
  -3   2  -1    0.25    0.70
  -3  -2  -1    0.04    0.49
   3   2   1    0.25    0.48
   3  -2   1   -0.10    0.60
   3   2   1    0.06    0.90
   3  -2   1    0.72    0.91
  -3  -2  -2  110.11    3.60
  -3   2  -2  100.08    3.77
   3   2   2   96.01    3.58
   3  -2   2  105.68    3.77
   3   2   2  100.10    4.19
   3  -2   2  100.32    4.19
  -3   2  -3    1.14    0.90
   3   2   3    0.99    0.69
   3  -2   3    0.54    0.76
   3   2   4   32.09    2.10
   3  -2   4   32.95    1.82
  -3   2  -4   31.89    1.83
   3   2   4   33.89    1.72
   3   2   5   42.08    2.53
   3   2   5   36.14    2.02
   3  -2   5   38.55    2.17
  -3   2  -5   43.06    2.22
   3   2   6  119.77    5.04
   3   2   6  119.56    4.61
   3  -2   6  120.84    4.75
   3   2   7    4.32    1.30
   3  -2   7    4.08    1.39
   3  -2   8    0.91    1.49
   3   2   8    0.98    1.45
   3   2   9   15.69    1.98
   3  -2   9   14.60    2.05
  -3  -3  12    2.41    1.48
   3  -3 -11    3.90    2.61
  -3  -3  11    2.51    1.30
   3  -3 -10    1.23    2.39
   3   3 -10    2.16    2.37
   3  -3 -10    7.18    2.32
  -3  -3   9   13.50    1.70
   3  -3  -9   15.07    2.31
   3   3  -9    9.81    2.15
   3  -3  -9   12.16    2.25
   3  -3  -8  108.76    4.92
   3   3  -8  109.26    4.81
   3   3  -8  109.02    4.68
   3  -3  -8  108.48    4.69
  -3  -3   8  106.70    4.28
  -3  -3   8  114.93    4.30
  -3   3   8  111.60    4.30
   3   3  -7   16.20    1.85
  -3   3   7   17.64    1.55
  -3  -3   7   16.20    1.47
   3  -3  -7   16.58    1.90
   3   3  -7   20.04    1.74
   3  -3  -7   20.34    1.73
  -3   3   7   21.01    1.57
  -3  -3   7   17.09    1.46
  -3   3   6    8.37    1.20
  -3  -3   6   10.91    1.13
   3  -3  -6    8.82    1.38
   3   3  -6    9.77    1.41
   3   3  -6   11.56    1.34
   3  -3  -6   11.66    1.32
  -3  -3   6   12.69    1.20
  -3   3   6   11.38    1.19
   3   3  -6   11.26    1.56
   3  -3  -6   11.06    1.56
  -3   3   5   -0.04    0.80
  -3  -3   5    0.29    0.69
   3  -3  -5    0.72    0.88
   3   3  -5    1.84    0.94
   3  -3  -5    1.00    0.90
   3   3  -5    1.22    0.99
  -3  -3   5    0.37    0.84
  -3   3   5    0.68    0.85
   3   3  -5    1.62    1.09
   3  -3  -5    2.01    1.10
   3   3  -4   87.39    3.29
   3   3  -4   91.64    3.29
   3  -3  -4   87.25    3.28
  -3   3   4   86.68    3.28
  -3  -3   4   87.30    3.37
  -3   3   4   84.52    3.36
  -3  -3   4   89.78    3.04
   3  -3  -4   85.30    3.33
  -3  -3   3    4.19    0.51
   3  -3  -3    2.18    0.70
  -3  -3   3    2.28    0.82
  -3   3   3    3.58    0.87
   3   3  -3    2.66    0.66
   3   3  -3    3.76    0.68
   3  -3  -3    3.80    0.72
  -3   3   3    2.43    0.80
  -3   3   2   63.09    2.46
  -3  -3   2   68.02    2.72
  -3   3   2   58.28    2.65
   3  -3  -2   62.19    2.45
  -3  -3   2   60.61    2.11
   3  -3  -2   63.49    2.50
   3   3  -2   65.80    2.51
   3   3  -2   63.96    2.19
   3   3  -1    0.09    0.32
   3   3  -1    0.20    0.67
   3  -3  -1    0.43    0.64
  -3  -3   1    0.15    0.35
  -3   3   1    0.10    0.68
  -3  -3   1   -0.99    0.95
  -3   3   1   -0.36    0.95
   3  -3  -1   -0.46    0.64
   3  -3   0  178.40    6.03
   3   3   0  177.90    5.71
  -3  -3   0  183.45    5.74
  -3   3   0  181.28    6.07
   3   3   0  179.90    6.25
   3  -3   0  172.63    6.25
  -3  -3  -1    2.08    0.50
  -3   3  -1    1.36    0.75
   3   3   1    1.93    0.47
   3  -3   1    1.79    0.71
   3   3   1    2.02    0.99
   3  -3   1    0.84    0.92
   3   3   2  178.36    6.37
  -3   3  -2  190.79    6.44
   3   3   2  185.13    6.17
   3  -3   2  194.74    6.46
   3   3   2  198.18    6.87
   3  -3   2  188.48    6.84
   3   3   3    1.47    1.06
  -3   3  -3    2.81    0.93
   3   3   3    3.18    0.70
   3  -3   3    3.41    0.87
   3   3   4    7.10    1.45
  -3   3  -4    7.88    1.25
   3   3   4    7.69    0.98
   3  -3   4    6.60    1.06
   3   3   5    0.44    0.94
   3   3   5    2.72    1.50
  -3   3  -5    1.14    1.24
   3  -3   5    0.54    1.06
   3   3   6    0.70    1.64
   3   3   6    0.40    1.09
   3  -3   6   -0.27    1.19
   3  -3   7   10.64    1.56
   3   3   7    8.24    1.49
   3   3   8   14.65    1.78
   3  -3   8   15.76    1.91
   3  -3   9    4.12    1.73
   3   3   9    4.68    1.68
  -3  -4  12    3.05    1.53
  -3  -4  11   23.94    1.97
   3  -4 -10   -2.99    2.37
   3   4 -10   -3.86    2.36
   3  -4 -10    0.26    2.08
  -3  -4  10    0.90    1.13
  -3  -4   9    3.75    1.50
   3  -4  -9    8.19    2.11
  -3  -4   9    3.56    1.15
   3   4  -9    0.79    2.02
   3  -4  -9    2.89    2.04
   3  -4  -8    1.27    1.78
  -3  -4   8    6.47    1.39
   3   4  -8    1.84    1.59
   3  -4  -8    2.27    1.57
  -3  -4   8    5.66    1.26
  -3   4   8    4.11    1.28
   3  -4  -7  247.29    8.88
   3   4  -7  245.66    8.58
   3  -4  -7  251.33    8.59
  -3   4   7  248.46    8.43
  -3  -4   7  250.33    8.36
  -3   4   7  247.15    8.36
  -3  -4   7  242.12    8.32
  -3   4   6    5.33    1.09
   3   4  -6    4.94    1.57
  -3  -4   6    4.70    0.98
   3  -4  -6    4.77    1.51
   3   4  -6    8.12    1.21
   3  -4  -6    5.60    1.30
   3  -4  -6    6.03    1.17
  -3  -4   6    5.65    1.02
  -3   4   6    3.65    1.06
   3   4  -6    4.29    1.23
   3  -4  -5    6.65    1.23
  -3   4   5    5.29    0.98
  -3  -4   5    5.52    0.82
   3  -4  -5    4.28    1.03
   3   4  -5    6.77    1.08
   3  -4  -5    8.35    1.07
   3   4  -5    4.93    1.04
  -3  -4   5    4.97    0.96
  -3   4   5    4.69    1.00
   3   4  -5    6.32    1.21
   3   4  -4    7.82    1.09
  -3  -4   4    8.71    0.71
   3  -4  -4    7.91    1.08
   3   4  -4   10.19    1.00
   3  -4  -4    8.60    0.94
   3  -4  -4    8.16    1.04
  -3  -4   4    7.32    1.00
   3   4  -4    8.56    0.96
  -3   4   4    7.70    1.03
  -3   4   4    9.22    1.02
  -3   4   3  136.50    4.91
   3   4  -3  136.71    4.61
  -3   4   3  146.84    4.91
  -3  -4   3  142.35    4.93
  -3  -4   3  138.40    4.46
   3  -4  -3  129.77    4.81
   3   4  -3  144.07    4.78
   3  -4  -3  135.53    4.77
   3   4  -2   51.55    1.78
  -3   4   2   48.99    2.11
  -3  -4   2   51.80    2.33
  -3   4   2   47.84    2.29
   3  -4  -2   52.13    2.14
   3  -4  -2   51.25    2.12
  -3  -4   2   48.54    1.68
   3   4  -2   55.46    2.13
  -3  -4   1    9.10    0.44
   3  -4  -1   11.15    0.93
   3   4  -1   13.20    0.99
   3  -4  -1   10.75    0.95
  -3   4   1   10.92    0.99
   3   4  -1   10.16    0.47
  -3  -4   1    9.77    1.28
  -3   4   1    8.82    1.22
   3   4   0   20.38    1.01
  -3   4   0   23.93    1.38
   3   4   0   23.93    0.88
   3  -4   0   20.59    1.29
   3   4   0   23.91    1.42
   3  -4   0   20.70    1.42
   3  -4   1   44.21    2.31
   3   4   1   46.04    1.87
  -3   4  -1   43.12    2.07
   3   4   1   46.83    1.69
   3  -4   1   45.53    2.06
   3   4   1   49.81    2.35
   3   4   2   39.85    1.77
   3   4   2   36.41    1.53
   3  -4   2   35.34    1.84
   3   4   2   38.11    2.16
  -3   4  -2   34.64    1.86
   3  -4   2   32.67    2.16
   3   4   3   12.19    0.94
  -3   4  -3    9.76    1.22
   3  -4   3   13.66    1.21
   3   4   3   10.44    1.23
   3   4   4   34.30    2.10
   3   4   4   35.40    1.75
   3  -4   4   33.10    1.96
  -3   4  -4   32.86    2.02
   3   4   5   30.55    1.77
   3   4   5   31.64    2.25
  -3   4  -5   31.42    2.05
   3  -4   5   30.04    1.98
   3   4   6    0.15    1.72
   3  -4   6    1.47    1.24
   3   4   6    0.73    1.08
   3   4   7    0.33    1.25
   3  -4   7    0.93    1.33
   3   4   8    1.48    1.45
   3  -4   8    1.80    1.57
   3   4   9    3.55    1.63
   3  -4   9    3.34    1.78
  -3  -5  12    1.25    1.53
  -3  -5  11    2.37    1.44
  -3  -5  10    2.86    1.28
  -3  -5   9   20.25    1.61
   3   5  -9   21.50    2.54
   3  -5  -9   17.46    2.43
  -3  -5   8   31.41    1.80
  -3  -5   8   34.53    2.00
   3   5  -8   31.30    2.51
   3  -5  -8   28.67    2.44
  -3  -5   8   28.86    2.00
  -3  -5   7    5.15    1.22
  -3  -5   7    3.67    0.97
   3   5  -7    5.03    1.50
   3  -5  -7    4.54    1.43
  -3  -5   7    4.32    1.20
  -3   5   7    4.11    1.18
  -3  -5   6  182.68    6.38
   3  -5  -6  192.10    6.67
   3   5  -6  192.73    6.68
  -3  -5   6  192.11    6.58
  -3   5   6  197.75    6.62
   3   5  -6  186.32    6.73
   3  -5  -6  191.93    6.75
  -3  -5   6  195.32    6.47
  -3  -5   5   53.92    2.18
   3   5  -5   61.06    2.53
   3  -5  -5   57.28    2.49
   3  -5  -5   60.37    2.58
  -3  -5   5   59.16    2.50
  -3   5   5   57.75    2.50
   3   5  -5   58.33    2.60
  -3  -5   5   52.87    2.21
  -3  -5   4  356.85   11.09
   3   5  -4  355.81   11.35
   3  -5  -4  348.08   11.34
   3   5  -4  352.85   11.34
   3  -5  -4  353.68   11.34
  -3  -5   4  354.23   11.45
  -3   5   4  337.08   11.44
  -3  -5   4  348.62   11.06
  -3  -5   3   39.51    1.45
  -3  -5   3   42.01    1.44
  -3  -5   3   44.45    2.01
  -3   5   3   40.83    1.97
   3   5  -3   38.15    1.80
   3  -5  -3   37.98    1.82
  -3  -5   2  466.06   14.67
  -3   5   2  434.22   14.61
   3   5  -2  459.13   14.41
   3  -5  -2  451.79   14.40
   3   5  -1  201.11    6.56
  -3  -5   1  201.16    6.82
  -3   5   1  183.42    6.76
   3  -5  -1  187.66    6.52
   3   5   0  191.11    6.24
   3  -5   0  169.12    6.19
   3   5   1    8.17    1.11
   3  -5   1    6.52    1.13
   3   5   1    7.32    0.71
   3   5   1    7.18    0.50
   3   5   2  105.70    3.80
   3   5   2  107.83    3.65
   3   5   2  117.05    4.42
   3  -5   2  101.25    4.37
   3   5   3   74.64    3.14
   3   5   3   79.53    2.92
   3   5   3   86.63    3.77
   3  -5   3   80.71    3.74
   3   5   4   43.22    2.30
   3   5   4   40.85    1.92
   3   5   5   86.51    3.80
   3   5   5   87.57    3.45
   3   5   6   50.66    2.90
   3   5   6   51.05    2.55
   3   5   7    3.48    1.32
   3   5   8   24.69    2.09
   3   5   9    2.06    1.63
  -3  -6  11    1.46    1.49
  -3  -6  10    0.76    1.29
   3   6  -9   10.62    2.40
   3  -6  -9   11.00    2.33
  -3  -6   9   16.90    1.82
  -3  -6   9   15.28    1.53
  -3  -6   8   11.47    1.57
  -3  -6   8    9.56    1.27
   3   6  -8    7.15    1.95
   3  -6  -8    5.75    1.84
  -3  -6   7   29.11    1.79
   3   6  -7   24.28    2.08
  -3   6   7   29.23    1.83
   3  -6  -7   24.29    2.06
  -3  -6   7   26.08    1.60
  -3  -6   6    6.94    1.07
   3   6  -6    4.59    1.60
  -3  -6   6    6.45    0.98
   3   6  -6   10.09    1.39
   3  -6  -6    8.94    1.34
  -3  -6   6    6.05    1.16
  -3   6   6    5.95    1.23
   3  -6  -6    2.88    1.57
  -3  -6   5   50.68    2.02
   3   6  -5   51.40    2.34
   3  -6  -5   46.60    2.28
   3   6  -5   52.23    2.46
   3  -6  -5   46.49    2.41
  -3  -6   5   49.83    2.30
  -3   6   5   49.79    2.33
  -3  -6   5   48.67    2.03
  -3  -6   4    4.01    0.60
   3   6  -4    4.63    0.99
   3  -6  -4    5.28    0.92
  -3  -6   4    4.81    0.96
  -3   6   4    5.18    0.99
   3   6  -4    4.63    1.10
  -3  -6   4    3.83    0.61
   3  -6  -4    4.23    1.09
   3   6  -3   42.30    1.83
   3  -6  -3   37.78    1.79
  -3  -6   3   39.10    1.36
  -3  -6   3   39.16    1.34
  -3  -6   3   42.66    2.02
  -3   6   3   42.13    2.02
  -3  -6   2    5.15    1.12
  -3   6   2    7.42    1.20
   3   6  -2    5.89    0.78
   3  -6  -2    6.31    0.79
   3   6  -1    3.56    0.78
   3  -6  -1    3.00    0.78
  -3  -6   1    3.78    1.18
  -3   6   1    0.94    1.10
   3  -6   0   11.62    1.09
   3   6   0   13.30    1.09
   3   6   1   69.22    2.22
   3   6   1   64.87    2.88
   3  -6   1   64.39    2.93
   3   6   1   65.01    2.24
   3   6   2    2.66    0.70
   3   6   2    2.97    0.55
   3   6   2    2.29    1.05
   3  -6   2    2.04    1.12
   3   6   3   49.06    1.95
   3   6   3   43.53    2.59
   3  -6   3   40.59    2.64
   3   6   3   48.15    2.14
   3   6   4    7.52    1.29
   3   6   4    8.17    0.99
   3   6   5   82.53    3.27
   3   6   5   77.78    3.48
   3   6   6   18.00    1.95
   3   6   6   16.15    1.54
   3   6   7    3.62    1.35
   3   6   8    1.17    1.51
   3   6   9   12.09    1.97
  -3  -7  11    6.05    1.68
  -3  -7  10    0.13    1.36
   3  -7 -10    1.64    2.52
   3  -7  -9   -2.92    2.19
   3   7  -9   -3.86    2.28
   3  -7  -9   -1.69    2.25
  -3  -7   9    2.60    1.26
   3  -7  -8   37.31    2.82
   3  -7  -8   41.22    3.03
  -3  -7   8   43.05    2.24
  -3  -7   8   40.60    2.33
   3   7  -8   45.75    2.98
  -3  -7   7   49.93    2.26
  -3  -7   7   46.66    2.34
  -3   7   7   46.46    2.36
   3   7  -7   44.64    2.77
   3  -7  -7   42.18    2.69
  -3  -7   7   46.33    2.33
   3  -7  -7   47.09    2.94
  -3  -7   6  120.47    4.27
  -3   7   6  123.75    4.65
   3   7  -6  118.07    4.59
   3  -7  -6  110.91    4.54
  -3  -7   6  126.13    4.48
  -3   7   6  115.67    4.47
   3  -7  -6  120.81    4.83
  -3  -7   6  116.13    4.26
   3  -7  -5    6.60    1.47
   3  -7  -5    6.49    1.35
  -3  -7   5    7.01    0.91
  -3  -7   5    6.34    1.17
  -3   7   5    3.51    1.18
   3  -7  -5    9.29    1.19
  -3  -7   5    7.31    0.87
   3   7  -5    9.05    1.26
   3   7  -5    6.75    1.48
  -3   7   5    5.68    1.27
  -3  -7   4   28.88    1.66
   3   7  -4   28.89    1.61
   3  -7  -4   30.49    1.61
   3   7  -4   29.98    1.74
   3  -7  -4   30.39    1.74
  -3  -7   4   26.29    1.22
  -3   7   4   29.98    1.89
  -3   7   4   29.06    1.69
   3  -7  -4   26.15    1.76
  -3  -7   4   27.12    1.19
   3   7  -3   29.35    1.52
   3  -7  -3   27.01    1.48
  -3  -7   3   31.96    1.74
  -3   7   3   28.60    1.74
   3  -7  -3   29.74    1.71
  -3   7   3   27.92    1.73
   3  -7  -2    6.16    0.99
  -3   7   2    5.81    1.07
   3   7  -2    8.45    0.83
   3  -7  -2    8.33    0.84
  -3  -7   2    9.20    1.22
  -3   7   2    7.29    1.22
   3  -7  -1   -0.98    0.73
  -3   7   1   -1.02    1.00
   3   7  -1    0.59    0.70
   3  -7  -1   -0.28    0.81
  -3   7   0  144.93    5.35
   3   7   0  148.81    5.22
   3  -7   0  140.55    5.19
  -3   7  -1   78.67    3.07
   3   7   1   66.09    2.25
   3  -7   1   84.32    3.07
   3   7   1   69.30    2.24
   3   7   1   85.91    3.08
   3  -7   1   80.54    3.10
   3   7   2    1.47    0.59
   3   7   2    0.75    0.52
  -3   7  -2    1.13    1.19
   3  -7   2    1.79    0.98
   3   7   2    1.33    1.09
   3  -7   2    0.13    1.17
   3   7   3   48.05    1.95
  -3   7  -3   44.69    2.51
   3  -7   3   44.85    2.41
   3   7   3   47.67    2.64
   3  -7   3   44.25    2.70
   3   7   3   48.64    2.01
   3   7   4   13.40    1.27
   3   7   4   11.89    1.14
   3  -7   4   12.70    1.57
   3  -7   4   11.00    1.98
   3   7   5   19.24    1.50
   3  -7   5   18.94    1.79
   3   7   5   21.33    1.71
   3   7   6   15.96    1.78
   3   7   6   15.26    1.54
   3  -7   6   15.86    1.84
   3   7   7    8.75    1.59
   3  -7   7   12.03    1.80
   3   7   8    1.82    1.54
   3  -7   8    1.40    1.77
   3   7   9   12.86    2.07
   3  -8  -9    2.99    2.32
  -3  -8   9   -0.12    1.36
   3   8  -8   -3.85    2.10
   3  -8  -8   -2.77    1.95
   3  -8  -8    1.72    1.93
  -3  -8   8   -0.17    1.19
  -3   8   7    1.56    1.22
   3  -8  -7    0.74    1.65
  -3  -8   7   -0.51    1.08
  -3  -8   7   -0.11    1.17
   3   8  -7   -0.97    1.70
   3  -8  -7    0.94    1.56
  -3  -8   6   36.07    1.78
  -3  -8   6   30.45    1.93
  -3   8   6   31.47    2.02
   3   8  -6   36.94    2.19
   3  -8  -6   32.51    2.14
   3  -8  -6   30.97    2.34
  -3  -8   6   36.34    1.82
  -3  -8   5   56.98    2.20
   3   8  -5   61.03    2.57
   3  -8  -5   58.71    2.53
  -3   8   5   60.02    2.76
  -3  -8   5   54.84    2.50
  -3   8   5   52.32    2.53
   3  -8  -5   54.14    2.80
   3   8  -5   53.77    2.65
  -3  -8   5   51.71    2.18
   3  -8  -5   50.93    2.60
   3   8  -4   98.47    3.65
   3  -8  -4   99.31    3.64
  -3  -8   4   93.68    3.22
   3   8  -4  102.45    3.71
   3  -8  -4  102.48    3.69
  -3   8   4  101.63    3.97
  -3  -8   4  101.78    3.76
  -3   8   4   90.23    3.73
   3  -8  -4  105.10    4.02
  -3  -8   4   93.72    3.21
  -3  -8   3   11.42    1.29
  -3   8   3    9.73    1.32
   3  -8  -3   10.85    1.30
   3   8  -3   12.32    1.11
   3  -8  -3   10.41    1.08
   3   8  -3   11.66    1.23
   3  -8  -3   12.04    1.22
  -3   8   3    9.57    1.29
   3   8  -2    3.06    0.77
   3  -8  -2    0.89    0.76
   3  -8  -2    3.49    1.03
  -3   8   2    3.05    1.14
  -3  -8   2    1.88    1.15
  -3   8   2    3.08    1.17
  -3   8   1  266.40    8.93
   3  -8  -1  260.61    8.89
   3   8  -1  269.77    8.61
   3  -8  -1  259.25    8.58
   3  -8   0   -0.52    0.86
   3   8   0   -0.35    0.83
  -3   8   0    0.86    1.08
   3  -8   0   -0.87    1.07
  -3   8  -1   37.08    2.09
   3   8   1   34.18    1.88
   3  -8   1   32.54    1.89
   3  -8   1   37.29    2.07
   3   8   2    8.77    1.34
   3  -8   2    8.85    1.40
   3   8   2   10.01    0.71
  -3   8  -2    8.18    1.42
   3   8   2    8.86    0.67
   3  -8   2    8.58    1.21
   3   8   3    0.17    0.72
   3   8   3    0.33    0.69
   3  -8   3   -0.13    1.14
   3   8   3    0.42    1.25
   3  -8   3    1.89    1.47
   3   8   4    5.44    0.96
   3   8   4    6.12    1.07
   3  -8   4    6.75    1.38
   3   8   4    5.12    1.56
   3  -8   4    2.99    1.62
   3   8   5   76.01    3.09
   3  -8   5   71.33    3.48
   3   8   6    2.23    1.25
   3  -8   6   -0.74    1.50
   3   8   7    0.13    1.42
   3  -8   7    0.80    1.68
   3  -9  -9   -1.79    2.41
   3  -9  -8    0.34    2.01
   3  -9  -7    1.83    1.76
  -3   9   7    0.39    1.30
  -3  -9   7    0.11    1.26
  -3  -9   7    0.39    1.15
   3   9  -7   -1.47    1.85
   3  -9  -7   -1.67    1.80
   3  -9  -6    2.77    1.53
  -3  -9   6   -0.51    1.22
  -3   9   6   -0.63    1.23
  -3  -9   6    1.77    0.96
   3   9  -6    0.98    1.46
   3  -9  -6    0.86    1.46
  -3  -9   5   43.47    1.85
  -3  -9   5   44.60    2.21
  -3   9   5   44.70    2.29
   3   9  -5   45.67    2.32
   3  -9  -5   50.14    2.33
   3  -9  -5   45.95    2.58
  -3   9   4   30.26    1.97
   3   9  -4   32.46    1.68
   3  -9  -4   32.27    1.68
  -3  -9   4   30.05    1.75
  -3   9   4   26.16    1.72
   3   9  -4   28.55    1.82
   3  -9  -4   26.83    1.77
   3  -9  -4   30.78    2.02
  -3  -9   4   23.74    1.05
   3   9  -3   57.25    2.31
   3  -9  -3   53.09    2.27
   3   9  -3   58.64    2.36
   3  -9  -3   55.67    2.33
  -3   9   3   48.41    2.52
  -3  -9   3   54.73    2.54
  -3   9   3   50.18    2.59
   3  -9  -3   53.93    2.61
   3   9  -2  205.93    6.66
   3  -9  -2  193.54    6.62
   3  -9  -2  196.51    7.03
  -3   9   2  194.34    7.02
  -3  -9   2  222.46    7.09
  -3   9   2  198.80    7.08
   3  -9  -1    3.08    1.14
  -3   9   1    3.68    1.32
   3   9  -1    5.76    0.81
   3  -9  -1    6.21    0.82
  -3   9   0   89.06    3.64
   3  -9   0   85.30    3.58
   3   9   0   91.50    3.30
   3  -9   0   83.13    3.24
   3   9   1    4.09    0.99
   3  -9   1    3.67    0.98
  -3   9  -1    3.61    1.26
   3  -9   1    2.56    1.30
   3   9   2    1.37    1.08
   3  -9   2    0.83    1.09
   3   9   2    1.04    0.52
   3  -9   2    3.30    1.16
   3   9   2    1.52    0.49
   3   9   3    2.15    0.72
   3   9   3    2.27    0.75
   3  -9   3    0.98    1.19
   3   9   3    2.68    1.34
   3  -9   3    1.44    1.36
   3   9   4    7.62    1.06
   3  -9   4    7.18    1.50
   3   9   4   10.20    1.59
   3  -9   4    9.74    1.82
   3   9   5    3.28    1.11
   3  -9   5    5.39    1.55
   3   9   5    4.54    1.62
   3  -9   5    3.85    1.92
   3  -9   6   45.65    2.85
   3  -9   7    4.70    1.86
   3 -10  -8    1.63    2.20
   3  10  -7   -3.81    2.01
   3 -10  -7   -3.58    2.08
   3 -10  -7    2.22    1.82
   3 -10  -6   20.89    2.12
   3  10  -6   17.04    2.02
   3 -10  -6   15.60    1.98
  -3  10   5   35.54    2.08
   3  10  -5   37.07    2.18
   3 -10  -5   37.02    2.24
   3 -10  -5   36.65    2.40
   3  10  -4   68.99    2.80
  -3 -10   4   68.83    2.91
   3 -10  -4   66.20    2.79
  -3  10   4   60.00    2.88
   3 -10  -4   66.78    3.17
   3  10  -4   64.08    2.84
   3 -10  -4   64.38    2.88
   3  10  -3   19.93    1.38
   3 -10  -3   21.23    1.39
   3  10  -3   19.03    1.50
   3 -10  -3   18.20    1.50
   3 -10  -3   21.45    1.69
  -3 -10   3   16.87    1.57
  -3  10   3   17.10    1.65
   3 -10  -2   16.29    1.53
   3  10  -2   17.64    1.20
   3 -10  -2   16.85    1.20
   3  10  -2   16.98    1.28
   3 -10  -2   15.65    1.25
   3 -10  -1  157.51    5.71
   3  10  -1  155.68    5.19
   3 -10  -1  152.85    5.18
   3 -10   0    2.54    0.81
   3  10   0    1.34    0.81
   3 -10   0    3.04    1.25
   3  10   1    0.79    0.89
   3 -10   1    2.53    0.88
   3 -10   1    0.13    1.24
   3  10   2    5.33    1.16
   3 -10   2    4.12    1.14
   3 -10   2    5.57    1.34
   3  10   3   12.56    1.54
   3 -10   3    9.84    1.46
   3 -10   4   43.23    2.53
   3  10   4   41.97    2.51
   3 -10   4   38.92    2.72
   3 -10   5   44.04    2.63
   3  10   5   37.02    2.51
   3 -10   5   36.43    2.87
   3 -10   6    0.44    1.63
   3  10   6   -0.18    1.70
   3 -11  -8   10.57    2.60
   3 -11  -7    2.75    2.08
   3 -11  -6    2.63    1.82
   3 -11  -5   17.51    1.96
   3 -11  -4    4.81    1.50
   3  11  -4    6.69    1.32
   3 -11  -3   30.78    1.64
   3  11  -3   28.39    1.58
   3 -11  -3   26.82    2.00
   3  11  -2   46.87    2.01
   3 -11  -2   48.66    2.04
   3 -11  -2   47.85    2.52
   3  11  -1   58.10    2.29
   3 -11  -1   60.51    2.30
   3 -11  -1   61.66    2.90
   3 -11   0  127.55    5.08
   3  11   0  133.33    4.51
   3 -11   0  134.82    4.50
   3 -11   1   -1.66    0.90
   3  11   1   -1.09    0.92
   3 -11   1    0.07    1.26
   3  11   2   28.21    1.67
   3 -11   2   23.79    2.09
   3 -11   3   24.87    2.02
   3 -11   4   23.70    1.97
   3 -11   5    1.31    1.55
   3 -12  -7    2.43    2.21
   3 -12  -6    2.76    1.94
   3 -12  -5    9.32    1.87
   3 -12  -4   -1.60    1.54
   3 -12  -3    0.62    1.31
   3 -12  -2    1.76    1.28
   3 -12  -1   22.62    1.88
   3 -12   0   15.85    1.70
   3 -12   1    2.68    1.37
   3 -12   2    8.91    1.66
   3 -12   3   15.54    1.95
   3 -12   4    0.24    1.51
   3 -12   5   55.89    3.06
   3 -13  -6   -0.50    1.92
   3 -13  -5    1.40    1.79
   3 -13  -4    7.56    1.80
   3 -13  -3    1.62    1.51
   3 -13  -2    0.14    1.34
   3 -13  -1    2.48    1.45
   3 -13   0   16.19    1.81
   3 -13   1   14.16    1.80
   3 -13   2   -0.53    1.52
   3 -13   3   54.50    3.29
   3 -13   4   37.15    2.72
   3 -14  -5    7.25    2.12
   3 -14  -4    3.82    1.80
   3 -14   2    0.08    1.62
   3 -14   3   10.98    2.04
   3 -15  -3    5.31    1.88
   3 -15  -2   13.45    1.97
   3 -15  -1    4.51    1.74
   3 -15   0    1.38    1.64
   3 -15   1    1.81    1.66
   4   0 -11   -0.14    2.42
   4   0 -10   18.41    2.62
   4   0  -9   -0.11    1.87
  -4   0   8    1.33    1.18
   4   0  -8    1.22    1.75
  -4   0   7    0.58    1.09
   4   0  -7    0.32    1.50
   4   0  -6  104.19    4.17
  -4   0   6   98.42    3.74
  -4   0   5   -0.04    0.81
   4   0  -5    0.81    1.00
  -4   0   4   22.85    1.31
   4   0  -4   23.69    1.40
   4   0  -3   -0.19    0.66
  -4   0   3    1.89    0.72
  -4   0   2   33.35    1.54
   4   0  -2   32.12    1.50
  -4   0   1    0.19    0.68
   4   0  -1    0.18    0.60
  -4   0   0    4.42    0.79
   4   0   0    3.89    0.71
  -4   0  -1    0.51    0.77
   4   0   1    0.86    0.70
  -4   0  -2   35.38    1.78
   4   0   2   33.00    1.74
  -4   0  -3    1.29    1.09
   4   0   3    0.80    0.92
  -4   0  -4    4.79    1.21
   4   0   4    5.26    1.14
   4   0   5    1.20    1.16
   4   0   6    3.72    1.31
   4   0   7    2.07    1.50
   4   0   8    5.56    1.76
   4  -1 -11    6.68    2.62
   4   1 -11    2.21    2.55
   4  -1 -10   29.74    2.99
   4   1 -10   24.35    2.90
   4   1 -10   26.32    2.88
   4  -1 -10   26.73    2.90
   4  -1  -9    3.07    1.91
   4   1  -9    2.98    1.95
   4   1  -9    3.40    1.86
   4  -1  -9    5.19    1.90
  -4   1   8    6.71    1.34
  -4  -1   8    7.93    1.29
   4  -1  -8    3.14    1.79
   4   1  -8    7.00    1.83
   4   1  -8   10.35    1.74
   4  -1  -8    8.25    1.70
   4   1  -8    6.07    2.09
   4  -1  -8    5.80    2.06
   4  -1  -7  366.96   12.69
   4   1  -7  372.64   12.69
   4   1  -7  356.30   12.43
   4  -1  -7  367.52   12.46
   4   1  -7  382.35   12.51
   4  -1  -7  392.59   12.53
  -4   1   7  378.27   12.22
  -4  -1   7  374.82   12.15
  -4  -1   7  372.03   12.42
  -4   1   7  375.13   12.43
  -4   1   6    1.83    1.01
  -4  -1   6    0.60    0.89
   4   1  -6    2.30    1.23
   4  -1  -6    1.86    1.25
   4  -1  -6    0.79    1.28
   4   1  -6    0.32    1.29
  -4  -1   6    0.06    1.21
  -4   1   6   -0.12    1.22
   4  -1  -6    1.75    1.48
  -4   1   5    3.23    0.89
  -4  -1   5    2.38    0.82
   4   1  -5    1.19    1.04
   4  -1  -5    1.15    1.01
   4  -1  -5    2.45    1.00
   4   1  -5    2.79    1.13
  -4  -1   5    1.98    1.21
  -4   1   5   -0.06    1.20
   4  -1  -4    0.37    0.76
   4   1  -4    0.19    0.79
  -4  -1   4    1.20    1.03
  -4   1   4   -0.17    1.09
  -4   1   4   -0.14    0.77
  -4  -1   4    0.15    0.69
   4   1  -4    1.25    0.79
   4  -1  -4    2.37    0.85
  -4  -1   3  102.57    3.54
  -4   1   3  104.74    3.65
  -4  -1   3  100.12    4.05
  -4   1   3   94.83    4.03
   4  -1  -3   98.88    3.64
   4   1  -3   99.81    3.80
   4  -1  -3  104.21    3.81
   4   1  -3   97.88    3.58
  -4  -1   2    0.62    1.21
  -4   1   2   -0.14    1.27
   4  -1  -2   -0.03    0.62
   4   1  -2    0.23    0.57
   4   1  -2    0.25    0.83
   4  -1  -2   -0.20    0.89
  -4  -1   2    0.74    0.61
  -4   1   2    0.84    0.72
   4   1  -1    1.27    0.88
   4  -1  -1    0.33    0.81
  -4  -1   1    0.95    0.61
  -4   1   1    0.32    0.72
  -4  -1   1   -0.81    1.23
  -4   1   1    0.73    1.28
   4  -1  -1    0.20    0.63
   4   1  -1    0.88    0.58
   4   1   0   -1.33    0.97
   4  -1   0   -0.13    0.93
  -4  -1   0    0.21    0.65
  -4   1   0   -1.00    0.82
   4   1   0    0.64    0.61
   4  -1   0    0.04    0.68
  -4  -1  -1  173.07    5.76
  -4   1  -1  178.07    5.88
   4   1   1  167.98    5.72
   4  -1   1  171.48    5.83
   4   1   1  157.61    6.30
   4  -1   1  165.17    6.36
  -4  -1  -2  112.18    3.90
  -4   1  -2  102.64    3.98
   4   1   2  108.51    3.88
   4  -1   2  106.34    3.98
   4   1   2   93.46    4.44
   4  -1   2  109.24    4.56
  -4  -1  -3  789.44   24.54
  -4   1  -3  772.74   24.62
   4   1   3  782.36   24.55
   4  -1   3  768.52   24.64
   4   1   3  750.28   25.35
   4  -1   3  807.73   25.43
  -4   1  -4    7.90    1.28
   4   1   4    8.47    1.19
   4  -1   4    7.20    1.20
   4   1   4    9.37    2.09
   4  -1   4    9.02    2.00
   4   1   5    1.70    1.71
   4   1   5    1.39    1.09
   4  -1   5    2.29    1.14
  -4   1  -5    1.96    1.28
   4   1   6   -0.40    1.20
   4  -1   6    0.97    1.29
   4   1   7   -0.83    1.44
   4  -1   7   -1.09    1.42
   4   1   8   12.62    1.92
   4  -1   8   11.84    1.91
   4  -2 -11    2.84    2.57
   4   2 -11    5.84    2.64
   4   2 -11   -1.95    2.74
   4  -2 -11    1.03    2.65
   4  -2 -10    3.15    2.24
   4   2 -10    3.73    2.24
   4   2 -10    4.16    2.32
   4  -2 -10   -1.42    2.22
   4  -2  -9   18.40    2.38
   4   2  -9   18.87    2.42
   4   2  -9   15.35    2.21
   4  -2  -9   16.58    2.24
   4   2  -8    1.39    1.95
  -4  -2   8    3.46    1.24
   4  -2  -8    2.15    1.97
   4  -2  -8   -0.38    1.73
   4   2  -8    3.71    1.80
   4   2  -8    8.63    1.67
   4  -2  -8    7.83    1.68
  -4   2   7    2.06    1.19
  -4  -2   7    1.53    1.04
   4  -2  -7    1.36    1.55
   4   2  -7    1.61    1.57
   4   2  -7    4.46    1.52
   4  -2  -7    3.34    1.48
  -4  -2   7    0.48    1.32
  -4   2   7    1.47    1.34
   4   2  -7    3.80    1.83
   4  -2  -7    1.69    1.84
  -4   2   6    7.61    1.18
  -4  -2   6    9.47    1.03
   4  -2  -6    9.03    1.44
   4   2  -6    7.15    1.37
   4  -2  -6    9.89    1.43
   4   2  -6    7.11    1.43
  -4  -2   6    6.24    1.35
  -4   2   6    6.08    1.35
   4   2  -6    7.31    1.59
   4  -2  -6    8.86    1.59
  -4   2   5    0.58    0.89
  -4  -2   5    1.22    0.76
   4   2  -5   -0.71    1.02
   4  -2  -5   -1.47    1.04
   4  -2  -5   -0.31    0.99
   4   2  -5   -0.81    1.05
  -4  -2   5    0.45    1.10
  -4   2   5    0.69    1.12
  -4   2   4  181.08    5.97
  -4  -2   4  168.36    5.71
  -4  -2   4  178.05    6.21
  -4   2   4  168.23    6.18
   4  -2  -4  166.71    5.97
   4   2  -4  173.84    5.99
   4  -2  -4  176.84    6.01
   4   2  -4  170.96    5.90
  -4  -2   3  199.33    6.52
  -4   2   3  205.89    6.75
  -4  -2   3  204.56    7.11
  -4   2   3  195.12    7.09
   4  -2  -3  199.95    6.75
   4   2  -3  207.89    6.87
   4  -2  -3  204.68    6.87
   4   2  -3  192.87    6.58
  -4  -2   2   49.51    1.91
  -4   2   2   52.27    2.15
  -4  -2   2   49.87    2.63
  -4   2   2   48.19    2.62
   4  -2  -2   47.53    2.08
   4   2  -2   47.75    2.29
   4  -2  -2   48.83    2.29
   4   2  -2   47.28    1.87
   4  -2  -1   13.37    1.26
  -4  -2   1   13.38    0.88
   4  -2  -1   14.47    1.07
   4   2  -1   14.94    0.87
   4   2  -1   15.48    1.29
  -4   2   1   13.35    1.13
  -4  -2   1   15.41    1.74
  -4   2   1   13.79    1.66
  -4  -2   0   25.67    1.25
  -4   2   0   24.61    1.48
   4   2   0   26.30    1.22
   4  -2   0   27.05    1.45
   4   2   0   23.52    1.66
   4  -2   0   24.55    1.71
  -4  -2  -1   62.65    2.44
  -4   2  -1   67.58    2.71
   4   2   1   60.38    2.39
   4  -2   1   64.97    2.62
   4   2   1   59.40    3.03
   4  -2   1   65.06    3.13
  -4  -2  -2  158.17    5.24
  -4   2  -2  153.86    5.45
   4   2   2  147.96    5.22
   4  -2   2  153.46    5.43
   4   2   2  152.14    5.99
   4  -2   2  146.63    5.97
  -4   2  -3   99.74    3.87
   4   2   3   93.18    3.65
   4  -2   3  101.41    3.90
   4   2   3  102.01    4.54
   4  -2   3   95.92    4.49
   4   2   4   36.73    2.50
  -4   2  -4   41.68    2.27
   4   2   4   44.76    2.15
   4  -2   4   38.63    2.20
   4   2   4   46.80    3.23
   4  -2   4   41.82    3.07
   4   2   5   11.46    1.95
   4   2   5   11.73    1.39
   4  -2   5   10.29    1.38
   4   2   6    1.44    1.26
   4  -2   6    0.71    1.24
   4   2   7    6.80    1.57
   4  -2   7    5.06    1.51
   4   2   8   20.53    2.15
   4  -2   8   23.19    2.30
   4   2   9    0.09    1.89
  -4  -3  12    8.07    1.50
   4  -3 -11    2.00    2.65
   4   3 -11   -5.60    2.90
   4  -3 -11   -6.20    2.93
   4  -3 -10   13.07    2.59
   4   3 -10   15.20    2.56
   4   3 -10   13.72    2.55
   4  -3 -10   12.64    2.56
   4  -3  -9   43.29    3.27
   4   3  -9   47.46    3.17
   4   3  -9   46.95    3.10
   4  -3  -9   47.27    3.10
   4   3  -8    3.17    2.00
  -4  -3   8    4.65    1.23
   4  -3  -8    3.23    2.02
   4  -3  -8    2.77    1.76
   4   3  -8    6.59    1.82
   4   3  -8    7.90    1.73
   4  -3  -8    8.70    1.72
   4   3  -7   43.07    2.61
   4   3  -7   40.85    2.50
   4  -3  -7   39.37    2.44
  -4   3   7   42.80    2.30
   4   3  -7   44.10    2.74
   4  -3  -7   43.60    2.70
  -4  -3   7   40.91    2.38
  -4   3   7   45.11    2.46
  -4  -3   7   46.21    2.11
   4  -3  -7   44.31    2.74
   4  -3  -6   13.39    1.63
   4   3  -6   18.71    1.65
   4  -3  -6   20.73    1.64
   4   3  -6   16.68    1.68
  -4  -3   6   14.28    1.61
  -4   3   6   16.49    1.63
  -4   3   6   18.09    1.49
   4   3  -6   18.76    1.86
   4  -3  -6   17.50    1.84
  -4  -3   6   16.05    1.21
  -4  -3   5    7.00    0.86
   4   3  -5    7.28    1.35
   4  -3  -5    6.42    1.38
   4   3  -5    8.37    1.20
   4  -3  -5    6.47    1.15
   4  -3  -5    4.84    1.14
   4   3  -5    7.27    1.24
  -4  -3   5    7.82    1.28
  -4   3   5    6.88    1.25
  -4   3   5    6.28    1.12
   4   3  -4    5.23    0.93
   4  -3  -4    4.27    0.95
   4  -3  -4    3.25    0.99
  -4  -3   4    3.27    1.15
  -4   3   4    3.59    1.21
   4   3  -4    3.17    0.94
  -4   3   4    3.83    1.01
  -4  -3   4    3.46    0.67
  -4  -3   3  245.62    8.09
  -4   3   3  252.71    8.42
  -4   3   3  256.61    8.77
   4  -3  -3  243.08    8.41
   4   3  -3  262.98    8.51
   4  -3  -3  262.65    8.51
  -4  -3   3  266.67    8.79
   4   3  -3  258.29    8.22
   4  -3  -2    0.48    0.70
   4   3  -2    0.04    0.51
   4   3  -2   -0.30    0.89
   4  -3  -2   -0.45    0.83
  -4  -3   2   -0.09    0.50
  -4   3   2    0.29    0.82
  -4  -3   2   -0.41    1.27
  -4   3   2   -0.20    1.26
  -4  -3   1   38.98    1.51
  -4   3   1   39.38    1.89
  -4  -3   1   39.54    2.42
  -4   3   1   37.30    2.36
   4  -3  -1   35.54    1.78
   4   3  -1   37.36    1.97
   4  -3  -1   36.00    1.95
   4   3  -1   37.13    1.47
   4   3   0    1.31    0.96
   4  -3   0    2.25    1.05
  -4  -3   0    2.24    0.58
  -4   3   0    1.36    0.89
   4  -3   0    1.73    0.82
   4   3   0    1.62    0.57
   4   3   1   19.25    1.74
   4  -3   1   17.93    1.72
  -4  -3  -1   22.14    1.12
  -4   3  -1   19.29    1.46
   4   3   1   19.75    1.07
   4  -3   1   18.00    1.31
  -4   3  -2   18.31    1.49
   4   3   2   17.80    1.14
   4  -3   2   16.76    1.39
   4   3   2   18.64    1.88
   4  -3   2   18.33    1.88
   4   3   3    3.00    1.39
  -4   3  -3    4.28    1.26
   4   3   3    3.87    0.91
   4  -3   3    3.96    1.14
   4   3   3    3.13    1.51
   4  -3   3    1.91    1.54
   4   3   4    0.96    1.52
  -4   3  -4   -0.77    1.23
   4   3   4   -0.66    1.00
   4  -3   4    0.63    1.20
   4   3   4   -1.29    1.89
   4  -3   4    0.11    1.73
   4   3   5    1.48    1.70
   4   3   5    0.95    1.13
   4  -3   5    1.63    1.19
   4   3   6    2.26    1.89
   4   3   6    0.58    1.24
   4  -3   6    1.92    1.30
   4   3   7   31.18    2.26
   4  -3   7   30.87    2.35
   4   3   8    2.07    1.66
   4  -3   8    3.38    1.67
   4   3   9   22.70    2.47
  -4  -4  12    7.66    1.54
   4   4 -11   -1.70    2.81
   4  -4 -11   -1.80    2.74
  -4  -4  11    1.63    1.22
   4  -4 -10   20.12    2.80
   4   4 -10   16.87    2.75
   4  -4 -10   16.76    2.73
  -4  -4   9   14.05    1.61
   4  -4  -9    9.98    2.33
   4   4  -9   14.90    2.22
   4  -4  -9   11.46    2.11
  -4  -4   8   10.10    1.37
   4  -4  -8   11.94    2.00
   4   4  -8   11.48    1.94
   4   4  -8   12.12    1.89
   4  -4  -8   12.79    1.89
   4  -4  -7    4.64    1.62
   4   4  -7    5.70    1.55
   4  -4  -7    5.31    1.53
   4   4  -7    3.62    1.55
  -4  -4   7    4.68    1.43
  -4   4   7    3.78    1.36
   4   4  -7    2.07    1.77
   4  -4  -7    4.93    1.84
   4   4  -6  179.99    6.45
   4   4  -6  187.43    6.38
   4  -4  -6  179.90    6.36
   4   4  -6  179.74    6.40
   4  -4  -6  181.00    6.41
  -4   4   6  185.06    6.34
  -4  -4   6  174.99    6.41
  -4   4   6  172.33    6.43
  -4  -4   6  173.60    5.96
   4  -4  -6  170.35    6.51
   4   4  -5   60.06    2.70
   4   4  -5   64.09    2.75
   4  -4  -5   60.17    2.71
   4   4  -5   64.49    2.84
   4  -4  -5   62.42    2.82
  -4   4   5   57.82    2.69
  -4  -4   5   69.91    2.91
  -4   4   5   66.04    2.91
  -4  -4   5   60.55    2.34
   4  -4  -5   58.29    2.82
   4   4  -4    4.63    1.06
   4  -4  -4    3.74    1.04
   4  -4  -4    6.26    1.09
  -4  -4   4    6.57    1.24
  -4   4   4    7.00    1.30
   4   4  -4    6.55    0.99
  -4   4   4    6.19    1.22
  -4  -4   4    5.84    0.68
   4  -4  -3    3.54    0.91
  -4  -4   3    4.24    1.24
  -4   4   3    4.80    1.29
   4   4  -3    3.44    0.78
   4   4  -3    5.25    0.94
   4  -4  -3    5.66    0.90
  -4  -4   3    4.44    0.52
  -4   4   3    4.39    0.98
  -4  -4   2   15.02    0.75
   4   4  -2   14.84    1.27
   4  -4  -2   13.67    1.29
   4  -4  -2   14.18    1.18
  -4   4   2   12.46    1.24
   4   4  -2   15.37    0.83
  -4  -4   2   13.60    1.63
  -4   4   2   16.21    1.68
   4   4  -1   12.04    1.17
   4  -4  -1    9.64    1.19
  -4  -4   1    9.29    0.64
   4   4  -1   10.10    0.61
  -4   4   1    9.62    1.18
  -4  -4   1   11.10    1.64
  -4   4   1    7.95    1.59
   4  -4  -1    9.49    1.05
  -4  -4   0   86.71    2.93
  -4   4   0   83.14    3.40
   4  -4   0   86.59    3.43
   4   4   0   88.24    2.92
   4   4   0   83.53    3.56
   4  -4   0   79.22    3.55
  -4   4  -1   34.05    1.94
   4   4   1   33.44    1.42
   4  -4   1   33.93    1.82
   4   4   1   36.64    2.18
   4  -4   1   31.22    2.14
   4   4   2   56.36    2.51
  -4   4  -2   55.85    2.61
   4   4   2   53.11    2.14
   4  -4   2   54.36    2.53
   4   4   2   55.67    2.97
   4  -4   2   47.43    2.92
   4   4   3    1.06    1.29
  -4   4  -3    1.76    1.28
   4   4   3    0.90    0.79
   4  -4   3    1.16    1.16
   4   4   3    1.84    1.53
   4  -4   3    2.79    1.59
   4   4   4    3.33    1.54
   4   4   4    2.61    1.02
   4  -4   4    1.12    1.25
   4   4   4    2.14    1.89
   4  -4   4    0.75    1.71
   4   4   5   12.20    1.92
   4   4   5   10.37    1.35
   4  -4   5    8.52    1.47
   4   4   6    1.62    1.84
   4   4   6    0.44    1.22
   4  -4   6    1.32    1.39
   4   4   7    8.50    1.63
   4  -4   7    8.98    1.74
   4   4   8   25.58    2.39
   4   4   9    2.38    1.92
   4  -5 -11   -5.36    2.99
   4   5 -11   -6.67    3.07
  -4  -5  11    1.94    1.24
  -4  -5  10   18.82    1.59
   4  -5 -10   20.55    2.93
   4   5 -10   18.19    2.80
   4  -5 -10   20.13    2.83
   4  -5  -9    3.13    2.16
  -4  -5   9    1.52    1.02
   4   5  -9    3.11    2.03
   4  -5  -9    2.78    1.97
  -4  -5   8    1.76    1.15
   4  -5  -8    3.50    1.87
   4   5  -8    2.06    1.66
   4  -5  -8    7.30    1.74
   4   5  -7    1.11    1.86
  -4  -5   7    2.38    1.01
   4  -5  -7    1.04    1.77
   4  -5  -7   -0.08    1.50
   4   5  -7    5.76    1.50
   4  -5  -7    6.27    1.51
  -4  -5   7    0.06    1.39
  -4   5   7    1.15    1.36
   4   5  -6   69.00    3.05
   4  -5  -6   69.47    3.06
   4   5  -6   66.78    3.12
   4  -5  -6   68.22    3.18
  -4   5   6   65.82    3.00
  -4  -5   6   66.12    3.07
  -4   5   6   63.55    3.09
  -4  -5   6   64.81    2.54
   4  -5  -6   62.13    3.15
   4   5  -5   28.92    1.78
   4  -5  -5   27.93    1.78
   4   5  -5   24.69    1.68
   4   5  -5   27.60    1.90
   4  -5  -5   25.10    1.91
  -4   5   5   24.61    1.80
  -4  -5   5   27.27    1.85
  -4   5   5   26.19    1.84
  -4  -5   5   26.97    1.28
   4  -5  -5   28.49    1.90
   4   5  -4    8.37    1.19
   4  -5  -4    5.97    1.13
   4  -5  -4   10.52    1.29
  -4  -5   4    8.80    1.40
  -4   5   4    9.57    1.37
   4   5  -4    8.32    1.00
  -4   5   4   11.82    1.38
  -4  -5   4    8.51    0.69
   4   5  -3  119.34    4.07
  -4  -5   3  118.01    3.92
  -4   5   3  119.67    4.45
  -4  -5   3  133.54    4.85
  -4   5   3  125.55    4.80
   4  -5  -3  123.09    4.52
   4   5  -3  129.59    4.46
   4  -5  -3  132.88    4.48
   4  -5  -2   17.92    1.35
   4   5  -2   20.05    1.39
   4  -5  -2   17.69    1.39
  -4   5   2   16.94    1.41
  -4  -5   2   19.05    1.80
  -4   5   2   16.16    1.78
  -4   5   1   79.22    3.20
  -4  -5   1   85.18    3.74
  -4   5   1   73.40    3.62
   4  -5  -1   74.29    3.11
   4   5  -1   73.89    3.16
   4  -5  -1   78.10    3.22
   4   5   0   10.38    1.24
   4  -5   0    8.47    1.22
   4   5   0    6.13    0.75
   4   5   0    7.59    0.53
  -4   5   0    7.27    1.20
   4  -5   0    8.67    1.22
   4   5   1   24.51    1.37
  -4   5  -1   24.36    1.76
   4   5   1   22.90    1.06
   4  -5   1   25.54    1.63
   4   5   1   23.17    1.81
   4  -5   1   24.33    1.88
   4   5   2   77.14    3.12
  -4   5  -2   76.81    3.36
   4   5   2   79.05    2.80
   4  -5   2   75.11    3.29
   4   5   2   79.73    3.67
   4  -5   2   72.03    3.67
   4   5   3    2.27    1.25
  -4   5  -3    1.06    1.30
   4   5   3    2.05    0.81
   4  -5   3    1.40    1.15
   4   5   3    1.99    1.61
   4  -5   3    2.18    1.57
   4   5   4    8.05    1.61
   4   5   4    6.49    1.09
   4  -5   4    6.10    1.38
   4   5   4   10.10    1.97
   4  -5   4    6.25    1.93
   4   5   5   -0.21    1.68
   4   5   5    0.58    1.10
   4  -5   5    1.58    1.35
   4   5   5   -0.13    2.11
   4  -5   5   -0.98    1.99
   4   5   6   17.22    1.71
   4  -5   6   14.07    1.79
   4   5   7    5.92    1.67
   4  -5   7    7.36    1.78
   4   5   8   51.72    3.09
  -4  -6  10   21.53    1.74
   4   6 -10   15.58    2.86
   4  -6  -9   -0.12    2.09
  -4  -6   9    1.05    1.07
   4   6  -9   -0.86    2.03
   4  -6  -9    0.28    2.02
  -4  -6   8   48.33    2.32
   4   6  -8   57.41    3.12
   4  -6  -8   47.65    2.96
   4  -6  -8   54.87    3.35
  -4  -6   7    8.65    1.11
   4  -6  -7    9.75    1.84
  -4  -6   7    7.80    1.02
  -4  -6   7    7.22    1.53
  -4   6   7    5.81    1.55
   4   6  -7    7.14    1.97
   4   6  -7   11.97    1.71
   4  -6  -7   11.06    1.59
   4  -6  -7    7.94    1.98
  -4  -6   6  176.36    5.93
   4   6  -6  178.68    6.38
   4  -6  -6  180.13    6.37
   4   6  -6  183.87    6.44
   4  -6  -6  177.40    6.41
  -4  -6   6  181.97    6.42
  -4   6   6  181.86    6.46
  -4  -6   6  171.05    5.85
   4  -6  -6  168.71    6.55
  -4  -6   5    2.87    0.65
   4  -6  -5    2.40    1.28
   4   6  -5    6.30    1.32
   4  -6  -5    3.96    1.25
  -4  -6   5    2.12    1.19
  -4   6   5    2.73    1.31
   4   6  -5    2.48    1.43
  -4  -6   5    3.25    0.72
   4  -6  -5    4.65    1.48
  -4   6   5    2.44    1.27
   4   6  -4  354.41   11.31
   4  -6  -4  342.92   11.29
  -4  -6   4  336.62   10.82
  -4   6   4  359.37   11.45
  -4  -6   4  355.29   10.81
  -4  -6   4  346.52   11.54
  -4   6   4  326.11   11.53
   4  -6  -4  334.34   11.44
  -4  -6   3   -0.39    1.34
  -4   6   3   -0.74    1.37
   4  -6  -3    1.50    1.02
  -4   6   3    0.64    1.05
   4   6  -3    1.40    0.87
   4  -6  -3    1.55    0.86
  -4   6   2   75.58    3.17
  -4  -6   2   76.75    3.47
  -4   6   2   72.26    3.45
   4  -6  -2   72.81    3.10
   4   6  -2   77.42    3.05
   4  -6  -2   70.89    2.99
   4   6  -1   10.44    1.25
   4  -6  -1    9.55    1.23
  -4   6   1   12.97    1.44
   4  -6  -1   13.79    1.32
   4   6   0   10.10    1.23
   4  -6   0    8.11    1.23
  -4   6   0    6.64    1.24
   4  -6   0    9.07    1.36
   4   6   1    6.31    1.29
   4  -6   1    4.76    1.29
   4   6   1    5.38    0.74
   4   6   1    6.78    0.52
  -4   6  -1    5.01    1.27
   4  -6   1    8.00    1.24
   4   6   2    0.49    1.39
   4  -6   2    0.33    1.43
   4   6   2    1.62    0.95
  -4   6  -2    2.62    1.31
   4   6   2    1.17    0.59
   4  -6   2    3.71    1.17
   4   6   3    8.67    1.26
   4   6   3    7.25    0.90
   4  -6   3    6.71    1.41
   4   6   3    6.06    1.70
   4  -6   3    7.86    1.82
   4   6   4   61.80    2.95
   4   6   4   68.46    2.69
   4  -6   4   58.16    3.05
   4   6   4   61.01    3.50
   4  -6   4   56.89    3.53
   4   6   5   21.86    1.62
   4  -6   5   20.11    1.97
   4   6   5   18.37    2.44
   4  -6   5   13.97    2.46
   4   6   6   10.95    1.59
   4  -6   6   11.42    1.83
   4  -6   6   12.47    2.61
   4   6   7    0.79    1.49
   4   7 -10    7.29    2.78
   4  -7 -10    9.83    2.73
   4   7  -9   12.96    2.45
   4  -7  -9    8.28    2.27
  -4  -7   8    1.60    1.11
   4   7  -8    1.47    1.75
   4  -7  -8    1.75    1.77
   4  -7  -7    0.06    1.82
  -4  -7   7    2.40    1.02
   4   7  -7    5.10    1.57
   4  -7  -7    1.49    1.47
   4   7  -7   -0.25    1.86
  -4  -7   6   13.97    1.54
  -4   7   6   12.45    1.57
   4   7  -6   13.10    1.66
   4  -7  -6   11.41    1.63
  -4  -7   6   10.14    1.09
   4   7  -6   13.81    1.95
   4  -7  -6   13.58    1.91
  -4  -7   5    8.95    0.71
  -4  -7   5    8.78    0.85
  -4  -7   5    8.70    1.45
  -4   7   5   10.46    1.50
   4   7  -5   10.73    1.45
   4  -7  -5   10.45    1.42
   4   7  -5   10.84    1.64
   4  -7  -5    7.90    1.58
   4   7  -4   72.17    2.93
   4  -7  -4   67.25    2.88
   4  -7  -4   69.21    2.95
  -4  -7   4   70.61    3.19
  -4   7   4   64.55    3.18
  -4   7   3    0.90    1.41
   4   7  -3    2.16    0.93
  -4  -7   3   -0.07    1.36
   4  -7  -3    2.14    0.92
   4   7  -2    2.56    0.93
   4  -7  -2    2.08    0.89
  -4  -7   2    3.79    1.46
  -4   7   2    4.47    1.55
   4   7  -1   46.60    2.27
   4  -7  -1   44.57    2.23
   4   7   0   25.49    1.71
   4  -7   0   24.87    1.74
   4   7   1   31.62    2.02
   4  -7   1   32.04    2.11
   4   7   2    2.62    1.36
   4  -7   2    2.94    1.48
   4   7   2    2.54    0.72
   4   7   2    1.53    0.56
   4   7   3    0.50    0.96
   4   7   3   -0.08    0.71
   4   7   3    0.53    1.46
   4  -7   3   -2.67    1.62
   4   7   4    2.21    0.97
   4   7   4    2.28    1.65
   4  -7   4    1.66    1.70
   4   7   5    9.73    1.34
   4   7   5    9.54    2.07
   4  -7   5    9.82    2.24
   4   7   6    9.70    2.42
   4  -7   6   10.26    2.51
   4   8 -10   42.57    3.80
   4  -8 -10   36.61    3.61
   4   8  -9   -0.41    2.38
   4  -8  -9    1.98    2.20
   4   8  -8    0.34    1.90
   4  -8  -8    2.55    1.88
   4   8  -7    3.16    1.57
   4  -8  -7    2.68    1.56
   4   8  -6    0.89    1.74
   4  -8  -6    1.52    1.72
   4   8  -6    5.92    1.46
  -4  -8   6    2.25    1.31
  -4   8   6    1.23    1.38
   4  -8  -6    5.15    1.43
   4  -8  -5    1.72    1.47
  -4  -8   5    0.68    1.26
  -4   8   5    0.26    1.30
   4   8  -5    2.80    1.28
   4  -8  -5    2.30    1.25
   4   8  -5    2.04    1.54
   4   8  -4   79.66    3.26
   4  -8  -4   82.45    3.25
   4   8  -4   81.96    3.33
   4  -8  -4   80.17    3.28
  -4  -8   4   80.80    3.56
  -4   8   4   76.97    3.59
  -4  -8   3   98.34    3.97
  -4   8   3   86.69    3.98
   4   8  -3   86.96    3.50
   4  -8  -3   91.88    3.51
  -4  -8   2   40.53    2.55
  -4   8   2   38.28    2.62
   4   8  -2   40.58    1.98
   4  -8  -2   41.91    1.96
   4   8  -1   20.68    1.55
   4  -8  -1   19.69    1.49
   4   8   0  201.22    6.91
   4  -8   0  193.46    6.89
   4   8   1    3.23    1.17
   4  -8   1    2.74    1.22
   4   8   2    1.37    1.27
   4  -8   2    1.04    1.36
   4   8   3    5.38    1.61
   4  -8   3    5.86    1.82
   4   8   4    3.49    1.55
   4  -8   4    3.73    1.89
   4   8   5   22.05    2.32
   4  -8   5   16.96    2.53
   4   8   6   18.26    2.46
   4  -8   6   21.03    2.79
   4   8   7   19.19    2.70
   4  -8   7   19.86    3.16
   4   9  -9    3.91    2.51
   4  -9  -9    1.84    2.40
   4  -9  -8    1.48    2.08
   4   9  -8   -0.54    2.05
   4  -9  -8   -3.47    2.10
   4  -9  -7    7.67    2.02
   4   9  -7   12.43    1.91
   4  -9  -7   10.71    1.91
   4  -9  -6    1.54    1.70
  -4  -9   6    1.75    1.33
   4  -9  -6    0.67    1.58
  -4   9   6    0.07    1.38
   4   9  -6    2.52    1.48
   4  -9  -6    2.63    1.44
   4   9  -6   -0.90    1.78
  -4  -9   5    4.19    1.40
  -4   9   5    2.67    1.47
   4  -9  -5    4.52    1.55
   4   9  -5    6.93    1.70
   4   9  -5    6.95    1.44
   4  -9  -5    6.79    1.39
   4  -9  -5    3.30    1.60
  -4   9   4   27.28    2.26
   4   9  -4   31.71    1.92
   4  -9  -4   33.99    1.91
   4   9  -4   35.29    2.05
   4  -9  -4   34.76    2.01
  -4  -9   4   30.29    2.22
   4  -9  -4   30.51    2.17
   4   9  -3   27.07    1.68
   4  -9  -3   25.92    1.62
  -4  -9   3   28.71    2.13
   4  -9  -3   23.93    1.92
  -4   9   3   26.38    2.19
   4  -9  -2    2.85    1.29
   4   9  -2    1.87    0.94
   4  -9  -2    2.92    0.91
   4  -9  -1    9.15    1.46
   4   9  -1    8.24    1.15
   4  -9  -1    8.05    1.11
   4   9   0   -1.64    1.16
   4  -9   0   -0.15    1.09
   4  -9   0    2.06    1.33
   4   9   1    8.23    1.25
   4  -9   1    9.76    1.36
   4  -9   1   12.06    1.65
   4   9   2    1.36    1.19
   4  -9   2    0.83    1.33
   4  -9   2   -0.81    1.25
   4   9   3    8.32    1.61
   4  -9   3    4.89    1.69
   4  -9   3    8.99    1.46
   4  -9   4   38.18    2.51
   4   9   4   39.38    2.63
   4  -9   4   37.89    2.95
   4  -9   5   16.78    2.05
   4   9   5   13.76    1.93
   4  -9   5   13.67    2.36
   4   9   6    2.41    1.80
   4  -9   6    1.96    2.44
   4   9   7   11.38    2.26
   4 -10  -8   17.19    2.71
   4 -10  -7   14.26    2.25
   4  10  -7   14.33    2.15
   4 -10  -7   14.23    2.13
   4 -10  -6    1.58    1.65
   4  10  -6    6.63    1.66
   4 -10  -6    4.21    1.59
   4  10  -5   42.37    2.35
   4 -10  -5   45.09    2.31
   4 -10  -4    0.43    1.40
   4  10  -4    4.02    1.30
   4 -10  -4    3.65    1.27
   4  10  -4    2.25    1.49
   4 -10  -3    3.72    1.34
   4  10  -3    3.93    1.33
   4  10  -3    5.38    1.19
   4 -10  -3    3.61    1.13
   4 -10  -2   47.19    2.59
   4  10  -2   45.27    2.19
   4 -10  -2   45.97    2.16
   4 -10  -1   91.28    3.79
   4  10  -1   91.06    3.34
   4 -10   0   86.80    3.88
   4  10   0   94.37    3.61
   4 -10   0   88.48    3.56
   4  10   1    0.44    1.05
   4 -10   1    0.80    1.08
   4 -10   1   -1.14    1.40
   4 -10   2    5.59    1.38
   4 -10   2    3.25    1.60
   4  10   3    1.02    1.39
   4 -10   3    0.08    1.52
   4 -10   3    2.95    1.57
   4  10   4    1.26    1.63
   4 -10   4    0.56    1.86
   4 -10   4    2.64    1.51
   4 -10   5   16.72    2.10
   4  10   5    8.72    1.93
   4 -11  -7   30.09    2.84
   4 -11  -6    9.42    2.03
   4 -11  -5   11.84    1.94
   4 -11  -4    5.50    1.59
   4 -11  -3   46.61    2.69
   4 -11  -2   29.76    2.17
   4 -11  -1   36.67    2.40
   4 -11   0    3.41    1.50
   4 -11   1   26.05    2.11
   4 -11   2   15.97    2.15
   4 -11   3   -0.25    1.65
   4 -11   4   19.95    2.14
   4 -12  -6    3.35    2.04
   4 -12  -5    3.75    1.82
   4 -12  -4    4.31    1.73
   4 -12  -3    0.15    1.51
   4 -12  -2    0.90    1.47
   4 -12  -1    6.69    1.66
   4 -12   0   59.25    3.17
   4 -12   1   13.17    1.92
   4 -12   2    1.12    1.72
   4 -12   3    1.43    1.93
   4 -13  -4   13.31    2.18
   4 -13  -3    1.62    1.66
   4 -13  -2   12.22    1.83
   4 -13  -1    7.57    1.78
   4 -13   0   29.91    2.46
   4 -13   1   13.83    2.05
   5   0 -11   25.64    3.34
   5   0 -10    4.70    2.33
   5   0  -9    2.97    2.07
   5   0  -8   -1.82    1.95
   5   0  -7  111.03    4.82
  -5   0   7  113.58    4.28
   5   0  -6    1.13    1.44
  -5   0   6    2.75    1.15
  -5   0   5  176.18    5.87
   5   0  -5  155.58    5.91
   5   0  -4   -0.27    0.97
  -5   0   4   -0.23    0.89
  -5   0   3   21.31    1.37
   5   0  -3   18.57    1.32
   5   0  -2    0.15    0.81
  -5   0   2    0.66    0.89
  -5   0   1  121.25    4.37
   5   0  -1  121.55    4.33
  -5   0   0   -0.84    0.97
   5   0   0   -0.77    0.97
  -5   0  -1    3.44    1.11
   5   0   1    3.83    0.92
  -5   0  -2   -1.06    1.14
   5   0   2   -0.10    0.94
  -5   0  -3  208.47    7.14
   5   0   3  202.07    7.15
  -5   0  -4    1.52    1.27
   5   0   4   -0.12    1.20
   5   0   5  110.09    4.47
   5   0   6    0.52    1.43
   5   0   7    3.45    1.65
   5  -1 -11    2.54    2.71
   5   1 -11    1.79    2.64
   5  -1 -10    5.94    2.42
   5   1 -10    5.38    2.40
   5  -1 -10    6.81    2.29
   5   1  -9    6.86    2.17
   5   1  -9   11.76    2.11
   5  -1  -9    8.09    1.98
   5  -1  -8   23.26    2.48
   5   1  -8   26.26    2.41
   5  -1  -8   29.03    2.41
   5   1  -8   26.78    2.36
  -5  -1   8   28.91    1.88
   5   1  -7   34.96    2.60
   5   1  -7   39.00    2.53
   5  -1  -7   43.62    2.57
  -5   1   7   41.53    2.22
  -5  -1   7   38.20    2.07
   5  -1  -7   37.69    2.61
   5   1  -6  229.81    8.08
   5   1  -6  221.09    7.97
   5  -1  -6  232.16    8.00
   5  -1  -6  233.01    8.06
  -5   1   6  230.19    7.79
  -5  -1   6  231.73    7.70
   5  -1  -6  223.67    8.06
   5   1  -5   -2.54    1.47
   5  -1  -5   -3.94    1.47
  -5  -1   5    0.45    1.44
  -5   1   5    0.90    1.46
   5  -1  -5    0.16    1.11
   5   1  -5    2.06    1.16
  -5   1   5    0.70    1.19
  -5  -1   5    0.99    1.02
  -5  -1   4   41.20    1.90
  -5   1   4   42.43    2.04
  -5  -1   4   40.96    2.59
  -5   1   4   41.33    2.61
   5  -1  -4   43.90    2.15
   5   1  -4   43.89    2.24
   5  -1  -4   45.37    2.26
   5   1  -4   40.45    2.03
  -5  -1   3    4.23    1.65
  -5   1   3    4.66    1.70
   5  -1  -3    5.19    0.97
   5   1  -3    2.98    0.88
   5   1  -3    3.06    1.10
   5  -1  -3    4.41    1.17
  -5  -1   3    4.69    0.91
  -5   1   3    3.29    1.03
  -5  -1   2   96.21    3.55
  -5   1   2  103.09    3.72
  -5  -1   2  100.06    4.47
  -5   1   2   97.52    4.48
   5  -1  -2   92.10    3.62
   5   1  -2   93.29    3.51
   5   1  -2   95.87    4.00
   5  -1  -2  104.15    4.07
   5   1  -1   11.88    1.02
   5   1  -1   10.93    1.42
   5  -1  -1   12.83    1.45
  -5  -1   1    8.43    1.04
  -5   1   1   10.00    1.18
  -5  -1   1   12.22    2.13
  -5   1   1   11.03    2.09
   5  -1  -1   10.40    1.12
   5   1   0   11.26    1.60
   5  -1   0   13.54    1.64
  -5  -1   0   14.29    1.20
  -5   1   0   13.23    1.33
   5  -1   0   16.25    1.39
   5   1   0   14.29    1.22
  -5  -1  -1   25.96    1.58
  -5   1  -1   28.62    1.76
   5   1   1   24.61    1.44
   5  -1   1   25.56    1.57
   5   1   1   25.44    2.20
   5  -1   1   25.98    2.18
  -5  -1  -2   74.93    2.98
  -5   1  -2   66.19    3.04
   5   1   2   69.75    2.90
   5  -1   2   71.68    3.03
   5   1   2   70.99    3.76
   5  -1   2   74.38    3.78
  -5  -1  -3   35.72    2.04
  -5   1  -3   35.66    2.15
   5   1   3   38.05    2.07
   5  -1   3   36.79    2.13
   5   1   3   43.13    3.06
   5  -1   3   40.55    2.98
   5   1   4   75.07    3.32
   5  -1   4   78.29    3.45
   5   1   4   80.42    4.39
   5  -1   4   76.36    4.39
   5   1   5    3.88    1.35
   5  -1   5    2.73    1.39
   5   1   5    3.23    2.51
   5  -1   5    2.75    2.46
   5   1   6    0.58    1.40
   5  -1   6    3.01    1.57
   5   1   6   -1.38    2.81
   5  -1   6    1.16    2.72
   5   1   7    8.38    1.81
   5  -1   7    6.24    1.82
   5   2 -11   11.16    2.87
   5  -2 -10    3.62    2.36
   5   2 -10   -2.29    2.23
   5   2 -10    1.47    2.22
   5  -2 -10    0.95    2.20
   5  -2  -9    7.47    2.28
   5   2  -9    8.27    2.21
   5   2  -9   10.90    2.10
   5  -2  -9   11.65    2.08
  -5  -2   8    1.45    1.15
   5  -2  -8    2.14    1.85
   5   2  -8    3.19    1.83
   5   2  -8    5.95    1.85
   5  -2  -8    2.87    1.75
   5   2  -7   28.45    2.30
   5   2  -7   28.62    2.15
   5  -2  -7   26.12    2.17
  -5  -2   7   26.33    1.68
   5  -2  -7   26.45    2.28
   5   2  -6    4.78    1.42
   5  -2  -6    5.47    1.40
   5   2  -6    7.00    1.74
   5  -2  -6    6.36    1.74
   5  -2  -6    5.37    1.40
   5   2  -6    2.61    1.46
  -5   2   6    3.50    1.24
  -5  -2   6    5.72    1.03
   5   2  -5   19.25    1.75
   5  -2  -5   21.94    1.82
  -5  -2   5   22.11    1.98
  -5   2   5   24.90    2.05
   5   2  -5   21.18    1.69
  -5  -2   5   22.65    1.46
   5  -2  -5   22.72    1.71
  -5   2   5   20.81    1.68
  -5  -2   4    1.26    1.52
  -5   2   4   -0.71    1.49
   5  -2  -4    0.85    0.99
   5   2  -4    1.25    0.97
  -5  -2   4    0.24    0.75
  -5   2   4    1.34    1.03
   5   2  -4    2.05    1.07
   5  -2  -4    1.28    1.03
  -5  -2   3    3.96    1.62
  -5   2   3    2.66    1.62
   5  -2  -3    2.89    0.99
   5   2  -3    3.16    0.86
   5   2  -3    2.32    1.03
   5  -2  -3    3.72    1.08
  -5  -2   3    3.00    0.83
  -5   2   3    2.41    1.04
   5  -2  -2    1.02    0.89
   5   2  -2    0.37    0.72
   5   2  -2   -0.58    1.16
   5  -2  -2   -0.90    1.15
  -5  -2   2    0.83    0.78
  -5   2   2    1.41    1.05
  -5  -2   2    2.48    1.74
  -5   2   2    0.82    1.77
   5   2  -1   14.00    1.52
   5  -2  -1   13.48    1.47
  -5  -2   1   11.23    1.03
   5   2  -1   13.24    1.02
  -5   2   1   12.54    1.34
  -5  -2   1   13.46    2.17
  -5   2   1    9.66    2.03
   5  -2  -1   11.55    1.22
  -5  -2   0   44.85    2.02
  -5   2   0   43.62    2.27
   5  -2   0   48.59    2.35
   5   2   0   45.50    2.01
   5   2   0   47.85    2.62
   5  -2   0   45.24    2.60
   5   2   1   11.91    1.72
   5  -2   1   10.19    1.70
  -5  -2  -1   10.97    1.14
  -5   2  -1   11.75    1.38
   5   2   1   11.79    1.04
   5  -2   1   11.82    1.24
  -5  -2  -2   41.11    1.97
  -5   2  -2   38.50    2.21
   5   2   2   37.91    1.89
   5  -2   2   36.11    2.09
   5   2   2   37.04    2.77
   5  -2   2   35.66    2.71
  -5   2  -3  115.60    4.47
   5   2   3  111.29    4.23
   5  -2   3  111.59    4.41
   5   2   3  116.73    5.22
   5  -2   3  108.08    5.14
   5   2   4    1.11    1.72
   5   2   4   -0.22    1.13
   5  -2   4   -0.07    1.23
   5   2   4    0.13    2.04
   5  -2   4    1.12    1.94
   5   2   5    3.74    1.31
   5  -2   5    3.59    1.44
   5   2   5    4.76    2.43
   5  -2   5    5.21    2.37
   5   2   6   10.86    1.65
   5  -2   6    9.16    1.74
   5   2   6    9.43    2.99
   5  -2   6   10.41    2.95
   5   2   7    9.88    1.85
   5  -2   7    9.57    1.91
   5   2   8    0.27    1.86
   5   3 -11    4.58    2.73
   5  -3 -10    6.01    2.53
   5   3 -10    2.68    2.34
   5   3 -10    4.57    2.34
   5  -3 -10    2.23    2.29
   5  -3  -9   13.15    2.51
   5   3  -9   14.08    2.37
   5   3  -9   20.03    2.32
   5  -3  -9   19.75    2.32
  -5  -3   8    2.41    1.13
   5  -3  -8   -1.09    1.77
   5   3  -8    1.60    1.76
   5   3  -8    2.94    1.83
   5  -3  -8    2.65    1.80
  -5  -3   7    0.52    1.00
   5  -3  -7    2.32    1.60
   5   3  -7    5.60    1.62
   5  -3  -7    2.72    1.58
   5   3  -7    2.18    1.59
   5   3  -6    1.56    1.36
   5  -3  -6    0.67    1.35
   5  -3  -6    3.99    1.42
   5   3  -6    1.64    1.63
   5  -3  -6    2.96    1.69
   5   3  -6    2.61    1.38
  -5   3   6    2.47    1.28
  -5  -3   6    2.31    0.94
   5   3  -5   28.44    1.95
   5  -3  -5   26.22    1.96
   5   3  -5   31.66    1.93
  -5   3   5   32.55    1.96
  -5  -3   5   30.74    1.60
  -5  -3   5   27.62    2.18
  -5   3   5   27.05    2.24
   5  -3  -5   28.25    1.98
  -5  -3   4    9.99    1.74
  -5   3   4   10.71    1.77
   5  -3  -4   10.30    1.30
   5   3  -4   11.33    1.22
  -5  -3   4   10.18    0.91
  -5   3   4   10.12    1.22
   5   3  -4   12.15    1.32
   5  -3  -4   13.45    1.35
  -5  -3   3    2.50    1.67
  -5   3   3    3.30    1.73
   5  -3  -3    3.42    1.05
   5   3  -3    2.06    0.85
   5   3  -3    2.54    1.15
   5  -3  -3    1.89    1.09
  -5  -3   3    3.47    0.76
  -5   3   3    2.30    1.12
  -5  -3   2  132.78    4.73
  -5   3   2  138.01    5.14
  -5  -3   2  156.09    5.91
  -5   3   2  145.58    5.83
   5  -3  -2  147.12    5.12
   5   3  -2  145.47    5.35
   5  -3  -2  142.68    5.34
   5   3  -2  139.64    4.74
   5   3  -1    0.34    0.65
   5   3  -1    1.03    1.11
   5  -3  -1    2.92    1.28
  -5  -3   1   -0.49    0.77
  -5   3   1    0.31    1.09
   5  -3  -1    0.54    0.99
   5   3   0   16.71    1.76
   5  -3   0   17.63    1.77
  -5  -3   0   16.50    1.14
   5   3   0   16.25    1.12
  -5   3   0   15.32    1.50
   5  -3   0   17.25    1.58
   5   3   1    4.83    1.48
   5  -3   1    4.77    1.55
  -5  -3  -1    5.90    0.94
  -5   3  -1    6.00    1.31
   5   3   1    5.41    0.85
   5  -3   1    5.52    1.16
   5   3   2   21.55    2.20
   5  -3   2   21.08    2.27
  -5   3  -2   23.20    1.83
   5   3   2   22.09    1.37
   5  -3   2   20.62    1.61
   5   3   3   39.01    2.51
   5   3   3   40.75    2.06
   5  -3   3   41.96    2.32
   5   3   3   41.35    2.96
   5  -3   3   36.69    2.90
   5   3   4   27.29    1.79
   5   3   4   27.05    2.33
   5  -3   4   24.20    1.99
   5   3   4   25.94    2.73
   5  -3   4   30.76    2.84
   5   3   5    1.98    1.25
   5  -3   5    0.08    1.43
   5   3   5   -0.44    2.28
   5  -3   5   -0.28    2.25
   5   3   6    1.58    1.45
   5  -3   6    1.32    1.61
   5   3   6   -1.50    2.64
   5  -3   6   -0.77    2.64
   5   3   7    9.63    1.85
   5  -4 -10   -0.13    2.51
   5   4 -10    3.45    2.38
   5  -4 -10    1.72    2.31
   5  -4  -9   22.97    2.75
   5   4  -9   20.97    2.53
   5   4  -9   24.22    2.50
   5  -4  -9   25.81    2.60
   5  -4  -8    2.01    1.83
   5   4  -8   -1.45    1.76
   5   4  -8    4.04    1.81
   5  -4  -8    0.31    1.73
   5  -4  -7   10.45    1.84
   5   4  -7   16.31    1.91
   5  -4  -7   13.99    1.86
   5   4  -7    9.84    1.79
   5  -4  -6    4.19    1.47
   5   4  -6    6.38    1.49
   5  -4  -6    5.97    1.49
   5   4  -6    6.70    1.77
   5  -4  -6    5.36    1.76
   5   4  -6    5.16    1.45
  -5  -4   6    3.88    0.93
   5   4  -5   74.09    3.35
   5  -4  -5   73.85    3.37
   5   4  -5   78.40    3.24
  -5   4   5   83.39    3.39
  -5  -4   5   78.67    2.92
  -5  -4   5   79.57    3.66
  -5   4   5   81.07    3.73
   5  -4  -5   71.86    3.39
  -5  -4   4   15.93    1.95
  -5   4   4   16.44    1.97
   5  -4  -4   17.19    1.54
   5   4  -4   14.09    1.32
  -5  -4   4   14.43    0.97
  -5   4   4   15.44    1.45
   5   4  -4   17.95    1.49
   5  -4  -4   15.31    1.43
  -5  -4   3   19.55    1.09
  -5   4   3   23.96    1.69
   5  -4  -3   21.18    1.60
   5   4  -3   22.20    1.64
   5  -4  -3   21.90    1.69
   5   4  -3   23.21    1.31
  -5  -4   3   23.91    2.19
  -5   4   3   22.94    2.26
  -5  -4   2   23.30    1.14
  -5   4   2   23.89    1.73
   5  -4  -2   22.37    1.61
   5   4  -2   24.87    1.80
   5  -4  -2   22.74    1.78
   5   4  -2   17.97    1.13
  -5  -4   2   26.55    2.38
  -5   4   2   23.58    2.43
  -5  -4   1  179.40    5.74
  -5   4   1  177.30    6.28
   5  -4  -1  170.10    6.20
   5   4  -1  189.49    6.50
   5  -4  -1  177.18    6.45
   5   4  -1  168.63    5.67
   5   4   0   19.29    1.84
   5  -4   0   18.94    1.81
  -5  -4   0   21.87    1.23
   5   4   0   21.37    1.12
  -5   4   0   20.45    1.75
   5  -4   0   20.29    1.72
   5   4   1   14.09    1.79
   5  -4   1   11.55    1.77
   5   4   1   14.68    1.03
  -5   4  -1   17.15    1.64
   5  -4   1   14.16    1.45
   5   4   2   26.16    2.34
   5  -4   2   22.68    2.37
   5   4   2   23.60    1.87
   5   4   2   25.25    1.40
   5  -4   2   24.27    1.76
   5   4   3   28.46    2.15
   5   4   3   26.98    1.62
   5  -4   3   25.20    1.91
   5   4   3   30.84    2.66
   5  -4   3   26.79    2.55
   5   4   4   23.82    1.65
   5  -4   4   22.74    1.95
   5   4   4   20.32    2.61
   5  -4   4   19.66    2.58
   5   4   5   10.88    1.48
   5  -4   5   11.32    1.79
   5   4   5   14.32    2.75
   5  -4   5   15.28    2.62
   5   4   6    2.63    1.48
   5  -4   6    1.37    1.59
   5   4   6    4.84    2.81
   5  -4   6    1.19    2.49
   5   5 -10   27.99    3.00
   5  -5 -10   20.67    2.92
   5  -5  -9    7.90    2.33
   5   5  -9   10.21    2.19
   5  -5  -9    7.70    2.15
   5  -5  -8   20.46    2.48
   5   5  -8   23.71    2.26
   5  -5  -8   24.72    2.29
   5   5  -7   51.24    2.85
   5   5  -7   51.35    2.85
   5  -5  -7   53.13    2.90
   5  -5  -7   49.91    3.03
   5   5  -6   33.15    2.16
   5   5  -6   34.00    2.26
   5  -5  -6   36.61    2.29
   5   5  -6   33.65    2.37
   5  -5  -6   32.05    2.40
   5  -5  -6   31.10    2.28
   5   5  -5   38.68    2.27
   5  -5  -5   39.08    2.30
   5   5  -5   40.67    2.10
  -5  -5   5   42.46    2.57
  -5   5   5   39.45    2.59
   5  -5  -5   35.57    2.32
  -5  -5   4   12.29    1.92
  -5   5   4   12.18    1.90
   5  -5  -4   14.57    1.50
   5   5  -4   12.99    1.20
  -5  -5   4   11.96    0.84
  -5   5   4   11.89    1.38
   5   5  -4   17.31    1.46
   5  -5  -4   16.61    1.46
   5   5  -3   16.84    1.09
   5  -5  -3   15.80    1.49
  -5  -5   3   16.58    0.89
   5  -5  -3   16.63    1.54
   5   5  -3   18.82    1.55
  -5   5   3   19.29    1.66
  -5  -5   3   20.33    2.16
  -5   5   3   20.28    2.20
  -5  -5   2   22.07    0.99
  -5   5   2   23.73    1.79
   5  -5  -2   24.09    1.70
   5   5  -2   23.91    1.78
   5  -5  -2   21.13    1.74
  -5  -5   2   23.33    2.31
  -5   5   2   18.48    2.30
   5   5  -2   19.21    1.07
   5   5  -1   11.29    1.56
   5  -5  -1    9.82    1.53
  -5   5   1   12.68    1.51
   5   5  -1   12.25    0.75
   5   5   0    4.37    0.61
   5   5   0    5.82    1.41
   5  -5   0    4.37    1.39
   5   5   0    3.74    1.04
  -5   5   0    3.09    1.31
   5  -5   0    3.79    1.27
   5   5   1    0.92    1.42
   5  -5   1    1.95    1.48
   5   5   1    0.81    1.16
   5  -5   1    0.13    1.13
   5   5   1    0.49    0.69
   5   5   2   25.44    2.23
   5  -5   2   23.24    2.27
   5   5   2   21.40    1.27
   5  -5   2   20.58    1.71
   5   5   3    1.85    1.84
   5  -5   3    1.21    1.77
   5   5   3   -0.41    0.91
   5  -5   3    0.91    1.28
   5   5   4    0.28    1.03
   5  -5   4   -0.68    1.38
   5   5   4    2.81    2.00
   5  -5   4    2.04    2.04
   5  -5   5    8.79    1.77
   5   5   5    8.20    2.41
   5  -5   5    4.09    2.23
   5  -5   6    0.27    1.62
   5   5   6   -0.15    2.61
   5  -5   6    0.43    2.47
   5   6 -10    3.70    2.58
   5  -6 -10    3.41    2.51
   5  -6  -9    2.18    2.31
   5   6  -9    5.50    2.18
   5   6  -8    7.05    1.92
   5  -6  -8    9.51    1.93
   5  -6  -7   17.40    2.09
   5   6  -7   18.47    2.06
   5  -6  -7   15.53    1.98
   5  -6  -6   11.92    1.82
   5   6  -6   18.18    1.90
   5  -6  -6   17.17    1.85
   5   6  -6   18.26    2.09
   5  -6  -6   16.95    2.09
   5   6  -5  142.47    5.29
   5  -6  -5  143.57    5.28
  -5  -6   5  140.76    5.62
  -5   6   5  133.06    5.62
   5  -6  -5  145.21    5.50
  -5  -6   4   39.54    2.63
  -5   6   4   32.21    2.61
   5  -6  -4   34.55    2.17
   5   6  -4   33.66    2.08
   5  -6  -4   34.29    2.11
  -5  -6   3  109.45    4.74
  -5   6   3  107.52    4.79
   5  -6  -3  103.77    4.27
   5   6  -3  112.73    4.22
   5  -6  -3  105.56    4.16
   5  -6  -2    8.40    1.37
   5   6  -2    8.65    1.37
   5  -6  -2    7.44    1.35
  -5  -6   2   10.54    2.09
  -5   6   2    3.74    1.99
   5   6  -1   -3.05    1.43
   5  -6  -1   -1.79    1.38
   5  -6  -1   -0.06    1.19
   5   6   0    1.62    0.33
   5   6   0    3.12    1.35
   5  -6   0    4.17    1.36
   5  -6   0    2.26    1.27
   5   6   1    2.28    1.40
   5  -6   1    2.91    1.47
   5  -6   1    1.86    1.37
   5   6   1    1.77    0.57
   5   6   2    3.95    1.61
   5  -6   2    4.04    1.71
   5  -6   2    7.09    1.42
   5   6   3    0.85    1.78
   5  -6   3   -0.11    1.81
   5  -6   3    2.29    1.32
   5  -6   4    7.77    1.66
   5   6   4    8.83    2.25
   5  -6   4    6.02    2.19
   5  -6   5    0.94    1.62
   5   6   5    1.56    2.24
   5  -6   5   -1.16    2.23
   5   6   6   18.66    2.98
   5  -6   6   13.80    2.89
   5   7  -9   30.93    2.91
   5  -7  -9   28.27    2.83
   5  -7  -8    1.82    2.02
   5   7  -8    5.70    1.87
   5  -7  -8    4.09    1.86
   5  -7  -7    3.06    1.76
   5   7  -7    5.88    1.82
   5  -7  -7    3.82    1.77
   5  -7  -6   12.17    1.87
   5   7  -6   20.40    1.92
   5  -7  -6   20.03    1.90
   5   7  -6   17.70    2.16
   5  -7  -6   17.73    2.08
   5   7  -5    3.60    1.68
   5  -7  -5    1.11    1.43
   5   7  -5    1.78    1.30
   5  -7  -5    2.52    1.33
   5  -7  -5    1.93    1.62
  -5   7   4   -0.18    1.78
   5   7  -4   -2.30    1.36
   5  -7  -4   -2.90    1.35
   5  -7  -4   -0.33    1.28
  -5  -7   4   -0.09    1.65
  -5  -7   3   41.62    2.84
  -5   7   3   43.16    2.94
   5  -7  -3   38.75    2.37
   5   7  -3   44.21    2.26
   5  -7  -3   44.45    2.27
   5  -7  -2    0.45    1.25
   5   7  -2    0.63    1.16
   5  -7  -2   -0.90    1.16
   5  -7  -1    2.77    1.34
   5   7  -1   -0.77    1.37
   5  -7  -1   -0.32    1.30
   5   7   0   23.96    1.88
   5  -7   0   26.61    1.98
   5  -7   0   20.95    1.83
   5   7   1    7.58    1.55
   5  -7   1    8.28    1.68
   5  -7   1   11.62    1.72
   5   7   2   15.96    1.95
   5  -7   2   11.64    1.93
   5  -7   2   15.48    1.73
   5   7   3    4.43    1.84
   5  -7   3    3.44    1.95
   5  -7   3    5.55    1.49
   5   7   4    4.29    2.01
   5  -7   4    5.01    2.18
   5  -7   4    8.18    1.70
   5  -7   5   13.37    1.98
   5   7   5   11.76    2.46
   5  -7   5   13.45    2.60
   5   7   6    0.27    2.49
   5  -7   6    2.36    2.57
   5   8  -9   37.04    3.27
   5  -8  -9   36.61    3.19
   5   8  -8   11.24    2.11
   5  -8  -8   11.63    2.12
   5  -8  -7    7.13    2.04
   5   8  -7   11.29    1.92
   5  -8  -6    0.76    1.61
   5   8  -6    2.07    1.61
   5  -8  -6    2.70    1.58
   5   8  -5   39.95    2.35
   5  -8  -5   35.13    2.25
   5   8  -5   39.48    2.50
   5  -8  -5   38.81    2.45
   5   8  -4   -0.81    1.33
   5  -8  -4    0.16    1.32
   5  -8  -4    1.91    1.41
  -5  -8   4    1.89    1.75
  -5   8   4    4.58    1.92
  -5  -8   3   69.75    3.60
  -5   8   3   60.65    3.56
   5  -8  -3   63.99    3.15
   5   8  -3   69.18    2.93
   5  -8  -3   63.39    2.86
   5  -8  -2    0.21    1.30
   5   8  -2   -0.94    1.21
   5  -8  -2   -1.23    1.18
   5  -8  -1   31.59    2.16
   5   8  -1   29.92    2.02
   5  -8  -1   27.12    1.98
   5  -8   0   53.14    2.89
   5   8   0   57.71    2.87
   5  -8   0   55.97    2.90
   5   8   1    5.16    1.44
   5  -8   1    5.26    1.52
   5   8   2    2.62    1.52
   5  -8   2    2.90    1.70
   5  -8   2    3.13    1.55
   5   8   3   12.59    1.98
   5  -8   3   10.17    2.09
   5  -8   3   13.62    1.79
   5   8   4    1.61    1.87
   5  -8   4    1.03    2.07
   5   8   5    6.90    2.31
   5  -8   5    5.24    2.41
   5   8   6   45.29    3.48
   5  -8   6   45.41    3.78
   5   9  -9    3.41    2.48
   5  -9  -9    2.39    2.44
   5   9  -8   19.39    2.45
   5  -9  -8   15.70    2.31
   5   9  -7    7.49    1.86
   5  -9  -7    6.50    1.78
   5   9  -6   35.67    2.45
   5  -9  -6   33.76    2.37
   5   9  -5   25.17    2.04
   5  -9  -5   24.03    1.98
   5   9  -5   25.25    2.15
   5  -9  -4    0.10    1.50
   5   9  -4   -0.42    1.36
   5  -9  -4    0.86    1.30
  -5   9   4   -0.09    1.87
   5   9  -3   -1.04    1.34
   5  -9  -3   -0.71    1.33
  -5   9   3    3.24    2.01
   5   9  -2   25.41    1.75
   5  -9  -2   24.51    1.72
   5   9  -1    0.99    1.27
   5  -9  -1   -0.11    1.20
   5   9   0   32.22    2.18
   5  -9   0   30.50    2.15
   5   9   1    1.51    1.31
   5  -9   1    3.79    1.45
   5   9   2   13.56    1.72
   5  -9   2   12.10    1.90
   5   9   3    8.31    1.76
   5  -9   3    4.67    1.88
   5   9   4    1.29    1.83
   5  -9   4    0.65    2.11
   5   9   5   48.84    3.39
   5  -9   5   53.12    3.87
   5 -10  -6   -0.85    1.96
   5  10  -6    4.62    1.82
   5 -10  -5    1.05    1.73
   5  10  -5    2.63    1.58
   5 -10  -5    3.07    1.56
   5 -10  -4    2.40    1.65
   5  10  -4    3.50    1.45
   5 -10  -4    4.16    1.40
   5  10  -3    4.83    1.40
   5 -10  -3    6.87    1.39
   5 -10  -3    7.02    1.65
   5 -10  -2    0.77    1.53
   5  10  -2    1.92    1.19
   5 -10  -2    3.97    1.20
   5 -10  -1   20.34    1.63
   5  10  -1   22.95    1.72
   5  10   0    7.87    1.50
   5 -10   0    7.60    1.49
   5 -10   0    9.78    1.82
   5 -10   1   77.58    3.94
   5  10   1   87.63    3.74
   5 -10   1   84.09    3.78
   5  10   2   21.33    1.98
   5 -10   2   21.92    2.43
   5 -11  -5   23.10    2.48
   5 -11  -4   54.05    3.22
   5 -11  -3   19.45    2.13
   5 -11  -2   26.08    2.25
   5 -11  -1    7.55    1.77
   5 -11   0    1.45    1.72
   5 -11   1   -0.70    1.72
   6   0 -10   37.31    3.55
   6   0  -9    2.60    2.29
   6   0  -8    2.54    2.01
   6   0  -7    0.34    1.70
  -6   0   6  222.50    7.65
   6   0  -6  223.08    7.94
   6   0  -5   -1.04    1.25
  -6   0   5   -0.04    1.06
  -6   0   4   95.58    3.70
   6   0  -4   94.69    3.79
   6   0  -3    1.00    1.06
  -6   0   3    0.60    1.12
   6   0  -2    3.78    1.06
  -6   0   2    5.86    1.16
   6   0  -1    0.77    1.01
  -6   0   1   -0.19    1.09
  -6   0   0   26.85    1.80
   6   0   0   28.91    1.76
  -6   0  -1    0.63    1.16
   6   0   1   -0.92    1.18
  -6   0  -2    0.83    1.21
   6   0   2    2.44    1.17
   6   0   3    1.36    1.26
   6   0   4  199.75    7.19
   6   0   5   -0.45    1.55
   6   0   6   28.27    2.49
   6  -1 -10    5.70    2.75
   6   1 -10    2.07    2.50
   6  -1  -9    5.15    2.37
   6   1  -9    2.07    2.21
   6  -1  -9    2.53    2.11
   6  -1  -8   -0.69    1.98
   6   1  -8    2.72    1.90
   6  -1  -8    3.97    1.92
   6   1  -8   -2.69    2.02
   6   1  -7   16.44    2.06
   6  -1  -7   18.64    2.12
   6  -1  -7   17.93    2.15
   6   1  -7   13.88    2.04
   6   1  -6    3.23    1.61
   6  -1  -6    4.57    1.69
   6  -1  -6    6.79    1.59
   6   1  -6    6.05    1.61
  -6  -1   6    5.55    1.19
   6   1  -5    3.26    1.38
   6  -1  -5    5.10    1.44
   6  -1  -5    1.38    1.32
   6   1  -5    4.96    1.32
  -6  -1   5    1.87    1.00
  -6   1   5    2.04    1.08
  -6  -1   4   35.17    1.90
  -6   1   4   36.09    2.03
   6  -1  -4   34.62    2.10
   6   1  -4   35.48    2.25
   6  -1  -4   41.67    2.33
   6   1  -4   32.56    1.97
  -6  -1   3  104.56    3.94
  -6   1   3  108.96    4.11
   6  -1  -3  103.60    4.05
   6   1  -3  105.38    4.41
   6  -1  -3  111.58    4.47
   6   1  -3  103.51    3.95
   6  -1  -2    0.10    1.03
   6   1  -2   -0.87    0.94
   6   1  -2   -1.97    1.54
   6  -1  -2   -2.67    1.53
  -6  -1   2    0.42    0.99
  -6   1   2    0.05    1.10
  -6  -1   1   37.33    1.96
  -6   1   1   37.22    2.10
   6  -1  -1   38.96    2.04
   6   1  -1   32.57    1.86
   6   1  -1   37.77    2.50
   6  -1  -1   37.17    2.48
   6   1   0    1.65    1.53
   6  -1   0    0.83    1.46
  -6  -1   0    0.32    1.05
  -6   1   0    0.93    1.22
   6  -1   0    1.53    1.15
   6   1   0    0.74    1.01
   6   1   1    1.51    1.65
   6  -1   1    2.51    1.61
  -6  -1  -1    4.74    1.18
  -6   1  -1    4.56    1.34
   6  -1   1    3.02    1.23
   6   1   1    2.37    1.16
   6  -1   2    1.22    1.75
  -6  -1  -2   -0.10    1.16
   6   1   2    1.43    1.06
   6  -1   2   -0.06    1.12
   6   1   3    1.02    2.09
   6  -1   3    2.27    2.11
   6   1   3    2.09    1.23
   6  -1   3   -0.38    1.23
   6  -1   4    0.70    2.26
   6   1   4    2.34    1.41
   6  -1   4    1.25    1.42
   6   1   5    0.58    1.55
   6  -1   5   -0.08    1.50
   6   1   6    1.54    1.76
   6  -1   6    0.17    1.78
   6  -2 -10   -0.66    2.60
   6  -2  -9    3.26    2.40
   6   2  -9    8.81    2.32
   6   2  -9    6.91    2.30
   6  -2  -9    6.39    2.31
   6  -2  -8    8.30    2.20
   6   2  -8    9.46    2.07
   6  -2  -8    9.60    2.12
   6   2  -8   10.66    2.13
   6   2  -7    1.28    1.74
   6  -2  -7    3.18    1.75
   6  -2  -7    0.34    1.69
   6   2  -7   -0.80    1.78
   6   2  -6   53.02    2.83
   6   2  -6   52.76    2.85
   6  -2  -6   51.39    2.90
   6  -2  -6   47.53    2.80
   6   2  -5    6.91    1.45
   6  -2  -5    5.09    1.46
   6  -2  -5    4.21    1.38
   6   2  -5    6.22    1.40
  -6  -2   5    6.00    1.07
   6  -2  -4    5.51    1.33
   6   2  -4    6.17    1.18
  -6  -2   4    6.28    1.06
  -6   2   4    5.36    1.27
   6   2  -4    7.31    1.38
   6  -2  -4    9.75    1.50
   6  -2  -3    7.35    1.29
   6   2  -3    5.69    1.10
   6   2  -3    5.96    1.46
   6  -2  -3    7.70    1.50
  -6  -2   3    6.16    1.02
  -6   2   3    7.88    1.39
  -6  -2   2   26.40    1.59
  -6   2   2   26.23    1.84
   6   2  -2   24.84    2.14
   6  -2  -2   27.36    1.81
   6  -2  -2   27.74    2.18
   6   2  -2   26.95    1.51
  -6  -2   1   26.27    1.58
  -6   2   1   27.00    1.90
   6  -2  -1   25.92    1.79
   6   2  -1   26.43    1.53
   6   2  -1   28.86    2.17
   6  -2  -1   27.36    2.18
   6   2   0   13.25    1.84
   6  -2   0   11.01    1.83
  -6  -2   0   12.19    1.27
  -6   2   0   13.40    1.58
   6  -2   0   12.82    1.46
   6   2   0   13.28    1.20
   6   2   1    2.71    1.66
   6  -2   1    0.20    1.55
   6  -2   1   -0.62    1.29
   6   2   1    0.79    1.08
   6   2   2   -0.67    1.89
   6  -2   2    0.33    1.76
   6   2   2    3.22    1.06
   6  -2   2    1.84    1.21
   6   2   3    6.19    2.15
   6  -2   3    4.71    2.17
   6   2   3    5.91    1.27
   6  -2   3    5.32    1.39
   6   2   4   69.73    3.25
   6  -2   4   74.13    3.45
   6   2   4   73.31    4.50
   6  -2   4   69.11    4.43
   6   2   5   12.91    1.88
   6  -2   5   10.43    1.87
   6  -3  -9   20.14    2.86
   6   3  -9   25.95    2.74
   6  -3  -9   27.05    2.70
   6  -3  -8    1.66    2.05
   6   3  -8    3.47    1.95
   6  -3  -8    3.08    1.95
   6   3  -8    2.12    1.91
   6   3  -7    3.92    1.75
   6  -3  -7    6.04    1.81
   6  -3  -7    1.56    1.74
   6   3  -7    2.91    1.71
   6   3  -6    0.83    1.54
   6  -3  -6    2.03    1.59
   6  -3  -6    2.79    1.56
   6   3  -6    1.17    1.50
   6   3  -5   56.44    2.77
   6  -3  -5   57.21    2.94
   6   3  -5   55.98    2.98
   6  -3  -5   60.74    3.04
   6  -3  -4   24.91    1.89
   6   3  -4   29.63    2.06
   6  -3  -4   27.46    2.01
   6   3  -4   28.39    1.74
   6  -3  -3    3.98    1.19
   6   3  -3    3.44    1.02
   6   3  -3    4.96    1.47
   6  -3  -3    5.05    1.45
   6  -3  -2   15.63    1.49
   6   3  -2   10.88    1.11
   6   3  -2   11.37    1.74
   6  -3  -2   12.11    1.74
  -6   3   2   13.65    1.58
   6   3  -1   25.45    2.11
   6  -3  -1   22.90    2.10
   6  -3  -1   24.13    1.81
   6   3  -1   24.01    1.37
   6   3   0    2.81    1.62
   6  -3   0    1.18    1.45
   6  -3   0    1.71    1.23
   6   3   0    1.72    0.86
   6   3   1   13.65    1.98
   6  -3   1   10.30    1.93
   6  -3   1   11.44    1.63
   6   3   1    9.56    1.22
   6   3   2   20.63    2.37
   6  -3   2   17.67    2.42
   6   3   2   20.95    1.45
   6  -3   2   20.85    1.81
   6   3   3    0.25    2.00
   6  -3   3    0.74    2.01
   6   3   3    1.95    1.15
   6  -3   3    1.15    1.36
   6   3   4   32.74    3.24
   6  -3   4   27.96    3.19
   6  -3   4   27.97    2.21
   6  -3   5   19.01    2.09
   6  -4  -9   17.13    2.79
   6   4  -9   25.64    2.70
   6  -4  -9   20.78    2.58
   6  -4  -8    5.14    2.14
   6   4  -8    6.99    2.07
   6  -4  -8    6.52    2.11
   6  -4  -7    7.03    1.87
   6   4  -7    7.86    1.91
   6  -4  -7   11.39    1.94
   6   4  -6   -1.11    1.54
   6  -4  -6   -0.69    1.57
   6  -4  -6    1.23    1.52
   6   4  -5    7.16    1.67
   6  -4  -5    9.49    1.70
   6  -4  -5    8.67    1.61
   6   4  -4   21.24    1.63
   6  -4  -4   24.03    1.88
   6   4  -4   27.04    1.96
   6  -4  -4   24.91    1.91
   6  -4  -3    2.28    1.23
   6   4  -3    1.45    0.93
   6   4  -3    1.54    1.34
   6  -4  -3    0.49    1.32
   6  -4  -2   76.83    3.30
   6   4  -2   81.57    3.57
   6  -4  -2   79.85    3.55
   6  -4  -1   15.29    1.62
   6   4  -1   17.04    1.98
   6  -4  -1   16.04    1.95
   6   4  -1   15.04    1.09
   6  -4   0   76.60    3.34
   6   4   0   67.31    2.72
   6   4   0   81.39    3.72
   6  -4   0   78.72    3.74
   6   4   1    1.38    1.66
   6  -4   1    0.79    1.61
   6  -4   1   -1.47    1.48
   6   4   2    3.28    1.83
   6  -4   2    1.09    1.84
   6  -4   2    4.82    1.48
   6   4   3   -0.73    1.96
   6  -4   3    0.12    2.03
   6  -4   3    0.64    1.37
   6   4   4    2.92    2.48
   6  -4   4    1.88    2.36
   6  -4   4    2.29    1.58
   6  -5  -8    3.39    2.12
   6   5  -8    5.81    2.11
   6  -5  -8    4.13    2.11
   6   5  -7   11.90    2.02
   6  -5  -7    9.46    1.94
   6   5  -6    4.76    1.67
   6  -5  -6    3.31    1.60
   6  -5  -6    3.54    1.68
   6   5  -5   48.39    2.71
   6  -5  -5   42.59    2.65
   6  -5  -5   45.64    2.70
   6  -5  -4    4.46    1.41
   6   5  -4    5.50    1.41
   6  -5  -4    4.82    1.42
   6  -5  -3   10.65    1.51
   6   5  -3    8.19    1.46
   6  -5  -3   10.65    1.61
   6  -5  -2   10.00    1.52
   6   5  -2   11.79    1.74
   6  -5  -2    9.23    1.66
   6  -5  -1   12.78    1.59
   6   5  -1   11.91    1.81
   6  -5  -1   10.92    1.89
   6   5   0    3.97    1.54
   6  -5   0    3.93    1.58
   6  -5   0    2.96    1.39
   6   5   1    4.16    1.73
   6  -5   1    5.10    1.76
   6  -5   1    4.48    1.70
   6   5   2   23.77    2.39
   6  -5   2   20.52    2.43
   6  -5   2   21.51    1.98
   6  -5   3   34.24    3.05
   6  -5   3   30.60    2.35
   6   5   3   39.58    3.09
   6   5   4   25.79    3.00
   6  -5   4   24.59    2.98
   6  -5   4   25.94    2.18
   6  -6  -8    1.08    2.11
   6   6  -8    3.07    2.15
   6  -6  -8    5.76    2.16
   6  -6  -7    9.88    2.05
   6   6  -7   11.87    2.06
   6  -6  -7   10.80    2.05
   6  -6  -6    7.40    1.82
   6   6  -6    8.91    1.84
   6  -6  -6    7.46    1.77
   6   6  -5    7.88    1.72
   6  -6  -5    6.62    1.68
   6  -6  -5    8.97    1.72
   6  -6  -4   43.35    2.64
   6   6  -4   48.63    2.59
   6  -6  -4   50.01    2.64
   6  -6  -3   30.00    2.14
   6   6  -3   32.86    2.15
   6  -6  -3   27.84    2.11
   6  -6  -2   18.80    1.80
   6   6  -2   16.57    1.85
   6  -6  -2   12.74    1.79
   6  -6  -1   17.42    1.79
   6   6  -1   16.31    1.94
   6   6   0    4.27    1.58
   6  -6   0    5.22    1.69
   6  -6   0    1.91    1.40
   6   6   1    4.43    1.72
   6  -6   1    3.48    1.72
   6  -6   1    1.70    1.54
   6   6   2   21.40    2.37
   6  -6   2   19.20    2.45
   6  -6   2   18.00    2.05
   6   6   3   -0.57    1.99
   6  -6   3    1.23    1.58
   6   6   4    6.42    2.43
   6  -6   4    1.54    2.30
   6   7  -8    5.54    2.29
   6  -7  -8    3.47    2.17
   6  -7  -7    7.17    2.11
   6   7  -7   13.91    2.14
   6  -7  -7   12.11    2.10
   6  -7  -6    2.90    1.82
   6   7  -6    4.12    1.80
   6  -7  -6    4.26    1.78
   6   7  -5    3.25    1.62
   6  -7  -5    3.66    1.60
   6  -7  -5    6.48    1.75
   6   7  -4   11.09    1.60
   6  -7  -4   10.60    1.64
   6  -7  -4   11.32    1.71
   6  -7  -3    6.47    1.52
   6   7  -3    5.81    1.46
   6  -7  -3    5.08    1.42
   6  -7  -2    1.92    1.45
   6   7  -2    2.22    1.43
   6  -7  -2   -0.07    1.41
   6  -7  -1    9.87    1.71
   6   7  -1    9.53    1.75
   6  -7  -1    7.72    1.75
   6   7   0   15.12    1.94
   6  -7   0   10.01    1.88
   6  -7   0   14.84    1.89
   6   7   1   24.86    2.30
   6  -7   1   25.41    2.43
   6  -7   1   25.46    2.28
   6   7   2    6.53    1.95
   6  -7   2    5.29    1.98
   6  -7   2    4.88    1.85
   6   7   3   19.95    2.50
   6  -7   3   16.31    2.52
   6   7   4   13.81    2.57
   6  -7   4   12.70    2.65
   6   8  -8    6.64    2.22
   6  -8  -8    8.32    2.24
   6   8  -7    9.62    2.16
   6  -8  -7    6.49    2.03
   6   8  -6   28.35    2.40
   6  -8  -6   26.28    2.31
   6   8  -5    8.32    1.79
   6  -8  -5    7.04    1.70
   6  -8  -5    8.32    1.89
   6  -8  -4   35.05    2.49
   6   8  -4   35.94    2.43
   6  -8  -4   33.88    2.38
   6  -8  -3   13.87    1.90
   6   8  -3   16.75    1.72
   6  -8  -3   14.81    1.67
   6  -8  -2    9.60    1.73
   6   8  -2    5.18    1.51
   6  -8  -2    7.32    1.53
   6  -8  -1    3.76    1.69
   6   8  -1    2.81    1.59
   6  -8  -1    1.58    1.51
   6   8   0    4.78    1.72
   6  -8   0    4.51    1.80
   6  -8   0    3.31    1.74
   6   8   1    2.83    1.68
   6  -8   1    3.55    1.77
   6  -8   1   -1.22    1.69
   6   8   2    3.75    1.86
   6  -8   2    6.22    2.02
   6   8   3   12.58    2.24
   6  -8   3   10.60    2.38
   6   9  -7   12.83    2.31
   6  -9  -7   13.30    2.31
   6   9  -6    6.61    2.02
   6  -9  -6    2.91    1.90
   6   9  -5    1.77    1.74
   6  -9  -5    1.73    1.67
   6   9  -4   31.85    2.32
   6  -9  -4   29.41    2.30
   6  -9  -4   29.90    2.45
   6   9  -3   49.57    2.57
   6  -9  -3   47.62    2.53
   6  -9  -2   20.14    2.16
   6   9  -2   20.96    1.92
   6  -9  -2   19.15    1.87
   6  -9  -1   10.59    1.90
   6   9  -1   11.57    1.78
   6  -9  -1   11.79    1.80
   6  -9   0   -1.22    1.71
   6   9   0   -1.50    1.73
   6  -9   0   -1.19    1.75
   6  -9   1   32.78    2.61
   6   9   1   35.93    2.55
   6   9   2    5.13    1.85
   6  -9   2    5.01    1.99
   6   9   3    2.18    1.92
   7   0  -8   -0.70    2.14
   7   0  -7    5.86    2.03
   7   0  -6    3.56    1.68
   7   0  -5  105.73    4.36
   7   0  -4    0.35    1.33
   7   0  -3    2.42    1.23
   7   0  -2   -0.10    1.16
   7   0  -1   24.07    1.77
   7   0   0    0.17    1.20
   7   0   1    8.42    1.54
   7   0   2    1.50    1.55
   7   0   3    0.80    1.48
   7  -1  -9    6.16    2.64
   7  -1  -8   -0.31    2.16
   7   1  -7   -0.17    1.87
   7  -1  -7   -2.00    1.88
   7  -1  -7    1.17    1.86
   7  -1  -6    1.46    1.61
   7   1  -6    3.23    1.70
   7  -1  -5    4.37    1.56
   7   1  -5    7.08    1.56
   7   1  -5    8.27    1.69
   7  -1  -5   10.02    1.77
   7  -1  -4   34.40    2.23
   7   1  -4   37.04    2.42
   7  -1  -4   37.26    2.45
   7  -1  -3   18.17    1.71
   7   1  -3   16.24    1.59
   7   1  -3   16.89    2.01
   7  -1  -3   20.91    2.06
   7  -1  -2   19.83    1.72
   7   1  -2   18.66    1.55
   7   1  -2   18.57    2.20
   7  -1  -2   17.67    2.21
   7  -1  -1    5.49    1.36
   7   1  -1    7.12    1.28
   7   1  -1    3.75    1.84
   7  -1  -1    4.85    1.90
   7   1   0    5.19    1.31
   7   1   0    8.62    2.04
   7  -1   0    5.68    1.93
   7  -1   0    3.81    1.36
   7  -1   1    2.71    1.91
   7  -1   1    2.88    1.43
   7  -1   2    0.80    1.57
   7  -1   3    1.69    1.46
   7  -1   4    5.39    1.66
   7  -2  -9   -0.48    2.53
   7  -2  -8    5.67    2.39
   7   2  -7    5.93    2.06
   7  -2  -7    4.19    2.03
   7  -2  -7    4.21    1.98
   7   2  -6    1.30    1.85
   7  -2  -6    3.34    1.89
   7  -2  -6    6.74    1.81
   7   2  -5   90.36    3.95
   7  -2  -5   90.85    3.95
   7  -2  -4    1.31    1.46
   7   2  -4    0.16    1.49
   7  -2  -4    1.28    1.45
   7  -2  -3    1.27    1.31
   7   2  -3    3.13    1.64
   7  -2  -3    2.12    1.58
   7  -2  -2    2.29    1.29
   7   2  -2   -0.46    1.72
   7  -2  -2   -1.29    1.70
   7  -2  -1   19.17    1.76
   7   2  -1   14.68    2.18
   7  -2  -1   17.61    2.27
   7   2   0    2.30    1.79
   7  -2   0    1.15    1.81
   7  -2   0    0.58    1.34
   7   2   1    1.58    1.93
   7  -2   1    2.26    1.94
   7  -2   1   -1.23    1.49
   7  -2   2    8.56    1.81
   7  -2   3    6.23    1.70
   7  -3  -8   28.43    3.08
   7   3  -7    2.42    2.01
   7  -3  -7    0.59    1.98
   7  -3  -7    2.61    1.90
   7   3  -6    0.57    1.88
   7  -3  -6    3.08    1.83
   7  -3  -6    4.37    1.78
   7   3  -5    1.51    1.58
   7  -3  -5    3.74    1.72
   7  -3  -5    1.49    1.66
   7   3  -4   59.38    3.06
   7  -3  -4   63.70    3.16
   7  -3  -3   12.32    1.67
   7   3  -3   10.44    1.81
   7  -3  -3   10.57    1.83
   7  -3  -2    2.07    1.40
   7   3  -2   -0.55    1.71
   7  -3  -2   -2.57    1.85
   7  -3  -1   12.41    1.64
   7   3  -1    9.42    2.06
   7  -3  -1   10.57    2.13
   7   3   0    5.41    1.93
   7  -3   0    2.84    1.89
   7  -3   0    1.58    1.46
   7   3   1    1.92    1.96
   7  -3   1    0.23    1.93
   7  -3   1   -0.73    1.51
   7  -3   2   17.05    2.10
   7  -3   3   14.82    1.98
   7  -4  -7   17.36    2.40
   7   4  -6    2.83    1.95
   7  -4  -6    2.35    1.93
   7  -4  -6    2.54    1.79
   7   4  -5    2.32    1.71
   7  -4  -5    1.60    1.86
   7  -4  -5    4.62    1.71
   7  -4  -4    1.93    1.51
   7   4  -4    3.49    1.64
   7  -4  -4    0.72    1.52
   7  -4  -3    3.28    1.45
   7   4  -3    2.74    1.68
   7  -4  -3    1.74    1.59
   7  -4  -2   15.52    1.81
   7   4  -2   14.28    2.06
   7  -4  -2   17.65    2.16
   7   4  -1   34.22    2.76
   7  -4  -1   37.37    2.33
   7   4   0    7.69    1.96
   7  -4   0    2.83    1.89
   7  -4   0    1.90    1.50
   7   4   1    3.89    2.00
   7  -4   1    5.69    2.09
   7  -4   1   -0.08    1.61
   7  -4   2   14.55    2.19
   7  -5  -7    1.49    2.08
   7   5  -6    0.16    1.93
   7  -5  -6    2.71    1.91
   7  -5  -6    1.68    1.92
   7   5  -5    2.23    1.89
   7  -5  -5    3.19    1.88
   7  -5  -4   45.51    2.83
   7   5  -4   52.40    2.89
   7  -5  -4   47.67    2.85
   7  -5  -3    1.31    1.55
   7   5  -3   -0.98    1.57
   7  -5  -3    0.33    1.61
   7  -5  -2    7.38    1.70
   7   5  -2    5.69    1.82
   7  -5  -2   10.56    2.02
   7  -5  -1    3.75    1.57
   7   5  -1    1.05    1.87
   7  -5  -1    1.16    1.92
   7   5   0    1.64    1.94
   7  -5   0   -0.93    1.94
   7  -5   0    2.40    1.60
   7   5   1    4.81    2.07
   7  -5   1    3.65    2.07
   7  -5   1    2.01    1.67
   7   6  -6    2.07    1.99
   7  -6  -6    0.08    1.88
   7   6  -5   10.42    2.08
   7  -6  -5    7.04    2.02
   7  -6  -5   12.42    2.10
   7   6  -4   21.15    2.08
   7  -6  -4   23.25    2.16
   7  -6  -3   16.34    2.07
   7   6  -3   20.36    2.10
   7  -6  -2    8.92    1.77
   7   6  -2    6.04    1.86
   7  -6  -1   20.86    2.16
   7   6  -1   20.17    2.37
   7  -6  -1   20.98    2.41
   7   6   0   10.04    2.24
   7  -6   0    5.83    2.15
   7   7  -5   -0.16    1.92
   7  -7  -5   -2.72    2.00
   7   7  -4    8.69    1.80
   7  -7  -4   10.70    1.91
   7  -7  -3    9.38    1.90
   7   7  -3   15.39    1.95
   7  -7  -3   11.96    1.93
   7  -7  -2   47.61    2.96
   7   7  -2   48.29    2.99
   7  -7  -2   50.14    3.03
   7   7  -1   -0.64    1.95
   7  -7  -1   -0.74    1.98
   7   7   0    5.50    2.10
   7  -7   0    2.61    2.10
   7   8  -5   -1.47    1.94
   7  -8  -5   -1.51    1.95
   7   8  -4   11.68    2.10
   7  -8  -4    6.79    1.99
   7   8  -3    3.63    1.73
   7  -8  -3    2.14    1.69
   7   8  -2    3.96    1.80
   7  -8  -2    7.31    1.89
   7   8  -1    2.99    1.93
   7  -8  -1    6.50    1.99
   7   8   0    7.12    2.12
   7  -8   0    5.15    2.15
   8  -2  -3    1.24    1.65
   8  -3  -6    2.34    2.07
   8  -3  -5    1.82    1.88
   8  -3  -4    3.50    1.86
   8  -3  -3    2.19    1.65
   8  -3  -2    7.28    1.77
   8  -3  -1    5.24    1.76
   8  -3   0    1.60    1.72
   8  -4  -3    1.78    1.76
   0   0   0    0.00    0.00



TITL UMEX406_2 in P2(1)/n
REM P2(1)/n (#14 in standard setting)
CELL 0.71073   6.128602  12.466699   9.527078  90.0000 104.0440  90.0000
ZERR    2.00   0.000416   0.000800   0.000813   0.0000   0.0078   0.0000
LATT  1
SYMM -x+1/2, y+1/2,-z+1/2
SFAC C H N
UNIT 28.00 40.00 8.00
TREF
HKLF 4
END
_computing_structure_solution     'SHELXT 2014/5 (Sheldrick, 2014)'
_computing_structure_solution     'SHELXT 2018/2 (Sheldrick, 2018)'
;
_shelx_hkl_checksum              30770
loop_
_space_group_symop_operation_xyz
'x, y, z'
'-x+1/2, y+1/2, -z+1/2'
'-x, -y, -z'
'x-1/2, -y-1/2, z-1/2'
loop_
_atom_site_label
_atom_site_type_symbol
_atom_site_fract_x
_atom_site_fract_y
_atom_site_fract_z
_atom_site_U_iso_or_equiv
_atom_site_adp_type
_atom_site_occupancy
_atom_site_site_symmetry_order
_atom_site_calc_flag
_atom_site_refinement_flags_posn
_atom_site_refinement_flags_adp
N2 N 0.6525(2) 0.58927(9) 0.74986(13) 0.0314(3) Uani 1 1 d . .
N1 N 0.7409(2) 0.54555(10) 0.63483(14) 0.0333(3) Uani 1 1 d . .
C3 C 0.6729(2) 0.40384(11) 0.77782(15) 0.0237(3) Uani 1 1 d . .
C4 C 0.6117(2) 0.51127(10) 0.82906(15) 0.0243(3) Uani 1 1 d . .
C2 C 0.7494(2) 0.44280(11) 0.64864(15) 0.0267(3) Uani 1 1 d . .
C5 C 0.5217(2) 0.53566(11) 0.95262(15) 0.0262(3) Uani 1 1 d . .
H10 H 0.490547 0.608824 0.967774 0.031 Uiso 1 1 calc R U
C6 C 0.4741(2) 0.32596(12) 0.73262(16) 0.0309(4) Uani 1 1 d . .
H1 H 0.411956 0.310712 0.816074 0.046 Uiso 1 1 calc R U
H2 H 0.525957 0.259025 0.697559 0.046 Uiso 1 1 calc R U
H3 H 0.357590 0.358442 0.655389 0.046 Uiso 1 1 calc R U
C7 C 0.8702(2) 0.35224(12) 0.88773(16) 0.0337(4) Uani 1 1 d . .
H4 H 0.995730 0.403074 0.912028 0.051 Uiso 1 1 calc R U
H5 H 0.918471 0.287302 0.845735 0.051 Uiso 1 1 calc R U
H6 H 0.822405 0.333425 0.975582 0.051 Uiso 1 1 calc R U
C1 C 0.8239(3) 0.37064(13) 0.54490(17) 0.0352(4) Uani 1 1 d . .
H7 H 0.691900 0.339130 0.478486 0.053 Uiso 1 1 calc R U
H8 H 0.918186 0.313349 0.598289 0.053 Uiso 1 1 calc R U
H9 H 0.910523 0.411920 0.489594 0.053 Uiso 1 1 calc R U
loop_
_atom_site_aniso_label
_atom_site_aniso_U_11
_atom_site_aniso_U_22
_atom_site_aniso_U_33
_atom_site_aniso_U_23
_atom_site_aniso_U_13
_atom_site_aniso_U_12
N2 0.0416(7) 0.0260(7) 0.0291(7) 0.0005(5) 0.0135(6) -0.0015(5)
N1 0.0412(7) 0.0325(7) 0.0296(7) -0.0011(5) 0.0154(6) -0.0053(6)
C3 0.0261(7) 0.0217(7) 0.0224(7) -0.0017(5) 0.0041(6) -0.0006(5)
C4 0.0249(6) 0.0231(7) 0.0235(7) 0.0002(6) 0.0033(6) -0.0017(5)
C2 0.0239(7) 0.0301(8) 0.0255(8) -0.0028(6) 0.0049(6) -0.0035(6)
C5 0.0303(7) 0.0210(7) 0.0266(8) -0.0024(5) 0.0055(6) -0.0006(6)
C6 0.0341(8) 0.0293(8) 0.0299(8) -0.0045(6) 0.0086(6) -0.0079(6)
C7 0.0360(8) 0.0326(8) 0.0292(8) -0.0015(6) 0.0011(7) 0.0084(6)
C1 0.0337(8) 0.0410(9) 0.0330(9) -0.0080(7) 0.0121(7) -0.0029(7)
loop_
_atom_type_symbol
_atom_type_description
_atom_type_scat_dispersion_real
_atom_type_scat_dispersion_imag
_atom_type_scat_source
C C 0.0033 0.0016 'International Tables Vol C Tables 4.2.6.8 and 6.1.1.4'
H H 0.0000 0.0000 'International Tables Vol C Tables 4.2.6.8 and 6.1.1.4'
N N 0.0061 0.0033 'International Tables Vol C Tables 4.2.6.8 and 6.1.1.4'
loop_
_geom_angle_atom_site_label_1
_geom_angle_atom_site_label_2
_geom_angle_atom_site_label_3
_geom_angle
_geom_angle_site_symmetry_1
C4 N2 N1 108.73(11) .
C2 N1 N2 108.16(11) .
C2 C3 C4 97.47(11) .
C2 C3 C6 111.06(11) .
C4 C3 C6 114.27(11) .
C2 C3 C7 110.10(11) .
C4 C3 C7 111.64(12) .
C6 C3 C7 111.49(12) .
N2 C4 C5 118.85(13) .
N2 C4 C3 112.46(13) .
C5 C4 C3 128.67(12) .
N1 C2 C1 123.03(13) .
N1 C2 C3 113.15(12) .
C1 C2 C3 123.82(13) .
C5 C5 C4 125.85(17) 3_667
loop_
_geom_bond_atom_site_label_1
_geom_bond_atom_site_label_2
_geom_bond_distance
_geom_bond_site_symmetry_2
N2 C4 1.2919(18) .
N2 N1 1.4421(17) .
N1 C2 1.2875(19) .
C3 C2 1.5003(19) .
C3 C4 1.5038(19) .
C3 C6 1.5352(19) .
C3 C7 1.5358(19) .
C4 C5 1.449(2) .
C2 C1 1.488(2) .
C5 C5 1.339(3) 3_667
loop_
_geom_torsion_atom_site_label_1
_geom_torsion_atom_site_label_2
_geom_torsion_atom_site_label_3
_geom_torsion_atom_site_label_4
_geom_torsion
_geom_torsion_site_symmetry_4
C4 N2 N1 C2 0.22(16) .
N1 N2 C4 C5 179.85(12) .
N1 N2 C4 C3 1.12(16) .
C2 C3 C4 N2 -1.78(14) .
C6 C3 C4 N2 -118.96(14) .
C7 C3 C4 N2 113.36(14) .
C2 C3 C4 C5 179.64(13) .
C6 C3 C4 C5 62.46(19) .
C7 C3 C4 C5 -65.22(18) .
N2 N1 C2 C1 177.47(12) .
N2 N1 C2 C3 -1.47(16) .
C4 C3 C2 N1 1.94(15) .
C6 C3 C2 N1 121.60(13) .
C7 C3 C2 N1 -114.42(14) .
C4 C3 C2 C1 -176.99(13) .
C6 C3 C2 C1 -57.34(17) .
C7 C3 C2 C1 66.65(17) .
N2 C4 C5 C5 -177.51(17) 3_667
C3 C4 C5 C5 1.0(3) 3_667
