#------------------------------------------------------------------------------
#$Date: 2019-11-04 15:15:46 +0200 (Mon, 04 Nov 2019) $
#$Revision: 223120 $
#$URL: file:///home/coder/svn-repositories/cod/cif/4/03/46/4034643.cif $
#------------------------------------------------------------------------------
#
# This file is available in the Crystallography Open Database (COD),
# http://www.crystallography.net/
#
# All data on this site have been placed in the public domain by the
# contributors.
#
data_4034643
loop_
_publ_author_name
'Wang, Xiaoping'
'Huang, Danfeng'
'Wang, Ke-Hu'
'Su, Yingpeng'
'Hu, Yulai'
_publ_section_title
;
 Tin Powder-Promoted Cascade Condensation/Allylation/Lactamization:
 Synthesis of Isoindolinones and Pyrazoloisoindol-8-ones.
;
_journal_issue                   11
_journal_name_full               'The Journal of organic chemistry'
_journal_page_first              6946
_journal_page_last               6961
_journal_paper_doi               10.1021/acs.joc.9b00733
_journal_volume                  84
_journal_year                    2019
_chemical_formula_moiety         'C18 H15 I N2 O2'
_chemical_formula_sum            'C18 H15 I N2 O2'
_chemical_formula_weight         418.22
_space_group_crystal_system      triclinic
_space_group_IT_number           2
_space_group_name_Hall           '-P 1'
_space_group_name_H-M_alt        'P -1'
_atom_sites_solution_hydrogens   geom
_atom_sites_solution_primary     direct
_audit_creation_date             2018-12-14
_audit_creation_method
;
Olex2 1.2
(compiled 2018.05.29 svn.r3508 for OlexSys, GUI svn.r5506)
;
_cell_angle_alpha                64.977(13)
_cell_angle_beta                 78.727(12)
_cell_angle_gamma                84.893(11)
_cell_formula_units_Z            2
_cell_length_a                   6.5779(9)
_cell_length_b                   11.3665(14)
_cell_length_c                   12.6177(18)
_cell_measurement_reflns_used    1380
_cell_measurement_temperature    292.87(10)
_cell_measurement_theta_max      24.4890
_cell_measurement_theta_min      3.5950
_cell_volume                     838.3(2)
_computing_cell_refinement
;
CrysAlisPro, Agilent Technologies,
Version 1.171.36.28 (release 01-02-2013 CrysAlis171 .NET)
(compiled Feb  1 2013,16:14:44)
;
_computing_data_collection
;
CrysAlisPro, Agilent Technologies,
Version 1.171.36.28 (release 01-02-2013 CrysAlis171 .NET)
(compiled Feb  1 2013,16:14:44)
;
_computing_data_reduction
;
CrysAlisPro, Agilent Technologies,
Version 1.171.36.28 (release 01-02-2013 CrysAlis171 .NET)
(compiled Feb  1 2013,16:14:44)
;
_computing_molecular_graphics    'Olex2 (Dolomanov et al., 2009)'
_computing_publication_material  'Olex2 (Dolomanov et al., 2009)'
_computing_structure_refinement  'ShelXL (Sheldrick, 2015)'
_computing_structure_solution    'ShelXS (Sheldrick, 2008)'
_diffrn_ambient_temperature      292.87(10)
_diffrn_detector_area_resol_mean 16.0733
_diffrn_measured_fraction_theta_full 0.997
_diffrn_measured_fraction_theta_max 0.998
_diffrn_measurement_details
;
#__ type_ start__ end____ width___ exp.time_
  1 omega  -11.00   17.50   1.5000    2.0000
omega____ theta____ kappa____ phi______ frames
    -      -19.4273  -99.0000  -60.0000 19

#__ type_ start__ end____ width___ exp.time_
  2 omega  -20.00   13.00   1.5000    2.0000
omega____ theta____ kappa____ phi______ frames
    -      -19.4273  -99.0000   90.0000 22

#__ type_ start__ end____ width___ exp.time_
  3 omega   74.00  101.00   1.5000    2.0000
omega____ theta____ kappa____ phi______ frames
    -       22.7867  178.0000  150.0000 18

#__ type_ start__ end____ width___ exp.time_
  4 omega   -1.00   92.00   1.5000    2.0000
omega____ theta____ kappa____ phi______ frames
    -       22.7867   57.0000  -60.0000 62

#__ type_ start__ end____ width___ exp.time_
  5 omega  -34.00   86.00   1.5000    2.0000
omega____ theta____ kappa____ phi______ frames
    -       22.7867  -19.0000  -30.0000 80

#__ type_ start__ end____ width___ exp.time_
  6 omega  -47.00   46.00   1.5000    2.0000
omega____ theta____ kappa____ phi______ frames
    -       22.7867  -57.0000  150.0000 62
;
_diffrn_measurement_device_type  'SuperNova, Dual, Cu at zero, Eos'
_diffrn_measurement_method       '\w scans'
_diffrn_orient_matrix_UB_11      0.0860841000
_diffrn_orient_matrix_UB_12      -0.0421597000
_diffrn_orient_matrix_UB_13      0.0150574000
_diffrn_orient_matrix_UB_21      0.0232129000
_diffrn_orient_matrix_UB_22      0.0033505000
_diffrn_orient_matrix_UB_23      -0.0585177000
_diffrn_orient_matrix_UB_31      0.0643492000
_diffrn_orient_matrix_UB_32      0.0543527000
_diffrn_orient_matrix_UB_33      -0.0178618000
_diffrn_radiation_monochromator  mirror
_diffrn_radiation_type           MoK\a
_diffrn_radiation_wavelength     0.71073
_diffrn_reflns_av_R_equivalents  0.0334
_diffrn_reflns_av_unetI/netI     0.0592
_diffrn_reflns_Laue_measured_fraction_full 0.997
_diffrn_reflns_Laue_measured_fraction_max 0.998
_diffrn_reflns_limit_h_max       8
_diffrn_reflns_limit_h_min       -8
_diffrn_reflns_limit_k_max       14
_diffrn_reflns_limit_k_min       -14
_diffrn_reflns_limit_l_max       10
_diffrn_reflns_limit_l_min       -15
_diffrn_reflns_number            5524
_diffrn_reflns_point_group_measured_fraction_full 0.997
_diffrn_reflns_point_group_measured_fraction_max 0.998
_diffrn_reflns_theta_full        25.242
_diffrn_reflns_theta_max         26.022
_diffrn_reflns_theta_min         3.479
_diffrn_source                   'SuperNova (Mo) X-ray Source'
_exptl_absorpt_coefficient_mu    1.921
_exptl_absorpt_correction_T_max  1.00000
_exptl_absorpt_correction_T_min  0.74628
_exptl_absorpt_correction_type   multi-scan
_exptl_absorpt_process_details
;
CrysAlisPro, Agilent Technologies,
Version 1.171.36.28 (release 01-02-2013 CrysAlis171 .NET)
(compiled Feb  1 2013,16:14:44)
Empirical absorption correction using spherical harmonics,
 implemented in SCALE3 ABSPACK scaling algorithm.
;
_exptl_crystal_colour            'clear light colourless'
_exptl_crystal_colour_lustre     clear
_exptl_crystal_colour_modifier   light
_exptl_crystal_colour_primary    colourless
_exptl_crystal_density_diffrn    1.657
_exptl_crystal_description       block
_exptl_crystal_F_000             412
_exptl_crystal_size_max          0.21
_exptl_crystal_size_mid          0.15
_exptl_crystal_size_min          0.14
_refine_diff_density_max         1.125
_refine_diff_density_min         -1.276
_refine_diff_density_rms         0.125
_refine_ls_extinction_method     none
_refine_ls_goodness_of_fit_ref   1.084
_refine_ls_hydrogen_treatment    constr
_refine_ls_matrix_type           full
_refine_ls_number_parameters     208
_refine_ls_number_reflns         3285
_refine_ls_number_restraints     0
_refine_ls_restrained_S_all      1.084
_refine_ls_R_factor_all          0.0924
_refine_ls_R_factor_gt           0.0593
_refine_ls_shift/su_max          0.000
_refine_ls_shift/su_mean         0.000
_refine_ls_structure_factor_coef Fsqd
_refine_ls_weighting_details
'w=1/[\s^2^(Fo^2^)+(0.0577P)^2^+1.4305P] where P=(Fo^2^+2Fc^2^)/3'
_refine_ls_weighting_scheme      calc
_refine_ls_wR_factor_gt          0.1363
_refine_ls_wR_factor_ref         0.1671
_reflns_Friedel_coverage         0.000
_reflns_number_gt                2095
_reflns_number_total             3285
_reflns_threshold_expression     'I > 2\s(I)'
_cod_data_source_file            jo9b00733_si_002.cif
_cod_data_source_block           wangxp_1212
_cod_database_code               4034643
_shelx_shelxl_version_number     2018/3
_shelx_space_group_comment
;
The symmetry employed for this shelxl refinement is uniquely defined
by the following loop, which should always be used as a source of
symmetry information in preference to the above space-group names.
They are only intended as comments.
;
_reflns_odcompleteness_completeness 99.77
_reflns_odcompleteness_iscentric 1
_reflns_odcompleteness_theta     26.32
_olex2_refinement_description
;
1. Fixed Uiso
 At 1.2 times of:
  All C(H) groups, All C(H,H) groups
2.a Ternary CH refined with riding coordinates:
 C8(H8), C10(H10)
2.b Secondary CH2 refined with riding coordinates:
 C9(H9A,H9B), C18(H18A,H18B)
2.c Aromatic/amide H refined with riding coordinates:
 C1(H1), C2(H2), C3(H3), C4(H4), C5(H5), C14(H14), C15(H15), C16(H16), C17(H17)
;
_shelx_res_file
;
TITL wangxp_1212 in P-1 #2
    wangxp_1212.res
    created by SHELXL-2018/3 at 18:23:01 on 14-Dec-2018
REM reset to P-1 #2
CELL 0.71073 6.577886 11.366461 12.617683 64.977 78.7269 84.8929
ZERR 2 0.000932 0.001374 0.001792 0.0128 0.012 0.0108
LATT 1
SFAC C H I N O
UNIT 36 30 2 4 4

L.S. 8
PLAN  20
BOND $H
HTAB
CONF
fmap 2
acta
SHEL 999 0.81
REM <olex2.extras>
REM <HklSrc "%.\\wangxp_1212.hkl">
REM </olex2.extras>

WGHT    0.057700    1.430500
FVAR       8.20847
I1    3    0.351392    0.151599    0.344099    11.00000    0.17319    0.07382 =
         0.07020   -0.04569   -0.01198   -0.00914
O1    5    0.245007    0.515612    0.497854    11.00000    0.07420    0.05142 =
         0.04302   -0.00173   -0.00818   -0.00633
O2    5    0.532246    0.138448    0.786612    11.00000    0.04156    0.05658 =
         0.07240   -0.01595   -0.02114   -0.00295
N1    4    0.276764    0.302611    0.616395    11.00000    0.04642    0.04481 =
         0.02641   -0.00906   -0.00665   -0.00345
N2    4    0.211371    0.207565    0.732109    11.00000    0.03475    0.03808 =
         0.03227   -0.00956   -0.00935   -0.00325
C1    1    0.101523    0.537006    0.729590    11.00000    0.07343    0.06891 =
         0.06658   -0.03014   -0.01622    0.02487
AFIX  43
H1    2   -0.012444    0.558530    0.691249    11.00000   -1.20000
AFIX   0
C2    1    0.109651    0.578047    0.816550    11.00000    0.11622    0.08572 =
         0.08417   -0.05240   -0.00775    0.03818
AFIX  43
H2    2   -0.000443    0.625346    0.838114    11.00000   -1.20000
AFIX   0
C3    1    0.277501    0.550036    0.871373    11.00000    0.11278    0.06077 =
         0.07618   -0.03948   -0.01884    0.00516
AFIX  43
H3    2    0.283345    0.579830    0.928931    11.00000   -1.20000
AFIX   0
C4    1    0.438692    0.477607    0.841672    11.00000    0.07490    0.06990 =
         0.07874   -0.04210   -0.02568    0.00265
AFIX  43
H4    2    0.553309    0.458274    0.879344    11.00000   -1.20000
AFIX   0
C5    1    0.430515    0.433401    0.755677    11.00000    0.05101    0.04900 =
         0.06198   -0.02775   -0.01071   -0.00074
AFIX  43
H5    2    0.538590    0.383332    0.736514    11.00000   -1.20000
AFIX   0
C6    1    0.262029    0.463737    0.698609    11.00000    0.04758    0.03554 =
         0.04194   -0.01046   -0.00130   -0.00632
C7    1    0.257261    0.432258    0.596302    11.00000    0.03778    0.04431 =
         0.04009   -0.01056   -0.00404   -0.00525
C8    1    0.219578    0.259647    0.530556    11.00000    0.06844    0.04691 =
         0.03305   -0.01305   -0.01601   -0.00252
AFIX  13
H8    2    0.153522    0.331457    0.471401    11.00000   -1.20000
AFIX   0
C9    1    0.062537    0.149734    0.605393    11.00000    0.08314    0.11754 =
         0.05355   -0.02898   -0.01117   -0.05400
AFIX  23
H9A   2   -0.066437    0.168910    0.574740    11.00000   -1.20000
H9B   2    0.117483    0.067990    0.604577    11.00000   -1.20000
AFIX   0
C10   1    0.027746    0.142996    0.731265    11.00000    0.04120    0.05686 =
         0.04089   -0.01569   -0.01006   -0.00994
AFIX  13
H10   2   -0.100175    0.188334    0.747518    11.00000   -1.20000
AFIX   0
C11   1    0.041245    0.012279    0.829780    11.00000    0.04610    0.04304 =
         0.04248   -0.02304    0.00038   -0.00350
C12   1    0.228768   -0.001300    0.868343    11.00000    0.04355    0.03948 =
         0.03607   -0.01917   -0.00412    0.00334
C13   1    0.351996    0.117798    0.793918    11.00000    0.03970    0.04207 =
         0.03567   -0.01804   -0.01027    0.00073
C14   1    0.281493   -0.112674    0.961415    11.00000    0.06101    0.04134 =
         0.04854   -0.01610   -0.00630    0.01092
AFIX  43
H14   2    0.407509   -0.120326    0.986821    11.00000   -1.20000
AFIX   0
C15   1    0.138053   -0.211709    1.014613    11.00000    0.08978    0.03843 =
         0.05674   -0.01642    0.00732    0.00367
AFIX  43
H15   2    0.167316   -0.287517    1.077835    11.00000   -1.20000
AFIX   0
C16   1   -0.047037   -0.200273    0.975841    11.00000    0.07754    0.04227 =
         0.06882   -0.03166    0.02278   -0.01744
AFIX  43
H16   2   -0.138920   -0.269435    1.012403    11.00000   -1.20000
AFIX   0
C17   1   -0.099895   -0.089378    0.884508    11.00000    0.05095    0.06068 =
         0.06034   -0.03658    0.00786   -0.01456
AFIX  43
H17   2   -0.226513   -0.082390    0.859897    11.00000   -1.20000
AFIX   0
C18   1    0.416336    0.217955    0.469825    11.00000    0.07673    0.05723 =
         0.07733   -0.03916   -0.01119   -0.00793
AFIX  23
H18A  2    0.483226    0.148772    0.529103    11.00000   -1.20000
H18B  2    0.511012    0.290592    0.429252    11.00000   -1.20000
AFIX   0
HKLF 4




REM  wangxp_1212 in P-1 #2
REM wR2 = 0.1671, GooF = S = 1.084, Restrained GooF = 1.084 for all data
REM R1 = 0.0593 for 2095 Fo > 4sig(Fo) and 0.0924 for all 3285 data
REM 208 parameters refined using 0 restraints

END

WGHT      0.0577      1.4312

REM Instructions for potential hydrogen bonds
EQIV $1 x-1, y, z
HTAB C10 O2_$1
EQIV $2 -x+1, -y, -z+1
HTAB C18 I1_$2

REM Highest difference peak  1.125,  deepest hole -1.276,  1-sigma level  0.125
Q1    1   0.5114  0.1624  0.3453  11.00000  0.05    1.13
Q2    1   0.1949  0.8239  0.7242  11.00000  0.05    0.41
Q3    1   0.6542  0.2801  0.4653  11.00000  0.05    0.36
Q4    1   0.3021 -0.0053  0.6634  11.00000  0.05    0.35
Q5    1   0.1817 -0.0777  0.6974  11.00000  0.05    0.35
Q6    1   0.7102  0.1556  0.2459  11.00000  0.05    0.33
Q7    1   0.4472  0.5584  0.5541  11.00000  0.05    0.33
Q8    1   0.0571 -0.1358  0.7070  11.00000  0.05    0.32
Q9    1   0.0362  0.8239  0.7646  11.00000  0.05    0.32
Q10   1   0.6022  0.1657  0.5237  11.00000  0.05    0.32
Q11   1   0.0815  0.8190  0.7748  11.00000  0.05    0.31
Q12   1  -0.0545  0.5070  0.6864  11.00000  0.05    0.31
Q13   1   0.6625  0.1952  0.3247  11.00000  0.05    0.30
Q14   1  -0.0172  0.0826  0.5831  11.00000  0.05    0.30
Q15   1  -0.1485 -0.2522  1.1378  11.00000  0.05    0.29
Q16   1  -0.2018  0.2397  0.7586  11.00000  0.05    0.29
Q17   1   0.1171  0.7667  0.7942  11.00000  0.05    0.28
Q18   1   0.4640  0.4257  1.0250  11.00000  0.05    0.28
Q19   1   0.0447 -0.0170  1.0010  11.00000  0.05    0.28
Q20   1   0.7492  0.4353  0.7192  11.00000  0.05    0.28
;
_shelx_res_checksum              26668
_shelx_hkl_file
;
   0   0  -2 161059. 4466.30   5
   0   0  -2 162585. 4262.95   2
   0   0  -2 164577. 4274.14   4
   0   0  -3 148931. 4454.04   4
   0   0  -3 147955. 4710.76   5
   0   0  -3 156166. 4452.00   2
   0   0  -4 44971.0 2457.60   5
   0   0  -4 42434.8 2187.53   4
   0   0  -5 506.493 312.290   5
   0   0  -5 447.207 192.321   4
   0   0  -6 189310. 6588.91   4
   0   0  -6 191622. 7023.06   5
   0   0  -7 41112.5 3123.61   5
   0   0  -7 44173.6 2969.67   4
   0   0  -8 23813.4 2297.53   4
   0   0  -8 24036.6 2475.44   5
   0   0  -9 4502.15 1039.55   4
   0   0  -9 4769.22 1124.15   5
   0   0 -10 10617.9 1879.81   5
   0   0 -10 9829.93 1643.80   4
   0   0 -11 334.983 426.367   5
   0   0 -11-3.25532 178.667   4
   0   0 -12 1349.09 673.469   4
   0   0 -12 4016.46 1262.12   5
   0   0 -13 4413.50 1465.27   5
   0   0 -13 5622.64 1484.95   4
   0   0 -14 542.173 587.727   5
   0   1 -14 245.629 548.096   6
   0   1 -13 2068.51 975.441   5
   0   1 -13 1512.15 797.733   6
   0   1 -12 2842.18 1026.34   4
   0   1 -12 2759.78 1053.33   5
   0   1 -11 7095.01 1628.85   5
   0   1 -11 7674.32 1595.73   4
   0   1 -10-68.9093 471.865   5
   0   1 -10-114.265 318.264   4
   0   1  -9 56747.1 4236.75   5
   0   1  -9 55444.5 3939.68   4
   0   1  -8 54145.1 3659.39   4
   0   1  -8 53154.5 3897.46   5
   0   1  -7 9712.17 1406.32   4
   0   1  -7 12606.1 1710.16   5
   0   1  -6 54960.6 3190.32   4
   0   1  -6 56281.8 3450.07   5
   0   1  -5 121603. 4744.90   4
   0   1  -5 121865. 5012.43   5
   0  -1   5 119235. 4565.36   2
   0  -1   4 17412.7 1407.75   2
   0   1  -4 16920.1 1414.15   4
   0   1  -4 20192.7 1647.43   5
   0   1  -3 391086. 9745.00   4
   0  -1   3 404006. 9763.30   2
   0  -1   3 388262. 9667.09   4
   0   1  -2 146949. 4386.48   5
   0   1  -2 152651. 4319.86   4
   0  -1  -3 19202.2 1294.30   5
   0  -1  -3 19568.3 1243.51   4
   0  -1  -4 576898. 13821.3   4
   0  -1  -4 575781. 14084.0   5
   0  -1  -5 409934. 10950.7   4
   0  -1  -5 419565. 11312.4   5
   0  -1  -6 20280.2 1903.97   5
   0  -1  -6 19584.8 1728.10   4
   0  -1  -7 228428. 7903.87   4
   0  -1  -7 254072. 8685.26   5
   0  -1  -8 69292.6 4321.79   5
   0  -1  -8 68310.7 3933.88   4
   0  -1  -9 4803.60 1085.40   4
   0  -1  -9 6166.03 1321.15   5
   0  -1 -10 60394.7 4538.06   5
   0  -1 -10 61956.0 4286.57   4
   0  -1 -11 42422.8 3877.09   5
   0  -1 -11 32866.5 3264.49   4
   0  -1 -12 3522.86 1180.91   5
   0  -1 -12 4143.41 1231.70   4
   0  -1 -13 8019.41 1872.50   5
   0  -1 -13 6852.19 1603.23   4
   0  -1 -14 941.898 600.607   4
   0  -1 -14 2993.65 1210.99   5
   0   2 -13 127.861 258.333   6
   0   2 -12-136.351 291.800   6
   0   2 -12 1358.91 777.099   5
   0   2 -11 17057.2 2561.53   6
   0   2 -11 18503.9 2703.57   5
   0   2 -10 14651.8 2264.44   5
   0   2 -10 12895.9 2109.99   6
   0   2  -9 1943.03 795.699   5
   0   2  -9 939.807 438.711   6
   0   2  -8 28095.7 2780.82   6
   0  -2   8 32038.1 2609.90   2
   0   2  -8 29752.4 2920.36   5
   0  -2   7 55490.8 3383.19   2
   0   2  -7 55392.0 3701.84   6
   0   2  -7 53974.3 3731.25   5
   0   2  -6 7560.08 1270.76   5
   0   2  -6 6168.31 1105.57   6
   0  -2   5 230129. 7396.03   2
   0   2  -5 232878. 7756.32   6
   0   2  -5 219676. 7691.89   5
   0   2  -4 153201. 5601.19   5
   0   2  -4 157684. 5632.45   6
   0  -2   4 156766. 5475.06   2
   0  -2   3 9630.10 1029.63   2
   0   2  -3 8276.22 989.046   5
   0   2  -3 8698.09 1014.71   6
   0   2  -2 496371. 12014.3   6
   0   2  -2 499660. 11811.1   5
   0  -2   2 469397. 11834.8   5
   0   2  -2 500184. 11228.8   3
   0   2  -1 299013. 7505.53   6
   0  -2   1 294170. 6955.58   3
   0   2  -1 282935. 6919.35   3
   0   2   0 223.760 107.758   6
   0  -2  -1 3289.76 307.585   5
   0   2   1 2132.64 297.706   1
   0   2   1 2430.97 370.950   6
   0  -2  -2 214875. 5311.15   5
   0   2   2 206325. 5627.34   6
   0  -2  -3 822933. 19280.5   4
   0  -2  -3 901661. 19189.2   5
   0  -2  -4 519113. 12491.2   5
   0  -2  -4 487110. 12387.7   4
   0  -2  -5 185459. 6155.89   4
   0  -2  -5 190634. 6264.44   5
   0  -2  -6 41271.1 2632.22   4
   0  -2  -6 44974.9 2831.41   5
   0  -2  -7 2146.53 618.677   4
   0  -2  -7 2693.90 708.654   5
   0  -2  -8 77752.2 4281.66   4
   0  -2  -8 85304.0 4690.65   5
   0  -2  -9 108484. 5413.07   4
   0  -2  -9 107367. 5779.00   5
   0  -2 -10 646.571 536.413   5
   0  -2 -10 418.640 189.143   4
   0  -2 -11 5443.66 1285.69   4
   0  -2 -11 6245.66 1397.09   5
   0  -2 -12 3237.13 987.520   4
   0  -2 -12 3262.25 1110.80   5
   0  -2 -13 978.830 659.726   4
   0  -2 -13 1854.95 908.800   5
   0  -2 -14 3573.49 1287.99   5
   0  -2 -14 1681.89 828.844   4
   0   3 -13 2930.66 1191.71   6
   0   3 -12 334.964 425.889   6
   0   3 -11 131.789 117.730   6
   0   3 -10 513.659 319.947   5
   0   3 -10 1435.77 633.703   6
   0   3  -9-227.845 314.480   5
   0   3  -9-74.4128 264.830   6
   0  -3   9-243.003 347.743   2
   0  -3   8 3371.96 895.205   2
   0   3  -8 3130.00 986.061   5
   0   3  -8 2363.96 736.013   6
   0   3  -7 41897.4 3332.24   6
   0  -3   7 41084.7 3067.71   2
   0   3  -7 35539.0 3086.77   5
   0   3  -6 59686.6 3807.42   5
   0  -3   6 65431.0 3776.50   2
   0   3  -6 62054.1 3884.04   6
   0   3  -5 111.449 227.003   5
   0   3  -5 403.920 233.667   3
   0   3  -5 29.4759 209.969   6
   0   3  -4 19360.9 1744.55   5
   0   3  -4 19068.8 1397.81   3
   0   3  -4 20318.1 1851.49   6
   0   3  -3 102681. 4207.90   6
   0   3  -3 93628.5 3411.79   3
   0   3  -2 50014.4 2174.07   3
   0   3  -2 52729.7 2695.89   6
   0  -3   1 213489. 5771.19   3
   0  -3   1 205346. 5827.70   5
   0   3  -1 213197. 6328.84   6
   0  -3  -1 61907.9 2003.80   5
   0   3   1 61382.9 2567.97   6
   0  -3  -1 61350.8 2221.78   1
   0   3   1 62487.4 2227.53   1
   0   3   2 112624. 3296.39   5
   0   3   2 103162. 3521.13   1
   0  -3  -2 111359. 3238.98   5
   0   3   3 629506. 14998.5   6
   0  -3  -3 632355. 14342.3   5
   0   3   3 620059. 14303.0   5
   0  -3  -4 72724.5 3203.74   4
   0  -3  -4 71059.7 2974.88   5
   0  -3  -5 133807. 4980.63   4
   0  -3  -5 131247. 4854.57   5
   0  -3  -6 171514. 6219.61   5
   0  -3  -6 171332. 6202.31   4
   0  -3  -7 70430.0 3899.37   4
   0  -3  -7 73229.0 3974.27   5
   0  -3  -8 161.788 240.771   4
   0  -3  -8 640.714 356.940   5
   0  -3  -9 108910. 5675.40   5
   0  -3  -9 108248. 5555.91   4
   0  -3 -10 29543.4 2860.47   4
   0  -3 -10 29822.8 2983.24   5
   0  -3 -11 400.331 463.314   4
   0  -3 -11-343.929 391.991   5
   0  -3 -12 33499.4 3565.78   5
   0  -3 -12 31488.7 3273.48   4
   0  -3 -13 21643.5 2998.00   5
   0  -3 -13 19151.7 2675.15   4
   0  -3 -14 113.792 406.603   4
   0  -3 -14-19.1181 431.124   5
   0  -3 -15 521.946 435.205   5
   0  -3 -15 1122.12 774.933   4
   0   4 -12-67.6981 222.469   6
   0   4 -11 703.468 521.295   6
   0  -4  10 2325.37 839.378   2
   0   4 -10 931.292 471.443   6
   0  -4   9 18581.8 2332.76   2
   0   4  -9 17640.5 2492.83   6
   0  -4   8 24116.2 2576.17   2
   0   4  -8 22494.9 2639.86   6
   0   4  -7 2698.14 651.371   3
   0   4  -7 2127.47 738.737   6
   0  -4   7 4453.06 1008.17   2
   0   4  -6 17253.7 2052.80   6
   0   4  -6 13337.5 1368.82   3
   0  -4   6 13033.9 1757.76   2
   0   4  -5 15719.1 1837.50   6
   0  -4   5 13487.1 1681.06   2
   0   4  -5 12806.8 1267.16   3
   0   4  -4 9458.41 1364.70   6
   0   4  -4 9808.96 1041.07   3
   0   4  -3 232511. 6857.04   3
   0   4  -3 257309. 8189.15   6
   0   4  -2 239096. 7687.38   6
   0   4  -1 4967.03 811.775   6
   0   4   0 84614.9 3589.12   6
   0   4   1 110332. 4187.51   6
   0  -4  -1 110494. 3350.61   5
   0  -4  -1 114542. 3665.44   1
   0  -4  -2 5788.12 576.467   5
   0   4   2 4899.89 548.815   5
   0   4   2 5107.80 676.754   1
   0   4   2 5143.57 786.305   6
   0   4   3 174405. 5710.75   6
   0  -4  -3 166836. 4857.01   5
   0   4   3 162971. 4867.66   5
   0  -4  -4 306404. 8681.17   4
   0  -4  -4 296315. 8053.68   5
   0  -4  -5 362923. 10164.5   4
   0  -4  -5 345750. 9603.51   5
   0  -4  -6 1666.50 511.664   5
   0  -4  -6 2412.22 655.835   4
   0  -4  -7 431350. 12613.3   4
   0  -4  -7 437609. 12524.7   5
   0  -4  -8 48470.5 3371.60   4
   0  -4  -8 48345.7 3364.89   5
   0  -4  -9 20232.1 2256.60   4
   0  -4  -9 18041.5 2130.54   5
   0  -4 -10 42333.2 3424.39   4
   0  -4 -10 29080.6 2938.36   5
   0  -4 -11 15993.9 2271.41   5
   0  -4 -11 16067.1 2236.93   4
   0  -4 -12 72.0585 420.170   4
   0  -4 -12 235.108 416.782   5
   0  -4 -13 16923.9 2475.83   4
   0  -4 -13 16120.2 2544.78   5
   0  -4 -14 3358.10 1165.71   4
   0  -4 -14 3485.93 1343.64   5
   0  -4 -15 349.404 371.099   5
   0  -4 -15 280.402 344.900   4
   0   5 -11 3176.47 1217.38   6
   0   5 -10 3429.52 1159.67   6
   0  -5  10 1424.61 704.227   2
   0   5  -9 1180.84 670.143   6
   0  -5   9-210.106 317.922   2
   0   5  -8 10148.3 1844.34   6
   0  -5   8 5660.81 1314.77   2
   0   5  -7 734.111 481.618   6
   0  -5   7 271.771 229.573   2
   0   5  -6 1362.39 452.409   3
   0  -5   6 1200.82 529.792   2
   0   5  -6 1018.80 445.600   6
   0  -5   5 48832.6 3558.17   2
   0   5  -5 43968.1 2585.05   3
   0   5  -5 44887.3 3448.03   6
   0   5  -4 37890.5 2999.21   6
   0   5  -3 4341.22 924.014   6
   0   5  -2 118271. 5122.77   6
   0   5  -1 33325.2 2406.17   6
   0   5   0-207.402 292.997   6
   0  -5   0 83.2237 111.213   1
   0   5   1 176841. 6118.29   6
   0  -5  -1 175580. 5348.05   1
   0  -5  -2 364633. 8994.90   5
   0   5   2 375009. 10353.5   6
   0   5   3 57122.9 2485.09   5
   0  -5  -3 61224.8 2505.31   5
   0  -5  -4 223771. 6637.84   5
   0   5   4 251247. 7845.48   6
   0  -5  -5 186124. 6075.13   5
   0  -5  -5 193652. 6730.37   4
   0  -5  -6 46789.2 3027.36   4
   0  -5  -6 45678.2 2750.29   5
   0  -5  -7 173255. 6872.42   4
   0  -5  -7 176697. 6651.36   5
   0  -5  -8 110421. 5368.56   5
   0  -5  -8 123148. 5728.04   4
   0  -5  -9 55208.1 3851.01   4
   0  -5  -9 55500.2 3816.49   5
   0  -5 -10 209.743 282.659   4
   0  -5 -10 447.701 177.756   5
   0  -5 -11 38369.9 3552.04   4
   0  -5 -11 41541.7 3677.06   5
   0  -5 -12 25971.0 3034.90   5
   0  -5 -12 21833.4 2800.13   4
   0  -5 -13 2209.66 943.166   4
   0  -5 -13 1418.02 626.149   5
   0  -5 -14 5657.47 1542.34   5
   0  -5 -14 4282.39 1270.01   4
   0  -5 -15 6880.73 1726.49   4
   0  -5 -15 8013.41 1956.05   5
   0  -5 -16 1113.81 769.551   4
   0   6 -11 281.603 419.331   6
   0   6 -10 2009.42 956.149   6
   0  -6   9 969.785 666.993   2
   0   6  -9-369.294 485.695   6
   0   6  -8 392.414 413.080   6
   0  -6   8 656.930 488.734   2
   0  -6   7 6684.62 1453.47   2
   0   6  -7 7572.22 1568.22   6
   0   6  -6 19142.8 2462.30   6
   0  -6   6 18537.8 2400.74   2
   0   6  -5 485.654 285.779   6
   0  -6   5 939.513 496.524   2
   0   6  -4 66054.9 4286.18   6
   0   6  -3 21643.6 2265.84   6
   0   6  -2 1811.14 583.173   6
   0   6  -1 57916.9 3522.27   6
   0   6   0 125114. 5340.93   6
   0  -6   0 126893. 4540.23   1
   0  -6  -1 17926.3 1313.71   5
   0   6   1 19408.8 1834.21   6
   0  -6  -1 18026.0 1425.08   1
   0  -6  -2 107356. 3656.47   5
   0   6   2 102372. 4666.43   6
   0   6   3 154691. 6011.80   6
   0  -6  -3 145121. 4622.70   5
   0  -6  -4 152.498 153.355   5
   0   6   4 880.739 449.906   6
   0   6   5 114429. 5277.32   6
   0  -6  -5 108620. 4280.06   5
   0  -6  -6 174965. 6793.83   4
   0  -6  -6 168668. 6039.56   5
   0  -6  -7 32197.5 2743.82   4
   0  -6  -7 32988.4 2496.99   5
   0  -6  -8 5485.70 1139.78   4
   0  -6  -8 6294.16 1158.23   5
   0  -6  -9 79051.5 4768.32   4
   0  -6  -9 79543.2 4638.74   5
   0  -6 -10 24624.1 2670.34   4
   0  -6 -10 22318.5 2528.47   5
   0  -6 -11 17144.0 2329.72   5
   0  -6 -11 18470.6 2467.95   4
   0  -6 -12 64303.0 4907.82   4
   0  -6 -12 61900.3 4813.38   5
   0  -6 -13 9838.97 1935.38   5
   0  -6 -13 12401.5 2169.90   4
   0  -6 -14-143.176 157.500   5
   0  -6 -14-380.810 525.080   4
   0  -6 -15 5567.89 1641.23   5
   0  -6 -15 5840.09 1553.34   4
   0  -6 -16 1751.27 911.902   4
   0   7 -10 143.537 361.610   6
   0   7  -9 1416.59 785.170   6
   0  -7   9 513.113 581.864   2
   0  -7   8 2714.17 997.671   2
   0   7  -8 4484.78 1424.64   6
   0  -7   7 1718.34 811.329   2
   0   7  -7 489.218 367.398   6
   0  -7   6 1668.17 768.733   2
   0   7  -6 2156.62 869.835   6
   0  -7   5 171.082 303.286   2
   0   7  -5-346.676 448.083   6
   0   7  -4 23116.1 2587.47   6
   0   7  -3 12531.3 1794.63   6
   0   7  -2 54406.9 3787.59   6
   0   7  -1 7729.05 1312.23   6
   0   7   0 133433. 5985.77   6
   0  -7   0 138083. 5005.84   1
   0  -7  -1 52202.7 2724.32   1
   0  -7  -1 52747.4 2607.91   5
   0   7   1 54629.3 3508.55   6
   0  -7  -2 30972.9 1836.96   5
   0   7   2 32718.5 2619.95   6
   0  -7  -3 88352.6 3405.23   5
   0   7   3 93066.1 4716.85   6
   0   7   4 223744. 8071.43   6
   0  -7  -4 201561. 6287.78   5
   0   7   5 26067.3 2424.83   6
   0  -7  -5 24722.7 1850.18   5
   0  -7  -6 39641.6 3071.11   4
   0  -7  -6 37906.4 2485.78   5
   0  -7  -7 140707. 5764.26   5
   0  -7  -7 151918. 6583.93   4
   0  -7  -8 42083.3 3389.74   4
   0  -7  -8 35261.2 2788.67   5
   0  -7  -9 13085.2 1868.22   4
   0  -7  -9 13809.4 1850.00   5
   0  -7 -10 76108.3 4788.05   5
   0  -7 -10 70644.4 4804.48   4
   0  -7 -11 9931.27 1815.38   4
   0  -7 -11 8983.70 1676.84   5
   0  -7 -12 228.928 407.179   4
   0  -7 -12 677.063 470.324   5
   0  -7 -13 13007.9 2245.47   5
   0  -7 -13 10741.3 2024.58   4
   0  -7 -14 7934.48 1833.29   4
   0  -7 -14 9640.94 2035.55   5
   0  -7 -15-304.871 236.642   5
   0  -7 -15-1142.05 724.388   4
   0  -7 -16 2835.18 1143.35   4
   0   8  -9 211.231 165.753   6
   0  -8   8 177.118 183.103   2
   0   8  -8 2755.85 1118.84   6
   0  -8   7 458.667 513.375   2
   0   8  -7 69.0617 128.935   6
   0   8  -6 4231.27 1241.54   6
   0  -8   6 2851.53 1063.49   2
   0  -8   5 11563.5 2116.79   2
   0   8  -5 12857.5 2106.51   6
   0   8  -4 11107.3 1911.10   6
   0   8  -3 4826.09 1217.06   6
   0   8  -2 25008.8 2645.46   6
   0  -8   1 14610.1 1523.03   1
   0   8  -1 13715.3 1870.12   6
   0  -8   0 3003.49 646.231   1
   0   8   0 3794.42 903.216   6
   0  -8  -1 37169.0 2382.36   1
   0   8   1 38408.1 3118.10   6
   0  -8  -1 38689.8 2303.44   5
   0  -8  -2 60715.6 2878.37   5
   0   8   2 63884.4 4006.43   6
   0  -8  -3 1367.18 361.014   5
   0   8   3 2198.11 676.612   6
   0   8   4 74982.0 4438.97   6
   0  -8  -4 65661.9 3062.28   5
   0   8   5 111029. 5617.77   6
   0  -8  -5 99258.7 4184.63   5
   0  -8  -6 52.5642 130.000   5
   0   8   6 845.260 253.660   6
   0  -8  -7 92167.5 4408.89   5
   0  -8  -7 88597.9 5145.24   4
   0  -8  -8 45950.3 3228.25   5
   0  -8  -8 47022.2 3678.12   4
   0  -8  -9 2620.81 874.762   4
   0  -8  -9 1557.79 621.296   5
   0  -8 -10 22073.6 2511.82   5
   0  -8 -10 23873.8 2729.58   4
   0  -8 -11 49734.9 4059.46   5
   0  -8 -11 59660.8 4623.58   4
   0  -8 -12 15384.3 2310.33   5
   0  -8 -12 14368.5 2268.03   4
   0  -8 -13 1237.01 656.774   5
   0  -8 -13 2262.34 1028.00   4
   0  -8 -14 12800.9 2339.13   5
   0  -8 -14 12961.9 2362.82   4
   0  -8 -15 6342.27 1702.09   4
   0  -8 -15 6172.05 1682.65   5
   0  -8 -16 434.577 380.918   4
   0  -8 -16 657.512 547.138   5
   0   9  -8 1268.51 834.292   6
   0   9  -7 125.290 274.352   6
   0  -9   7 1046.04 738.641   2
   0  -9   6 241.874 346.638   2
   0   9  -6 2.19018 392.289   6
   0   9  -5 454.086 332.236   6
   0  -9   5 642.698 573.615   2
   0   9  -4 10242.7 1951.65   6
   0   9  -3 837.705 556.203   6
   0   9  -2 10188.7 1784.08   6
   0   9  -1 32096.3 3100.15   6
   0   9   0-181.729 456.176   6
   0  -9   0 79.4892 93.9296   1
   0  -9  -1 3549.95 686.996   5
   0   9   1 3589.02 947.423   6
   0  -9  -1 4232.99 826.871   1
   0  -9  -2 61207.1 3041.63   5
   0   9   2 64726.3 4343.79   6
   0  -9  -3 39993.5 2312.65   5
   0   9   3 48672.5 3659.54   6
   0   9   4 3249.51 829.509   6
   0  -9  -4 805.117 308.121   5
   0   9   5 54673.2 4050.10   6
   0  -9  -5 54752.4 2950.16   5
   0  -9  -6 64604.3 3465.88   5
   0   9   6 71627.9 4724.89   6
   0  -9  -7 37792.9 2683.06   5
   0  -9  -7 42418.8 3574.67   4
   0  -9  -8 33446.4 3212.86   4
   0  -9  -8 30895.3 2589.84   5
   0  -9  -9 54965.5 4279.64   4
   0  -9  -9 56801.1 3852.55   5
   0  -9 -10 5974.00 1272.83   5
   0  -9 -10 5331.03 1342.70   4
   0  -9 -11 13398.4 2187.27   4
   0  -9 -11 14057.7 2088.49   5
   0  -9 -12 34960.2 3507.58   5
   0  -9 -12 35607.5 3739.53   4
   0  -9 -13 4225.27 1363.20   4
   0  -9 -13 3161.48 1090.81   5
   0  -9 -14 1441.60 804.232   5
   0  -9 -14 2023.88 941.333   4
   0  -9 -15 3594.12 1282.36   5
   0  -9 -15 4279.84 1423.92   4
   0  -9 -16 1269.04 843.174   4
   0  -9 -16-314.781 411.605   5
   0 -10   6 1256.55 856.806   2
   0  10  -6 1284.77 753.593   6
   0  10  -5 408.514 365.612   6
   0 -10   5 1507.85 877.724   2
   0  10  -4 1409.15 757.529   6
   0  10  -3 3198.59 1096.26   6
   0  10  -2 5017.05 1337.84   6
   0  10  -1 1643.45 607.082   6
   0  10   0 5803.42 1387.73   6
   0  10   1 34285.9 3320.20   6
   0  10   2 8793.74 1573.73   6
   0  10   3 45816.1 3808.24   6
   0  10   4 16791.5 2243.69   6
   0  10   5 4225.84 1124.93   6
   0  10   6 10496.0 1774.48   6
   0 -10  -7 15698.4 1693.30   5
   0  10   7 19889.9 2531.99   6
   0 -10  -7 15071.8 2222.89   4
   0 -10  -8-206.703 465.567   4
   0 -10  -8 313.420 226.744   5
   0 -10  -9 30199.5 2728.62   5
   0 -10  -9 29101.3 3156.05   4
   0 -10 -10 39805.6 3391.63   5
   0 -10 -10 39454.2 3873.41   4
   0 -10 -11 4638.36 1228.23   5
   0 -10 -11 4477.94 1222.01   4
   0 -10 -12 5829.94 1525.33   4
   0 -10 -12 3570.68 1109.28   5
   0 -10 -13 10663.9 2012.69   5
   0 -10 -13 13267.9 2379.51   4
   0 -10 -14 6922.73 1689.41   5
   0 -10 -14 8017.33 1904.79   4
   0 -10 -15 1900.86 1082.25   4
   0 -10 -15 568.303 538.584   5
   0  11  -5 1150.39 725.235   6
   0 -11   5-994.625 748.113   2
   0  11  -4 882.587 679.235   6
   0  11  -3 109.218 166.311   6
   0  11  -2 2661.67 987.243   6
   0  11  -1 1268.43 691.504   6
   0  11   0 287.109 212.006   6
   0  11   1 21020.8 2769.31   6
   0  11   2 4502.53 1259.72   6
   0  11   3 4484.44 1225.54   6
   0  11   4 5617.85 1355.02   6
   0  11   5 58295.9 4627.75   6
   0  11   6 229.097 259.721   6
   0  11   7 48936.1 4313.37   6
   0 -11  -8 15400.4 2389.30   4
   0 -11  -9 414.499 389.847   4
   0 -11 -10 5623.01 1406.60   4
   0 -11 -11 27138.2 3374.03   4
   0 -11 -12 1817.53 756.592   4
   0 -11 -13 15.1763 427.530   4
   0 -11 -14 4893.35 1495.38   4
   0  12  -3 39.1248 267.288   6
   0  12  -2 1368.22 864.013   6
   0  12  -1 1507.21 809.013   6
   0  12   0 5.28797 263.993   6
   0  12   1 200.142 280.673   6
   0  12   2 10442.9 1997.18   6
   0  12   3-456.250 576.735   6
   0  12   4 1771.17 707.867   6
   0  12   5 14469.9 2355.60   6
   0  12   6 6511.22 1588.26   6
   0  12   7-42.0595 496.631   6
   0 -12  -8 23961.0 3144.17   4
   0 -12  -9 10662.5 2080.43   4
   0 -12 -10 2581.93 1095.70   4
   0 -12 -11 14204.8 2535.39   4
   0 -12 -12 14340.7 2542.99   4
   0 -12 -13-2.48122 116.402   4
   0  13   0 1683.18 888.158   6
   0  13   1 2935.17 1199.02   6
   0  13   2 1972.52 866.719   6
   0  13   3 7130.45 1752.96   6
   0  13   4 7088.99 1709.55   6
   0  13   5 8911.03 1935.99   6
   0  13   6 2411.77 947.939   6
   0  13   7 752.888 594.224   6
   0 -13  -8-598.863 285.651   4
   0 -13  -9 8946.16 2032.80   4
   0 -13 -10 8782.13 1986.34   4
   0 -13 -11 465.409 560.925   4
   0  14   3 847.380 705.845   6
   0  14   4 1946.40 874.309   6
   0  14   5 3313.82 1287.59   6
   0  14   6 3006.60 1188.58   6
   0  14   7 4175.54 1424.91   6
   0 -14  -8 12751.5 2559.24   4
   1 -13 -11 5314.93 1619.46   4
   1 -13 -10 5855.52 1638.58   4
   1 -13  -9 1176.02 705.404   4
  -1  13   8 5413.26 1553.79   6
  -1  13   7 12390.5 2319.98   6
  -1  13   6 762.554 432.948   6
  -1  13   5 10.2614 529.974   6
  -1  13   4 1049.50 543.627   6
  -1  13   3 1225.76 704.866   6
  -1  13   2-33.5371 284.226   6
  -1  13   1 3591.64 1243.54   6
   1 -12 -13 1729.39 860.079   4
   1 -12 -12 5543.99 1605.30   4
   1 -12 -11-262.457 364.940   4
   1 -12 -10 8632.12 1898.43   4
   1 -12  -9 13339.0 2373.04   4
  -1  12   8 50.4924 378.006   6
  -1  12   7 2903.17 1089.14   6
  -1  12   6 8447.10 1821.15   6
  -1  12   5 473.386 538.330   6
  -1  12   4 2916.71 1063.42   6
  -1  12   3 25162.6 3163.19   6
  -1  12   2 862.589 633.100   6
  -1  12   1 505.488 619.778   6
  -1  12   0 1284.04 753.532   6
  -1  12  -1 209.814 463.795   6
  -1  12  -2 602.293 491.876   6
   1 -11 -14 902.290 642.967   5
   1 -11 -14 3645.93 1322.17   4
   1 -11 -13 3566.54 1231.66   5
   1 -11 -13 2944.36 1141.47   4
   1 -11 -12 8906.87 1837.49   5
   1 -11 -12 10895.3 2124.90   4
   1 -11 -11 6786.09 1664.61   4
   1 -11 -11 5420.35 1393.66   5
   1 -11 -10 1028.12 488.345   4
   1 -11 -10 39.6560 132.651   5
   1 -11  -9 17339.6 2244.41   5
   1 -11  -9 18520.7 2608.54   4
   1 -11  -8 9043.13 1824.26   4
  -1  11   7 584.830 291.641   6
  -1  11   6 3454.74 1059.51   6
  -1  11   5 20073.0 2692.68   6
  -1  11   4 6532.07 1496.99   6
  -1  11   3 10424.3 1907.13   6
  -1  11   2 1913.60 937.980   6
  -1  11   1 3100.44 1093.24   6
  -1  11   0-241.683 479.739   6
  -1  11  -1 6032.72 1495.74   6
  -1  11  -2 6479.76 1656.51   6
  -1  11  -3-347.924 483.333   6
  -1  11  -4 600.555 562.895   6
   1 -10 -15 917.605 671.808   4
   1 -10 -15 489.378 484.991   5
   1 -10 -14 5968.02 1597.09   4
   1 -10 -14 10078.9 2157.14   5
   1 -10 -13 1296.81 753.812   5
   1 -10 -13 1677.72 798.852   4
   1 -10 -12-304.353 177.616   5
   1 -10 -12-231.141 343.678   4
   1 -10 -11 14562.0 2262.75   5
   1 -10 -11 14089.7 2332.76   4
   1 -10 -10 8757.35 1785.49   4
   1 -10 -10 9224.57 1711.11   5
   1 -10  -9-194.675 501.601   4
   1 -10  -9 338.437 217.195   5
   1 -10  -8 39737.9 3682.01   4
   1 -10  -8 38039.1 3221.49   5
  -1  10   7 22231.9 2789.15   6
   1 -10  -7 18381.3 2132.26   5
   1 -10  -6 4205.36 926.464   5
  -1  10   6 3324.63 995.800   6
   1 -10  -5 23417.7 2234.82   5
  -1  10   5 26903.4 2974.18   6
   1 -10  -4 16424.5 1798.25   5
  -1  10   4 18927.7 2466.95   6
   1 -10  -3 2692.08 705.732   5
  -1  10   3 2738.84 874.398   6
  -1  10   2 5560.35 1328.68   6
   1 -10  -2 4446.66 919.902   5
   1 -10  -1 18707.3 2029.88   5
  -1  10   1 20421.8 2613.92   6
  -1  10   0 9487.16 1814.39   6
  -1  10  -1 1993.94 873.863   6
  -1  10  -2 5173.78 1364.28   6
  -1  10  -3 81.1669 354.070   6
  -1  10  -4-41.2782 251.823   6
  -1  10  -5 699.037 540.812   6
  -1  10  -6 4210.79 1515.44   6
   1 -10   6 768.556 526.410   2
   1  -9 -15-466.197 492.107   5
   1  -9 -15-346.412 424.601   4
   1  -9 -14 4253.56 1360.51   4
   1  -9 -14 6429.70 1695.97   5
   1  -9 -13 1670.10 714.014   5
   1  -9 -13 2505.26 1025.53   4
   1  -9 -12 9596.69 1937.88   5
   1  -9 -12 11980.3 2104.80   4
   1  -9 -11 6357.14 1476.47   5
   1  -9 -11 3907.56 1156.75   4
   1  -9 -10 36650.1 3426.99   5
   1  -9 -10 33134.8 3382.84   4
   1  -9  -9 23711.0 2735.29   4
   1  -9  -9 26139.5 2708.55   5
   1  -9  -8 4444.36 1038.77   5
   1  -9  -8 4038.22 1034.52   4
  -1   9   7 18773.8 2406.28   6
   1  -9  -7 16935.0 1990.39   5
  -1   9   6 87274.2 5328.38   6
   1  -9  -6 76542.2 4354.93   5
  -1   9   5-1104.30 776.617   6
   1  -9  -5 90.8618 195.604   5
  -1   9   4 27526.1 2816.22   6
   1  -9  -4 27154.7 2272.67   5
  -1   9   3 60643.5 4274.87   6
   1  -9  -3 62408.1 3595.52   5
  -1   9   2 8669.63 1511.32   6
   1  -9  -2 9635.45 1341.96   5
   1  -9  -1 14068.0 1687.30   5
  -1   9   1 14010.5 2002.40   6
  -1   9   0 12101.9 1923.58   6
   1  -9   0 12899.4 1685.95   5
  -1   9  -1 3403.51 1076.76   6
  -1   9  -2 81.2340 271.391   6
  -1   9  -3 6310.67 1483.76   6
  -1   9  -4 3554.60 1152.05   6
  -1   9  -5 222.013 317.321   6
  -1   9  -6 6931.11 1733.79   6
   1  -9   6 5398.07 1455.57   2
  -1   9  -7-809.061 622.822   6
   1  -8 -15 3013.13 1207.96   5
   1  -8 -15 3335.69 1230.93   4
   1  -8 -14 3222.66 1172.60   4
   1  -8 -14 1518.75 907.556   5
   1  -8 -13 1295.18 687.065   4
   1  -8 -13 1271.69 752.540   5
   1  -8 -12 30606.2 3378.58   4
   1  -8 -12 26957.2 3246.56   5
   1  -8 -11 19504.3 2555.10   4
   1  -8 -11 18059.9 2505.22   5
   1  -8 -10 16776.9 2264.71   4
   1  -8 -10 19875.5 2459.48   5
   1  -8  -9 19779.6 2334.93   5
   1  -8  -9 21124.7 2522.92   4
   1  -8  -8 1867.50 661.161   5
   1  -8  -8 1413.18 653.574   4
   1  -8  -7 20292.7 2324.06   4
   1  -8  -7 16103.8 1927.93   5
   1  -8  -6 42886.9 3062.27   5
  -1   8   6 50820.1 3814.69   6
  -1   8   5 87999.2 5039.24   6
   1  -8  -5 78226.4 4099.40   5
  -1   8   4 175.438 221.611   6
   1  -8  -4 343.048 193.712   5
  -1   8   3 40130.7 3240.51   6
   1  -8  -3 39725.9 2682.00   5
  -1   8   2 46409.3 3508.23   6
   1  -8  -2 47919.2 2980.13   5
  -1   8   1 6270.22 1201.04   6
   1  -8  -1 4110.96 853.341   5
  -1   8   0 12858.1 1832.23   6
  -1   8  -1 58507.4 4195.26   6
  -1   8  -2 29819.7 3007.95   6
  -1   8  -3 2639.63 1013.74   6
  -1   8  -4 11086.9 1955.18   6
  -1   8  -5 3312.08 1100.65   6
   1  -8   6 72.4680 133.179   2
  -1   8  -6 300.808 358.024   6
   1  -8   7 426.667 419.818   2
  -1   8  -7 397.862 571.531   6
  -1   8  -8 888.087 667.566   6
   1  -7 -15 1367.72 826.963   5
   1  -7 -14 16237.9 2539.43   4
   1  -7 -14 13031.8 2464.27   5
   1  -7 -13 2003.43 869.137   4
   1  -7 -13 2259.59 986.777   5
   1  -7 -12 12239.7 2157.04   5
   1  -7 -12 18710.2 2524.16   4
   1  -7 -11 32687.6 3393.32   5
   1  -7 -11 33730.5 3329.72   4
   1  -7 -10 4625.15 1193.10   5
   1  -7 -10 5702.59 1296.48   4
   1  -7  -9 11805.4 1773.61   4
   1  -7  -9 8537.50 1543.29   5
   1  -7  -8 152136. 6799.25   4
   1  -7  -8 153387. 6764.42   5
   1  -7  -7 58611.9 3729.92   5
   1  -7  -7 60668.5 3903.14   4
   1  -7  -6 6737.47 1158.00   5
  -1   7   6 8300.69 1406.69   6
  -1   7   5 93784.2 5011.80   6
   1  -7  -5 88902.3 4297.60   5
  -1   7   4 49123.6 3455.66   6
   1  -7  -4 50157.2 2955.36   5
   1  -7  -3 7609.31 1048.77   5
  -1   7   3 7885.44 1276.10   6
  -1   7   2 85915.9 4550.63   6
   1  -7  -2 75862.4 3706.76   5
   1  -7  -1 29001.4 2200.43   5
  -1   7   1 30035.9 2594.03   6
  -1   7   0 10392.8 1544.49   6
   1  -7   1 11239.2 889.538   1
  -1   7  -1 11267.8 1631.97   6
  -1   7  -2 24063.1 2584.36   6
   1  -7   2 24984.7 1464.44   1
  -1   7  -3 2440.42 806.695   6
  -1   7  -4 16930.5 2304.35   6
  -1   7  -5 9093.93 1732.78   6
  -1   7  -6 1334.18 619.998   6
   1  -7   6 2563.22 870.045   2
   1  -7   7 331.619 378.468   2
  -1   7  -7 303.504 434.622   6
  -1   7  -8 428.539 661.301   6
  -1   7  -9 1496.70 820.655   6
  -1   7 -10-1754.63 948.949   6
   1  -6 -15 507.173 565.048   5
   1  -6 -14 4689.39 1432.59   5
   1  -6 -14 5083.09 1391.40   4
   1  -6 -13 7070.53 1582.95   4
   1  -6 -13 8887.00 1860.54   5
   1  -6 -12 1385.18 617.191   5
   1  -6 -12 1535.65 678.514   4
   1  -6 -11 8975.44 1665.21   4
   1  -6 -11 9151.46 1762.76   5
   1  -6 -10 10062.7 1736.13   5
   1  -6 -10 10411.6 1690.83   4
   1  -6  -9 48455.8 3757.20   5
   1  -6  -9 53018.0 3749.92   4
   1  -6  -8 20927.4 2219.44   4
   1  -6  -8 16468.4 1982.92   5
   1  -6  -7 175307. 6933.35   4
   1  -6  -7 164705. 6799.80   5
   1  -6  -6 58643.2 3472.45   5
   1  -6  -6 53255.3 3380.22   4
  -1   6   5 6748.25 1156.02   6
   1  -6  -5 5386.83 938.341   5
  -1   6   4 132632. 5627.43   6
   1  -6  -4 119101. 4861.64   5
  -1   6   3 202675. 7389.09   6
   1  -6  -3 207557. 6696.28   5
  -1   6   2 671.783 244.798   1
   1  -6  -2 1266.91 402.015   5
  -1   6   2 560.832 179.237   6
  -1   6   1 183181. 6881.35   6
   1  -6  -1 182821. 6207.68   5
  -1   6   0 74510.7 4117.38   6
  -1   6  -1-67.6048 160.767   6
   1  -6   1-14.8093 37.3399   1
  -1   6  -2 27557.1 2550.80   6
  -1   6  -3 31429.0 2877.53   6
  -1   6  -4 50456.4 3873.31   6
  -1   6  -5 1397.03 637.427   6
   1  -6   6 21598.9 2453.20   2
  -1   6  -6 27155.5 3000.58   6
  -1   6  -7 1006.05 455.984   6
   1  -6   7 1743.34 697.388   2
   1  -6   8 4485.23 1153.18   2
  -1   6  -8 3950.22 1257.84   6
  -1   6  -9 5026.50 1473.54   6
  -1   6 -10 456.184 305.118   6
  -1   6 -11 437.345 494.969   6
   1  -5 -15 2002.88 957.266   5
   1  -5 -14 1179.11 638.418   4
   1  -5 -14 2921.59 1146.54   5
   1  -5 -13 7854.22 1672.70   4
   1  -5 -13 7333.42 1719.81   5
   1  -5 -12 24718.9 2874.41   4
   1  -5 -12 21636.1 2890.26   5
   1  -5 -11 20065.7 2441.96   4
   1  -5 -11 21366.2 2740.84   5
   1  -5 -10 19208.3 2475.69   5
   1  -5 -10 24218.8 2584.23   4
   1  -5  -9 90050.2 5285.27   5
   1  -5  -9 92439.2 5069.34   4
   1  -5  -8 218.409 264.434   4
   1  -5  -8-145.692 402.425   5
   1  -5  -7 128964. 5632.25   4
   1  -5  -7 120113. 5560.59   5
   1  -5  -6 17634.5 1824.31   5
   1  -5  -6 18800.4 1815.38   4
   1  -5  -5 281097. 8798.67   5
  -1   5   5 288570. 9171.60   6
   1  -5  -4 7494.49 992.468   5
  -1   5   4 7386.62 1120.67   6
   1  -5  -3 95905.5 3919.69   5
  -1   5   3 100020. 4370.55   6
  -1   5   2 97362.3 4271.43   6
  -1   5   2 90225.2 3278.49   1
   1  -5  -2 101000. 3936.07   5
  -1   5   1 1407.60 460.373   6
   1  -5  -1 2124.78 452.360   5
  -1   5   0 25270.2 2076.81   6
  -1   5  -1 234073. 7995.39   6
   1  -5   1 229928. 5570.88   1
  -1   5  -2 2876.53 684.997   6
   1  -5   2 2479.30 469.186   3
  -1   5  -3 44101.0 3250.31   6
  -1   5  -4 74236.0 4462.59   6
  -1   5  -5 351.606 251.366   6
  -1   5  -6 19521.5 2405.85   6
   1  -5   6 20275.2 2191.19   2
   1  -5   7 3405.97 915.523   2
  -1   5  -7 1786.61 686.266   6
   1  -5   8 929.235 486.886   2
  -1   5  -8 884.567 540.705   6
   1  -5   9 705.659 449.318   2
  -1   5  -9 679.874 607.155   6
  -1   5 -10 2213.46 1025.93   6
  -1   5 -11 2643.43 1037.30   6
  -1   5 -12 790.643 668.645   6
   1  -4 -14 11611.3 2354.05   5
   1  -4 -13-299.883 485.296   5
   1  -4 -13 160.264 355.352   4
   1  -4 -12 9799.58 1745.79   4
   1  -4 -12 9089.50 1863.62   5
   1  -4 -11 24644.9 2708.35   4
   1  -4 -11 25316.5 2968.92   5
   1  -4 -10 253.952 226.422   5
   1  -4 -10 517.633 315.348   4
   1  -4  -9 23555.8 2367.00   4
   1  -4  -9 21741.4 2484.94   5
   1  -4  -8 130047. 5752.52   4
   1  -4  -8 130484. 6199.49   5
   1  -4  -7 34015.6 2697.03   5
   1  -4  -7 32872.8 2519.02   4
   1  -4  -6 35395.5 2594.82   5
   1  -4  -6 38295.9 2580.61   4
   1  -4  -5 455235. 12290.6   5
   1  -4  -5 435562. 11942.6   4
  -1   4   4 112615. 4570.14   6
   1  -4  -4 112303. 4445.22   5
  -1   4   3 111532. 4432.33   6
   1  -4  -3 116270. 4269.84   5
   1  -4  -2 337856. 8963.81   5
  -1   4   2 325359. 9222.42   6
   1  -4  -1 86368.3 3377.79   5
  -1   4   1 84577.8 3608.05   6
  -1   4   1 79804.5 2554.61   1
  -1   4   0 18066.2 1564.24   6
  -1   4  -1 277311. 8325.13   6
   1  -4   1 262486. 5981.04   1
   1  -4   2 146641. 4302.34   3
  -1   4  -2 156662. 5990.78   6
  -1   4  -3 2070.10 593.572   6
  -1   4  -4 54670.5 3518.53   6
  -1   4  -5 38690.9 3108.89   6
   1  -4   6 125.460 193.616   2
  -1   4  -6-196.940 249.859   6
   1  -4   7 1385.96 546.707   2
  -1   4  -7-269.470 509.494   6
   1  -4   8 10100.4 1525.77   2
  -1   4  -8 11866.9 1966.19   6
  -1   4  -9 7827.06 1651.76   6
   1  -4   9 10608.4 1609.09   2
  -1   4 -10 226.486 232.328   6
  -1   4 -11 1867.66 900.256   6
  -1   4 -12-383.065 460.207   6
   1  -3 -14 4792.58 1529.21   5
   1  -3 -13 4101.97 1363.21   5
   1  -3 -13 5790.06 1374.57   4
   1  -3 -12 4835.26 1409.20   5
   1  -3 -12 2247.80 819.197   4
   1  -3 -11 2852.77 902.316   4
   1  -3 -11 1857.32 734.987   5
   1  -3 -10 30878.4 3165.66   5
   1  -3 -10 28287.8 2714.28   4
   1  -3  -9 12208.9 1889.78   5
   1  -3  -9 13378.2 1726.49   4
   1  -3  -8 34565.5 2981.99   5
   1  -3  -8 33688.4 2639.25   4
   1  -3  -7 178117. 7089.30   5
   1  -3  -7 176227. 6497.98   4
   1  -3  -6 77742.4 3665.02   4
   1  -3  -6 72094.4 3879.20   5
   1  -3  -5 132420. 5292.44   5
   1  -3  -5 138354. 5015.44   4
   1  -3  -4 246721. 7495.22   5
   1  -3  -4 239444. 7039.47   4
  -1   3   3 7172.44 886.885   6
   1  -3  -3 6112.29 806.745   5
   1  -3  -2 32664.7 1848.01   5
  -1   3   2 32027.5 1857.27   6
  -1   3   1 362452. 9324.18   6
   1  -3  -1 357921. 9150.37   5
  -1   3   0 152964. 5025.46   6
  -1   3  -1 55789.1 2815.09   6
   1  -3   2 195226. 4889.44   3
  -1   3  -2 205949. 6579.74   6
  -1   3  -3 62134.3 3351.51   6
  -1   3  -4 104140. 4836.30   6
  -1   3  -5 21941.5 2167.01   6
   1  -3   5 24403.1 1910.93   2
  -1   3  -5 19689.9 1101.08   3
  -1   3  -6 76054.9 2732.65   3
  -1   3  -6 85425.0 4786.49   6
  -1   3  -7 9046.42 879.744   3
  -1   3  -7 10943.0 1731.31   6
  -1   3  -8 46607.5 3900.72   6
   1  -3   8 47088.7 3198.93   2
  -1   3  -9 35475.2 3635.41   6
   1  -3   9 36848.5 2888.69   2
  -1   3 -10-15.9994 193.557   6
  -1   3 -11 2016.35 894.724   6
  -1   3 -12 2729.35 1104.04   6
  -1   3 -13 322.939 302.261   6
   1  -2 -14-225.016 222.201   5
   1  -2 -13 4081.82 1359.43   5
   1  -2 -12 8167.82 1575.88   4
   1  -2 -12 11817.0 2186.36   5
   1  -2 -11-150.964 324.141   4
   1  -2 -11 20.4545 257.127   5
   1  -2 -10 61305.0 4018.82   4
   1  -2 -10 67131.6 4777.48   5
   1  -2  -9 70653.9 4063.85   4
   1  -2  -9 71026.8 4728.60   5
   1  -2  -8 8196.72 1451.54   5
   1  -2  -8 7350.95 1181.98   4
   1  -2  -7 119415. 5577.06   5
   1  -2  -7 106822. 4704.88   4
   1  -2  -6 198053. 7178.91   5
   1  -2  -6 185096. 6303.57   4
   1  -2  -5 74484.8 3676.24   5
   1  -2  -5 72793.4 3230.48   4
   1  -2  -4 104733. 3781.12   4
   1  -2  -4 110926. 4338.30   5
   1  -2  -3 33602.0 1985.04   5
   1  -2  -3 32080.4 1683.32   4
   1  -2  -3 33977.8 1724.57   6
   1  -2  -2 733914. 16213.4   6
  -1   2   2 707360. 16248.9   6
   1  -2  -2 733174. 16615.5   5
   1  -2  -1 107434. 3521.95   5
  -1   2   1 105271. 3375.36   6
  -1   2   0 364210. 9001.68   6
  -1   2  -1 268353. 7293.51   6
  -1   2  -2 11141.2 1136.96   6
  -1   2  -3 35858.4 2286.22   6
   1  -2   4 199932. 5900.44   2
  -1   2  -4 191954. 4658.44   3
  -1   2  -4 206840. 6975.52   6
  -1   2  -5 20515.4 2030.59   6
   1  -2   5 23178.4 1683.55   2
  -1   2  -6 67803.5 4067.85   6
   1  -2   6 68540.1 3319.38   2
  -1   2  -6 69937.3 4056.12   4
  -1   2  -7 34631.2 3057.30   6
  -1   2  -7 42224.4 3239.46   4
  -1   2  -8 363.291 313.382   4
  -1   2  -8 695.254 604.876   6
  -1   2  -9 1864.57 738.751   6
  -1   2 -10-882.201 861.558   6
  -1   2 -11 8194.76 1806.93   6
  -1   2 -12 843.482 566.435   6
  -1   2 -13 8066.55 1997.59   6
  -1   2 -14 173.623 400.085   6
   1  -1 -14 5348.75 1662.55   5
   1  -1 -13 5480.90 1653.70   5
   1  -1 -12 6485.08 1567.68   5
   1  -1 -11 7171.61 1631.41   5
   1  -1 -11 6920.19 1386.38   4
   1  -1 -10 1168.56 613.245   5
   1  -1 -10 665.535 463.191   4
   1  -1  -9 8054.60 1541.55   5
   1  -1  -9 6776.07 1172.40   4
   1  -1  -8 9151.88 1510.65   5
   1  -1  -8 7691.70 1152.97   4
   1  -1  -7 14279.8 1842.58   5
   1  -1  -7 15393.8 1535.86   4
   1  -1  -6 2853.83 606.528   4
   1  -1  -6 3730.03 872.210   5
   1  -1  -5 239171. 7615.43   5
   1  -1  -5 217872. 6619.13   4
   1  -1  -4 21858.3 1414.72   4
  -1   1   4 23435.8 1385.47   4
   1  -1  -4 20482.4 1679.39   5
   1  -1  -3 116885. 3528.10   4
  -1   1   3 117838. 3483.80   4
   1  -1  -3 120017. 4251.45   5
   1  -1  -2 645114. 14336.5   6
   1  -1  -2 683368. 15206.1   5
  -1   1   1 101272. 2843.17   6
   1  -1  -1 107060. 3336.82   5
  -1   1   0 436697. 9902.13   6
  -1   1  -1 720253. 16077.8   6
  -1   1  -2 433451. 10691.5   4
  -1   1  -3 15580.0 1344.49   4
   1  -1   4 347944. 8625.74   2
  -1   1  -4 360346. 9940.99   4
   1  -1   5 111542. 3907.39   2
  -1   1  -5 118856. 4939.06   4
   1  -1   6 34.4235 140.051   2
  -1   1  -6-244.630 297.811   5
  -1   1  -6-72.0815 250.238   4
  -1   1  -7 8174.02 1311.88   4
  -1   1  -7 4815.15 1026.25   5
  -1   1  -8 60837.7 4074.35   4
  -1   1  -8 60403.4 4143.86   5
  -1   1  -9 14589.6 2037.65   5
  -1   1  -9 14741.8 2072.70   4
  -1   1 -10 2635.00 845.485   4
  -1   1 -10 2950.75 995.096   5
  -1   1 -11 15273.5 2367.41   4
  -1   1 -12 460.016 491.629   4
  -1   1 -13 987.225 655.342   4
  -1   1 -13 335.175 389.348   6
  -1   1 -14 493.939 399.075   6
   1   0 -13 1487.89 1044.69   5
   1   0 -12 1661.54 886.470   5
   1   0 -11 9092.59 1895.55   5
   1   0 -11 6199.13 1298.33   4
   1   0 -10 26356.2 2600.12   4
   1   0 -10 30488.0 3284.54   5
   1   0  -9 7622.31 1525.15   5
   1   0  -9 6329.98 1191.16   4
   1   0  -8 57382.1 3511.14   4
   1   0  -8 67916.6 4368.96   5
   1   0  -7 192116. 6793.02   4
   1   0  -7 211740. 8006.73   5
   1   0  -6 5342.45 1022.83   5
   1   0  -6 5774.41 872.727   4
   1   0  -5 114621. 4855.26   5
   1   0  -5 99799.0 3834.48   4
   1   0  -4 264448. 8046.45   5
   1   0  -4 254700. 6999.09   4
   1   0  -3 8941.85 684.303   4
   1   0  -3 9052.77 993.247   5
  -1   0   3 10716.3 755.251   4
   1   0  -2 41482.7 1388.51   4
   1   0  -2 42853.7 2059.12   2
  -1   0   2 44559.4 1411.53   4
   1   0  -2 43827.0 2054.05   5
   1   0  -1 60376.4 2227.45   2
   1   0  -1 59994.6 2208.71   5
   1   0   2 368249. 8476.48   1
  -1   0  -2 343087. 8834.50   4
  -1   0  -2 369060. 7966.56   3
  -1   0  -3 67819.6 2879.68   4
  -1   0  -4 24673.1 1235.86   2
  -1   0  -4 24550.0 1769.06   5
  -1   0  -4 27226.1 1882.90   4
  -1   0  -5 158174. 5755.68   5
  -1   0  -5 148539. 4588.47   2
  -1   0  -6 133934. 5626.72   5
  -1   0  -6 134953. 5594.04   4
  -1   0  -7 13446.5 1703.24   5
  -1   0  -7 13112.8 1647.28   4
  -1   0  -8 134535. 6310.05   4
  -1   0  -8 143206. 6527.09   5
  -1   0  -9 61009.5 4282.87   4
  -1   0  -9 68536.7 4554.86   5
  -1   0 -10-58.2636 477.680   5
  -1   0 -10-191.845 260.316   4
  -1   0 -11 30115.4 3277.13   5
  -1   0 -11 26949.1 3107.59   4
  -1   0 -12 10299.9 1997.44   4
  -1   0 -12 9640.25 1965.81   5
  -1   0 -13 407.331 441.417   4
  -1   0 -13-248.145 276.160   5
  -1   0 -14-11.1600 308.881   4
  -1   0 -15 1494.70 885.673   4
   1   1 -13 615.049 580.541   5
   1   1 -12 726.003 438.262   6
   1   1 -12 876.480 778.828   5
   1   1 -11-226.211 359.592   6
   1   1 -11-288.704 352.228   5
   1   1 -10 8451.57 1488.25   4
   1   1 -10 12683.7 2073.86   5
   1   1  -9 32440.5 3201.99   5
   1   1  -9 29572.6 2667.32   4
   1   1  -8 216.377 334.257   5
   1   1  -8 16.7287 194.925   4
   1   1  -7 59171.5 3387.55   4
   1   1  -7 64611.8 4120.92   5
   1   1  -6 43274.4 3073.65   5
   1   1  -6 42362.7 2554.83   4
   1   1  -5-81.7380 183.826   5
   1   1  -5 414.731 242.514   4
  -1  -1   4 38009.8 1892.26   4
   1   1  -4 36952.5 1955.46   4
   1   1  -4 37018.3 2404.19   5
   1   1  -3 311268. 8921.34   5
   1   1  -3 327246. 8095.92   4
   1   1  -2 177404. 4681.00   6
  -1  -1   2 189457. 4516.82   4
   1   1  -2 171771. 5205.83   5
   1   1  -1 723608. 14392.1   6
   1   1  -1 862141. 15810.7   2
   1   1   0 428899. 9503.65   5
   1   1   1 300232. 7203.18   3
  -1  -1  -2 31427.8 1549.81   4
   1   1   2 30558.5 1523.04   1
  -1  -1  -3 247252. 6931.64   4
  -1  -1  -3 258255. 6799.92   5
  -1  -1  -4 127207. 4482.98   5
  -1  -1  -4 123197. 4528.37   4
  -1  -1  -5 26027.4 1950.72   4
  -1  -1  -5 22889.9 1333.26   2
  -1  -1  -5 23091.3 1838.15   5
  -1  -1  -6 138741. 5624.92   4
  -1  -1  -6 150330. 5801.93   5
  -1  -1  -7 215281. 7781.97   5
  -1  -1  -7 197240. 7492.73   4
  -1  -1  -8-26.1486 212.929   4
  -1  -1  -8 925.968 398.802   5
  -1  -1  -9 15558.5 2032.69   4
  -1  -1  -9 15911.1 2034.11   5
  -1  -1 -10 11476.1 1864.18   5
  -1  -1 -10 12160.2 1918.47   4
  -1  -1 -11 4055.64 1167.49   5
  -1  -1 -11 7046.82 1570.27   4
  -1  -1 -12-164.372 458.503   4
  -1  -1 -12 896.490 631.058   5
  -1  -1 -13 6417.16 1640.88   5
  -1  -1 -13 6820.08 1675.46   4
  -1  -1 -14 880.345 506.703   4
  -1  -1 -14 957.584 646.499   5
  -1  -1 -15 3718.56 1338.04   4
   1   2 -13 529.274 459.765   5
   1   2 -12 3112.72 1210.88   5
   1   2 -11 2198.66 867.435   5
   1   2 -11 3797.47 1114.04   6
   1   2 -10 64.6489 485.349   5
   1   2 -10 324.181 327.316   6
   1   2  -9 19214.9 2337.54   6
   1   2  -9 17050.1 2360.48   5
   1   2  -8-263.088 512.443   5
   1   2  -8-148.678 382.596   6
   1   2  -7 482.572 150.317   5
  -1  -2   7 308.120 331.600   2
   1   2  -6 22543.2 2026.30   6
  -1  -2   6 24984.2 2279.43   2
   1   2  -6 25792.7 2388.32   5
   1   2  -5 127593. 5042.84   6
   1   2  -5 131180. 5507.49   5
   1   2  -4 35309.9 2382.47   5
   1   2  -4 36360.6 2205.68   6
   1   2  -3 97146.1 3823.63   5
  -1  -2   3 88346.1 3267.39   4
   1   2  -3 94402.3 3504.43   6
  -1  -2   2 319936. 7748.07   4
  -1  -2   2 311874. 8169.29   5
   1   2  -2 317313. 7945.37   6
   1   2  -2 304982. 8204.91   5
  -1  -2   1 380213. 8716.60   6
   1   2  -1 354980. 8740.47   5
   1   2  -1 386834. 8714.29   6
   1   2  -1 364322. 9406.88   3
  -1  -2   1 352365. 8715.12   5
  -1  -2   0 184929. 4883.37   6
  -1  -2   0 189886. 4576.95   5
   1   2   0 192521. 5483.92   3
   1   2   0 194805. 4843.08   6
   1   2   0 191141. 4543.40   5
   1   2   1 541173. 12020.4   6
  -1  -2  -1 528294. 12035.8   4
   1   2   2 88492.9 3266.35   1
  -1  -2  -2 89395.3 3143.73   4
   1   2   3 40749.0 1784.84   5
  -1  -2  -3 38463.8 2037.78   4
  -1  -2  -3 39420.2 1779.03   5
  -1  -2  -4 313124. 8921.04   4
  -1  -2  -4 333129. 8602.90   5
  -1  -2  -5 155659. 5346.64   5
  -1  -2  -5 148164. 5506.78   4
  -1  -2  -6 30955.2 2356.47   4
  -1  -2  -6 30381.8 2262.76   5
  -1  -2  -7 113147. 5214.33   4
  -1  -2  -7 107772. 4999.73   5
  -1  -2  -8 31198.6 2659.03   5
  -1  -2  -8 27780.9 2512.65   4
  -1  -2  -9 481.818 335.373   4
  -1  -2  -9 446.151 393.965   5
  -1  -2 -10 39646.1 3459.51   5
  -1  -2 -10 34042.7 3226.39   4
  -1  -2 -11 46410.9 3972.13   4
  -1  -2 -11 48333.9 4114.61   5
  -1  -2 -12 376.206 471.844   5
  -1  -2 -12-9.52130 457.708   4
  -1  -2 -13 14337.1 2398.68   5
  -1  -2 -13 14879.5 2447.96   4
  -1  -2 -14 6794.40 1726.94   5
  -1  -2 -14 10948.6 2199.55   4
  -1  -2 -15 108.765 454.729   5
  -1  -2 -15 866.258 766.769   4
  -1  -2 -16 1779.78 961.050   4
   1   3 -12 134.167 293.216   5
   1   3 -11 2279.65 979.789   5
   1   3 -10 9633.34 1938.23   5
   1   3 -10 10135.0 1826.30   6
   1   3  -9 2383.52 870.285   5
   1   3  -9 2442.56 819.422   6
   1   3  -8 9825.52 1708.60   5
  -1  -3   8 8334.00 1534.75   2
   1   3  -8 10178.2 1627.25   6
   1   3  -7 45691.9 3538.59   5
   1   3  -7 40438.6 3160.87   6
  -1  -3   7 46624.0 3498.40   2
   1   3  -6 2346.40 655.379   6
   1   3  -6 1494.18 593.851   5
  -1  -3   6 1752.27 642.531   2
  -1  -3   5 90760.3 4670.25   2
   1   3  -5 86326.6 4191.93   6
   1   3  -5 87800.7 4444.80   5
   1   3  -4 76423.3 3659.40   6
   1   3  -4 80867.7 3872.86   5
   1   3  -3 141880. 5007.98   5
   1   3  -3 133207. 4968.81   3
   1   3  -3 134201. 4862.88   6
   1   3  -2 180644. 5606.91   6
   1   3  -2 181250. 5491.35   5
   1   3  -2 178678. 5782.79   3
  -1  -3   1 42096.2 2077.47   6
   1   3  -1 42205.5 2071.30   6
   1   3  -1 43492.9 2284.04   3
  -1  -3   1 42144.9 1845.24   5
   1   3  -1 41159.9 1842.39   5
   1   3   0 139572. 4683.98   3
  -1  -3   0 130031. 4327.02   6
  -1  -3   0 142373. 3611.76   5
   1   3   0 144878. 3596.19   5
   1   3   0 139599. 4284.03   6
  -1  -3  -1 3175.53 498.693   6
   1   3   1 1056.85 290.233   6
   1   3   2 478832. 11563.6   6
  -1  -3  -2 472033. 11496.4   4
   1   3   3 43369.9 1689.60   5
  -1  -3  -3 41056.0 2209.54   4
  -1  -3  -3 38091.7 1617.63   5
  -1  -3  -4 113506. 4394.49   4
  -1  -3  -4 116016. 3880.93   5
   1   3   4 122864. 3921.35   5
  -1  -3  -5 547624. 13269.7   5
  -1  -3  -5 507208. 13735.5   4
  -1  -3  -6 394941. 10823.7   5
  -1  -3  -6 374645. 11207.7   4
  -1  -3  -7 2046.96 590.500   5
  -1  -3  -7 885.006 451.906   4
  -1  -3  -8 131268. 5889.90   5
  -1  -3  -8 132599. 6100.24   4
  -1  -3  -9 76543.0 4540.22   5
  -1  -3  -9 71356.5 4548.84   4
  -1  -3 -10 4678.60 1135.27   4
  -1  -3 -10 3813.24 949.797   5
  -1  -3 -11 24078.5 2791.82   4
  -1  -3 -11 26190.7 2888.18   5
  -1  -3 -12 12216.2 2080.84   4
  -1  -3 -12 7959.14 1649.71   5
  -1  -3 -13-308.995 258.006   4
  -1  -3 -13 1130.27 748.864   5
  -1  -3 -14 3234.98 1185.05   4
  -1  -3 -14 1742.60 876.927   5
  -1  -3 -15 2947.10 1202.76   4
  -1  -3 -15 2759.38 1152.52   5
  -1  -3 -16 736.000 603.639   4
   1   4 -11 937.029 629.223   5
   1   4 -10 2010.85 968.244   5
   1   4 -10 2397.01 874.070   6
   1   4  -9 1510.46 698.391   6
   1   4  -9 2348.05 950.040   5
  -1  -4   9 2621.70 908.097   2
  -1  -4   8 1966.86 762.707   2
   1   4  -8 1439.79 585.568   5
   1   4  -8 1754.54 645.771   3
   1   4  -8 983.512 510.931   6
   1   4  -7 14715.5 1932.33   6
   1   4  -7 13644.6 1701.12   3
  -1  -4   7 16430.4 2176.17   2
   1   4  -7 14689.3 1997.06   5
  -1  -4   6 36531.7 3172.20   2
   1   4  -6 34108.1 2653.59   3
   1   4  -6 34806.9 2872.48   6
   1   4  -6 37469.8 3063.18   5
   1   4  -5 7085.20 1196.06   6
   1   4  -5 5467.00 938.893   3
   1   4  -5 6154.13 1118.30   5
  -1  -4   5 6158.52 1225.61   2
   1   4  -4 9813.85 1291.84   6
   1   4  -4 8526.92 1168.50   3
  -1  -4   4 8297.97 1340.43   2
   1   4  -4 9218.61 1240.71   5
   1   4  -3 175529. 5974.74   5
   1   4  -3 172230. 6109.73   3
   1   4  -3 173631. 6192.64   6
   1   4  -2 55447.9 2933.79   3
   1   4  -2 54712.8 2895.99   6
   1   4  -2 60739.7 2768.83   5
  -1  -4   1 188813. 5458.37   5
   1   4  -1 198494. 5472.76   5
   1   4  -1 193350. 6121.39   6
   1   4  -1 201267. 6345.26   3
  -1  -4   0 256065. 6167.28   5
   1   4   0 255151. 7274.38   6
   1   4   1 6117.60 791.743   6
   1   4   2 157853. 5243.44   6
   1   4   3 310429. 7364.78   5
  -1  -4  -3 325513. 7385.48   5
  -1  -4  -3 321382. 8930.25   4
   1   4   4 5186.93 598.718   5
  -1  -4  -4 5074.51 611.518   5
  -1  -4  -4 5072.25 828.019   4
  -1  -4  -5 44447.5 2327.00   5
  -1  -4  -5 48360.1 2864.84   4
  -1  -4  -6 89540.3 4399.08   4
  -1  -4  -6 94569.2 4009.50   5
  -1  -4  -7 91435.6 4685.28   4
  -1  -4  -7 94538.9 4363.52   5
  -1  -4  -8 24815.8 2475.67   4
  -1  -4  -8 26317.5 2323.15   5
  -1  -4  -9 131332. 6451.22   4
  -1  -4  -9 133769. 6146.84   5
  -1  -4 -10 57788.0 4298.63   4
  -1  -4 -10 57474.6 4084.76   5
  -1  -4 -11 2731.51 947.383   4
  -1  -4 -11 2911.63 943.886   5
  -1  -4 -12 20992.4 2754.14   5
  -1  -4 -12 20227.5 2693.68   4
  -1  -4 -13 15410.2 2450.11   5
  -1  -4 -13 18622.6 2696.81   4
  -1  -4 -14 302.701 301.133   4
  -1  -4 -14 640.966 527.839   5
  -1  -4 -15 3650.93 1389.04   5
  -1  -4 -15 2956.16 1131.44   4
  -1  -4 -16 6699.31 1883.79   4
  -1  -5  10 546.358 555.271   2
   1   5  -9 3247.39 1034.22   6
  -1  -5   9 2192.21 876.568   2
  -1  -5   8 284.184 391.573   2
   1   5  -8 414.856 373.200   5
   1   5  -8 521.371 344.651   6
   1   5  -7 730.552 518.928   5
   1   5  -7 823.881 376.004   6
   1   5  -7 218.939 171.979   3
  -1  -5   7 1431.75 806.345   2
  -1  -5   6 52462.8 4030.95   2
   1   5  -6 51921.0 3831.31   6
   1   5  -6 50610.2 3647.99   5
   1   5  -6 50189.8 3347.22   3
   1   5  -5 873.788 431.051   3
   1   5  -5 1738.26 644.403   5
  -1  -5   5 694.058 437.900   2
   1   5  -5 1333.25 399.828   6
   1   5  -4 2110.21 597.874   6
   1   5  -4 1380.89 523.332   5
  -1  -5   4 1641.14 548.605   2
   1   5  -4 1902.27 529.628   3
   1   5  -3 48395.2 3132.93   6
   1   5  -3 54401.3 2967.03   5
   1   5  -3 49789.5 3007.61   3
   1   5  -2 149484. 5809.12   6
   1   5  -2 154267. 5718.69   3
   1   5  -1 50038.8 2864.98   6
  -1  -5   1 44309.1 2212.28   5
   1   5   0 165968. 5637.28   6
  -1  -5   0 152157. 4331.00   5
   1   5   1 88842.1 3798.69   6
  -1  -5  -1 85553.9 2303.68   5
  -1  -5  -2 80229.9 3569.31   1
   1   5   2 75404.8 3538.82   6
  -1  -5  -3 55980.5 2932.69   1
   1   5   3 52887.7 1706.07   5
  -1  -5  -3 55204.3 1730.13   5
   1   5   4 401933. 9619.42   5
  -1  -5  -4 413845. 11409.3   4
  -1  -5  -4 411998. 9669.80   5
  -1  -5  -5 147837. 4806.50   5
  -1  -5  -5 151801. 5883.80   4
  -1  -5  -6 74836.4 4031.20   4
  -1  -5  -6 69673.7 3278.99   5
  -1  -5  -7 171304. 6990.17   4
  -1  -5  -7 171538. 6235.90   5
  -1  -5  -8 21672.8 2071.98   5
  -1  -5  -8 21863.1 2325.42   4
  -1  -5  -9 1002.70 466.431   5
  -1  -5  -9 361.294 354.816   4
  -1  -5 -10 43767.1 3652.27   4
  -1  -5 -10 40774.5 3368.50   5
  -1  -5 -11 26791.0 2865.43   5
  -1  -5 -11 29239.4 3105.09   4
  -1  -5 -12 23.5592 180.202   5
  -1  -5 -12 1079.86 690.279   4
  -1  -5 -13 28536.6 3410.72   4
  -1  -5 -13 20868.9 2816.57   5
  -1  -5 -14 7737.74 1809.73   5
  -1  -5 -14 9055.72 1953.29   4
  -1  -5 -15-350.099 670.183   5
  -1  -5 -15 1431.23 895.656   4
  -1  -5 -16 2352.36 1088.27   4
  -1  -6  10 1088.18 769.671   2
  -1  -6   9 403.404 389.788   2
   1   6  -8 4136.37 1176.97   6
  -1  -6   8 2892.79 1074.69   2
   1   6  -7 5357.37 1297.76   6
  -1  -6   7 6698.09 1543.44   2
  -1  -6   6 1117.46 611.130   2
   1   6  -6 198.084 159.868   3
   1   6  -5 629.144 357.891   6
  -1  -6   5 670.040 522.809   2
   1   6  -5 304.706 142.242   3
   1   6  -4 17987.2 1882.68   3
  -1  -6   4 19822.0 2441.37   2
   1   6  -4 19342.5 2160.34   6
   1   6  -3 17839.9 1997.42   6
   1   6  -2 99927.3 4842.56   6
   1   6  -1 8592.45 1221.87   6
  -1  -6   0 133.778 85.1672   5
   1   6   0 459.281 293.488   6
  -1  -6  -1 67101.3 3439.91   1
   1   6   1 62804.3 3383.95   6
  -1  -6  -1 58346.0 1969.27   5
   1   6   2 204557. 7151.07   6
  -1  -6  -2 215935. 7054.55   1
  -1  -6  -3 7194.75 471.407   5
  -1  -6  -3 6416.12 959.061   1
   1   6   3 6179.96 1019.78   6
   1   6   4 141599. 4087.52   5
  -1  -6  -4 147359. 4144.39   5
  -1  -6  -5 210949. 6026.92   5
   1   6   5 197840. 5893.99   5
  -1  -6  -5 217825. 7633.13   4
  -1  -6  -6 90661.7 3762.40   5
  -1  -6  -6 90683.8 4674.75   4
  -1  -6  -7 46557.1 2813.13   5
  -1  -6  -7 49794.5 3458.41   4
  -1  -6  -8 117282. 5813.01   4
  -1  -6  -8 109219. 5040.84   5
  -1  -6  -9 50100.2 3818.67   4
  -1  -6  -9 50957.8 3476.15   5
  -1  -6 -10 1343.47 617.699   5
  -1  -6 -10 2095.04 767.378   4
  -1  -6 -11 49728.5 4143.82   4
  -1  -6 -11 48990.5 3899.72   5
  -1  -6 -12 20863.4 2660.79   5
  -1  -6 -12 21929.6 2800.93   4
  -1  -6 -13 884.837 569.797   5
  -1  -6 -13 1004.94 623.713   4
  -1  -6 -14 7746.07 1795.74   5
  -1  -6 -14 13353.2 2400.21   4
  -1  -6 -15 6376.31 1677.17   5
  -1  -6 -15 5854.23 1643.34   4
  -1  -6 -16-1267.13 811.986   5
  -1  -6 -16-294.354 409.833   4
  -1  -7   9 223.173 426.614   2
   1   7  -8 294.459 199.695   6
  -1  -7   8 316.784 427.930   2
   1   7  -7 3619.96 1103.89   6
  -1  -7   7 3726.13 1185.34   2
  -1  -7   6 1447.85 676.887   2
   1   7  -6 3008.97 937.559   6
   1   7  -5 1490.80 683.407   6
  -1  -7   5 2040.43 890.555   2
  -1  -7   4 24191.1 2891.25   2
   1   7  -4 23142.8 2527.66   6
   1   7  -3 95600.6 5209.94   6
   1   7  -2 171.848 164.521   6
   1   7  -1 5272.38 1024.93   6
   1   7   0 74357.5 4140.90   6
  -1  -7  -1 392.476 209.888   1
  -1  -7  -1 452.858 153.713   5
  -1  -7  -1 1219.95 256.041   5
   1   7   1 1431.75 452.511   6
   1   7   2 119790. 5262.87   6
  -1  -7  -2 123962. 5064.78   1
  -1  -7  -2 115325. 2905.86   5
  -1  -7  -3 171048. 6221.49   1
  -1  -7  -3 156772. 3865.90   5
   1   7   4 1925.04 579.240   6
  -1  -7  -4 3290.65 419.081   5
   1   7   5 6553.11 735.590   5
  -1  -7  -5 6553.72 1199.22   4
  -1  -7  -5 7930.70 811.545   5
  -1  -7  -6 81216.9 4507.00   4
  -1  -7  -6 75472.8 3303.68   5
  -1  -7  -7 20279.6 2319.61   4
  -1  -7  -7 33656.9 2267.92   5
  -1  -7  -8 19654.7 2305.77   4
  -1  -7  -8 17570.7 1790.93   5
  -1  -7  -9 114883. 6104.15   4
  -1  -7  -9 104897. 5196.25   5
  -1  -7 -10 39660.5 3603.15   4
  -1  -7 -10 36327.5 3083.88   5
  -1  -7 -11 33348.3 3178.29   5
  -1  -7 -11 29994.0 3255.27   4
  -1  -7 -12 34826.4 3710.70   4
  -1  -7 -12 32247.0 3285.69   5
  -1  -7 -13 11731.1 2068.51   5
  -1  -7 -13 13066.3 2314.60   4
  -1  -7 -14-571.275 524.678   5
  -1  -7 -14-244.357 299.243   4
  -1  -7 -15 6400.58 1640.53   5
  -1  -7 -15 2367.36 1094.01   4
  -1  -7 -16 3239.21 1289.25   5
  -1  -7 -16 3296.99 1230.42   4
  -1  -8   8-223.714 351.307   2
   1   8  -7 2265.54 1027.46   6
  -1  -8   7 349.687 423.048   2
   1   8  -6 3973.57 1161.00   6
  -1  -8   6 4346.79 1372.10   2
   1   8  -5 153.965 263.369   6
  -1  -8   5 166.336 439.659   2
  -1  -8   4-32.2300 305.439   2
   1   8  -4-118.266 271.829   6
   1   8  -3 15982.5 2133.36   6
   1   8  -2 2243.85 703.617   6
   1   8  -1-266.470 289.702   6
   1   8   0 47622.6 3482.29   6
  -1  -8   0 52446.0 3438.71   1
   1   8   1 39097.7 3037.11   6
  -1  -8  -1 37202.8 2813.54   1
  -1  -8  -1 37018.2 1732.26   5
  -1  -8  -2 201.044 95.6249   5
   1   8   2 33.3200 171.027   6
  -1  -8  -2 14.9286 212.323   1
  -1  -8  -3 49463.9 1500.69   5
   1   8   3 57811.9 3681.10   6
  -1  -8  -3 53861.3 3270.21   1
   1   8   4 82958.0 4624.86   6
  -1  -8  -4 76896.2 2463.95   5
   1   8   5 35192.0 2989.76   6
  -1  -8  -5 33891.1 1727.50   5
  -1  -8  -6 87151.3 3517.96   5
  -1  -8  -6 94507.1 5146.35   4
  -1  -8  -7 166368. 5846.20   5
  -1  -8  -7 172449. 7477.83   4
  -1  -8  -8 18705.3 2289.22   4
  -1  -8  -8 14855.0 1611.71   5
  -1  -8  -9 14516.7 2095.29   4
  -1  -8  -9 15683.4 1814.65   5
  -1  -8 -10 56642.0 3877.76   5
  -1  -8 -10 58862.5 4528.19   4
  -1  -8 -11 11255.1 1781.19   5
  -1  -8 -11 8891.93 1785.94   4
  -1  -8 -12 758.173 533.536   5
  -1  -8 -12 391.211 360.237   4
  -1  -8 -13 20665.0 2947.82   4
  -1  -8 -13 23289.2 2931.63   5
  -1  -8 -14 12379.4 2227.27   5
  -1  -8 -14 10715.3 2198.85   4
  -1  -8 -15 182.616 340.273   4
  -1  -8 -15 201.741 245.716   5
  -1  -8 -16 4414.92 1461.57   5
  -1  -8 -16 6796.61 1899.01   4
  -1  -9   7-812.840 651.135   2
  -1  -9   6 291.821 509.222   2
   1   9  -6 981.185 651.915   6
   1   9  -5 3778.09 1167.24   6
  -1  -9   5 3893.29 1349.45   2
  -1  -9   4 3081.80 1192.26   2
   1   9  -4 4398.07 1220.96   6
   1   9  -3 1144.40 602.382   6
   1   9  -2 9683.51 1683.62   6
   1   9  -1 19002.2 2342.47   6
   1   9   0-513.469 512.246   6
  -1  -9   0-364.154 349.459   1
  -1  -9  -1 61956.9 3853.86   1
   1   9   1 61611.2 4200.51   6
   1   9   2 14420.6 1943.87   6
  -1  -9  -2 15582.6 1813.60   1
   1   9   3 1013.39 417.266   6
  -1  -9  -3 490.270 304.741   1
   1   9   4 42305.3 3431.50   6
   1   9   5 71990.6 4610.34   6
  -1  -9  -6 1445.67 370.255   5
  -1  -9  -6 507.385 368.801   4
  -1  -9  -7 34488.5 3196.07   4
  -1  -9  -7 25760.0 1900.11   5
  -1  -9  -8 13824.1 2072.69   4
  -1  -9  -8 13566.5 1502.72   5
  -1  -9  -9 5629.20 1321.46   4
  -1  -9  -9 6915.63 1177.04   5
  -1  -9 -10 18764.7 2519.76   4
  -1  -9 -10 18173.6 2091.06   5
  -1  -9 -11 35888.5 3656.67   4
  -1  -9 -11 33914.6 3111.74   5
  -1  -9 -12 21454.0 2911.60   4
  -1  -9 -12 17153.3 2335.59   5
  -1  -9 -13-28.3135 411.704   5
  -1  -9 -13 583.282 630.436   4
  -1  -9 -14 22570.1 2988.84   5
  -1  -9 -14 19986.9 3071.96   4
  -1  -9 -15 1559.26 828.159   5
  -1  -9 -15 2073.97 1006.15   4
  -1  -9 -16 1377.32 844.006   5
  -1 -10   6-358.215 458.501   2
  -1 -10   5 1348.88 864.653   2
   1  10  -5 886.968 668.622   6
  -1 -10   4 2381.35 1099.57   2
   1  10  -4 3008.29 1028.56   6
   1  10  -3 2521.16 973.162   6
   1  10  -2 809.476 494.637   6
   1  10  -1 769.591 370.791   6
   1  10   0 9679.32 1702.67   6
  -1 -10   0 8129.83 1404.26   1
  -1 -10  -1 16482.5 1966.60   1
   1  10   1 12607.2 1951.09   6
   1  10   2 15053.9 2101.35   6
  -1 -10  -2 14263.7 1795.14   1
   1  10   3 37161.0 3347.65   6
  -1 -10  -3 38423.5 3043.18   1
   1  10   4 50.3534 236.362   6
   1  10   5 40897.3 3565.54   6
  -1 -10  -6 57709.3 4440.22   4
   1  10   6 60077.1 4461.95   6
  -1 -10  -7 281.645 210.413   4
  -1 -10  -8 14213.6 2185.67   4
  -1 -10  -9 76764.5 5401.41   4
  -1 -10 -10 16291.0 2451.35   4
  -1 -10 -11 11399.3 2156.72   4
  -1 -10 -12 25432.8 3303.45   4
  -1 -10 -13 4446.20 1362.80   4
  -1 -10 -14 1004.60 718.955   4
  -1 -10 -15 4462.71 1512.80   4
   1  11  -4-115.289 272.310   6
  -1 -11   4-565.493 574.368   2
   1  11  -3-70.8628 486.267   6
   1  11  -2-533.043 563.623   6
   1  11  -1 2491.61 938.896   6
   1  11   0 12469.0 2096.00   6
   1  11   1 2188.16 808.866   6
  -1 -11  -2 1257.00 589.574   1
   1  11   2 2356.50 871.308   6
   1  11   3 11548.1 1959.15   6
   1  11   4 14965.7 2239.06   6
   1  11   5 238.747 336.013   6
   1  11   6 11032.2 1941.27   6
  -1 -11  -7 23180.1 2930.81   4
  -1 -11  -8 1036.42 588.471   4
  -1 -11  -9 28965.2 3350.76   4
  -1 -11 -10 18959.4 2736.13   4
  -1 -11 -11 602.510 392.389   4
  -1 -11 -12 3117.22 1140.16   4
  -1 -11 -13 14523.4 2598.05   4
  -1 -11 -14 2452.16 1071.12   4
   1  12  -3-49.3019 192.674   6
   1  12  -2 3853.73 1281.77   6
   1  12  -1 2813.80 1143.81   6
   1  12   0 268.867 323.520   6
   1  12   1 6743.51 1604.93   6
   1  12   2 2538.11 1034.81   6
   1  12   3 1082.23 609.336   6
   1  12   4 40690.0 3962.36   6
   1  12   5 1558.47 733.788   6
   1  12   6-359.360 505.780   6
  -1 -12  -7 5931.89 1543.12   4
  -1 -12  -8 10526.1 2069.27   4
  -1 -12  -9 837.633 614.960   4
  -1 -12 -10 11547.0 2259.14   4
  -1 -12 -11 6547.64 1691.60   4
  -1 -12 -12 9250.76 2103.05   4
  -1 -12 -13 1177.40 665.111   4
   1  13  -1-659.725 556.393   6
   1  13   0-105.067 272.038   6
   1  13   1 1461.02 769.720   6
   1  13   2 2712.72 1097.19   6
   1  13   3 3406.02 1266.70   6
   1  13   4 191.929 418.817   6
   1  13   5 2542.55 1027.46   6
   1  13   6 12300.6 2222.22   6
  -1 -13  -7-42.3257 303.221   4
  -1 -13  -8 17718.2 2793.00   4
  -1 -13  -9 14275.8 2530.59   4
  -1 -13 -10-473.993 509.340   4
  -1 -13 -11 4036.21 1393.53   4
  -1 -13 -12 9480.57 2138.52   4
   1  14   2 775.047 612.798   6
   1  14   3 2444.27 957.161   6
   1  14   4 19.4302 302.467   6
   1  14   5 900.587 614.559   6
   1  14   6 2591.90 1152.53   6
   1  14   7 4722.72 1467.63   6
  -1 -14  -7 7087.74 1907.96   4
  -1 -14  -8 784.936 687.839   4
  -1 -14  -9 3872.00 1398.98   4
   2 -13 -10 958.696 689.376   4
   2 -13  -9 1366.72 835.448   4
  -2  13   8 3797.98 1339.99   6
  -2  13   7 1526.57 865.066   6
  -2  13   6 294.079 278.473   6
  -2  13   5 329.886 475.733   6
  -2  13   4-255.715 473.981   6
  -2  13   3-640.633 549.480   6
  -2  13   2 1880.92 948.400   6
   2 -12 -12-387.069 417.435   4
   2 -12 -11 4111.15 1320.78   4
   2 -12 -10 3137.34 1080.34   4
   2 -12  -9-172.306 313.413   4
  -2  12   8 1839.87 905.320   6
  -2  12   7 7549.13 1775.78   6
  -2  12   6 67.3103 364.310   6
  -2  12   5 1525.75 701.464   6
  -2  12   4 2310.34 916.231   6
  -2  12   3 1896.28 903.425   6
  -2  12   2 650.607 559.312   6
  -2  12   1 1665.24 883.280   6
  -2  12   0 2478.06 1040.95   6
  -2  12  -1 837.141 695.391   6
   2 -11 -14 336.995 449.801   5
   2 -11 -13 3750.08 1332.86   5
   2 -11 -13 1875.90 905.743   4
   2 -11 -12 5551.25 1557.12   5
   2 -11 -12 3968.63 1245.04   4
   2 -11 -11 551.985 599.263   5
   2 -11 -11 531.085 411.695   4
   2 -11 -10 5836.53 1486.35   4
   2 -11 -10 5553.72 1426.62   5
   2 -11  -9 847.251 568.022   5
   2 -11  -9 2091.14 924.413   4
   2 -11  -8 982.169 569.268   5
  -2  11   8 1989.69 859.105   6
   2 -11  -7 2109.73 792.491   5
  -2  11   7 1006.96 547.672   6
   2 -11  -6 5088.20 1213.71   5
  -2  11   6 5708.80 1471.61   6
  -2  11   5 532.833 527.383   6
   2 -11  -5 822.250 481.601   5
   2 -11  -4 3999.03 1017.31   5
  -2  11   4 4901.88 1285.52   6
   2 -11  -3 16302.9 2138.31   5
  -2  11   3 18945.1 2640.91   6
  -2  11   2 145.458 429.194   6
  -2  11   1 498.569 285.390   6
  -2  11   0 307.911 481.927   6
  -2  11  -1-338.204 244.655   6
  -2  11  -2 326.720 407.068   6
  -2  11  -3-1132.55 730.758   6
   2 -10 -14 1475.41 850.608   5
   2 -10 -13 201.233 268.473   4
   2 -10 -13 234.522 504.931   5
   2 -10 -12 8653.86 1920.33   5
   2 -10 -12 9577.22 1884.16   4
   2 -10 -11 2216.99 928.079   5
   2 -10 -11 1653.43 731.175   4
   2 -10 -10-431.042 410.470   5
   2 -10 -10 228.321 472.067   4
   2 -10  -9 9365.46 1782.34   4
   2 -10  -9 6679.32 1506.57   5
   2 -10  -8 14397.4 2206.44   4
   2 -10  -8 19737.4 2515.17   5
   2 -10  -7 4542.21 1168.69   5
  -2  10   7 4377.02 1185.87   6
  -2  10   6 17178.0 2415.37   6
   2 -10  -6 15375.0 2079.70   5
  -2  10   5 11106.2 1964.69   6
   2 -10  -5 14447.6 1953.88   5
   2 -10  -4 2075.76 714.182   5
  -2  10   4 2490.36 844.173   6
  -2  10   3 4043.33 1073.46   6
   2 -10  -3 4143.20 1049.21   5
  -2  10   2 5755.94 1429.40   6
   2 -10  -2 4694.86 1069.74   5
   2 -10  -1 3400.00 1007.17   5
  -2  10   1 4737.78 1240.17   6
  -2  10   0 73.5008 534.492   6
   2 -10   0 845.987 563.811   5
   2 -10   1 6701.90 1456.93   5
  -2  10  -1 6255.84 1479.90   6
  -2  10  -2 376.375 352.554   6
  -2  10  -3-389.227 675.352   6
  -2  10  -4 3056.41 1186.82   6
  -2  10  -5 258.586 379.123   6
   2  -9 -14 4809.64 1555.77   5
   2  -9 -13 4696.82 1340.32   4
   2  -9 -13 6808.20 1774.10   5
   2  -9 -12 7010.81 1690.58   5
   2  -9 -12 4161.98 1237.33   4
   2  -9 -11 2191.07 893.212   4
   2  -9 -11 1300.62 710.564   5
   2  -9 -10 13421.2 2161.24   5
   2  -9 -10 15815.7 2343.27   4
   2  -9  -9 439.761 376.381   4
   2  -9  -9 1019.02 613.632   5
   2  -9  -8 11393.4 1874.42   4
   2  -9  -8 11644.8 1892.01   5
   2  -9  -7 3701.82 1057.97   5
  -2   9   7 2120.22 808.583   6
   2  -9  -6 6787.25 1309.75   5
  -2   9   6 7439.95 1459.17   6
   2  -9  -5 1430.54 521.576   5
  -2   9   5 2869.27 907.561   6
  -2   9   4 33447.3 3152.36   6
   2  -9  -4 25306.1 2495.82   5
   2  -9  -3 5049.91 1121.68   5
  -2   9   3 4221.97 1099.06   6
   2  -9  -2 156.827 232.205   5
  -2   9   2 1875.18 632.611   6
   2  -9  -1 15274.7 1985.60   5
  -2   9   1 16398.5 2263.77   6
  -2   9   0 7168.51 1491.84   6
   2  -9   0 7828.50 1470.51   5
  -2   9  -1 10382.8 1884.97   6
  -2   9  -2 6651.79 1620.38   6
  -2   9  -3 5115.17 1457.92   6
  -2   9  -4 253.287 205.174   6
  -2   9  -5 888.485 548.178   6
  -2   9  -6 2584.54 1060.66   6
   2  -8 -14 361.475 500.853   5
   2  -8 -13 9113.63 2067.93   5
   2  -8 -13 7171.11 1641.94   4
   2  -8 -12-199.238 366.027   5
   2  -8 -12-252.673 442.037   4
   2  -8 -11 208.610 317.483   5
   2  -8 -11 285.127 330.406   4
   2  -8 -10 10238.8 1868.50   5
   2  -8 -10 11544.2 1853.80   4
   2  -8  -9 38399.4 3528.52   5
   2  -8  -9 38163.0 3365.37   4
   2  -8  -8 375.169 356.887   5
   2  -8  -8 4562.65 1013.36   4
   2  -8  -7 44165.4 3566.77   5
   2  -8  -6 33095.3 2908.33   5
  -2   8   6 32396.7 3074.67   6
  -2   8   5 14786.0 2009.89   6
   2  -8  -5 12309.1 1686.91   5
  -2   8   4 22846.2 2498.04   6
   2  -8  -4 18606.0 2059.06   5
  -2   8   3 67367.2 4375.64   6
   2  -8  -3 63716.3 3978.23   5
   2  -8  -2-115.117 197.703   5
  -2   8   2-300.350 267.582   6
  -2   8   1 10241.4 1620.78   6
   2  -8  -1 8259.68 1388.55   5
   2  -8   0 10350.4 1612.84   5
  -2   8   0 9374.60 1609.21   6
  -2   8  -1-478.092 420.056   6
  -2   8  -2-238.930 246.728   6
  -2   8  -3 761.840 411.295   6
  -2   8  -4 210.550 223.006   6
  -2   8  -5-28.2267 297.072   6
  -2   8  -6 1270.09 804.789   6
  -2   8  -7 1014.04 832.449   6
  -2   8  -8-680.224 601.417   6
   2  -7 -14-36.3221 217.321   5
   2  -7 -13 524.141 533.970   5
   2  -7 -12 8208.49 1825.12   5
   2  -7 -12 5257.53 1320.82   4
   2  -7 -11 6750.09 1662.57   5
   2  -7 -11 5663.63 1338.70   4
   2  -7 -10 1604.99 619.449   4
   2  -7 -10 1361.34 639.626   5
   2  -7  -9 25208.1 2622.36   4
   2  -7  -9 25021.7 2767.43   5
   2  -7  -8 394.268 188.219   4
   2  -7  -8 1295.52 492.294   5
   2  -7  -7 5581.40 1213.58   5
   2  -7  -7 4611.60 1039.66   4
   2  -7  -6 64416.7 4082.74   5
  -2   7   6 59401.2 4055.48   6
  -2   7   5 57354.9 3862.52   6
   2  -7  -5 52560.2 3555.62   5
   2  -7  -4 448.875 149.168   5
  -2   7   4 323.437 269.974   6
  -2   7   3 57365.7 3763.04   6
   2  -7  -3 54233.7 3474.97   5
   2  -7  -2 11790.2 1512.87   5
  -2   7   2 11109.6 1579.14   6
  -2   7   1 14762.0 1834.33   6
   2  -7  -1 14378.7 1729.26   5
  -2   7   0 14681.2 1878.00   6
  -2   7  -1 33811.5 3072.74   6
  -2   7  -2 22980.4 2562.67   6
  -2   7  -3 6017.89 1374.74   6
  -2   7  -4 49307.5 4109.32   6
  -2   7  -5 1107.47 552.186   6
  -2   7  -6-169.009 624.706   6
  -2   7  -7 118.168 275.196   6
  -2   7  -8-73.6319 296.895   6
  -2   7  -9-1494.61 866.495   6
   2  -6 -14 5695.29 1716.93   5
   2  -6 -13 775.507 493.202   5
   2  -6 -12 4170.29 1270.36   5
   2  -6 -12 4157.59 1114.27   4
   2  -6 -11 22523.1 2597.87   4
   2  -6 -11 24717.2 3083.21   5
   2  -6 -10 22244.2 2747.96   5
   2  -6 -10 24737.6 2616.71   4
   2  -6  -9 36658.2 3076.99   4
   2  -6  -9 40620.4 3577.10   5
   2  -6  -8 10698.6 1570.92   4
   2  -6  -8 13329.7 1919.62   5
   2  -6  -7 9724.88 1560.13   5
   2  -6  -7 11373.3 1553.20   4
   2  -6  -6 3255.13 902.395   5
  -2   6   5 65909.9 3960.48   6
   2  -6  -5 63242.8 3828.48   5
  -2   6   4 79336.3 4311.82   6
   2  -6  -4 74495.8 4048.04   5
   2  -6  -3 5002.31 964.846   5
  -2   6   3 4291.68 859.585   6
   2  -6  -2 3592.58 786.947   5
  -2   6   2 3737.55 832.428   6
   2  -6  -1 103145. 4770.45   5
  -2   6   1 105792. 4951.43   6
  -2   6   1 90943.5 2815.36   1
  -2   6   0 22452.8 2223.00   6
  -2   6  -1 43354.0 3242.17   6
  -2   6  -2 38435.9 3152.36   6
  -2   6  -3 2102.47 763.085   6
  -2   6  -4 4830.73 1152.18   6
  -2   6  -5-51.8707 417.645   6
  -2   6  -6 585.363 391.182   6
  -2   6  -7-2165.24 915.474   6
  -2   6  -8 3655.26 1247.96   6
  -2   6  -9 1002.92 529.115   6
  -2   6 -10 625.999 645.698   6
   2  -5 -14 3287.51 1268.91   5
   2  -5 -13 2212.30 1018.33   5
   2  -5 -12 2133.35 1016.64   5
   2  -5 -11-510.350 420.074   5
   2  -5 -11-275.082 430.852   4
   2  -5 -10 7123.94 1507.95   5
   2  -5 -10 3770.73 978.140   4
   2  -5  -9 16216.6 2212.70   5
   2  -5  -9 16749.3 1985.47   4
   2  -5  -8 2535.83 812.073   5
   2  -5  -8 3593.92 857.896   4
   2  -5  -7 126203. 6127.44   5
   2  -5  -7 128860. 5554.64   4
   2  -5  -6 107151. 4829.90   4
   2  -5  -6 110112. 5428.98   5
   2  -5  -5 549.169 204.825   5
  -2   5   5 185.074 243.070   6
   2  -5  -4 52908.6 3255.14   5
  -2   5   4 52114.6 3219.88   6
   2  -5  -3 81378.9 4039.63   5
  -2   5   3 79723.0 3998.90   6
   2  -5  -2 38626.8 2637.20   5
  -2   5   2 38742.3 2654.14   6
   2  -5  -1 223354. 7637.49   5
  -2   5   1 232336. 7756.98   6
  -2   5   0 70925.9 3858.59   6
  -2   5  -1 2033.67 619.016   6
  -2   5  -2 1220.69 655.702   6
   2  -5   3 29566.5 1343.88   3
  -2   5  -3 31352.2 2853.11   6
  -2   5  -4 15425.0 2034.17   6
  -2   5  -5 389.075 189.311   6
  -2   5  -6 26717.7 2916.27   6
   2  -5   7 10232.6 1469.15   2
  -2   5  -7 9922.69 1876.46   6
  -2   5  -8 669.692 635.661   6
  -2   5  -9 652.451 402.556   6
  -2   5 -10 1227.57 837.480   6
  -2   5 -11 1151.12 826.652   6
   2  -4 -14 430.664 505.079   5
   2  -4 -13 293.366 519.368   5
   2  -4 -12 16305.4 2649.68   5
   2  -4 -11 1427.69 820.289   5
   2  -4 -11 1325.41 585.071   4
   2  -4 -10 8160.60 1400.85   4
   2  -4 -10 10132.4 1834.01   5
   2  -4  -9 24839.7 2363.36   4
   2  -4  -9 22478.0 2654.72   5
   2  -4  -8 11324.9 1735.73   5
   2  -4  -8 12340.0 1562.32   4
   2  -4  -7-609.942 537.696   5
   2  -4  -7 6.52794 213.218   4
   2  -4  -6 142598. 6225.67   5
   2  -4  -6 130924. 5243.00   4
   2  -4  -5 10838.0 1424.15   5
   2  -4  -4 395.138 225.764   5
  -2   4   4 4.12614 257.569   6
  -2   4   3 93459.7 4026.67   6
   2  -4  -3 91795.3 4223.88   5
   2  -4  -2 146373. 5569.42   5
  -2   4   2 150409. 5382.43   6
   2  -4  -1 15338.6 1530.31   5
  -2   4   1 14084.3 1423.24   6
  -2   4   0 49454.3 2882.85   6
  -2   4  -1 15182.4 1588.84   6
  -2   4  -2 30485.1 2455.09   6
  -2   4  -3 48942.6 3311.69   6
  -2   4  -4 91028.8 4913.07   6
  -2   4  -5 20616.5 2322.79   6
  -2   4  -6 10689.4 1781.24   6
  -2   4  -7 12707.6 2009.76   6
  -2   4  -8 1782.98 870.457   6
  -2   4  -9 3888.10 1249.00   6
  -2   4 -10 6032.42 1619.52   6
  -2   4 -11 1816.09 1007.28   6
  -2   4 -12-1.37337 163.355   6
   2  -3 -14 4963.82 1623.86   5
   2  -3 -13 285.164 358.986   5
   2  -3 -12 4665.72 1364.92   5
   2  -3 -11 10068.9 1953.75   5
   2  -3 -10 577.328 566.037   5
   2  -3 -10 292.762 176.425   4
   2  -3  -9 29503.4 2507.11   4
   2  -3  -9 34484.5 3345.50   5
   2  -3  -8 53617.2 3945.04   5
   2  -3  -8 56487.6 3356.70   4
   2  -3  -7 10526.1 1596.14   5
   2  -3  -7 10868.5 1341.16   4
   2  -3  -6 28593.0 2036.85   4
   2  -3  -6 26437.9 2485.55   5
   2  -3  -5 105760. 4121.87   4
   2  -3  -5 109107. 5098.35   5
   2  -3  -4 66528.9 3558.56   5
  -2   3   3 5326.90 777.903   6
   2  -3  -3 5110.48 882.292   5
   2  -3  -2 58048.4 3041.36   5
  -2   3   2 54887.2 2662.87   6
   2  -3  -1 244376. 7466.77   5
  -2   3   1 238171. 7051.93   6
  -2   3   0 11326.6 1181.27   6
  -2   3  -1 199163. 6636.96   6
  -2   3  -2 352257. 10237.7   6
   2  -3   3 171.108 68.0878   1
  -2   3  -3 217.461 233.191   6
  -2   3  -4 30341.9 2555.51   6
  -2   3  -5-425.934 706.966   6
   2  -3   6-62.7707 99.9702   2
  -2   3  -6-8.69763 427.072   6
  -2   3  -7 2676.35 886.753   6
   2  -3   7 1352.76 451.222   2
  -2   3  -8 13727.1 2156.54   6
  -2   3  -9 18464.6 2651.99   6
  -2   3 -10 969.232 527.633   6
  -2   3 -11 968.351 646.105   6
  -2   3 -12 90.7531 435.118   6
  -2   3 -13 1695.80 1001.23   6
   2  -2 -13 2623.36 1127.39   5
   2  -2 -12 1560.75 877.066   5
   2  -2 -11-17.2600 218.888   5
   2  -2 -10 3824.24 870.262   4
   2  -2 -10 1950.69 840.700   5
   2  -2  -9 18842.8 1870.91   4
   2  -2  -9 17791.7 2397.86   5
   2  -2  -8 11378.6 1383.59   4
   2  -2  -8 13787.2 2004.36   5
   2  -2  -7 57915.8 3062.70   4
   2  -2  -7 54204.1 3835.92   5
   2  -2  -6 57554.3 2865.13   4
   2  -2  -6 54887.8 3655.76   5
   2  -2  -5 581.789 250.867   4
   2  -2  -5 130.364 142.455   5
   2  -2  -4 77229.4 3002.20   4
   2  -2  -4 79529.3 3983.01   5
   2  -2  -3 46238.4 2069.74   6
  -2   2   3 44653.8 2160.48   6
  -2   2   2 226813. 6215.81   6
   2  -2  -2 216575. 6100.66   6
   2  -2  -2 238372. 7155.13   5
   2  -2  -1 412332. 10776.2   5
   2  -2  -1 394298. 9981.98   6
  -2   2   1 411787. 10027.3   6
   2  -2   0 63397.0 3024.76   5
  -2   2   0 63634.5 2729.15   6
  -2   2  -1 12833.9 1184.93   6
  -2   2  -2 56743.5 2921.55   6
   2  -2   3 115382. 3382.05   1
  -2   2  -3 112063. 4749.14   6
  -2   2  -4 13421.2 1571.12   6
   2  -2   4 13996.7 1061.95   1
  -2   2  -5 56689.3 3592.12   6
   2  -2   5 51228.4 2325.23   2
  -2   2  -6 118986. 5887.14   6
   2  -2   6 114365. 4089.88   2
  -2   2  -6 120311. 5843.89   4
  -2   2  -7 19188.0 2307.83   6
   2  -2   7 15452.1 1367.59   2
  -2   2  -7 15658.6 2001.71   4
   2  -2   8 7547.46 1002.65   2
  -2   2  -8 7187.35 1508.33   4
  -2   2  -8 9609.59 1764.17   6
  -2   2  -9 22563.8 2835.22   6
  -2   2 -10-1326.01 876.091   6
  -2   2 -11 6713.40 1740.61   6
  -2   2 -12 344.067 400.619   6
  -2   2 -13-11.1228 137.528   6
   2  -1 -13 1307.07 769.886   5
   2  -1 -12 292.316 347.747   5
   2  -1 -11-226.744 451.759   5
   2  -1 -10 32913.4 3491.41   5
   2  -1  -9 50163.3 3188.03   4
   2  -1  -9 60029.1 4516.76   5
   2  -1  -8 2855.67 638.927   4
   2  -1  -8 2584.84 1013.77   5
   2  -1  -7 19498.6 1611.53   4
   2  -1  -7 21671.3 2390.91   5
   2  -1  -6 55681.1 2672.72   4
   2  -1  -6 59338.9 3742.84   5
   2  -1  -5 15284.3 1189.53   4
   2  -1  -5 15327.2 1748.62   5
   2  -1  -4 44334.3 2809.08   5
   2  -1  -4 38461.9 1797.53   6
   2  -1  -4 39400.5 1785.19   4
   2  -1  -3 270688. 6597.16   6
   2  -1  -3 268006. 6605.07   4
   2  -1  -3 272597. 8276.90   5
  -2   1   2 269229. 6712.42   6
   2  -1  -2 286996. 6692.48   6
   2  -1  -2 294152. 8172.64   5
  -2   1   1 11510.2 793.852   6
   2  -1  -1 10794.3 769.069   6
   2  -1  -1 12365.6 1185.06   5
   2  -1   0 74014.7 3076.65   5
   2  -1   0 66419.5 2511.54   6
  -2   1   0 67596.3 2507.38   6
   2  -1   0 65572.0 2552.37   4
  -2   1  -1 58914.3 2506.72   6
  -2   1  -2 9151.56 1038.32   4
  -2   1  -2 11843.5 826.370   1
  -2   1  -2 10618.0 1066.91   6
   2  -1   3 69391.9 2590.71   1
  -2   1  -3 67521.8 3300.59   4
   2  -1   4 95981.1 3470.15   1
   2  -1   4 91407.5 2714.67   2
  -2   1  -4 96058.4 4332.09   4
   2  -1   5 22042.9 1175.94   2
  -2   1  -5 24677.3 2171.88   4
   2  -1   6 68645.7 2619.37   2
  -2   1  -6 77677.4 4346.89   4
  -2   1  -7 39126.1 3183.66   4
  -2   1  -8-127.650 247.001   4
  -2   1  -9 12082.3 1903.98   4
  -2   1 -10 14391.5 2243.52   4
  -2   1 -11 1017.42 464.985   4
  -2   1 -12 1008.38 570.067   4
  -2   1 -13 5297.64 1574.11   4
  -2   1 -13 4510.94 1550.10   6
  -2   1 -14 327.872 467.471   6
   2   0 -13-80.6837 279.802   5
   2   0 -12-785.282 774.150   5
   2   0 -11 21387.2 2980.82   5
   2   0 -10-356.352 525.728   5
   2   0  -9 1621.57 709.367   5
   2   0  -8 12177.3 1902.33   5
   2   0  -8 9807.95 1237.46   4
   2   0  -7 4491.67 1089.11   5
   2   0  -7 4650.61 758.946   4
   2   0  -6 12478.5 1670.95   5
   2   0  -6 11608.6 1100.09   4
   2   0  -5 162749. 4921.72   4
  -2   0   5 175033. 4860.17   4
   2   0  -5 172883. 6648.24   5
   2   0  -4 2968.87 386.364   4
  -2   0   4 2780.97 365.700   4
   2   0  -3 18127.5 803.866   4
   2   0  -3 21458.5 1765.50   5
   2   0  -2 130783. 4723.75   5
   2   0  -1 36672.2 1219.93   4
   2   0  -1 40507.1 2130.25   5
   2   0   0 77851.5 3095.56   5
  -2   0   0 78895.3 2288.81   6
   2   0   0 75936.6 2435.15   4
   2   0   0 76246.8 2823.68   2
   2   0   1 480913. 11058.9   4
   2   0   1 471197. 10691.7   2
  -2   0  -1 460745. 11094.4   4
  -2   0  -2 536119. 12837.3   1
   2   0   2 553598. 11886.4   2
  -2   0  -2 576632. 13354.8   4
   2   0   2 555354. 12638.2   3
   2   0   3 36968.1 1947.76   1
  -2   0  -3 40996.7 2321.28   4
  -2   0  -3 38977.7 1917.71   1
  -2   0  -4 133621. 5095.47   4
  -2   0  -4 124991. 3563.75   3
  -2   0  -5 19263.1 1870.15   4
  -2   0  -6 4227.86 911.171   4
  -2   0  -7 37461.6 3050.05   4
  -2   0  -8 71155.1 4578.43   4
  -2   0  -9 9048.53 1646.07   4
  -2   0 -10-72.2980 325.824   4
  -2   0 -11 5904.32 1544.81   4
  -2   0 -12 7544.25 1771.37   4
  -2   0 -13 198.264 211.632   4
  -2   0 -14 3949.05 1380.27   4
  -2   0 -15-550.566 574.475   4
   2   1 -13 349.588 477.020   5
   2   1 -12 1345.56 815.609   5
   2   1 -11 9255.29 1970.81   5
   2   1 -10 730.371 581.687   5
   2   1  -9 47.2853 254.332   5
   2   1  -9 477.572 417.564   6
   2   1  -8 10055.1 1717.57   5
   2   1  -7 38815.7 3301.77   5
   2   1  -6 12475.1 1674.01   5
  -2  -1   5 63242.4 2506.96   4
   2   1  -5 62612.0 3757.97   5
  -2  -1   4 61748.2 2182.14   4
   2   1  -4 57967.8 2470.73   6
   2   1  -4 59111.5 3339.62   5
  -2  -1   3 35906.9 1262.98   4
   2   1  -3 36319.8 1517.03   6
   2   1  -3 36095.4 2350.49   5
   2   1  -2 46583.6 2502.24   5
   2   1  -1 438270. 10956.5   5
  -2  -1   0 315899. 8250.24   5
  -2  -1   0 312242. 8369.25   2
   2   1   0 320371. 8306.42   2
   2   1   0 303028. 8180.58   5
  -2  -1   0 327511. 7226.96   4
   2   1   0 327255. 7292.94   4
   2   1   1 6882.07 730.440   5
   2   1   1 6952.22 666.745   2
  -2  -1  -1 5968.70 636.309   2
  -2  -1  -1 6811.76 636.948   4
   2   1   1 7392.25 665.172   4
   2   1   1 6316.99 763.151   3
  -2  -1  -2 116998. 3880.44   4
   2   1   2 117881. 3931.54   3
  -2  -1  -2 115584. 3258.84   2
   2   1   2 127625. 3997.22   4
  -2  -1  -3 45788.8 2390.26   4
  -2  -1  -3 46727.4 2285.16   1
  -2  -1  -3 44433.9 2055.52   3
  -2  -1  -4 1574.08 442.555   4
  -2  -1  -4 1594.23 341.201   3
  -2  -1  -5 131439. 5285.30   4
  -2  -1  -6 178211. 6717.99   4
  -2  -1  -6 159636. 4267.30   2
  -2  -1  -7 21129.2 1260.21   2
  -2  -1  -7 21920.1 2272.57   4
  -2  -1  -8 33843.8 3008.50   4
  -2  -1  -9 25866.6 2799.37   4
  -2  -1 -10 11138.1 1886.43   4
  -2  -1 -11 21084.1 2837.37   4
  -2  -1 -12 9440.08 1905.41   4
  -2  -1 -13 578.317 516.361   4
  -2  -1 -14 285.697 226.198   4
  -2  -1 -15-387.547 469.292   4
   2   2 -12 1170.30 844.269   5
   2   2 -11 1165.54 689.064   5
   2   2 -10 7057.91 1659.13   5
   2   2  -9 12456.8 2080.14   5
   2   2  -8 14566.9 1785.74   6
   2   2  -8 16139.4 2251.83   5
   2   2  -7 18928.3 1881.37   6
   2   2  -7 17964.8 2230.39   5
   2   2  -6 6638.10 1258.24   5
   2   2  -6 7722.52 1076.04   6
  -2  -2   6 6836.33 1260.07   2
   2   2  -5 158.845 185.188   5
   2   2  -5-1.58203 110.986   6
   2   2  -4 28687.3 1745.42   6
  -2  -2   4 26020.6 1449.98   4
   2   2  -3 86858.0 3049.30   6
  -2  -2   3 86012.0 2684.21   4
   2   2  -3 86239.7 3883.22   5
  -2  -2   2 19696.7 930.363   4
   2   2  -2 19295.5 1053.86   6
   2   2  -2 20129.8 1544.01   5
   2   2  -1 133373. 3408.38   6
  -2  -2   1 130786. 3448.14   6
   2   2  -1 135250. 4410.99   5
  -2  -2   0 48914.6 2091.63   5
  -2  -2   0 43572.6 1597.09   6
   2   2   0 44119.6 2460.68   3
  -2  -2   0 46252.4 1664.18   4
   2   2   0 45936.1 2026.76   5
   2   2   1 36722.4 1682.67   5
  -2  -2  -1 35430.5 1905.90   2
  -2  -2  -1 32077.1 1485.32   6
  -2  -2  -1 36584.7 1667.70   4
   2   2   1 37145.3 2129.92   3
   2   2   1 38209.4 1681.09   4
   2   2   2 169458. 4968.17   4
  -2  -2  -2 158230. 4884.76   4
   2   2   2 156724. 5229.45   3
  -2  -2  -3 252784. 7313.29   4
  -2  -2  -4 119160. 4649.24   4
  -2  -2  -5 782.358 333.744   4
  -2  -2  -6 288567. 9376.49   4
  -2  -2  -7 87544.0 3080.81   2
  -2  -2  -7 104628. 5100.61   4
  -2  -2  -8 2224.53 711.343   4
  -2  -2  -9 17841.9 2270.92   4
  -2  -2 -10 58172.4 4414.55   4
  -2  -2 -11 24318.2 2950.29   4
  -2  -2 -12 5228.14 1396.56   4
  -2  -2 -13 3148.94 1189.64   4
  -2  -2 -14 270.553 335.837   4
  -2  -2 -15 3190.87 1370.61   4
   2   3 -12 692.294 583.620   5
   2   3 -11 665.434 693.779   5
   2   3 -10 757.479 557.684   5
   2   3  -9 639.550 554.647   5
   2   3  -8 18314.0 2084.54   6
   2   3  -8 18300.5 2435.62   5
   2   3  -7 2955.66 919.744   5
  -2  -3   7 2179.81 747.859   2
   2   3  -7 4207.75 969.761   6
   2   3  -6 18855.9 1851.57   6
  -2  -3   6 21552.8 2420.18   2
   2   3  -6 19006.0 2217.99   5
  -2  -3   5 89011.3 4958.20   2
   2   3  -5 81055.9 3858.95   6
   2   3  -5 83792.9 4509.45   5
   2   3  -4 40385.0 2368.96   6
   2   3  -4 36476.1 2652.15   5
  -2  -3   3 17040.3 1205.44   4
   2   3  -3 17609.8 1362.92   6
   2   3  -3 20410.8 1751.19   5
   2   3  -2 325694. 8233.78   6
   2   3  -2 333478. 9834.05   3
   2   3  -2 312314. 8901.34   5
   2   3  -1 509.328 249.369   3
   2   3  -1 425.975 239.487   5
  -2  -3   1 660.727 198.123   6
   2   3  -1 922.257 261.648   6
  -2  -3   0 21332.0 1271.86   5
   2   3   0 22837.0 1275.34   6
  -2  -3   0 21859.4 1297.40   6
   2   3   0 21066.3 1295.35   5
   2   3   0 23846.4 1843.99   3
   2   3   1 157841. 5393.28   3
  -2  -3  -1 153246. 4513.70   4
   2   3   1 147884. 4047.47   5
  -2  -3  -2 157355. 4956.74   4
  -2  -3  -3 22955.1 1669.94   4
  -2  -3  -4 90463.8 3928.99   4
  -2  -3  -5 78886.4 3867.29   4
  -2  -3  -6 30660.2 2452.87   4
  -2  -3  -7 56483.8 3711.96   4
  -2  -3  -8 29798.9 2769.57   4
  -2  -3  -8 28750.6 2492.23   5
  -2  -3  -9 2081.94 745.950   4
  -2  -3  -9 982.752 386.814   5
  -2  -3 -10 19400.4 2329.73   5
  -2  -3 -10 18381.2 2385.51   4
  -2  -3 -11 26745.6 3096.01   4
  -2  -3 -11 30770.1 3137.68   5
  -2  -3 -12 465.510 397.960   4
  -2  -3 -12 21136.9 2804.35   5
  -2  -3 -13 10840.5 2165.69   4
  -2  -3 -14 12253.5 2418.91   4
  -2  -3 -15 962.521 716.638   4
  -2  -3 -16 1178.45 800.849   4
   2   4 -11 1678.35 913.905   5
   2   4 -10 443.683 489.780   5
   2   4  -9 499.544 445.039   5
   2   4  -9-112.653 203.330   3
  -2  -4   8 19221.7 2569.42   2
   2   4  -8 15634.1 2162.37   3
   2   4  -8 17740.5 2422.64   5
   2   4  -7 1495.55 662.892   5
  -2  -4   7 1456.91 703.493   2
   2   4  -7 1092.40 393.571   3
   2   4  -7 1488.76 541.915   6
   2   4  -6 914.986 435.560   5
   2   4  -6 1180.30 494.939   3
   2   4  -6 975.625 379.162   6
  -2  -4   6 1457.74 670.069   2
   2   4  -5 9388.07 1480.31   3
  -2  -4   5 11928.8 1806.03   2
   2   4  -5 10382.5 1365.77   6
   2   4  -5 11598.8 1581.32   5
   2   4  -4 6495.54 1185.74   3
   2   4  -4 8853.50 1171.45   6
  -2  -4   4 8922.61 1472.25   2
   2   4  -4 8451.54 1243.44   5
   2   4  -3 4178.09 800.456   5
   2   4  -3 2785.75 739.169   3
   2   4  -3 4472.08 753.546   6
   2   4  -2 35171.1 2628.32   3
   2   4  -2 38195.9 2249.80   5
   2   4  -2 36897.3 2126.59   6
   2   4  -1 160265. 5117.08   6
   2   4  -1 166589. 6187.65   3
   2   4  -1 165794. 5071.36   5
   2   4   0 207577. 6027.74   6
   2   4   0 211030. 7116.37   3
   2   4   0 213120. 5534.97   5
  -2  -4   0 200657. 5489.17   5
   2   4   1 12077.2 1099.68   6
   2   4   1 11342.6 1325.39   3
   2   4   1 14736.5 786.737   5
  -2  -4  -2 249419. 7011.87   4
   2   4   2 233085. 5476.24   5
  -2  -4  -3 22605.5 1746.55   4
   2   4   3 24546.7 1135.07   5
  -2  -4  -4 71201.3 3520.85   4
   2   4   4 74707.7 2706.14   5
  -2  -4  -5 452689. 12648.2   4
  -2  -4  -6 148194. 6116.95   4
  -2  -4  -7 3083.64 847.418   4
  -2  -4  -7 2230.98 595.849   5
  -2  -4  -8 34179.7 2966.01   4
  -2  -4  -8 28993.7 2463.10   5
  -2  -4  -9 69674.4 4646.73   4
  -2  -4  -9 61697.6 3980.17   5
  -2  -4 -10-17.0535 214.225   5
  -2  -4 -10 341.993 422.009   4
  -2  -4 -11 29860.4 3242.17   4
  -2  -4 -11 29719.5 3034.60   5
  -2  -4 -12 9166.42 1791.15   5
  -2  -4 -12 9079.75 1835.90   4
  -2  -4 -13 383.697 356.361   4
  -2  -4 -13 1301.19 690.398   5
  -2  -4 -14 1469.03 759.113   4
  -2  -4 -14 682.834 718.319   5
  -2  -4 -15 4096.96 1383.73   4
  -2  -4 -16-1153.58 814.510   4
   2   5 -10 2378.32 1060.12   5
   2   5  -9 3622.45 1190.72   5
  -2  -5   9 2999.89 1094.31   2
   2   5  -8 112.604 358.287   3
   2   5  -8 103.173 179.628   5
  -2  -5   8 104.134 398.369   2
   2   5  -7 1652.11 729.519   5
  -2  -5   7 1698.47 747.995   2
   2   5  -7 1878.05 665.543   3
   2   5  -6 1821.29 705.654   5
   2   5  -6 1382.31 614.556   3
   2   5  -6 1394.97 488.803   6
  -2  -5   6 1913.33 865.270   2
   2   5  -5 10120.2 1596.60   3
   2   5  -5 11289.0 1538.81   6
  -2  -5   5 11385.6 1891.15   2
   2   5  -5 11493.4 1621.55   5
   2   5  -4 57935.4 3494.08   5
  -2  -5   4 60903.2 4303.34   2
   2   5  -4 58276.2 3458.86   6
   2   5  -4 52450.1 3638.46   3
  -2  -5   3 36552.1 3171.71   2
   2   5  -3 35888.2 2478.24   6
   2   5  -3 33148.1 2740.39   3
   2   5  -3 33584.7 2388.30   5
   2   5  -2 674.678 304.100   5
   2   5  -2 441.219 310.156   6
   2   5  -2 533.472 330.442   3
   2   5  -1 26135.9 1881.25   6
   2   5  -1 21997.1 2094.26   3
   2   5  -1 25477.1 1581.22   5
   2   5   0 20900.9 1649.14   6
   2   5   0 21951.0 2014.36   3
   2   5   0 20999.7 1186.93   5
  -2  -5   0 21725.4 1202.66   5
   2   5   1 1985.18 481.729   6
   2   5   2 298755. 8578.34   6
  -2  -5  -2 295829. 8630.01   4
  -2  -5  -3 99916.7 4234.29   4
  -2  -5  -4 85139.3 4049.77   4
   2   5   4 79821.4 2595.25   5
   2   5   5 605.562 221.402   5
  -2  -5  -5 472.887 333.854   4
  -2  -5  -6 108028. 5145.72   4
  -2  -5  -7 30361.9 2656.85   4
  -2  -5  -7 26413.9 2058.07   5
  -2  -5  -8 2100.32 626.390   5
  -2  -5  -8 3237.19 890.902   4
  -2  -5  -9 112925. 5493.63   5
  -2  -5  -9 119432. 6212.81   4
  -2  -5 -10 44715.0 3817.10   4
  -2  -5 -10 41086.4 3330.32   5
  -2  -5 -11 285.710 461.907   5
  -2  -5 -11 382.928 346.366   4
  -2  -5 -12 7784.95 1615.05   5
  -2  -5 -12 10443.2 1934.37   4
  -2  -5 -13 13370.6 2200.67   5
  -2  -5 -13 12717.9 2284.28   4
  -2  -5 -14 2144.69 966.087   5
  -2  -5 -14 2057.44 1023.81   4
  -2  -5 -15 15581.9 2779.79   4
  -2  -5 -15 12876.4 2402.07   5
  -2  -5 -16 1388.80 714.656   4
  -2  -6   9 780.747 586.298   2
  -2  -6   8-164.074 295.679   2
   2   6  -8 1117.96 595.738   5
  -2  -6   7 1647.58 817.612   2
   2   6  -7 1748.08 716.074   5
   2   6  -7 1696.01 712.683   3
   2   6  -6 3938.56 1016.14   5
   2   6  -6 5404.93 1176.12   6
  -2  -6   6 4339.83 1224.26   2
   2   6  -6 4305.33 1089.12   3
  -2  -6   5 33085.1 3447.16   2
   2   6  -5 35160.5 2954.18   6
   2   6  -5 28399.3 2787.49   3
   2   6  -5 29809.3 2666.49   5
   2   6  -4 701.384 405.599   5
   2   6  -4 666.144 408.491   6
  -2  -6   4-46.2365 231.025   2
   2   6  -4 281.431 343.381   3
  -2  -6   3 23939.9 2723.43   2
   2   6  -3 21557.9 2070.33   6
   2   6  -3 22574.9 2346.33   3
   2   6  -3 24201.6 2013.09   5
   2   6  -2 80773.7 3533.06   5
   2   6  -2 84259.5 4143.27   6
   2   6  -2 77509.4 4432.21   3
   2   6  -1 549.152 279.258   6
   2   6  -1 473.599 223.765   5
   2   6   0 33346.5 2331.02   6
  -2  -6   0 31333.5 1487.48   5
   2   6   1 101605. 4389.12   6
   2   6   2 5686.92 954.430   6
  -2  -6  -2 6125.28 1085.27   1
  -2  -6  -3 21499.3 2071.18   1
   2   6   3 19624.9 1809.50   6
  -2  -6  -3 20303.7 1865.92   4
  -2  -6  -4 140874. 5838.98   1
  -2  -6  -4 134440. 5578.26   4
  -2  -6  -5 34917.3 2699.36   4
   2   6   5 32831.1 1584.96   5
  -2  -6  -6 19347.1 2042.26   4
  -2  -6  -7 76280.3 4472.78   4
  -2  -6  -7 71432.5 3453.05   5
  -2  -6  -8 65075.0 3599.74   5
  -2  -6  -8 72075.8 4521.50   4
  -2  -6  -9 16983.5 1894.72   5
  -2  -6  -9 21068.4 2483.35   4
  -2  -6 -10 46889.5 3538.28   5
  -2  -6 -10 60065.9 4455.37   4
  -2  -6 -11 16535.6 2188.43   5
  -2  -6 -11 17587.5 2476.80   4
  -2  -6 -12 362.579 261.825   5
  -2  -6 -12 1259.26 750.984   4
  -2  -6 -13 17082.5 2655.59   4
  -2  -6 -13 14182.9 2324.80   5
  -2  -6 -14 14099.3 2382.49   5
  -2  -6 -14 13251.8 2440.64   4
  -2  -6 -15-486.852 636.534   5
  -2  -6 -15 488.024 552.532   4
  -2  -6 -16-382.288 473.481   4
  -2  -6 -16-322.128 337.219   5
  -2  -7   8 1977.66 1002.18   2
  -2  -7   7 1369.96 797.821   2
  -2  -7   6-78.7125 566.188   2
   2   7  -6-70.3522 89.1941   3
   2   7  -5 4751.05 1142.48   6
  -2  -7   5 4224.14 1287.27   2
   2   7  -5 4440.31 1100.24   3
   2   7  -4 633.267 392.101   3
  -2  -7   4 707.875 453.419   2
   2   7  -4 815.630 370.785   6
  -2  -7   3 2009.40 848.579   2
   2   7  -3 1681.28 609.675   6
   2   7  -2 939.314 476.923   6
   2   7  -1 31561.7 2543.52   6
   2   7   0 4818.71 942.656   6
   2   7   1 28946.9 2342.42   6
   2   7   2 58993.4 3485.63   6
  -2  -7  -2 62319.6 3875.56   1
   2   7   3 17857.5 1869.87   6
  -2  -7  -3 17736.4 1931.06   1
  -2  -7  -4 62428.3 3769.01   1
  -2  -7  -4 57469.3 3578.57   4
  -2  -7  -5 245295. 8279.96   1
  -2  -7  -5 236941. 8228.58   4
  -2  -7  -6 8159.53 1389.69   4
  -2  -7  -7 25807.8 1823.93   5
  -2  -7  -7 27050.4 2607.76   4
  -2  -7  -8 59542.6 3316.67   5
  -2  -7  -8 66670.6 4440.52   4
  -2  -7  -9 15187.9 2126.20   4
  -2  -7  -9 15440.7 1763.54   5
  -2  -7 -10 2152.55 723.119   5
  -2  -7 -10 1906.84 820.143   4
  -2  -7 -11 24049.5 2619.22   5
  -2  -7 -11 24725.2 3020.57   4
  -2  -7 -12 30343.3 3428.35   4
  -2  -7 -12 29139.1 3074.19   5
  -2  -7 -13-154.578 622.960   5
  -2  -7 -13 152.446 368.687   4
  -2  -7 -14 10568.9 2041.25   5
  -2  -7 -14 12324.8 2380.48   4
  -2  -7 -15 4362.58 1394.13   5
  -2  -7 -15 5106.37 1583.35   4
  -2  -7 -16-913.718 709.307   4
  -2  -7 -16 628.489 625.030   5
  -2  -8   7 313.465 285.604   2
  -2  -8   6 1247.95 752.742   2
  -2  -8   5-102.360 355.185   2
   2   8  -4 21897.9 2486.02   6
  -2  -8   4 21134.1 2995.76   2
  -2  -8   3 17034.2 2574.24   2
   2   8  -3 14071.2 1923.98   6
   2   8  -2 1718.53 655.118   6
   2   8  -1 34634.1 2897.57   6
   2   8   0 20006.8 2116.26   6
   2   8   1 5095.90 1065.27   6
  -2  -8  -1 4001.92 951.874   1
   2   8   2 80381.8 4444.52   6
  -2  -8  -2 85853.2 4874.59   1
   2   8   3 39895.4 3054.33   6
  -2  -8  -3 41389.5 3190.90   1
   2   8   4 23235.6 2300.67   6
  -2  -8  -4 24201.9 2389.42   1
  -2  -8  -4 24158.1 2373.91   4
  -2  -8  -5 5873.46 1099.88   1
  -2  -8  -5 8430.85 1460.04   4
  -2  -8  -6 27198.9 2642.91   4
  -2  -8  -7 11991.8 1116.45   5
  -2  -8  -7 16173.6 2101.11   4
  -2  -8  -8 9049.62 1614.29   4
  -2  -8  -8 9310.40 1164.28   5
  -2  -8  -9 54956.7 3331.42   5
  -2  -8  -9 56261.0 4319.58   4
  -2  -8 -10 11614.6 2009.00   4
  -2  -8 -10 13393.7 1722.19   5
  -2  -8 -11 489.490 354.397   5
  -2  -8 -11 941.539 661.788   4
  -2  -8 -12 31691.8 3571.35   4
  -2  -8 -12 23585.3 2703.63   5
  -2  -8 -13 9746.03 1813.85   5
  -2  -8 -13 8650.46 1920.69   4
  -2  -8 -14 231.911 204.143   5
  -2  -8 -14-299.296 581.421   4
  -2  -8 -15 2852.05 1083.04   5
  -2  -8 -15 2335.83 1100.21   4
  -2  -8 -16 2866.46 1148.78   5
  -2  -9   6 242.948 392.594   2
  -2  -9   5 444.335 325.501   2
  -2  -9   4 518.129 504.614   2
  -2  -9   3-40.8590 739.818   2
   2   9  -3 913.130 560.142   6
   2   9  -2 2589.33 822.593   6
   2   9  -1 3321.87 942.709   6
   2   9   0 6920.22 1341.54   6
   2   9   1 8386.37 1432.87   6
  -2  -9  -1 6846.59 1400.72   1
  -2  -9  -2 1045.87 474.439   1
   2   9   2 1264.99 482.716   6
  -2  -9  -3 21284.4 2364.02   1
   2   9   3 20128.7 2272.26   6
   2   9   4 42763.9 3389.96   6
  -2  -9  -4 41394.8 3307.71   1
  -2  -9  -5 33.9917 439.671   4
  -2  -9  -5 387.440 222.104   1
  -2  -9  -6 36127.6 3208.00   4
  -2  -9  -7 74878.4 4913.94   4
  -2  -9  -8 24382.4 2791.08   4
  -2  -9  -9 20823.3 2625.35   4
  -2  -9 -10 59487.0 4719.41   4
  -2  -9 -11 13788.1 2308.97   4
  -2  -9 -11 12141.2 1733.04   5
  -2  -9 -12 7081.01 1442.09   5
  -2  -9 -12 9956.10 2049.55   4
  -2  -9 -13 13084.6 2068.21   5
  -2  -9 -13 14185.3 2492.29   4
  -2  -9 -14 5616.54 1450.02   5
  -2  -9 -14 5441.36 1626.69   4
  -2  -9 -15-199.295 297.122   5
  -2  -9 -15-154.009 327.021   4
  -2  -9 -16 3430.22 1237.06   5
  -2 -10   4 1003.36 718.171   2
  -2 -10   3 788.711 675.378   2
   2  10  -3 719.150 383.222   6
   2  10  -2 1207.11 637.647   6
   2  10  -1 3546.24 1055.29   6
   2  10   0 319.970 476.124   6
  -2 -10   0 190.343 153.271   1
   2  10   1 7958.86 1512.52   6
  -2 -10  -1 5909.88 1369.06   1
   2  10   2 29178.5 2943.37   6
  -2 -10  -2 30734.6 3071.85   1
   2  10   3 3342.07 974.417   6
  -2 -10  -3 2596.49 850.276   1
   2  10   4 15266.7 2100.38   6
  -2 -10  -4 15145.3 2047.51   1
   2  10   5 31298.1 3093.42   6
  -2 -10  -5 29614.7 2912.95   1
  -2 -10  -5 30569.0 3148.91   4
  -2 -10  -6 37.4272 262.229   4
  -2 -10  -7 10087.1 1803.36   4
  -2 -10  -8 20369.5 2659.44   4
  -2 -10  -9 2128.87 978.389   4
  -2 -10 -10 4582.76 1263.23   4
  -2 -10 -11 12664.1 2267.92   4
  -2 -10 -12 7530.96 1787.67   4
  -2 -10 -13 49.6624 461.092   4
  -2 -10 -14 8502.18 2037.00   4
  -2 -10 -15 4435.11 1499.53   4
  -2 -11   3 1055.75 886.682   2
   2  11  -2 919.463 608.982   6
   2  11  -1 4278.22 1210.62   6
   2  11   0 3459.17 1123.09   6
   2  11   1 3643.86 1082.67   6
  -2 -11  -1 2682.24 965.967   1
  -2 -11  -2 18033.0 2396.92   1
   2  11   2 15994.9 2286.62   6
   2  11   3 4800.61 1233.14   6
  -2 -11  -3 6069.64 1381.58   1
   2  11   4 1119.18 549.793   6
  -2 -11  -4 1468.13 634.908   1
   2  11   5 15471.2 2253.07   6
  -2 -11  -5 11197.8 1986.60   4
  -2 -11  -6 7507.51 1614.71   4
  -2 -11  -7 1329.63 643.397   4
  -2 -11  -8 11619.9 2149.70   4
  -2 -11  -9 31412.5 3518.68   4
  -2 -11 -10 4220.25 1251.81   4
  -2 -11 -11 2616.39 1030.40   4
  -2 -11 -12 18042.2 2810.73   4
  -2 -11 -13 5534.31 1632.91   4
  -2 -11 -14 1309.53 850.167   4
   2  12  -1 988.563 929.564   6
   2  12   0 1967.85 910.189   6
   2  12   1 1387.47 751.798   6
   2  12   2 40.4777 204.627   6
  -2 -12  -3 2609.83 908.264   1
   2  12   3 2433.39 982.016   6
   2  12   4 5498.06 1321.41   6
  -2 -12  -4 5672.33 1342.99   1
  -2 -12  -5 553.561 488.310   4
   2  12   5 275.616 506.810   6
  -2 -12  -6 12811.2 2255.00   4
  -2 -12  -7 17130.1 2646.05   4
  -2 -12  -8-79.8597 371.539   4
  -2 -12  -9 7567.49 1816.36   4
  -2 -12 -10 19675.6 2962.69   4
  -2 -12 -11 428.658 464.844   4
  -2 -12 -12 2118.62 1092.21   4
  -2 -12 -13 8136.53 2021.21   4
   2  13   0 1399.74 804.555   6
   2  13   1 1357.84 723.116   6
   2  13   2 2294.86 1019.55   6
   2  13   3 314.080 375.476   6
   2  13   4 4800.08 1399.61   6
   2  13   5 2099.93 929.664   6
  -2 -13  -5 797.579 633.090   4
  -2 -13  -6 92.7134 359.333   4
  -2 -13  -7 8335.00 1864.85   4
  -2 -13  -8 5493.66 1580.73   4
  -2 -13  -9 321.794 152.713   4
  -2 -13 -10 2338.04 1055.94   4
  -2 -13 -11 4733.50 1546.58   4
   2  14   2 360.428 439.695   6
   2  14   3 1451.74 910.628   6
   2  14   4 2208.20 1065.50   6
   2  14   5 3095.78 1128.32   6
  -2 -14  -5 1182.42 866.667   4
  -2 -14  -6 1384.99 815.562   4
  -2 -14  -7 662.293 700.639   4
  -2 -14  -8 4113.06 1425.41   4
  -2 -14  -9 5554.14 1667.98   4
  -3  13   6 292.011 451.790   6
   3 -12 -11 449.949 533.576   5
   3 -12 -11 1526.71 764.350   4
   3 -12 -10 326.461 316.442   5
   3 -12 -10 1188.16 733.888   4
   3 -12  -9 856.062 570.500   5
   3 -12  -9 682.585 525.047   4
   3 -12  -8 2521.84 1031.52   5
  -3  12   8 2735.78 1122.84   6
   3 -12  -7 217.680 306.129   5
  -3  12   7-673.293 554.610   6
  -3  12   6-115.360 254.296   6
  -3  12   5 2540.30 1062.15   6
  -3  12   4 1039.87 760.848   6
  -3  12   3 869.696 642.309   6
  -3  12   2 1057.76 726.566   6
  -3  12   1 1142.43 731.905   6
   3 -11 -12 1138.68 769.041   5
   3 -11 -11 145.502 324.161   5
   3 -11 -11 490.931 484.732   4
   3 -11 -10 3405.59 1173.65   5
   3 -11 -10 2406.68 948.488   4
   3 -11  -9 1125.35 582.865   5
   3 -11  -9 690.890 513.417   4
   3 -11  -8 7833.05 1730.50   5
  -3  11   8 7725.07 1834.04   6
  -3  11   7 273.133 201.642   6
   3 -11  -7 687.708 559.863   5
   3 -11  -6 737.141 539.899   5
  -3  11   6 525.996 498.997   6
   3 -11  -5-202.957 172.052   5
  -3  11   5-126.792 408.713   6
   3 -11  -4 406.465 426.285   5
  -3  11   4 1399.58 766.876   6
  -3  11   3 2146.87 918.032   6
   3 -11  -3 3150.19 1032.58   5
   3 -11  -2 1523.45 746.807   5
  -3  11   2 1691.51 807.152   6
   3 -11  -1 3040.33 1050.93   5
  -3  11   1 1908.75 806.033   6
   3 -11   0-201.149 251.748   5
  -3  11   0-44.2810 178.272   6
   3 -11   1-584.732 487.000   5
  -3  11  -1-730.321 718.418   6
  -3  11  -2 1552.61 906.656   6
   3 -10 -12 570.654 463.843   5
   3 -10 -11 580.286 605.311   5
   3 -10 -11-96.3498 299.821   4
   3 -10 -10-101.027 332.881   5
   3 -10 -10 67.5503 179.648   4
   3 -10  -9 248.453 383.542   5
   3 -10  -9-91.3902 383.944   4
   3 -10  -8 172.041 331.581   5
   3 -10  -7 425.329 502.152   5
  -3  10   7 96.1127 156.562   6
   3 -10  -6 2544.15 933.455   5
  -3  10   6 3379.68 1093.30   6
   3 -10  -5 934.613 494.638   5
  -3  10   5 2396.59 954.832   6
   3 -10  -4 4052.98 1112.84   5
  -3  10   4 4928.63 1298.94   6
  -3  10   3 3266.39 1118.25   6
   3 -10  -3 3216.65 987.962   5
   3 -10  -2 641.364 527.157   5
  -3  10   2 912.680 671.938   6
   3 -10  -1 324.041 303.259   5
  -3  10   1 1379.87 668.200   6
   3 -10   0 755.303 491.568   5
  -3  10   0 29.9172 408.436   6
  -3  10  -1-136.685 281.866   6
   3 -10   1-113.339 362.023   5
   3 -10   2-133.766 302.562   5
  -3  10  -2 291.549 420.874   6
  -3  10  -3 1112.92 640.892   6
  -3  10  -4 1879.56 982.216   6
   3  -9 -13-505.796 532.303   5
   3  -9 -12 442.425 366.420   5
   3  -9 -11 3072.29 1123.08   5
   3  -9 -11 3012.07 1001.41   4
   3  -9 -10 131.656 269.903   5
   3  -9 -10 1862.25 738.642   4
   3  -9  -9 4745.99 1335.97   5
   3  -9  -9 5208.00 1268.56   4
   3  -9  -8 6493.53 1525.49   5
   3  -9  -8 9200.22 1651.63   4
  -3   9   7 904.960 538.709   6
   3  -9  -7 906.188 600.397   5
   3  -9  -6 5292.98 1241.47   5
  -3   9   6 6631.00 1473.06   6
  -3   9   5 24212.6 2826.29   6
   3  -9  -5 26778.4 2847.17   5
   3  -9  -4 623.969 439.170   5
  -3   9   4 187.869 505.737   6
   3  -9  -3 4207.02 1131.87   5
  -3   9   3 5370.90 1281.51   6
   3  -9  -2 6977.19 1436.20   5
  -3   9   2 9357.28 1716.61   6
   3  -9  -1 901.757 527.138   5
  -3   9   1 517.840 246.802   6
   3  -9   0-36.5955 256.590   5
  -3   9   0-230.557 430.194   6
  -3   9  -1 1248.84 634.076   6
   3  -9   1 738.843 473.754   5
  -3   9  -2 749.736 549.169   6
  -3   9  -3 1566.01 806.752   6
  -3   9  -4 951.619 713.104   6
  -3   9  -5 706.612 684.763   6
  -3   9  -6 672.274 399.287   6
   3  -8 -13 867.567 697.386   5
   3  -8 -12 261.089 336.995   5
   3  -8 -11 3852.45 1260.13   5
   3  -8 -10 3520.37 1226.45   5
   3  -8 -10 3006.70 884.086   4
   3  -8  -9 228.577 449.068   5
   3  -8  -9-6.53781 189.849   4
   3  -8  -8 3951.35 1158.87   5
   3  -8  -8 3676.10 1007.11   4
   3  -8  -7-51.5985 210.608   5
  -3   8   7 1069.53 640.559   6
   3  -8  -6-240.524 390.830   5
  -3   8   6-548.149 474.420   6
   3  -8  -5 10467.6 1754.56   5
  -3   8   5 9336.87 1667.60   6
   3  -8  -4 1126.21 551.395   5
  -3   8   4 503.744 296.318   6
   3  -8  -3 7201.03 1403.29   5
  -3   8   3 6624.80 1346.75   6
   3  -8  -2-736.764 451.452   5
  -3   8   2-369.927 520.626   6
   3  -8  -1 4293.37 1078.46   5
  -3   8   1 5639.36 1307.68   6
  -3   8   0 201.062 381.346   6
   3  -8   0 833.066 501.905   5
   3  -8   1 1143.50 498.460   5
  -3   8  -1 2817.31 938.837   6
  -3   8  -2 25195.2 2937.43   6
  -3   8  -3 9580.82 1815.17   6
  -3   8  -4 746.468 445.343   6
  -3   8  -5 2866.87 1055.61   6
  -3   8  -6-101.436 248.501   6
  -3   8  -7 535.508 636.944   6
   3  -7 -13 5750.56 1698.51   5
   3  -7 -12 294.963 233.417   5
   3  -7 -11 678.994 518.791   5
   3  -7 -10 3888.74 1189.59   5
   3  -7 -10 6838.11 1351.26   4
   3  -7  -9 2649.91 845.499   4
   3  -7  -9 1335.03 694.513   5
   3  -7  -8 1367.63 746.940   5
   3  -7  -8 2060.51 704.304   4
   3  -7  -7 10872.9 1834.87   5
  -3   7   6 25222.0 2639.50   6
   3  -7  -6 21982.3 2510.34   5
   3  -7  -5 3116.26 835.659   5
  -3   7   5 3148.04 959.164   6
   3  -7  -4 8699.70 1481.91   5
  -3   7   4 10086.1 1576.25   6
  -3   7   3 30091.6 2740.57   6
   3  -7  -3 27162.3 2679.61   5
   3  -7  -2 3713.34 942.054   5
  -3   7   2 3302.33 911.283   6
   3  -7  -1 9616.97 1550.87   5
  -3   7   1 8953.27 1530.20   6
   3  -7   0 17563.5 2231.50   5
  -3   7   0 14499.9 1997.88   6
  -3   7  -1 1629.18 668.891   6
  -3   7  -2 269.464 162.475   6
  -3   7  -3 1424.13 648.681   6
  -3   7  -4 66.5953 406.685   6
  -3   7  -5 127.623 355.630   6
  -3   7  -6 1473.16 731.262   6
  -3   7  -7-1022.71 950.085   6
  -3   7  -8-83.4446 244.115   6
   3  -6 -13 607.486 490.594   5
   3  -6 -12 711.354 556.615   5
   3  -6 -11 517.648 503.676   5
   3  -6 -10 485.492 508.152   5
   3  -6  -9 4483.00 1034.24   4
   3  -6  -9 4272.51 1243.20   5
   3  -6  -8 23185.1 2301.24   4
   3  -6  -8 23571.0 2784.35   5
   3  -6  -7-404.344 511.054   5
   3  -6  -7 75.2784 289.087   4
  -3   6   6 28407.3 2636.70   6
   3  -6  -6 25585.2 2697.10   5
  -3   6   5 21825.8 2277.39   6
   3  -6  -5 23754.7 2455.92   5
   3  -6  -4 239.472 145.989   5
  -3   6   4 851.606 422.969   6
  -3   6   3 15056.7 1811.72   6
   3  -6  -3 15045.0 1913.79   5
  -3   6   2 10605.9 1484.88   6
   3  -6  -2 10296.1 1567.35   5
   3  -6  -1 2655.87 710.132   5
  -3   6   1 1908.14 645.821   6
   3  -6   0 11450.3 1689.96   5
  -3   6   0 11209.9 1588.69   6
  -3   6  -1 27566.9 2642.39   6
  -3   6  -2 113.378 469.832   6
  -3   6  -3 5723.09 1292.51   6
  -3   6  -4 8690.76 1651.40   6
  -3   6  -5 5738.04 1421.76   6
  -3   6  -6-511.598 811.290   6
  -3   6  -7 522.520 246.007   6
  -3   6  -8 890.000 615.122   6
  -3   6  -9 458.963 336.029   6
   3  -5 -13 312.863 283.853   5
   3  -5 -12 3926.32 1295.30   5
   3  -5 -11 8231.07 1824.88   5
   3  -5 -10 1036.06 588.763   5
   3  -5  -9 5467.52 1376.84   5
   3  -5  -9 5617.85 1102.71   4
   3  -5  -8 5195.19 1296.67   5
   3  -5  -8 6494.57 1144.26   4
   3  -5  -7 6488.32 1317.54   5
   3  -5  -7 7533.42 1191.53   4
   3  -5  -6 2040.94 824.434   5
   3  -5  -6 2051.56 614.154   4
  -3   5   5 24803.0 2241.09   6
   3  -5  -5 24790.8 2528.19   5
  -3   5   4 12190.9 1504.64   6
   3  -5  -4 10860.7 1566.40   5
  -3   5   3 28146.7 2301.74   6
   3  -5  -3 25798.8 2440.74   5
   3  -5  -2 8646.12 1354.63   5
  -3   5   2 10375.2 1351.54   6
   3  -5  -1 49316.5 3393.33   5
  -3   5   1 44977.6 3038.01   6
   3  -5   0 18663.6 2032.39   5
  -3   5   0 18941.6 1971.28   6
  -3   5  -1 2960.49 752.247   6
  -3   5  -2 24610.2 2457.02   6
  -3   5  -3 20730.4 2304.90   6
  -3   5  -4 5782.20 1266.03   6
  -3   5  -5 2262.59 909.491   6
  -3   5  -6 713.264 617.998   6
  -3   5  -7 3184.73 962.825   6
  -3   5  -8 1696.60 797.443   6
  -3   5  -9-371.141 709.721   6
  -3   5 -10 3159.56 1304.22   6
   3  -4 -13 1268.01 788.230   5
   3  -4 -12-204.317 466.922   5
   3  -4 -11 463.120 749.774   5
   3  -4 -10 18287.8 2637.23   5
   3  -4  -9-143.345 311.470   5
   3  -4  -8 8900.63 1683.77   5
   3  -4  -8 10542.3 1378.77   4
   3  -4  -7 22067.3 1948.93   4
   3  -4  -7 23085.2 2618.99   5
   3  -4  -6 28471.7 2142.40   4
   3  -4  -6 29519.2 2853.95   5
   3  -4  -5 467.423 204.788   5
  -3   4   4 21788.8 1904.96   6
   3  -4  -4 21173.1 2188.45   5
  -3   4   3 29028.3 2163.85   6
   3  -4  -3 29183.8 2476.54   5
   3  -4  -2 15874.7 1803.83   5
  -3   4   2 17751.2 1655.15   6
   3  -4  -1 72724.4 4050.44   5
  -3   4   1 74476.9 3701.64   6
   3  -4   0 59679.8 3639.42   5
  -3   4   0 59352.9 3371.88   6
  -3   4  -1 180.120 71.2536   1
  -3   4  -1 15.5500 291.351   6
  -3   4  -2 5400.11 1024.51   6
  -3   4  -3 22907.6 2317.27   6
  -3   4  -4 3153.92 854.572   6
  -3   4  -5 3951.36 960.425   6
  -3   4  -6 4187.34 1078.65   6
  -3   4  -7 5596.00 1351.64   6
  -3   4  -8 662.353 530.757   6
  -3   4  -9 3580.04 1188.58   6
  -3   4 -10 1076.69 606.033   6
  -3   4 -11-547.398 553.235   6
   3  -3 -13 791.408 596.746   5
   3  -3 -12 1803.95 928.536   5
   3  -3 -11 3206.44 1087.36   5
   3  -3 -10 718.996 531.898   5
   3  -3  -9 11994.2 2031.43   5
   3  -3  -8 20616.7 1843.31   4
   3  -3  -8 22512.0 2688.02   5
   3  -3  -7 514.448 387.018   5
   3  -3  -7 674.377 329.521   4
   3  -3  -6 40934.6 2412.20   4
   3  -3  -6 39326.9 3282.94   5
   3  -3  -5 16058.4 1380.84   4
   3  -3  -5 16269.3 2028.33   5
   3  -3  -4-190.642 296.842   5
  -3   3   4-158.681 182.964   6
   3  -3  -3 88128.6 4500.72   5
  -3   3   3 85116.3 3649.20   6
   3  -3  -2 29124.0 2423.73   5
  -3   3   2 30110.1 1978.55   6
   3  -3  -1 10137.6 1380.43   5
  -3   3   1 8703.81 1068.92   6
   3  -3   0 8798.63 1309.59   5
  -3   3   0 6918.93 954.555   6
  -3   3  -1 44987.7 2834.00   6
  -3   3  -2 3352.51 772.681   6
  -3   3  -3 30146.8 2473.45   6
  -3   3  -4 50535.2 3488.41   6
  -3   3  -5 2142.71 658.147   6
   3  -3   6 752.402 247.236   2
  -3   3  -6 203.832 337.926   6
  -3   3  -7 15625.8 2268.26   6
  -3   3  -8-208.868 434.495   6
  -3   3  -9 2116.69 893.563   6
  -3   3 -10 2060.72 882.710   6
  -3   3 -11 306.849 383.224   6
  -3   3 -12-416.915 487.399   6
   3  -2 -13 3508.06 1466.33   5
   3  -2 -12 2845.54 1147.18   5
   3  -2 -11 4587.91 1378.88   5
   3  -2 -10 1566.31 767.825   5
   3  -2  -9 17641.0 2542.51   5
   3  -2  -8 5185.32 1246.94   5
   3  -2  -7 16832.0 1438.17   4
   3  -2  -7 14547.8 2051.45   5
   3  -2  -6 17352.4 1373.98   4
   3  -2  -6 21798.4 2408.71   5
   3  -2  -5 12633.0 1082.35   4
   3  -2  -5 11394.5 1645.85   5
   3  -2  -4 13262.0 1057.69   6
   3  -2  -4 16971.1 1202.76   4
   3  -2  -4 16547.7 1863.35   5
   3  -2  -3 3665.57 806.511   5
  -3   2   3 3178.36 512.014   6
   3  -2  -3 2833.20 482.467   6
   3  -2  -2 106793. 3853.92   6
  -3   2   2 114424. 3986.80   6
   3  -2  -1 123104. 5135.36   5
  -3   2   1 116090. 4098.52   6
   3  -2   0 37659.7 2608.49   5
  -3   2   0 35519.1 2103.52   6
  -3   2  -1 85483.6 3723.77   6
  -3   2  -2 46282.8 2023.18   1
  -3   2  -2 42940.0 2677.65   6
   3  -2   3 2528.36 383.800   3
  -3   2  -3 2526.84 639.081   6
  -3   2  -4 2712.41 743.910   6
  -3   2  -5 1913.78 652.890   6
   3  -2   6 15012.6 1030.24   2
  -3   2  -6 17436.5 2163.39   6
  -3   2  -7 23508.5 2707.41   6
  -3   2  -8 12756.2 2067.15   6
  -3   2  -9 4599.13 1322.23   6
  -3   2 -10-478.445 698.912   6
  -3   2 -11 1181.05 640.508   6
  -3   2 -12-5.35914 211.114   6
  -3   2 -13 2037.80 1119.00   6
   3  -1 -12 1507.87 888.640   5
   3  -1 -11 231.483 358.349   5
   3  -1 -10 7137.81 1746.73   5
   3  -1  -9 4672.20 1295.70   5
   3  -1  -8 82.9286 384.207   5
   3  -1  -7 35644.9 3251.13   5
   3  -1  -6 12188.3 1762.53   5
   3  -1  -6 9017.03 823.564   4
   3  -1  -5 5787.93 1184.22   5
   3  -1  -5 3939.43 524.998   6
   3  -1  -5 4462.53 522.709   4
   3  -1  -4 39020.4 1616.28   4
   3  -1  -4 43357.2 3095.08   5
   3  -1  -4 38138.1 1641.38   6
   3  -1  -3 8211.06 667.317   6
   3  -1  -3 11193.8 758.242   4
   3  -1  -3 11380.6 1450.22   5
  -3   1   2 44276.8 1795.24   6
   3  -1  -2 45676.1 1799.73   6
   3  -1  -1 24506.8 1996.88   5
   3  -1  -1 20319.0 1297.71   4
  -3   1   1 21461.7 1237.82   6
   3  -1  -1 20395.1 1236.78   6
   3  -1   0 70355.9 3543.08   5
  -3   1   0 67411.0 2767.80   6
  -3   1  -1 3029.52 533.183   6
  -3   1  -2 88997.4 3346.72   1
  -3   1  -2 85861.3 3720.33   6
  -3   1  -3 68494.1 3459.91   6
  -3   1  -3 64206.8 3431.46   4
  -3   1  -3 65639.5 2758.03   1
   3  -1   3 62202.8 2513.94   3
  -3   1  -4 378.773 298.426   4
  -3   1  -5 20859.3 2142.89   4
  -3   1  -6 51740.2 3727.29   4
  -3   1  -7 343.224 328.501   4
  -3   1  -8 6010.41 1366.43   4
  -3   1  -9 2774.87 935.437   4
  -3   1 -10 2287.07 1040.69   4
  -3   1 -11-146.837 446.611   4
  -3   1 -12 2410.96 1110.78   4
  -3   1 -12 2411.36 1062.03   6
  -3   1 -13 1255.98 903.207   4
  -3   1 -13 146.974 336.887   6
   3   0 -12-530.748 536.489   5
   3   0 -11 2251.95 989.856   5
   3   0 -10-444.758 510.502   5
   3   0  -9 7493.39 1749.12   5
   3   0  -8 3886.16 1143.38   5
   3   0  -7 6535.25 1412.78   5
   3   0  -6 13842.0 1910.27   5
   3   0  -5 1008.48 453.826   5
   3   0  -5 397.242 146.762   6
   3   0  -4 8558.66 1313.81   5
   3   0  -4 7168.64 515.082   6
   3   0  -3 213488. 7576.23   5
   3   0  -2 47636.8 2893.68   5
   3   0  -1 356.523 124.350   4
   3   0  -1 143.677 230.014   5
  -3   0   1 75.5705 47.5425   6
   3   0   0 74830.8 3513.98   5
  -3   0   0 69594.8 2386.06   6
   3   0   0 68763.2 2540.99   4
   3   0   1 123464. 4748.88   5
  -3   0  -1 119863. 4074.62   4
  -3   0  -1 115068. 3879.86   6
   3   0   2 2051.38 461.112   3
   3   0   2 1544.21 304.966   2
  -3   0  -2 2005.52 488.660   4
  -3   0  -3 20200.7 1538.98   1
   3   0   3 17238.1 878.609   2
  -3   0  -3 17864.7 1635.51   4
   3   0   3 18407.4 1340.30   3
  -3   0  -4 171191. 6334.80   4
  -3   0  -4 168262. 5556.23   1
  -3   0  -5 1095.67 458.453   4
  -3   0  -6 42176.5 3252.63   4
  -3   0  -7 28081.2 2756.12   4
  -3   0  -7 23389.0 1320.92   3
  -3   0  -8 831.974 451.525   4
  -3   0  -9-417.785 541.162   4
  -3   0 -10 11364.8 2078.31   4
  -3   0 -11 2753.23 1022.87   4
  -3   0 -12 1581.11 894.763   4
  -3   0 -13-35.5909 280.042   4
  -3   0 -14 1082.94 813.204   4
   3   1 -12 3335.89 1334.60   5
   3   1 -11 165.803 385.960   5
   3   1 -10 2248.21 1092.40   5
   3   1  -9 8385.99 1802.23   5
   3   1  -8 13737.8 2108.34   5
   3   1  -7 4338.49 1161.52   5
   3   1  -6 3838.85 1043.30   5
   3   1  -6 4057.73 637.463   6
   3   1  -5 1057.48 528.816   5
   3   1  -5 768.578 226.956   6
   3   1  -4 27943.1 1116.43   6
   3   1  -4 28441.6 1180.30   6
   3   1  -4 28354.4 2453.25   5
   3   1  -3 3751.38 800.200   5
   3   1  -2 28758.7 2186.42   5
   3   1  -1 39283.0 2430.61   5
   3   1   0 28709.1 2014.99   5
  -3  -1   0 26575.3 1065.57   6
  -3  -1   0 26825.2 1271.25   4
   3   1   0 28913.0 1331.04   4
   3   1   1 193959. 6272.58   5
  -3  -1  -1 189691. 5449.54   4
   3   1   1 193041. 5501.94   4
  -3  -1  -2 12935.6 1172.74   4
   3   1   2 11091.2 1181.38   3
  -3  -1  -3 14561.6 1411.24   1
  -3  -1  -3 13489.8 1333.39   4
   3   1   3 13774.8 1275.73   3
  -3  -1  -4 45844.2 2838.47   4
  -3  -1  -4 45467.4 2620.62   1
  -3  -1  -5 31034.9 2490.85   4
  -3  -1  -6 206.331 165.658   4
  -3  -1  -7 41848.8 3344.47   4
  -3  -1  -8 34229.1 3204.63   4
  -3  -1  -9 45815.3 3940.53   4
  -3  -1 -10 9296.72 1801.25   4
  -3  -1 -11 27073.3 3379.23   4
  -3  -1 -12 4445.81 1408.92   4
  -3  -1 -13 22.7842 179.864   4
  -3  -1 -14 1292.50 882.237   4
   3   2 -12-313.007 419.191   5
   3   2 -11-507.810 500.872   5
   3   2 -10 4135.69 1338.85   5
   3   2  -9 4.99708 364.079   5
   3   2  -8 1542.57 780.146   5
   3   2  -7 5669.79 1327.49   5
   3   2  -6-218.958 251.611   5
   3   2  -5 25402.6 1575.56   6
   3   2  -5 25625.7 2515.22   5
   3   2  -4 113827. 3457.32   6
  -3  -2   4 128825. 5921.77   2
   3   2  -4 120309. 5466.94   5
   3   2  -3 7291.01 1157.43   5
   3   2  -3 7562.99 459.736   6
   3   2  -2 34206.6 2401.63   5
  -3  -2   1 54594.3 3190.13   2
   3   2  -1 55025.6 2928.51   5
  -3  -2   0 83272.5 3728.36   2
  -3  -2   0 69863.3 2157.59   6
  -3  -2   0 77200.6 2379.79   4
   3   2   0 79703.8 3942.42   3
   3   2   0 79089.0 3404.65   5
   3   2   1 3662.93 737.343   3
   3   2   1 4146.35 676.531   5
  -3  -2  -1 3892.95 532.840   4
   3   2   1 3822.12 545.116   4
  -3  -2  -1 4298.23 713.561   2
   3   2   2 49560.0 2571.98   5
  -3  -2  -2 50663.3 2477.45   2
  -3  -2  -2 51165.2 2441.19   4
   3   2   2 52061.8 2866.13   3
  -3  -2  -3 174132. 5149.77   2
  -3  -2  -3 182624. 6453.78   1
  -3  -2  -3 182788. 5942.73   4
   3   2   3 190049. 6218.95   3
  -3  -2  -4 1554.68 452.625   1
  -3  -2  -4 790.125 352.368   4
  -3  -2  -4 1045.82 232.233   2
  -3  -2  -5 69222.2 2010.86   2
  -3  -2  -5 73966.7 3851.07   4
  -3  -2  -6 40427.3 2972.23   4
  -3  -2  -7 1855.89 660.502   4
  -3  -2  -8 13899.3 1973.29   4
  -3  -2  -9 340.394 305.417   4
  -3  -2 -10 12611.3 2121.01   4
  -3  -2 -11 4985.93 1278.13   4
  -3  -2 -12 1982.73 927.818   4
  -3  -2 -13 655.224 708.642   4
  -3  -2 -14 1893.91 1094.44   4
  -3  -2 -15 1309.41 780.357   4
   3   3 -11 256.879 564.400   5
   3   3 -10 1228.45 725.221   5
   3   3  -9 1791.84 919.951   5
   3   3  -8 2298.66 880.121   5
   3   3  -7 411.008 403.679   5
   3   3  -6 3264.04 989.758   5
  -3  -3   6 3521.99 999.474   2
   3   3  -5 431.950 406.333   5
  -3  -3   5 967.160 565.671   2
  -3  -3   4 4654.18 1022.07   2
   3   3  -4 6677.27 1209.53   5
   3   3  -4 4977.47 635.972   6
   3   3  -3 16343.6 1040.61   6
  -3  -3   3 18317.3 2065.01   2
  -3  -3   3 15329.0 802.301   4
   3   3  -3 18319.7 1816.18   5
   3   3  -2 287.602 182.032   5
   3   3  -2 450.961 145.155   6
  -3  -3   2 500.386 126.829   4
  -3  -3   2 420.922 115.129   4
   3   3  -1 2654.07 603.225   5
  -3  -3   1 2383.29 330.128   6
  -3  -3   1 2495.80 334.594   4
  -3  -3   1 1515.34 478.105   2
  -3  -3   0 125877. 5158.78   2
  -3  -3   0 115636. 3493.84   6
  -3  -3   0 120210. 3598.62   4
   3   3   0 124020. 5314.16   3
   3   3   0 119969. 4368.35   5
  -3  -3  -1 31848.7 2212.11   2
  -3  -3  -1 26208.6 1486.13   6
  -3  -3  -1 30104.5 1691.35   4
   3   3   1 31805.2 2404.51   3
   3   3   1 30294.7 1816.43   5
   3   3   2 7806.35 879.674   5
  -3  -3  -2 6567.14 914.323   2
  -3  -3  -2 7879.96 903.540   4
   3   3   2 7646.89 1094.28   3
  -3  -3  -3 144008. 4937.79   2
  -3  -3  -3 157282. 5389.36   4
  -3  -3  -4 77866.1 3797.28   4
  -3  -3  -5 66330.2 3712.70   4
  -3  -3  -6 48097.2 3304.83   4
  -3  -3  -7 92106.5 4979.46   4
  -3  -3  -8 13323.3 1864.00   4
  -3  -3  -9 35239.8 3293.15   4
  -3  -3 -10 24843.4 2902.91   4
  -3  -3 -11-350.911 616.604   4
  -3  -3 -12-717.328 622.116   4
  -3  -3 -13 10148.1 2124.92   4
  -3  -3 -14 1073.68 741.389   4
  -3  -3 -15 2.91906 214.426   4
   3   4 -10 511.481 439.711   5
   3   4 -10-410.880 432.370   3
   3   4  -9 700.341 547.815   5
   3   4  -9 745.394 567.452   3
   3   4  -8 2065.06 846.734   5
   3   4  -8 1028.27 642.868   3
   3   4  -7 2478.30 890.469   5
   3   4  -7 780.303 463.927   3
  -3  -4   7 4118.51 1183.59   2
   3   4  -6 6492.26 1333.86   5
  -3  -4   6 6876.23 1510.06   2
   3   4  -6 5548.21 1320.09   3
  -3  -4   5 17242.6 2325.66   2
   3   4  -5 15490.7 2147.66   3
   3   4  -5 17852.9 2104.40   5
   3   4  -4 3245.94 853.582   5
   3   4  -4 2584.73 792.794   3
   3   4  -4 2982.14 575.840   6
  -3  -4   4 4554.11 1160.57   2
   3   4  -3 18951.5 2161.20   3
  -3  -4   3 21841.8 2384.85   2
   3   4  -3 19538.2 1400.52   6
   3   4  -3 17598.1 1843.46   5
  -3  -4   2 20866.6 2259.87   2
   3   4  -2 19813.4 1315.47   6
   3   4  -2 19928.4 2191.29   3
   3   4  -2 21924.8 1866.94   5
  -3  -4   1 22352.3 2240.05   2
   3   4  -1 20756.5 1310.24   6
  -3  -4   1 17176.6 1268.57   6
   3   4  -1 20773.4 2163.80   3
  -3  -4   1 23518.6 1346.23   4
   3   4  -1 22154.1 1695.00   5
  -3  -4   0 37721.5 2831.01   2
  -3  -4   0 34645.9 1895.31   6
   3   4   0 41096.5 2941.81   3
  -3  -4   0 40107.6 1962.24   4
   3   4   0 36452.6 2113.96   5
  -3  -4  -1 68809.2 3717.83   2
   3   4   1 68555.4 3840.65   3
  -3  -4  -1 67849.1 2907.34   4
   3   4   1 70715.3 2839.91   5
  -3  -4  -2 2322.79 530.059   4
   3   4   2 1824.93 388.076   5
   3   4   2 1301.05 405.967   3
   3   4   3 46923.2 2222.01   5
  -3  -4  -3 48647.5 2722.70   4
  -3  -4  -4 39808.0 2625.74   4
  -3  -4  -5 32281.0 2483.44   4
  -3  -4  -6 10446.3 1494.34   4
  -3  -4  -7 23655.7 2396.02   4
  -3  -4  -8 17634.4 2200.76   4
  -3  -4  -9 96.2169 362.581   4
  -3  -4 -10 22239.3 2709.52   4
  -3  -4 -11 33014.8 3497.50   4
  -3  -4 -12 3149.80 1017.30   4
  -3  -4 -13 11362.2 2257.96   4
  -3  -4 -14 3341.43 1260.60   4
  -3  -4 -15 87.2481 298.282   4
   3   5  -9 263.136 525.223   3
   3   5  -8 234.950 133.583   5
   3   5  -8 403.305 252.642   3
  -3  -5   8 15.3918 172.518   2
   3   5  -7 1412.76 735.242   5
   3   5  -7 643.154 462.918   3
  -3  -5   7-132.111 353.621   2
   3   5  -6 566.467 444.625   5
  -3  -5   6 1077.87 635.076   2
   3   5  -6 1099.84 545.328   3
   3   5  -5 10818.4 1842.86   3
   3   5  -5 10820.6 1658.88   5
  -3  -5   5 11939.8 2096.88   2
   3   5  -4 11365.9 1776.30   3
   3   5  -4 11264.1 1557.89   5
  -3  -5   4 12075.7 1982.67   2
   3   5  -3 2911.35 911.357   3
   3   5  -3 3296.42 772.360   5
   3   5  -3 3272.86 630.175   6
  -3  -5   3 5240.35 1194.09   2
   3   5  -2 12981.0 1229.58   6
  -3  -5   2 11734.5 1836.46   2
   3   5  -2 12786.1 1818.49   3
   3   5  -2 14898.6 1511.55   5
  -3  -5   1 44622.3 3460.82   2
   3   5  -1 43691.9 2327.09   6
   3   5  -1 44381.0 3320.21   3
   3   5  -1 45322.4 2492.58   5
   3   5   0 4153.99 612.005   5
   3   5   0 4543.38 700.329   6
  -3  -5   0 4674.52 1040.45   2
  -3  -5   0 4649.10 727.317   4
   3   5   0 5232.74 1064.07   3
  -3  -5  -1 3383.74 625.064   4
   3   5   1 4767.51 1044.15   3
   3   5   1 3893.97 521.571   5
  -3  -5  -2 36690.2 2320.98   4
   3   5   2 35096.5 1609.00   5
   3   5   3 42477.5 1858.48   5
  -3  -5  -3 42573.3 2631.17   4
  -3  -5  -4 3960.98 818.923   4
   3   5   4 3378.81 498.931   5
  -3  -5  -5 103386. 4862.52   4
  -3  -5  -6 80718.3 4464.46   4
  -3  -5  -7 11946.4 1687.10   4
  -3  -5  -8 100196. 5567.40   4
  -3  -5  -9 1682.78 758.320   4
  -3  -5 -10 3539.00 1118.43   4
  -3  -5 -11 9376.89 1868.82   4
  -3  -5 -12 11707.7 2101.69   4
  -3  -5 -13-373.337 482.342   4
  -3  -5 -14 503.217 541.433   4
  -3  -5 -15-210.537 377.959   4
  -3  -6   8 1783.84 914.888   2
   3   6  -8 194.331 415.431   3
   3   6  -7 2670.04 947.192   3
  -3  -6   7 1634.63 897.060   2
  -3  -6   6 3054.62 1083.86   2
   3   6  -6 1628.63 654.121   3
  -3  -6   5 371.234 405.651   2
   3   6  -5-153.707 116.251   3
   3   6  -4 189.904 196.608   5
  -3  -6   4 399.069 368.609   2
   3   6  -4 163.787 283.752   3
  -3  -6   3-21.7207 376.579   2
   3   6  -3 385.374 186.666   6
   3   6  -3 208.304 162.937   3
   3   6  -2 2534.00 585.759   5
   3   6  -2 2552.58 604.177   6
  -3  -6   2 1921.67 757.781   2
   3   6  -2 3080.69 882.415   3
   3   6  -1 2945.40 589.431   5
   3   6  -1 2010.49 544.596   6
  -3  -6   1 2116.36 792.563   2
   3   6  -1 1807.01 681.889   3
   3   6   0 34519.0 2279.80   6
   3   6   0 33902.7 2914.43   3
   3   6   0 34873.8 1793.98   5
   3   6   1 3216.78 686.822   6
  -3  -6  -1 2980.98 639.364   4
   3   6   1 3285.47 409.094   5
  -3  -6  -2 12520.3 1397.46   4
  -3  -6  -3 119569. 5791.62   1
  -3  -6  -3 107456. 4847.62   4
   3   6   4 24188.8 1176.03   5
  -3  -6  -4 26134.8 2226.32   4
   3   6   4 28199.2 1209.82   5
  -3  -6  -5 34604.9 2716.55   4
   3   6   5 33009.3 1648.63   5
  -3  -6  -6 31554.1 2746.73   4
  -3  -6  -6 39544.3 3055.95   1
  -3  -6  -7 4603.75 1061.89   4
  -3  -6  -8 661.953 378.096   4
  -3  -6  -9 18195.0 2341.93   4
  -3  -6 -10 31512.2 3278.62   4
  -3  -6 -11-54.5612 348.166   4
  -3  -6 -12 9966.01 2010.96   4
  -3  -6 -13 6432.16 1629.34   4
  -3  -6 -14 133.194 462.705   4
  -3  -6 -15 4460.64 1524.73   4
  -3  -7   7 247.667 280.171   2
   3   7  -7 12.0139 142.803   3
   3   7  -6 400.054 307.272   3
  -3  -7   6 356.058 465.244   2
  -3  -7   5 4008.87 1354.48   2
   3   7  -5 2769.09 962.152   3
  -3  -7   4-638.334 597.176   2
   3   7  -4 547.116 539.944   3
  -3  -7   3 20624.9 2806.00   2
   3   7  -3 19381.5 2439.70   3
  -3  -7   2 18272.0 2555.21   2
   3   7  -2 16642.6 1771.37   6
   3   7  -2 17514.3 2242.97   3
  -3  -7   1-341.054 651.625   2
   3   7  -1-216.320 224.843   6
   3   7   0 25207.5 2107.38   6
   3   7   1 20295.1 1893.54   6
   3   7   2 1421.94 526.025   6
  -3  -7  -2 1501.90 536.633   4
  -3  -7  -3 42528.8 3462.42   1
  -3  -7  -3 35512.3 2686.26   4
  -3  -7  -4 35666.4 3061.65   1
  -3  -7  -4 37068.3 2856.66   4
  -3  -7  -5 29626.8 2769.07   1
  -3  -7  -5 30840.0 2662.84   4
  -3  -7  -6-238.919 417.383   4
  -3  -7  -6-124.696 269.446   1
  -3  -7  -7 18393.4 2203.13   4
  -3  -7  -8 27224.0 2833.87   4
  -3  -7  -9 918.703 447.750   4
  -3  -7 -10 38938.3 3689.57   4
  -3  -7 -11 15023.6 2381.08   4
  -3  -7 -12 1102.02 552.955   4
  -3  -7 -13 5270.03 1511.19   4
  -3  -7 -14 6860.14 1835.09   4
  -3  -7 -15 1147.92 524.573   4
   3   8  -6 553.348 486.327   3
  -3  -8   6 152.323 482.617   2
   3   8  -5 1239.88 651.938   3
  -3  -8   5 457.846 498.091   2
  -3  -8   4 760.920 570.151   2
  -3  -8   3 842.757 421.037   2
  -3  -8   2-257.760 253.479   2
  -3  -8   1 2981.35 955.075   2
   3   8  -1 2748.46 739.034   6
   3   8   0-261.435 278.205   6
   3   8   1 2028.18 683.124   6
  -3  -8  -2 24947.0 2759.49   1
  -3  -8  -2 20727.2 2165.26   4
  -3  -8  -3 4903.91 1205.10   1
  -3  -8  -3 5721.99 1123.85   4
  -3  -8  -4 9256.84 1481.43   4
  -3  -8  -4 11731.6 1793.60   1
  -3  -8  -5 27470.0 2772.01   1
  -3  -8  -5 25725.1 2592.31   4
  -3  -8  -6 389.155 254.667   4
  -3  -8  -6 449.612 287.254   1
  -3  -8  -7 26867.4 2739.10   4
  -3  -8  -8 85007.4 5322.95   4
  -3  -8  -9 6641.70 1463.70   4
  -3  -8 -10 9478.46 1776.68   4
  -3  -8 -11 19404.7 2768.89   4
  -3  -8 -12 5237.06 1484.63   4
  -3  -8 -13-767.492 514.483   4
  -3  -8 -14 8529.45 2049.95   4
  -3  -8 -15 3277.92 1334.12   4
  -3  -9   5 1186.03 835.096   2
  -3  -9   4 1201.87 868.276   2
  -3  -9   3 315.211 265.621   2
  -3  -9   2-603.025 561.341   2
  -3  -9   1 9651.36 1978.06   2
   3   9  -1 9746.89 1561.67   6
   3   9   0 6385.88 1237.19   6
   3   9   1 871.726 501.829   6
  -3  -9  -2 6727.94 1492.61   1
   3   9   2 9342.07 1485.80   6
   3   9   3 43542.6 3346.58   6
  -3  -9  -3 46512.2 3935.15   1
  -3  -9  -3 42172.2 3368.26   4
  -3  -9  -4 6282.70 1294.28   4
  -3  -9  -4 7597.92 1449.71   1
  -3  -9  -5 11534.0 1787.12   4
  -3  -9  -5 12944.9 1976.44   1
  -3  -9  -6 11864.4 1852.40   4
  -3  -9  -6 11619.6 1900.78   1
  -3  -9  -7 938.813 504.541   4
  -3  -9  -8 997.880 606.926   4
  -3  -9  -9 9266.34 1763.03   4
  -3  -9 -10 3150.43 1110.97   4
  -3  -9 -11 306.812 382.222   4
  -3  -9 -12 12910.9 2383.00   4
  -3  -9 -13 6819.99 1770.53   4
  -3  -9 -14 188.528 335.657   4
  -3  -9 -15 8129.57 2137.93   4
  -3 -10   3 1457.61 843.880   2
  -3 -10   2 4436.15 1413.50   2
  -3 -10   1-1417.45 834.786   2
   3  10   0 2543.38 818.984   6
   3  10   1 1226.80 558.305   6
  -3 -10  -1 1659.05 746.530   1
  -3 -10  -2 422.216 265.437   1
   3  10   2 2432.08 787.207   6
   3  10   3 14773.3 2030.08   6
  -3 -10  -3 14699.4 2256.75   1
  -3 -10  -3 15383.4 2126.59   4
  -3 -10  -4-650.022 561.380   1
  -3 -10  -4 283.366 424.038   4
  -3 -10  -5-253.588 222.541   4
  -3 -10  -5-393.388 405.110   1
  -3 -10  -6 6106.46 1396.58   1
  -3 -10  -6 5224.43 1376.54   4
  -3 -10  -7 23376.7 2796.13   4
  -3 -10  -8 9731.68 1827.55   4
  -3 -10  -9 13981.5 2244.53   4
  -3 -10 -10 16641.1 2537.85   4
  -3 -10 -11 8082.32 1807.54   4
  -3 -10 -12 3148.62 1170.77   4
  -3 -10 -13 7011.52 1794.07   4
  -3 -10 -14 2202.06 1077.66   4
  -3 -11   2-371.439 472.960   2
  -3 -11   1-571.406 582.294   2
  -3 -11   1-339.827 394.606   1
  -3 -11   0-833.840 596.452   1
   3  11   1 2940.02 977.282   6
  -3 -11  -1 2174.42 902.259   1
   3  11   2 14028.6 2105.56   6
  -3 -11  -2 12250.4 2158.06   1
   3  11   3 565.995 303.703   6
  -3 -11  -3 290.924 229.461   4
  -3 -11  -3 40.0782 237.711   1
  -3 -11  -4 1699.97 865.533   1
  -3 -11  -4 1400.88 691.479   4
  -3 -11  -5 6876.68 1578.58   1
  -3 -11  -5 7595.51 1609.07   4
  -3 -11  -6 362.213 322.482   1
  -3 -11  -6 1015.78 673.227   4
  -3 -11  -7 9845.15 1899.53   4
  -3 -11  -8 18367.4 2642.27   4
  -3 -11  -9 569.660 500.460   4
  -3 -11 -10 1220.89 742.611   4
  -3 -11 -11 10217.9 2091.59   4
  -3 -11 -12 2387.67 1057.75   4
  -3 -11 -13 1260.16 714.427   4
  -3 -12  -1 99.1870 300.513   1
   3  12   2 688.956 531.092   6
  -3 -12  -2 176.072 200.155   1
  -3 -12  -3-214.336 311.229   1
   3  12   3 139.049 263.039   6
  -3 -12  -3 320.351 161.880   4
  -3 -12  -4-232.466 368.567   4
  -3 -12  -4-120.983 176.584   1
   3  12   4-85.1945 401.048   6
  -3 -12  -5 2177.67 866.557   4
  -3 -12  -5 6041.83 1507.57   1
  -3 -12  -6 9012.76 1851.30   4
  -3 -12  -7 442.424 410.508   4
  -3 -12  -8 1949.42 899.888   4
  -3 -12  -9 2002.52 891.568   4
  -3 -12 -10 1242.97 706.158   4
  -3 -12 -11 295.992 292.838   4
  -3 -12 -12 13918.0 2609.31   4
   3  13   3 1747.92 830.521   6
  -3 -13  -3 1463.42 800.068   4
  -3 -13  -3 873.187 626.235   1
   3  13   4 885.996 452.520   6
  -3 -13  -4 1.09247 275.397   1
  -3 -13  -4 482.660 405.030   4
  -3 -13  -5-272.443 369.114   4
  -3 -13  -5 993.598 678.741   1
  -3 -13  -6 3647.33 1244.55   4
  -3 -13  -7 1379.43 818.931   4
  -3 -13  -8-179.679 565.319   4
  -3 -13  -9 3189.89 1312.51   4
  -3 -13 -10 7995.56 1880.44   4
  -3 -13 -11 136.500 352.524   4
   3  14   4-193.364 313.758   6
  -3 -14  -4 1298.16 846.056   4
  -3 -14  -5 2210.00 1064.30   4
  -3 -14  -6-382.434 437.796   4
  -3 -14  -7 2961.82 1208.25   4
  -3 -14  -8 2688.81 1145.92   4
  -3 -14  -9 1382.27 916.061   4
   4 -12  -9 244.536 269.213   5
   4 -12  -8-414.372 448.530   5
  -4  12   8 840.304 686.263   6
   4 -12  -7 678.798 578.348   5
  -4  12   7-491.333 501.498   6
   4 -12  -6-52.4786 294.999   5
  -4  12   6 374.604 524.538   6
   4 -12  -5-253.053 393.682   5
  -4  12   5-339.695 424.630   6
   4 -12  -4 1082.99 709.520   5
  -4  12   4 451.791 330.357   6
   4 -12  -3-305.114 381.202   5
  -4  12   3 464.522 484.683   6
   4 -11 -10-221.814 355.318   5
   4 -11  -9-181.462 335.238   5
   4 -11  -9 5.06171 237.878   4
   4 -11  -8-788.415 596.942   5
   4 -11  -7 51.9767 358.824   5
  -4  11   7 734.522 590.253   6
   4 -11  -6-501.881 568.178   5
  -4  11   6 1052.52 757.734   6
   4 -11  -5 1229.35 772.757   5
  -4  11   5 2303.19 1025.88   6
   4 -11  -4-284.147 270.656   5
  -4  11   4 775.205 659.003   6
   4 -11  -3 1132.53 643.810   5
  -4  11   3-33.1739 457.184   6
   4 -11  -2 518.952 523.451   5
  -4  11   2 318.620 291.961   6
   4 -11  -1-206.779 174.868   5
  -4  11   1 646.006 665.192   6
   4 -11   0 243.184 400.345   5
  -4  11   0 150.666 166.898   6
   4 -11   1 126.682 275.854   5
   4 -11   2 439.308 465.745   5
   4 -10 -10 751.510 613.908   5
   4 -10  -9-73.4994 212.797   5
   4 -10  -8 2925.89 1139.25   5
   4 -10  -7 1204.41 668.434   5
  -4  10   7 2314.31 1003.74   6
   4 -10  -6-132.572 340.905   5
  -4  10   6 75.0794 214.747   6
   4 -10  -5-0.97098 551.408   5
  -4  10   5 105.853 455.740   6
   4 -10  -4 3375.59 1128.16   5
  -4  10   4 3825.52 1195.89   6
  -4  10   3-232.537 424.974   6
   4 -10  -3-830.731 642.892   5
   4 -10  -2-260.612 482.313   5
  -4  10   2 476.586 373.427   6
   4 -10  -1 196.137 303.051   5
  -4  10   1 274.120 500.258   6
   4 -10   0-64.0977 214.718   5
  -4  10   0 153.689 244.912   6
   4 -10   1-260.176 429.858   5
  -4  10  -1-67.7681 286.307   6
  -4  10  -2 485.188 452.175   6
   4 -10   2 263.081 419.123   5
   4 -10   3 833.739 681.193   5
  -4  10  -3 497.275 494.328   6
   4  -9 -11-136.331 298.369   5
   4  -9 -10 2807.60 1180.57   5
   4  -9  -9 968.119 664.585   5
   4  -9  -8 275.785 555.051   5
   4  -9  -8-383.680 308.535   4
   4  -9  -7 1225.27 703.252   5
  -4   9   7 629.428 478.978   6
   4  -9  -6-105.032 331.030   5
  -4   9   6 938.215 577.570   6
   4  -9  -5 305.881 300.545   5
  -4   9   5 83.0048 193.156   6
   4  -9  -4-354.136 551.766   5
  -4   9   4 31.0916 300.346   6
   4  -9  -3 230.049 317.446   5
  -4   9   3-117.042 328.085   6
   4  -9  -2 4183.61 1215.34   5
  -4   9   2 3814.88 1108.48   6
   4  -9  -1-59.5603 358.293   5
  -4   9   1-159.842 284.707   6
   4  -9   0 1145.32 637.184   5
  -4   9   0 1923.74 745.754   6
   4  -9   1 269.379 300.698   5
  -4   9  -1-205.709 307.015   6
   4  -9   2 1246.79 787.177   5
  -4   9  -2 1019.53 554.585   6
  -4   9  -3 1820.95 854.885   6
  -4   9  -4 207.900 227.165   6
   4  -8 -11-480.967 482.036   5
   4  -8 -10 1573.42 892.048   5
   4  -8  -9 673.558 558.104   5
   4  -8  -8 1051.27 685.484   5
   4  -8  -8 566.256 322.325   4
   4  -8  -7 1239.23 633.628   5
   4  -8  -6 7179.75 1593.46   5
  -4   8   6 5282.06 1306.88   6
  -4   8   5 12625.7 1966.60   6
   4  -8  -5 11167.9 1917.09   5
  -4   8   4-97.9655 303.447   6
   4  -8  -4 27.5613 224.029   5
   4  -8  -3 1362.22 617.578   5
  -4   8   3 2751.73 904.715   6
   4  -8  -2 3799.97 1164.93   5
  -4   8   2 4546.76 1128.53   6
   4  -8  -1-110.348 361.827   5
  -4   8   1 270.076 138.686   6
   4  -8   0 4403.69 1258.46   5
  -4   8   0 2068.99 800.580   6
   4  -8   1 310.351 524.892   5
  -4   8  -1 458.892 510.186   6
   4  -8   2 28.2754 372.029   5
  -4   8  -2 169.321 684.871   6
  -4   8  -3 4822.57 1324.30   6
  -4   8  -4 16.0945 347.675   6
  -4   8  -5 751.355 493.941   6
  -4   8  -6 1111.13 704.023   6
   4  -7 -11 2332.32 1011.18   5
   4  -7 -10 350.638 366.546   5
   4  -7  -9-600.590 583.254   5
   4  -7  -8 1482.47 896.496   5
   4  -7  -7 4822.37 1318.18   5
   4  -7  -6-274.257 430.119   5
  -4   7   6 72.0252 128.431   6
  -4   7   5-83.9479 254.556   6
   4  -7  -5 86.9005 222.024   5
   4  -7  -4 2017.65 750.474   5
  -4   7   4 2053.25 684.927   6
   4  -7  -3 427.235 406.744   5
  -4   7   3 459.252 432.313   6
   4  -7  -2-109.169 328.843   5
  -4   7   2 319.811 421.379   6
   4  -7  -1 963.365 563.094   5
  -4   7   1 2418.70 755.198   6
   4  -7   0 1974.85 844.434   5
  -4   7   0 1727.68 690.632   6
   4  -7   1-113.245 389.358   5
  -4   7  -1 135.105 171.339   6
  -4   7  -2 9308.23 1733.34   6
  -4   7  -3 232.619 286.628   6
  -4   7  -4 1919.90 649.041   6
  -4   7  -5 1802.83 811.703   6
  -4   7  -6-56.1721 208.856   6
  -4   7  -7-407.058 408.067   6
   4  -6 -11 1348.97 979.209   5
   4  -6 -10 1185.22 516.617   5
   4  -6  -9 1847.98 796.853   5
   4  -6  -8 361.731 384.761   5
   4  -6  -7 9919.09 1856.86   5
   4  -6  -7 11616.0 1562.80   4
   4  -6  -6-112.714 536.774   5
  -4   6   5-31.9571 211.792   6
   4  -6  -5 13.2243 369.353   5
   4  -6  -4 3051.77 938.597   5
  -4   6   4 2685.24 746.784   6
   4  -6  -3 11002.0 1797.41   5
  -4   6   3 10932.9 1572.33   6
   4  -6  -2 6439.62 1378.78   5
  -4   6   2 8335.67 1363.35   6
   4  -6  -1 4372.62 1060.64   5
  -4   6   1 4739.50 1065.27   6
   4  -6   0 407.463 382.778   5
  -4   6   0 836.882 566.045   6
   4  -6   1 19383.7 2504.88   5
  -4   6  -1 22526.5 2481.62   6
  -4   6  -2 1657.91 689.726   6
  -4   6  -3 10745.3 1842.58   6
  -4   6  -4 143.637 264.024   6
  -4   6  -5-1009.76 804.093   6
  -4   6  -6-443.875 529.674   6
  -4   6  -7-980.745 673.320   6
  -4   6  -8-123.986 404.084   6
   4  -5 -12 2589.20 1187.77   5
   4  -5 -11 1308.90 799.670   5
   4  -5 -10 13.0683 274.598   5
   4  -5  -9-287.708 726.638   5
   4  -5  -8 3477.82 1155.85   5
   4  -5  -7 1416.03 679.859   5
   4  -5  -6 5061.63 1238.37   5
   4  -5  -6 4243.79 866.378   4
  -4   5   5 11782.4 1567.00   6
   4  -5  -5 13332.8 2012.46   5
   4  -5  -4 3606.73 1013.22   5
  -4   5   4 2628.62 710.169   6
   4  -5  -3 8713.65 1554.82   5
  -4   5   3 6650.08 1147.43   6
   4  -5  -2 1958.96 650.584   5
  -4   5   2 3057.81 765.133   6
   4  -5  -1 7303.32 1350.28   5
  -4   5   1 6794.38 1178.29   6
   4  -5   0 23493.7 2545.12   5
  -4   5   0 19730.5 2121.67   6
   4  -5   1 3373.48 997.428   5
  -4   5  -1 4484.43 1009.65   6
  -4   5  -2-148.778 257.389   6
  -4   5  -3-503.544 666.907   6
  -4   5  -4 1915.85 839.457   6
  -4   5  -5 7294.97 1534.08   6
  -4   5  -6 646.396 635.240   6
  -4   5  -7 5807.03 1628.99   6
  -4   5  -8 2228.75 1093.38   6
  -4   5  -9 929.908 643.248   6
   4  -4 -12 532.264 514.143   5
   4  -4 -11 4167.97 1432.82   5
   4  -4 -10 203.501 415.032   5
   4  -4  -9 1002.75 666.676   5
   4  -4  -8 5816.78 1486.86   5
   4  -4  -7 3531.23 1124.14   5
   4  -4  -6-336.906 619.190   5
   4  -4  -6 1059.19 391.510   4
   4  -4  -5 1729.53 706.173   5
  -4   4   4 20323.4 1858.51   6
   4  -4  -4 20843.1 2392.08   5
   4  -4  -3 8205.11 1446.35   5
  -4   4   3 5654.57 954.049   6
   4  -4  -2 6615.60 1302.61   5
  -4   4   2 6788.88 1046.82   6
   4  -4  -1 19909.8 2248.20   5
  -4   4   1 20772.2 1938.81   6
   4  -4   0 17960.5 2151.83   5
  -4   4   0 18311.4 1902.79   6
   4  -4   1 728.987 481.613   5
  -4   4  -1 866.289 432.332   6
  -4   4  -2 31167.8 2726.93   6
  -4   4  -3 7322.64 1356.10   6
  -4   4  -4-21.4035 428.989   6
  -4   4  -5 10929.3 1868.33   6
  -4   4  -6-219.554 404.922   6
  -4   4  -7 284.020 420.027   6
  -4   4  -8-119.834 543.586   6
  -4   4  -9 332.656 302.017   6
  -4   4 -10 386.174 466.985   6
   4  -3 -12-71.9103 237.929   5
   4  -3 -11 1118.98 874.707   5
   4  -3 -10 861.566 427.714   5
   4  -3  -9 895.293 339.114   5
   4  -3  -8 1228.12 704.961   5
   4  -3  -7 9526.16 1755.11   5
   4  -3  -6 3926.69 1102.62   5
   4  -3  -5 1365.14 630.880   5
   4  -3  -5 650.426 244.738   4
   4  -3  -4 25663.5 2596.61   5
   4  -3  -3 383.266 257.842   5
  -4   3   3 581.523 284.627   6
   4  -3  -2 830.663 522.278   5
  -4   3   2 599.784 219.371   6
   4  -3  -1 5372.46 1148.14   5
  -4   3   1 5713.02 904.545   6
   4  -3   0 17554.0 2083.50   5
  -4   3   0 16232.8 1645.95   6
   4  -3   1 5364.37 1080.73   5
  -4   3  -1 6856.60 1091.28   6
  -4   3  -2 10653.9 979.549   1
  -4   3  -2 7828.45 1243.82   6
  -4   3  -3 5818.92 1092.72   6
  -4   3  -4 7194.92 1312.18   6
  -4   3  -5 1194.36 486.888   6
  -4   3  -6 4564.03 1140.08   6
  -4   3  -7 28.4902 395.577   6
  -4   3  -8 466.828 518.894   6
  -4   3  -9 6569.54 1667.47   6
  -4   3 -10 1721.70 851.797   6
  -4   3 -11-414.936 489.580   6
   4  -2 -11 2764.68 1192.59   5
   4  -2 -10 578.257 566.898   5
   4  -2  -9 9257.16 1900.49   5
   4  -2  -8 5524.94 1356.82   5
   4  -2  -7 5733.99 1389.86   5
   4  -2  -6 6832.21 1517.75   5
   4  -2  -5 8002.30 1510.40   5
   4  -2  -4 82.5690 353.646   5
   4  -2  -4 945.803 268.733   4
   4  -2  -3 1760.16 638.480   5
  -4   2   3 1454.18 340.343   6
   4  -2  -2 8675.14 1445.87   5
  -4   2   2 5836.15 774.534   6
   4  -2  -1 1409.72 344.400   5
  -4   2   1 703.296 266.751   6
   4  -2   0 67611.1 4071.14   5
  -4   2   0 64617.5 3160.61   6
   4  -2   1 5833.71 1179.96   5
  -4   2  -1 5126.78 854.149   6
  -4   2  -2 606.794 283.300   1
  -4   2  -2 610.191 380.833   6
  -4   2  -3 109.588 71.9524   1
   4  -2   3 22.8761 163.981   3
  -4   2  -3 248.073 213.852   6
   4  -2   4 8043.76 810.564   3
  -4   2  -4 5724.13 1107.76   6
  -4   2  -5 4001.17 917.693   6
  -4   2  -6 12167.4 1847.38   6
  -4   2  -7 520.679 389.285   6
  -4   2  -8 6145.47 1428.57   6
  -4   2  -9 306.548 463.312   6
  -4   2 -10-140.484 520.839   6
  -4   2 -11-242.310 450.444   6
  -4   2 -12 335.430 468.231   6
   4  -1 -11-301.487 317.409   5
   4  -1 -10 932.651 553.261   5
   4  -1  -9 450.260 476.324   5
   4  -1  -8 2774.82 1008.63   5
   4  -1  -7 773.877 586.114   5
   4  -1  -6 3567.59 1033.26   5
   4  -1  -5 674.746 507.359   5
   4  -1  -4 6016.83 1260.37   5
   4  -1  -3 8239.53 1351.78   5
   4  -1  -3 8395.61 649.615   4
  -4   1   2 75479.1 2544.37   6
   4  -1  -2 71012.0 2745.82   4
  -4   1   1 81953.6 2982.49   6
   4  -1  -1 81894.6 4450.89   5
   4  -1   0 733.278 358.678   5
  -4   1   0 491.781 212.465   6
   4  -1   1 2656.89 676.091   5
  -4   1  -1 1928.49 473.062   6
  -4   1  -2 14832.3 1494.31   6
   4  -1   3 667.215 229.801   3
   4  -1   3 917.371 237.194   2
  -4   1  -3 825.049 330.469   1
  -4   1  -3 1431.35 531.092   6
   4  -1   4 22137.3 1122.33   2
  -4   1  -4 23106.6 2205.52   6
   4  -1   4 24391.6 1629.19   3
  -4   1  -4 24920.1 1818.51   1
  -4   1  -5 44823.0 3361.76   6
  -4   1  -5 53007.2 3720.15   4
  -4   1  -6 2271.61 838.124   6
  -4   1  -6 549.612 411.413   4
  -4   1  -7 778.815 628.443   4
  -4   1  -8 3556.44 1228.10   4
  -4   1  -9 868.667 461.224   4
  -4   1 -10-18.6517 371.628   4
  -4   1 -10 186.514 296.658   6
  -4   1 -11 934.588 878.522   4
  -4   1 -11 134.466 227.375   6
  -4   1 -12 748.767 652.228   4
  -4   1 -12 479.270 741.866   6
  -4   1 -13-180.076 183.584   6
   4   0 -11 1364.70 798.825   5
   4   0 -10 3288.52 1206.82   5
   4   0  -9 1150.09 749.619   5
   4   0  -8 918.863 720.199   5
   4   0  -7 4689.96 1212.41   5
   4   0  -6 9596.01 1702.41   5
   4   0  -5 1739.96 734.907   5
   4   0  -4 25171.2 2563.87   5
   4   0  -3 9066.66 1439.78   5
   4   0  -2 177.431 298.426   5
   4   0  -1 367.067 154.994   4
   4   0  -1 432.125 346.263   5
  -4   0   1 43.1020 51.2299   6
   4   0   0 3635.48 871.217   5
  -4   0   0 3023.79 454.009   6
   4   0   1 2039.74 663.127   5
  -4   0  -1 1469.60 381.712   6
   4   0   2 11288.2 1491.15   5
  -4   0  -2 12579.1 1279.56   6
   4   0   2 12893.1 1393.40   3
   4   0   3 18007.9 1211.89   2
  -4   0  -3 21739.6 1872.53   1
  -4   0  -3 21399.9 1841.10   6
  -4   0  -3 18900.9 1821.61   4
   4   0   3 23350.4 1836.00   3
  -4   0  -4 1033.44 380.478   1
   4   0   4 858.027 346.236   3
  -4   0  -4 879.818 378.575   4
  -4   0  -5 3136.36 855.524   4
  -4   0  -6 1610.31 544.661   4
  -4   0  -7 3185.90 1065.07   4
  -4   0  -8 12325.1 2058.60   4
  -4   0  -9 29288.0 3293.75   4
  -4   0 -10 1672.20 757.537   4
  -4   0 -11 787.322 465.803   4
  -4   0 -12 33.4980 290.460   4
  -4   0 -13-98.2570 516.000   4
   4   1 -11 498.730 558.251   5
   4   1 -10-172.048 315.511   5
   4   1  -9 68.1480 398.701   5
   4   1  -8 106.922 258.631   5
   4   1  -7 4109.53 1230.06   5
   4   1  -6 7727.60 1508.05   5
   4   1  -5 90.1741 283.875   5
   4   1  -4 29700.9 2773.47   5
   4   1  -3 14254.3 1825.23   5
   4   1  -2 3575.67 821.756   5
   4   1  -1 1363.30 450.346   5
  -4  -1   0 45828.6 1629.84   6
   4   1   0 46086.8 1990.52   4
   4   1   0 47525.6 3048.50   5
   4   1   1 119164. 5062.20   5
  -4  -1  -1 113274. 3756.72   6
  -4  -1  -1 111770. 4060.29   4
   4   1   2 7030.51 1107.86   3
   4   1   2 8538.69 1228.90   5
  -4  -1  -2 8108.98 1030.23   4
  -4  -1  -3 72293.6 3628.66   4
   4   1   3 73237.3 3652.98   3
  -4  -1  -4 15979.6 1760.14   4
   4   1   4 15396.7 1521.44   3
  -4  -1  -5 1165.59 481.680   4
  -4  -1  -6 6304.18 1218.94   4
  -4  -1  -7 26064.2 2739.48   4
  -4  -1  -8 1941.97 721.963   4
  -4  -1  -9 376.581 341.090   4
  -4  -1 -10 9024.37 1824.62   4
  -4  -1 -11 790.258 733.425   4
  -4  -1 -12 1515.98 869.530   4
  -4  -1 -13 1698.69 863.152   4
  -4  -1 -14-3.01022 500.235   4
   4   2 -11-1058.09 752.782   5
   4   2 -10 19.7512 282.775   5
   4   2  -9 1706.35 855.518   5
   4   2  -8 33.4699 135.768   5
   4   2  -7 220.217 273.189   5
   4   2  -6 3602.65 1094.83   5
   4   2  -5-381.741 490.135   5
   4   2  -4 6885.69 1307.18   5
   4   2  -3 659.405 485.761   5
   4   2  -2 34448.0 2726.17   5
  -4  -2   1 18110.5 1910.66   2
   4   2  -1 18679.1 1857.63   5
   4   2   0 10153.0 1503.05   3
  -4  -2   0 11384.9 1404.56   2
  -4  -2   0 10692.6 787.259   4
   4   2   0 10124.2 1307.65   5
   4   2   1 19390.7 1808.24   5
  -4  -2  -1 20108.3 1791.85   2
  -4  -2  -1 18768.7 1363.19   4
   4   2   1 23430.0 2176.02   3
   4   2   1 24106.1 1499.04   4
   4   2   2 4534.22 918.314   3
  -4  -2  -2 4226.47 703.511   4
  -4  -2  -2 5289.62 823.310   2
   4   2   2 4856.62 881.637   5
  -4  -2  -3 12864.4 1364.64   4
   4   2   3 14523.2 1612.08   3
  -4  -2  -4 22251.0 2019.09   4
   4   2   4 24658.9 2039.54   3
  -4  -2  -5 32029.1 2645.57   4
  -4  -2  -6 97.9363 311.341   4
  -4  -2  -7 19437.8 2329.46   4
  -4  -2  -8 18180.5 2358.14   4
  -4  -2  -9-533.845 655.123   4
  -4  -2 -10 609.759 449.040   4
  -4  -2 -11 19454.7 2850.50   4
  -4  -2 -12 8477.55 1947.48   4
  -4  -2 -13 994.538 657.235   4
  -4  -2 -14 2114.11 1014.73   4
   4   3 -10 2044.66 1004.86   5
   4   3  -9 61.7500 195.606   5
   4   3  -8 519.901 468.621   5
   4   3  -7 1533.13 783.817   5
   4   3  -6 526.805 397.436   5
   4   3  -5 17328.6 2255.25   5
  -4  -3   4 29331.7 2950.31   2
   4   3  -4 26725.2 2614.48   5
   4   3  -3 2467.37 727.946   5
  -4  -3   3 4039.21 1080.87   2
  -4  -3   2 6943.76 1295.61   2
   4   3  -2 4810.15 1152.39   3
   4   3  -2 6421.74 1139.12   5
  -4  -3   1 4658.94 985.581   2
   4   3  -1 5157.87 1070.68   3
   4   3  -1 4119.48 854.935   5
  -4  -3   0 90.6931 254.305   2
  -4  -3   0 198.195 121.989   4
   4   3   0 117.763 355.147   3
   4   3   0-40.5482 158.696   5
  -4  -3   0 174.356 77.0083   6
  -4  -3  -1 23025.2 1346.07   6
  -4  -3  -1 29301.0 2324.60   2
  -4  -3  -1 25670.2 1552.28   4
   4   3   1 32019.3 2646.93   3
   4   3   1 30310.3 2203.02   5
   4   3   2 11656.2 1338.31   5
  -4  -3  -2 11100.6 1315.56   2
  -4  -3  -2 11934.0 1180.99   4
   4   3   2 12677.2 1612.06   3
   4   3   3 22881.8 1910.60   5
  -4  -3  -3 25423.0 1901.18   2
  -4  -3  -3 20712.5 1742.08   4
   4   3   3 23854.3 2204.42   3
  -4  -3  -4 5472.12 929.351   4
  -4  -3  -4 7588.94 1275.03   1
  -4  -3  -4 5145.08 746.932   2
  -4  -3  -5 9545.51 918.855   2
  -4  -3  -5 12214.7 1550.61   1
  -4  -3  -5 12388.4 1526.16   4
  -4  -3  -6 15594.4 994.096   2
  -4  -3  -6 17086.9 1970.50   4
  -4  -3  -6 20723.4 2081.02   1
  -4  -3  -7 796.511 398.879   4
  -4  -3  -8-175.362 189.544   4
  -4  -3  -9 5464.05 1253.05   4
  -4  -3 -10 4566.10 1254.75   4
  -4  -3 -11 11243.7 2134.57   4
  -4  -3 -12 7716.73 1911.24   4
  -4  -3 -13 3013.36 1264.18   4
  -4  -3 -14 429.208 586.724   4
   4   4 -10 105.524 141.283   3
   4   4  -9-707.134 573.605   5
   4   4  -9-1005.48 578.264   3
   4   4  -8 89.1516 152.975   5
   4   4  -8 234.631 343.326   3
   4   4  -7 1389.00 715.717   5
   4   4  -7 663.398 514.958   3
   4   4  -6 6903.15 1493.89   5
   4   4  -6 7676.12 1719.96   3
  -4  -4   6 7074.46 1625.94   2
   4   4  -5 358.656 381.498   5
   4   4  -5-433.979 559.448   3
  -4  -4   5 678.549 535.520   2
   4   4  -4 4541.57 1052.53   5
  -4  -4   4 6005.58 1411.00   2
   4   4  -4 4601.54 1269.12   3
   4   4  -3-305.923 479.713   3
   4   4  -3 319.594 271.541   5
  -4  -4   2-177.393 149.627   2
   4   4  -2-119.522 558.608   3
   4   4  -2 375.904 330.918   5
   4   4  -1 239.834 287.804   3
   4   4  -1 117.291 103.565   5
  -4  -4   1 398.351 420.100   2
  -4  -4   0 17780.5 2035.09   2
  -4  -4   0 18486.3 1197.89   4
   4   4   0 18917.5 2197.74   3
   4   4   0 19323.1 1754.80   5
  -4  -4  -1 42870.2 3079.30   2
  -4  -4  -1 44629.3 2264.94   4
   4   4   1 46041.7 3403.95   3
   4   4   1 45965.6 2666.93   5
  -4  -4  -2 3730.12 685.103   4
   4   4   2 3853.28 701.614   5
  -4  -4  -2 3525.35 816.668   2
   4   4   2 2869.20 828.512   3
   4   4   3 47987.9 2689.98   5
  -4  -4  -3 47401.6 2945.89   2
  -4  -4  -3 47164.8 2775.12   4
   4   4   3 49533.7 3404.31   3
  -4  -4  -4 13592.3 1715.47   1
  -4  -4  -4 12829.6 1367.52   2
  -4  -4  -4 13488.0 1538.06   4
  -4  -4  -5 21997.8 1701.90   2
  -4  -4  -5 28316.6 2530.93   1
  -4  -4  -5 24496.0 2243.21   4
  -4  -4  -6 42028.4 2215.68   2
  -4  -4  -6 41644.1 3190.09   4
  -4  -4  -7 19387.5 2218.88   4
  -4  -4  -8 5264.41 1152.60   4
  -4  -4  -9 16357.4 2289.68   4
  -4  -4 -10 4.50527 519.271   4
  -4  -4 -11 1256.61 683.037   4
  -4  -4 -12 1488.19 888.575   4
  -4  -4 -13 658.015 834.612   4
  -4  -4 -14 3119.29 1290.79   4
   4   5  -9 774.207 679.796   3
   4   5  -8-312.682 398.745   3
   4   5  -7 312.167 490.743   3
  -4  -5   7 921.693 636.301   2
   4   5  -6 92.3392 356.116   3
  -4  -5   6-282.794 349.939   2
   4   5  -5-500.075 418.181   3
   4   5  -5 279.562 382.737   5
  -4  -5   5 351.589 328.217   2
   4   5  -4 1315.52 677.040   3
  -4  -5   4 1416.23 591.346   2
   4   5  -4 801.132 444.718   5
   4   5  -3 1201.92 579.055   3
   4   5  -3 748.372 421.938   5
  -4  -5   3 2120.46 804.471   2
  -4  -5   2 22738.1 2683.21   2
   4   5  -2 20382.9 2524.76   3
   4   5  -2 25604.2 2232.16   5
   4   5  -1 8424.86 1558.38   3
  -4  -5   1 6655.39 1363.31   2
   4   5  -1 7383.55 1090.86   5
  -4  -5   0 21985.2 2435.71   2
   4   5   0 27719.6 2764.73   3
  -4  -5   0 22557.6 1505.35   4
   4   5   0 22929.1 1853.55   5
  -4  -5  -1 14835.3 1898.16   2
   4   5   1 15807.2 2022.64   3
  -4  -5  -1 15591.8 1359.35   4
   4   5   1 16883.8 1484.72   5
   4   5   2 2459.49 507.055   5
  -4  -5  -2 2938.19 637.159   4
  -4  -5  -2 2721.40 791.768   2
   4   5   2 3762.96 978.724   3
  -4  -5  -3 4813.54 883.351   4
  -4  -5  -3 5571.74 1084.51   2
   4   5   4 46937.2 2581.51   5
  -4  -5  -4 46595.2 3034.46   4
  -4  -5  -5 4912.45 977.009   4
  -4  -5  -5 6340.06 1288.85   1
  -4  -5  -6 11394.6 1654.52   4
  -4  -5  -6 14129.2 1882.22   1
  -4  -5  -7-192.523 312.608   4
  -4  -5  -7 42.0898 202.240   1
  -4  -5  -8 16947.9 2215.45   4
  -4  -5  -9 922.666 652.975   4
  -4  -5 -10 20311.8 2683.02   4
  -4  -5 -11 5473.69 1401.65   4
  -4  -5 -12 2133.06 930.312   4
  -4  -5 -13 350.423 382.535   4
  -4  -5 -14 3332.08 1209.14   4
  -4  -5 -15 2765.33 1269.86   4
   4   6  -8-405.396 454.480   3
   4   6  -7-240.404 342.921   3
  -4  -6   7 430.518 595.656   2
   4   6  -6 274.086 452.720   3
  -4  -6   6 830.760 600.746   2
   4   6  -5 2758.65 1035.69   3
  -4  -6   5 5031.27 1455.73   2
  -4  -6   4 4410.04 1303.55   2
   4   6  -4 2947.19 968.045   3
  -4  -6   3 344.127 285.601   2
   4   6  -3 1046.43 672.890   3
  -4  -6   2 10922.8 1942.40   2
   4   6  -2 13758.2 2065.06   3
  -4  -6   1 352.754 266.580   2
   4   6  -1 1099.46 607.710   3
  -4  -6   0 3499.95 642.140   4
  -4  -6   0 3861.57 1082.19   2
   4   6   0 2872.87 916.177   3
  -4  -6  -1 11576.3 1802.83   2
  -4  -6  -1 11047.6 1226.95   4
   4   6   1 10432.3 1709.96   3
  -4  -6  -2 4704.25 841.194   4
  -4  -6  -2 4136.38 984.360   2
  -4  -6  -3 20366.6 2405.23   1
  -4  -6  -3 15913.1 1676.52   4
   4   6   3 15945.1 1207.26   5
  -4  -6  -4 6851.84 1429.33   1
  -4  -6  -4 8368.67 1256.02   4
   4   6   4 7365.82 841.732   5
   4   6   5 18421.7 1465.36   5
  -4  -6  -5 17142.2 1948.79   4
  -4  -6  -6 10255.7 1602.53   4
  -4  -6  -6 12800.8 1856.42   1
  -4  -6  -7 6242.37 1321.20   4
  -4  -6  -7 7220.15 1431.78   1
  -4  -6  -8 15013.2 2099.38   4
  -4  -6  -9 6276.37 1457.80   4
  -4  -6 -10 828.415 587.275   4
  -4  -6 -11 5870.84 1422.98   4
  -4  -6 -12 7343.71 1735.51   4
  -4  -6 -13-319.197 374.313   4
  -4  -6 -14 2341.72 1123.15   4
  -4  -6 -15 1206.65 856.248   4
   4   7  -7 470.066 473.732   3
  -4  -7   6 4053.99 1477.29   2
   4   7  -6 3218.95 1115.97   3
  -4  -7   5 631.129 525.132   2
   4   7  -5 475.753 344.028   3
   4   7  -4 534.692 430.225   3
  -4  -7   4 820.441 544.197   2
  -4  -7   3 1364.30 723.165   2
   4   7  -3 895.603 598.320   3
  -4  -7   2-36.5488 285.767   2
   4   7  -2 273.337 485.005   3
  -4  -7   1 513.411 513.558   2
   4   7  -1-182.007 301.532   3
  -4  -7   0 205.338 200.266   2
   4   7   0 480.757 394.486   3
  -4  -7  -1 14963.9 2191.03   2
  -4  -7  -1 21856.9 1925.44   4
  -4  -7  -2 202.071 256.820   2
  -4  -7  -2 314.036 234.169   4
  -4  -7  -3 33299.1 3327.72   1
  -4  -7  -3 30704.8 2490.31   4
  -4  -7  -4 163.118 224.322   1
  -4  -7  -4 146.377 126.163   4
  -4  -7  -5 5783.81 1166.29   4
  -4  -7  -5 5858.39 1378.87   1
  -4  -7  -6 8388.17 1465.04   4
  -4  -7  -6 7896.97 1547.90   1
  -4  -7  -7 9616.69 1650.76   1
  -4  -7  -7 11621.1 1796.71   4
  -4  -7  -8 28804.3 2993.82   4
  -4  -7  -9 16622.2 2316.64   4
  -4  -7 -10 1335.13 587.551   4
  -4  -7 -11 932.277 730.799   4
  -4  -7 -12 4032.74 1310.96   4
  -4  -7 -13 1277.28 766.934   4
  -4  -7 -14 350.246 453.468   4
   4   8  -6 667.267 591.322   3
  -4  -8   5 516.314 589.121   2
   4   8  -5 131.896 310.795   3
   4   8  -4 703.478 625.448   3
  -4  -8   4 2144.98 1046.56   2
   4   8  -3 238.597 420.034   3
  -4  -8   3 356.146 292.712   2
   4   8  -2 2293.20 924.441   3
  -4  -8   2 1354.24 747.689   2
  -4  -8   1-307.712 495.830   2
  -4  -8   0 3841.22 1163.36   2
  -4  -8  -1 15735.6 2391.23   2
  -4  -8  -2 1250.87 487.162   4
  -4  -8  -3 17878.4 2003.53   4
  -4  -8  -3 16841.2 2439.71   1
  -4  -8  -4 13400.9 2107.37   1
  -4  -8  -4 9728.20 1472.17   4
  -4  -8  -5 2830.27 769.906   4
  -4  -8  -5 2415.37 797.089   1
  -4  -8  -6 4674.31 1098.76   4
  -4  -8  -6 8386.42 1625.06   1
  -4  -8  -7 12940.3 2031.21   1
  -4  -8  -7 12387.3 1918.64   4
  -4  -8  -8 4350.27 1178.75   4
  -4  -8  -9 286.200 352.151   4
  -4  -8 -10 10366.8 1961.69   4
  -4  -8 -11 5411.37 1391.91   4
  -4  -8 -12 907.310 686.430   4
  -4  -8 -13 5548.75 1648.13   4
  -4  -8 -14 2485.12 1090.88   4
  -4  -9   3 1661.92 943.474   2
  -4  -9   2 3429.70 1318.31   2
  -4  -9   1 220.628 351.243   2
  -4  -9   0-746.740 579.017   2
  -4  -9  -1 4066.68 1191.20   2
  -4  -9  -2 162.263 450.451   1
  -4  -9  -2 47.9713 167.632   4
  -4  -9  -3 556.862 497.587   1
  -4  -9  -3 516.314 379.496   4
  -4  -9  -4 240.761 306.464   4
  -4  -9  -4 1100.00 625.262   1
  -4  -9  -5 5566.95 1248.35   4
  -4  -9  -5 3897.16 1157.74   1
  -4  -9  -6 865.655 379.324   4
  -4  -9  -6 2045.68 775.570   1
  -4  -9  -7 44500.2 3818.66   4
  -4  -9  -7 43340.2 3936.64   1
  -4  -9  -8 11348.7 1926.17   4
  -4  -9  -9 2044.76 762.172   4
  -4  -9 -10 644.633 556.458   4
  -4  -9 -11 7550.47 1772.36   4
  -4  -9 -12 106.218 293.789   4
  -4  -9 -13 881.949 700.992   4
  -4  -9 -14 564.400 551.086   4
  -4 -10   2-4.34541 373.469   2
  -4 -10   1-115.209 280.787   2
  -4 -10   0-170.751 336.410   2
  -4 -10  -1-916.005 666.616   2
  -4 -10  -1 771.461 577.977   1
  -4 -10  -2 2229.83 950.967   1
  -4 -10  -3 7305.35 1698.15   1
  -4 -10  -3 7369.06 1443.34   4
  -4 -10  -4 1741.75 713.158   4
  -4 -10  -4 2910.99 1104.53   1
  -4 -10  -5 6620.87 1616.46   1
  -4 -10  -5 7608.75 1544.18   4
  -4 -10  -6 7144.80 1506.57   4
  -4 -10  -6 7369.94 1625.58   1
  -4 -10  -7-710.420 601.530   4
  -4 -10  -7-27.8596 179.093   1
  -4 -10  -8 793.847 557.954   4
  -4 -10  -9 2092.12 873.099   4
  -4 -10 -10 8961.40 1874.28   4
  -4 -10 -11 4740.83 1464.03   4
  -4 -10 -12 2879.83 1195.92   4
  -4 -10 -13 830.468 701.930   4
  -4 -11   0 337.273 242.268   1
  -4 -11   0-534.076 557.476   2
  -4 -11  -1 1585.60 869.467   2
  -4 -11  -1 2240.71 1019.02   1
  -4 -11  -2 245.771 686.642   1
  -4 -11  -3-530.186 494.840   1
  -4 -11  -4 866.666 551.076   4
  -4 -11  -4 1315.45 707.409   1
  -4 -11  -5 2190.12 947.411   1
  -4 -11  -5 847.370 578.686   4
  -4 -11  -6 1789.38 850.172   1
  -4 -11  -6 1472.02 721.427   4
  -4 -11  -7 1151.36 665.279   4
  -4 -11  -7 2532.96 1047.27   1
  -4 -11  -8 37.8539 328.005   4
  -4 -11  -9 413.473 317.471   4
  -4 -11 -10 10255.1 2068.98   4
  -4 -11 -11 403.935 193.843   4
  -4 -11 -12 682.413 503.506   4
  -4 -11 -13 4071.71 1386.85   4
  -4 -12   0 55.4654 521.315   1
  -4 -12  -1 1896.09 1104.80   1
  -4 -12  -2 926.840 868.058   1
  -4 -12  -3-287.311 402.608   1
  -4 -12  -4-455.750 479.693   1
  -4 -12  -5 1653.54 789.974   4
  -4 -12  -5 1562.42 866.046   1
  -4 -12  -6-221.963 220.962   4
  -4 -12  -6 367.495 423.625   1
  -4 -12  -7 3237.95 1137.68   4
  -4 -12  -8 10412.3 2059.52   4
  -4 -12  -9-839.728 616.902   4
  -4 -12 -10 1419.19 874.851   4
  -4 -12 -11 1268.70 819.878   4
  -4 -12 -12 645.976 669.522   4
  -4 -13  -3 4.01794 154.736   1
  -4 -13  -4 1035.47 876.355   1
  -4 -13  -5 3479.78 1344.95   1
  -4 -13  -5 2602.68 1068.35   4
  -4 -13  -6 18.4400 167.513   4
  -4 -13  -6 1143.51 767.053   1
  -4 -13  -7 904.802 684.491   4
  -4 -13  -8 166.604 344.423   4
  -4 -13  -9-120.864 278.369   4
  -4 -13 -10 117.609 270.762   4
  -4 -14  -7-528.578 517.166   4
  -4 -14  -8 399.468 503.394   4
   5 -11  -6 1510.89 867.407   5
  -5  11   6 1130.62 813.398   6
   5 -11  -5 511.426 500.757   5
  -5  11   5 376.658 538.449   6
   5 -11  -4 112.060 487.520   5
  -5  11   4-106.605 263.595   6
   5 -11  -3-573.795 532.956   5
  -5  11   3-273.371 375.504   6
   5 -11  -2 733.445 715.120   5
  -5  11   2-16.2684 171.492   6
   5 -11  -1 61.4097 189.944   5
   5 -11   0-13.4745 178.449   5
   5 -10  -7 160.696 302.842   5
   5 -10  -6 93.4661 263.648   5
  -5  10   6 603.785 534.663   6
   5 -10  -5 979.758 653.639   5
  -5  10   5-467.331 454.526   6
   5 -10  -4 165.797 255.537   5
  -5  10   4-99.5808 222.905   6
   5 -10  -3 123.772 230.053   5
  -5  10   3 989.949 656.035   6
   5 -10  -2 516.448 465.925   5
  -5  10   2 551.381 463.920   6
   5 -10  -1 222.864 401.240   5
  -5  10   1-383.799 416.596   6
   5 -10   0-360.151 413.060   5
  -5  10   0 383.719 429.454   6
   5 -10   1 775.265 647.305   5
  -5  10  -1-197.884 320.108   6
   5 -10   2 797.444 637.893   5
   5  -9  -8 2005.19 969.903   5
   5  -9  -7 2172.22 1002.76   5
   5  -9  -6-492.617 488.778   5
   5  -9  -5-457.837 535.862   5
  -5   9   5 166.050 229.640   6
   5  -9  -4 566.129 669.604   5
  -5   9   4 673.635 532.442   6
   5  -9  -3-124.729 547.576   5
  -5   9   3 929.218 567.134   6
   5  -9  -2 2958.64 1155.27   5
  -5   9   2 2477.45 946.331   6
   5  -9  -1-135.763 455.983   5
  -5   9   1-83.3451 343.896   6
   5  -9   0 647.954 558.345   5
  -5   9   0 1118.08 660.582   6
   5  -9   1 889.737 616.414   5
  -5   9  -1-191.588 310.376   6
   5  -9   2 37.9380 307.300   5
  -5   9  -2 1290.40 794.307   6
   5  -9   3 1130.48 786.241   5
  -5   9  -3 1233.78 827.695   6
   5  -9   4 337.982 460.545   5
   5  -8  -9 1233.84 858.731   5
   5  -8  -8 440.285 234.025   5
   5  -8  -7 515.947 649.508   5
   5  -8  -6 95.7068 209.870   5
   5  -8  -5 277.644 422.131   5
  -5   8   5 148.118 190.261   6
   5  -8  -4 2355.47 1054.93   5
  -5   8   4 1332.28 661.289   6
   5  -8  -3 5534.36 1457.01   5
  -5   8   3 5594.22 1310.56   6
   5  -8  -2 53.3302 296.795   5
  -5   8   2 69.5340 282.463   6
   5  -8  -1-347.283 602.875   5
  -5   8   1 225.871 179.655   6
   5  -8   0 202.943 402.784   5
  -5   8   0-358.972 392.725   6
   5  -8   1-64.4194 603.576   5
  -5   8  -1-832.762 562.242   6
   5  -8   2 1751.61 1077.01   5
  -5   8  -2 890.620 651.899   6
   5  -8   3 2012.45 1063.96   5
  -5   8  -3 1317.14 718.534   6
  -5   8  -4-26.6191 350.486   6
  -5   8  -5 560.950 524.698   6
   5  -7  -9 906.882 689.891   5
   5  -7  -8 694.096 502.604   5
   5  -7  -7 350.145 428.289   5
   5  -7  -6 417.556 382.450   5
   5  -7  -5 3087.21 1020.73   5
  -5   7   5 1407.81 606.565   6
   5  -7  -4 424.043 363.096   5
  -5   7   4 848.948 499.123   6
   5  -7  -3 4375.17 1255.03   5
  -5   7   3 3225.36 921.804   6
   5  -7  -2 502.361 272.023   5
  -5   7   2 651.624 398.230   6
   5  -7  -1 218.139 233.769   5
  -5   7   1 233.134 342.861   6
   5  -7   0 456.421 619.792   5
  -5   7   0 222.029 245.605   6
   5  -7   1 3479.91 1163.62   5
  -5   7  -1 3256.94 1032.42   6
   5  -7   2 2236.64 943.087   5
  -5   7  -2 2611.23 983.222   6
   5  -7   3 1858.58 752.649   5
  -5   7  -3 2558.92 964.379   6
  -5   7  -4 789.994 595.252   6
  -5   7  -5 735.627 601.244   6
  -5   7  -6-1065.99 708.469   6
   5  -6 -10-685.439 678.180   5
   5  -6  -9-253.962 444.966   5
   5  -6  -8 411.756 250.471   5
   5  -6  -7 1800.31 885.190   5
   5  -6  -6 3784.26 1095.26   5
   5  -6  -5 3765.77 1093.32   5
   5  -6  -4 954.216 507.001   5
  -5   6   4 279.373 299.178   6
   5  -6  -3 1568.74 847.022   5
  -5   6   3 1615.85 600.261   6
   5  -6  -2-403.346 209.268   5
  -5   6   2 490.442 459.908   6
   5  -6  -1-328.592 439.530   5
  -5   6   1 563.488 385.023   6
   5  -6   0 1980.48 774.566   5
  -5   6   0 3641.43 986.010   6
   5  -6   1 7591.54 1634.50   5
  -5   6  -1 8686.95 1583.61   6
   5  -6   2 157.996 427.316   5
  -5   6  -2 1271.67 674.969   6
  -5   6  -3 447.458 453.033   6
  -5   6  -4 659.595 473.732   6
  -5   6  -5 451.670 496.387   6
  -5   6  -6-596.656 476.666   6
  -5   6  -7-542.737 659.489   6
   5  -5 -10 948.728 680.576   5
   5  -5  -9 126.983 382.839   5
   5  -5  -8-769.637 599.012   5
   5  -5  -7 186.946 459.817   5
   5  -5  -6-467.989 414.721   5
   5  -5  -5 200.532 483.830   5
   5  -5  -4 145.994 269.511   5
   5  -5  -3 2019.01 812.628   5
  -5   5   3 1282.94 522.801   6
   5  -5  -2 2558.44 858.891   5
  -5   5   2 3179.14 814.364   6
   5  -5  -1 574.466 415.822   5
  -5   5   1 205.652 276.827   6
   5  -5   0 24709.2 2880.80   5
  -5   5   0 24928.9 2496.50   6
   5  -5   1 451.684 359.215   5
  -5   5  -1-210.722 292.512   6
   5  -5   2 2486.45 927.123   5
  -5   5  -2 2073.14 731.394   6
  -5   5  -3-89.6922 373.669   6
  -5   5  -4 474.498 278.164   6
  -5   5  -5-385.719 498.675   6
  -5   5  -6-270.734 430.513   6
  -5   5  -7 791.265 657.343   6
  -5   5  -8 235.291 250.861   6
  -5   5  -9 190.802 524.202   6
   5  -4 -10-263.953 535.647   5
   5  -4  -9 327.547 203.929   5
   5  -4  -8 1043.64 526.988   5
   5  -4  -7 898.147 698.661   5
   5  -4  -6 3701.87 1267.27   5
   5  -4  -5 183.544 512.425   5
   5  -4  -4-40.0578 220.753   5
   5  -4  -3 553.165 484.291   5
  -5   4   3 371.497 267.680   6
   5  -4  -2 1771.44 777.541   5
  -5   4   2 3486.71 789.096   6
   5  -4  -1 6917.90 1461.95   5
  -5   4   1 8018.39 1257.58   6
   5  -4   0 2153.34 830.701   5
  -5   4   0 1783.65 639.028   6
   5  -4   1 2272.25 845.767   5
  -5   4  -1 4444.05 1057.32   6
   5  -4   2 5227.13 1304.50   5
  -5   4  -2 5055.76 1141.02   6
  -5   4  -3 7959.55 1504.74   6
  -5   4  -4 7192.91 1478.18   6
  -5   4  -5 731.257 521.168   6
  -5   4  -6 1264.48 729.767   6
  -5   4  -7 3487.94 1176.27   6
  -5   4  -8 540.175 387.258   6
  -5   4  -9 240.208 329.203   6
   5  -3 -10 790.436 632.071   5
   5  -3  -9 535.762 430.647   5
   5  -3  -8 345.854 270.633   5
   5  -3  -7 855.339 531.652   5
   5  -3  -6-148.964 587.200   5
   5  -3  -5 943.588 582.048   5
   5  -3  -4 1753.32 688.401   5
   5  -3  -3 215.170 514.716   5
   5  -3  -2 7538.70 1495.94   5
  -5   3   2 8839.33 1144.88   6
   5  -3  -1 5932.18 1342.29   5
  -5   3   1 5501.27 904.356   6
   5  -3   0 724.363 495.603   5
  -5   3   0 755.475 365.798   6
   5  -3   1 1674.78 728.856   5
  -5   3  -1 1535.79 510.714   6
   5  -3   2 363.456 417.288   5
  -5   3  -2 353.040 182.914   6
  -5   3  -2 1040.19 375.051   1
  -5   3  -3 605.637 397.412   6
  -5   3  -4 13954.2 1974.73   6
  -5   3  -5-415.106 541.309   6
  -5   3  -6 538.641 566.510   6
  -5   3  -7 1147.78 684.155   6
  -5   3  -8 2044.33 815.730   6
  -5   3  -9 23.5538 349.803   6
  -5   3 -10-175.400 337.406   6
   5  -2 -10 662.205 573.435   5
   5  -2  -9 202.416 453.509   5
   5  -2  -8-154.068 183.486   5
   5  -2  -7 571.561 368.420   5
   5  -2  -6 11.9644 359.026   5
   5  -2  -5-366.919 510.009   5
   5  -2  -4 5044.52 1209.11   5
   5  -2  -3 516.813 460.762   5
   5  -2  -2 331.158 447.111   5
   5  -2  -1 2287.62 736.470   5
  -5   2   1 1325.40 404.467   6
   5  -2   0 22228.9 2485.17   5
  -5   2   0 18984.1 1688.27   6
   5  -2   1 5668.05 1222.50   5
  -5   2  -1 3592.36 793.434   6
   5  -2   2 24161.0 2663.35   5
  -5   2  -2 26432.4 2328.13   6
   5  -2   3 2704.44 630.735   3
  -5   2  -3 3621.11 727.552   1
  -5   2  -3 2693.42 729.301   6
  -5   2  -4 6449.82 1229.49   6
  -5   2  -4 9181.83 1155.03   1
  -5   2  -5 214.519 280.717   6
  -5   2  -6 863.495 401.586   6
  -5   2  -7 2639.61 950.497   6
  -5   2  -8 1441.49 838.546   6
  -5   2  -9 2712.63 1000.69   6
  -5   2 -10-783.810 712.773   6
  -5   2 -11-762.299 647.072   6
   5  -1 -10 899.472 815.174   5
   5  -1  -9 3806.64 1291.06   5
   5  -1  -8-91.9131 506.727   5
   5  -1  -7 2671.01 981.225   5
   5  -1  -6 1717.58 861.951   5
   5  -1  -5 5135.61 1302.51   5
   5  -1  -4-11.6316 184.807   5
   5  -1  -3 2577.17 765.508   5
   5  -1  -2 2931.74 920.962   5
   5  -1  -1 939.092 499.030   5
  -5   1   1 668.624 237.202   6
   5  -1   0 1176.80 622.895   5
  -5   1   0 521.039 248.251   6
   5  -1   1 2399.25 791.480   5
  -5   1  -1 1879.83 500.942   6
   5  -1   2 41.5321 358.881   5
  -5   1  -2 17.8861 129.473   6
   5  -1   3 2075.09 605.961   3
  -5   1  -3 2930.78 750.435   6
  -5   1  -4 1939.05 704.801   6
   5  -1   4 1362.85 423.955   3
  -5   1  -5 9320.06 1575.64   6
  -5   1  -6 1956.46 771.185   6
  -5   1  -7 14177.5 2155.53   6
  -5   1  -8 969.627 621.819   6
  -5   1  -9 4363.61 1288.14   6
  -5   1 -10 1020.08 718.818   6
  -5   1 -11 400.942 538.780   6
  -5   1 -12 404.304 442.113   6
   5   0 -10 314.336 609.395   5
   5   0  -9 41.2880 126.730   5
   5   0  -8 419.890 402.727   5
   5   0  -7 726.777 525.252   5
   5   0  -6 354.773 329.985   5
   5   0  -5 721.572 517.975   5
   5   0  -4 58.1081 151.058   5
   5   0  -3 6708.70 1354.25   5
   5   0  -2 6150.72 1236.43   5
   5   0  -1 24838.6 2504.28   5
   5   0   0 1198.81 403.137   5
  -5   0   0 1076.42 282.276   6
   5   0   1 16105.7 1976.74   5
  -5   0  -1 14210.7 1295.74   6
   5   0   2 13954.4 1845.60   5
  -5   0  -2 12560.1 1343.55   6
   5   0   2 11162.1 1502.63   3
   5   0   3 178.952 128.415   3
   5   0   3-249.434 567.096   5
  -5   0  -3 506.207 269.033   6
  -5   0  -3 275.447 188.406   1
  -5   0  -4 19029.5 1991.91   6
  -5   0  -4 18410.9 2056.76   4
   5   0   4 18429.4 1793.32   3
  -5   0  -5 17784.5 2095.60   6
  -5   0  -5 19202.9 2235.39   4
  -5   0  -5 19225.6 1897.41   1
  -5   0  -6 525.666 285.617   4
  -5   0  -7-16.6169 154.277   4
  -5   0  -8 3114.60 1030.86   4
  -5   0  -9 2092.73 946.205   4
  -5   0 -10 1963.20 870.692   4
  -5   0 -11-16.4211 522.169   4
  -5   0 -12 240.962 341.480   6
  -5   0 -12-1.39382 645.349   4
   5   1 -10 116.729 568.874   5
   5   1  -9 1676.92 929.488   5
   5   1  -8 491.930 404.355   5
   5   1  -7 2083.16 833.549   5
   5   1  -6 3490.24 1087.21   5
   5   1  -5-22.0244 156.812   5
   5   1  -4 7359.36 1531.18   5
   5   1  -3-238.618 184.060   5
   5   1  -2 7011.82 1363.84   5
   5   1  -1 2358.77 747.478   5
   5   1   0 78.7238 264.023   5
   5   1   1-302.580 526.945   3
   5   1   1 499.989 495.352   5
  -5  -1  -1 432.388 205.329   6
   5   1   2 6155.13 1149.63   3
   5   1   2 7863.85 1335.74   5
  -5  -1  -2 7594.97 976.270   6
   5   1   3 237.924 275.163   3
  -5  -1  -3 262.971 246.607   6
  -5  -1  -3 61.0239 117.190   4
  -5  -1  -4 4284.49 915.889   1
   5   1   4 4633.71 938.054   3
  -5  -1  -4 2436.69 702.168   4
  -5  -1  -5 3532.61 846.805   1
  -5  -1  -5 3428.91 907.222   4
  -5  -1  -6 329.474 390.076   1
  -5  -1  -6-61.3593 234.196   4
  -5  -1  -7 71.4708 227.961   4
  -5  -1  -8 922.126 693.195   4
  -5  -1  -9 14910.5 2392.71   4
  -5  -1 -10 2930.62 1121.86   4
  -5  -1 -11 3659.42 1383.15   4
  -5  -1 -12 1329.34 955.217   4
  -5  -1 -13 242.814 385.752   4
   5   2 -10-157.614 313.983   5
   5   2  -9-189.230 330.908   5
   5   2  -8 1359.90 757.031   5
   5   2  -7 1649.14 816.016   5
   5   2  -6 3568.27 1134.81   5
   5   2  -5 3630.47 1131.76   5
   5   2  -4 7261.01 1484.02   5
   5   2  -3 312.936 393.750   5
   5   2  -2 7534.73 1404.56   5
   5   2  -1 3475.27 912.826   5
   5   2   0 7486.82 1411.43   3
   5   2   0 6044.83 1123.95   5
   5   2   1 561.508 200.055   3
   5   2   1 471.932 337.379   5
  -5  -2  -1 506.382 186.843   6
   5   2   2 857.788 391.326   5
  -5  -2  -2 161.759 109.230   4
   5   2   3 4091.98 951.743   5
   5   2   3 4717.06 947.218   3
  -5  -2  -3 4245.44 860.639   4
  -5  -2  -4 7864.63 1234.05   4
  -5  -2  -4 8978.52 1448.15   1
   5   2   4 8353.45 1328.12   3
  -5  -2  -5 9166.50 1417.32   4
  -5  -2  -5 8190.17 1315.81   1
  -5  -2  -6 1188.95 549.799   4
  -5  -2  -6 2339.57 781.342   1
  -5  -2  -7 19466.9 2433.07   4
  -5  -2  -8 1411.36 625.504   4
  -5  -2  -9 6333.33 1462.41   4
  -5  -2 -10 329.627 356.007   4
  -5  -2 -11 4647.73 1447.82   4
  -5  -2 -12 392.637 562.758   4
  -5  -2 -13-516.662 339.631   4
   5   3  -9-258.209 362.993   5
   5   3  -8-545.446 508.783   5
   5   3  -7 353.724 359.562   5
   5   3  -6 663.041 475.602   5
   5   3  -5 771.972 567.788   5
   5   3  -4 2193.82 841.479   5
   5   3  -3 1049.45 579.770   5
   5   3  -3 335.789 488.540   3
   5   3  -2 7384.06 1517.75   3
   5   3  -2 8827.74 1500.42   5
   5   3  -1 2594.86 878.250   3
   5   3  -1 4469.19 1030.88   5
   5   3   0 3284.68 1014.93   3
  -5  -3   0 2909.60 830.735   2
   5   3   0 3608.19 913.960   5
   5   3   1-458.901 453.022   3
  -5  -3  -1-144.731 296.769   2
   5   3   1 491.541 223.520   5
  -5  -3  -1 58.3274 122.633   4
   5   3   2 27667.5 2413.76   5
  -5  -3  -2 25858.2 2248.49   2
  -5  -3  -2 28000.1 1974.38   4
   5   3   2 27785.4 2700.78   3
  -5  -3  -3 436.259 258.814   4
  -5  -3  -3 423.068 293.841   2
   5   3   3 42.9320 284.902   5
   5   3   3 734.291 371.545   3
   5   3   4 10236.4 1491.05   5
  -5  -3  -4 13076.6 1809.38   1
  -5  -3  -4 11886.7 1541.71   4
   5   3   4 12610.3 1704.47   3
  -5  -3  -5 3733.79 890.802   4
  -5  -3  -5 3592.08 944.217   1
  -5  -3  -6 9199.37 1523.79   4
  -5  -3  -6 8030.29 1397.73   1
  -5  -3  -7 10051.9 1700.77   4
  -5  -3  -7 12074.3 1732.73   1
  -5  -3  -8 391.480 412.489   4
  -5  -3  -9 4155.75 1180.28   4
  -5  -3 -10-354.544 586.504   4
  -5  -3 -11 1411.64 772.453   4
  -5  -3 -12 2585.39 1035.56   4
  -5  -3 -13-45.1331 503.689   4
   5   4  -8-900.899 688.236   3
   5   4  -7 122.670 340.849   3
   5   4  -6 427.572 453.257   3
   5   4  -5 115.718 219.748   5
   5   4  -5 584.918 490.695   3
   5   4  -4 6340.82 1570.48   3
   5   4  -4 7920.98 1516.45   5
   5   4  -3-251.292 355.178   3
   5   4  -3 126.425 165.736   5
  -5  -4   3 592.956 468.164   2
   5   4  -2 4565.73 1220.66   3
   5   4  -2 4529.22 1017.77   5
  -5  -4   2 4462.08 1170.90   2
   5   4  -1 1022.00 592.872   3
  -5  -4   1 1048.32 536.000   2
   5   4  -1 1948.89 676.659   5
   5   4   0 6647.94 1440.26   3
  -5  -4   0 5361.99 1171.96   2
   5   4   0 6785.62 1177.86   5
   5   4   1-292.186 319.770   5
   5   4   1-245.755 232.143   3
  -5  -4  -2 24876.7 2349.70   2
  -5  -4  -2 23062.6 1767.60   4
   5   4   2 24435.6 2605.78   3
   5   4   2 26167.6 2230.11   5
  -5  -4  -3 2649.78 716.175   2
  -5  -4  -3 1779.02 521.475   4
   5   4   3 2035.78 615.439   5
   5   4   3 2975.28 928.106   3
  -5  -4  -4 4431.15 857.726   2
  -5  -4  -4 5770.48 1299.96   1
  -5  -4  -4 4866.71 936.754   4
   5   4   4 2872.92 743.073   5
  -5  -4  -5 3946.97 898.479   4
  -5  -4  -5 2475.64 760.246   1
  -5  -4  -5 3266.59 679.314   2
  -5  -4  -6 3384.61 619.740   2
  -5  -4  -6 3234.72 848.970   4
  -5  -4  -6 5245.82 1187.78   1
  -5  -4  -7 9332.19 1583.33   4
  -5  -4  -7 10784.0 1732.40   1
  -5  -4  -8 172.853 154.902   4
  -5  -4  -9 9353.21 1760.96   4
  -5  -4 -10 1961.00 820.090   4
  -5  -4 -11 1660.84 881.726   4
  -5  -4 -12 3849.72 1379.87   4
  -5  -4 -13-227.019 643.969   4
  -5  -4 -14-469.530 587.471   4
   5   5  -7 130.285 286.785   3
   5   5  -6 453.088 505.578   3
   5   5  -5-295.633 442.057   3
  -5  -5   5 212.965 278.988   2
   5   5  -4 647.640 323.891   3
  -5  -5   4 2933.33 1134.49   2
   5   5  -3-60.8380 222.303   3
  -5  -5   3 365.994 418.285   2
   5   5  -2 522.342 448.801   3
  -5  -5   2 217.090 263.543   2
   5   5  -1 463.429 407.585   3
  -5  -5   1 373.449 272.212   2
  -5  -5   0 1880.07 785.554   2
   5   5   0 1870.82 591.352   5
   5   5   0 1834.75 723.096   3
   5   5   1 6935.96 1108.92   5
  -5  -5  -1 8724.30 1556.00   2
   5   5   1 6476.92 1351.73   3
  -5  -5  -2 9952.74 1167.50   4
  -5  -5  -2 9758.50 1528.50   2
   5   5   2 10643.3 1764.86   3
   5   5   2 11091.1 1369.57   5
  -5  -5  -3 6483.35 1024.10   4
   5   5   3 6652.57 1035.57   5
   5   5   3 5984.97 1264.21   3
  -5  -5  -3 5391.03 1126.62   2
  -5  -5  -4 2989.95 946.230   1
  -5  -5  -4 4002.79 897.526   4
   5   5   4 2537.78 654.413   5
  -5  -5  -4 3051.79 801.629   2
  -5  -5  -5 1313.08 560.798   4
  -5  -5  -5 360.563 152.175   1
   5   5   5 1045.54 408.534   5
  -5  -5  -5 147.474 206.310   2
  -5  -5  -6 10217.1 1723.22   1
  -5  -5  -6 10028.0 1240.54   2
  -5  -5  -6 12058.6 1724.49   4
  -5  -5  -7 2099.28 738.143   4
  -5  -5  -7 1885.65 682.436   1
  -5  -5  -8 3335.37 966.810   4
  -5  -5  -9 9478.13 1763.63   4
  -5  -5 -10 2968.06 1027.50   4
  -5  -5 -11-341.642 612.245   4
  -5  -5 -12 3142.10 1215.29   4
  -5  -5 -13 704.793 525.487   4
  -5  -5 -14 1843.23 1098.65   4
   5   6  -6 552.746 689.238   3
   5   6  -5-761.849 606.560   3
  -5  -6   5-152.075 303.148   2
   5   6  -4 702.813 467.536   3
  -5  -6   4 4025.24 1333.57   2
  -5  -6   3-535.183 487.009   2
   5   6  -3-538.586 601.285   3
  -5  -6   2-708.565 534.016   2
   5   6  -2-490.369 496.520   3
   5   6  -1 2324.62 988.874   3
  -5  -6   1 1709.00 780.548   2
  -5  -6   0 1491.06 747.303   2
   5   6   0 1382.73 620.169   3
  -5  -6  -1 4587.77 1172.79   2
   5   6   1 6932.05 1550.47   3
   5   6   2 2766.60 1083.70   3
  -5  -6  -2 1913.93 728.130   2
  -5  -6  -3 303.974 242.971   4
  -5  -6  -3-148.635 171.977   2
  -5  -6  -4 1410.10 790.343   1
  -5  -6  -4 875.607 454.238   4
  -5  -6  -4 180.589 214.496   2
  -5  -6  -5 20008.8 2100.33   2
  -5  -6  -5 27857.9 3043.50   1
  -5  -6  -5 24150.6 2388.15   4
  -5  -6  -6 2042.23 808.367   1
  -5  -6  -6 1124.53 598.631   4
  -5  -6  -6 1925.89 599.157   2
  -5  -6  -7 12799.4 1895.27   4
  -5  -6  -7 18324.7 2402.96   1
  -5  -6  -8 476.159 471.501   4
  -5  -6  -8 1089.18 616.637   1
  -5  -6  -9 6327.96 1442.85   4
  -5  -6 -10 462.408 455.168   4
  -5  -6 -11 1496.91 849.582   4
  -5  -6 -12 648.709 788.802   4
  -5  -6 -13 362.435 422.577   4
  -5  -6 -14-443.735 517.066   4
   5   7  -5 36.0331 196.706   3
  -5  -7   4 527.888 521.570   2
   5   7  -4-861.914 629.834   3
  -5  -7   3 936.173 702.257   2
   5   7  -3 1096.24 766.941   3
   5   7  -2 4239.87 1310.91   3
  -5  -7   2 3272.76 1180.23   2
   5   7  -1 3205.37 1079.05   3
  -5  -7   1 1340.19 800.941   2
  -5  -7   0 2330.16 865.511   2
   5   7   0 2526.37 918.584   3
   5   7   1 5031.40 1293.85   3
  -5  -7  -1 4276.09 1233.12   2
  -5  -7  -2 890.873 538.323   2
  -5  -7  -3 239.675 358.259   1
  -5  -7  -3-111.641 335.767   2
  -5  -7  -4 622.118 512.918   1
  -5  -7  -4 256.831 163.935   4
  -5  -7  -4 197.738 161.352   2
  -5  -7  -5 17547.3 2116.73   2
  -5  -7  -5 22180.9 2824.31   1
  -5  -7  -5 17699.4 2072.24   4
  -5  -7  -6 419.354 201.893   2
  -5  -7  -6 447.029 414.375   4
  -5  -7  -7 35.6119 155.981   1
  -5  -7  -7 78.7464 210.194   4
  -5  -7  -8-97.9798 460.042   4
  -5  -7  -8 323.537 361.818   1
  -5  -7  -9 11111.2 1987.72   4
  -5  -7 -10 851.647 647.108   4
  -5  -7 -11 3589.95 1204.28   4
  -5  -7 -12 719.136 442.075   4
  -5  -7 -13 165.129 277.800   4
  -5  -7 -14 517.460 540.858   4
   5   8  -4 195.768 324.799   3
  -5  -8   3-92.3375 193.150   2
   5   8  -3 1622.97 865.879   3
   5   8  -2 512.657 489.538   3
  -5  -8   2 686.666 677.403   2
   5   8  -1 373.854 416.025   3
  -5  -8   1-721.213 578.871   2
  -5  -8   0 120.169 426.713   2
  -5  -8  -1 1264.09 745.990   2
  -5  -8  -2 522.461 487.456   2
  -5  -8  -3 2904.29 995.874   2
  -5  -8  -3 6643.04 1680.12   1
  -5  -8  -4-111.158 406.529   1
  -5  -8  -4 382.684 261.823   4
  -5  -8  -4 57.1815 186.125   2
  -5  -8  -5 4561.90 1067.40   4
  -5  -8  -5 4364.53 1248.27   1
  -5  -8  -6 1740.22 824.688   1
  -5  -8  -6 2356.18 825.452   4
  -5  -8  -7 4977.30 1314.84   1
  -5  -8  -7 6227.66 1391.06   4
  -5  -8  -8 780.250 686.366   1
  -5  -8  -8 1709.94 701.826   4
  -5  -8  -9 10790.5 1984.01   4
  -5  -8 -10 3728.70 1373.90   4
  -5  -8 -11-193.816 371.464   4
  -5  -8 -12 83.4405 251.874   4
  -5  -8 -13 466.452 639.714   4
  -5  -9   2 733.889 571.054   2
  -5  -9   1 57.7864 464.202   2
  -5  -9   0 619.492 712.962   2
  -5  -9  -1 641.322 568.527   2
  -5  -9  -2 30.9849 345.869   1
  -5  -9  -2-1.10267 299.216   2
  -5  -9  -3 711.846 594.074   1
  -5  -9  -3 1109.45 576.192   2
  -5  -9  -4 660.721 547.704   2
  -5  -9  -4 165.170 310.219   1
  -5  -9  -5 3295.88 908.697   4
  -5  -9  -5 1097.00 867.484   1
  -5  -9  -6-91.6743 304.327   1
  -5  -9  -6-249.973 299.253   4
  -5  -9  -7 6573.83 1668.13   1
  -5  -9  -7 5708.78 1336.02   4
  -5  -9  -8 8869.65 1855.28   1
  -5  -9  -8 7166.36 1574.90   4
  -5  -9  -9 5894.95 1476.20   4
  -5  -9 -10 2677.30 932.510   4
  -5  -9 -11-175.636 375.873   4
  -5  -9 -12-1331.62 798.644   4
  -5  -9 -13 1792.65 929.509   4
  -5 -10   0-228.551 306.061   2
  -5 -10  -1-119.486 286.153   1
  -5 -10  -1 333.588 383.828   2
  -5 -10  -2-265.876 375.086   2
  -5 -10  -2-345.395 441.768   1
  -5 -10  -3 1680.07 912.308   1
  -5 -10  -3 189.562 330.453   2
  -5 -10  -4 41.1419 126.601   2
  -5 -10  -4 400.777 680.973   1
  -5 -10  -5 297.038 595.781   1
  -5 -10  -6-850.404 620.030   1
  -5 -10  -6-1102.67 601.411   4
  -5 -10  -7 1434.20 804.408   1
  -5 -10  -7 1533.98 741.645   4
  -5 -10  -8 927.261 584.798   4
  -5 -10  -8 784.685 707.860   1
  -5 -10  -9-436.225 438.526   4
  -5 -10 -10 1309.20 754.148   4
  -5 -10 -11 359.900 409.076   4
  -5 -10 -12 80.3450 348.093   4
  -5 -10 -13 537.650 568.956   4
  -5 -11  -1 148.519 184.369   1
  -5 -11  -2 1985.88 1038.76   1
  -5 -11  -2 1064.08 671.168   2
  -5 -11  -3 1345.43 934.871   1
  -5 -11  -3 976.357 711.207   2
  -5 -11  -4 1049.43 767.900   1
  -5 -11  -5 3766.57 1323.74   1
  -5 -11  -6 1786.27 1016.21   1
  -5 -11  -7-158.626 280.595   4
  -5 -11  -7 555.409 523.561   1
  -5 -11  -8 684.301 532.512   1
  -5 -11  -8 1441.93 766.342   4
  -5 -11  -9 2030.92 1006.26   4
  -5 -11 -10 2279.21 1073.00   4
  -5 -11 -11 2.45655 141.804   4
  -5 -11 -12 1194.37 793.002   4
  -5 -12  -3 267.868 421.910   1
  -5 -12  -4-396.801 490.305   1
  -5 -12  -5 224.820 410.886   1
  -5 -12  -6 41.2061 400.458   1
  -5 -12  -7 2658.60 1199.41   1
  -5 -12  -7 1397.24 752.122   4
  -5 -12  -8 115.815 348.533   4
  -5 -12  -9 599.148 516.215   4
  -5 -12 -10-1.23543 579.162   4
  -5 -12 -11-821.543 540.524   4
  -5 -13  -8-781.540 607.365   4
  -5 -13  -9-471.126 485.533   4
  -6  10   2-679.240 549.654   6
  -6  10   1 1.15382 390.841   6
   6  -9  -4-582.627 514.589   5
   6  -9  -3-383.101 438.949   5
   6  -9  -2 1711.46 900.063   5
  -6   9   2-1.02226 224.820   6
   6  -9  -1-125.023 247.955   5
  -6   9   1-409.447 410.193   6
   6  -9   0-595.941 566.681   5
  -6   9   0 108.583 384.079   6
  -6   9  -1-82.5018 212.174   6
   6  -8  -6 184.375 341.763   5
   6  -8  -5-262.804 331.327   5
   6  -8  -4 326.056 409.333   5
   6  -8  -3 926.292 696.977   5
   6  -8  -2 460.655 487.072   5
   6  -8  -1 2901.21 1181.24   5
  -6   8   1 0.93889 861.671   6
   6  -8   0 44.9524 241.379   5
  -6   8   0 558.326 437.452   6
   6  -8   1 37.2658 193.712   5
  -6   8  -1-32.5894 187.534   6
   6  -8   2-425.746 485.090   5
  -6   8  -2 92.7314 248.475   6
  -6   8  -3 1.15227 211.664   6
   6  -7  -7 1380.88 890.217   5
   6  -7  -6 515.400 357.987   5
   6  -7  -5 139.374 177.742   5
   6  -7  -4 431.047 574.256   5
   6  -7  -3 364.126 382.720   5
   6  -7  -2 1676.79 749.591   5
   6  -7  -1-39.9204 293.641   5
  -6   7   1 699.282 485.756   6
   6  -7   0 553.399 527.795   5
  -6   7   0 321.913 344.125   6
   6  -7   1 297.229 326.692   5
  -6   7  -1 4.58941 103.921   6
   6  -7   2-33.7016 439.162   5
  -6   7  -2 899.267 655.062   6
   6  -7   3 582.522 573.069   5
  -6   7  -3 135.742 267.816   6
   6  -7   4-244.972 578.378   5
  -6   7  -4-59.1524 222.615   6
  -6   7  -5 357.189 386.569   6
   6  -6  -7 1512.50 1050.76   5
   6  -6  -6 1087.59 900.692   5
   6  -6  -5 251.873 442.688   5
   6  -6  -4 298.955 367.904   5
   6  -6  -3 3648.90 1229.53   5
   6  -6  -2 2434.76 984.504   5
   6  -6  -1 1849.23 761.204   5
  -6   6   1 1087.49 551.487   6
   6  -6   0 429.323 591.462   5
  -6   6   0 426.832 349.375   6
   6  -6   1-824.920 690.275   5
  -6   6  -1-105.393 217.489   6
   6  -6   2 1484.32 789.722   5
  -6   6  -2 1454.52 692.582   6
   6  -6   3 732.494 725.829   5
  -6   6  -3 389.052 563.877   6
   6  -6   4 460.665 438.057   5
  -6   6  -4 202.361 333.582   6
  -6   6  -5-535.470 496.235   6
  -6   6  -6 85.4223 254.073   6
   6  -5  -8 1489.33 875.560   5
   6  -5  -7-707.934 743.332   5
   6  -5  -6 149.317 298.674   5
   6  -5  -5 1504.68 777.405   5
   6  -5  -4-51.7337 271.416   5
   6  -5  -3 290.590 457.989   5
   6  -5  -2 678.011 640.125   5
   6  -5  -1 709.317 444.408   5
   6  -5   0 672.987 544.917   5
  -6   5   0 1.36223 183.461   6
   6  -5   1 1405.58 747.361   5
  -6   5  -1 343.440 315.987   6
   6  -5   2 1916.11 704.879   5
  -6   5  -2 1781.75 732.513   6
   6  -5   3 311.171 424.131   5
  -6   5  -3 488.391 400.048   6
   6  -5   4 230.561 347.796   5
  -6   5  -4 113.475 327.196   6
  -6   5  -5-232.644 337.850   6
  -6   5  -6-491.401 472.944   6
  -6   5  -7-315.247 572.471   6
   6  -4  -8-160.324 464.574   5
   6  -4  -7 708.075 620.713   5
   6  -4  -6 226.509 334.450   5
   6  -4  -5 32.9857 262.035   5
   6  -4  -4-532.133 523.772   5
   6  -4  -3 1391.64 810.655   5
   6  -4  -2 1042.60 611.063   5
   6  -4  -1 1993.38 847.573   5
   6  -4   0 10061.4 1960.52   5
  -6   4   0 10400.7 1545.83   6
   6  -4   1 529.543 358.814   5
  -6   4  -1 461.648 357.089   6
   6  -4   2 3685.69 1244.62   5
  -6   4  -2 3843.06 970.483   6
   6  -4   3 417.645 213.293   5
  -6   4  -3 598.465 436.563   6
   6  -4   4-610.502 596.020   5
  -6   4  -4-627.606 471.692   6
  -6   4  -5 223.026 139.119   6
  -6   4  -6 1196.47 671.265   6
  -6   4  -7 286.479 177.275   6
  -6   4  -8-1052.62 638.269   6
   6  -3  -8 1536.65 1026.92   5
   6  -3  -7 843.588 719.779   5
   6  -3  -6 127.996 551.629   5
   6  -3  -5 611.368 455.763   5
   6  -3  -4 208.986 366.880   5
   6  -3  -3 2917.82 1067.00   5
   6  -3  -2-101.288 407.363   5
   6  -3  -1 394.226 307.020   5
   6  -3   0 438.282 429.079   5
   6  -3   1 153.986 229.916   5
  -6   3  -1 640.031 363.526   6
   6  -3   2 325.965 531.903   5
  -6   3  -2 148.553 125.797   6
   6  -3   3 199.888 165.267   5
  -6   3  -3-175.463 381.105   6
   6  -3   4 1756.75 888.110   5
  -6   3  -4-464.038 431.306   6
  -6   3  -5 600.131 439.306   6
  -6   3  -6 215.395 238.345   6
  -6   3  -7 678.449 564.851   6
  -6   3  -8 517.909 535.400   6
  -6   3  -9 281.764 399.287   6
   6  -2  -8 472.582 542.362   5
   6  -2  -7 291.540 517.538   5
   6  -2  -6 2845.07 1148.18   5
   6  -2  -5 12997.4 2240.44   5
   6  -2  -4 108.037 246.053   5
   6  -2  -3 489.598 417.465   5
   6  -2  -2 240.412 165.661   5
   6  -2  -1 1907.68 782.400   5
   6  -2   0 471.797 419.287   5
   6  -2   1 2052.14 778.090   5
   6  -2   2 530.660 409.660   5
  -6   2  -2 1594.94 581.910   6
   6  -2   3 4883.44 1327.60   5
  -6   2  -3 3615.54 922.190   6
   6  -2   4 3271.00 1075.53   5
  -6   2  -4 2358.73 791.723   6
  -6   2  -5 113.050 238.984   6
  -6   2  -6 89.2011 257.184   6
  -6   2  -7 285.470 287.955   6
  -6   2  -8 664.841 372.791   6
  -6   2  -9-206.841 347.798   6
  -6   2 -10 61.9415 274.199   6
   6  -1  -8 318.395 590.418   5
   6  -1  -7 375.242 343.485   5
   6  -1  -6 703.591 595.355   5
   6  -1  -5 1891.50 867.318   5
   6  -1  -4 7927.02 1722.80   5
   6  -1  -3 804.449 523.513   5
   6  -1  -2 1894.95 809.708   5
   6  -1  -1 13879.3 2086.17   5
   6  -1   0 21961.4 2620.53   5
   6  -1   1 3839.22 1072.92   5
   6  -1   2 8005.04 1385.21   3
  -6   1  -2 9057.35 1292.86   6
   6  -1   2 8414.93 1621.57   5
  -6   1  -3 115.229 243.074   1
   6  -1   3 76.3151 150.606   3
   6  -1   3-39.2018 198.673   5
  -6   1  -3-153.421 350.784   6
   6  -1   4 3872.46 1136.29   5
  -6   1  -4 4792.40 1089.29   6
  -6   1  -4 5123.30 1011.01   1
  -6   1  -5 277.748 268.856   6
  -6   1  -6 482.424 327.615   6
  -6   1  -7 2119.49 901.847   6
  -6   1  -8-358.328 453.141   6
  -6   1  -9 557.898 505.967   6
  -6   1 -10 18.8576 293.201   6
  -6   1 -11-565.888 558.808   6
   6   0  -8 574.547 565.043   5
   6   0  -7 508.580 468.203   5
   6   0  -6 2838.32 1059.88   5
   6   0  -5 477.923 437.483   5
   6   0  -4 1193.32 654.187   5
   6   0  -3 4850.44 1277.54   5
   6   0  -2 5908.57 1405.45   5
   6   0  -1 186.675 201.258   5
   6   0   0 4325.33 1063.71   5
   6   0   1 3218.99 906.416   3
   6   0   1 2803.39 908.495   5
   6   0   2-11.3139 342.113   3
   6   0   2-540.361 498.089   5
   6   0   3-84.5119 332.267   3
  -6   0  -3-338.751 413.627   1
   6   0   3 731.492 525.827   5
  -6   0  -3 435.437 254.211   6
  -6   0  -4 2090.76 679.042   1
   6   0   4 853.037 457.951   5
  -6   0  -4 1195.14 475.822   6
   6   0   4 2625.85 787.613   3
  -6   0  -5 1852.12 640.082   1
  -6   0  -5 3625.92 944.144   6
  -6   0  -6-310.249 434.058   6
  -6   0  -7 2926.32 976.120   6
  -6   0  -8 2955.03 1053.78   4
  -6   0  -8 3860.20 1198.41   6
  -6   0  -9 1038.31 578.077   4
  -6   0  -9 2604.07 1022.11   6
  -6   0 -10 503.270 461.888   4
  -6   0 -10 889.865 570.224   6
  -6   0 -11 1456.91 853.076   4
  -6   0 -11 1704.38 965.145   6
   6   1  -8 440.565 441.081   5
   6   1  -7 377.350 378.557   5
   6   1  -6-517.532 399.463   5
   6   1  -5 898.547 700.985   5
   6   1  -4 242.886 324.790   5
   6   1  -3 1755.16 829.220   5
   6   1  -2 5573.29 1340.30   5
   6   1  -1 13235.5 1954.17   5
   6   1   0 180.858 455.790   3
   6   1   0-121.737 489.350   5
   6   1   1 123.782 187.462   3
   6   1   1-350.314 472.580   5
   6   1   2 7569.18 1418.29   3
   6   1   2 6244.05 1340.59   5
   6   1   3 680.746 478.379   3
  -6  -1  -3 1281.46 636.094   1
   6   1   3 1378.03 563.547   5
  -6  -1  -4 10278.4 1676.43   1
   6   1   4 8963.41 1654.58   5
   6   1   4 10458.5 1576.71   3
  -6  -1  -4 9090.24 1363.01   6
  -6  -1  -5 1942.83 741.150   4
   6   1   5 1654.00 628.615   3
  -6  -1  -5 1589.33 637.690   6
  -6  -1  -5 835.524 483.808   1
  -6  -1  -6 199.961 156.727   1
  -6  -1  -6-193.593 396.169   6
  -6  -1  -6-298.699 436.624   4
  -6  -1  -7 1700.93 785.590   4
  -6  -1  -8-477.932 576.997   4
  -6  -1  -9 146.667 303.968   4
  -6  -1 -10-170.372 569.545   4
  -6  -1 -11-762.835 632.752   4
  -6  -1 -12 616.565 606.189   4
   6   2  -8 1499.46 888.875   5
   6   2  -7 109.413 293.338   5
   6   2  -6-570.927 487.781   5
   6   2  -5 516.776 458.678   5
   6   2  -4 621.206 574.360   5
   6   2  -3 779.174 615.721   5
   6   2  -2 229.174 294.649   5
   6   2  -1-437.349 643.064   3
   6   2  -1 713.158 592.017   5
   6   2   0 20885.6 2681.41   3
   6   2   0 19990.6 2355.04   5
   6   2   1-446.676 443.395   3
   6   2   1-131.676 399.464   5
   6   2   2 14725.3 2017.06   5
   6   2   2 14694.4 2085.09   3
   6   2   3-428.121 425.073   5
  -6  -2  -3 87.5240 239.853   4
   6   2   3-0.69749 224.342   3
  -6  -2  -4 5747.42 1306.25   1
   6   2   4 5658.19 1273.79   5
  -6  -2  -4 5622.88 1026.39   6
   6   2   4 6317.27 1229.14   3
  -6  -2  -4 4893.03 1049.75   4
   6   2   5 431.544 389.809   5
  -6  -2  -5 402.340 395.679   1
  -6  -2  -5 1424.65 635.891   4
  -6  -2  -6 1047.06 611.194   1
  -6  -2  -6 914.453 516.070   4
  -6  -2  -7 217.625 316.683   1
  -6  -2  -7 430.577 264.694   4
  -6  -2  -8 556.427 566.378   4
  -6  -2  -9-223.135 378.638   4
  -6  -2 -10-190.956 245.897   4
  -6  -2 -11 2533.63 1129.14   4
  -6  -2 -12 234.072 419.880   4
   6   3  -6 215.065 386.293   3
   6   3  -5 29.6100 258.044   5
   6   3  -5 255.704 633.953   3
   6   3  -4 236.295 275.563   5
   6   3  -4 1263.78 814.237   3
   6   3  -3 1332.58 645.460   3
   6   3  -3 1126.72 618.657   5
   6   3  -2 1084.74 753.934   3
   6   3  -2 375.925 405.385   5
   6   3  -1-351.190 351.633   3
   6   3  -1 65.0790 329.178   5
   6   3   0 232.410 362.361   3
   6   3   0-10.3466 220.973   5
   6   3   1 726.874 474.068   3
   6   3   1 45.6152 234.426   5
   6   3   2 16454.2 2241.25   3
   6   3   2 13919.5 1922.04   5
   6   3   3 630.173 473.499   5
   6   3   3 615.023 387.964   3
  -6  -3  -4 2270.93 825.068   1
   6   3   4 3459.94 1009.02   5
   6   3   4 2896.67 883.503   3
  -6  -3  -4 2587.66 711.363   4
  -6  -3  -5 6764.54 1254.08   4
   6   3   5 7287.29 1427.69   5
  -6  -3  -5 8902.85 1635.88   1
  -6  -3  -6 2996.77 927.119   4
  -6  -3  -6 4666.09 1180.43   1
  -6  -3  -7 12512.9 1975.63   4
  -6  -3  -7 13132.3 1952.46   1
  -6  -3  -8-559.010 585.530   4
  -6  -3  -9 1141.95 674.963   4
  -6  -3 -10 1047.23 652.081   4
  -6  -3 -11 82.6816 276.674   4
  -6  -3 -12-98.9798 512.114   4
   6   4  -5 2298.36 1089.54   3
   6   4  -4 177.876 458.418   3
   6   4  -3 204.669 402.540   3
   6   4  -2-549.215 505.448   3
   6   4  -1 278.495 340.863   3
   6   4  -1 226.319 387.560   5
   6   4   0-395.781 595.000   3
   6   4   0 1198.19 622.843   5
   6   4   1 2298.26 740.755   5
   6   4   1 2106.16 807.622   3
   6   4   2-100.503 131.972   5
   6   4   2-108.476 383.014   3
   6   4   3 5618.94 1161.83   5
   6   4   3 3771.15 1071.91   3
  -6  -4  -4-23.3073 182.936   4
   6   4   4 271.071 192.039   5
   6   4   4 228.042 196.478   3
  -6  -4  -4-39.7251 212.812   1
  -6  -4  -5-72.6021 285.568   4
  -6  -4  -5-211.370 218.731   1
   6   4   5-566.970 392.386   5
  -6  -4  -6 5570.03 1237.54   4
  -6  -4  -6 6021.89 1398.00   1
   6   4   6 7951.82 1461.80   5
  -6  -4  -7 3460.60 998.899   4
  -6  -4  -7 5370.29 1339.76   1
  -6  -4  -8 1572.18 769.626   4
  -6  -4  -9 249.549 163.248   4
  -6  -4 -10 1604.94 900.879   4
  -6  -4 -11 256.637 431.809   4
  -6  -4 -12-1129.21 760.026   4
  -6  -4 -13 702.605 631.060   4
   6   5  -4-556.417 544.160   3
   6   5  -3 104.096 390.990   3
   6   5  -2 137.001 298.018   3
   6   5  -1 21.0508 222.971   3
  -6  -5   1-393.679 381.580   2
  -6  -5   0 763.804 542.481   2
   6   5   0 2659.70 1018.33   3
  -6  -5  -1-277.843 372.736   2
   6   5   1 719.711 556.701   3
  -6  -5  -2 2224.84 762.469   2
   6   5   2 2793.85 996.785   3
  -6  -5  -3 4251.04 1013.94   2
   6   5   3 3900.27 1080.01   3
  -6  -5  -4 1094.82 525.567   2
  -6  -5  -4 1100.19 624.040   1
  -6  -5  -5 4336.60 1000.30   4
  -6  -5  -5 4482.21 1210.44   1
  -6  -5  -6-78.9031 120.413   4
   6   5   6-107.312 241.732   5
  -6  -5  -6 539.687 584.547   1
  -6  -5  -7-339.224 315.609   4
  -6  -5  -7 55.2028 319.804   1
  -6  -5  -8 665.370 582.750   4
  -6  -5  -8 817.526 736.376   1
  -6  -5  -9 1519.06 727.814   4
  -6  -5 -10-31.7089 392.743   4
  -6  -5 -11 3068.44 1179.96   4
  -6  -5 -12 693.797 532.942   4
  -6  -5 -13 433.256 542.506   4
  -6  -6   3-576.870 523.613   2
   6   6  -3-417.440 467.887   3
  -6  -6   2 363.224 547.266   2
   6   6  -2-1203.94 743.528   3
  -6  -6   1 1211.82 719.213   2
   6   6  -1 2121.07 969.439   3
  -6  -6   0 278.478 413.777   2
   6   6   0 134.372 443.303   3
  -6  -6  -1 481.681 408.606   2
   6   6   1-260.173 408.656   3
  -6  -6  -2 1980.28 812.027   2
   6   6   2 5175.26 1309.75   3
  -6  -6  -3 940.561 501.029   2
  -6  -6  -3 392.626 461.902   1
  -6  -6  -4-125.416 293.787   1
  -6  -6  -4 684.818 430.844   2
  -6  -6  -5 432.739 455.295   1
  -6  -6  -6 670.181 491.010   4
  -6  -6  -6-164.300 526.655   1
  -6  -6  -7 2411.28 842.522   4
  -6  -6  -7 4529.61 1269.04   1
  -6  -6  -8 4.22488 156.776   4
  -6  -6  -8 293.184 342.616   1
  -6  -6  -9 5573.05 1456.50   4
  -6  -6 -10 181.878 191.150   4
  -6  -6 -11 90.6378 202.589   4
  -6  -6 -12 466.280 476.035   4
  -6  -6 -13 490.088 598.656   4
  -6  -7   2 1389.84 860.011   2
   6   7  -2 1677.28 908.422   3
  -6  -7   1 145.520 319.450   2
   6   7  -1 583.098 512.654   3
  -6  -7   0 1.08158 257.118   2
   6   7   0-513.228 530.702   3
   6   7   1-287.936 433.666   3
  -6  -7  -1 890.429 660.779   2
  -6  -7  -2 991.095 657.260   2
  -6  -7  -3 669.113 690.469   1
  -6  -7  -3-49.8882 249.663   2
  -6  -7  -4-1221.30 780.853   1
  -6  -7  -4 302.090 323.196   2
  -6  -7  -5-42.1716 376.668   1
  -6  -7  -5-23.3190 113.620   2
  -6  -7  -6 1938.91 739.297   4
  -6  -7  -6 3997.06 1244.96   1
  -6  -7  -7-29.0005 220.865   4
  -6  -7  -7 1051.64 647.917   1
  -6  -7  -8-203.967 411.876   4
  -6  -7  -8 541.083 392.420   1
  -6  -7  -9-353.892 415.438   4
  -6  -7 -10 1244.93 658.452   4
  -6  -7 -11 238.443 700.061   4
  -6  -7 -12 1507.51 849.870   4
  -6  -7 -13 375.129 430.325   4
  -6  -8   1-113.476 259.244   2
   6   8  -1 288.387 352.801   3
  -6  -8   0 505.485 510.683   2
  -6  -8  -1 174.873 380.545   2
  -6  -8  -2-179.302 284.374   2
  -6  -8  -3 658.026 616.167   2
  -6  -8  -3-1107.82 877.333   1
  -6  -8  -4 242.658 375.566   1
  -6  -8  -4 88.5797 251.099   2
  -6  -8  -5 3542.13 1373.80   1
  -6  -8  -5 2573.43 906.535   2
  -6  -8  -6 1703.56 920.009   1
  -6  -8  -7 795.698 519.200   4
  -6  -8  -7 498.186 538.426   1
  -6  -8  -8 2026.10 822.694   4
  -6  -8  -8 2769.44 1076.08   1
  -6  -8  -9-15.7472 260.539   4
  -6  -8 -10 146.601 317.731   4
  -6  -8 -11 355.861 430.948   4
  -6  -8 -12 761.003 619.670   4
  -6  -9   0 223.007 544.879   2
  -6  -9  -1 1300.78 865.665   2
  -6  -9  -2 1039.11 714.355   1
  -6  -9  -2 1581.39 845.924   2
  -6  -9  -3 577.066 499.011   1
  -6  -9  -3 176.237 299.792   2
  -6  -9  -4 181.617 278.851   1
  -6  -9  -4-188.568 281.934   2
  -6  -9  -5 368.820 391.478   1
  -6  -9  -5 166.959 185.250   2
  -6  -9  -6-887.495 654.500   1
  -6  -9  -7 473.320 538.805   1
  -6  -9  -8 589.605 530.167   4
  -6  -9  -8 694.284 519.606   1
  -6  -9  -9 1839.02 867.187   4
  -6  -9 -10-187.022 302.637   4
  -6  -9 -11 1842.85 1032.63   4
  -6  -9 -12-317.252 414.917   4
  -6 -10  -2 1170.81 850.935   2
  -6 -10  -3 1072.19 870.643   1
  -6 -10  -3 147.499 296.439   2
  -6 -10  -4 425.957 514.626   1
  -6 -10  -4 333.673 401.515   2
  -6 -10  -5-537.299 487.097   2
  -6 -10  -5-597.901 588.743   1
  -6 -10  -6 3228.73 1289.55   1
  -6 -10  -7 1797.68 968.190   1
  -6 -10  -8 583.073 632.691   1
  -6 -10  -9 500.881 450.156   4
  -6 -10 -10 741.152 587.876   4
  -6 -10 -11 1.23849 468.010   4
  -6 -10 -12 107.999 288.878   4
  -6 -11  -3 12.7547 249.452   2
  -6 -11  -4-730.472 611.667   2
  -6 -11  -5 271.230 338.313   2
  -6 -11 -10-179.977 298.991   4
  -6 -11 -11 785.113 643.212   4
  -7   7  -3 133.252 321.643   6
   7  -6  -3 21.9400 368.769   5
   7  -6  -2 836.777 674.273   5
   7  -6  -1-160.420 406.017   5
   7  -6   0 1028.40 667.340   5
   7  -6   1-642.781 537.696   5
  -7   6  -3 95.5447 274.120   6
  -7   6  -4 148.634 269.102   6
  -7   6  -5-913.163 646.626   6
   7  -5  -4 1040.68 786.549   5
   7  -5  -3-3.49085 312.887   5
   7  -5  -2 484.518 655.289   5
   7  -5  -1-444.321 411.925   5
   7  -5   0-27.7037 244.918   5
   7  -5   1-531.051 447.302   5
   7  -5   2 1216.33 801.126   5
   7  -5   3 2084.34 983.992   5
   7  -5   4 248.705 242.473   5
  -7   5  -4 1650.08 804.077   6
  -7   5  -5-135.622 262.734   6
  -7   5  -6 55.8055 227.998   6
   7  -4  -5 820.845 621.826   5
   7  -4  -4 292.394 513.187   5
   7  -4  -3 867.232 721.677   5
   7  -4  -2-386.661 420.625   5
   7  -4  -1 780.948 619.001   5
   7  -4   0-171.483 347.662   5
   7  -4   1-173.159 340.032   5
   7  -4   2 626.899 667.151   5
   7  -4   3 73.6901 316.607   5
   7  -4   4 54.0236 553.425   5
  -7   4  -4 1102.44 616.010   6
   7  -4   5 1556.33 951.391   5
  -7   4  -5 938.811 605.175   6
  -7   4  -6 140.670 210.436   6
  -7   4  -7 6.22175 120.129   6
   7  -3  -6 2188.28 1062.01   5
   7  -3  -5 530.817 559.457   5
   7  -3  -4-515.610 408.198   5
   7  -3  -3-332.302 396.682   5
   7  -3  -2 596.747 299.270   5
   7  -3  -1 603.099 472.599   5
   7  -3   0 131.585 302.655   5
   7  -3   1-347.382 577.130   5
   7  -3   2-138.918 338.597   5
   7  -3   3-102.607 318.585   5
   7  -3   4-109.733 191.728   5
   7  -3   5-223.815 488.569   5
  -7   3  -5 135.508 178.297   6
  -7   3  -6 1410.81 762.641   6
  -7   3  -7 321.326 313.416   6
  -7   3  -8-1099.05 728.220   6
   7  -2  -6 1066.03 796.783   5
   7  -2  -5 572.792 469.289   5
   7  -2  -4 1157.46 687.844   5
   7  -2  -3 682.603 508.926   5
   7  -2  -2 1940.87 935.237   5
   7  -2  -1 1798.72 751.524   5
   7  -2   0 546.924 484.968   5
   7  -2   1-200.109 581.187   5
   7  -2   2-758.200 599.570   5
   7  -2   3 1258.12 818.238   5
   7  -2   4 120.015 543.466   5
   7  -2   5-31.0268 337.400   5
  -7   2  -5 167.451 228.654   6
  -7   2  -6 471.795 445.569   6
  -7   2  -7 948.750 648.191   6
  -7   2  -8 100.158 255.511   6
  -7   2  -9 360.519 518.460   6
   7  -1  -6-557.369 527.656   5
   7  -1  -5 1036.70 678.502   5
   7  -1  -4 1685.08 858.541   5
   7  -1  -3 1195.27 647.769   5
   7  -1  -2 122.954 409.837   5
   7  -1  -1 223.659 457.733   5
   7  -1   0 2433.66 980.457   5
   7  -1   1 247.167 201.723   3
   7  -1   1 467.533 366.424   5
   7  -1   2 1200.83 621.091   3
   7  -1   2 1580.34 736.949   5
   7  -1   3 676.696 493.137   5
   7  -1   4 140.569 353.245   5
   7  -1   5 826.288 702.951   5
   7  -1   6-77.0745 148.637   5
  -7   1  -6 7.00621 140.673   6
  -7   1  -7 154.388 300.609   6
  -7   1  -8-347.053 390.978   6
  -7   1  -9 395.216 426.780   6
  -7   1 -10 1149.50 809.186   6
   7   0  -6 1.24689 192.202   5
   7   0  -5 291.401 379.632   5
   7   0  -4-455.973 460.115   5
   7   0  -3 660.231 552.385   5
   7   0  -2-412.463 417.570   5
   7   0  -1-75.4529 189.050   5
   7   0   0 176.982 302.632   3
   7   0   0 674.853 632.305   5
   7   0   1 126.116 201.849   3
   7   0   1-151.889 435.724   5
   7   0   2 1743.19 740.906   3
   7   0   2 1523.95 751.172   5
   7   0   3 113.300 187.353   3
  -7   0  -3 167.100 279.263   1
  -7   0  -4 106.167 401.994   1
   7   0   4 1255.86 719.426   5
   7   0   5 526.552 400.621   5
   7   0   6 443.648 298.142   5
  -7   0  -7 32.4404 319.644   6
  -7   0  -8-14.4999 146.562   6
  -7   0  -9-874.642 627.144   6
  -7   0 -10-381.111 446.581   6
   7   1  -6 323.232 408.031   5
   7   1  -5-568.110 522.548   5
   7   1  -4-164.571 182.448   5
   7   1  -3 800.941 563.398   5
   7   1  -2 2171.08 898.123   5
   7   1  -1 520.494 489.649   3
   7   1  -1 1046.55 732.635   5
   7   1   0 3221.83 1113.82   3
   7   1   0 1233.46 673.167   5
   7   1   1-496.165 441.960   3
   7   1   1-98.4797 389.515   5
   7   1   2 35.8860 403.588   3
   7   1   2-79.8807 369.501   5
  -7  -1  -3 121.669 327.063   1
   7   1   3 81.5061 402.624   5
   7   1   3-348.158 554.150   3
  -7  -1  -4 572.586 567.145   1
   7   1   4 1474.83 719.383   5
   7   1   4 748.379 453.574   3
   7   1   5-603.977 440.892   5
  -7  -1  -5-21.5291 148.650   1
   7   1   6-750.058 631.168   5
  -7  -1  -6-264.304 292.765   1
  -7  -1  -7 399.658 408.978   6
  -7  -1  -8 23.7204 296.457   6
  -7  -1  -9 254.265 254.039   6
  -7  -1 -10 531.081 617.390   4
  -7  -1 -10 78.0823 242.476   6
  -7  -1 -11-49.8194 227.329   6
   7   2  -5 210.227 244.716   5
   7   2  -4-1387.74 873.678   3
   7   2  -4-132.445 255.507   5
   7   2  -3 175.254 265.442   3
   7   2  -3 886.252 517.288   5
   7   2  -2 674.693 561.939   3
   7   2  -2 885.551 571.373   5
   7   2  -1 417.747 397.628   3
   7   2  -1 1663.91 709.204   5
   7   2   0-549.630 604.506   3
   7   2   0-421.554 231.687   5
   7   2   1 99.8956 180.333   3
   7   2   1-88.5903 446.939   5
   7   2   2-666.892 500.541   3
   7   2   2 394.457 527.441   5
  -7  -2  -3 659.421 500.483   1
   7   2   3 483.981 306.734   5
   7   2   3 193.922 207.521   3
  -7  -2  -4 3087.20 997.429   1
   7   2   4 1677.66 703.000   5
   7   2   4 1831.48 748.874   3
   7   2   5 1487.18 764.000   5
  -7  -2  -5 2170.37 865.075   1
  -7  -2  -6 0.83890 292.557   1
   7   2   6-591.840 528.301   5
  -7  -2  -6 23.0732 137.939   4
  -7  -2  -7 378.850 376.846   1
  -7  -2  -7 367.647 377.586   4
  -7  -2  -8 430.572 373.954   6
  -7  -2  -8 1199.75 628.007   4
  -7  -2  -9 47.5739 362.373   4
  -7  -2 -10-477.180 485.463   4
  -7  -2 -11 280.164 415.669   4
   7   3  -3 861.602 766.161   3
   7   3  -2 348.070 447.766   3
   7   3  -1 859.061 293.147   3
   7   3  -1 158.628 287.412   5
   7   3   0-549.826 533.101   3
   7   3   0-185.377 348.169   5
   7   3   1 341.775 669.965   3
   7   3   1-130.972 303.746   5
   7   3   2 294.669 352.906   5
   7   3   2 465.167 513.083   3
  -7  -3  -3 62.4535 244.079   1
   7   3   3-533.857 414.240   5
   7   3   3-40.5326 159.985   3
  -7  -3  -4 30.1815 183.325   1
   7   3   4 347.854 244.453   3
   7   3   5 805.218 512.600   5
  -7  -3  -5 290.837 381.406   1
  -7  -3  -6 1735.53 750.179   1
   7   3   6 572.437 542.646   5
  -7  -3  -7 195.347 460.866   1
   7   3   7-0.97909 239.605   5
  -7  -3  -7-196.799 224.122   4
  -7  -3  -8 312.250 393.698   4
  -7  -3  -9 214.106 419.349   4
  -7  -3 -10 862.464 672.063   4
  -7  -3 -11 448.985 581.412   4
   7   4  -2-1019.90 723.966   3
   7   4  -1-1760.79 911.652   3
   7   4   0 231.508 283.557   3
   7   4   1 359.128 520.267   3
   7   4   2 367.334 374.816   3
  -7  -4  -3-158.088 291.051   1
   7   4   3 179.795 335.479   3
  -7  -4  -4 2239.07 927.599   1
   7   4   4 2570.35 872.435   3
  -7  -4  -5 70.4974 187.292   1
   7   4   5 836.780 541.792   5
   7   4   6 1255.42 667.123   5
  -7  -4  -6 1272.13 693.734   1
   7   4   7 1581.39 757.226   5
  -7  -4  -7 666.079 554.681   1
  -7  -4  -7 228.316 324.366   4
  -7  -4  -8 181.457 608.725   1
  -7  -4  -8 541.424 500.175   4
  -7  -4  -9 475.186 491.139   4
  -7  -4 -10 1113.29 766.232   4
  -7  -4 -11-71.6011 249.887   4
   7   5  -1 1311.44 765.403   3
   7   5   0-774.946 600.410   3
   7   5   1 1347.84 804.470   3
   7   5   2-498.089 535.779   3
  -7  -5  -3-146.850 303.684   1
   7   5   3 121.271 298.056   3
  -7  -5  -4 299.258 555.412   1
  -7  -5  -5 372.692 280.862   1
  -7  -5  -6 490.736 523.344   1
  -7  -5  -7-664.503 524.945   1
  -7  -5  -8 325.521 534.651   4
  -7  -5  -8 218.064 312.052   1
  -7  -5  -9-1.04659 179.413   4
  -7  -5 -10 10.3275 216.544   4
  -7  -5 -11 450.671 541.545   4
  -7  -5 -12-173.507 340.109   4
   7   6   0 870.286 676.358   3
   7   6   1 47.1099 283.939   3
  -7  -6  -2 321.911 337.916   2
   7   6   2 331.405 431.685   3
  -7  -6  -3 267.713 396.625   1
  -7  -6  -4-322.887 432.052   1
  -7  -6  -5 1424.43 824.483   1
  -7  -6  -6 934.465 701.985   1
  -7  -6  -7-263.028 360.164   1
  -7  -6  -8 405.426 432.876   1
  -7  -6  -9 2102.59 935.862   4
  -7  -6 -10 675.456 590.215   4
  -7  -6 -11 1864.23 879.370   4
  -7  -6 -12 46.1758 181.622   4
  -7  -7   1 87.2385 188.299   2
  -7  -7   0-80.5459 202.048   2
  -7  -7  -1-440.268 430.330   2
   7   7   1 70.6871 262.910   3
  -7  -7  -2 1050.65 719.650   2
  -7  -7  -3-1549.48 925.689   1
  -7  -7  -4 1812.10 976.970   1
  -7  -7  -5 533.990 398.798   1
  -7  -7  -6 1424.52 928.303   1
  -7  -7  -7 1656.39 876.483   1
  -7  -7  -8 1064.88 731.517   1
  -7  -7  -9 347.192 461.764   1
  -7  -7 -10 515.649 459.453   4
  -7  -7 -11 351.730 444.753   4
  -7  -7 -12 176.382 341.838   4
  -7  -8  -1 517.054 573.403   2
  -7  -8  -2-539.421 490.814   2
  -7  -8  -3 635.372 625.399   1
  -7  -8  -4 319.705 311.833   1
  -7  -8  -5-1580.86 929.401   1
  -7  -8  -6-354.377 456.482   1
  -7  -8  -7 63.5411 310.264   1
  -7  -8  -8-216.785 351.812   1
  -7  -8  -9 622.478 559.526   1
  -7  -8 -10 801.103 552.919   4
  -7  -8 -11 84.0032 272.191   4
  -7  -9  -2-166.539 297.664   2
  -7  -9  -3-207.120 309.809   2
   8  -3   1-37.5141 236.378   5
   8  -2  -2-13.5513 334.880   5
   8  -2  -1-109.994 260.403   5
   8  -2   0 4.48719 324.993   3
   8  -2   0-424.613 459.240   5
   8  -2   1-162.219 463.247   5
   8  -2   2 608.695 598.489   5
   8  -2   3 100.125 397.537   5
   8  -2   4-709.501 615.518   5
   8  -1  -3-1073.16 717.433   5
   8  -1  -2 494.476 667.441   5
   8  -1  -1 181.818 317.803   3
   8  -1  -1 933.682 665.140   5
   8  -1   0-911.247 639.973   3
   8  -1   0 567.015 500.391   5
   8  -1   1 363.475 541.066   3
   8  -1   1 855.293 680.239   5
   8  -1   2-639.575 545.995   5
   8  -1   3 560.064 494.425   5
   8  -1   4-489.006 508.280   5
   8  -1   5 1861.06 966.982   5
   8  -1   6-194.827 372.412   5
   8   0  -3 284.409 459.301   5
   8   0  -2-1203.72 803.601   3
   8   0  -2 389.850 381.186   5
   8   0  -1 839.462 638.987   3
   8   0  -1 505.963 481.130   5
   8   0   0-187.415 314.811   3
   8   0   0-345.633 397.060   5
   8   0   1 177.976 332.641   3
   8   0   1-477.247 467.735   5
   8   0   2-618.279 497.662   3
   8   0   2-629.624 535.567   5
   8   0   3-1060.93 692.007   5
   8   0   4 633.120 650.265   5
   8   0   5 547.933 600.039   5
   8   0   6 981.913 706.676   5
   8   0   7 497.569 354.707   5
   8   1  -3 553.257 548.453   5
   8   1  -2 105.402 274.235   5
   8   1  -1-317.317 434.616   3
   8   1  -1 1106.21 739.606   5
   8   1   0-49.9272 201.312   3
   8   1   0-346.233 384.968   5
   8   1   1 1026.30 731.470   3
   8   1   1 1233.35 748.637   5
   8   1   2-1074.49 662.556   3
   8   1   2-673.293 531.098   5
   8   1   3-82.1294 217.255   5
   8   1   3 7.84299 163.105   3
  -8  -1  -3-239.252 337.424   1
   8   1   4-111.800 255.483   5
   8   1   5-415.770 443.082   5
   8   1   6 303.568 416.377   5
   8   1   7-598.641 565.719   5
   8   1   8-170.586 333.352   5
   8   2  -1 688.638 634.880   3
   8   2   0-26.5054 485.331   3
   8   2   0 397.400 440.004   5
   8   2   1-1232.94 742.982   3
   8   2   1 825.770 624.588   5
   8   2   2 337.573 259.957   5
   8   2   2-98.9407 228.226   3
   8   2   3 144.498 203.164   5
   8   2   3 107.902 222.236   3
   8   2   4-309.939 377.653   5
   8   2   4 0.97351 107.782   3
   8   2   5 1202.39 867.396   5
  -8  -2  -5 241.365 594.512   1
   8   2   6 1131.49 633.846   5
   8   2   7-531.139 518.683   5
   8   2   8 1.29714 237.941   5
   8   3   0-1453.65 854.781   3
   8   3   1 561.804 527.945   3
   8   3   2 208.701 333.874   3
   8   3   3-609.928 515.644   3
  -8  -3  -3 63.8604 195.328   1
  -8  -3  -4 2725.18 1168.59   1
   8   3   4 940.300 623.660   3
  -8  -3  -5-1.12972 284.970   1
  -8  -3  -6 446.456 504.718   1
   8   3   6 358.976 405.241   5
  -8  -3  -7-348.274 389.138   1
   8   3   7 511.363 585.637   5
   8   3   8-164.682 314.011   5
   8   3   9-452.830 486.443   5
   8   4   1 266.618 499.261   3
   8   4   2 1.19955 342.652   3
   8   4   3-569.848 537.184   3
  -8  -4  -3 2.70457 430.807   1
  -8  -4  -4 118.864 171.677   1
  -8  -4  -5 37.9545 340.161   1
  -8  -4  -6 40.8813 197.595   1
  -8  -4  -7 75.3530 377.951   1
  -8  -4  -8-1.10429 245.969   1
   8   5   2 102.220 381.624   3
   8   5   3 816.113 630.533   3
  -8  -5  -3 1.45846 534.683   1
  -8  -5  -4 327.093 471.788   1
  -8  -5  -5-43.5957 204.449   1
  -8  -5  -6-39.0168 198.011   1
  -8  -5  -7-678.331 565.859   1
  -8  -5  -8 954.484 718.300   1
  -8  -6  -6-177.030 344.566   1
  -8  -6  -7 78.1993 465.484   1
   0   0   0    0.00    0.00   0
TITL wangxp_1212 in P-1
REM P-1 (#2 in standard setting)
CELL 0.71073   6.577886  11.366461  12.617683  64.9770  78.7269  84.8929
ZERR    4.00   0.000932   0.001374   0.001792   0.0128   0.0120   0.0108
LATT  1
SFAC C H N O
UNIT 44.00 40.00 4.00 4.00
TREF
HKLF 4
END
;
_shelx_hkl_checksum              15567
_olex2_date_sample_data_collection 2018-12-14
_olex2_submission_special_instructions 'No special instructions were received'
loop_
_space_group_symop_operation_xyz
'x, y, z'
'-x, -y, -z'
loop_
_atom_site_label
_atom_site_type_symbol
_atom_site_fract_x
_atom_site_fract_y
_atom_site_fract_z
_atom_site_U_iso_or_equiv
_atom_site_adp_type
_atom_site_occupancy
_atom_site_site_symmetry_order
_atom_site_calc_flag
_atom_site_refinement_flags_posn
I1 I 0.35139(12) 0.15160(5) 0.34410(5) 0.1011(3) Uani 1 1 d .
O1 O 0.2450(7) 0.5156(4) 0.4979(4) 0.0624(12) Uani 1 1 d .
O2 O 0.5322(6) 0.1384(4) 0.7866(4) 0.0588(11) Uani 1 1 d .
N1 N 0.2768(7) 0.3026(4) 0.6164(4) 0.0410(10) Uani 1 1 d .
N2 N 0.2114(6) 0.2076(4) 0.7321(4) 0.0361(9) Uani 1 1 d .
C1 C 0.1015(12) 0.5370(7) 0.7296(7) 0.0700(19) Uani 1 1 d .
H1 H -0.012444 0.558530 0.691249 0.084 Uiso 1 1 calc R
C2 C 0.1097(16) 0.5780(9) 0.8166(8) 0.093(3) Uani 1 1 d .
H2 H -0.000443 0.625346 0.838114 0.112 Uiso 1 1 calc R
C3 C 0.2775(15) 0.5500(7) 0.8714(8) 0.079(2) Uani 1 1 d .
H3 H 0.283345 0.579830 0.928931 0.095 Uiso 1 1 calc R
C4 C 0.4387(12) 0.4776(7) 0.8417(7) 0.0690(19) Uani 1 1 d .
H4 H 0.553309 0.458274 0.879344 0.083 Uiso 1 1 calc R
C5 C 0.4305(9) 0.4334(6) 0.7557(6) 0.0522(14) Uani 1 1 d .
H5 H 0.538590 0.383332 0.736514 0.063 Uiso 1 1 calc R
C6 C 0.2620(9) 0.4637(5) 0.6986(5) 0.0442(13) Uani 1 1 d .
C7 C 0.2573(8) 0.4323(5) 0.5963(5) 0.0432(12) Uani 1 1 d .
C8 C 0.2196(10) 0.2596(6) 0.5306(5) 0.0495(14) Uani 1 1 d .
H8 H 0.153522 0.331457 0.471401 0.059 Uiso 1 1 calc R
C9 C 0.0625(12) 0.1497(9) 0.6054(6) 0.084(3) Uani 1 1 d .
H9A H -0.066437 0.168910 0.574740 0.100 Uiso 1 1 calc R
H9B H 0.117483 0.067990 0.604577 0.100 Uiso 1 1 calc R
C10 C 0.0277(9) 0.1430(6) 0.7313(5) 0.0469(13) Uani 1 1 d .
H10 H -0.100175 0.188334 0.747518 0.056 Uiso 1 1 calc R
C11 C 0.0412(8) 0.0123(5) 0.8298(5) 0.0430(12) Uani 1 1 d .
C12 C 0.2288(8) -0.0013(5) 0.8683(5) 0.0392(12) Uani 1 1 d .
C13 C 0.3520(8) 0.1178(5) 0.7939(5) 0.0380(11) Uani 1 1 d .
C14 C 0.2815(10) -0.1127(5) 0.9614(5) 0.0524(15) Uani 1 1 d .
H14 H 0.407509 -0.120326 0.986821 0.063 Uiso 1 1 calc R
C15 C 0.1381(12) -0.2117(6) 1.0146(6) 0.0661(19) Uani 1 1 d .
H15 H 0.167316 -0.287517 1.077835 0.079 Uiso 1 1 calc R
C16 C -0.0470(12) -0.2003(6) 0.9758(6) 0.0640(19) Uani 1 1 d .
H16 H -0.138920 -0.269435 1.012403 0.077 Uiso 1 1 calc R
C17 C -0.0999(10) -0.0894(6) 0.8845(6) 0.0550(16) Uani 1 1 d .
H17 H -0.226513 -0.082390 0.859897 0.066 Uiso 1 1 calc R
C18 C 0.4163(11) 0.2180(7) 0.4698(7) 0.0664(18) Uani 1 1 d .
H18A H 0.483226 0.148772 0.529103 0.080 Uiso 1 1 calc R
H18B H 0.511012 0.290592 0.429252 0.080 Uiso 1 1 calc R
loop_
_atom_site_aniso_label
_atom_site_aniso_U_11
_atom_site_aniso_U_22
_atom_site_aniso_U_33
_atom_site_aniso_U_23
_atom_site_aniso_U_13
_atom_site_aniso_U_12
I1 0.1732(7) 0.0738(4) 0.0702(4) -0.0457(3) -0.0120(4) -0.0091(4)
O1 0.074(3) 0.051(3) 0.043(2) -0.002(2) -0.008(2) -0.006(2)
O2 0.042(2) 0.057(3) 0.072(3) -0.016(2) -0.021(2) -0.0030(18)
N1 0.046(3) 0.045(3) 0.026(2) -0.0091(19) -0.0067(19) -0.0034(19)
N2 0.035(2) 0.038(2) 0.032(2) -0.0096(18) -0.0093(18) -0.0033(17)
C1 0.073(5) 0.069(4) 0.067(5) -0.030(4) -0.016(4) 0.025(3)
C2 0.116(7) 0.086(6) 0.084(6) -0.052(5) -0.008(5) 0.038(5)
C3 0.113(6) 0.061(4) 0.076(5) -0.039(4) -0.019(5) 0.005(4)
C4 0.075(5) 0.070(5) 0.079(5) -0.042(4) -0.026(4) 0.003(4)
C5 0.051(3) 0.049(3) 0.062(4) -0.028(3) -0.011(3) -0.001(3)
C6 0.048(3) 0.036(3) 0.042(3) -0.010(2) -0.001(3) -0.006(2)
C7 0.038(3) 0.044(3) 0.040(3) -0.011(2) -0.004(2) -0.005(2)
C8 0.068(4) 0.047(3) 0.033(3) -0.013(2) -0.016(3) -0.003(3)
C9 0.083(5) 0.118(7) 0.054(4) -0.029(4) -0.011(4) -0.054(5)
C10 0.041(3) 0.057(3) 0.041(3) -0.016(3) -0.010(2) -0.010(2)
C11 0.046(3) 0.043(3) 0.042(3) -0.023(2) 0.000(2) -0.004(2)
C12 0.044(3) 0.039(3) 0.036(3) -0.019(2) -0.004(2) 0.003(2)
C13 0.040(3) 0.042(3) 0.036(3) -0.018(2) -0.010(2) 0.001(2)
C14 0.061(4) 0.041(3) 0.049(3) -0.016(3) -0.006(3) 0.011(3)
C15 0.090(5) 0.038(3) 0.057(4) -0.016(3) 0.007(4) 0.004(3)
C16 0.078(5) 0.042(3) 0.069(4) -0.032(3) 0.023(4) -0.017(3)
C17 0.051(3) 0.061(4) 0.060(4) -0.037(3) 0.008(3) -0.015(3)
C18 0.077(4) 0.057(4) 0.077(5) -0.039(4) -0.011(4) -0.008(3)
loop_
_atom_type_symbol
_atom_type_description
_atom_type_scat_dispersion_real
_atom_type_scat_dispersion_imag
_atom_type_scat_source
C C 0.0033 0.0016 'International Tables Vol C Tables 4.2.6.8 and 6.1.1.4'
H H 0.0000 0.0000 'International Tables Vol C Tables 4.2.6.8 and 6.1.1.4'
I I -0.4742 1.8119 'International Tables Vol C Tables 4.2.6.8 and 6.1.1.4'
N N 0.0061 0.0033 'International Tables Vol C Tables 4.2.6.8 and 6.1.1.4'
O O 0.0106 0.0060 'International Tables Vol C Tables 4.2.6.8 and 6.1.1.4'
loop_
_geom_angle_atom_site_label_1
_geom_angle_atom_site_label_2
_geom_angle_atom_site_label_3
_geom_angle
N2 N1 C8 108.4(4)
C7 N1 N2 118.8(4)
C7 N1 C8 119.8(4)
N1 N2 C10 108.2(4)
C13 N2 N1 120.7(4)
C13 N2 C10 111.5(4)
C2 C1 H1 119.8
C2 C1 C6 120.4(7)
C6 C1 H1 119.8
C1 C2 H2 119.8
C3 C2 C1 120.5(7)
C3 C2 H2 119.8
C2 C3 H3 120.0
C2 C3 C4 120.0(7)
C4 C3 H3 120.0
C3 C4 H4 120.0
C3 C4 C5 120.1(7)
C5 C4 H4 120.0
C4 C5 H5 120.0
C6 C5 C4 119.9(6)
C6 C5 H5 120.0
C1 C6 C7 118.7(6)
C5 C6 C1 119.1(6)
C5 C6 C7 121.9(5)
O1 C7 N1 120.7(5)
O1 C7 C6 122.4(5)
N1 C7 C6 116.9(5)
N1 C8 H8 109.8
N1 C8 C9 105.0(5)
N1 C8 C18 108.0(5)
C9 C8 H8 109.8
C18 C8 H8 109.8
C18 C8 C9 114.3(6)
C8 C9 H9A 110.6
C8 C9 H9B 110.6
H9A C9 H9B 108.8
C10 C9 C8 105.6(5)
C10 C9 H9A 110.6
C10 C9 H9B 110.6
N2 C10 C9 103.6(4)
N2 C10 H10 111.2
N2 C10 C11 101.9(4)
C9 C10 H10 111.2
C11 C10 C9 116.9(6)
C11 C10 H10 111.2
C12 C11 C10 109.8(4)
C12 C11 C17 119.5(5)
C17 C11 C10 130.7(5)
C11 C12 C13 108.8(5)
C11 C12 C14 122.4(5)
C14 C12 C13 128.8(5)
O2 C13 N2 125.5(5)
O2 C13 C12 129.9(5)
N2 C13 C12 104.6(4)
C12 C14 H14 121.5
C15 C14 C12 116.9(6)
C15 C14 H14 121.5
C14 C15 H15 119.4
C16 C15 C14 121.2(6)
C16 C15 H15 119.4
C15 C16 H16 119.1
C17 C16 C15 121.7(6)
C17 C16 H16 119.1
C11 C17 H17 120.9
C16 C17 C11 118.2(6)
C16 C17 H17 120.9
I1 C18 H18A 109.4
I1 C18 H18B 109.4
C8 C18 I1 111.2(4)
C8 C18 H18A 109.4
C8 C18 H18B 109.4
H18A C18 H18B 108.0
loop_
_geom_bond_atom_site_label_1
_geom_bond_atom_site_label_2
_geom_bond_distance
I1 C18 2.145(7)
O1 C7 1.215(7)
O2 C13 1.207(6)
N1 N2 1.410(6)
N1 C7 1.384(7)
N1 C8 1.481(7)
N2 C10 1.472(6)
N2 C13 1.395(7)
C1 H1 0.9300
C1 C2 1.373(11)
C1 C6 1.385(9)
C2 H2 0.9300
C2 C3 1.360(12)
C3 H3 0.9300
C3 C4 1.376(11)
C4 H4 0.9300
C4 C5 1.386(9)
C5 H5 0.9300
C5 C6 1.378(8)
C6 C7 1.485(8)
C8 H8 0.9800
C8 C9 1.539(9)
C8 C18 1.516(9)
C9 H9A 0.9700
C9 H9B 0.9700
C9 C10 1.529(9)
C10 H10 0.9800
C10 C11 1.489(8)
C11 C12 1.385(8)
C11 C17 1.393(8)
C12 C13 1.481(7)
C12 C14 1.388(8)
C14 H14 0.9300
C14 C15 1.382(9)
C15 H15 0.9300
C15 C16 1.375(10)
C16 H16 0.9300
C16 C17 1.374(10)
C17 H17 0.9300
C18 H18A 0.9700
C18 H18B 0.9700
loop_
_geom_torsion_atom_site_label_1
_geom_torsion_atom_site_label_2
_geom_torsion_atom_site_label_3
_geom_torsion_atom_site_label_4
_geom_torsion
N1 N2 C10 C9 30.7(7)
N1 N2 C10 C11 152.5(4)
N1 N2 C13 O2 33.5(8)
N1 N2 C13 C12 -147.7(4)
N1 C8 C9 C10 3.9(8)
N1 C8 C18 I1 179.4(4)
N2 N1 C7 O1 -155.6(5)
N2 N1 C7 C6 27.1(7)
N2 N1 C8 C9 15.1(7)
N2 N1 C8 C18 -107.2(5)
N2 C10 C11 C12 -8.6(6)
N2 C10 C11 C17 170.7(6)
C1 C2 C3 C4 -1.5(13)
C1 C6 C7 O1 56.1(8)
C1 C6 C7 N1 -126.7(6)
C2 C1 C6 C5 -0.4(10)
C2 C1 C6 C7 -174.1(7)
C2 C3 C4 C5 0.2(12)
C3 C4 C5 C6 1.0(10)
C4 C5 C6 C1 -0.8(9)
C4 C5 C6 C7 172.6(6)
C5 C6 C7 O1 -117.3(6)
C5 C6 C7 N1 59.9(7)
C6 C1 C2 C3 1.6(13)
C7 N1 N2 C10 112.0(5)
C7 N1 N2 C13 -117.9(5)
C7 N1 C8 C9 -125.8(6)
C7 N1 C8 C18 111.9(6)
C8 N1 N2 C10 -29.4(6)
C8 N1 N2 C13 100.7(5)
C8 N1 C7 O1 -18.7(7)
C8 N1 C7 C6 164.1(5)
C8 C9 C10 N2 -20.3(8)
C8 C9 C10 C11 -131.4(6)
C9 C8 C18 I1 63.0(6)
C9 C10 C11 C12 103.4(6)
C9 C10 C11 C17 -77.2(8)
C10 N2 C13 O2 162.1(5)
C10 N2 C13 C12 -19.0(6)
C10 C11 C12 C13 -2.3(6)
C10 C11 C12 C14 178.5(5)
C10 C11 C17 C16 -179.1(6)
C11 C12 C13 O2 -168.3(6)
C11 C12 C13 N2 12.9(5)
C11 C12 C14 C15 0.5(8)
C12 C11 C17 C16 0.2(8)
C12 C14 C15 C16 0.7(9)
C13 N2 C10 C9 -104.3(6)
C13 N2 C10 C11 17.4(6)
C13 C12 C14 C15 -178.6(5)
C14 C12 C13 O2 10.8(10)
C14 C12 C13 N2 -168.0(5)
C14 C15 C16 C17 -1.4(10)
C15 C16 C17 C11 1.0(9)
C17 C11 C12 C13 178.3(5)
C17 C11 C12 C14 -0.9(8)
C18 C8 C9 C10 122.0(7)
