#------------------------------------------------------------------------------
#$Date: 2019-11-04 13:46:42 +0200 (Mon, 04 Nov 2019) $
#$Revision: 222924 $
#$URL: file:///home/coder/svn-repositories/cod/cif/4/03/43/4034387.cif $
#------------------------------------------------------------------------------
#
# This file is available in the Crystallography Open Database (COD),
# http://www.crystallography.net/
#
# All data on this site have been placed in the public domain by the
# contributors.
#
data_4034387
loop_
_publ_author_name
'Hoffmann, Hendrik'
'Mukanov, Diana'
'Ganschow, Michael'
'Rominger, Frank'
'Freudenberg, Jan'
'Bunz, Uwe H. F.'
_publ_section_title
;
 2,3-Dihalo- and 2,3,6,7-Tetrahaloanthracenes by Vollhardt Trimerization.
;
_journal_issue                   15
_journal_name_full               'The Journal of organic chemistry'
_journal_page_first              9826
_journal_page_last               9834
_journal_paper_doi               10.1021/acs.joc.9b01567
_journal_volume                  84
_journal_year                    2019
_chemical_formula_sum            'C14 H6 Br4'
_chemical_formula_weight         493.83
_space_group_crystal_system      monoclinic
_space_group_IT_number           14
_space_group_name_Hall           '-P 2yn'
_space_group_name_H-M_alt        'P 1 21/n 1'
_atom_sites_solution_hydrogens   geom
_audit_creation_method           SHELXL-2018/3
_cell_angle_alpha                90
_cell_angle_beta                 100.7707(11)
_cell_angle_gamma                90
_cell_formula_units_Z            2
_cell_length_a                   6.3875(5)
_cell_length_b                   15.8910(13)
_cell_length_c                   6.5698(5)
_cell_measurement_reflns_used    3326
_cell_measurement_temperature    200(2)
_cell_measurement_theta_max      29.60
_cell_measurement_theta_min      2.56
_cell_volume                     655.11(9)
_computing_cell_refinement       'Bruker SAINT'
_computing_data_collection       'Bruker APEX2'
_computing_data_reduction        'Bruker SAINT'
_computing_molecular_graphics    'Bruker SHELXTL'
_computing_publication_material  'Bruker SHELXTL'
_computing_structure_refinement  'SHELXL-2018/3 (Sheldrick, 2018)'
_computing_structure_solution    'SHELXT-2014 (Sheldrick 2014)'
_diffrn_ambient_temperature      200(2)
_diffrn_measured_fraction_theta_full 1.000
_diffrn_measured_fraction_theta_max 0.998
_diffrn_measurement_device_type  'Bruker APEX-II Quazar area detector'
_diffrn_measurement_method       '\f and \w scans'
_diffrn_radiation_type           MoK\a
_diffrn_radiation_wavelength     0.71073
_diffrn_reflns_av_R_equivalents  0.0183
_diffrn_reflns_av_unetI/netI     0.0193
_diffrn_reflns_Laue_measured_fraction_full 1.000
_diffrn_reflns_Laue_measured_fraction_max 0.998
_diffrn_reflns_limit_h_max       8
_diffrn_reflns_limit_h_min       -6
_diffrn_reflns_limit_k_max       22
_diffrn_reflns_limit_k_min       -20
_diffrn_reflns_limit_l_max       9
_diffrn_reflns_limit_l_min       -9
_diffrn_reflns_number            5518
_diffrn_reflns_point_group_measured_fraction_full 1.000
_diffrn_reflns_point_group_measured_fraction_max 0.998
_diffrn_reflns_theta_full        25.242
_diffrn_reflns_theta_max         29.616
_diffrn_reflns_theta_min         2.563
_diffrn_source                   'ImuS microsource'
_exptl_absorpt_coefficient_mu    12.262
_exptl_absorpt_correction_T_max  0.3357
_exptl_absorpt_correction_T_min  0.2521
_exptl_absorpt_correction_type   multi-scan
_exptl_absorpt_process_details
;
Sheldrick, G. M. (2008). <i>SADABS</i>. University of G\"ottingen, Germany.
;
_exptl_crystal_colour            yellow
_exptl_crystal_density_diffrn    2.503
_exptl_crystal_description       plate
_exptl_crystal_F_000             460
_exptl_crystal_size_max          0.279
_exptl_crystal_size_mid          0.161
_exptl_crystal_size_min          0.120
_refine_diff_density_max         0.498
_refine_diff_density_min         -0.430
_refine_diff_density_rms         0.088
_refine_ls_extinction_method     none
_refine_ls_goodness_of_fit_ref   1.034
_refine_ls_hydrogen_treatment    constr
_refine_ls_matrix_type           full
_refine_ls_number_parameters     82
_refine_ls_number_reflns         1833
_refine_ls_number_restraints     0
_refine_ls_restrained_S_all      1.034
_refine_ls_R_factor_all          0.0229
_refine_ls_R_factor_gt           0.0193
_refine_ls_shift/su_max          0.001
_refine_ls_shift/su_mean         0.000
_refine_ls_structure_factor_coef Fsqd
_refine_ls_weighting_details
'w=1/[\s^2^(Fo^2^)+(0.0206P)^2^+0.5395P] where P=(Fo^2^+2Fc^2^)/3'
_refine_ls_weighting_scheme      calc
_refine_ls_wR_factor_gt          0.0451
_refine_ls_wR_factor_ref         0.0462
_reflns_Friedel_coverage         0.000
_reflns_number_gt                1664
_reflns_number_total             1833
_reflns_threshold_expression     'I > 2\s(I)'
_cod_data_source_file            jo9b01567_si_001.cif
_cod_data_source_block           heh18
_cod_original_sg_symbol_H-M      'P 21/n'
_cod_database_code               4034387
_shelx_shelxl_version_number     2018/3
_shelx_space_group_comment
; 
The symmetry employed for this shelxl refinement is uniquely defined 
by the following loop, which should always be used as a source of 
symmetry information in preference to the above space-group names. 
They are only intended as comments. 
;
_shelx_estimated_absorpt_t_min   0.131
_shelx_estimated_absorpt_t_max   0.321
_shelx_res_file
; 
TITL heh18 in P2(1)/n 
    heh18.res 
    created by SHELXL-2018/3 at 10:40:49 on 20-Apr-2018 
REM 
REM  sehr sch&#x00F6;ne Messung, unglaublich, dass es diese Struktur noch nicht gibt, 
REM  L&#x00F6;sung problemlos, spezielle Lage &#x00FC;ber i, Wasserstoffatome gesehen, alle 
REM  an konstruierten Positionen ber&#x00FC;cksichtigt. 
REM 
REM 
CELL 0.71073   6.38750  15.89100   6.56980  90.0000 100.7707  90.0000 
ZERR    2.00   0.00050   0.00130   0.00050   0.0000   0.0011   0.0000 
LATT  1 
SYMM 0.5-X, 0.5+Y, 0.5-Z 
SFAC C H BR 
UNIT 28 12 8 
TEMP -73.140 
SIZE 0.12 0.161 0.279 
  
L.S. 4 
ACTA 
BOND $H 
CONF 
FMAP 2 
PLAN 5 
WGHT    0.020600    0.539500 
FVAR       0.13970 
BR1   3    0.374028    0.739531    0.379506    11.00000    0.02586    0.02621 = 
         0.02424    0.01094    0.00528    0.00511 
BR2   3    0.824632    0.636281    0.348741    11.00000    0.02545    0.02597 = 
         0.02230    0.00382    0.01034    0.00015 
C11   1    0.359007    0.631623    0.715195    11.00000    0.01799    0.01715 = 
         0.01891    0.00027    0.00173    0.00169 
AFIX  43 
H11   2    0.232715    0.662000    0.723245    11.00000   -1.20000 
AFIX   0 
C12   1    0.472860    0.651264    0.565671    11.00000    0.02014    0.01500 = 
         0.01750    0.00190    0.00041   -0.00006 
C13   1    0.662588    0.606209    0.551437    11.00000    0.01933    0.01810 = 
         0.01506   -0.00136    0.00410   -0.00331 
C14   1    0.733139    0.542623    0.685880    11.00000    0.01732    0.01919 = 
         0.01841   -0.00154    0.00390    0.00154 
AFIX  43 
H14   2    0.859629    0.513073    0.674149    11.00000   -1.20000 
AFIX   0 
C15   1    0.617844    0.520124    0.844525    11.00000    0.01838    0.01578 = 
         0.01565   -0.00097    0.00330    0.00068 
C16   1    0.685823    0.454961    0.984610    11.00000    0.01983    0.01757 = 
         0.01788    0.00068    0.00421    0.00380 
AFIX  43 
H16   2    0.811057    0.424327    0.974024    11.00000   -1.20000 
AFIX   0 
C17   1    0.571731    0.434268    1.140286    11.00000    0.01891    0.01573 = 
         0.01593   -0.00074    0.00209    0.00044 
HKLF 4 
  
  
  
  
REM  heh18 in P2(1)/n 
REM wR2 = 0.0462, GooF = S = 1.034, Restrained GooF = 1.034 for all data 
REM R1 = 0.0193 for 1664 Fo > 4sig(Fo) and 0.0229 for all 1833 data 
REM 82 parameters refined using 0 restraints 
  
END 
  
WGHT      0.0206      0.5395 
  
REM Highest difference peak  0.498,  deepest hole -0.430,  1-sigma level  0.088 
Q1    1   0.8208  0.5786  0.3174  11.00000  0.05    0.50 
Q2    1   0.5204  0.5389  0.8546  11.00000  0.05    0.48 
Q3    1   0.6957  0.5799  0.6326  11.00000  0.05    0.45 
Q4    1   0.6584  0.4961  0.9256  11.00000  0.05    0.44 
Q5    1   0.4120  0.7019  0.3190  11.00000  0.05    0.43 
;
_shelx_res_checksum              3513
_shelx_hkl_file
; 
   1   0   0    0.05    0.03 
   2   0   0  141.44    2.75 
   3   0   0    0.12    0.08 
   4   0   0  226.26    4.43 
   5   0   0    0.17    0.15 
   6   0   0   48.32    1.16 
   7   0   0   -0.11    0.23 
   8   0   0    0.53    0.31 
   0   1   0    0.03    0.01 
   1  -1   0   29.61    0.58 
  -1   1   0   28.53    0.57 
   1   1   0   28.58    0.59 
   2  -1   0  724.66   14.24 
  -2   1   0  741.17   14.10 
   2   1   0  741.38   14.25 
   3  -1   0   16.40    0.41 
   3   1   0   15.75    0.41 
   4  -1   0   42.41    0.95 
   4   1   0   42.33    0.95 
   5  -1   0   14.83    0.48 
   5   1   0   15.26    0.49 
   6  -1   0   20.84    0.65 
   6   1   0   20.60    0.66 
   7  -1   0    0.27    0.24 
   7   1   0    0.06    0.23 
   8  -1   0    4.97    0.43 
   8   1   0    4.97    0.43 
   0   2   0  109.58    2.13 
   0   2   0  112.20    2.14 
   1  -2   0  159.32    2.98 
   1   2   0  150.89    2.95 
  -1   2   0  151.09    2.99 
   1   2   0  156.40    2.97 
   2  -2   0    2.75    0.12 
  -2   2   0    2.62    0.10 
   2   2   0    2.64    0.13 
   3  -2   0   32.20    0.71 
   3   2   0   32.22    0.72 
  -3   2   0   32.45    0.66 
   4  -2   0   91.48    1.90 
   4   2   0   94.44    1.91 
   5  -2   0   30.36    0.76 
   5   2   0   28.70    0.76 
   6  -2   0    2.43    0.27 
   6   2   0    2.95    0.29 
   7  -2   0   19.85    0.69 
   7   2   0   20.43    0.71 
   8  -2   0   11.36    0.63 
   8   2   0   10.51    0.62 
   0  -3   0    0.01    0.03 
   0   3   0   -0.05    0.03 
   0   3   0    0.05    0.04 
   1  -3   0    8.78    0.20 
  -1   3   0    8.00    0.21 
   1   3   0    8.64    0.21 
   1   3   0    8.07    0.20 
   2  -3   0   49.14    0.96 
   2   3   0   46.32    0.93 
   2   3   0   46.85    0.97 
  -2   3   0   46.41    0.95 
   3  -3   0  100.49    1.98 
   3   3   0   97.63    1.99 
  -3   3   0   98.09    1.93 
   4  -3   0   13.67    0.41 
   4   3   0   12.94    0.41 
  -4   3   0   13.83    0.32 
   5  -3   0   29.04    0.74 
   5   3   0   28.77    0.75 
   6  -3   0   60.90    1.37 
   6   3   0   56.88    1.36 
   7  -3   0    1.88    0.29 
   7   3   0    2.05    0.30 
   8  -3   0    1.03    0.32 
   8   3   0    1.34    0.33 
   0  -4   0    5.77    0.15 
   0   4   0    5.58    0.15 
   1  -4   0    0.48    0.05 
   1   4   0    0.35    0.06 
   1   4   0    0.39    0.06 
  -1   4   0    0.43    0.06 
   2  -4   0   41.99    0.85 
   2   4   0   40.33    0.83 
   2   4   0   41.37    0.87 
  -2   4   0   40.73    0.86 
   3  -4   0    1.99    0.16 
   3   4   0    1.96    0.17 
  -3   4   0    2.11    0.14 
   4  -4   0   40.60    0.91 
  -4   4   0   40.31    0.84 
   4   4   0   39.27    0.92 
   5  -4   0    0.01    0.14 
   5   4   0    0.11    0.16 
   6  -4   0   45.44    1.11 
   6   4   0   45.88    1.13 
   7  -4   0    5.54    0.46 
   7   4   0    5.29    0.46 
   8  -4   0   40.16    1.15 
   8   4   0   40.95    1.17 
   0  -5   0    0.20    0.05 
   0   5   0    0.18    0.05 
   0   5   0    0.12    0.05 
   1  -5   0   23.69    0.49 
  -1   5   0   22.30    0.52 
   1   5   0   23.70    0.51 
   1   5   0   22.31    0.51 
   2  -5   0    5.18    0.18 
  -2   5   0    4.83    0.19 
   2   5   0    4.98    0.19 
   2   5   0    4.71    0.17 
   3  -5   0   43.32    0.94 
   3   5   0   43.83    0.97 
  -3   5   0   44.50    0.94 
   3   5   0   44.28    0.90 
   4  -5   0   64.22    1.36 
  -4   5   0   62.18    1.31 
   4   5   0   64.91    1.38 
   5  -5   0    0.59    0.17 
   5   5   0    0.43    0.18 
   6  -5   0   46.89    1.15 
   6   5   0   48.24    1.17 
   7  -5   0    1.09    0.27 
   7   5   0    1.50    0.30 
   8  -5   0    4.58    0.42 
   8   5   0    4.81    0.44 
   0  -6   0   44.41    0.91 
   0   6   0   45.59    0.95 
   0   6   0   44.11    0.91 
   1  -6   0  202.28    3.86 
   1   6   0  198.66    3.89 
  -1   6   0  195.00    3.90 
   1   6   0  205.94    3.88 
   2  -6   0    4.04    0.16 
   2   6   0    4.44    0.18 
  -2   6   0    3.86    0.19 
   2   6   0    3.95    0.19 
   3  -6   0    1.39    0.13 
   3   6   0    1.36    0.11 
   3   6   0    1.31    0.15 
  -3   6   0    1.46    0.13 
   4  -6   0   53.87    1.20 
  -4   6   0   55.40    1.17 
   4   6   0   56.64    1.23 
   5  -6   0   55.10    1.22 
   5   6   0   52.58    1.24 
   6  -6   0    5.89    0.41 
   6   6   0    6.09    0.42 
   7  -6   0   19.05    0.69 
   7   6   0   17.89    0.69 
   8  -6   0   11.21    0.65 
   8   6   0   10.98    0.65 
   0  -7   0    0.36    0.07 
   0   7   0    0.14    0.07 
   0   7   0    0.25    0.09 
   1  -7   0   61.63    1.28 
  -1   7   0   63.71    1.33 
   1   7   0   64.52    1.32 
   1   7   0   65.26    1.30 
   2  -7   0  160.06    3.07 
   2   7   0  158.84    3.10 
  -2   7   0  155.13    3.11 
   2   7   0  155.29    3.09 
   3  -7   0  172.53    3.32 
   3   7   0  168.28    3.29 
   3   7   0  167.65    3.34 
  -3   7   0  166.11    3.33 
   4  -7   0    2.73    0.24 
  -4   7   0    2.45    0.21 
   4   7   0    2.89    0.23 
   5  -7   0    9.53    0.40 
   5   7   0    9.18    0.44 
   6  -7   0   29.32    0.82 
   6   7   0   27.94    0.83 
   7  -7   0    1.33    0.29 
   7   7   0    0.94    0.30 
   8  -7   0    0.15    0.30 
   8   7   0    0.26    0.33 
   0  -8   0  453.48    8.44 
   0   8   0  430.09    8.44 
   0   8   0  437.87    8.48 
   1  -8   0   89.92    1.83 
   1   8   0   95.71    1.88 
  -1   8   0   90.74    1.88 
   1   8   0   91.81    1.84 
   2  -8   0   26.57    0.59 
   2   8   0   26.24    0.62 
  -2   8   0   25.95    0.64 
   2   8   0   24.64    0.61 
   3  -8   0    4.46    0.23 
   3   8   0    3.91    0.22 
  -3   8   0    3.79    0.24 
   3   8   0    4.71    0.26 
   4  -8   0  112.57    2.29 
   4   8   0  112.67    2.32 
  -4   8   0  112.07    2.29 
   5  -8   0   21.17    0.63 
  -5   8   0   20.51    0.58 
   5   8   0   22.15    0.66 
   6  -8   0   27.72    0.79 
   6   8   0   27.87    0.84 
   7  -8   0    0.79    0.28 
   7   8   0    0.45    0.30 
   8  -8   0    1.78    0.36 
   8   8   0    2.05    0.40 
   0  -9   0    0.20    0.09 
   0   9   0    0.02    0.10 
   0   9   0    0.07    0.08 
   1  -9   0    6.17    0.23 
  -1   9   0    6.37    0.28 
   1   9   0    6.22    0.27 
   1   9   0    6.44    0.24 
   2  -9   0  281.09    5.51 
  -2   9   0  284.49    5.57 
   2   9   0  288.96    5.55 
   2   9   0  286.58    5.54 
   3  -9   0   15.08    0.43 
  -3   9   0   14.78    0.46 
   3   9   0   15.20    0.44 
   3   9   0   15.23    0.46 
   4  -9   0   63.94    1.39 
   4   9   0   63.87    1.42 
  -4   9   0   65.47    1.40 
   5  -9   0   12.15    0.48 
  -5   9   0   12.29    0.43 
   5   9   0   10.92    0.51 
   6  -9   0    5.87    0.42 
   6   9   0    5.67    0.45 
   7  -9   0    8.12    0.54 
   7   9   0    8.14    0.57 
   0 -10   0  325.16    6.19 
   0  10   0  327.09    6.26 
   0  10   0  310.92    6.19 
   1 -10   0   11.57    0.34 
   1  10   0   12.22    0.40 
  -1  10   0   11.83    0.41 
   1  10   0   11.73    0.36 
   2 -10   0   12.45    0.36 
  -2  10   0   11.17    0.42 
   2  10   0   11.90    0.40 
   2  10   0   11.69    0.39 
   3 -10   0   11.78    0.39 
   3  10   0   12.58    0.43 
  -3  10   0   12.93    0.44 
   3  10   0   12.20    0.40 
   4 -10   0   31.97    0.79 
  -4  10   0   30.10    0.80 
   4  10   0   34.38    0.84 
   5 -10   0    0.26    0.20 
  -5  10   0    0.42    0.17 
   5  10   0    0.54    0.23 
   6 -10   0    5.34    0.43 
   6  10   0    6.20    0.50 
   7  10   0   13.13    0.66 
   0 -11   0    0.16    0.10 
   0  11   0    0.20    0.11 
   0  11   0    0.05    0.13 
   1 -11   0    2.38    0.17 
   1  11   0    2.67    0.22 
   1  11   0    3.19    0.26 
  -1  11   0    2.59    0.23 
   2 -11   0   74.60    1.55 
   2  11   0   77.32    1.61 
  -2  11   0   73.46    1.63 
   2  11   0   76.58    1.59 
   3 -11   0    8.08    0.32 
  -3  11   0    7.23    0.37 
   3  11   0    7.41    0.36 
   3  11   0    7.68    0.34 
   4 -11   0    1.39    0.20 
  -4  11   0    1.67    0.22 
   4  11   0    1.36    0.23 
   5 -11   0   28.36    0.79 
   5  11   0   29.39    0.83 
  -5  11   0   28.63    0.78 
   6  11   0   11.01    0.59 
   7  11   0    2.02    0.37 
   0 -12   0    3.24    0.22 
   0  12   0    2.96    0.23 
   0  12   0    2.48    0.23 
  -1 -12   0    1.87    0.17 
   1 -12   0    1.88    0.17 
   1  12   0    1.66    0.21 
  -1  12   0    1.30    0.20 
   1  12   0    1.75    0.18 
   2 -12   0   26.54    0.65 
   2  12   0   27.46    0.69 
   2  12   0   26.74    0.71 
  -2  12   0   26.55    0.74 
   3 -12   0   35.64    0.85 
  -3  12   0   37.25    0.94 
   3  12   0   37.17    0.90 
   3  12   0   36.59    0.90 
   4 -12   0    8.72    0.40 
  -4  12   0    8.26    0.43 
   4  12   0    8.95    0.45 
  -5  12   0    0.56    0.21 
   5  12   0    0.51    0.26 
   6  12   0   10.29    0.59 
   7  12   0   10.34    0.64 
   0 -13   0   -0.16    0.12 
   0  13   0   -0.01    0.13 
   0  13   0    0.25    0.17 
  -1 -13   0   15.62    0.46 
   1 -13   0   14.99    0.46 
  -1  13   0   16.07    0.55 
   1  13   0   16.64    0.54 
   1  13   0   16.33    0.48 
   2 -13   0   13.57    0.43 
  -2  13   0   14.46    0.53 
   2  13   0   14.07    0.50 
   2  13   0   15.05    0.48 
  -3  13   0    0.39    0.20 
   3  13   0    0.51    0.19 
   3  13   0    0.68    0.20 
  -4  13   0   35.21    0.94 
   4  13   0   36.01    0.94 
  -5  13   0   10.37    0.51 
   5  13   0   11.66    0.57 
   6  13   0   10.40    0.62 
   7  13   0    3.25    0.44 
   0 -14   0    2.01    0.20 
   0  14   0    1.94    0.25 
  -1 -14   0   40.51    0.95 
   1 -14   0   42.14    0.95 
   1  14   0   42.88    1.04 
  -1  14   0   42.05    1.05 
   1  14   0   40.67    0.96 
   2  14   0    2.29    0.23 
   2  14   0    2.65    0.27 
  -2  14   0    1.73    0.25 
  -3  14   0    2.42    0.30 
   3  14   0    2.39    0.26 
   3  14   0    1.98    0.25 
   4  14   0    2.71    0.31 
  -4  14   0    3.12    0.32 
   5  14   0   11.22    0.58 
  -5  14   0   10.24    0.55 
   6  14   0    7.62    0.60 
   0 -15   0   -0.03    0.16 
   0  15   0    0.32    0.21 
  -1 -15   0   37.75    0.90 
   1  15   0   39.88    1.00 
   1  15   0   35.94    0.90 
  -1  15   0   38.79    1.01 
   2  15   0    6.85    0.38 
   2  15   0    5.88    0.42 
  -2  15   0    7.40    0.45 
  -3  15   0   85.25    1.91 
   3  15   0   83.16    1.85 
   3  15   0   86.78    1.85 
   4  15   0    1.22    0.28 
  -4  15   0    1.39    0.27 
  -5  15   0    2.90    0.35 
   5  15   0    3.46    0.38 
   6  15   0    7.75    0.61 
   0  16   0   26.56    0.80 
  -1  16   0   60.42    1.45 
   1  16   0   61.54    1.44 
  -2 -16   0    0.44    0.20 
  -2  16   0    0.70    0.26 
   2  16   0    0.99    0.22 
   2  16   0    0.85    0.25 
   3  16   0    4.71    0.36 
  -3  16   0    6.29    0.48 
   3  16   0    4.89    0.42 
  -4  16   0   12.40    0.61 
   4  16   0   12.54    0.59 
  -5  16   0   26.65    0.89 
   5  16   0   26.81    0.87 
   6  16   0    0.07    0.34 
   0  17   0    0.30    0.25 
  -1  17   0   16.42    0.65 
   1  17   0   15.44    0.63 
   2  17   0   40.30    1.06 
  -2  17   0   39.46    1.10 
   3  17   0   26.06    0.82 
   3  17   0   27.52    0.97 
  -3  17   0   28.80    0.90 
  -4  17   0   11.04    0.61 
   4  17   0   10.18    0.56 
   5  17   0    1.04    0.34 
  -5  17   0    1.76    0.35 
   0  18   0   38.84    1.09 
   1  18   0    5.19    0.41 
  -1  18   0    5.75    0.51 
   2  18   0    3.49    0.36 
  -2  18   0    4.20    0.40 
  -3  18   0    6.12    0.53 
   3  18   0    6.54    0.50 
  -4  18   0    7.69    0.59 
  -5  18   0    2.29    0.39 
   0  19   0   -0.04    0.28 
   1  19   0    0.68    0.30 
  -1  19   0    0.81    0.31 
  -2  19   0   11.10    0.64 
   2  19   0    9.78    0.60 
   3  19   0   -0.18    0.27 
  -3  19   0   -0.37    0.29 
  -4  19   0    2.07    0.38 
   0  20   0    1.28    0.35 
   1  20   0    0.00    0.30 
  -1  20   0    0.22    0.30 
   2  20   0    0.37    0.30 
  -2  20   0   -0.09    0.32 
   3  20   0    7.67    0.58 
  -3  20   0    7.69    0.65 
   0  21   0    0.81    0.35 
  -1  21   0    1.43    0.38 
   1  21   0    1.74    0.37 
  -2  21   0    3.65    0.46 
   2  21   0    4.21    0.44 
   0  22   0    7.87    0.70 
   8   0  -1    0.08    0.28 
   7   0  -1   20.78    0.71 
   6   0  -1    0.07    0.18 
   5   0  -1   37.86    0.90 
   4   0  -1    0.20    0.11 
   3   0  -1   56.31    1.17 
   2   0  -1    0.09    0.03 
   2   0  -1    0.07    0.05 
  -2   0   1    0.12    0.03 
   1   0  -1    6.58    0.16 
   1   0  -1    6.57    0.16 
   0   0  -1    0.07    0.03 
   0   0   1    0.06    0.02 
   1   0   1   51.09    1.04 
  -1   0  -1   53.00    1.03 
   2   0   1    0.44    0.08 
   3   0   1   13.86    0.39 
  -3   0  -1   14.95    0.32 
   4   0   1   -0.09    0.11 
   5   0   1   43.18    1.03 
   6   0   1    0.14    0.20 
   7   0   1   85.63    1.94 
   8   0   1   -0.10    0.30 
   8  -1  -1   -0.13    0.27 
   8   1  -1   -0.04    0.28 
   7  -1  -1   44.26    1.12 
   7   1  -1   43.26    1.13 
   6  -1  -1   14.60    0.52 
   6   1  -1   13.95    0.53 
   5  -1  -1   46.46    1.05 
   5   1  -1   44.88    1.05 
   4  -1  -1   58.14    1.22 
   4   1  -1   56.45    1.23 
   3  -1  -1   33.07    0.71 
  -3   1   1   31.70    0.65 
   3   1  -1   31.38    0.71 
   2  -1  -1   14.93    0.34 
   2   1  -1   14.74    0.36 
   2   1  -1   15.01    0.31 
  -2   1   1   14.94    0.32 
   1  -1  -1    0.01    0.03 
   1  -1  -1    0.06    0.03 
   1   1  -1    0.06    0.03 
   1   1  -1    0.00    0.03 
  -1   1   1    0.06    0.03 
   0  -1  -1   47.11    0.93 
   0  -1   1   46.11    0.93 
   0   1  -1   46.38    0.93 
   0   1   1   48.18    0.91 
   0   1   1   47.10    0.93 
   1  -1   1    0.57    0.06 
  -1  -1  -1    0.67    0.06 
  -1   1  -1    0.40    0.05 
   1   1   1    0.52    0.06 
  -2  -1  -1  101.82    1.94 
   2  -1   1   97.96    1.98 
  -2   1  -1  103.01    1.95 
   2   1   1   98.28    1.98 
  -3  -1  -1  100.28    1.85 
   3  -1   1   90.93    1.92 
  -3   1  -1   97.52    1.86 
   3   1   1   92.28    1.93 
   4  -1   1   31.51    0.75 
   4   1   1   30.16    0.74 
   5  -1   1   61.75    1.38 
   5   1   1   62.08    1.38 
   6  -1   1    3.77    0.32 
   6   1   1    4.11    0.32 
   7  -1   1    6.07    0.51 
   7   1   1    6.93    0.49 
   8  -1   1    1.04    0.33 
   8   1   1    0.69    0.33 
   8  -2  -1   17.48    0.72 
   8   2  -1   17.77    0.74 
   7  -2  -1    0.15    0.23 
   7   2  -1    0.02    0.24 
   6  -2  -1   22.12    0.66 
   6   2  -1   22.90    0.68 
   5  -2  -1   64.88    1.40 
   5   2  -1   64.09    1.42 
   4  -2  -1    2.96    0.21 
   4   2  -1    2.57    0.21 
  -4   2   1    2.68    0.13 
   3  -2  -1    1.08    0.11 
  -3   2   1    1.01    0.09 
   3   2  -1    1.05    0.12 
   2  -2  -1  190.99    3.71 
  -2   2   1  190.93    3.70 
   2   2  -1  195.08    3.74 
   2   2  -1  194.21    3.69 
   1  -2  -1  197.31    3.77 
   1   2  -1  198.70    3.82 
   1   2  -1  198.45    3.80 
  -1   2   1  194.66    3.81 
   0   2  -1   57.79    1.15 
   0   2   1   56.86    1.14 
   0   2   1   59.46    1.12 
  -1  -2  -1   77.52    1.49 
   1  -2   1   76.25    1.50 
   1   2   1   74.65    1.48 
  -1   2  -1   76.06    1.50 
   1   2   1   75.67    1.49 
   2  -2   1    0.20    0.07 
  -2  -2  -1    0.25    0.05 
   2   2   1    0.26    0.07 
   2   2   1    0.28    0.05 
  -2   2  -1    0.23    0.06 
   3  -2   1  152.13    3.08 
   3   2   1  156.44    3.00 
  -3   2  -1  158.99    3.02 
   3   2   1  156.84    3.08 
   4  -2   1   41.29    0.97 
   4   2   1   42.40    0.98 
  -4   2  -1   44.28    0.88 
   5  -2   1    1.92    0.22 
   5   2   1    2.35    0.24 
   6  -2   1   24.46    0.75 
   6   2   1   24.46    0.74 
   7  -2   1   18.33    0.69 
   7   2   1   18.63    0.69 
   8  -2   1    0.66    0.33 
   8   2   1    0.46    0.31 
   8  -3  -1   -0.08    0.26 
   8   3  -1    0.17    0.31 
   7  -3  -1    8.82    0.48 
   7   3  -1    7.37    0.50 
   6  -3  -1   26.90    0.74 
   6   3  -1   25.74    0.75 
   5  -3  -1   24.45    0.65 
   5   3  -1   24.68    0.67 
   4  -3  -1  103.23    2.10 
  -4   3   1  104.40    2.04 
   4   3  -1  103.71    2.12 
   3  -3  -1  331.28    6.34 
   3   3  -1  324.51    6.37 
   3   3  -1  340.68    6.30 
  -3   3   1  322.45    6.36 
   2  -3  -1   17.73    0.39 
   2   3  -1   17.57    0.38 
   2   3  -1   17.54    0.42 
  -2   3   1   17.40    0.40 
   1  -3  -1    7.33    0.15 
   1   3  -1    6.75    0.20 
   1   3  -1    6.52    0.19 
  -1   3   1    7.06    0.19 
   0  -3   1  301.99    5.69 
   0   3   1  300.81    5.63 
   0   3   1  300.14    5.72 
   0   3  -1  277.92    5.65 
   1  -3   1  989.77   19.11 
  -1   3  -1 1000.00   19.10 
   1   3   1  972.48   19.00 
   1   3   1  996.04   19.02 
   2  -3   1  104.84    2.01 
   2   3   1   99.26    2.01 
  -2   3  -1   99.86    1.99 
   2   3   1  101.58    1.97 
   3  -3   1   48.86    1.06 
   3   3   1   47.92    0.98 
   3   3   1   49.92    1.06 
  -3   3  -1   50.90    1.01 
   4  -3   1    6.90    0.32 
   4   3   1    7.47    0.31 
  -4   3  -1    7.97    0.23 
   5  -3   1   51.98    1.19 
   5   3   1   51.87    1.20 
   6  -3   1    8.58    0.45 
   6   3   1    8.45    0.46 
   7  -3   1    4.80    0.39 
   7   3   1    3.55    0.36 
   8  -3   1    4.97    0.46 
   8   3   1    4.94    0.44 
   8  -4  -1    0.40    0.29 
   8   4  -1    0.70    0.32 
   7  -4  -1   11.70    0.55 
   7   4  -1   11.58    0.57 
   6  -4  -1    0.32    0.19 
   6   4  -1    0.09    0.20 
   5  -4  -1   98.70    2.03 
   5   4  -1   96.60    2.05 
   4  -4  -1    0.40    0.12 
  -4   4   1    0.28    0.09 
   4   4  -1    0.12    0.13 
   3  -4  -1   34.88    0.75 
   3   4  -1   33.92    0.79 
   3   4  -1   36.55    0.72 
  -3   4   1   34.04    0.75 
   2  -4  -1  101.15    1.96 
   2   4  -1   97.46    2.01 
  -2   4   1  101.20    1.99 
   2   4  -1  103.36    1.97 
   1  -4  -1  907.83   16.68 
   1   4  -1  862.29   16.94 
   1   4  -1  885.84   16.91 
  -1   4   1  845.92   16.93 
   0  -4   1  107.28    2.14 
   0   4   1  107.61    2.13 
   0   4  -1  113.94    2.14 
   0   4  -1  104.34    2.14 
   0   4   1  111.22    2.09 
   1  -4   1  202.27    3.89 
   1   4   1  202.67    3.87 
   1   4   1  199.40    3.88 
  -1   4  -1  201.44    3.90 
   2  -4   1   16.27    0.40 
   2   4   1   15.85    0.37 
   2   4   1   17.01    0.41 
  -2   4  -1   16.37    0.40 
   3  -4   1  229.56    4.46 
  -3   4  -1  231.50    4.43 
   3   4   1  228.35    4.39 
   3   4   1  225.36    4.46 
   4  -4   1   20.39    0.56 
   4   4   1   20.59    0.57 
  -4   4  -1   20.93    0.49 
   5  -4   1   44.02    1.04 
   5   4   1   42.57    1.03 
   6  -4   1    0.54    0.23 
   6   4   1    0.56    0.23 
   7  -4   1    1.22    0.31 
   7   4   1    1.19    0.28 
   8  -4   1    0.88    0.34 
   8   4   1    0.34    0.33 
   8  -5  -1    0.51    0.29 
   8   5  -1    0.56    0.32 
   7  -5  -1   18.24    0.66 
   7   5  -1   19.19    0.71 
   6  -5  -1   22.84    0.66 
   6   5  -1   21.35    0.70 
   5  -5  -1   80.00    1.63 
   5   5  -1   73.52    1.66 
   4  -5  -1    8.78    0.31 
  -4   5   1    8.68    0.29 
   4   5  -1    9.28    0.36 
   3  -5  -1  332.20    6.38 
   3   5  -1  347.39    6.36 
  -3   5   1  319.09    6.40 
   3   5  -1  329.59    6.43 
   2  -5  -1   18.61    0.40 
   2   5  -1   17.39    0.42 
  -2   5   1   18.79    0.44 
   2   5  -1   18.46    0.46 
   1  -5  -1    0.48    0.04 
  -1   5   1    0.41    0.07 
   1   5  -1    0.39    0.08 
   1   5  -1    0.26    0.07 
   0  -5   1    6.16    0.21 
   0   5  -1    6.11    0.21 
   0   5  -1    5.52    0.20 
   0   5   1    6.23    0.15 
   0   5   1    6.35    0.20 
   1  -5   1  467.64    9.12 
  -1   5  -1  473.91    9.22 
   1   5   1  476.19    9.06 
   1   5   1  472.68    9.08 
   2   5   1    0.99    0.11 
  -2   5  -1    0.84    0.10 
   2   5   1    1.20    0.09 
   3  -5   1   73.26    1.52 
   3   5   1   73.88    1.46 
  -3   5  -1   71.46    1.50 
   3   5   1   75.00    1.53 
   4  -5   1   10.80    0.40 
  -4   5  -1   11.34    0.33 
   4   5   1   11.19    0.39 
   5  -5   1   40.67    0.98 
   5   5   1   37.60    0.96 
   6  -5   1    0.57    0.23 
   6   5   1    0.19    0.22 
   7  -5   1    7.66    0.52 
   7   5   1    8.08    0.54 
   8  -5   1    3.37    0.41 
   8   5   1    2.50    0.39 
   8  -6  -1   14.62    0.68 
   8   6  -1   14.74    0.74 
   7  -6  -1    8.18    0.48 
   7   6  -1    7.10    0.53 
   6  -6  -1    1.45    0.23 
   6   6  -1    1.33    0.25 
   5  -6  -1   56.87    1.25 
  -5   6   1   55.71    1.30 
   5   6  -1   57.82    1.31 
   4  -6  -1   35.68    0.80 
  -4   6   1   34.56    0.79 
   4   6  -1   34.63    0.73 
   4   6  -1   35.23    0.85 
   3  -6  -1   51.90    1.05 
   3   6  -1   51.42    1.04 
   3   6  -1   49.89    1.10 
  -3   6   1   48.71    1.08 
   2  -6  -1   76.72    1.48 
  -2   6   1   73.34    1.53 
   2   6  -1   74.92    1.52 
   2   6  -1   75.28    1.54 
   1  -6  -1  277.15    5.37 
   1   6  -1  282.70    5.42 
   1   6  -1  276.80    5.42 
  -1   6   1  286.15    5.42 
   0  -6   1   51.10    1.07 
   0   6  -1   51.00    1.08 
   0   6   1   51.68    1.02 
   0   6   1   52.56    1.08 
   1  -6   1    7.84    0.25 
   1   6   1    7.70    0.22 
   1   6   1    7.45    0.24 
  -1   6  -1    7.31    0.26 
   2  -6   1    9.24    0.29 
  -2   6  -1    9.70    0.31 
   2   6   1    9.46    0.28 
   2   6   1    9.63    0.29 
   3  -6   1  145.50    2.89 
  -3   6  -1  145.18    2.87 
   3   6   1  143.91    2.88 
   3   6   1  145.53    2.83 
   4  -6   1    6.32    0.32 
  -4   6  -1    6.08    0.25 
   4   6   1    5.46    0.31 
   5  -6   1    5.92    0.38 
   5   6   1    6.22    0.38 
   6  -6   1   28.32    0.83 
   6   6   1   29.00    0.84 
   7  -6   1    6.74    0.54 
   7   6   1    6.29    0.51 
   8  -6   1    3.31    0.42 
   8   6   1    3.95    0.44 
   8   7  -1    5.50    0.47 
   7  -7  -1   17.24    0.64 
   7   7  -1   16.96    0.69 
   6  -7  -1   39.30    0.98 
   6   7  -1   38.85    1.04 
   5  -7  -1    6.38    0.33 
   5   7  -1    6.07    0.37 
  -5   7   1    6.89    0.30 
   4  -7  -1   14.49    0.41 
  -4   7   1   13.53    0.42 
   4   7  -1   13.22    0.46 
   4   7  -1   14.13    0.36 
   3  -7  -1   30.75    0.66 
  -3   7   1   29.86    0.71 
   3   7  -1   28.33    0.72 
   3   7  -1   29.71    0.67 
   2  -7  -1    1.52    0.11 
  -2   7   1    1.66    0.15 
   2   7  -1    1.88    0.17 
   2   7  -1    1.44    0.14 
   1  -7  -1    0.01    0.04 
   1   7  -1    0.22    0.09 
  -1   7   1    0.04    0.08 
   1   7  -1    0.01    0.09 
   0  -7   1   38.32    0.84 
   0   7  -1   38.69    0.84 
   0   7  -1   39.56    0.86 
   0   7   1   38.20    0.78 
   0   7   1   37.45    0.84 
   1  -7   1   76.94    1.58 
   1   7   1   78.30    1.58 
  -1   7  -1   79.38    1.61 
   1   7   1   76.28    1.54 
   2  -7   1   29.14    0.67 
  -2   7  -1   30.39    0.69 
   2   7   1   28.72    0.66 
   2   7   1   27.65    0.65 
   3  -7   1    5.32    0.27 
  -3   7  -1    4.84    0.25 
   3   7   1    5.36    0.27 
   3   7   1    5.40    0.22 
   4  -7   1   40.27    0.94 
  -4   7  -1   38.09    0.89 
   4   7   1   39.38    0.94 
   5  -7   1   34.90    0.91 
   5   7   1   35.26    0.91 
   6  -7   1   -0.21    0.23 
   6   7   1    0.06    0.23 
   7  -7   1    2.55    0.35 
   7   7   1    1.88    0.33 
   8  -7   1    9.29    0.65 
   8   7   1   11.26    0.69 
   8   8  -1   15.82    0.74 
   7   8  -1   12.11    0.63 
   6  -8  -1    0.09    0.19 
   6   8  -1    0.11    0.22 
   5  -8  -1   17.66    0.53 
   5   8  -1   17.62    0.60 
  -5   8   1   16.96    0.51 
   4  -8  -1    9.01    0.32 
   4   8  -1    8.70    0.30 
   4   8  -1    8.88    0.38 
  -4   8   1    9.19    0.36 
   3  -8  -1   38.48    0.81 
  -3   8   1   35.26    0.87 
   3   8  -1   39.17    0.85 
   3   8  -1   38.22    0.89 
   2  -8  -1    5.55    0.18 
  -2   8   1    5.32    0.26 
   2   8  -1    5.44    0.25 
   2   8  -1    4.99    0.25 
   1  -8  -1    2.12    0.11 
  -1   8   1    2.09    0.18 
   1   8  -1    2.14    0.19 
   0  -8   1    4.92    0.22 
   0   8   1    4.86    0.16 
   0   8  -1    4.73    0.24 
   0   8  -1    4.85    0.22 
   1  -8   1   50.62    1.09 
   1   8   1   51.21    1.05 
  -1   8  -1   49.72    1.11 
   1   8   1   52.32    1.09 
   2  -8   1    3.76    0.22 
  -2   8  -1    3.84    0.23 
   2   8   1    3.56    0.20 
   2   8   1    3.22    0.20 
   3  -8   1   39.75    0.91 
   3   8   1   39.70    0.87 
   3   8   1   39.13    0.90 
  -3   8  -1   39.74    0.92 
   4  -8   1    0.61    0.17 
  -4   8  -1    0.25    0.13 
   4   8   1    0.34    0.17 
   5  -8   1   29.45    0.82 
   5   8   1   31.29    0.84 
   6  -8   1   14.42    0.62 
   6   8   1   15.91    0.63 
   7  -8   1   30.08    0.94 
   7   8   1   29.51    0.95 
   8   9  -1    0.44    0.35 
   7   9  -1   20.24    0.78 
   6   9  -1    0.33    0.25 
   5  -9  -1   39.19    0.93 
   5   9  -1   40.59    1.01 
  -5   9   1   38.82    0.94 
   4  -9  -1   20.90    0.54 
   4   9  -1   20.42    0.62 
   4   9  -1   20.77    0.53 
  -4   9   1   21.63    0.60 
   3  -9  -1    2.57    0.17 
   3   9  -1    2.65    0.20 
   3   9  -1    2.53    0.22 
  -3   9   1    2.37    0.21 
   2  -9  -1   15.75    0.37 
   2   9  -1   15.07    0.46 
   2   9  -1   15.62    0.45 
  -2   9   1   15.72    0.47 
   1  -9  -1    0.44    0.07 
  -1  -9   1    0.24    0.10 
   1   9  -1    0.24    0.11 
  -1   9   1    0.19    0.11 
   1   9  -1    0.23    0.12 
   0  -9  -1   44.69    0.91 
   0  -9   1   45.99    0.98 
   0   9   1   43.94    0.99 
   0   9  -1   42.96    0.97 
   0   9  -1   45.70    1.01 
   0   9   1   43.25    0.91 
   1  -9   1    1.98    0.16 
  -1   9  -1    1.69    0.18 
   1   9   1    1.69    0.15 
   1   9   1    1.76    0.16 
   2  -9   1   51.86    1.12 
  -2   9  -1   51.06    1.15 
   2   9   1   49.95    1.11 
   2   9   1   52.62    1.10 
   3  -9   1  107.96    2.19 
   3   9   1  106.79    2.16 
  -3   9  -1  106.61    2.20 
   3   9   1  105.16    2.18 
   4  -9   1   12.55    0.47 
   4   9   1   13.05    0.47 
  -4   9  -1   12.85    0.44 
   5  -9   1   30.49    0.86 
  -5   9  -1   33.07    1.02 
   5   9   1   32.69    0.88 
   6  -9   1    9.48    0.54 
   6   9   1    9.32    0.54 
   7  -9   1   11.09    0.61 
   7   9   1   10.34    0.64 
   7  10  -1    5.60    0.46 
   6  10  -1   24.51    0.79 
  -5  10   1   15.06    0.52 
   5  10  -1   15.41    0.59 
   4 -10  -1    0.97    0.15 
  -4  10   1    1.13    0.19 
   4  10  -1    1.07    0.16 
   4  10  -1    1.39    0.23 
   3 -10  -1   16.94    0.43 
  -3  10   1   16.42    0.52 
   3  10  -1   17.27    0.52 
   3  10  -1   17.23    0.50 
   2 -10  -1  110.95    2.20 
   2  10  -1  111.64    2.30 
   2  10  -1  113.19    2.30 
  -2  10   1  114.54    2.32 
  -1 -10   1    1.39    0.15 
   1 -10  -1    1.45    0.13 
   1  10  -1    1.74    0.18 
   1  10  -1    1.31    0.16 
  -1  10   1    1.55    0.18 
   0 -10   1   83.15    1.69 
   0 -10  -1   82.33    1.62 
   0  10   1   83.93    1.72 
   0  10   1   77.48    1.63 
   0  10  -1   80.53    1.69 
   0  10  -1   82.17    1.72 
   1 -10   1   12.59    0.40 
   1  10   1   12.35    0.41 
   1  10   1   12.98    0.35 
  -1  10  -1   12.43    0.43 
   2 -10   1   21.85    0.58 
   2  10   1   22.38    0.56 
   2  10   1   22.79    0.59 
  -2  10  -1   21.67    0.62 
   3 -10   1    0.68    0.16 
  -3  10  -1    0.79    0.16 
   3  10   1    1.03    0.17 
   3  10   1    0.56    0.14 
   4 -10   1   31.42    0.83 
  -4  10  -1   32.04    0.82 
   4  10   1   32.49    0.83 
   5 -10   1   22.10    0.70 
  -5  10  -1   21.61    0.64 
   5  10   1   23.53    0.71 
   6 -10   1    0.22    0.27 
   6  10   1    0.91    0.28 
   7 -10   1   20.44    0.78 
   7  10   1   21.39    0.82 
   7  11  -1    6.43    0.50 
   6  11  -1    4.58    0.40 
  -5  11   1    0.21    0.18 
   5  11  -1    0.42    0.24 
   4  11  -1   93.55    2.03 
  -4  11   1   96.98    2.04 
   4  11  -1   95.40    2.05 
   3  11  -1   43.96    1.05 
  -3  11   1   46.03    1.07 
   3  11  -1   44.17    1.03 
   2 -11  -1   39.90    0.86 
   2  11  -1   43.01    0.98 
  -2  11   1   40.36    0.98 
   2  11  -1   41.34    0.96 
   1 -11  -1    0.24    0.09 
  -1 -11   1    0.23    0.13 
   1  11  -1    0.34    0.14 
   1  11  -1    0.07    0.15 
  -1  11   1    0.34    0.15 
   0 -11   1   88.63    1.79 
   0 -11  -1   89.83    1.73 
   0  11   1   80.58    1.72 
   0  11   1   85.85    1.82 
   0  11  -1   87.20    1.83 
   0  11  -1   86.16    1.79 
   1 -11   1   42.71    1.01 
  -1  11  -1   46.77    1.07 
   1  11   1   46.22    1.05 
   1  11   1   46.16    0.98 
   2 -11   1  117.10    2.37 
   2  11   1  117.75    2.35 
  -2  11  -1  115.69    2.42 
   2  11   1  115.12    2.38 
   3 -11   1    1.73    0.21 
   3  11   1    1.65    0.20 
   3  11   1    2.31    0.22 
  -3  11  -1    1.46    0.21 
   4 -11   1    3.74    0.29 
  -4  11  -1    3.98    0.30 
   4  11   1    3.60    0.29 
   5 -11   1   16.93    0.63 
   5  11   1   16.76    0.63 
  -5  11  -1   16.43    0.57 
   6 -11   1    6.09    0.45 
   6  11   1    5.66    0.51 
   7 -11   1    0.46    0.36 
   7  11   1    0.93    0.35 
   7  12  -1    4.19    0.45 
   6  12  -1   19.78    0.76 
  -5  12   1   23.33    0.70 
   5  12  -1   21.90    0.75 
  -4  12   1    1.59    0.24 
   4  12  -1    1.44    0.26 
   3  12  -1    7.40    0.40 
  -3  12   1    7.24    0.40 
   3  12  -1    7.62    0.38 
  -2  12   1  111.29    2.31 
   2  12  -1  110.47    2.28 
   2  12  -1  108.33    2.29 
  -1 -12   1  127.84    2.59 
   1 -12  -1  123.92    2.52 
   1  12  -1  128.92    2.63 
   1  12  -1  128.74    2.60 
  -1  12   1  130.52    2.64 
   0 -12  -1   86.77    1.70 
   0 -12   1   87.51    1.76 
   0  12  -1   82.34    1.80 
   0  12   1   85.01    1.80 
   0  12   1   79.14    1.69 
   1 -12   1    1.78    0.19 
   1  12   1    1.99    0.17 
  -1  12  -1    1.97    0.23 
   1  12   1    1.86    0.21 
   2 -12   1    7.85    0.37 
   2  12   1    8.44    0.38 
  -2  12  -1    8.45    0.42 
   2  12   1    8.32    0.34 
   3 -12   1   57.18    1.31 
  -3  12  -1   57.45    1.35 
   3  12   1   59.40    1.31 
   3  12   1   60.59    1.31 
   4 -12   1   60.96    1.39 
   4  12   1   60.71    1.39 
  -4  12  -1   61.66    1.42 
   5 -12   1   17.72    0.65 
   5  12   1   17.84    0.67 
  -5  12  -1   16.93    0.60 
   6 -12   1    3.11    0.38 
   6  12   1    3.56    0.37 
   7  12   1    0.34    0.35 
   7  13  -1    0.37    0.36 
   6  13  -1    1.96    0.35 
   5  13  -1   21.65    0.75 
  -5  13   1   20.00    0.69 
  -4  13   1   14.04    0.56 
   4  13  -1   14.94    0.58 
   3  13  -1   87.17    1.90 
   3  13  -1   90.10    1.91 
  -3  13   1   88.91    1.94 
   2  13  -1   15.33    0.52 
   2  13  -1   14.51    0.53 
  -2  13   1   16.25    0.55 
  -1 -13   1    1.96    0.21 
   1  13  -1    1.91    0.22 
  -1  13   1    2.17    0.24 
   1  13  -1    2.47    0.25 
   0 -13  -1   26.53    0.68 
   0 -13   1   25.57    0.67 
   0  13   1   24.04    0.70 
   0  13  -1   26.44    0.73 
   1 -13   1  154.98    3.10 
   1  13   1  154.78    3.14 
  -1  13  -1  154.23    3.16 
   1  13   1  152.73    3.06 
   2 -13   1   15.47    0.51 
   2  13   1   15.39    0.53 
   2  13   1   15.83    0.47 
  -2  13  -1   13.83    0.54 
   3 -13   1   19.18    0.61 
   3  13   1   20.48    0.62 
   3  13   1   21.29    0.61 
  -3  13  -1   19.62    0.66 
   4 -13   1    1.91    0.27 
   4  13   1    2.60    0.29 
  -4  13  -1    1.73    0.27 
   5 -13   1    3.10    0.35 
   5  13   1    3.48    0.35 
  -5  13  -1    3.09    0.31 
   6  13   1   12.62    0.65 
   6  14  -1    0.79    0.35 
   5  14  -1   13.13    0.61 
  -5  14   1   10.78    0.56 
  -4  14   1   12.02    0.55 
   4  14  -1   13.01    0.57 
  -3  14   1   15.62    0.59 
   3  14  -1   15.11    0.56 
   3  14  -1   14.62    0.56 
  -2 -14   1    3.70    0.32 
   2  14  -1    3.54    0.28 
  -2  14   1    4.29    0.38 
   2  14  -1    3.64    0.30 
  -1 -14   1  134.38    2.70 
   1  14  -1  131.59    2.71 
  -1  14   1  132.41    2.77 
   1  14  -1  131.76    2.76 
   0 -14   1    1.23    0.20 
   0  14   1    1.12    0.22 
   0  14  -1    1.07    0.22 
   1 -14   1   13.42    0.48 
   1  14   1   13.30    0.51 
  -1  14  -1   12.12    0.53 
   2 -14   1   16.22    0.55 
  -2  14  -1   18.06    0.63 
   2  14   1   16.89    0.58 
   2  14   1   16.36    0.51 
   3 -14   1   41.26    1.02 
   3  14   1   42.18    1.03 
   3  14   1   40.58    1.01 
  -3  14  -1   42.04    1.09 
   4  14   1    0.54    0.24 
  -4  14  -1    0.69    0.25 
   5  14   1    4.66    0.39 
  -5  14  -1    4.56    0.37 
   6  14   1   10.47    0.63 
   6  15  -1   21.65    0.84 
   5  15  -1    0.13    0.30 
  -5  15   1    0.18    0.26 
   4  15  -1    2.52    0.32 
  -4  15   1    2.28    0.31 
   3  15  -1   13.12    0.56 
  -3  15   1   13.29    0.58 
   3  15  -1   12.77    0.55 
  -2 -15   1    9.87    0.45 
   2  15  -1   10.06    0.46 
   2  15  -1   10.95    0.50 
  -2  15   1   10.06    0.50 
  -1 -15   1    1.40    0.22 
   1  15  -1    1.52    0.26 
   1  15  -1    2.01    0.24 
  -1  15   1    1.48    0.25 
   0 -15   1    0.63    0.19 
   0  15   1    0.91    0.23 
   0  15  -1    0.87    0.24 
   1 -15   1   18.11    0.57 
   1  15   1   16.70    0.62 
  -1  15  -1   17.87    0.65 
   2 -15   1    0.40    0.21 
   2  15   1    0.43    0.22 
  -2  15  -1    0.42    0.23 
  -3  15  -1    0.26    0.24 
   3  15   1    0.24    0.21 
   3  15   1    0.21    0.22 
   4  15   1   25.14    0.78 
  -4  15  -1   25.44    0.83 
  -5  15  -1    4.73    0.40 
   5  15   1    4.16    0.39 
   6  15   1    1.56    0.37 
   6  16  -1    0.62    0.35 
   5  16  -1    2.44    0.37 
  -5  16   1    2.33    0.33 
   4  16  -1   31.07    0.93 
  -4  16   1   31.86    0.94 
   3  16  -1    0.42    0.25 
  -3  16   1    0.16    0.25 
   3  16  -1    0.29    0.25 
  -2 -16   1   11.63    0.50 
   2  16  -1   12.41    0.56 
   2  16  -1   11.53    0.52 
  -2  16   1   11.71    0.57 
  -1 -16   1    2.26    0.25 
   1  16  -1    1.90    0.26 
  -1  16   1    1.43    0.27 
   1  16  -1    2.12    0.30 
   0 -16   1    0.23    0.20 
   0  16   1   -0.07    0.21 
   0  16  -1   -0.01    0.22 
   1 -16   1    4.41    0.32 
   1  16   1    3.60    0.33 
  -1  16  -1    3.71    0.35 
  -2  16  -1    6.96    0.49 
   2  16   1    6.90    0.46 
   3  16   1    2.43    0.30 
  -3  16  -1    2.53    0.34 
  -4  16  -1    0.18    0.26 
   5  16   1    6.25    0.55 
  -5  16  -1    6.55    0.54 
   5  17  -1    3.18    0.41 
  -5  17   1    2.96    0.39 
  -4  17   1    3.05    0.37 
   4  17  -1    3.66    0.38 
  -3 -17   1    3.72    0.34 
   3  17  -1    3.43    0.35 
   3  17  -1    3.53    0.35 
  -3  17   1    3.49    0.36 
  -2 -17   1    1.74    0.27 
  -2  17   1    1.73    0.30 
   2  17  -1    1.77    0.31 
   2  17  -1    1.59    0.28 
  -1 -17   1    2.65    0.28 
   1  17  -1    2.11    0.28 
   1  17  -1    2.73    0.33 
  -1  17   1    2.41    0.31 
   0  17   1    1.64    0.29 
   0  17  -1    2.65    0.33 
   1  17   1    1.91    0.31 
  -1  17  -1    1.77    0.32 
  -2  17  -1    1.89    0.32 
   2  17   1    1.57    0.29 
  -3  17  -1   18.90    0.76 
   3  17   1   18.11    0.67 
  -4  17  -1   11.42    0.64 
  -5  17  -1    4.00    0.43 
  -5  18   1    0.33    0.31 
   5  18  -1    0.45    0.35 
  -4  18   1    0.75    0.31 
   4  18  -1    0.47    0.32 
  -3 -18   1   11.85    0.56 
   3  18  -1   11.91    0.61 
  -3  18   1   12.20    0.63 
   3  18  -1   11.28    0.58 
  -2 -18   1   26.40    0.80 
   2  18  -1   27.56    0.88 
   2  18  -1   27.04    0.86 
  -2  18   1   27.69    0.90 
   1  18  -1    7.83    0.56 
  -1  18   1    9.44    0.58 
   0  18  -1   14.11    0.66 
   0  18   1   14.62    0.66 
  -1  18  -1    8.23    0.56 
   1  18   1    6.91    0.53 
   2  18   1    7.37    0.52 
  -2  18  -1    6.67    0.57 
   3  18   1   -0.19    0.25 
  -3  18  -1    0.53    0.31 
  -4  18  -1   10.12    0.65 
  -4 -19   1   18.90    0.90 
  -4  19   1   20.87    0.83 
  -3  19   1    0.66    0.31 
   3  19  -1    0.02    0.29 
   2  19  -1    9.38    0.61 
  -2  19   1    9.98    0.64 
  -1  19   1    1.14    0.31 
   1  19  -1    1.31    0.33 
   0  19   1   18.91    0.75 
   0  19  -1   16.04    0.75 
  -1  19  -1    0.67    0.33 
   1  19   1    0.52    0.29 
   2  19   1   34.52    1.02 
  -2  19  -1   35.67    1.09 
  -3  19  -1    7.82    0.65 
   3  19   1    7.88    0.54 
  -4  19  -1    0.29    0.34 
  -3  20   1    0.06    0.32 
   3  20  -1   -0.08    0.31 
   2  20  -1   31.35    1.01 
  -2  20   1   30.42    1.01 
  -1  20   1    6.73    0.59 
   1  20  -1    6.00    0.48 
   0  20  -1   33.71    1.07 
   0  20   1   33.33    1.04 
   1  20   1    0.06    0.29 
  -1  20  -1    0.05    0.32 
   2  20   1    9.18    0.60 
  -2  20  -1    9.15    0.68 
  -3  20  -1   -0.04    0.34 
   2  21  -1    7.32    0.65 
  -2  21   1    8.57    0.69 
   1  21  -1    0.04    0.33 
  -1  21   1    0.25    0.33 
   0  21   1   16.45    0.78 
   0  21  -1   15.86    0.81 
   1  21   1    4.60    0.45 
  -1  21  -1    5.47    0.52 
  -2  21  -1   12.26    0.77 
   2  21   1   12.66    0.70 
   8   0  -2    4.78    0.40 
   7   0  -2    0.03    0.22 
   6   0  -2   17.92    0.58 
   5   0  -2    0.05    0.14 
   4   0  -2   82.20    1.72 
  -4   0   2   84.12    1.64 
  -3   0   2    0.08    0.06 
   3   0  -2    0.05    0.06 
   3   0  -2    0.09    0.08 
   2   0  -2  812.20   15.57 
   2   0  -2  798.84   15.59 
   1   0  -2    0.00    0.05 
   1   0  -2    0.01    0.05 
  -1   0   2    0.06    0.05 
   0   0   2   15.08    0.34 
  -1   0  -2    0.21    0.06 
   1   0   2    0.10    0.06 
   2   0   2  360.52    7.03 
  -2   0  -2  370.44    7.01 
   3   0   2    0.07    0.11 
  -3   0  -2    0.20    0.07 
  -4   0  -2   84.50    1.66 
   4   0   2   81.61    1.75 
   5   0   2   -0.05    0.17 
   6   0   2    8.59    0.50 
   7   0   2   -0.25    0.27 
   8   0   2    1.18    0.37 
   8  -1  -2    3.96    0.39 
   8   1  -2    4.60    0.41 
   7  -1  -2   11.11    0.52 
   7   1  -2   11.23    0.52 
   6  -1  -2   17.78    0.58 
   6   1  -2   19.32    0.61 
   5  -1  -2   52.32    1.17 
   5   1  -2   52.75    1.19 
   4  -1  -2  258.59    5.14 
  -4  -1   2  267.77    5.06 
   4   1  -2  261.62    5.15 
  -4   1   2  268.33    5.08 
   3  -1  -2    4.79    0.20 
  -3  -1   2    5.37    0.17 
  -3   1   2    4.72    0.17 
   3   1  -2    4.90    0.17 
   3   1  -2    4.66    0.21 
   2  -1  -2    6.53    0.20 
   2  -1  -2    6.64    0.20 
   2   1  -2    6.76    0.22 
   2   1  -2    6.53    0.20 
  -2   1   2    6.74    0.20 
   1  -1  -2   26.57    0.57 
  -1  -1   2   26.55    0.57 
   1  -1  -2   26.58    0.55 
  -1   1   2   26.02    0.57 
   1   1  -2   25.86    0.57 
  -1   1   2   26.18    0.55 
   1   1  -2   26.66    0.57 
   0  -1  -2  607.35   11.95 
   0  -1   2  601.50   11.89 
   0   1  -2  630.88   12.02 
   0   1   2  629.41   11.91 
   1  -1   2   67.36    1.37 
  -1  -1  -2   68.75    1.37 
  -1   1  -2   68.15    1.37 
   1   1   2   68.47    1.36 
  -2  -1  -2   67.61    1.35 
   2  -1   2   65.73    1.38 
  -2   1  -2   68.22    1.36 
   2   1   2   66.85    1.38 
   3  -1   2    9.32    0.34 
  -3  -1  -2    9.99    0.28 
  -3   1  -2   10.08    0.28 
   3   1   2    9.44    0.33 
   4  -1   2   69.77    1.55 
  -4  -1  -2   72.62    1.45 
  -4   1  -2   74.16    1.46 
   4   1   2   71.19    1.55 
   4   1   2   73.21    1.44 
   5  -1   2    1.64    0.24 
   5   1   2    1.88    0.24 
   6  -1   2    9.91    0.51 
   6   1   2    9.53    0.50 
   7  -1   2    6.35    0.47 
   7   1   2    7.34    0.55 
   8  -1   2    0.07    0.35 
   8   1   2    0.05    0.31 
   8  -2  -2    2.70    0.35 
   8   2  -2    3.44    0.38 
   7  -2  -2    9.13    0.48 
   7   2  -2    7.59    0.50 
   6  -2  -2   72.27    1.57 
   6   2  -2   69.44    1.58 
   5  -2  -2   54.82    1.22 
   5   2  -2   55.43    1.24 
   4  -2  -2    4.13    0.22 
  -4  -2   2    3.92    0.15 
   4   2  -2    4.22    0.15 
   4   2  -2    3.83    0.25 
  -4   2   2    3.94    0.18 
   3  -2  -2  167.66    3.25 
  -3   2   2  165.17    3.23 
   3   2  -2  167.65    3.28 
   3   2  -2  165.79    3.22 
   2  -2  -2  306.11    5.83 
   2  -2  -2  302.33    5.84 
   2   2  -2  303.43    5.85 
   2   2  -2  307.64    5.86 
  -2   2   2  297.89    5.83 
   1  -2  -2   93.47    1.82 
   1  -2  -2   95.49    1.86 
  -1  -2   2   91.81    1.86 
  -1   2   2   92.62    1.85 
   1   2  -2   92.49    1.86 
   1   2  -2   95.40    1.86 
  -1   2   2   95.33    1.82 
   0  -2  -2    0.47    0.07 
   0  -2   2    0.32    0.07 
   0   2  -2    0.41    0.07 
   0   2   2    0.40    0.07 
   0   2   2    0.56    0.05 
   1  -2   2    7.29    0.23 
  -1  -2  -2    7.19    0.22 
   1   2   2    7.08    0.21 
   1   2   2    7.02    0.21 
  -1   2  -2    7.20    0.23 
  -2  -2  -2  179.76    3.44 
   2  -2   2  171.73    3.47 
   2   2   2  182.04    3.46 
   2   2   2  173.79    3.43 
  -2   2  -2  178.59    3.45 
  -3  -2  -2   59.46    1.19 
   3   2   2   56.46    1.24 
  -3   2  -2   59.70    1.20 
   3   2   2   58.11    1.18 
   4  -2   2    2.47    0.22 
  -4  -2  -2    2.70    0.17 
   4   2   2    2.47    0.21 
   4   2   2    2.56    0.16 
  -4   2  -2    2.85    0.18 
   5  -2   2   38.15    0.97 
   5   2   2   39.18    0.97 
   6  -2   2   25.96    0.80 
   6   2   2   26.16    0.80 
   7  -2   2    0.31    0.30 
   7   2   2    0.37    0.30 
   8  -2   2   -0.24    0.33 
   8   2   2   -0.12    0.33 
   8  -3  -2   22.09    0.78 
   8   3  -2   22.09    0.81 
   7  -3  -2   26.04    0.79 
   7   3  -2   27.73    0.84 
   6  -3  -2    2.65    0.25 
   6   3  -2    2.45    0.27 
   5  -3  -2   16.45    0.49 
   5   3  -2   15.97    0.52 
   4  -3  -2   32.74    0.74 
  -4   3   2   32.27    0.71 
   4   3  -2   32.42    0.67 
   4   3  -2   32.12    0.78 
   3  -3  -2    4.18    0.17 
   3   3  -2    4.02    0.22 
  -3   3   2    3.80    0.17 
   3   3  -2    4.02    0.16 
   2  -3  -2    5.86    0.17 
   2   3  -2    5.71    0.20 
   2   3  -2    5.59    0.22 
  -2   3   2    6.00    0.20 
  -1   3   2   42.33    0.89 
   1   3  -2   43.24    0.90 
   1   3  -2   42.18    0.91 
  -1   3   2   43.43    0.84 
   0  -3  -2   64.40    1.33 
   0  -3   2   65.34    1.33 
   0   3  -2   64.18    1.33 
   0   3   2   66.29    1.32 
   0   3   2   66.67    1.28 
  -1  -3  -2  114.01    2.23 
   1  -3   2  112.56    2.24 
   1   3   2  114.92    2.21 
   1   3   2  111.55    2.22 
  -1   3  -2  111.24    2.23 
   2  -3   2   24.40    0.58 
  -2  -3  -2   24.47    0.55 
   2   3   2   24.65    0.54 
   2   3   2   23.95    0.57 
  -2   3  -2   24.15    0.56 
   3   3   2   17.31    0.48 
  -3   3  -2   17.59    0.44 
   3   3   2   18.06    0.42 
   4  -3   2   62.53    1.37 
  -4   3  -2   63.89    1.29 
   4   3   2   59.79    1.36 
   4   3   2   62.39    1.28 
   5  -3   2    0.74    0.22 
   5   3   2    0.09    0.19 
   6  -3   2    5.10    0.45 
   6   3   2    4.69    0.36 
   7  -3   2   14.01    0.68 
   7   3   2   14.35    0.64 
   8  -3   2   25.42    0.95 
   8   3   2   25.10    0.91 
   8  -4  -2    8.59    0.54 
   8   4  -2    7.47    0.59 
   7  -4  -2    0.11    0.22 
   7   4  -2    0.12    0.25 
   6  -4  -2   27.55    0.74 
   6   4  -2   25.89    0.77 
   5  -4  -2    2.27    0.20 
   5   4  -2    2.27    0.23 
   4  -4  -2   46.62    1.00 
  -4   4   2   45.35    0.98 
   4   4  -2   45.80    1.05 
   4   4  -2   46.73    0.94 
   3  -4  -2    2.69    0.15 
   3   4  -2    2.80    0.15 
  -3   4   2    2.86    0.16 
   3   4  -2    2.69    0.20 
   2  -4  -2    3.76    0.13 
  -2   4   2    3.76    0.17 
   2   4  -2    4.05    0.17 
   2   4  -2    3.81    0.20 
  -1  -4   2    0.02    0.07 
  -1   4   2   -0.01    0.06 
   1   4  -2    0.08    0.07 
   1   4  -2    0.16    0.08 
   0  -4   2   17.17    0.43 
   0   4  -2   16.59    0.42 
   0   4   2   16.48    0.41 
   0   4   2   17.32    0.36 
   1  -4   2   14.07    0.38 
   1   4   2   13.75    0.35 
   1   4   2   13.92    0.34 
  -1   4  -2   14.66    0.38 
   2  -4   2   20.15    0.51 
  -2   4  -2   19.62    0.49 
   2   4   2   19.97    0.47 
   2   4   2   20.07    0.48 
   3  -4   2    0.17    0.13 
   3   4   2    0.51    0.09 
  -3   4  -2    0.37    0.10 
   3   4   2    0.37    0.13 
   4  -4   2   83.98    1.79 
  -4   4  -2   83.94    1.71 
   4   4   2   84.16    1.78 
   5  -4   2    2.37    0.26 
   5   4   2    2.27    0.25 
   6  -4   2   54.53    1.34 
   6   4   2   54.94    1.32 
   7  -4   2    1.91    0.35 
   7   4   2    1.91    0.34 
   8  -4   2    0.60    0.36 
   8   4   2    0.02    0.32 
   8  -5  -2   30.94    1.02 
   8   5  -2   33.50    1.03 
   7  -5  -2    0.85    0.25 
   7   5  -2    0.84    0.28 
   6  -5  -2   25.99    0.71 
   6   5  -2   26.26    0.78 
   5  -5  -2   23.47    0.60 
   5   5  -2   22.11    0.66 
  -5   5   2   23.03    0.57 
   4  -5  -2    7.18    0.26 
   4   5  -2    6.94    0.33 
   4   5  -2    7.00    0.23 
  -4   5   2    7.16    0.27 
   3  -5  -2    5.54    0.19 
   3   5  -2    5.78    0.21 
  -3   5   2    5.06    0.22 
   3   5  -2    6.19    0.27 
   2  -5  -2   11.83    0.27 
   2   5  -2   11.77    0.33 
  -2   5   2   12.34    0.34 
   2   5  -2   11.76    0.36 
  -1  -5   2   26.95    0.63 
   1   5  -2   26.65    0.63 
   1   5  -2   27.91    0.63 
   0  -5   2   18.02    0.47 
   0   5   2   18.21    0.45 
   0   5   2   19.12    0.39 
   1  -5   2   54.00    1.14 
  -1   5  -2   53.07    1.14 
   1   5   2   54.90    1.10 
   1   5   2   54.35    1.12 
   2  -5   2  184.18    3.69 
  -2   5  -2  188.29    3.68 
   2   5   2  190.59    3.66 
   2   5   2  186.95    3.65 
   3  -5   2    3.20    0.25 
  -3   5  -2    2.61    0.20 
   3   5   2    3.05    0.18 
   3   5   2    2.56    0.21 
   4  -5   2  114.74    2.32 
  -4   5  -2  111.21    2.24 
   4   5   2  107.82    2.29 
   5  -5   2    6.69    0.42 
   5   5   2    5.69    0.39 
   6  -5   2   15.99    0.64 
   6   5   2   15.61    0.62 
   7  -5   2    0.59    0.30 
   7   5   2    1.09    0.31 
   8   6  -2    0.42    0.33 
   7  -6  -2   15.91    0.60 
   7   6  -2   15.89    0.68 
   6  -6  -2   26.13    0.71 
   6   6  -2   26.16    0.79 
   5  -6  -2    3.40    0.26 
   5   6  -2    3.56    0.29 
  -5   6   2    3.23    0.24 
   4  -6  -2    5.53    0.24 
   4   6  -2    5.20    0.21 
  -4   6   2    5.14    0.26 
   4   6  -2    5.20    0.31 
   3  -6  -2  151.59    2.95 
  -3   6   2  150.76    3.01 
   3   6  -2  149.63    3.04 
   3   6  -2  155.43    2.99 
   2  -6  -2   54.52    1.07 
   2   6  -2   55.58    1.19 
   2   6  -2   55.33    1.16 
  -2   6   2   55.35    1.17 
  -1  -6   2  102.86    2.08 
   1   6  -2  102.01    2.08 
   1   6  -2  104.47    2.08 
  -1   6   2  103.44    2.07 
   0  -6   2   13.54    0.38 
   0   6   2   12.78    0.29 
   0   6   2   13.08    0.36 
   0   6  -2   13.51    0.38 
   1  -6   2  129.03    2.59 
   1   6   2  132.74    2.57 
   1   6   2  127.14    2.53 
  -1   6  -2  131.16    2.60 
   2  -6   2  129.03    2.56 
   2   6   2  126.59    2.51 
  -2   6  -2  127.13    2.55 
   2   6   2  126.34    2.52 
   3  -6   2  125.76    2.53 
  -3   6  -2  125.26    2.50 
   3   6   2  122.68    2.45 
   3   6   2  122.49    2.50 
   4  -6   2   28.56    0.76 
  -4   6  -2   27.47    0.69 
   4   6   2   28.74    0.74 
   5  -6   2    2.42    0.28 
   5   6   2    3.04    0.29 
   6  -6   2   33.75    0.99 
   6   6   2   36.80    0.99 
   7  -6   2    2.31    0.36 
   7   6   2    1.23    0.33 
   8   7  -2    7.27    0.62 
   7   7  -2   12.68    0.63 
   6  -7  -2    4.32    0.34 
   6   7  -2    4.30    0.35 
   5  -7  -2   74.59    1.57 
  -5   7   2   72.69    1.58 
   5   7  -2   76.94    1.67 
   4  -7  -2   83.51    1.68 
  -4   7   2   81.13    1.72 
   4   7  -2   81.29    1.77 
   4   7  -2   84.22    1.68 
   3  -7  -2   21.53    0.48 
   3   7  -2   22.12    0.54 
   3   7  -2   21.23    0.59 
  -3   7   2   21.41    0.56 
   2   7  -2    0.88    0.13 
   2   7  -2    0.84    0.14 
  -2   7   2    0.96    0.13 
  -1   7   2  182.28    3.59 
   1   7  -2  180.79    3.60 
   1   7  -2  184.29    3.59 
   0  -7   2  160.32    3.22 
   0   7   2  159.47    3.11 
   0   7  -2  163.54    3.22 
   0   7   2  166.70    3.20 
   1  -7   2  261.18    5.19 
   1   7   2  269.66    5.13 
   1   7   2  270.09    5.17 
  -1   7  -2  265.32    5.20 
   2  -7   2   23.64    0.61 
  -2   7  -2   23.89    0.61 
   2   7   2   22.96    0.56 
   2   7   2   23.86    0.57 
   3  -7   2    2.99    0.23 
   3   7   2    2.52    0.20 
  -3   7  -2    3.05    0.23 
   3   7   2    3.12    0.21 
   4  -7   2   11.49    0.46 
  -4   7  -2   11.35    0.40 
   4   7   2   12.17    0.44 
   5  -7   2   14.22    0.58 
   5   7   2   14.91    0.55 
   6  -7   2    0.12    0.28 
   6   7   2   -0.18    0.24 
   7  -7   2    4.14    0.42 
   7   7   2    3.03    0.39 
   8   8  -2    9.05    0.65 
   7   8  -2    8.30    0.60 
   6   8  -2   27.20    0.83 
   5   8  -2    0.48    0.22 
  -5   8   2    0.52    0.16 
   4  -8  -2   37.61    0.81 
  -4   8   2   35.78    0.87 
   4   8  -2   37.00    0.83 
   4   8  -2   37.15    0.92 
   3  -8  -2   58.55    1.16 
  -3   8   2   57.41    1.26 
   3   8  -2   59.55    1.24 
   3   8  -2   56.31    1.28 
   2   8  -2  259.64    5.06 
  -2   8   2  264.00    5.07 
   2   8  -2  254.87    5.08 
  -1  -8   2  115.40    2.36 
   1   8  -2  119.79    2.37 
   1   8  -2  115.35    2.36 
  -1   8   2  115.03    2.35 
   0  -8   2    8.34    0.33 
   0   8   2    9.80    0.32 
   0   8   2    8.65    0.22 
   1  -8   2    5.63    0.28 
   1   8   2    6.08    0.26 
   1   8   2    6.52    0.21 
   2  -8   2  116.66    2.39 
   2   8   2  116.92    2.34 
  -2   8  -2  117.07    2.39 
   2   8   2  117.58    2.35 
   3  -8   2   38.18    0.92 
   3   8   2   37.38    0.88 
  -3   8  -2   38.64    0.91 
   3   8   2   38.06    0.86 
   4  -8   2   47.07    1.12 
   4   8   2   46.26    1.09 
  -4   8  -2   47.14    1.07 
   5  -8   2    2.18    0.30 
   5   8   2    3.21    0.30 
   6  -8   2    1.63    0.33 
   6   8   2    1.82    0.31 
   7  -8   2    0.12    0.32 
   7   8   2    0.52    0.32 
   8   9  -2    1.58    0.39 
   7   9  -2    1.85    0.35 
   6   9  -2   26.10    0.84 
   5   9  -2    6.06    0.42 
  -5   9   2    6.95    0.36 
   4   9  -2  138.96    2.72 
   4   9  -2  132.98    2.80 
  -4   9   2  134.74    2.76 
   3   9  -2    5.37    0.33 
  -3   9   2    5.41    0.30 
   3   9  -2    5.73    0.29 
   2   9  -2   21.30    0.57 
  -2   9   2   21.43    0.58 
   2   9  -2   21.37    0.59 
  -1  -9   2    4.51    0.27 
   1   9  -2    4.26    0.27 
  -1   9   2    4.24    0.26 
   1   9  -2    4.06    0.27 
   0  -9   2  293.45    5.60 
   0   9  -2  285.15    5.61 
   0   9   2  293.90    5.59 
   0   9   2  275.34    5.48 
   1  -9   2    8.04    0.34 
  -1   9  -2    7.62    0.34 
   1   9   2    7.31    0.24 
   1   9   2    7.17    0.31 
   2  -9   2   36.46    0.89 
  -2   9  -2   37.92    0.91 
   2   9   2   37.22    0.83 
   2   9   2   37.67    0.86 
   3  -9   2    9.99    0.41 
  -3   9  -2    9.22    0.39 
   3   9   2    9.49    0.35 
   3   9   2    9.14    0.36 
   4  -9   2   40.93    1.04 
   4   9   2   42.50    1.01 
  -4   9  -2   41.71    1.00 
   5  -9   2    8.05    0.51 
   5   9   2    8.14    0.47 
   6  -9   2   13.62    0.68 
   6   9   2   13.18    0.62 
   7  -9   2    0.18    0.32 
   7   9   2    0.42    0.32 
   7  10  -2    1.40    0.36 
   6  10  -2   13.02    0.61 
   5  10  -2   28.46    0.85 
  -5  10   2   28.19    0.77 
   4  10  -2   14.12    0.54 
  -4  10   2   14.81    0.50 
   4  10  -2   14.12    0.46 
   3  10  -2    9.55    0.41 
   3  10  -2    9.65    0.38 
  -3  10   2    8.61    0.38 
   2  10  -2  184.53    3.72 
  -2  10   2  186.37    3.71 
   2  10  -2  186.71    3.71 
  -1 -10   2    2.36    0.21 
   1  10  -2    2.73    0.25 
  -1  10   2    2.00    0.19 
   1  10  -2    2.47    0.21 
   0 -10   2    1.12    0.17 
   0  10   2    1.09    0.09 
   0  10   2    0.90    0.16 
   0  10  -2    0.91    0.17 
   1 -10   2    5.68    0.32 
   1  10   2    6.11    0.30 
   1  10   2    5.49    0.22 
  -1  10  -2    5.93    0.32 
   2 -10   2   78.01    1.69 
  -2  10  -2   79.02    1.70 
   2  10   2   79.14    1.66 
   2  10   2   78.61    1.62 
   3 -10   2    0.49    0.19 
   3  10   2    0.59    0.16 
  -3  10  -2    0.73    0.18 
   3  10   2    0.60    0.17 
   4 -10   2   10.07    0.49 
  -4  10  -2    9.49    0.43 
   4  10   2   10.41    0.44 
   5 -10   2   21.79    0.75 
   5  10   2   21.10    0.70 
   6 -10   2    5.45    0.45 
   6  10   2    4.67    0.40 
   7 -10   2    5.79    0.51 
   7  10   2    5.48    0.48 
   7  11  -2   33.84    1.05 
   6  11  -2   -0.16    0.28 
   5  11  -2   12.60    0.59 
  -5  11   2   12.71    0.51 
   4  11  -2   19.95    0.60 
   4  11  -2   21.14    0.68 
  -4  11   2   21.92    0.65 
   3  11  -2    4.16    0.30 
   3  11  -2    4.22    0.34 
  -3  11   2    4.31    0.32 
  -2 -11   2    3.69    0.30 
  -2  11   2    3.00    0.25 
   2  11  -2    3.44    0.30 
   2  11  -2    4.56    0.32 
  -1 -11   2    4.79    0.31 
  -1  11   2    4.58    0.30 
   1  11  -2    4.42    0.31 
   1  11  -2    4.24    0.31 
   0 -11   2   47.59    1.09 
   0  11  -2   46.84    1.12 
   0  11   2   48.23    1.10 
   1 -11   2   14.80    0.50 
   1  11   2   14.57    0.48 
  -1  11  -2   15.49    0.52 
   1  11   2   14.48    0.39 
   2 -11   2    1.54    0.22 
   2  11   2    1.52    0.19 
   2  11   2    1.34    0.17 
  -2  11  -2    1.63    0.21 
   3 -11   2   23.90    0.70 
   3  11   2   23.87    0.65 
  -3  11  -2   23.85    0.70 
   3  11   2   24.68    0.65 
   4 -11   2   24.44    0.76 
   4  11   2   24.28    0.71 
  -4  11  -2   25.04    0.73 
   5 -11   2    1.46    0.30 
   5  11   2    0.40    0.26 
   6 -11   2   -0.15    0.31 
   6  11   2    0.62    0.30 
   7  12  -2    1.02    0.37 
   6  12  -2   12.40    0.65 
  -5  12   2   17.76    0.63 
   5  12  -2   18.67    0.68 
   4  12  -2    9.21    0.42 
   4  12  -2    9.58    0.50 
  -4  12   2    9.98    0.46 
   3  12  -2    4.38    0.33 
  -3  12   2    3.80    0.35 
   3  12  -2    3.70    0.31 
  -2 -12   2    0.42    0.18 
   2  12  -2    0.39    0.18 
   2  12  -2    0.54    0.20 
  -2  12   2    0.55    0.18 
  -1 -12   2    0.70    0.18 
   1  12  -2    0.74    0.19 
   1  12  -2    0.59    0.18 
  -1  12   2    0.36    0.16 
   0 -12   2   10.69    0.43 
   0  12   2   10.89    0.43 
   0  12  -2   10.08    0.45 
   1 -12   2    7.17    0.38 
   1  12   2    7.18    0.36 
  -1  12  -2    6.24    0.38 
   2 -12   2    6.54    0.39 
  -2  12  -2    6.95    0.40 
   2  12   2    6.40    0.31 
   2  12   2    7.44    0.37 
   3 -12   2    0.05    0.20 
  -3  12  -2    0.39    0.21 
   3  12   2    0.08    0.17 
   3  12   2   -0.06    0.17 
   4 -12   2   17.77    0.66 
  -4  12  -2   18.39    0.63 
   4  12   2   18.23    0.61 
   5 -12   2   21.48    0.78 
   5  12   2   21.40    0.72 
   6 -12   2   16.55    0.74 
   6  12   2   16.49    0.71 
   7  13  -2    3.17    0.45 
   6  13  -2   10.82    0.64 
   5  13  -2    7.02    0.53 
  -5  13   2    7.73    0.48 
  -4  13   2    1.24    0.25 
   4  13  -2    0.89    0.26 
   4  13  -2    0.85    0.22 
   3  13  -2   22.95    0.70 
  -3  13   2   22.62    0.71 
   3  13  -2   24.51    0.74 
  -2 -13   2    0.62    0.19 
   2  13  -2    0.76    0.21 
  -2  13   2    0.98    0.22 
   2  13  -2    0.63    0.21 
  -1 -13   2    7.02    0.39 
   1  13  -2    6.79    0.41 
  -1  13   2    6.51    0.39 
   1  13  -2    7.35    0.40 
   0 -13   2    3.11    0.26 
   0  13   2    2.66    0.26 
   0  13  -2    2.87    0.29 
   1 -13   2    5.78    0.39 
   1  13   2    6.54    0.38 
  -1  13  -2    6.81    0.43 
   2 -13   2   37.67    0.98 
   2  13   2   38.16    0.96 
  -2  13  -2   40.14    1.01 
   3 -13   2    7.25    0.45 
   3  13   2    6.63    0.38 
   3  13   2    6.03    0.39 
  -3  13  -2    6.93    0.45 
   4 -13   2   10.60    0.56 
   4  13   2   10.68    0.50 
  -4  13  -2   10.59    0.53 
   5 -13   2    5.17    0.44 
   5  13   2    6.42    0.48 
  -5  13  -2    5.94    0.53 
   6 -13   2   13.78    0.73 
   6  13   2   14.44    0.67 
   6  14  -2    2.42    0.40 
   5  14  -2    1.85    0.34 
  -5  14   2    1.88    0.30 
   4  14  -2    3.33    0.35 
  -4  14   2    2.84    0.33 
  -3 -14   2   76.64    1.70 
   3  14  -2   73.65    1.69 
   3  14  -2   76.89    1.72 
  -3  14   2   76.19    1.72 
  -2 -14   2    3.20    0.29 
   2  14  -2    3.52    0.30 
   2  14  -2    3.11    0.30 
  -2  14   2    3.22    0.31 
  -1 -14   2   44.54    1.10 
   1  14  -2   45.84    1.12 
  -1  14   2   46.45    1.15 
   1  14  -2   47.64    1.16 
   0 -14   2   10.05    0.45 
   0  14  -2    9.37    0.50 
   0  14   2    9.85    0.46 
   1 -14   2   13.67    0.53 
  -1  14  -2   13.17    0.57 
   1  14   2   14.06    0.54 
   2 -14   2    1.73    0.27 
   2  14   2    1.74    0.25 
  -2  14  -2    1.45    0.26 
   3 -14   2   32.42    0.94 
   3  14   2   35.30    0.90 
  -3  14  -2   34.26    0.96 
   4 -14   2   23.16    0.79 
  -4  14  -2   23.90    0.79 
   4  14   2   25.84    0.78 
   5 -14   2    0.27    0.30 
   5  14   2    0.47    0.29 
  -5  14  -2   -0.12    0.25 
   6  14   2   15.44    0.70 
   6  15  -2    1.49    0.38 
   5  15  -2   46.23    1.25 
  -5  15   2   46.39    1.22 
   4  15  -2    0.29    0.28 
  -4  15   2    0.43    0.26 
  -3 -15   2    4.20    0.35 
   3  15  -2    4.49    0.36 
   3  15  -2    4.90    0.43 
  -3  15   2    5.20    0.46 
  -2 -15   2    1.64    0.27 
   2  15  -2    1.72    0.28 
   2  15  -2    1.71    0.28 
  -2  15   2    1.24    0.26 
  -1 -15   2   75.44    1.68 
   1  15  -2   79.35    1.71 
   1  15  -2   75.94    1.74 
  -1  15   2   74.29    1.73 
   0 -15   2    0.86    0.24 
   0  15   2    1.01    0.24 
   0  15  -2    0.70    0.26 
   1 -15   2   78.02    1.74 
   1  15   2   78.18    1.77 
  -1  15  -2   80.99    1.82 
   2 -15   2    7.04    0.47 
  -2  15  -2    7.21    0.49 
   2  15   2    7.39    0.45 
   3 -15   2    0.09    0.25 
   3  15   2    0.10    0.22 
  -3  15  -2    0.47    0.26 
   4 -15   2    4.04    0.39 
  -4  15  -2    4.80    0.40 
  -5  15  -2   17.65    0.71 
   6  16  -2    3.28    0.45 
  -5  16   2    0.26    0.27 
   5  16  -2   -0.03    0.32 
   4  16  -2    0.20    0.30 
  -4  16   2    0.52    0.27 
  -3 -16   2   40.31    1.06 
  -3  16   2   41.95    1.12 
   3  16  -2   39.25    1.07 
   3  16  -2   39.08    1.08 
  -2 -16   2   24.50    0.76 
   2  16  -2   23.68    0.79 
  -2  16   2   24.88    0.81 
   2  16  -2   26.44    0.79 
  -1 -16   2   34.36    0.92 
   1  16  -2   34.09    0.99 
   1  16  -2   34.04    0.93 
  -1  16   2   34.98    0.97 
   0 -16   2    1.05    0.25 
   0  16   2    0.55    0.25 
   0  16  -2    1.24    0.28 
   1 -16   2   15.67    0.61 
  -1  16  -2   15.69    0.65 
   1  16   2   16.31    0.63 
   2 -16   2   17.65    0.66 
   2  16   2   18.79    0.67 
  -2  16  -2   17.89    0.69 
   3 -16   2   40.54    1.08 
  -3  16  -2   39.74    1.12 
   3  16   2   39.21    1.05 
  -4  16  -2   -0.01    0.26 
  -5  16  -2    0.98    0.33 
   5  17  -2   10.97    0.69 
  -5  17   2   11.66    0.64 
  -4 -17   2   18.39    0.73 
  -4  17   2   19.07    0.75 
   4  17  -2   18.50    0.75 
  -3 -17   2    9.02    0.53 
  -3  17   2    8.81    0.58 
   3  17  -2    8.44    0.55 
   3  17  -2    8.08    0.55 
  -2 -17   2    1.70    0.29 
   2  17  -2    0.91    0.29 
  -2  17   2    1.74    0.32 
   2  17  -2    1.70    0.30 
  -1 -17   2   25.03    0.77 
   1  17  -2   24.87    0.84 
  -1  17   2   24.33    0.83 
   0 -17   2   67.71    1.52 
   0  17   2   64.04    1.57 
   0  17  -2   65.31    1.59 
   1 -17   2   34.23    0.94 
  -1  17  -2   34.58    1.02 
   1  17   2   32.51    0.97 
   2 -17   2    8.45    0.55 
   2  17   2    9.24    0.54 
  -2  17  -2    9.81    0.60 
   3  17   2   10.35    0.55 
  -3  17  -2   10.81    0.63 
  -4  17  -2    0.96    0.32 
  -5  18   2    3.91    0.43 
   5  18  -2    3.15    0.44 
  -4 -18   2    5.00    0.44 
   4  18  -2    5.14    0.45 
  -4  18   2    6.00    0.48 
  -3 -18   2    2.65    0.35 
   3  18  -2    2.16    0.36 
   3  18  -2    3.05    0.37 
  -3  18   2    3.11    0.37 
  -2 -18   2   27.46    0.83 
   2  18  -2   27.17    0.89 
   2  18  -2   25.85    0.84 
  -2  18   2   26.22    0.91 
  -1 -18   2   15.19    0.62 
   1  18  -2   15.35    0.70 
  -1  18   2   15.04    0.69 
   0 -18   2    2.18    0.31 
   0  18   2    2.52    0.35 
   0  18  -2    2.25    0.35 
  -1  18  -2   10.11    0.62 
   1  18   2    9.09    0.58 
   2  18   2    6.32    0.52 
  -2  18  -2    7.73    0.60 
   3  18   2    2.18    0.34 
  -3  18  -2    2.54    0.39 
  -4  18  -2    7.25    0.62 
  -4 -19   2    3.76    0.41 
   4  19  -2    2.51    0.40 
  -4  19   2    2.21    0.39 
  -3 -19   2    5.87    0.45 
   3  19  -2    4.80    0.43 
   3  19  -2    5.52    0.46 
  -3  19   2    4.78    0.46 
  -2 -19   2    3.54    0.37 
   2  19  -2    2.61    0.38 
  -2  19   2    3.66    0.42 
   2  19  -2    3.42    0.38 
  -1 -19   2    1.46    0.31 
   1  19  -2    1.04    0.34 
  -1  19   2    1.41    0.33 
   0  19  -2    3.14    0.41 
   0  19   2    4.20    0.42 
   1  19   2    0.00    0.29 
  -1  19  -2   -0.08    0.30 
  -2  19  -2   -0.21    0.31 
   2  19   2    0.48    0.30 
  -3  19  -2    6.20    0.53 
  -3 -20   2    1.94    0.38 
   3  20  -2    2.69    0.39 
   3  20  -2    2.49    0.53 
  -3  20   2    2.40    0.42 
   2  20  -2    0.50    0.33 
  -2  20   2    1.39    0.37 
  -1  20   2    0.89    0.35 
   1  20  -2    1.30    0.36 
   0  20  -2    5.13    0.47 
   0  20   2    5.33    0.48 
   1  20   2    3.41    0.41 
  -1  20  -2    3.55    0.44 
  -2  20  -2    0.87    0.38 
   2  20   2    0.19    0.32 
  -2  21   2    0.57    0.36 
   2  21  -2   -0.35    0.34 
   1  21  -2    1.98    0.41 
  -1  21   2    1.93    0.40 
   0  21  -2    1.72    0.41 
   0  21   2    1.99    0.41 
  -1  21  -2   -0.07    0.35 
   1  21   2    0.33    0.33 
   8   0  -3   -0.04    0.26 
   7   0  -3   30.02    0.87 
   6   0  -3    0.17    0.19 
   5   0  -3    7.24    0.34 
  -4   0   3   -0.15    0.08 
   4   0  -3   -0.01    0.09 
   4   0  -3   -0.05    0.11 
   3   0  -3    1.24    0.12 
   3   0  -3    1.28    0.13 
  -3   0   3    1.73    0.15 
   2   0  -3    0.54    0.10 
   2   0  -3    0.18    0.09 
  -1   0   3   67.97    1.36 
   1   0  -3   65.79    1.35 
   1   0  -3   66.91    1.38 
   0   0   3    0.12    0.07 
   0   0  -3    0.14    0.08 
  -1   0  -3   12.33    0.35 
   1   0   3   11.67    0.33 
  -2   0  -3   -0.09    0.09 
   2   0   3    0.15    0.10 
   3   0   3   71.09    1.52 
  -3   0  -3   72.09    1.48 
   4   0   3    0.16    0.16 
  -4   0  -3   -0.08    0.11 
   5   0   3   88.89    1.94 
   6   0   3   -0.08    0.25 
   7   0   3    2.94    0.41 
   8  -1  -3    9.14    0.56 
   8   1  -3    9.61    0.59 
   7  -1  -3   11.15    0.51 
   7   1  -3   11.05    0.54 
   6  -1  -3   28.53    0.78 
   6   1  -3   28.06    0.79 
   5  -1  -3   43.20    0.99 
   5   1  -3   41.67    1.00 
   4  -1  -3    6.18    0.28 
  -4  -1   3    6.51    0.24 
   4   1  -3    6.09    0.29 
  -4   1   3    6.55    0.24 
   4   1  -3    6.59    0.24 
   3  -1  -3    3.16    0.19 
   3  -1  -3    3.72    0.19 
   3   1  -3    3.68    0.21 
   3   1  -3    3.39    0.18 
  -3   1   3    3.49    0.19 
   2  -1  -3  150.89    2.93 
   2  -1  -3  151.63    2.95 
  -2   1   3  149.93    2.94 
   2   1  -3  148.86    2.94 
   2   1  -3  146.55    2.95 
  -1  -1   3    7.23    0.24 
   1  -1  -3    7.03    0.25 
   1   1  -3    7.10    0.25 
   1   1  -3    7.45    0.24 
  -1   1   3    6.94    0.21 
   0  -1   3   81.89    1.69 
   0  -1  -3   82.94    1.70 
   0   1  -3   85.26    1.71 
   0   1   3   85.29    1.67 
  -1  -1  -3   29.98    0.68 
   1  -1   3   28.76    0.66 
   1   1   3   28.71    0.65 
  -1   1  -3   29.92    0.68 
   2  -1   3   13.63    0.41 
  -2  -1  -3   14.33    0.39 
  -2   1  -3   13.89    0.40 
   2   1   3   13.93    0.40 
  -3  -1  -3   83.82    1.69 
   3  -1   3   81.91    1.74 
   3   1   3   81.70    1.73 
  -3   1  -3   83.36    1.70 
  -4  -1  -3    9.90    0.33 
   4  -1   3    9.84    0.41 
   4   1   3    9.28    0.32 
  -4   1  -3    9.64    0.33 
   4   1   3    9.50    0.42 
   5  -1   3   11.67    0.51 
   5   1   3   11.04    0.49 
   6  -1   3    5.63    0.49 
   6   1   3    5.31    0.41 
   7  -1   3   32.51    1.01 
   7   1   3   32.39    1.02 
   8  -2  -3    7.96    0.54 
   8   2  -3    7.98    0.57 
   7  -2  -3   36.33    0.96 
   7   2  -3   34.50    0.98 
   6  -2  -3    5.37    0.35 
   6   2  -3    5.02    0.39 
   5  -2  -3    6.81    0.32 
   5   2  -3    7.02    0.35 
   4  -2  -3  174.39    3.36 
  -4  -2   3  173.68    3.32 
   4   2  -3  167.38    3.32 
   4   2  -3  164.69    3.39 
  -4   2   3  170.43    3.33 
   3  -2  -3   80.11    1.61 
   3  -2  -3   80.13    1.60 
  -3   2   3   78.09    1.61 
   3   2  -3   78.57    1.64 
   3   2  -3   78.54    1.60 
   2  -2  -3   68.53    1.42 
   2  -2  -3   68.59    1.39 
   2   2  -3   68.59    1.42 
  -2   2   3   69.00    1.39 
  -2   2   3   69.69    1.42 
   2   2  -3   69.70    1.44 
   1  -2  -3    0.15    0.08 
  -1  -2   3    0.06    0.08 
  -1   2   3    0.23    0.09 
   1   2  -3    0.17    0.08 
  -1   2   3    0.22    0.06 
   1   2  -3    0.13    0.08 
   0  -2   3   11.89    0.35 
   0  -2  -3   12.25    0.35 
   0   2  -3   11.81    0.35 
   0   2   3   12.48    0.30 
   0   2   3   12.30    0.35 
  -1  -2  -3  151.58    3.00 
   1  -2   3  153.15    3.00 
   1   2   3  149.55    2.97 
  -1   2  -3  153.03    3.01 
   1   2   3  152.27    2.99 
  -2  -2  -3  190.10    3.74 
   2  -2   3  184.36    3.75 
   2   2   3  188.49    3.73 
  -2   2  -3  193.87    3.75 
   2   2   3  197.49    3.75 
  -3  -2  -3    3.12    0.21 
   3  -2   3    3.47    0.25 
   3   2   3    3.48    0.25 
  -3   2  -3    3.49    0.22 
   3   2   3    3.01    0.21 
  -4  -2  -3   38.42    0.89 
   4  -2   3   38.31    0.95 
  -4   2  -3   39.90    0.87 
   4   2   3   38.64    0.85 
   4   2   3   36.80    0.93 
   5  -2   3   55.81    1.32 
   5   2   3   54.75    1.30 
   6  -2   3    1.05    0.29 
   6   2   3    0.61    0.28 
   7  -2   3   -0.11    0.32 
   7   2   3    0.26    0.31 
   8  -3  -3    5.35    0.42 
   8   3  -3    4.57    0.43 
   7  -3  -3    8.13    0.47 
   7   3  -3    8.49    0.51 
   6  -3  -3   35.66    0.90 
   6   3  -3   35.11    0.94 
   5  -3  -3   58.83    1.29 
   5   3  -3   59.64    1.34 
  -5   3   3   59.24    1.25 
   4  -3  -3    5.72    0.25 
   4   3  -3    5.79    0.23 
  -4   3   3    5.20    0.24 
   4   3  -3    5.24    0.30 
   3  -3  -3   12.01    0.33 
   3   3  -3   12.43    0.35 
  -3   3   3   12.14    0.35 
   3   3  -3   11.79    0.39 
   2  -3  -3   87.45    1.68 
   2  -3  -3   84.82    1.74 
   2   3  -3   83.72    1.73 
  -2   3   3   84.96    1.73 
   2   3  -3   83.84    1.75 
  -2   3   3   85.99    1.68 
   1  -3  -3  383.49    7.33 
  -1  -3   3  376.27    7.34 
  -1   3   3  384.11    7.33 
   1   3  -3  379.60    7.34 
   1   3  -3  379.61    7.33 
  -1   3   3  379.21    7.31 
   0  -3   3  142.23    2.82 
   0  -3  -3  141.66    2.82 
   0   3   3  141.01    2.81 
   0   3   3  143.73    2.76 
   0   3  -3  143.32    2.83 
   1  -3   3    2.63    0.20 
  -1  -3  -3    3.01    0.19 
   1   3   3    3.16    0.19 
   1   3   3    2.87    0.15 
  -1   3  -3    2.75    0.20 
   2  -3   3    0.08    0.12 
  -2  -3  -3    0.12    0.10 
  -2   3  -3    0.19    0.11 
   2   3   3   -0.02    0.10 
   2   3   3    0.26    0.11 
   3  -3   3   81.85    1.77 
  -3  -3  -3   86.82    1.73 
   3   3   3   85.89    1.71 
   3   3   3   82.14    1.75 
  -3   3  -3   83.72    1.73 
   4  -3   3   46.19    1.13 
   4   3   3   48.43    1.15 
  -4   3  -3   48.95    1.06 
   4   3   3   48.11    1.12 
   5  -3   3    0.17    0.22 
   5   3   3    0.54    0.22 
   6  -3   3    4.94    0.41 
   6   3   3    5.04    0.40 
   7  -3   3    5.63    0.47 
   7   3   3    5.44    0.47 
   8   4  -3   -0.02    0.31 
   7  -4  -3   10.68    0.49 
   7   4  -3   10.01    0.58 
   6  -4  -3    0.13    0.18 
   6   4  -3    0.35    0.23 
   5  -4  -3   63.86    1.35 
  -5   4   3   62.52    1.32 
   5   4  -3   61.80    1.41 
   4  -4  -3   18.66    0.48 
  -4   4   3   18.69    0.49 
   4   4  -3   20.34    0.57 
   4   4  -3   18.69    0.47 
   3  -4  -3  377.09    7.27 
  -3   4   3  383.95    7.32 
   3   4  -3  383.71    7.31 
   3   4  -3  372.91    7.36 
   2  -4  -3   13.27    0.31 
  -2  -4   3   12.93    0.40 
  -2   4   3   12.62    0.38 
  -2   4   3   13.62    0.31 
   2   4  -3   13.34    0.41 
   2   4  -3   12.92    0.38 
   1  -4  -3    5.25    0.23 
  -1  -4   3    5.16    0.25 
  -1   4   3    5.47    0.15 
   1   4  -3    5.73    0.25 
   1   4  -3    5.24    0.24 
  -1   4   3    5.17    0.23 
   0  -4  -3   10.48    0.34 
   0  -4   3   10.63    0.34 
   0   4   3   10.82    0.26 
   0   4  -3   10.12    0.33 
   0   4   3   10.20    0.33 
  -1  -4  -3  279.55    5.46 
   1  -4   3  284.91    5.48 
   1   4   3  283.23    5.42 
  -1   4  -3  282.09    5.48 
   1   4   3  277.23    5.45 
   2  -4   3   20.08    0.55 
  -2  -4  -3   20.42    0.52 
   2   4   3   19.66    0.51 
   2   4   3   20.87    0.52 
  -2   4  -3   20.44    0.54 
   3  -4   3   46.53    1.09 
   3   4   3   46.45    1.06 
   3   4   3   48.86    1.02 
  -3   4  -3   47.11    1.05 
   4  -4   3    2.01    0.25 
  -4   4  -3    2.24    0.19 
   4   4   3    2.00    0.23 
   5  -4   3    0.73    0.25 
   5   4   3    0.87    0.24 
   6  -4   3    0.73    0.30 
   6   4   3    0.84    0.28 
   7  -4   3    0.10    0.33 
   7   4   3    0.53    0.32 
   8   5  -3    4.05    0.44 
   7   5  -3   32.71    0.98 
   6  -5  -3    1.19    0.21 
   6   5  -3    1.17    0.27 
   5  -5  -3  101.13    2.03 
   5   5  -3   95.25    2.10 
  -5   5   3   99.18    2.02 
   4  -5  -3    3.88    0.21 
   4   5  -3    3.56    0.21 
  -4   5   3    4.20    0.24 
   4   5  -3    3.93    0.29 
   3  -5  -3   18.51    0.43 
  -3   5   3   19.06    0.49 
   3   5  -3   17.96    0.48 
   3   5  -3   17.59    0.53 
  -2  -5   3    3.17    0.23 
   2  -5  -3    3.26    0.11 
  -2   5   3    3.16    0.11 
   2   5  -3    3.29    0.24 
  -2   5   3    3.53    0.21 
   2   5  -3    3.19    0.21 
  -1  -5   3  457.91    9.03 
   1   5  -3  460.07    9.03 
  -1   5   3  470.86    9.01 
  -1   5   3  487.64    8.92 
   1   5  -3  464.45    9.02 
   0  -5   3    1.86    0.17 
   0   5   3    2.43    0.19 
   0   5  -3    2.12    0.19 
   0   5   3    1.95    0.11 
   1  -5   3   27.90    0.68 
   1   5   3   27.22    0.61 
  -1   5  -3   27.60    0.68 
   1   5   3   28.00    0.65 
   2  -5   3    5.23    0.29 
   2   5   3    5.01    0.24 
  -2   5  -3    4.81    0.26 
   2   5   3    5.08    0.25 
   3  -5   3   71.13    1.51 
   3   5   3   66.42    1.46 
  -3   5  -3   69.37    1.47 
   3   5   3   69.14    1.43 
   4  -5   3    0.87    0.22 
  -4   5  -3    0.75    0.16 
   4   5   3    0.72    0.19 
   5  -5   3   32.32    0.91 
   5   5   3   30.78    0.86 
   6  -5   3    5.41    0.44 
   6   5   3    4.91    0.40 
   7  -5   3   -0.28    0.32 
   7   5   3    0.18    0.31 
   8   6  -3    0.23    0.35 
   7   6  -3   11.24    0.60 
   6   6  -3   18.37    0.68 
  -5   6   3   13.13    0.43 
   5   6  -3   13.68    0.53 
   4  -6  -3   42.82    0.91 
  -4   6   3   42.91    0.97 
   4   6  -3   42.61    0.94 
   4   6  -3   42.38    1.03 
   3  -6  -3  150.75    2.94 
   3   6  -3  153.30    3.02 
  -3   6   3  152.66    3.02 
   3   6  -3  150.57    3.07 
   2   6  -3   13.58    0.44 
  -2   6   3   13.25    0.41 
   2   6  -3   14.03    0.41 
  -1  -6   3    0.75    0.14 
   1   6  -3    1.18    0.15 
  -1   6   3    0.91    0.13 
   1   6  -3    1.02    0.15 
   0  -6   3    0.64    0.14 
   0   6  -3    0.44    0.12 
   0   6   3    0.65    0.12 
   0   6   3    0.64    0.07 
   1  -6   3  166.53    3.37 
  -1   6  -3  170.85    3.37 
   1   6   3  167.76    3.34 
   1   6   3  170.54    3.29 
   2  -6   3   20.53    0.58 
   2   6   3   21.08    0.53 
   2   6   3   20.50    0.53 
  -2   6  -3   20.87    0.57 
   3  -6   3    6.45    0.35 
  -3   6  -3    6.13    0.31 
   3   6   3    6.26    0.29 
   3   6   3    6.45    0.31 
   4  -6   3   26.88    0.78 
  -4   6  -3   28.02    0.71 
   4   6   3   26.92    0.74 
   5  -6   3   16.83    0.66 
   5   6   3   17.07    0.61 
   6  -6   3    5.17    0.45 
   6   6   3    4.36    0.38 
   7  -6   3    1.43    0.38 
   7   6   3    1.71    0.36 
   8   7  -3   18.71    0.84 
   7   7  -3    1.40    0.33 
   6   7  -3    9.93    0.53 
   5   7  -3   22.25    0.71 
  -5   7   3   22.06    0.61 
   4   7  -3    4.41    0.25 
  -4   7   3    3.91    0.27 
   4   7  -3    4.13    0.33 
   3   7  -3   -0.03    0.12 
  -3   7   3    0.12    0.13 
   3   7  -3    0.25    0.16 
  -2  -7   3   26.44    0.69 
  -2   7   3   26.41    0.66 
   2   7  -3   26.21    0.70 
   2   7  -3   26.92    0.66 
  -1  -7   3   52.13    1.16 
   1   7  -3   51.52    1.16 
  -1   7   3   50.81    1.12 
   1   7  -3   50.85    1.14 
   0  -7   3   33.77    0.82 
   0   7   3   33.72    0.69 
   0   7   3   34.03    0.79 
   0   7  -3   33.66    0.81 
   1  -7   3    9.71    0.38 
  -1   7  -3   10.23    0.38 
   1   7   3   10.17    0.29 
   1   7   3   10.85    0.36 
   2  -7   3   13.33    0.47 
  -2   7  -3   14.73    0.47 
   2   7   3   13.45    0.40 
   2   7   3   13.85    0.42 
   3  -7   3   30.65    0.80 
   3   7   3   30.54    0.75 
   3   7   3   30.23    0.72 
  -3   7  -3   29.92    0.77 
   4  -7   3    1.73    0.26 
   4   7   3    1.31    0.22 
  -4   7  -3    1.52    0.20 
   5  -7   3    7.56    0.53 
   5   7   3    7.37    0.44 
   6  -7   3   13.72    0.70 
   6   7   3   12.89    0.61 
   7  -7   3   14.76    0.78 
   7   7   3   14.05    0.72 
   8   8  -3    1.11    0.38 
   7   8  -3   18.30    0.78 
   6   8  -3    8.64    0.55 
  -5   8   3   21.89    0.63 
   5   8  -3   23.04    0.73 
   4   8  -3    5.09    0.36 
  -4   8   3    4.81    0.30 
   4   8  -3    4.73    0.28 
   3   8  -3    0.12    0.17 
  -3   8   3    0.01    0.13 
   3   8  -3    0.03    0.13 
  -2  -8   3    1.46    0.20 
   2   8  -3    1.69    0.18 
   2   8  -3    1.47    0.20 
  -2   8   3    1.23    0.17 
  -1  -8   3   15.77    0.51 
  -1   8   3   16.57    0.48 
   1   8  -3   16.31    0.50 
   1   8  -3   16.07    0.50 
   0  -8   3    0.65    0.16 
   0   8  -3    0.88    0.17 
   0   8   3    0.91    0.08 
   0   8   3    0.67    0.15 
   1  -8   3   17.07    0.54 
  -1   8  -3   17.46    0.53 
   1   8   3   17.20    0.50 
   1   8   3   17.33    0.42 
   2  -8   3   10.19    0.42 
   2   8   3   10.55    0.35 
  -2   8  -3   10.51    0.42 
   2   8   3   10.86    0.38 
   3  -8   3   70.25    1.58 
   3   8   3   71.86    1.50 
  -3   8  -3   70.40    1.55 
   3   8   3   69.85    1.51 
   4  -8   3   13.83    0.56 
  -4   8  -3   13.65    0.49 
   4   8   3   13.24    0.49 
   5  -8   3   55.84    1.41 
   5   8   3   56.46    1.34 
   6  -8   3    1.44    0.36 
   6   8   3    1.59    0.31 
   7  -8   3    2.27    0.43 
   7   8   3    2.61    0.41 
   7   9  -3   16.27    0.76 
   6   9  -3    6.63    0.54 
  -5   9   3    8.28    0.40 
   5   9  -3    9.24    0.51 
   4   9  -3   10.23    0.39 
  -4   9   3    9.80    0.41 
   4   9  -3   10.05    0.48 
   3   9  -3    7.93    0.36 
  -3   9   3    8.31    0.37 
   3   9  -3    8.68    0.41 
  -2  -9   3   14.13    0.49 
   2   9  -3   13.88    0.48 
   2   9  -3   15.41    0.50 
  -2   9   3   14.67    0.47 
  -1  -9   3    0.59    0.16 
   1   9  -3    0.34    0.16 
  -1   9   3    0.46    0.15 
   1   9  -3    0.66    0.16 
   0  -9   3   15.94    0.53 
   0   9   3   18.10    0.52 
   1  -9   3   41.99    1.02 
   1   9   3   43.80    0.91 
  -1   9  -3   41.63    1.02 
   1   9   3   43.39    0.99 
   2  -9   3   27.57    0.74 
   2   9   3   26.39    0.64 
   2   9   3   25.91    0.68 
  -2   9  -3   25.75    0.72 
   3  -9   3   53.69    1.31 
  -3   9  -3   57.34    1.29 
   3   9   3   54.29    1.23 
   3   9   3   57.57    1.23 
   4  -9   3    9.83    0.50 
   4   9   3    9.17    0.42 
  -4   9  -3    8.83    0.43 
   5  -9   3   16.81    0.71 
   5   9   3   16.82    0.62 
   6  -9   3    1.08    0.35 
   6   9   3    0.70    0.30 
   7  10  -3   16.22    0.75 
   6  10  -3    0.39    0.29 
  -5  10   3    3.53    0.29 
   5  10  -3    3.24    0.34 
  -4  10   3   69.97    1.54 
   4  10  -3   68.85    1.50 
   4  10  -3   69.09    1.59 
  -3  10   3    8.56    0.39 
   3  10  -3    8.32    0.38 
   3  10  -3    7.62    0.44 
  -2 -10   3   99.12    2.11 
   2  10  -3  100.76    2.12 
  -2  10   3   99.14    2.09 
   2  10  -3  100.29    2.10 
  -1 -10   3    0.54    0.18 
   1  10  -3    0.54    0.20 
   1  10  -3    0.80    0.18 
  -1  10   3    0.42    0.16 
   0 -10   3   33.86    0.86 
   0  10  -3   33.33    0.87 
   0  10   3   34.72    0.85 
   1 -10   3    5.20    0.35 
   1  10   3    5.13    0.32 
  -1  10  -3    5.35    0.34 
   2 -10   3  115.97    2.44 
  -2  10  -3  115.28    2.44 
   2  10   3  116.77    2.34 
   2  10   3  117.04    2.39 
   3 -10   3    9.58    0.49 
  -3  10  -3    9.91    0.46 
   3  10   3   10.15    0.41 
   3  10   3    9.60    0.41 
   4 -10   3    1.71    0.30 
   4  10   3    1.17    0.23 
  -4  10  -3    1.24    0.24 
   5 -10   3   21.88    0.81 
   5  10   3   21.00    0.72 
   6 -10   3    4.73    0.48 
   6  10   3    5.28    0.44 
   7  11  -3    0.75    0.35 
   6  11  -3   46.41    1.25 
   5  11  -3   15.70    0.64 
  -5  11   3   16.36    0.59 
   4  11  -3    7.29    0.48 
   4  11  -3    6.57    0.38 
  -4  11   3    7.28    0.40 
  -3 -11   3    9.50    0.46 
  -3  11   3    8.93    0.42 
   3  11  -3    8.92    0.45 
   3  11  -3    9.06    0.43 
  -2 -11   3  134.62    2.80 
   2  11  -3  138.58    2.80 
  -2  11   3  133.40    2.79 
   2  11  -3  135.11    2.81 
  -1 -11   3   15.72    0.54 
  -1  11   3   15.90    0.53 
   1  11  -3   15.47    0.54 
   1  11  -3   16.37    0.55 
   0 -11   3  190.48    3.82 
   0  11   3  189.84    3.80 
   0  11  -3  189.22    3.84 
   1 -11   3    1.65    0.24 
   1  11   3    2.11    0.23 
  -1  11  -3    1.65    0.23 
   2 -11   3    0.52    0.22 
   2  11   3    0.74    0.19 
  -2  11  -3    0.46    0.20 
   3 -11   3   15.31    0.61 
  -3  11  -3   14.02    0.55 
   3  11   3   14.75    0.49 
   3  11   3   14.14    0.51 
   4 -11   3   35.40    1.01 
   4  11   3   34.29    0.90 
  -4  11  -3   36.18    0.95 
   5 -11   3    1.04    0.33 
   5  11   3    1.56    0.29 
   6 -11   3    2.63    0.43 
   6  11   3    2.35    0.36 
   7  12  -3    5.39    0.50 
   6  12  -3    1.70    0.36 
  -5  12   3    6.72    0.45 
   5  12  -3    6.12    0.52 
   4  12  -3   84.84    1.90 
   4  12  -3   82.64    1.83 
  -4  12   3   85.28    1.86 
  -3 -12   3   53.17    1.28 
   3  12  -3   53.77    1.29 
   3  12  -3   52.80    1.25 
  -3  12   3   51.66    1.25 
  -2 -12   3   17.41    0.61 
   2  12  -3   17.53    0.60 
   2  12  -3   17.33    0.61 
  -2  12   3   17.54    0.59 
  -1 -12   3    0.35    0.19 
   1  12  -3    0.40    0.21 
  -1  12   3   -0.02    0.17 
   1  12  -3    0.17    0.19 
   0 -12   3   29.91    0.81 
   0  12   3   29.02    0.79 
   0  12  -3   28.24    0.82 
   1 -12   3   46.01    1.13 
   1  12   3   45.49    1.11 
  -1  12  -3   47.08    1.15 
   2 -12   3   63.94    1.51 
   2  12   3   65.42    1.46 
  -2  12  -3   65.57    1.51 
   3 -12   3    4.64    0.39 
   3  12   3    5.30    0.38 
  -3  12  -3    5.08    0.42 
   4 -12   3   -0.02    0.27 
   4  12   3    0.02    0.22 
  -4  12  -3    0.18    0.23 
   5 -12   3    2.26    0.37 
   5  12   3    2.32    0.32 
   6 -12   3    5.57    0.52 
   6  12   3    5.26    0.45 
   6  13  -3   10.49    0.63 
   5  13  -3   24.03    0.85 
  -5  13   3   25.04    0.79 
  -4  13   3    7.18    0.47 
   4  13  -3    7.85    0.45 
   4  13  -3    7.14    0.53 
  -3 -13   3    3.28    0.33 
   3  13  -3    2.54    0.32 
  -3  13   3    3.16    0.31 
   3  13  -3    2.99    0.30 
  -2 -13   3    9.30    0.47 
   2  13  -3    9.90    0.48 
  -2  13   3    9.71    0.47 
   2  13  -3    9.77    0.48 
  -1 -13   3  130.38    2.70 
  -1  13   3  125.75    2.69 
   1  13  -3  129.95    2.70 
   1  13  -3  130.81    2.73 
   0 -13   3   10.93    0.50 
   0  13  -3   10.25    0.50 
   0  13   3   11.05    0.48 
   1 -13   3   16.08    0.60 
  -1  13  -3   15.84    0.62 
   1  13   3   16.32    0.57 
   2 -13   3    5.85    0.47 
   2  13   3    5.43    0.40 
  -2  13  -3    5.34    0.44 
   3 -13   3   10.89    0.59 
   3  13   3   13.21    0.51 
  -3  13  -3   12.21    0.57 
   4 -13   3   17.56    0.73 
  -4  13  -3   16.19    0.66 
   5 -13   3    1.98    0.39 
   6  14  -3   12.56    0.72 
  -5  14   3   17.86    0.68 
   5  14  -3   16.47    0.74 
  -4 -14   3   -0.23    0.27 
   4  14  -3    0.52    0.25 
  -4  14   3    0.76    0.25 
   4  14  -3    0.40    0.29 
  -3 -14   3   60.39    1.43 
   3  14  -3   58.78    1.42 
  -3  14   3   58.71    1.43 
   3  14  -3   61.19    1.44 
  -2 -14   3    1.38    0.27 
  -2  14   3    1.49    0.27 
   2  14  -3    1.20    0.28 
   2  14  -3    1.80    0.28 
  -1 -14   3   -0.09    0.22 
   1  14  -3    0.14    0.22 
  -1  14   3    0.14    0.20 
   0 -14   3    2.81    0.31 
   0  14  -3    3.12    0.33 
   0  14   3    2.74    0.30 
   1 -14   3   58.70    1.41 
  -1  14  -3   57.22    1.43 
   1  14   3   61.15    1.40 
   2 -14   3    1.03    0.28 
   2  14   3    0.77    0.23 
  -2  14  -3    1.41    0.29 
   3 -14   3    3.84    0.38 
   3  14   3    3.41    0.31 
  -3  14  -3    3.26    0.35 
   4 -14   3   18.61    0.79 
  -4  14  -3   20.60    0.75 
   5 -14   3    0.13    0.34 
   6  15  -3    2.62    0.44 
   5  15  -3    5.23    0.47 
  -5  15   3    5.98    0.53 
  -4 -15   3    2.26    0.36 
   4  15  -3    2.14    0.35 
  -4  15   3    2.95    0.34 
  -3 -15   3    1.63    0.31 
   3  15  -3    2.01    0.33 
  -3  15   3    1.99    0.31 
   3  15  -3    1.49    0.29 
  -2 -15   3    0.07    0.26 
  -2  15   3    0.22    0.23 
   2  15  -3    0.52    0.27 
   2  15  -3    0.50    0.26 
  -1 -15   3   26.76    0.81 
   1  15  -3   26.49    0.85 
  -1  15   3   25.37    0.81 
   0 -15   3    2.68    0.32 
   0  15   3    2.06    0.30 
   0  15  -3    1.76    0.30 
   1 -15   3    1.40    0.29 
  -1  15  -3    1.39    0.30 
   1  15   3    1.12    0.26 
   2 -15   3   19.86    0.74 
  -2  15  -3   20.97    0.77 
   2  15   3   20.63    0.70 
   3 -15   3    5.45    0.45 
   3  15   3    6.59    0.47 
  -3  15  -3    6.83    0.53 
   4 -15   3    0.10    0.31 
  -4  15  -3    0.19    0.28 
   5 -15   3   -0.65    0.33 
  -5  16   3    0.75    0.31 
   5  16  -3    1.23    0.38 
  -4 -16   3    3.15    0.39 
   4  16  -3    2.16    0.37 
  -4  16   3    2.14    0.34 
  -3 -16   3    0.22    0.28 
  -3  16   3    0.11    0.27 
   3  16  -3    0.16    0.26 
   3  16  -3    0.08    0.29 
  -2 -16   3    0.04    0.25 
   2  16  -3    0.05    0.26 
  -2  16   3    0.00    0.24 
   2  16  -3    0.23    0.29 
  -1 -16   3    2.94    0.33 
  -1  16   3    2.67    0.33 
   1  16  -3    3.18    0.36 
   0 -16   3    2.97    0.34 
   0  16   3    3.74    0.36 
   0  16  -3    2.68    0.36 
   1 -16   3    1.80    0.31 
  -1  16  -3    2.00    0.33 
   1  16   3    2.20    0.32 
   2 -16   3    1.25    0.31 
  -2  16  -3    1.29    0.32 
   2  16   3    0.78    0.28 
   3 -16   3    6.14    0.47 
  -3  16  -3    6.36    0.55 
   3  16   3    6.56    0.50 
   4 -16   3   11.96    0.69 
  -4  16  -3   11.93    0.67 
  -5 -17   3    0.22    0.35 
  -5  17   3    0.34    0.32 
   5  17  -3   -0.11    0.35 
  -4 -17   3    6.52    0.57 
  -4  17   3    5.24    0.45 
   4  17  -3    5.80    0.47 
  -3 -17   3    0.63    0.31 
   3  17  -3    0.66    0.30 
   3  17  -3    0.50    0.32 
  -3  17   3    0.35    0.29 
  -2 -17   3    1.18    0.31 
   2  17  -3    1.76    0.34 
  -2  17   3    1.75    0.34 
   2  17  -3    1.88    0.35 
  -1 -17   3    3.14    0.35 
   1  17  -3    3.24    0.37 
  -1  17   3    2.55    0.35 
   0 -17   3    1.39    0.31 
   0  17   3    1.24    0.30 
   0  17  -3    1.61    0.35 
   1 -17   3   19.41    0.73 
  -1  17  -3   19.19    0.79 
   1  17   3   18.96    0.74 
   2 -17   3    8.33    0.60 
  -2  17  -3    8.62    0.62 
   2  17   3    9.05    0.56 
   3 -17   3    2.10    0.39 
  -3  17  -3    2.23    0.38 
  -4  17  -3    2.34    0.40 
  -4 -18   3   10.74    0.66 
  -4  18   3   10.62    0.67 
   4  18  -3    9.42    0.68 
  -3 -18   3    3.09    0.39 
   3  18  -3    2.87    0.38 
  -3  18   3    3.02    0.39 
   3  18  -3    3.65    0.41 
  -2 -18   3   14.30    0.67 
   2  18  -3   15.80    0.69 
   2  18  -3   14.41    0.73 
  -2  18   3   15.15    0.72 
  -1 -18   3    2.22    0.33 
  -1  18   3    2.24    0.36 
   1  18  -3    1.77    0.37 
   0 -18   3   10.93    0.60 
   0  18   3   10.09    0.61 
   0  18  -3    9.34    0.64 
   1 -18   3    1.50    0.33 
   1  18   3    1.37    0.34 
  -1  18  -3    1.82    0.36 
   2 -18   3    9.29    0.62 
  -2  18  -3    8.86    0.68 
   2  18   3    9.43    0.58 
  -3  18  -3   15.78    0.79 
  -3 -19   3    0.18    0.33 
   3  19  -3    0.08    0.32 
   3  19  -3    0.26    0.36 
  -3  19   3    0.29    0.33 
  -2 -19   3   23.87    0.84 
  -2  19   3   25.17    0.91 
   2  19  -3   24.63    0.93 
  -1 -19   3    1.27    0.32 
  -1  19   3    0.80    0.34 
   1  19  -3    0.38    0.35 
   0 -19   3   28.45    0.92 
   0  19   3   28.89    0.97 
   0  19  -3   29.41    1.02 
   1 -19   3    5.68    0.46 
   1  19   3    6.79    0.58 
  -1  19  -3    5.79    0.51 
  -2  19  -3    1.65    0.40 
   2  19   3    1.94    0.36 
  -2 -20   3   16.85    0.74 
   2  20  -3   15.34    0.80 
  -2  20   3   16.22    0.82 
  -1 -20   3   -0.14    0.31 
   1  20  -3   -0.27    0.34 
  -1  20   3    0.12    0.34 
   0  20   3   17.55    0.82 
   0  20  -3   17.92    0.87 
  -1  20  -3    1.06    0.39 
   1  20   3    1.16    0.36 
   8   0  -4    3.98    0.40 
   7   0  -4    0.36    0.25 
   6   0  -4   59.78    1.38 
   5   0  -4    0.15    0.16 
  -5   0   4   -0.05    0.13 
   4   0  -4  232.59    4.56 
  -4   0   4  234.11    4.56 
   4   0  -4  232.47    4.59 
  -3   0   4   -0.01    0.12 
   3   0  -4    0.07    0.11 
   3   0  -4    0.00    0.11 
   2   0  -4    0.76    0.12 
   2   0  -4    0.37    0.13 
  -2   0   4    0.41    0.11 
  -1   0   4    0.23    0.09 
   1   0  -4    0.19    0.12 
   0   0   4  373.14    7.21 
   0   0  -4  375.78    7.25 
   1   0   4   -0.02    0.10 
  -1   0  -4   -0.11    0.11 
   2   0   4   21.17    0.58 
  -2   0  -4   22.35    0.59 
   3   0   4    0.15    0.16 
  -3   0  -4   -0.01    0.13 
   4   0   4   27.56    0.77 
  -4   0  -4   26.06    0.68 
   5   0   4   -0.06    0.24 
   6   0   4    1.47    0.34 
   7   0   4    0.41    0.35 
   8  -1  -4   14.34    0.68 
   8   1  -4   14.96    0.70 
   7  -1  -4    7.55    0.48 
   7   1  -4    7.61    0.50 
   6  -1  -4   58.33    1.35 
   6   1  -4   59.33    1.38 
   5  -1  -4    0.15    0.17 
   5   1  -4    0.39    0.18 
  -5   1   4    0.23    0.13 
   5   1  -4    0.14    0.19 
   4  -1  -4   23.70    0.61 
   4  -1  -4   24.17    0.62 
  -4  -1   4   23.66    0.60 
   4   1  -4   24.25    0.65 
   4   1  -4   24.08    0.60 
  -4   1   4   23.67    0.61 
   3  -1  -4   29.86    0.70 
   3  -1  -4   29.56    0.72 
   3   1  -4   29.52    0.73 
  -3   1   4   30.11    0.72 
   3   1  -4   30.08    0.72 
   2  -1  -4  303.86    5.95 
   2  -1  -4  318.00    5.99 
  -2  -1   4  301.46    5.98 
   2   1  -4  296.57    5.97 
  -2   1   4  315.60    5.99 
  -2   1   4  306.48    5.95 
   2   1  -4  314.60    5.99 
  -1  -1   4   26.27    0.63 
   1  -1  -4   26.60    0.66 
  -1   1   4   26.69    0.61 
   1   1  -4   26.44    0.66 
   0  -1  -4   23.62    0.63 
   0  -1   4   25.10    0.60 
   0   1  -4   25.04    0.64 
   0   1   4   24.88    0.58 
  -1  -1  -4    5.21    0.27 
   1  -1   4    5.67    0.26 
   1   1   4    5.18    0.24 
  -1   1  -4    4.93    0.27 
  -2  -1  -4  133.93    2.68 
   2  -1   4  130.51    2.68 
   2   1   4  134.10    2.67 
  -2   1  -4  132.98    2.68 
   3  -1   4   23.83    0.65 
  -3  -1  -4   22.79    0.62 
   3   1   4   22.43    0.64 
   3   1   4   23.69    0.61 
  -3   1  -4   23.34    0.62 
  -4  -1  -4    9.21    0.50 
   4  -1   4    9.46    0.47 
  -4   1  -4    8.58    0.37 
   4   1   4    8.68    0.37 
   4   1   4    9.22    0.43 
   5  -1   4   37.33    1.01 
   5   1   4   35.29    0.99 
   6  -1   4    0.83    0.31 
   6   1   4    1.05    0.32 
   7  -1   4    0.52    0.35 
   7   1   4    0.44    0.35 
   8   2  -4   10.61    0.64 
   7  -2  -4   17.51    0.64 
   7   2  -4   18.21    0.70 
   6  -2  -4    3.76    0.33 
   6   2  -4    3.52    0.33 
   5  -2  -4   57.59    1.26 
   5   2  -4   56.32    1.30 
  -5   2   4   55.52    1.21 
   4  -2  -4   67.94    1.42 
   4   2  -4   65.65    1.41 
  -4   2   4   66.46    1.42 
   4   2  -4   67.19    1.46 
   3  -2  -4   14.38    0.40 
   3  -2  -4   13.92    0.43 
  -3   2   4   15.07    0.40 
   3   2  -4   14.47    0.43 
   3   2  -4   13.57    0.45 
  -3   2   4   14.17    0.43 
   2  -2  -4    3.90    0.25 
  -2  -2   4    4.00    0.25 
   2  -2  -4    4.04    0.19 
   2   2  -4    3.97    0.24 
   2   2  -4    3.56    0.25 
  -2   2   4    3.88    0.19 
  -2   2   4    3.73    0.25 
  -1  -2   4   40.58    0.93 
   1  -2  -4   43.10    0.95 
   1   2  -4   41.76    0.95 
  -1   2   4   40.79    0.88 
  -1   2   4   41.55    0.94 
   0  -2   4  122.27    2.50 
   0  -2  -4  122.40    2.52 
   0   2   4  125.28    2.46 
   0   2  -4  125.99    2.53 
   0   2   4  126.50    2.52 
   1  -2   4   61.64    1.31 
  -1  -2  -4   59.41    1.32 
   1   2   4   60.72    1.28 
   1   2   4   60.75    1.31 
  -1   2  -4   62.84    1.33 
  -2  -2  -4    2.42    0.20 
   2  -2   4    3.29    0.25 
  -2   2  -4    2.27    0.20 
   2   2   4    2.43    0.21 
   2   2   4    2.50    0.20 
   3  -2   4   45.17    1.08 
  -3  -2  -4   46.34    1.04 
  -3   2  -4   45.27    1.05 
   3   2   4   45.25    1.06 
   3   2   4   46.45    1.03 
   4  -2   4   35.46    0.93 
  -4   2  -4   34.91    0.84 
   4   2   4   33.82    0.90 
   5  -2   4    0.77    0.26 
   5   2   4    1.16    0.27 
   6  -2   4    1.61    0.35 
   6   2   4    1.53    0.33 
   7  -2   4    4.43    0.48 
   7   2   4    6.06    0.50 
   8   3  -4    3.75    0.43 
   7   3  -4    6.99    0.54 
   6  -3  -4   13.92    0.50 
   6   3  -4   13.72    0.59 
   5  -3  -4    0.20    0.15 
  -5   3   4    0.42    0.15 
   5   3  -4    0.21    0.19 
   4  -3  -4    0.38    0.13 
   4   3  -4    0.14    0.13 
   4   3  -4    0.44    0.17 
  -4   3   4    0.29    0.14 
   3  -3  -4   61.57    1.26 
   3  -3  -4   61.84    1.32 
  -3   3   4   60.03    1.31 
   3   3  -4   60.27    1.34 
  -3   3   4   61.62    1.27 
   3   3  -4   60.28    1.31 
   2  -3  -4   24.91    0.64 
  -2  -3   4   24.83    0.65 
  -2   3   4   25.35    0.56 
  -2   3   4   24.73    0.64 
   2   3  -4   24.83    0.64 
   2   3  -4   25.81    0.65 
  -1  -3   4   85.07    1.78 
   1  -3  -4   87.34    1.79 
  -1   3   4   84.21    1.78 
  -1   3   4   84.43    1.70 
   1   3  -4   88.16    1.80 
   0  -3  -4   35.96    0.87 
   0  -3   4   37.02    0.86 
   0   3  -4   36.81    0.87 
   0   3   4   36.56    0.86 
   0   3   4   37.77    0.79 
   1  -3   4    9.48    0.36 
  -1  -3  -4    8.96    0.36 
  -1   3  -4    9.12    0.37 
   1   3   4    9.27    0.36 
   1   3   4    9.62    0.31 
   2  -3   4   48.24    1.10 
  -2  -3  -4   47.36    1.08 
   2   3   4   48.06    1.07 
  -2   3  -4   47.94    1.09 
   2   3   4   48.66    1.07 
   3  -3   4    3.87    0.33 
  -3  -3  -4    4.40    0.29 
   3   3   4    5.04    0.31 
   3   3   4    4.06    0.29 
  -3   3  -4    4.82    0.31 
   4  -3   4    9.59    0.50 
   4   3   4   11.03    0.47 
  -4   3  -4    9.67    0.41 
   5  -3   4   15.56    0.66 
   5   3   4   15.94    0.62 
   6  -3   4   39.21    1.13 
   6   3   4   38.94    1.11 
   7  -3   4    1.40    0.40 
   7   3   4    0.72    0.35 
   8   4  -4   29.32    1.00 
   7   4  -4    2.49    0.36 
   6   4  -4   26.49    0.83 
   5  -4  -4    0.51    0.16 
   5   4  -4    0.86    0.22 
  -5   4   4    0.65    0.16 
   4  -4  -4   11.38    0.36 
  -4   4   4   11.54    0.39 
   4   4  -4   11.65    0.39 
   4   4  -4   11.11    0.45 
  -3  -4   4    1.75    0.20 
   3  -4  -4    1.95    0.15 
  -3   4   4    1.90    0.18 
  -3   4   4    1.80    0.15 
   3   4  -4    2.15    0.22 
   3   4  -4    1.88    0.18 
   2  -4  -4    1.23    0.16 
  -2  -4   4    0.86    0.17 
  -2   4   4    1.09    0.10 
   2   4  -4    0.89    0.15 
  -2   4   4    1.24    0.16 
   2   4  -4    0.84    0.16 
  -1  -4   4    1.37    0.17 
   1  -4  -4    1.75    0.18 
  -1   4   4    1.43    0.17 
  -1   4   4    1.64    0.12 
   1   4  -4    1.54    0.18 
   0  -4  -4   10.21    0.37 
   0  -4   4   10.82    0.38 
   0   4   4   10.74    0.29 
   0   4  -4   10.38    0.38 
   0   4   4   10.38    0.37 
   1  -4   4    0.18    0.14 
  -1  -4  -4    0.23    0.13 
   1   4   4    0.29    0.14 
  -1   4  -4    0.17    0.13 
   1   4   4    0.29    0.11 
  -2  -4  -4   64.67    1.40 
  -2   4  -4   64.26    1.41 
   2   4   4   63.80    1.37 
   2   4   4   65.20    1.38 
   3  -4   4    6.22    0.38 
  -3  -4  -4    7.01    0.34 
   3   4   4    7.38    0.35 
   3   4   4    6.78    0.33 
  -3   4  -4    6.94    0.36 
   4  -4   4   56.65    1.36 
  -4   4  -4   56.76    1.28 
   4   4   4   56.72    1.31 
   5  -4   4    1.28    0.30 
   5   4   4    1.04    0.26 
   6  -4   4    3.58    0.43 
   6   4   4    3.38    0.38 
   8   5  -4    8.46    0.66 
   7   5  -4   16.21    0.73 
   6   5  -4   13.96    0.62 
   5   5  -4    4.51    0.35 
  -5   5   4    4.39    0.29 
   4   5  -4   42.37    0.97 
  -4   5   4   42.26    0.98 
   4   5  -4   42.55    1.05 
   3  -5  -4   42.75    0.90 
  -3  -5   4   41.94    1.02 
  -3   5   4   42.45    0.98 
   3   5  -4   41.92    0.98 
   3   5  -4   42.58    1.02 
  -3   5   4   43.59    0.94 
  -2  -5   4   -0.06    0.15 
   2   5  -4    0.09    0.15 
   2   5  -4   -0.15    0.12 
  -2   5   4    0.16    0.13 
  -1  -5   4   62.18    1.38 
   1  -5  -4   60.71    1.36 
  -1   5   4   65.64    1.25 
  -1   5   4   63.83    1.36 
   1   5  -4   61.34    1.37 
   0  -5   4   50.34    1.14 
   0  -5  -4   50.54    1.14 
   0   5   4   50.49    1.04 
   0   5   4   51.07    1.13 
   0   5  -4   50.51    1.15 
  -1  -5  -4    0.01    0.13 
   1  -5   4    0.17    0.15 
   1   5   4    0.04    0.13 
   1   5   4    0.33    0.11 
  -1   5  -4    0.25    0.14 
  -2  -5  -4   33.28    0.79 
   2  -5   4   31.58    0.82 
  -2   5  -4   30.76    0.80 
   2   5   4   32.67    0.78 
   2   5   4   31.70    0.76 
   3  -5   4   17.19    0.57 
   3   5   4   16.55    0.52 
   3   5   4   16.74    0.50 
  -3   5  -4   16.79    0.53 
   4  -5   4   21.51    0.71 
  -4   5  -4   22.44    0.65 
   4   5   4   21.76    0.66 
   5  -5   4    2.56    0.35 
   5   5   4    1.76    0.29 
   6  -5   4   38.88    1.13 
   6   5   4   36.07    1.05 
   8   6  -4    7.88    0.68 
   7   6  -4    1.89    0.36 
   6   6  -4    7.98    0.51 
   5   6  -4   47.55    1.16 
  -5   6   4   44.89    1.06 
   4   6  -4   11.99    0.50 
  -4   6   4   12.23    0.43 
   4   6  -4   12.18    0.42 
  -3  -6   4   57.72    1.31 
   3   6  -4   56.88    1.30 
   3   6  -4   57.57    1.26 
  -3   6   4   56.21    1.26 
  -2  -6   4    0.48    0.17 
   2   6  -4    0.19    0.16 
   2   6  -4    0.19    0.14 
  -2   6   4    0.43    0.15 
  -1  -6   4   27.08    0.74 
   1   6  -4   28.47    0.73 
  -1   6   4   28.99    0.58 
  -1   6   4   27.41    0.71 
   0   6   4   28.82    0.73 
   0   6   4   29.47    0.62 
   0   6  -4   28.07    0.75 
   1  -6   4  103.46    2.19 
   1   6   4  103.57    2.16 
   1   6   4  107.92    2.10 
  -1   6  -4  104.70    2.19 
   2  -6   4   18.73    0.60 
  -2   6  -4   18.86    0.58 
   2   6   4   19.13    0.52 
   2   6   4   18.96    0.54 
   3  -6   4    8.83    0.45 
   3   6   4    8.71    0.38 
   3   6   4    8.66    0.37 
  -3   6  -4    8.44    0.40 
   4  -6   4   33.71    0.94 
  -4   6  -4   34.10    0.87 
   4   6   4   33.40    0.88 
   5  -6   4    7.53    0.54 
   5   6   4    6.21    0.47 
   6  -6   4    0.89    0.37 
   6   6   4    1.07    0.32 
   8   7  -4    2.74    0.43 
   7   7  -4   12.52    0.69 
   6   7  -4   24.01    0.81 
  -5   7   4    3.36    0.30 
   5   7  -4    3.49    0.33 
   4   7  -4   12.13    0.43 
   4   7  -4   12.21    0.52 
  -4   7   4   12.26    0.45 
  -3  -7   4   91.71    1.98 
  -3   7   4   90.64    1.93 
   3   7  -4   91.47    1.93 
   3   7  -4   93.04    1.98 
  -2  -7   4  155.08    3.19 
   2   7  -4  157.60    3.19 
   2   7  -4  159.20    3.17 
  -2   7   4  155.63    3.16 
  -1  -7   4  165.07    3.38 
  -1   7   4  165.47    3.35 
   1   7  -4  171.90    3.38 
   0  -7   4    0.98    0.19 
   0   7   4    0.89    0.10 
   0   7  -4    0.39    0.16 
   0   7   4    0.67    0.17 
   1  -7   4    0.19    0.17 
   1   7   4   -0.04    0.14 
  -1   7  -4    0.29    0.16 
   1   7   4    0.13    0.11 
   2  -7   4   42.34    1.06 
   2   7   4   44.71    0.98 
  -2   7  -4   44.01    1.06 
   2   7   4   43.39    1.01 
   3  -7   4   48.12    1.17 
   3   7   4   46.87    1.08 
  -3   7  -4   44.65    1.11 
   3   7   4   46.90    1.07 
   4  -7   4    0.49    0.27 
  -4   7  -4    0.29    0.19 
   4   7   4    0.44    0.22 
   5  -7   4    8.24    0.61 
   5   7   4    9.11    0.50 
   6  -7   4    5.69    0.51 
   6   7   4    5.04    0.43 
   7   8  -4    1.55    0.37 
   6   8  -4   31.62    0.96 
  -5   8   4   38.36    0.96 
   5   8  -4   39.77    1.06 
   4   8  -4  104.45    2.24 
  -4   8   4  102.90    2.18 
   4   8  -4  104.47    2.16 
  -3  -8   4   34.77    0.92 
  -3   8   4   34.27    0.88 
   3   8  -4   36.54    0.94 
   3   8  -4   36.61    0.89 
  -2  -8   4   11.06    0.48 
   2   8  -4   12.46    0.49 
   2   8  -4   11.26    0.44 
  -2   8   4   10.25    0.42 
  -1  -8   4   50.31    1.20 
   1   8  -4   51.84    1.19 
  -1   8   4   50.89    1.17 
   0  -8   4  147.54    3.07 
   0   8   4  151.94    3.05 
   0   8  -4  152.43    3.08 
   1  -8   4   65.86    1.48 
   1   8   4   65.93    1.35 
  -1   8  -4   64.87    1.48 
   1   8   4   66.98    1.45 
   2  -8   4   12.96    0.52 
   2   8   4   12.95    0.46 
   2   8   4   12.84    0.41 
  -2   8  -4   12.72    0.50 
   3  -8   4    1.21    0.27 
  -3   8  -4    0.95    0.22 
   3   8   4    1.45    0.21 
   3   8   4    1.40    0.21 
   4  -8   4   10.27    0.56 
  -4   8  -4   10.44    0.48 
   4   8   4   10.21    0.46 
   5  -8   4    7.45    0.61 
   5   8   4    8.46    0.49 
   6  -8   4    0.78    0.39 
   6   8   4    0.64    0.31 
   7   9  -4    1.14    0.37 
   6   9  -4   26.74    0.89 
   5   9  -4    1.84    0.31 
  -5   9   4    2.03    0.25 
   4   9  -4   26.69    0.79 
  -4   9   4   24.12    0.71 
   4   9  -4   25.04    0.70 
  -3  -9   4    7.48    0.43 
   3   9  -4    6.92    0.42 
   3   9  -4    7.27    0.38 
  -3   9   4    6.25    0.37 
  -2  -9   4  134.08    2.83 
  -2   9   4  141.09    2.80 
   2   9  -4  137.57    2.81 
   2   9  -4  132.39    2.82 
  -1  -9   4    0.30    0.19 
  -1   9   4    0.06    0.16 
   1   9  -4    0.07    0.17 
   0  -9   4   10.74    0.46 
   0   9  -4   10.54    0.46 
   0   9   4   10.04    0.43 
   1  -9   4   21.02    0.66 
  -1   9  -4   20.03    0.64 
   1   9   4   20.74    0.61 
   2  -9   4   54.30    1.27 
   2   9   4   50.40    1.14 
  -2   9  -4   52.17    1.24 
   2   9   4   51.69    1.19 
   3  -9   4    7.83    0.49 
  -3   9  -4    8.08    0.45 
   3   9   4    7.36    0.37 
   3   9   4    7.40    0.39 
   4  -9   4    9.95    0.59 
   4   9   4    9.41    0.47 
  -4   9  -4   10.21    0.50 
   5  -9   4    2.61    0.39 
   5   9   4    2.61    0.33 
   6  -9   4    0.47    0.39 
   6   9   4   -0.20    0.30 
   7  10  -4   11.25    0.71 
   6  10  -4   17.40    0.73 
  -5  10   4    5.83    0.41 
   5  10  -4    5.16    0.42 
   4  10  -4   68.00    1.59 
   4  10  -4   65.61    1.50 
  -4  10   4   67.91    1.52 
  -3 -10   4    0.30    0.22 
   3  10  -4    0.52    0.23 
  -3  10   4    0.28    0.18 
   3  10  -4    0.50    0.20 
  -2 -10   4    0.30    0.22 
   2  10  -4    0.20    0.18 
   2  10  -4    0.07    0.21 
  -2  10   4    0.18    0.18 
  -1 -10   4    0.00    0.20 
  -1  10   4    0.09    0.18 
   1  10  -4   -0.04    0.18 
   0 -10   4   90.54    1.97 
   0  10   4   89.98    1.94 
   0  10  -4   90.87    1.98 
   1 -10   4    7.18    0.45 
   1  10   4    6.02    0.38 
  -1  10  -4    6.24    0.41 
   2 -10   4    8.18    0.50 
  -2  10  -4    9.22    0.47 
   2  10   4    8.24    0.42 
   3 -10   4   15.73    0.67 
  -3  10  -4   16.67    0.62 
   3  10   4   16.40    0.56 
   4 -10   4    6.20    0.56 
  -4  10  -4    6.09    0.46 
   4  10   4    6.93    0.43 
   5 -10   4    3.92    0.45 
   5  10   4    4.05    0.37 
   6 -10   4   -0.03    0.38 
   6  10   4    0.43    0.31 
   7  11  -4    1.14    0.39 
   6  11  -4    5.37    0.47 
  -5  11   4    6.00    0.44 
   5  11  -4    5.47    0.44 
  -4 -11   4    2.12    0.31 
  -4  11   4    2.29    0.28 
   4  11  -4    2.30    0.33 
   4  11  -4    2.60    0.27 
  -3 -11   4   11.49    0.55 
  -3  11   4   10.26    0.48 
   3  11  -4   10.59    0.55 
   3  11  -4    9.94    0.49 
  -2 -11   4   27.50    0.81 
   2  11  -4   27.00    0.79 
   2  11  -4   28.01    0.81 
  -2  11   4   27.00    0.77 
  -1 -11   4    6.40    0.44 
   1  11  -4    6.10    0.41 
  -1  11   4    6.48    0.40 
   0 -11   4    2.99    0.30 
   0  11   4    2.46    0.27 
   0  11  -4    3.11    0.30 
   1 -11   4    7.66    0.46 
  -1  11  -4    7.28    0.45 
   1  11   4    8.18    0.43 
   2 -11   4   42.04    1.11 
   2  11   4   41.97    1.03 
  -2  11  -4   40.54    1.09 
   3 -11   4    2.11    0.34 
  -3  11  -4    2.84    0.31 
   3  11   4    3.17    0.29 
   4 -11   4    5.69    0.47 
  -4  11  -4    6.66    0.49 
   5 -11   4   27.28    0.98 
   6  12  -4    4.24    0.45 
  -5  12   4    2.58    0.31 
   5  12  -4    2.54    0.38 
  -4 -12   4    0.14    0.26 
  -4  12   4    0.07    0.22 
   4  12  -4    0.31    0.28 
   4  12  -4   -0.19    0.21 
  -3 -12   4    0.17    0.24 
  -3  12   4    0.17    0.21 
   3  12  -4    0.07    0.21 
   3  12  -4    0.18    0.25 
  -2 -12   4    3.23    0.33 
   2  12  -4    2.55    0.31 
  -2  12   4    2.77    0.29 
   2  12  -4    3.19    0.31 
  -1 -12   4    0.95    0.26 
  -1  12   4    0.84    0.23 
   1  12  -4    0.59    0.23 
   0 -12   4    6.64    0.46 
   0  12   4    6.04    0.40 
   0  12  -4    6.40    0.46 
   1 -12   4    0.74    0.26 
  -1  12  -4    0.58    0.24 
   1  12   4    1.32    0.25 
   2 -12   4   17.69    0.69 
   2  12   4   17.54    0.62 
  -2  12  -4   19.08    0.69 
   3 -12   4   43.24    1.21 
   3  12   4   46.23    1.12 
  -3  12  -4   46.10    1.20 
   4 -12   4   20.90    0.84 
  -4  12  -4   20.62    0.76 
   5 -12   4    0.96    0.38 
   6  13  -4    0.74    0.37 
  -5 -13   4    6.60    0.58 
  -5  13   4    6.80    0.49 
   5  13  -4    6.23    0.49 
  -4 -13   4    4.22    0.40 
  -4  13   4    3.83    0.35 
   4  13  -4    3.81    0.35 
   4  13  -4    3.75    0.40 
  -3 -13   4    2.23    0.33 
  -3  13   4    2.24    0.30 
   3  13  -4    2.08    0.29 
   3  13  -4    2.38    0.34 
  -2 -13   4    3.41    0.34 
   2  13  -4    3.36    0.35 
  -2  13   4    2.67    0.30 
   2  13  -4    3.60    0.35 
  -1 -13   4   11.93    0.57 
  -1  13   4   11.46    0.53 
   1  13  -4   11.16    0.57 
   0 -13   4   15.46    0.65 
   0  13   4   17.10    0.62 
   0  13  -4   16.37    0.66 
   1 -13   4   10.52    0.57 
  -1  13  -4   11.35    0.57 
   1  13   4   10.14    0.52 
   2 -13   4    2.46    0.37 
   2  13   4    2.39    0.29 
  -2  13  -4    1.87    0.32 
   3 -13   4   13.56    0.70 
  -3  13  -4   13.27    0.66 
   3  13   4   13.71    0.57 
   4 -13   4    8.32    0.66 
  -4  13  -4    8.89    0.58 
   5 -13   4    1.76    0.42 
   6  14  -4    5.94    0.53 
  -5 -14   4   24.58    0.91 
  -5  14   4   22.50    0.80 
   5  14  -4   22.97    0.89 
  -4 -14   4   -0.31    0.30 
  -4  14   4    0.42    0.27 
   4  14  -4   -0.01    0.30 
   4  14  -4    0.22    0.26 
  -3 -14   4   16.87    0.69 
   3  14  -4   16.64    0.69 
  -3  14   4   16.80    0.67 
   3  14  -4   17.36    0.69 
  -2 -14   4    2.37    0.34 
   2  14  -4    2.27    0.33 
   2  14  -4    1.86    0.33 
  -2  14   4    2.24    0.30 
  -1 -14   4   11.80    0.59 
   1  14  -4   11.92    0.60 
  -1  14   4   11.51    0.57 
   0 -14   4    1.91    0.32 
   0  14   4    2.35    0.31 
   0  14  -4    1.87    0.32 
   1 -14   4   48.20    1.24 
  -1  14  -4   45.99    1.26 
   1  14   4   47.25    1.20 
   2 -14   4   28.27    0.94 
   2  14   4   29.66    0.87 
  -2  14  -4   29.89    0.94 
   3 -14   4    0.28    0.34 
   3  14   4    0.16    0.25 
  -3  14  -4   -0.01    0.28 
   4 -14   4    7.76    0.66 
  -4  14  -4    7.11    0.59 
  -5 -15   4    1.84    0.41 
   5  15  -4    2.72    0.42 
  -5  15   4    1.52    0.33 
  -4 -15   4    1.67    0.37 
   4  15  -4    0.96    0.35 
   4  15  -4    1.75    0.34 
  -4  15   4    1.02    0.31 
  -3 -15   4   54.06    1.40 
   3  15  -4   55.23    1.41 
   3  15  -4   55.61    1.40 
  -3  15   4   52.90    1.37 
  -2 -15   4    3.23    0.37 
  -2  15   4    2.38    0.34 
   2  15  -4    3.06    0.37 
   2  15  -4    2.13    0.34 
  -1 -15   4   55.62    1.39 
  -1  15   4   57.52    1.40 
   1  15  -4   54.88    1.44 
   0 -15   4    7.08    0.55 
   0  15  -4    9.26    0.59 
   0  15   4    7.75    0.53 
   1 -15   4    2.15    0.35 
   1  15   4    2.00    0.32 
  -1  15  -4    1.80    0.34 
   2 -15   4    1.70    0.37 
   2  15   4    1.95    0.32 
  -2  15  -4    2.06    0.36 
   3 -15   4   20.93    0.86 
   3  15   4   21.45    0.83 
  -3  15  -4   22.16    0.85 
   4 -15   4    3.36    0.47 
  -4  15  -4    4.51    0.44 
  -5 -16   4   35.29    1.15 
  -5  16   4   36.03    1.09 
   5  16  -4   35.80    1.15 
  -4 -16   4   11.29    0.70 
   4  16  -4   10.82    0.70 
  -4  16   4    9.84    0.62 
  -3 -16   4   29.55    0.97 
  -3  16   4   29.87    0.95 
   3  16  -4   27.12    0.95 
   3  16  -4   29.94    0.97 
  -2 -16   4    0.28    0.31 
   2  16  -4    0.45    0.31 
  -2  16   4    0.25    0.28 
   2  16  -4    0.75    0.32 
  -1 -16   4   24.76    0.84 
  -1  16   4   24.79    0.84 
   1  16  -4   25.22    0.90 
   0 -16   4   12.88    0.64 
   0  16  -4   13.14    0.70 
   0  16   4   11.95    0.63 
   1 -16   4   44.87    1.20 
   1  16   4   42.16    1.16 
  -1  16  -4   41.47    1.22 
   2 -16   4   -0.36    0.31 
  -2  16  -4    0.02    0.32 
   2  16   4    0.09    0.27 
   3 -16   4    0.07    0.36 
  -3  16  -4   -0.03    0.31 
  -4 -17   4    9.52    0.66 
  -4  17   4    9.61    0.66 
   4  17  -4    9.19    0.66 
  -3 -17   4   15.11    0.73 
  -3  17   4   14.37    0.72 
   3  17  -4   15.09    0.75 
   3  17  -4   13.06    0.71 
  -2 -17   4   30.42    0.97 
  -2  17   4   31.89    1.00 
   2  17  -4   30.16    1.02 
  -1 -17   4   16.02    0.72 
  -1  17   4   17.22    0.74 
   1  17  -4   15.94    0.77 
   0 -17   4    0.95    0.32 
   0  17   4    0.65    0.31 
   0  17  -4    0.52    0.34 
   1 -17   4    7.59    0.61 
   1  17   4    8.35    0.58 
  -1  17  -4    7.38    0.56 
   2 -17   4    3.43    0.42 
   2  17   4    3.49    0.39 
  -2  17  -4    3.10    0.44 
   3 -17   4   10.09    0.72 
  -3  17  -4   10.59    0.73 
  -4 -18   4   16.28    0.80 
   4  18  -4   14.89    0.80 
  -4  18   4   16.04    0.79 
  -3 -18   4    1.97    0.40 
  -3  18   4    1.22    0.37 
   3  18  -4    0.38    0.34 
   3  18  -4    1.85    0.41 
  -2 -18   4    1.44    0.36 
   2  18  -4    1.26    0.39 
  -2  18   4    1.99    0.38 
  -1 -18   4    7.63    0.61 
   1  18  -4    8.39    0.69 
  -1  18   4    9.25    0.64 
   0 -18   4   18.65    0.77 
   0  18   4   17.26    0.79 
   0  18  -4   18.46    0.85 
   1 -18   4    0.89    0.36 
  -1  18  -4    1.20    0.40 
   1  18   4    1.87    0.38 
   2 -18   4    2.81    0.43 
  -2  18  -4    3.78    0.48 
   2  18   4    2.29    0.38 
  -3 -19   4    0.18    0.34 
   3  19  -4    0.56    0.39 
   3  19  -4   -0.28    0.34 
  -3  19   4    0.23    0.34 
  -2 -19   4    3.51    0.43 
  -2  19   4    3.48    0.45 
   2  19  -4    3.84    0.48 
  -1 -19   4    1.01    0.35 
   1  19  -4    1.07    0.39 
  -1  19   4    0.37    0.35 
   0 -19   4    0.62    0.34 
   0  19   4    0.53    0.35 
   0  19  -4    0.54    0.38 
   1 -19   4   12.01    0.72 
   1  19   4   13.49    0.73 
  -1  19  -4   12.00    0.81 
   7   0  -5   26.73    0.85 
   6   0  -5   -0.19    0.22 
   5   0  -5    0.61    0.17 
  -5   0   5    0.45    0.17 
   5   0  -5    0.40    0.19 
  -4   0   5    0.14    0.16 
   4   0  -5    0.29    0.16 
   4   0  -5    0.01    0.15 
  -4   0   5   -0.07    0.15 
  -3   0   5    0.31    0.14 
   3   0  -5   -0.06    0.14 
  -3   0   5   -0.16    0.15 
   3   0  -5    0.19    0.14 
   2   0  -5    0.00    0.15 
  -2   0   5    0.08    0.12 
   1   0  -5    0.61    0.17 
  -1   0   5    0.36    0.13 
   0   0   5    0.09    0.13 
   0   0  -5   -0.01    0.15 
   1   0   5   75.85    1.61 
  -1   0  -5   76.55    1.66 
  -2   0  -5    0.17    0.17 
   2   0   5    0.21    0.17 
  -3   0  -5   52.86    1.26 
   3   0   5   57.79    1.30 
   4   0   5    0.12    0.23 
   5   0   5    8.51    0.58 
   6   0   5    0.22    0.34 
   8   1  -5    1.12    0.35 
   7   1  -5   16.46    0.69 
   6  -1  -5    1.21    0.25 
   6   1  -5    1.69    0.28 
  -5  -1   5    6.98    0.36 
   5  -1  -5    8.09    0.40 
   5   1  -5    7.33    0.36 
  -5   1   5    7.63    0.37 
   5   1  -5    8.43    0.43 
   4  -1  -5   27.80    0.70 
   4  -1  -5   26.17    0.70 
  -4  -1   5   26.35    0.70 
  -4  -1   5   25.88    0.72 
   4   1  -5   26.20    0.70 
  -4   1   5   27.39    0.71 
   4   1  -5   26.23    0.72 
  -4   1   5   26.88    0.70 
   3  -1  -5    1.10    0.18 
   3  -1  -5    0.84    0.15 
  -3  -1   5    1.15    0.18 
  -3   1   5    0.90    0.16 
   3   1  -5    0.96    0.18 
   3   1  -5    0.97    0.17 
  -3   1   5    1.09    0.19 
  -2  -1   5   33.03    0.80 
   2  -1  -5   34.16    0.84 
   2   1  -5   33.46    0.84 
  -2   1   5   32.55    0.77 
  -2   1   5   32.47    0.83 
   1  -1  -5   15.23    0.51 
  -1  -1   5   15.43    0.47 
  -1   1   5   16.11    0.52 
  -1   1   5   16.59    0.44 
   1   1  -5   14.74    0.51 
   0  -1  -5   -0.01    0.15 
   0  -1   5    0.20    0.14 
   0   1   5    0.19    0.12 
   0   1  -5    0.48    0.17 
  -1  -1  -5   37.08    0.92 
   1  -1   5   36.86    0.89 
   1   1   5   37.35    0.87 
  -1   1  -5   37.93    0.93 
   2  -1   5   12.62    0.47 
  -2  -1  -5   13.48    0.48 
   2   1   5   12.64    0.48 
  -2   1  -5   12.76    0.47 
   2   1   5   11.72    0.45 
   3  -1   5   22.64    0.69 
  -3  -1  -5   22.61    0.66 
   3   1   5   24.03    0.69 
  -3   1  -5   22.55    0.66 
   3   1   5   21.65    0.66 
   4  -1   5    6.52    0.49 
   4   1   5    7.26    0.47 
   5  -1   5   28.45    0.92 
   5   1   5   29.84    0.91 
   6  -1   5   -0.12    0.32 
   6   1   5   -0.11    0.33 
   8   2  -5    6.12    0.50 
   7   2  -5    0.49    0.30 
   6   2  -5   44.53    1.15 
   5  -2  -5   27.00    0.71 
  -5  -2   5   24.91    0.70 
   5   2  -5   25.00    0.68 
  -5   2   5   26.93    0.70 
   5   2  -5   25.08    0.75 
  -4  -2   5   11.67    0.47 
  -4  -2   5   11.13    0.43 
   4  -2  -5   11.59    0.40 
   4  -2  -5   11.39    0.44 
   4   2  -5   11.52    0.46 
   4   2  -5   11.34    0.43 
  -4   2   5   11.36    0.41 
  -4   2   5   12.06    0.44 
  -3  -2   5    0.22    0.16 
   3  -2  -5    0.16    0.16 
   3  -2  -5    0.39    0.13 
   3   2  -5    0.18    0.15 
  -3   2   5    0.03    0.12 
   3   2  -5    0.06    0.16 
  -3   2   5    0.22    0.16 
   2  -2  -5   27.90    0.74 
  -2  -2   5   26.51    0.71 
  -2   2   5   28.78    0.74 
   2   2  -5   27.98    0.74 
   2   2  -5   27.35    0.71 
  -2   2   5   28.52    0.66 
  -1  -2   5   53.28    1.20 
   1  -2  -5   53.13    1.23 
  -1   2   5   54.79    1.23 
   1   2  -5   55.23    1.24 
  -1   2   5   54.36    1.14 
   0  -2  -5  112.38    2.33 
   0  -2   5  108.16    2.29 
   0   2  -5  109.87    2.33 
   0   2   5  116.19    2.33 
   0   2   5  112.93    2.25 
  -1  -2  -5    4.14    0.33 
   1  -2   5    4.88    0.31 
  -1   2  -5    5.29    0.34 
   1   2   5    4.35    0.34 
   1   2   5    4.54    0.26 
   2  -2   5   16.75    0.56 
  -2  -2  -5   17.00    0.55 
   2   2   5   16.74    0.52 
   2   2   5   17.39    0.55 
  -2   2  -5   17.09    0.56 
  -3  -2  -5   32.91    0.87 
   3  -2   5   35.70    0.93 
   3   2   5   36.32    0.90 
   3   2   5   33.29    0.87 
  -3   2  -5   35.07    0.89 
   4  -2   5    4.18    0.37 
  -4   2  -5    3.80    0.35 
   4   2   5    4.20    0.34 
   5  -2   5    1.12    0.32 
   5   2   5    1.77    0.32 
   6  -2   5   15.63    0.79 
   6   2   5   17.63    0.76 
   8   3  -5   10.10    0.68 
   7   3  -5   14.26    0.69 
   6   3  -5    1.27    0.29 
  -5   3   5   12.56    0.46 
   5   3  -5   12.56    0.54 
   5   3  -5   11.48    0.47 
   4  -3  -5   34.49    0.96 
  -4  -3   5   33.15    0.89 
   4   3  -5   34.84    0.89 
  -4   3   5   34.17    0.85 
   4   3  -5   33.62    0.85 
  -3  -3   5  163.58    3.36 
   3  -3  -5  163.51    3.26 
   3  -3  -5  164.99    3.35 
  -3   3   5  167.91    3.27 
   3   3  -5  166.21    3.36 
  -3   3   5  169.51    3.35 
   3   3  -5  167.00    3.35 
   2  -3  -5   60.34    1.34 
  -2  -3   5   57.71    1.33 
   2   3  -5   58.64    1.32 
  -2   3   5   59.94    1.34 
   2   3  -5   60.19    1.34 
  -2   3   5   60.93    1.24 
  -1  -3   5    4.91    0.31 
   1  -3  -5    4.73    0.32 
  -1   3   5    4.28    0.32 
  -1   3   5    4.91    0.22 
   1   3  -5    4.42    0.33 
   0  -3  -5    0.13    0.16 
   0  -3   5    0.57    0.17 
   0   3   5    0.12    0.17 
   0   3   5    0.33    0.12 
   0   3  -5    0.42    0.18 
  -1  -3  -5   84.63    1.80 
   1  -3   5   85.89    1.79 
   1   3   5   83.42    1.78 
  -1   3  -5   81.74    1.81 
   1   3   5   82.06    1.72 
   2  -3   5   29.13    0.80 
  -2  -3  -5   29.40    0.79 
   2   3   5   29.88    0.75 
  -2   3  -5   30.01    0.81 
   2   3   5   30.39    0.78 
  -3  -3  -5    0.86    0.20 
   3  -3   5    0.67    0.24 
   3   3   5    1.43    0.22 
   3   3   5    1.27    0.23 
  -3   3  -5    1.02    0.21 
   4  -3   5   15.40    0.64 
   4   3   5   15.08    0.59 
  -4   3  -5   13.93    0.53 
   5  -3   5   10.58    0.63 
   5   3   5   10.36    0.57 
   6  -3   5    1.98    0.42 
   6   3   5    1.18    0.36 
   8   4  -5    1.00    0.37 
   7   4  -5   28.19    0.92 
   6   4  -5    5.20    0.41 
  -5   4   5  129.46    2.67 
   5   4  -5  131.76    2.75 
  -4  -4   5    7.27    0.43 
   4   4  -5    7.48    0.37 
  -4   4   5    7.23    0.38 
   4   4  -5    6.96    0.42 
   3  -4  -5    9.19    0.40 
  -3  -4   5    9.13    0.44 
  -3   4   5    8.69    0.41 
   3   4  -5    9.81    0.43 
   3   4  -5    9.36    0.41 
   2  -4  -5    5.25    0.33 
  -2  -4   5    4.71    0.34 
  -2   4   5    4.91    0.34 
   2   4  -5    5.24    0.33 
  -2   4   5    5.41    0.22 
   2   4  -5    4.78    0.34 
   1  -4  -5  284.15    5.63 
  -1  -4   5  284.48    5.63 
  -1   4   5  280.75    5.62 
   1   4  -5  287.61    5.64 
  -1   4   5  292.73    5.51 
   0  -4  -5   41.61    1.00 
   0  -4   5   40.73    0.99 
   0   4   5   41.18    0.99 
   0   4  -5   40.96    1.01 
   0   4   5   40.70    0.89 
   1  -4   5   37.93    0.94 
  -1  -4  -5   37.51    0.94 
   1   4   5   37.56    0.86 
  -1   4  -5   37.11    0.95 
   1   4   5   38.63    0.94 
   2  -4   5    0.28    0.20 
  -2  -4  -5    0.04    0.17 
   2   4   5   -0.22    0.15 
  -2   4  -5    0.17    0.18 
   2   4   5    0.12    0.18 
  -3  -4  -5   31.89    0.83 
   3  -4   5   33.02    0.91 
   3   4   5   30.25    0.82 
  -3   4  -5   32.57    0.86 
   3   4   5   31.35    0.82 
   4  -4   5    0.28    0.26 
  -4   4  -5    0.55    0.21 
   4   4   5    0.68    0.25 
   5  -4   5    4.51    0.44 
   5   4   5    3.83    0.38 
   6  -4   5   -0.41    0.36 
   6   4   5    0.31    0.33 
   7   5  -5   20.31    0.80 
   6   5  -5    2.71    0.36 
  -5   5   5   32.48    0.84 
   5   5  -5   32.37    0.92 
  -4  -5   5    0.77    0.23 
   4   5  -5    1.17    0.20 
   4   5  -5    1.08    0.25 
  -4   5   5    1.00    0.20 
  -3  -5   5  167.74    3.47 
   3   5  -5  170.67    3.44 
   3   5  -5  170.40    3.46 
  -3   5   5  171.85    3.44 
  -2  -5   5    0.45    0.18 
   2   5  -5    0.13    0.16 
  -2   5   5    0.40    0.17 
   2   5  -5    0.10    0.17 
   1  -5  -5    2.58    0.25 
  -1  -5   5    3.36    0.28 
   1   5  -5    3.07    0.27 
  -1   5   5    3.01    0.26 
   0  -5   5    5.61    0.36 
   0  -5  -5    5.59    0.35 
   0   5   5    5.63    0.36 
   0   5  -5    5.65    0.37 
   0   5   5    5.72    0.24 
   1  -5   5   93.05    1.99 
  -1  -5  -5   92.78    1.98 
  -1   5  -5   91.69    2.00 
   1   5   5   90.63    1.96 
   1   5   5   94.49    1.89 
  -2  -5  -5    0.81    0.21 
   2  -5   5    1.04    0.23 
   2   5   5    0.98    0.21 
   2   5   5    1.47    0.19 
  -2   5  -5    1.15    0.22 
   3  -5   5   21.29    0.72 
  -3   5  -5   21.82    0.69 
   3   5   5   22.56    0.66 
   3   5   5   22.40    0.66 
   4  -5   5    9.42    0.58 
   4   5   5    9.59    0.48 
  -4   5  -5    9.25    0.47 
   5  -5   5    3.25    0.41 
   5   5   5    3.58    0.37 
   6  -5   5    3.71    0.48 
   6   5   5    3.71    0.43 
   7   6  -5    5.18    0.47 
   6   6  -5   15.04    0.68 
   5   6  -5   44.68    1.18 
  -5   6   5   45.44    1.09 
  -4  -6   5    7.08    0.45 
   4   6  -5    6.09    0.38 
  -4   6   5    6.13    0.37 
   4   6  -5    6.48    0.43 
  -3  -6   5   14.18    0.57 
   3   6  -5   13.81    0.52 
   3   6  -5   15.51    0.56 
  -3   6   5   14.04    0.52 
  -2  -6   5    1.68    0.24 
   2   6  -5    1.91    0.24 
  -2   6   5    2.13    0.23 
   2   6  -5    2.05    0.23 
  -1  -6   5   72.98    1.61 
  -1   6   5   73.04    1.59 
   1   6  -5   71.03    1.61 
   0  -6   5   61.08    1.41 
   0   6   5   64.15    1.41 
   0   6  -5   61.23    1.42 
   1  -6   5    0.21    0.20 
   1   6   5   -0.04    0.18 
  -1   6  -5    0.24    0.19 
   1   6   5    0.28    0.13 
   2  -6   5   36.60    0.98 
   2   6   5   38.37    0.89 
  -2   6  -5   37.61    0.97 
   2   6   5   35.25    0.92 
   3  -6   5   19.30    0.67 
   3   6   5   18.18    0.59 
  -3   6  -5   17.56    0.63 
   3   6   5   17.73    0.57 
   4  -6   5    1.67    0.33 
  -4   6  -5    0.94    0.24 
   4   6   5    1.70    0.27 
   5  -6   5    0.30    0.35 
   5   6   5    0.45    0.28 
   6  -6   5    8.03    0.68 
   6   6   5    7.94    0.59 
   7   7  -5   10.52    0.67 
   6   7  -5    5.36    0.45 
   5   7  -5    0.32    0.27 
  -5   7   5    0.08    0.19 
  -4  -7   5    8.21    0.50 
   4   7  -5    7.90    0.50 
  -4   7   5    7.44    0.41 
   4   7  -5    7.97    0.42 
  -3  -7   5   39.79    1.06 
   3   7  -5   40.30    1.01 
  -3   7   5   40.45    1.01 
   3   7  -5   40.97    1.05 
  -2  -7   5   33.24    0.91 
  -2   7   5   34.01    0.88 
   2   7  -5   33.21    0.88 
   2   7  -5   33.48    0.89 
  -1  -7   5    0.28    0.20 
  -1   7   5    0.27    0.18 
   1   7  -5    0.37    0.19 
   0  -7   5    5.31    0.40 
   0   7  -5    5.15    0.37 
   0   7   5    4.85    0.36 
   1  -7   5   29.28    0.84 
   1   7   5   29.37    0.79 
  -1   7  -5   29.38    0.83 
   2  -7   5    9.49    0.51 
  -2   7  -5    9.17    0.47 
   2   7   5    8.41    0.36 
   2   7   5    8.20    0.43 
   3  -7   5    2.97    0.34 
   3   7   5    2.75    0.26 
  -3   7  -5    2.77    0.30 
   3   7   5    2.94    0.28 
   4  -7   5   24.10    0.86 
  -4   7  -5   23.77    0.75 
   4   7   5   23.21    0.74 
   5  -7   5   16.58    0.81 
   5   7   5   17.32    0.67 
   7   8  -5   12.31    0.69 
   6   8  -5    0.12    0.30 
   5   8  -5    0.28    0.28 
  -5   8   5    0.46    0.21 
  -4  -8   5    5.65    0.49 
   4   8  -5    6.70    0.42 
   4   8  -5    6.33    0.49 
  -4   8   5    6.46    0.40 
  -3  -8   5    2.00    0.29 
  -3   8   5    1.46    0.23 
   3   8  -5    1.60    0.28 
   3   8  -5    1.70    0.24 
  -2  -8   5    0.44    0.21 
   2   8  -5    0.47    0.20 
   2   8  -5    0.28    0.22 
  -2   8   5    0.71    0.21 
  -1  -8   5    1.16    0.24 
   1   8  -5    1.41    0.24 
  -1   8   5    0.84    0.21 
   0  -8   5   -0.18    0.20 
   0   8  -5    0.09    0.20 
   0   8   5   -0.01    0.19 
   1  -8   5   37.31    0.99 
   1   8   5   36.06    0.92 
  -1   8  -5   34.92    0.96 
   2  -8   5    4.45    0.37 
  -2   8  -5    4.93    0.42 
   2   8   5    5.19    0.39 
   3  -8   5   32.69    0.97 
  -3   8  -5   31.77    0.92 
   3   8   5   32.66    0.86 
   4  -8   5    2.84    0.40 
  -4   8  -5    2.83    0.32 
   4   8   5    3.34    0.32 
   5  -8   5    7.49    0.57 
   5   8   5    8.07    0.55 
   7   9  -5    2.86    0.44 
   6   9  -5    5.96    0.49 
  -5  -9   5   12.55    0.63 
   5   9  -5   12.03    0.62 
  -5   9   5   12.56    0.53 
  -4  -9   5    4.05    0.38 
  -4   9   5    3.57    0.31 
   4   9  -5    3.47    0.31 
   4   9  -5    4.02    0.37 
  -3  -9   5   10.14    0.55 
   3   9  -5   11.00    0.56 
  -3   9   5   10.20    0.49 
   3   9  -5   10.46    0.49 
  -2  -9   5   16.70    0.63 
   2   9  -5   17.00    0.62 
   2   9  -5   17.15    0.61 
  -2   9   5   16.55    0.59 
  -1  -9   5   22.61    0.73 
  -1   9   5   22.83    0.70 
   1   9  -5   23.57    0.73 
   0  -9   5    3.30    0.33 
   0   9   5    2.52    0.27 
   0   9  -5    2.43    0.28 
   1  -9   5    9.89    0.54 
  -1   9  -5    9.74    0.52 
   1   9   5   10.44    0.48 
   2  -9   5   12.23    0.58 
   2   9   5   12.88    0.53 
  -2   9  -5   11.64    0.57 
   3  -9   5   35.43    1.04 
  -3   9  -5   36.46    1.01 
   3   9   5   35.68    0.94 
   4  -9   5    0.59    0.35 
  -4   9  -5    0.48    0.25 
   5  -9   5   18.94    0.86 
   7  10  -5    1.24    0.40 
   6  10  -5   20.16    0.83 
  -5 -10   5    0.85    0.32 
  -5  10   5    0.68    0.24 
   5  10  -5    0.37    0.31 
  -4 -10   5   16.01    0.70 
   4  10  -5   17.40    0.71 
  -4  10   5   17.14    0.63 
   4  10  -5   16.66    0.63 
  -3 -10   5    0.09    0.26 
  -3  10   5    0.30    0.21 
   3  10  -5    0.03    0.22 
   3  10  -5    0.47    0.27 
  -2 -10   5   20.83    0.71 
  -2  10   5   20.64    0.68 
   2  10  -5   20.79    0.71 
   2  10  -5   20.25    0.70 
  -1 -10   5    2.21    0.31 
  -1  10   5    2.62    0.28 
   1  10  -5    2.28    0.30 
   0 -10   5   64.77    1.54 
   0  10   5   66.01    1.50 
   0  10  -5   65.12    1.54 
   1 -10   5   21.10    0.75 
   1  10   5   20.41    0.68 
  -1  10  -5   22.02    0.75 
   2 -10   5    0.37    0.29 
   2  10   5    0.40    0.23 
  -2  10  -5    0.72    0.26 
   3 -10   5   14.36    0.71 
   3  10   5   13.15    0.56 
  -3  10  -5   13.67    0.63 
   4 -10   5    5.94    0.52 
  -4  10  -5    7.00    0.53 
   5 -10   5    2.84    0.48 
   6  11  -5    0.11    0.35 
  -5 -11   5    1.35    0.36 
  -5  11   5    0.64    0.26 
   5  11  -5    0.92    0.34 
  -4 -11   5   57.04    1.48 
   4  11  -5   58.19    1.40 
  -4  11   5   59.09    1.41 
   4  11  -5   60.41    1.49 
  -3 -11   5   12.72    0.62 
   3  11  -5   14.51    0.60 
   3  11  -5   13.24    0.61 
  -3  11   5   14.59    0.60 
  -2 -11   5   75.37    1.76 
   2  11  -5   75.32    1.75 
   2  11  -5   76.51    1.76 
  -2  11   5   75.30    1.72 
  -1 -11   5    1.20    0.29 
   1  11  -5    0.93    0.27 
  -1  11   5    1.23    0.26 
   0 -11   5    4.09    0.38 
   0  11   5    3.36    0.32 
   0  11  -5    2.90    0.34 
   1 -11   5   13.87    0.63 
   1  11   5   14.44    0.59 
  -1  11  -5   12.97    0.62 
   2 -11   5   41.89    1.18 
   2  11   5   43.71    1.10 
  -2  11  -5   42.96    1.17 
   3 -11   5    3.44    0.43 
  -3  11  -5    3.99    0.39 
   3  11   5    3.39    0.33 
   4 -11   5    4.96    0.51 
  -4  11  -5    3.89    0.39 
  -6 -12   5   20.50    0.91 
   6  12  -5   19.89    0.89 
  -5 -12   5   30.51    1.02 
   5  12  -5   30.62    1.01 
  -5  12   5   28.86    0.90 
  -4 -12   5    9.48    0.60 
   4  12  -5    9.87    0.61 
  -4  12   5   10.69    0.56 
   4  12  -5    9.92    0.54 
  -3 -12   5    1.70    0.35 
   3  12  -5    1.74    0.34 
   3  12  -5    1.63    0.30 
  -3  12   5    1.52    0.28 
  -2 -12   5   22.71    0.79 
  -2  12   5   22.95    0.77 
   2  12  -5   24.01    0.82 
  -1 -12   5   49.70    1.29 
   1  12  -5   52.90    1.32 
  -1  12   5   50.29    1.27 
   0 -12   5   51.70    1.33 
   0  12   5   53.09    1.30 
   0  12  -5   51.68    1.34 
   1 -12   5    2.06    0.36 
   1  12   5    2.51    0.32 
  -1  12  -5    1.15    0.30 
   2 -12   5    0.35    0.31 
  -2  12  -5    0.09    0.28 
   2  12   5    0.24    0.25 
   3 -12   5    4.34    0.46 
  -3  12  -5    4.14    0.41 
   3  12   5    4.21    0.36 
   4 -12   5    9.91    0.73 
  -4  12  -5    8.58    0.62 
  -6 -13   5    1.50    0.43 
   6  13  -5    1.06    0.41 
  -5 -13   5   18.77    0.85 
   5  13  -5   19.78    0.84 
  -5  13   5   18.51    0.74 
  -4 -13   5    9.03    0.65 
  -4  13   5    9.46    0.56 
   4  13  -5    8.94    0.56 
   4  13  -5    9.30    0.65 
  -3 -13   5   72.95    1.76 
   3  13  -5   72.42    1.73 
   3  13  -5   75.76    1.78 
  -3  13   5   72.34    1.72 
  -2 -13   5   12.66    0.63 
   2  13  -5   12.13    0.64 
  -2  13   5   11.87    0.58 
  -1 -13   5    1.12    0.32 
  -1  13   5    2.08    0.31 
   1  13  -5    1.48    0.33 
   0 -13   5   11.71    0.61 
   0  13  -5   11.45    0.62 
   0  13   5   10.66    0.58 
   1 -13   5   24.11    0.86 
  -1  13  -5   22.70    0.85 
   1  13   5   22.20    0.77 
   2 -13   5   12.67    0.70 
  -2  13  -5   13.26    0.69 
   2  13   5   12.49    0.59 
   3 -13   5    2.86    0.45 
   3  13   5    3.06    0.42 
  -3  13  -5    2.92    0.39 
   4 -13   5    0.10    0.39 
  -4  13  -5    0.48    0.32 
  -5 -14   5   13.39    0.80 
  -5  14   5   14.00    0.69 
   5  14  -5   13.42    0.79 
  -4 -14   5    0.39    0.36 
   4  14  -5    0.57    0.36 
   4  14  -5    0.24    0.29 
  -4  14   5    0.66    0.30 
  -3 -14   5    5.04    0.46 
   3  14  -5    5.75    0.48 
   3  14  -5    5.14    0.44 
  -3  14   5    5.69    0.52 
  -2 -14   5    2.31    0.37 
   2  14  -5    1.75    0.35 
  -2  14   5    1.40    0.31 
  -1 -14   5   39.23    1.12 
  -1  14   5   39.47    1.09 
   1  14  -5   38.91    1.15 
   0 -14   5   -0.23    0.29 
   0  14   5    0.34    0.27 
   0  14  -5    0.09    0.30 
   1 -14   5    1.20    0.36 
  -1  14  -5    1.28    0.34 
   1  14   5    1.16    0.30 
   2 -14   5   15.54    0.77 
  -2  14  -5   15.58    0.77 
   2  14   5   16.03    0.68 
   3 -14   5    5.75    0.53 
  -3  14  -5    4.35    0.46 
  -5 -15   5    1.48    0.44 
   5  15  -5    1.31    0.43 
  -5  15   5    1.12    0.34 
  -4 -15   5    3.86    0.47 
   4  15  -5    3.31    0.45 
  -4  15   5    3.35    0.41 
   4  15  -5    2.40    0.37 
  -3 -15   5   11.30    0.70 
   3  15  -5   12.25    0.70 
   3  15  -5   12.15    0.72 
  -3  15   5   12.85    0.67 
  -2 -15   5    1.16    0.35 
  -2  15   5    0.71    0.31 
   2  15  -5    1.19    0.34 
  -1 -15   5    3.19    0.41 
  -1  15   5    3.35    0.39 
   1  15  -5    3.95    0.44 
   0 -15   5   12.49    0.69 
   0  15   5   11.46    0.64 
   0  15  -5   11.63    0.71 
   1 -15   5   12.00    0.70 
  -1  15  -5   11.90    0.70 
   1  15   5   12.32    0.65 
   2 -15   5   -0.15    0.36 
  -2  15  -5    0.19    0.34 
   2  15   5    0.20    0.29 
   3 -15   5    0.47    0.39 
  -3  15  -5   -0.10    0.34 
  -4 -16   5    1.13    0.41 
   4  16  -5    1.28    0.41 
  -4  16   5    1.40    0.36 
  -3 -16   5    3.40    0.46 
  -3  16   5    2.98    0.42 
   3  16  -5    2.98    0.44 
   3  16  -5    3.25    0.43 
  -2 -16   5    0.77    0.36 
   2  16  -5    0.65    0.35 
  -2  16   5    0.73    0.33 
  -1 -16   5   -0.03    0.34 
  -1  16   5    0.43    0.32 
   1  16  -5    0.14    0.33 
   0 -16   5    1.12    0.36 
   0  16   5    0.34    0.32 
   0  16  -5   -0.01    0.32 
   1 -16   5    8.50    0.67 
  -1  16  -5    8.18    0.69 
   1  16   5    8.55    0.62 
   2 -16   5   20.06    0.88 
  -2  16  -5   20.18    0.90 
   2  16   5   19.41    0.79 
  -3 -17   5    3.13    0.46 
   3  17  -5    3.00    0.44 
  -3  17   5    3.75    0.45 
   3  17  -5    3.45    0.47 
  -2 -17   5   -0.12    0.35 
   2  17  -5    0.02    0.33 
  -2  17   5    0.08    0.33 
  -1 -17   5    6.03    0.51 
  -1  17   5    7.80    0.64 
   1  17  -5    7.68    0.69 
   0 -17   5    3.06    0.44 
   0  17  -5    2.79    0.44 
   0  17   5    3.33    0.42 
   1 -17   5    2.15    0.42 
  -1  17  -5    2.69    0.45 
   1  17   5    2.52    0.40 
  -2 -18   5    6.37    0.52 
  -2  18   5    5.89    0.51 
   2  18  -5    4.12    0.49 
  -1 -18   5    0.30    0.36 
   1  18  -5    1.09    0.41 
  -1  18   5    0.85    0.36 
   0 -18   5    4.38    0.48 
   0  18   5    5.26    0.49 
   0  18  -5    4.17    0.51 
  -5   0   6   -0.11    0.20 
   5   0  -6    0.06    0.20 
   5   0  -6   -0.06    0.19 
  -5   0   6    0.18    0.20 
   4   0  -6    5.03    0.36 
   4   0  -6    4.81    0.39 
  -4   0   6    4.15    0.32 
  -4   0   6    5.09    0.36 
   3   0  -6   -0.08    0.19 
  -3   0   6    0.05    0.16 
  -3   0   6   -0.02    0.19 
  -2   0   6  250.33    4.95 
  -2   0   6  243.85    4.88 
   2   0  -6  250.97    4.96 
  -1   0   6    0.05    0.15 
   1   0  -6   -0.14    0.19 
   0   0   6   39.88    0.94 
   0   0  -6   38.89    1.02 
   1   0   6   -0.04    0.17 
  -1   0  -6    0.27    0.21 
  -2   0  -6   26.73    0.79 
   2   0   6   26.46    0.76 
  -3   0  -6    0.07    0.22 
   3   0   6    0.38    0.24 
   3   0   6    0.48    0.25 
   4   0   6    4.25    0.40 
   5   0   6   -0.25    0.31 
  -6  -1   6   20.82    0.75 
   6   1  -6   21.67    0.74 
  -5  -1   6   17.53    0.62 
   5  -1  -6   16.67    0.59 
  -5  -1   6   16.51    0.58 
  -5   1   6   18.62    0.60 
   5   1  -6   17.84    0.61 
   5   1  -6   17.08    0.59 
   4  -1  -6  131.83    2.74 
  -4  -1   6  133.85    2.74 
  -4  -1   6  130.95    2.74 
   4  -1  -6  127.45    2.68 
   4   1  -6  134.67    2.74 
  -4   1   6  133.90    2.74 
  -4   1   6  130.10    2.73 
   4   1  -6  131.33    2.72 
  -3  -1   6    3.65    0.32 
   3  -1  -6    2.94    0.28 
  -3  -1   6    2.63    0.29 
   3   1  -6    2.67    0.29 
  -3   1   6    2.99    0.29 
  -3   1   6    2.94    0.23 
   3   1  -6    3.03    0.25 
  -2  -1   6    0.77    0.18 
   2  -1  -6    0.78    0.21 
  -2   1   6    0.88    0.16 
   2   1  -6    0.65    0.22 
   1  -1  -6    0.88    0.22 
  -1  -1   6    1.00    0.19 
  -1   1   6    0.65    0.16 
  -1   1   6    0.53    0.22 
   1   1  -6    0.82    0.22 
   0  -1   6  142.51    2.86 
   0  -1  -6  137.50    2.92 
   0   1  -6  139.61    2.93 
   0   1   6  140.76    2.83 
   0   1   6  142.03    2.92 
  -1  -1  -6    8.16    0.47 
   1  -1   6    8.14    0.40 
  -1   1  -6    8.10    0.46 
   1   1   6    8.43    0.48 
   1   1   6    7.12    0.37 
   2  -1   6   12.02    0.53 
  -2  -1  -6   11.35    0.52 
  -2   1  -6   11.86    0.54 
   2   1   6   12.12    0.54 
   2   1   6   11.86    0.49 
   3  -1   6    9.22    0.52 
  -3  -1  -6    9.31    0.49 
   3   1   6    8.79    0.50 
  -3   1  -6    9.85    0.50 
   3   1   6    8.91    0.51 
   4  -1   6    5.12    0.43 
   4   1   6    5.83    0.50 
   5  -1   6    0.90    0.35 
   5   1   6    0.47    0.33 
   7   2  -6    9.43    0.62 
  -6  -2   6   25.48    0.85 
   6   2  -6   25.93    0.84 
  -5  -2   6    0.59    0.21 
  -5  -2   6    0.24    0.23 
   5   2  -6   -0.09    0.22 
   5   2  -6    0.15    0.20 
  -5   2   6   -0.12    0.20 
  -4  -2   6    3.80    0.31 
   4  -2  -6    3.77    0.31 
  -4  -2   6    3.01    0.29 
  -4   2   6    4.05    0.37 
   4   2  -6    3.44    0.30 
   4   2  -6    3.90    0.32 
  -3  -2   6   12.48    0.49 
   3  -2  -6   12.69    0.52 
   3   2  -6   11.80    0.48 
   3   2  -6   12.82    0.52 
  -3   2   6   13.23    0.53 
  -2  -2   6   57.55    1.30 
   2  -2  -6   57.45    1.35 
  -2   2   6   55.12    1.23 
   2   2  -6   57.87    1.35 
  -2   2   6   58.19    1.35 
  -1  -2   6   22.07    0.66 
   1  -2  -6   22.50    0.71 
  -1   2   6   23.63    0.72 
  -1   2   6   23.93    0.61 
   1   2  -6   24.03    0.72 
   0  -2   6    6.12    0.38 
   0  -2  -6    5.48    0.41 
   0   2   6    7.31    0.43 
   0   2  -6    6.46    0.43 
   0   2   6    6.41    0.31 
  -1  -2  -6   28.60    0.83 
   1  -2   6   28.23    0.78 
  -1   2  -6   29.06    0.84 
   1   2   6   29.51    0.83 
   1   2   6   28.71    0.75 
  -2  -2  -6   37.08    0.98 
   2  -2   6   34.68    0.95 
   2   2   6   37.04    0.93 
  -2   2  -6   37.46    0.98 
   2   2   6   37.06    0.97 
  -3  -2  -6    0.26    0.23 
   3  -2   6    0.20    0.26 
   3   2   6    0.30    0.24 
   3   2   6    0.11    0.23 
  -3   2  -6    0.66    0.24 
   4  -2   6    0.03    0.29 
   4   2   6    0.10    0.26 
   5  -2   6    6.04    0.50 
   5   2   6    6.41    0.58 
   7   3  -6    5.96    0.47 
  -6  -3   6    2.60    0.36 
   6   3  -6    3.65    0.37 
  -5  -3   6   22.14    0.68 
  -5  -3   6   21.60    0.75 
   5   3  -6   21.41    0.73 
   5   3  -6   21.94    0.67 
  -5   3   6   20.66    0.67 
  -4  -3   6    1.71    0.27 
   4  -3  -6    2.08    0.26 
   4   3  -6    1.72    0.26 
   4   3  -6    2.24    0.28 
  -4   3   6    1.62    0.26 
   3  -3  -6   13.78    0.54 
  -3  -3   6   13.46    0.53 
  -3   3   6   14.51    0.56 
   3   3  -6   13.25    0.52 
   3   3  -6   14.56    0.56 
   2  -3  -6    7.95    0.45 
  -2  -3   6    7.90    0.42 
   2   3  -6    8.29    0.45 
  -2   3   6    8.22    0.46 
  -1  -3   6    4.16    0.35 
   1  -3  -6    3.42    0.30 
  -1   3   6    3.39    0.24 
  -1   3   6    3.50    0.30 
   1   3  -6    3.64    0.31 
   0  -3   6    5.62    0.39 
   0  -3  -6    6.02    0.43 
   0   3  -6    7.32    0.43 
   0   3   6    5.57    0.30 
   0   3   6    5.91    0.42 
   1  -3   6   20.21    0.65 
  -1  -3  -6   18.32    0.66 
  -1   3  -6   18.96    0.68 
   1   3   6   20.47    0.58 
   1   3   6   20.57    0.67 
  -2  -3  -6   20.94    0.69 
   2  -3   6   20.41    0.70 
   2   3   6   21.37    0.64 
  -2   3  -6   20.86    0.70 
   2   3   6   21.38    0.70 
  -3  -3  -6   22.63    0.72 
   3  -3   6   21.34    0.75 
   3   3   6   21.28    0.69 
  -3   3  -6   21.63    0.72 
   3   3   6   22.29    0.72 
   4  -3   6   26.70    0.88 
   4   3   6   23.67    0.80 
   5  -3   6    1.20    0.39 
   5   3   6    1.49    0.35 
   7   4  -6    0.24    0.32 
  -6  -4   6    0.70    0.30 
   6   4  -6    0.30    0.28 
  -5  -4   6    0.11    0.26 
  -5  -4   6    0.53    0.30 
   5   4  -6    0.85    0.27 
   5   4  -6    0.64    0.22 
  -5   4   6    0.75    0.23 
  -4  -4   6    0.28    0.24 
   4   4  -6    0.22    0.21 
  -4   4   6   -0.27    0.20 
   4   4  -6    0.51    0.24 
   3  -4  -6    0.58    0.22 
  -3  -4   6    0.67    0.23 
   3   4  -6    0.72    0.23 
   3   4  -6    0.82    0.23 
  -3   4   6    0.55    0.22 
   2  -4  -6    0.50    0.21 
  -2  -4   6    0.13    0.20 
   2   4  -6    0.40    0.22 
  -2   4   6    0.36    0.22 
  -1  -4   6    2.10    0.26 
   1  -4  -6    1.90    0.26 
  -1   4   6    1.59    0.24 
   1   4  -6    2.03    0.27 
   0  -4   6   25.25    0.75 
   0  -4  -6   24.78    0.76 
   0   4   6   25.00    0.75 
   0   4   6   24.91    0.72 
   0   4  -6   24.49    0.77 
   1  -4   6    1.37    0.26 
  -1  -4  -6    1.54    0.26 
   1   4   6    1.69    0.20 
   1   4   6    1.05    0.25 
  -1   4  -6    1.26    0.25 
   2  -4   6   27.55    0.83 
  -2  -4  -6   27.28    0.80 
   2   4   6   26.07    0.73 
   2   4   6   26.20    0.79 
  -2   4  -6   26.39    0.82 
  -3  -4  -6    0.48    0.24 
   3  -4   6    0.11    0.27 
   3   4   6    0.51    0.25 
  -3   4  -6    0.41    0.24 
   3   4   6    0.25    0.23 
   4  -4   6    6.93    0.60 
   4   4   6    8.46    0.52 
   5  -4   6    1.50    0.40 
   5   4   6    0.77    0.33 
   7   5  -6    0.36    0.33 
  -6  -5   6    9.62    0.62 
   6   5  -6    8.44    0.58 
  -5  -5   6   13.33    0.63 
  -5   5   6   13.72    0.56 
   5   5  -6   14.19    0.62 
  -4  -5   6    0.53    0.26 
   4   5  -6    0.86    0.24 
  -4   5   6    1.06    0.25 
   4   5  -6    0.75    0.26 
  -3  -5   6   16.28    0.63 
   3   5  -6   16.47    0.62 
  -3   5   6   18.50    0.63 
   3   5  -6   17.57    0.64 
   2  -5  -6   12.84    0.55 
  -2  -5   6   12.65    0.54 
  -2   5   6   13.57    0.55 
   2   5  -6   13.47    0.56 
  -1  -5   6    0.91    0.23 
   1  -5  -6    0.86    0.23 
   1   5  -6    1.00    0.24 
  -1   5   6    0.98    0.23 
   0  -5  -6    8.51    0.48 
   0  -5   6    8.78    0.48 
   0   5   6    8.94    0.47 
   0   5  -6    8.60    0.49 
  -1  -5  -6   17.19    0.63 
   1  -5   6   17.45    0.65 
   1   5   6   16.96    0.63 
  -1   5  -6   17.07    0.65 
   2  -5   6   24.11    0.79 
  -2  -5  -6   24.30    0.76 
  -2   5  -6   24.50    0.79 
   2   5   6   23.42    0.68 
   2   5   6   24.67    0.75 
   3  -5   6    3.81    0.39 
   3   5   6    3.72    0.33 
   3   5   6    3.61    0.32 
  -3   5  -6    4.15    0.36 
   4  -5   6   30.09    0.98 
   4   5   6   31.00    0.89 
  -4   5  -6   29.47    1.23 
   5  -5   6    0.85    0.40 
   5   5   6    1.17    0.33 
   7   6  -6   18.61    0.83 
  -6  -6   6    6.76    0.58 
   6   6  -6    6.59    0.57 
  -5  -6   6    5.17    0.44 
   5   6  -6    4.51    0.40 
  -5   6   6    5.31    0.42 
  -4  -6   6   -0.02    0.25 
   4   6  -6    0.09    0.25 
   4   6  -6   -0.05    0.21 
  -4   6   6    0.21    0.22 
  -3  -6   6   24.72    0.79 
  -3   6   6   25.88    0.77 
   3   6  -6   26.47    0.79 
   3   6  -6   24.42    0.78 
  -2  -6   6    6.03    0.44 
  -2   6   6    4.72    0.42 
   2   6  -6    5.34    0.44 
  -1  -6   6   62.10    1.46 
   1   6  -6   64.49    1.49 
  -1   6   6   60.95    1.45 
   0  -6   6   10.23    0.52 
   0  -6  -6   10.32    0.50 
   0   6   6    9.19    0.48 
   0   6  -6    9.64    0.53 
   1  -6   6    2.54    0.32 
  -1   6  -6    2.29    0.31 
   1   6   6    2.75    0.31 
   2  -6   6   25.04    0.83 
   2   6   6   24.71    0.77 
  -2   6  -6   25.98    0.82 
   3  -6   6    9.86    0.59 
   3   6   6    9.72    0.64 
  -3   6  -6   10.63    0.57 
   3   6   6    9.80    0.50 
   4  -6   6    8.33    0.65 
  -4   6  -6    8.09    0.55 
   4   6   6    8.68    0.51 
   5  -6   6    2.62    0.46 
   5   6   6    3.59    0.40 
   7   7  -6    0.46    0.37 
  -6  -7   6    4.49    0.45 
   6   7  -6    5.70    0.48 
  -5  -7   6   45.71    1.25 
  -5   7   6   44.98    1.16 
   5   7  -6   46.63    1.23 
  -4  -7   6   45.18    1.22 
  -4   7   6   45.77    1.16 
   4   7  -6   46.37    1.16 
   4   7  -6   46.27    1.22 
  -3  -7   6   39.58    1.09 
  -3   7   6   40.62    1.06 
   3   7  -6   41.12    1.07 
   3   7  -6   39.17    1.08 
  -2  -7   6   -0.07    0.22 
   2   7  -6   -0.10    0.23 
  -2   7   6   -0.21    0.21 
  -1  -7   6    4.23    0.36 
  -1   7   6    2.59    0.30 
   1   7  -6    2.64    0.31 
   0  -7   6   31.94    0.92 
   0   7  -6   31.86    0.94 
   0   7   6   32.52    0.91 
   1  -7   6   57.66    1.39 
   1   7   6   55.11    1.35 
  -1   7  -6   57.05    1.40 
   2  -7   6    0.37    0.28 
  -2   7  -6    0.09    0.25 
   2   7   6    0.21    0.24 
   3  -7   6    4.01    0.41 
   3   7   6    4.21    0.35 
  -3   7  -6    4.03    0.38 
   4  -7   6   10.14    0.67 
  -4   7  -6    9.61    0.58 
  -6  -8   6   33.22    1.08 
   6   8  -6   33.46    1.08 
  -5  -8   6    2.49    0.38 
  -5   8   6    3.05    0.33 
   5   8  -6    2.59    0.38 
  -4  -8   6    6.13    0.54 
   4   8  -6    5.37    0.47 
  -4   8   6    5.96    0.46 
   4   8  -6    4.45    0.42 
  -3  -8   6   16.04    0.69 
   3   8  -6   17.43    0.69 
  -3   8   6   17.21    0.65 
   3   8  -6   15.92    0.66 
  -2  -8   6   80.63    1.87 
  -2   8   6   84.01    1.86 
   2   8  -6   82.45    1.88 
  -1  -8   6   34.11    0.99 
  -1   8   6   35.04    0.96 
   1   8  -6   35.54    0.99 
   0  -8   6    3.97    0.38 
   0   8  -6    3.18    0.34 
   0   8   6    3.51    0.34 
   1  -8   6    0.42    0.29 
   1   8   6    0.70    0.26 
  -1   8  -6    0.59    0.27 
   2  -8   6   13.11    0.67 
  -2   8  -6   13.76    0.65 
   2   8   6   12.73    0.58 
   3  -8   6   13.23    0.69 
  -3   8  -6   12.50    0.63 
   3   8   6   12.06    0.58 
   4  -8   6    2.17    0.43 
  -4   8  -6    2.23    0.35 
  -6  -9   6   22.22    0.89 
   6   9  -6   23.17    0.92 
  -5  -9   6   -0.01    0.31 
  -5   9   6    0.44    0.27 
   5   9  -6    0.17    0.33 
  -4  -9   6   89.28    2.06 
  -4   9   6   90.79    2.00 
   4   9  -6   87.27    2.00 
   4   9  -6   89.22    2.04 
  -3  -9   6    0.06    0.27 
   3   9  -6   -0.11    0.24 
  -3   9   6    0.10    0.24 
   3   9  -6   -0.08    0.28 
  -2  -9   6    0.99    0.30 
  -2   9   6    0.67    0.27 
   2   9  -6    0.43    0.27 
  -1  -9   6    3.61    0.38 
  -1   9   6    2.87    0.32 
   1   9  -6    3.28    0.36 
   0  -9   6   72.86    1.70 
   0   9   6   72.06    1.67 
   0   9  -6   71.27    1.70 
   1  -9   6    2.21    0.36 
   1   9   6    1.90    0.31 
  -1   9  -6    2.17    0.33 
   2  -9   6    6.37    0.55 
   2   9   6    6.72    0.50 
  -2   9  -6    6.91    0.55 
   3  -9   6    4.54    0.45 
  -3   9  -6    3.38    0.38 
   3   9   6    3.64    0.35 
   4  -9   6    1.06    0.41 
  -4   9  -6    0.05    0.29 
  -6 -10   6   14.82    0.78 
   6  10  -6   13.27    0.75 
  -5 -10   6    0.38    0.35 
   5  10  -6    0.23    0.35 
  -5  10   6    0.42    0.26 
  -4 -10   6    8.57    0.63 
  -4  10   6    6.16    0.50 
   4  10  -6    5.80    0.52 
   4  10  -6    6.95    0.60 
  -3 -10   6    1.00    0.33 
  -3  10   6    1.01    0.28 
   3  10  -6    0.99    0.30 
   3  10  -6    1.11    0.33 
  -2 -10   6   94.36    2.13 
   2  10  -6   90.97    2.11 
  -2  10   6   95.81    2.10 
  -1 -10   6    3.79    0.40 
  -1  10   6    3.18    0.34 
   1  10  -6    3.73    0.38 
   0 -10   6    2.59    0.37 
   0  10   6    3.34    0.35 
   0  10  -6    2.40    0.34 
   1 -10   6   21.01    0.81 
   1  10   6   20.31    0.75 
  -1  10  -6   22.03    0.79 
   2 -10   6   12.93    0.68 
   2  10   6   13.72    0.62 
  -2  10  -6   12.33    0.67 
   3 -10   6    2.57    0.42 
   3  10   6    2.87    0.34 
  -3  10  -6    2.23    0.36 
   4 -10   6    0.41    0.40 
  -4  10  -6    0.36    0.31 
  -6 -11   6   -0.22    0.37 
   6  11  -6    0.50    0.39 
  -5 -11   6    1.43    0.41 
   5  11  -6    1.18    0.40 
  -5  11   6    1.43    0.31 
  -4 -11   6    4.01    0.45 
  -4  11   6    3.59    0.38 
   4  11  -6    4.08    0.39 
   4  11  -6    4.43    0.45 
  -3 -11   6   -0.19    0.29 
   3  11  -6   -0.24    0.30 
   3  11  -6   -0.25    0.26 
  -3  11   6    0.18    0.26 
  -2 -11   6    1.13    0.32 
   2  11  -6   -0.04    0.28 
  -2  11   6    0.59    0.27 
  -1 -11   6    5.05    0.43 
   1  11  -6    4.09    0.40 
  -1  11   6    4.22    0.38 
   0 -11   6   12.91    0.68 
   0  11   6   13.83    0.64 
   0  11  -6   14.27    0.69 
   1 -11   6    0.91    0.34 
  -1  11  -6    1.06    0.33 
   1  11   6    0.61    0.29 
   2 -11   6    2.82    0.42 
   2  11   6    2.53    0.34 
  -2  11  -6    2.38    0.37 
   3 -11   6   18.53    0.84 
  -3  11  -6   19.52    0.81 
  -5 -12   6    2.50    0.46 
   5  12  -6    3.06    0.46 
  -5  12   6    2.36    0.36 
  -4 -12   6    0.30    0.35 
   4  12  -6   -0.02    0.34 
  -4  12   6    0.71    0.30 
   4  12  -6    0.22    0.29 
  -3 -12   6    2.95    0.41 
  -3  12   6    2.83    0.35 
   3  12  -6    3.05    0.38 
   3  12  -6    2.55    0.41 
  -2 -12   6    0.97    0.33 
   2  12  -6    0.48    0.32 
  -2  12   6    0.68    0.28 
  -1 -12   6   -0.31    0.29 
  -1  12   6    0.19    0.28 
   1  12  -6    0.26    0.30 
   0 -12   6   25.47    0.91 
   0  12  -6   25.24    0.92 
   0  12   6   24.87    0.86 
   1 -12   6   12.81    0.72 
   1  12   6   12.27    0.64 
  -1  12  -6   12.62    0.71 
   2 -12   6    9.51    0.70 
  -2  12  -6    9.59    0.67 
   2  12   6    9.65    0.59 
   3 -12   6    0.45    0.41 
  -3  12  -6    0.69    0.34 
  -5 -13   6   -0.97    0.37 
  -5  13   6    0.46    0.31 
   5  13  -6   -0.01    0.39 
  -4 -13   6    2.51    0.45 
   4  13  -6    1.77    0.42 
   4  13  -6    1.59    0.35 
  -4  13   6    1.72    0.35 
  -3 -13   6    5.69    0.51 
  -3  13   6    4.18    0.40 
   3  13  -6    4.71    0.44 
  -2 -13   6   14.62    0.74 
   2  13  -6   13.45    0.73 
  -2  13   6   14.29    0.69 
  -1 -13   6    7.37    0.54 
  -1  13   6    7.95    0.58 
   1  13  -6    7.12    0.65 
   0 -13   6   -0.37    0.32 
   0  13   6    0.23    0.30 
   0  13  -6    0.37    0.34 
   1 -13   6    4.09    0.46 
   1  13   6    4.13    0.42 
  -1  13  -6    3.29    0.43 
   2 -13   6   24.37    0.98 
   2  13   6   26.15    0.88 
  -2  13  -6   26.82    0.98 
   3 -13   6    2.95    0.49 
  -3  13  -6    3.13    0.44 
  -4 -14   6   -0.16    0.38 
   4  14  -6   -0.08    0.32 
  -4  14   6   -0.01    0.31 
   4  14  -6    0.01    0.39 
  -3 -14   6   11.74    0.72 
   3  14  -6   11.33    0.70 
  -3  14   6   11.71    0.67 
  -2 -14   6    3.43    0.45 
   2  14  -6    3.72    0.44 
  -2  14   6    4.36    0.43 
  -1 -14   6   16.90    0.78 
   1  14  -6   17.82    0.81 
  -1  14   6   16.16    0.73 
   0 -14   6   11.63    0.72 
   0  14   6   13.31    0.69 
   0  14  -6   11.36    0.72 
   1 -14   6    0.79    0.40 
  -1  14  -6    0.51    0.37 
   1  14   6    0.72    0.33 
   2 -14   6    0.49    0.41 
   2  14   6   -0.18    0.30 
  -2  14  -6    0.35    0.37 
  -3 -15   6   22.52    0.92 
  -3  15   6   20.58    0.89 
   3  15  -6   23.74    0.93 
  -2 -15   6    1.21    0.40 
   2  15  -6    1.77    0.40 
  -2  15   6    1.51    0.38 
  -1 -15   6    2.24    0.43 
   1  15  -6    2.24    0.43 
  -1  15   6    2.76    0.40 
   0 -15   6    1.69    0.42 
   0  15   6    1.94    0.38 
   0  15  -6    1.05    0.39 
   1 -15   6   14.57    0.82 
  -1  15  -6   15.25    0.82 
   1  15   6   15.72    0.74 
  -2 -16   6    7.93    0.69 
   2  16  -6    8.14    0.73 
  -2  16   6    8.44    0.67 
  -1 -16   6   27.87    1.02 
  -1  16   6   30.57    1.04 
   1  16  -6   29.89    1.11 
   0 -16   6   -0.05    0.37 
   0  16   6   -0.27    0.33 
   0  16  -6   -0.08    0.38 
   5   0  -7    2.40    0.31 
  -5   0   7    1.84    0.30 
   4   0  -7    0.07    0.24 
  -4   0   7   -0.19    0.23 
   3   0  -7    2.40    0.31 
  -3   0   7    2.33    0.32 
  -2   0   7    0.28    0.19 
   2   0  -7   -0.14    0.24 
  -2   0   7    0.35    0.26 
   1   0  -7   42.49    1.12 
  -1   0   7   40.61    1.11 
  -1   0   7   39.60    1.00 
   0   0   7    0.09    0.20 
   0   0  -7   -0.09    0.25 
   0   0   7    0.47    0.27 
   1   0   7    0.98    0.31 
   1   0   7    1.54    0.26 
  -1   0  -7    1.05    0.29 
   2   0   7    0.09    0.26 
   2   0   7   -0.16    0.28 
  -2   0  -7    0.09    0.27 
  -3   0  -7   24.74    0.82 
   3   0   7   23.69    0.83 
   3   0   7   24.22    0.83 
   4   0   7    0.59    0.33 
   5  -1  -7    0.33    0.25 
  -5  -1   7    0.07    0.25 
   5   1  -7    0.32    0.24 
  -5   1   7   -0.05    0.25 
  -4  -1   7    7.39    0.50 
  -4  -1   7    6.84    0.46 
   4  -1  -7    6.53    0.49 
  -4   1   7    7.10    0.50 
   4   1  -7    7.75    0.50 
  -3  -1   7    8.67    0.53 
  -3  -1   7    8.28    0.44 
   3  -1  -7    7.79    0.52 
   3   1  -7    7.90    0.53 
  -3   1   7    7.66    0.52 
  -2  -1   7    0.31    0.27 
  -2  -1   7    0.09    0.19 
   2  -1  -7    0.08    0.24 
  -2   1   7   -0.23    0.25 
   2   1  -7    0.48    0.26 
   1  -1  -7    5.42    0.48 
  -1  -1   7    6.09    0.40 
  -1   1   7    5.41    0.49 
  -1   1   7    5.34    0.36 
   1   1  -7    4.56    0.39 
   0  -1  -7    0.55    0.27 
   0  -1   7    1.08    0.23 
   0   1   7    1.38    0.22 
   0   1  -7    1.33    0.30 
   0   1   7    1.71    0.32 
  -1  -1  -7   29.69    0.92 
   1  -1   7   28.95    0.84 
   1   1   7   28.36    0.81 
  -1   1  -7   32.15    0.93 
   1   1   7   28.69    0.91 
  -2  -1  -7   10.68    0.58 
   2  -1   7    9.92    0.55 
  -2   1  -7   10.06    0.58 
   2   1   7    9.60    0.52 
   2   1   7   10.31    0.61 
   3  -1   7   24.60    0.83 
   3  -1   7   23.27    0.82 
  -3  -1  -7   23.39    0.81 
   3   1   7   24.37    0.83 
  -3   1  -7   22.40    0.80 
   3   1   7   22.12    0.80 
   4  -1   7    1.07    0.37 
   4   1   7    1.51    0.35 
  -5  -2   7   -0.17    0.26 
  -5  -2   7   -0.05    0.25 
   5   2  -7    0.25    0.25 
   5   2  -7    0.03    0.24 
  -5   2   7    0.24    0.26 
  -4  -2   7   28.63    0.87 
   4  -2  -7   29.42    0.88 
  -4  -2   7   28.77    0.85 
  -4   2   7   28.10    0.87 
   4   2  -7   29.08    0.84 
   4   2  -7   29.76    0.88 
  -3  -2   7   23.07    0.72 
   3  -2  -7   22.83    0.78 
   3   2  -7   21.62    0.76 
  -3   2   7   21.90    0.76 
  -2  -2   7   31.88    0.88 
   2  -2  -7   33.39    0.96 
   2   2  -7   31.85    0.96 
  -2   2   7   32.83    0.96 
  -1  -2   7    4.63    0.40 
   1  -2  -7    4.39    0.38 
  -1   2   7    3.80    0.37 
   1   2  -7    4.35    0.39 
   0  -2  -7    0.68    0.28 
   0  -2   7    1.08    0.25 
   0   2   7    0.80    0.21 
   0   2   7    0.80    0.29 
   0   2  -7    0.99    0.29 
   1  -2   7   40.80    1.09 
  -1  -2  -7   41.82    1.14 
   1   2   7   42.06    1.03 
  -1   2  -7   42.27    1.14 
   1   2   7   42.48    1.14 
   2  -2   7    5.63    0.51 
  -2  -2  -7    6.08    0.51 
   2   2   7    5.35    0.44 
  -2   2  -7    5.74    0.52 
   2   2   7    6.12    0.55 
   3  -2   7   -0.10    0.29 
  -3  -2  -7    0.31    0.28 
  -3   2  -7    0.21    0.28 
   3   2   7    0.09    0.27 
   3   2   7    0.31    0.30 
   4  -2   7    9.47    0.68 
   4   2   7    9.06    0.61 
  -6  -3   7   10.46    0.66 
   6   3  -7   11.55    0.64 
  -5  -3   7   38.05    1.05 
  -5  -3   7   37.76    1.09 
  -5   3   7   40.24    1.07 
   5   3  -7   40.43    1.08 
   5   3  -7   38.55    1.06 
   4  -3  -7   14.66    0.63 
  -4  -3   7   14.41    0.63 
  -4  -3   7   12.94    0.62 
   4   3  -7   16.14    0.62 
  -4   3   7   15.14    0.64 
   4   3  -7   15.20    0.64 
   3  -3  -7    0.51    0.26 
  -3  -3   7    0.49    0.25 
   3   3  -7    0.25    0.26 
  -3   3   7    0.45    0.26 
  -2  -3   7    9.09    0.50 
   2  -3  -7    8.98    0.55 
   2   3  -7    8.46    0.53 
  -2   3   7    8.96    0.56 
  -1  -3   7   54.05    1.30 
   1  -3  -7   54.80    1.36 
  -1   3   7   54.06    1.35 
   1   3  -7   53.61    1.37 
   0  -3  -7   28.93    0.89 
   0  -3   7   27.19    0.82 
   0   3  -7   27.69    0.88 
   0   3   7   27.25    0.88 
  -1  -3  -7    4.60    0.40 
   1  -3   7    5.98    0.47 
   1   3   7    4.92    0.41 
  -1   3  -7    5.20    0.42 
  -2  -3  -7    6.38    0.52 
   2  -3   7    7.92    0.54 
   2   3   7    7.72    0.47 
  -2   3  -7    5.97    0.46 
   2   3   7    7.59    0.58 
  -3  -3  -7    7.97    0.55 
   3  -3   7    6.76    0.59 
   3   3   7    7.13    0.50 
   3   3   7    7.02    0.56 
  -3   3  -7    8.55    0.57 
   4  -3   7    0.83    0.38 
   4   3   7    0.58    0.32 
  -6  -4   7   -0.13    0.30 
   6   4  -7    0.23    0.31 
  -5  -4   7   14.30    0.69 
  -5  -4   7   12.91    0.68 
   5   4  -7   14.58    0.66 
   5   4  -7   14.29    0.62 
  -5   4   7   14.30    0.63 
  -4  -4   7    5.12    0.41 
   4   4  -7    4.52    0.38 
  -4   4   7    4.72    0.40 
   4   4  -7    3.88    0.37 
   3  -4  -7  101.64    2.28 
  -3  -4   7  103.24    2.28 
  -3   4   7  106.63    2.30 
   3   4  -7  105.70    2.30 
  -2  -4   7   10.26    0.53 
   2  -4  -7    9.83    0.56 
   2   4  -7    9.90    0.57 
  -2   4   7   11.02    0.59 
  -1  -4   7   14.42    0.61 
   1  -4  -7   14.52    0.63 
  -1   4   7   15.04    0.65 
   1   4  -7   14.27    0.66 
   0  -4  -7   -0.28    0.24 
   0  -4   7   -0.03    0.25 
   0   4   7    0.01    0.27 
   0   4  -7   -0.21    0.25 
   1  -4   7   29.40    0.88 
  -1  -4  -7   26.69    0.88 
   1   4   7   27.93    0.90 
  -1   4  -7   28.14    0.89 
  -2  -4  -7    2.66    0.34 
   2  -4   7    1.96    0.34 
  -2   4  -7    2.13    0.34 
   2   4   7    1.89    0.34 
   3  -4   7    4.94    0.45 
  -3  -4  -7    3.76    0.39 
   3   4   7    4.01    0.39 
  -3   4  -7    2.83    0.38 
   4  -4   7    0.59    0.40 
   4   4   7   -0.19    0.31 
  -6  -5   7    1.08    0.34 
   6   5  -7    0.33    0.33 
  -5  -5   7   63.67    1.63 
   5   5  -7   65.17    1.81 
   5   5  -7   67.56    1.62 
  -5   5   7   67.06    1.58 
  -4  -5   7    0.03    0.27 
  -4   5   7   -0.26    0.26 
   4   5  -7    0.12    0.27 
   4   5  -7    0.21    0.26 
  -3  -5   7    0.07    0.25 
  -3   5   7    0.21    0.27 
   3   5  -7    0.13    0.26 
   2  -5  -7    0.73    0.28 
  -2  -5   7    0.84    0.27 
  -2   5   7    0.82    0.29 
   2   5  -7    0.58    0.28 
  -1  -5   7   72.10    1.63 
   1  -5  -7   69.69    1.65 
   1   5  -7   67.71    1.66 
  -1   5   7   68.59    1.64 
   0  -5  -7   -0.10    0.26 
   0  -5   7    0.29    0.27 
   0   5   7   -0.09    0.28 
   0   5  -7    0.10    0.27 
   1  -5   7   12.81    0.63 
  -1  -5  -7   12.51    0.63 
   1   5   7   11.99    0.64 
  -1   5  -7   12.20    0.65 
  -2  -5  -7    5.70    0.51 
   2  -5   7    6.96    0.57 
  -2   5  -7    4.98    0.43 
   2   5   7    5.72    0.43 
   3  -5   7    3.85    0.44 
   3   5   7    3.39    0.38 
  -3   5  -7    3.33    0.39 
  -6  -6   7    4.57    0.47 
   6   6  -7    4.73    0.47 
  -5  -6   7    4.52    0.45 
   5   6  -7    4.35    0.42 
  -5   6   7    3.87    0.37 
  -4  -6   7    9.92    0.61 
   4   6  -7    9.82    0.58 
  -4   6   7    9.67    0.59 
   4   6  -7   10.11    0.60 
  -3  -6   7   40.41    1.14 
  -3   6   7   42.20    1.14 
   3   6  -7   41.86    1.15 
  -2  -6   7   12.68    0.62 
   2   6  -7   11.93    0.64 
  -2   6   7   12.16    0.62 
  -1  -6   7    0.10    0.27 
   1   6  -7    0.64    0.29 
  -1   6   7    0.31    0.28 
   0  -6   7    7.12    0.53 
   0   6  -7    8.55    0.59 
   0   6   7    8.14    0.58 
   1  -6   7   20.89    0.79 
  -1   6  -7   21.05    0.82 
   1   6   7   21.31    0.79 
   2  -6   7    0.03    0.32 
   2   6   7    0.10    0.29 
  -2   6  -7   -0.30    0.27 
   3  -6   7    0.29    0.36 
   3   6   7   -0.02    0.28 
  -3   6  -7    0.53    0.31 
  -6  -7   7    4.09    0.48 
   6   7  -7    3.32    0.45 
  -5  -7   7    2.03    0.39 
   5   7  -7    1.83    0.37 
  -5   7   7    1.83    0.33 
  -4  -7   7    1.26    0.34 
   4   7  -7    1.38    0.31 
  -4   7   7    1.31    0.31 
   4   7  -7    1.53    0.34 
  -3  -7   7    6.67    0.56 
  -3   7   7    7.31    0.55 
   3   7  -7    6.90    0.55 
  -2  -7   7    0.28    0.28 
   2   7  -7    0.19    0.29 
  -2   7   7    0.11    0.28 
  -1  -7   7   14.66    0.67 
   1   7  -7   14.09    0.70 
  -1   7   7   15.19    0.68 
   0  -7   7    3.81    0.40 
   0   7   7    4.53    0.41 
   0   7  -7    4.04    0.41 
   1  -7   7    6.47    0.57 
  -1   7  -7    6.46    0.58 
   1   7   7    5.75    0.44 
   2  -7   7   17.46    0.79 
   2   7   7   16.71    0.70 
  -2   7  -7   17.69    0.77 
   3  -7   7   15.48    0.81 
  -3   7  -7   16.49    0.75 
   3   7   7   14.75    0.67 
  -5  -8   7    0.40    0.36 
   5   8  -7    0.86    0.36 
  -5   8   7    0.50    0.29 
  -4  -8   7    0.03    0.32 
  -4   8   7   -0.07    0.26 
   4   8  -7   -0.06    0.32 
   4   8  -7    0.12    0.28 
  -3  -8   7    1.76    0.35 
  -3   8   7    2.96    0.37 
   3   8  -7    2.41    0.37 
  -2  -8   7   -0.10    0.29 
  -2   8   7    0.20    0.29 
   2   8  -7    0.42    0.30 
  -1  -8   7   26.83    0.88 
  -1   8   7   24.66    0.87 
   1   8  -7   24.20    0.90 
   0  -8   7    3.31    0.40 
   0   8   7    3.67    0.39 
   0   8  -7    2.77    0.40 
   1  -8   7   11.91    0.68 
  -1   8  -7   11.45    0.69 
   1   8   7   10.39    0.63 
   2  -8   7    0.55    0.36 
   2   8   7    0.63    0.31 
  -2   8  -7    0.46    0.33 
   3  -8   7   12.29    0.74 
  -3   8  -7   10.92    0.69 
  -5  -9   7    1.46    0.41 
  -5   9   7    1.32    0.33 
   5   9  -7    1.11    0.39 
  -4  -9   7    2.20    0.40 
   4   9  -7    2.11    0.36 
   4   9  -7    2.52    0.40 
  -4   9   7    2.44    0.36 
  -3  -9   7    3.23    0.41 
   3   9  -7    3.36    0.40 
  -3   9   7    3.18    0.39 
  -2  -9   7    0.65    0.32 
  -2   9   7    0.98    0.32 
   2   9  -7    0.54    0.32 
  -1  -9   7    0.10    0.30 
  -1   9   7    0.44    0.31 
   1   9  -7   -0.11    0.30 
   0  -9   7   10.02    0.63 
   0   9  -7    9.58    0.68 
   0   9   7    9.62    0.63 
   1  -9   7   31.95    1.05 
   1   9   7   33.06    1.00 
  -1   9  -7   31.74    1.06 
   2  -9   7    0.47    0.37 
   2   9   7    0.78    0.32 
  -2   9  -7    0.81    0.34 
   3  -9   7   17.65    0.87 
  -3   9  -7   15.45    0.79 
  -5 -10   7    0.31    0.39 
   5  10  -7    0.07    0.37 
  -5  10   7    0.06    0.29 
  -4 -10   7   11.31    0.73 
  -4  10   7   11.86    0.65 
   4  10  -7   11.52    0.67 
   4  10  -7   11.64    0.73 
  -3 -10   7    0.78    0.36 
  -3  10   7    0.71    0.32 
   3  10  -7    1.04    0.34 
  -2 -10   7   32.75    1.07 
   2  10  -7   33.15    1.07 
  -2  10   7   33.78    1.04 
  -1 -10   7   13.46    0.73 
   1  10  -7   14.09    0.74 
  -1  10   7   14.35    0.71 
   0 -10   7    0.98    0.37 
   0  10  -7    0.26    0.34 
   0  10   7    0.38    0.33 
   1 -10   7    1.92    0.41 
   1  10   7    1.91    0.37 
  -1  10  -7    1.26    0.38 
   2 -10   7   12.52    0.77 
  -2  10  -7   11.98    0.74 
   2  10   7   11.59    0.68 
  -4 -11   7   21.29    0.93 
   4  11  -7   20.79    0.85 
  -4  11   7   21.30    0.84 
   4  11  -7   21.33    0.91 
  -3 -11   7    1.01    0.38 
  -3  11   7    1.41    0.35 
   3  11  -7    0.70    0.35 
  -2 -11   7    5.97    0.51 
  -2  11   7    7.10    0.60 
   2  11  -7    7.04    0.66 
  -1 -11   7    1.54    0.39 
  -1  11   7    2.06    0.37 
   1  11  -7    1.73    0.39 
   0 -11   7   22.05    0.89 
   0  11   7   23.46    0.88 
   0  11  -7   23.87    0.94 
   1 -11   7    2.43    0.43 
   1  11   7    2.52    0.38 
  -1  11  -7    2.36    0.42 
   2 -11   7    1.86    0.44 
  -2  11  -7    0.95    0.38 
   2  11   7    1.10    0.35 
  -4 -12   7   14.79    0.84 
   4  12  -7   14.26    0.78 
  -4  12   7   14.10    0.74 
  -3 -12   7   28.12    1.03 
  -3  12   7   27.63    0.97 
   3  12  -7   27.09    0.99 
  -2 -12   7   14.02    0.79 
  -2  12   7   13.97    0.73 
   2  12  -7   13.82    0.80 
  -1 -12   7   -0.26    0.34 
   1  12  -7   -0.42    0.34 
  -1  12   7   -0.03    0.31 
   0 -12   7    0.07    0.37 
   0  12  -7   -0.10    0.35 
   0  12   7    0.16    0.33 
   1 -12   7    9.16    0.74 
  -1  12  -7    9.33    0.75 
   1  12   7    8.12    0.63 
  -3 -13   7    0.13    0.39 
  -3  13   7    0.33    0.34 
   3  13  -7    0.04    0.36 
  -2 -13   7   14.52    0.82 
  -2  13   7   15.17    0.78 
   2  13  -7   16.26    0.85 
  -1 -13   7   33.15    1.12 
   1  13  -7   32.53    1.13 
  -1  13   7   32.92    1.08 
   0 -13   7    7.28    0.59 
   0  13   7    7.87    0.66 
   0  13  -7    8.20    0.74 
  -2 -14   7    1.81    0.44 
   2  14  -7    1.31    0.42 
  -2  14   7    0.90    0.37 
  -1 -14   7    4.33    0.52 
  -1  14   7    3.77    0.46 
   1  14  -7    2.81    0.48 
   5   0  -8    0.08    0.28 
  -5   0   8   -0.17    0.29 
  -4   0   8   73.73    1.79 
   4   0  -8   77.02    1.81 
  -3   0   8   -0.16    0.30 
   3   0  -8   -0.23    0.29 
   2   0  -8    7.11    0.58 
  -2   0   8    7.64    0.63 
   1   0  -8   -0.46    0.28 
  -1   0   8    0.13    0.32 
   0   0  -8   17.34    0.77 
   0   0   8   18.61    0.80 
   1   0   8    0.10    0.26 
  -1   0  -8    0.09    0.31 
   1   0   8   -0.16    0.34 
   2   0   8    6.38    0.51 
   2   0   8    5.80    0.44 
  -2   0  -8    5.85    0.49 
  -5  -1   8    1.65    0.34 
   5  -1  -8    0.88    0.31 
  -5   1   8    0.78    0.32 
   5   1  -8    1.17    0.32 
   4  -1  -8    1.08    0.32 
  -4  -1   8    1.26    0.33 
   4   1  -8    1.13    0.31 
  -4   1   8    1.49    0.34 
   3  -1  -8    1.77    0.35 
  -3  -1   8    0.94    0.33 
  -3   1   8    1.91    0.37 
   3   1  -8    1.53    0.34 
   2  -1  -8   49.49    1.33 
  -2  -1   8   47.58    1.31 
   2   1  -8   50.55    1.34 
  -2   1   8   46.35    1.31 
  -1  -1   8    7.95    0.64 
   1  -1  -8    7.27    0.60 
  -1  -1   8    8.21    0.50 
  -1   1   8    7.93    0.64 
   1   1  -8    8.69    0.62 
   0  -1   8    5.95    0.49 
   0  -1   8    7.00    0.49 
   0  -1  -8    5.30    0.46 
   0   1   8    6.53    0.51 
   0   1  -8    5.84    0.49 
   1  -1   8    3.70    0.37 
   1  -1   8    3.56    0.44 
  -1  -1  -8    4.16    0.43 
   1   1   8    4.30    0.46 
  -1   1  -8    3.97    0.43 
   2  -1   8    6.92    0.59 
  -2  -1  -8    7.05    0.62 
   2  -1   8    7.29    0.65 
   2   1   8    8.09    0.68 
  -2   1  -8    7.41    0.64 
   2   1   8    7.57    0.68 
  -5  -2   8   14.46    0.67 
   5   2  -8   14.05    0.68 
  -5   2   8   13.78    0.71 
   4  -2  -8   18.33    0.77 
  -4  -2   8   17.59    0.76 
  -4   2   8   18.59    0.77 
   4   2  -8   19.05    0.77 
   3  -2  -8   18.51    0.78 
  -3  -2   8   18.03    0.78 
   3   2  -8   17.41    0.78 
  -3   2   8   19.01    0.78 
   2  -2  -8    0.28    0.31 
  -2  -2   8    0.96    0.28 
  -2  -2   8    0.66    0.34 
  -2   2   8    0.56    0.34 
   2   2  -8    0.99    0.34 
  -1  -2   8    2.59    0.34 
   1  -2  -8    2.74    0.38 
  -1   2   8    3.18    0.41 
   1   2  -8    3.01    0.40 
   0  -2  -8   15.86    0.74 
   0  -2   8   13.94    0.63 
   0   2   8   15.37    0.76 
   0   2  -8   17.10    0.77 
  -1  -2  -8    0.30    0.32 
   1  -2   8    0.98    0.30 
  -1   2  -8    0.70    0.35 
   1   2   8    0.53    0.36 
  -2  -2  -8    0.48    0.33 
   2  -2   8    0.86    0.33 
   2  -2   8    0.30    0.37 
  -2   2  -8    0.37    0.34 
   2   2   8    0.31    0.36 
  -5  -3   8   -0.02    0.29 
  -5   3   8    0.29    0.32 
   5   3  -8    0.20    0.30 
   4  -3  -8    1.00    0.33 
  -4  -3   8    1.01    0.33 
  -4   3   8    1.62    0.36 
   4   3  -8    1.56    0.33 
  -3  -3   8    2.94    0.36 
  -3  -3   8    2.09    0.37 
   3  -3  -8    2.35    0.38 
   3   3  -8    2.45    0.38 
  -3   3   8    2.97    0.40 
   2  -3  -8    3.04    0.40 
  -2  -3   8    3.34    0.36 
   2   3  -8    2.88    0.40 
  -2   3   8    3.43    0.42 
   1  -3  -8    8.53    0.64 
  -1  -3   8    9.62    0.58 
  -1   3   8    9.14    0.65 
   1   3  -8    9.18    0.66 
   0  -3  -8   13.41    0.71 
   0  -3   8   12.55    0.62 
   0   3   8   13.17    0.73 
   0   3  -8   12.23    0.72 
  -1  -3  -8    1.64    0.36 
   1  -3   8    1.66    0.35 
   1   3   8    1.34    0.38 
  -1   3  -8    2.03    0.39 
   2  -3   8    7.65    0.63 
  -2  -3  -8    7.52    0.63 
   2   3   8    8.35    0.68 
  -2   3  -8    7.85    0.66 
  -5   4   8    0.65    0.33 
   5   4  -8    0.51    0.32 
  -4  -4   8    0.55    0.33 
  -4  -4   8    1.05    0.32 
  -4   4   8    0.79    0.33 
   4   4  -8    1.50    0.35 
   3  -4  -8   -0.17    0.30 
  -3  -4   8    0.06    0.28 
   3   4  -8    0.16    0.32 
  -3   4   8   -0.08    0.32 
  -2  -4   8   25.78    0.85 
   2  -4  -8   24.09    0.89 
  -2   4   8   23.93    0.90 
   2   4  -8   26.75    0.94 
  -1  -4   8   -0.06    0.28 
   1  -4  -8    0.33    0.31 
   1   4  -8    0.24    0.31 
  -1   4   8    0.14    0.33 
   0  -4   8   12.48    0.64 
   0  -4  -8   12.17    0.70 
   0   4   8   11.49    0.74 
   0   4  -8   13.21    0.73 
   1  -4   8    1.06    0.34 
  -1  -4  -8    0.97    0.35 
   1   4   8    1.05    0.38 
  -1   4  -8    0.95    0.37 
   2  -4   8   24.46    0.92 
  -2  -4  -8   25.12    0.91 
  -2   4  -8   23.54    0.92 
   2   4   8   26.18    0.94 
  -5  -5   8    1.95    0.38 
  -5   5   8    1.67    0.37 
  -4  -5   8    0.94    0.33 
  -4   5   8    0.95    0.34 
   4   5  -8    1.05    0.34 
  -3  -5   8    7.18    0.57 
   3   5  -8    5.73    0.48 
  -3   5   8    6.16    0.50 
  -2  -5   8    0.32    0.30 
  -2   5   8    0.10    0.33 
   2   5  -8    0.29    0.34 
   1  -5  -8    5.87    0.49 
  -1  -5   8    5.35    0.45 
  -1   5   8    5.16    0.48 
   1   5  -8    5.63    0.49 
   0  -5  -8   23.91    0.90 
   0  -5   8   23.72    0.85 
   0   5  -8   23.88    0.92 
   0   5   8   21.79    0.90 
  -1  -5  -8    0.48    0.33 
   1  -5   8   -0.22    0.31 
   1   5   8    0.05    0.35 
  -1   5  -8    0.01    0.33 
   2  -5   8   25.73    0.94 
  -2   5  -8   24.43    0.96 
   2   5   8   25.83    0.94 
  -4  -6   8    0.79    0.34 
   4   6  -8    0.46    0.33 
  -4   6   8    0.74    0.35 
  -3  -6   8   18.64    0.78 
  -3   6   8   19.60    0.84 
   3   6  -8   18.46    0.82 
  -2  -6   8    0.96    0.34 
  -2   6   8    1.08    0.37 
   2   6  -8    0.52    0.34 
  -1  -6   8    0.54    0.33 
   1   6  -8    0.41    0.34 
  -1   6   8   -0.02    0.34 
   0  -6   8   10.99    0.67 
   0   6   8   10.18    0.72 
   0   6  -8   10.23    0.71 
   1  -6   8   16.84    0.78 
   1   6   8   16.99    0.80 
  -1   6  -8   18.14    0.84 
   2  -6   8    4.43    0.49 
   2   6   8    4.73    0.47 
  -2   6  -8    4.61    0.50 
  -4  -7   8    0.86    0.36 
  -4   7   8    0.25    0.33 
   4   7  -8    0.87    0.35 
  -3  -7   8    4.21    0.45 
  -3   7   8    4.51    0.47 
   3   7  -8    3.80    0.44 
  -2  -7   8   18.15    0.80 
   2   7  -8   19.27    0.85 
  -2   7   8   18.99    0.85 
  -1  -7   8   35.60    1.10 
   1   7  -8   35.58    1.16 
  -1   7   8   37.13    1.14 
   0  -7   8    0.25    0.34 
   0   7  -8    0.22    0.35 
   0   7   8    0.30    0.35 
   1  -7   8    0.49    0.38 
   1   7   8   -0.05    0.34 
  -1   7  -8   -0.51    0.34 
  -4  -8   8   39.46    1.21 
  -4   8   8   39.13    1.18 
   4   8  -8   38.52    1.19 
  -3  -8   8   14.34    0.78 
   3   8  -8   14.13    0.77 
  -3   8   8   13.25    0.77 
  -2  -8   8    1.02    0.37 
   2   8  -8    1.00    0.37 
  -2   8   8    1.74    0.40 
  -1  -8   8    1.28    0.39 
  -1   8   8    1.75    0.40 
   1   8  -8    1.78    0.42 
   0  -8   8    7.80    0.58 
   0   8  -8    7.98    0.73 
   0   8   8    8.07    0.69 
   1  -8   8    4.18    0.50 
  -1   8  -8    5.13    0.52 
   1   8   8    4.17    0.46 
  -3  -9   8    0.41    0.38 
   3   9  -8    1.25    0.39 
  -3   9   8    1.18    0.38 
  -2  -9   8   30.48    1.04 
  -2   9   8   30.94    1.07 
   2   9  -8   27.11    1.06 
  -1  -9   8    1.50    0.41 
   1   9  -8    1.76    0.42 
  -1   9   8    0.59    0.38 
   0  -9   8    7.80    0.60 
   0   9   8    7.47    0.69 
   0   9  -8    7.86    0.60 
  -2 -10   8    0.29    0.38 
   2  10  -8    0.19    0.39 
  -2  10   8    0.27    0.38 
  -1 -10   8    3.95    0.48 
  -1  10   8    4.42    0.49 
   1  10  -8    4.69    0.52 
   0 -10   8    9.69    0.76 
   0  10  -8   10.67    0.80 
   0  10   8    9.65    0.74 
  -3   0   9    8.37    0.71 
   3   0  -9    7.82    0.71 
  -2   0   9    0.50    0.39 
   2   0  -9    0.51    0.38 
   1   0  -9    2.72    0.44 
  -1   0   9    3.12    0.49 
   3  -1  -9    0.83    0.38 
  -3  -1   9   -0.24    0.36 
  -3   1   9    0.06    0.37 
   3   1  -9    0.31    0.36 
  -2  -1   9   10.26    0.76 
   2  -1  -9   10.50    0.78 
   2   1  -9   11.50    0.76 
  -2   1   9   11.15    0.79 
   1  -1  -9   14.53    0.82 
  -1  -1   9   12.27    0.83 
  -1   1   9   13.87    0.82 
   1   1  -9   13.22    0.79 
   2  -2  -9    0.06    0.38 
  -2  -2   9    0.48    0.40 
   2   2  -9    1.89    0.41 
  -2   2   9    0.58    0.41 
   1  -2  -9    6.38    0.55 
  -1  -2   9    6.36    0.58 
   1   2  -9    6.53    0.57 
  -1   2   9    5.43    0.55 
  -2  -3   9    8.61    0.75 
   2  -3  -9    9.03    0.74 
  -2   3   9    8.67    0.74 
   2   3  -9    9.67    0.74 
   1  -3  -9    2.23    0.44 
  -1  -3   9    1.78    0.46 
   1   3  -9    1.53    0.42 
  -1   3   9    2.51    0.47 
   0   0   0    0.00    0.00 
;
_shelx_hkl_checksum              3624
loop_
_space_group_symop_operation_xyz
'x, y, z'
'-x+1/2, y+1/2, -z+1/2'
'-x, -y, -z'
'x-1/2, -y-1/2, z-1/2'
loop_
_atom_site_label
_atom_site_type_symbol
_atom_site_fract_x
_atom_site_fract_y
_atom_site_fract_z
_atom_site_U_iso_or_equiv
_atom_site_adp_type
_atom_site_occupancy
_atom_site_site_symmetry_order
_atom_site_calc_flag
_atom_site_refinement_flags_posn
_atom_site_refinement_flags_adp
Br1 Br 0.37403(3) 0.73953(2) 0.37951(3) 0.02536(7) Uani 1 1 d . .
Br2 Br 0.82463(4) 0.63628(2) 0.34874(3) 0.02382(7) Uani 1 1 d . .
C11 C 0.3590(3) 0.63162(12) 0.7152(3) 0.0182(4) Uani 1 1 d . .
H11 H 0.232715 0.662000 0.723245 0.022 Uiso 1 1 calc R U
C12 C 0.4729(3) 0.65126(12) 0.5657(3) 0.0179(4) Uani 1 1 d . .
C13 C 0.6626(3) 0.60621(12) 0.5514(3) 0.0174(4) Uani 1 1 d . .
C14 C 0.7331(3) 0.54262(12) 0.6859(3) 0.0182(4) Uani 1 1 d . .
H14 H 0.859629 0.513073 0.674149 0.022 Uiso 1 1 calc R U
C15 C 0.6178(3) 0.52012(12) 0.8445(3) 0.0166(4) Uani 1 1 d . .
C16 C 0.6858(3) 0.45496(12) 0.9846(3) 0.0183(4) Uani 1 1 d . .
H16 H 0.811057 0.424327 0.974024 0.022 Uiso 1 1 calc R U
C17 C 0.5717(3) 0.43427(12) 1.1403(3) 0.0170(4) Uani 1 1 d . .
loop_
_atom_site_aniso_label
_atom_site_aniso_U_11
_atom_site_aniso_U_22
_atom_site_aniso_U_33
_atom_site_aniso_U_23
_atom_site_aniso_U_13
_atom_site_aniso_U_12
Br1 0.02586(12) 0.02621(11) 0.02424(11) 0.01094(8) 0.00528(8) 0.00511(8)
Br2 0.02545(12) 0.02597(11) 0.02230(10) 0.00382(7) 0.01034(8) 0.00015(8)
C11 0.0180(9) 0.0172(9) 0.0189(9) 0.0003(7) 0.0017(7) 0.0017(7)
C12 0.0201(10) 0.0150(8) 0.0175(8) 0.0019(7) 0.0004(7) -0.0001(7)
C13 0.0193(9) 0.0181(9) 0.0151(8) -0.0014(7) 0.0041(7) -0.0033(7)
C14 0.0173(9) 0.0192(9) 0.0184(9) -0.0015(7) 0.0039(7) 0.0015(7)
C15 0.0184(9) 0.0158(8) 0.0156(8) -0.0010(7) 0.0033(7) 0.0007(7)
C16 0.0198(10) 0.0176(9) 0.0179(9) 0.0007(7) 0.0042(7) 0.0038(7)
C17 0.0189(10) 0.0157(8) 0.0159(8) -0.0007(7) 0.0021(7) 0.0004(7)
loop_
_atom_type_symbol
_atom_type_description
_atom_type_scat_dispersion_real
_atom_type_scat_dispersion_imag
_atom_type_scat_source
C C 0.0033 0.0016 'International Tables Vol C Tables 4.2.6.8 and 6.1.1.4'
H H 0.0000 0.0000 'International Tables Vol C Tables 4.2.6.8 and 6.1.1.4'
Br Br -0.2901 2.4595 'International Tables Vol C Tables 4.2.6.8 and 6.1.1.4'
loop_
_geom_angle_atom_site_label_1
_geom_angle_atom_site_label_2
_geom_angle_atom_site_label_3
_geom_angle
_geom_angle_site_symmetry_1
_geom_angle_site_symmetry_3
C12 C11 C17 120.44(19) . 3_667
C12 C11 H11 119.8 . .
C17 C11 H11 119.8 3_667 .
C11 C12 C13 120.45(17) . .
C11 C12 Br1 118.52(15) . .
C13 C12 Br1 121.03(14) . .
C14 C13 C12 120.82(18) . .
C14 C13 Br2 119.01(15) . .
C12 C13 Br2 120.15(14) . .
C13 C14 C15 120.35(18) . .
C13 C14 H14 119.8 . .
C15 C14 H14 119.8 . .
C16 C15 C14 121.72(18) . .
C16 C15 C17 119.45(17) . 3_667
C14 C15 C17 118.83(17) . 3_667
C15 C16 C17 120.92(18) . .
C15 C16 H16 119.5 . .
C17 C16 H16 119.5 . .
C16 C17 C11 121.26(18) . 3_667
C16 C17 C15 119.63(17) . 3_667
C11 C17 C15 119.11(18) 3_667 3_667
loop_
_geom_bond_atom_site_label_1
_geom_bond_atom_site_label_2
_geom_bond_distance
_geom_bond_site_symmetry_2
Br1 C12 1.8903(19) .
Br2 C13 1.8943(19) .
C11 C12 1.363(3) .
C11 C17 1.427(3) 3_667
C11 H11 0.9500 .
C12 C13 1.426(3) .
C13 C14 1.362(3) .
C14 C15 1.429(3) .
C14 H14 0.9500 .
C15 C16 1.399(3) .
C15 C17 1.431(3) 3_667
C16 C17 1.401(3) .
C16 H16 0.9500 .
loop_
_geom_torsion_atom_site_label_1
_geom_torsion_atom_site_label_2
_geom_torsion_atom_site_label_3
_geom_torsion_atom_site_label_4
_geom_torsion
_geom_torsion_site_symmetry_1
_geom_torsion_site_symmetry_4
C17 C11 C12 C13 0.1(3) 3_667 .
C17 C11 C12 Br1 -179.68(14) 3_667 .
C11 C12 C13 C14 0.3(3) . .
Br1 C12 C13 C14 -179.97(15) . .
C11 C12 C13 Br2 -178.00(15) . .
Br1 C12 C13 Br2 1.7(2) . .
C12 C13 C14 C15 -0.2(3) . .
Br2 C13 C14 C15 178.12(14) . .
C13 C14 C15 C16 179.81(18) . .
C13 C14 C15 C17 -0.2(3) . 3_667
C14 C15 C16 C17 179.44(18) . .
C17 C15 C16 C17 -0.5(3) 3_667 .
C15 C16 C17 C11 -179.47(18) . 3_667
C15 C16 C17 C15 0.5(3) . 3_667
