#------------------------------------------------------------------------------
#$Date: 2019-11-11 18:44:18 +0200 (Mon, 11 Nov 2019) $
#$Revision: 226927 $
#$URL: file:///home/coder/svn-repositories/cod/cif/4/03/54/4035472.cif $
#------------------------------------------------------------------------------
#
# This file is available in the Crystallography Open Database (COD),
# http://www.crystallography.net/
#
# All data on this site have been placed in the public domain by the
# contributors.
#
data_4035472
loop_
_publ_author_name
'Tsai, Yi-Hsuan'
'Borini Etichetti, Carla M.'
'Di Benedetto, Carolina'
'Girardini, Javier E.'
'Martins, Felipe Terra'
'Spanevello, Rolando A.'
'Su\'arez, Alejandra G'
'Sarotti, Ariel M.'
_publ_section_title
;
 Synthesis of Triazole Derivatives of Levoglucosenone As Promising
 Anticancer Agents: Effective Exploration of the Chemical Space through
 retro-aza-Michael//aza-Michael Isomerizations.
;
_journal_issue                   7
_journal_name_full               'The Journal of organic chemistry'
_journal_page_first              3516
_journal_page_last               3528
_journal_paper_doi               10.1021/acs.joc.7b03141
_journal_volume                  83
_journal_year                    2018
_chemical_absolute_configuration unk
_chemical_formula_sum            'C14 H15 N3 O4'
_chemical_formula_weight         289.29
_space_group_crystal_system      monoclinic
_space_group_IT_number           4
_space_group_name_Hall           'P 2yb'
_space_group_name_H-M_alt        'P 1 21 1'
_atom_sites_solution_hydrogens   mixed
_audit_creation_method           SHELXL-2014
_cell_angle_alpha                90
_cell_angle_beta                 93.525(4)
_cell_angle_gamma                90
_cell_formula_units_Z            2
_cell_length_a                   6.2149(17)
_cell_length_b                   5.5203(15)
_cell_length_c                   19.393(5)
_cell_measurement_reflns_used    2.104
_cell_measurement_temperature    296(2)
_cell_measurement_theta_max      5770
_cell_measurement_theta_min      25.051
_cell_volume                     664.1(3)
_computing_structure_refinement  'SHELXL-2014 (Sheldrick, 2014)'
_diffrn_ambient_temperature      296(2)
_diffrn_measured_fraction_theta_full 0.972
_diffrn_measured_fraction_theta_max 0.991
_diffrn_measurement_device_type  KappaCCD
_diffrn_radiation_monochromator  multilayer
_diffrn_radiation_source         'fine-focus sealed tube'
_diffrn_radiation_type           MoK\a
_diffrn_radiation_wavelength     0.71073
_diffrn_reflns_av_R_equivalents  0.0287
_diffrn_reflns_av_unetI/netI     0.0469
_diffrn_reflns_Laue_measured_fraction_full 0.972
_diffrn_reflns_Laue_measured_fraction_max 0.991
_diffrn_reflns_limit_h_max       5
_diffrn_reflns_limit_h_min       -7
_diffrn_reflns_limit_k_max       5
_diffrn_reflns_limit_k_min       -6
_diffrn_reflns_limit_l_max       23
_diffrn_reflns_limit_l_min       -22
_diffrn_reflns_number            5770
_diffrn_reflns_point_group_measured_fraction_full 0.864
_diffrn_reflns_point_group_measured_fraction_max 0.881
_diffrn_reflns_theta_full        25.242
_diffrn_reflns_theta_max         25.051
_diffrn_reflns_theta_min         2.104
_exptl_absorpt_coefficient_mu    0.108
_exptl_absorpt_correction_T_max  0.995
_exptl_absorpt_correction_T_min  0.942
_exptl_absorpt_correction_type   multi-scan
_exptl_absorpt_process_details
'Blessing, R. H. (1995) Acta Cryst., A51, 33-38'
_exptl_crystal_colour            colorless
_exptl_crystal_density_diffrn    1.447
_exptl_crystal_description       plate
_exptl_crystal_F_000             304
_exptl_crystal_size_max          0.25
_exptl_crystal_size_mid          0.10
_exptl_crystal_size_min          0.05
_refine_diff_density_max         0.169
_refine_diff_density_min         -0.225
_refine_diff_density_rms         0.042
_refine_ls_abs_structure_details
;
 Flack x determined using 551 quotients [(I+)-(I-)]/[(I+)+(I-)]
 (Parsons, Flack and Wagner, Acta Cryst. B69 (2013) 249-259).
;
_refine_ls_abs_structure_Flack   0.4(9)
_refine_ls_extinction_method     none
_refine_ls_goodness_of_fit_ref   1.054
_refine_ls_hydrogen_treatment    mixed
_refine_ls_matrix_type           full
_refine_ls_number_parameters     196
_refine_ls_number_reflns         2078
_refine_ls_number_restraints     1
_refine_ls_restrained_S_all      1.053
_refine_ls_R_factor_all          0.0548
_refine_ls_R_factor_gt           0.0417
_refine_ls_shift/su_max          0.000
_refine_ls_shift/su_mean         0.000
_refine_ls_structure_factor_coef Fsqd
_refine_ls_weighting_details
'w=1/[\s^2^(Fo^2^)+(0.0469P)^2^+0.0676P] where P=(Fo^2^+2Fc^2^)/3'
_refine_ls_weighting_scheme      calc
_refine_ls_wR_factor_gt          0.0892
_refine_ls_wR_factor_ref         0.0951
_reflns_Friedel_coverage         0.596
_reflns_Friedel_fraction_full    0.727
_reflns_Friedel_fraction_max     0.743
_reflns_number_gt                1728
_reflns_number_total             2078
_reflns_threshold_expression     'I > 2\s(I)'
_cod_data_source_file            jo7b03141_si_003.cif
_cod_data_source_block           AT270A
_cod_original_sg_symbol_H-M      'P 21'
_cod_database_code               4035472
_shelx_space_group_comment
;
The symmetry employed for this shelxl refinement is uniquely defined
by the following loop, which should always be used as a source of
symmetry information in preference to the above space-group names.
They are only intended as comments.
;
_shelxl_version_number           2014-3
_shelx_res_file
;
TITL mo_Ariel_0m in P2(1)
CELL  0.71073   6.2149   5.5203  19.3935   90.000   93.525   90.000
ZERR     2.00   0.0017   0.0015   0.0053    0.000    0.004    0.000
LATT  -1
SYMM  - X, 1/2 + Y, - Z
SFAC  C    H    N    O
UNIT  28   30   6    8
MERG   2
EQIV $1 x, y-1, z
HTAB C7 N3_$1
HTAB C5 N2_$1
EQIV $2 -x, y-1/2, -z+1
HTAB C2 O1_$2
EQIV $3 x-1, y, z
HTAB C3 N3_$3
HTAB C3 N2
EQIV $4 -x+1, y-1/2, -z+1
HTAB O4 O1_$4
HTAB O1 O2_$2
FMAP   2
PLAN   20
ACTA
BOND   $H
CONF
L.S.  10
TEMP    23.00
WGHT    0.046900    0.067600
FVAR       0.33055
O3    4    0.023795    0.477676    0.645760    11.00000    0.03047    0.02839 =
         0.03925    0.00206    0.00399   -0.00306
O4    4    0.300068    0.280463    0.555556    11.00000    0.03159    0.02578 =
         0.04647   -0.00136    0.00481    0.00272
O1    4    0.294134    0.629111    0.489675    11.00000    0.03248    0.03414 =
         0.03105    0.00064   -0.00074   -0.00596
O2    4    0.003343    0.826303    0.585645    11.00000    0.03409    0.02715 =
         0.03803   -0.00102   -0.00273    0.00484
N1    3    0.519317    0.740568    0.730648    11.00000    0.03514    0.02392 =
         0.03306    0.00078   -0.00321    0.00099
N2    3    0.525000    0.984936    0.730716    11.00000    0.04226    0.02448 =
         0.04821    0.00043   -0.00838    0.00146
N3    3    0.673413    1.049674    0.778683    11.00000    0.04870    0.03045 =
         0.03985   -0.00400   -0.00831    0.00022
C12   1    1.305771    0.857282    0.951226    11.00000    0.05840    0.08119 =
         0.06888   -0.00819   -0.02724    0.00786
AFIX  43
H12   2    1.427419    0.857056    0.981652    11.00000   -1.20000
AFIX   0
C13   1    1.278249    1.036367    0.902737    11.00000    0.04717    0.07425 =
         0.06675   -0.01053   -0.01004   -0.01669
AFIX  43
H13   2    1.381295    1.157672    0.900187    11.00000   -1.20000
AFIX   0
C14   1    1.097331    1.037203    0.857503    11.00000    0.05327    0.05301 =
         0.04936   -0.00279   -0.00848   -0.00709
AFIX  43
H14   2    1.078568    1.160309    0.824952    11.00000   -1.20000
AFIX   0
C9    1    0.944329    0.856657    0.860298    11.00000    0.03772    0.03989 =
         0.03676   -0.00547   -0.00327    0.00324
C8    1    0.760370    0.847437    0.808865    11.00000    0.03535    0.02907 =
         0.03235   -0.00169    0.00160    0.00242
C7    1    0.660797    0.650505    0.778249    11.00000    0.03729    0.02883 =
         0.03468    0.00246   -0.00341    0.00381
AFIX  43
H7    2    0.686501    0.488111    0.788516    11.00000   -1.20000
AFIX   0
C5    1    0.380091    0.606196    0.680437    11.00000    0.03103    0.02274 =
         0.03432    0.00273   -0.00334    0.00027
AFIX  13
H5    2    0.405528    0.433336    0.689081    11.00000   -1.20000
AFIX   0
C4    1    0.140232    0.653615    0.688435    11.00000    0.03334    0.03249 =
         0.03326    0.00138    0.00585    0.00161
AFIX  13
H4    2    0.104650    0.639754    0.736809    11.00000   -1.20000
AFIX   0
C2    1    0.043908    0.574112    0.579143    11.00000    0.02760    0.02450 =
         0.03453    0.00214   -0.00167   -0.00196
AFIX  13
H2    2   -0.061889    0.500199    0.545982    11.00000   -1.20000
AFIX   0
C1    1    0.272673    0.533397    0.556729    11.00000    0.03259    0.02267 =
         0.03248   -0.00031    0.00225    0.00050
C3    1    0.058329    0.889671    0.657056    11.00000    0.03440    0.03287 =
         0.03662   -0.00338    0.00227    0.00660
AFIX  23
H3A   2   -0.067171    0.947010    0.679561    11.00000   -1.20000
H3B   2    0.169151    1.013565    0.660456    11.00000   -1.20000
AFIX   0
C11   1    1.155082    0.679185    0.954989    11.00000    0.07191    0.06824 =
         0.06632    0.01261   -0.02920   -0.00165
AFIX  43
H11   2    1.173332    0.558865    0.988402    11.00000   -1.20000
AFIX   0
C10   1    0.976321    0.676595    0.909640    11.00000    0.05722    0.05125 =
         0.05272    0.00915   -0.01386   -0.00237
AFIX  43
H10   2    0.875719    0.552658    0.912089    11.00000   -1.20000
AFIX   0
C6    1    0.436480    0.657489    0.605914    11.00000    0.02255    0.03449 =
         0.03389    0.00271    0.00304   -0.00109
AFIX  23
H6A   2    0.434867    0.830702    0.597488    11.00000   -1.20000
H6B   2    0.579858    0.597140    0.598570    11.00000   -1.20000
AFIX   0
H3    2    0.427431    0.248605    0.545174    11.00000   -1.50000
H4    2    0.194960    0.539547    0.462043    11.00000   -1.50000
HKLF    4  1.0  1.00  0.00  0.00  0.00  1.00  0.00  0.00  0.00  1.00

REM  mo_Ariel_0m in P2(1)
REM R1 =  0.0417 for    1728 Fo > 4sig(Fo)  and  0.0548 for all    2078 data
REM    196 parameters refined using      1 restraints

END

WGHT      0.0451      0.0818

REM Highest difference peak  0.169,  deepest hole -0.225,  1-sigma level  0.042
Q1    1   0.7091  0.6377  0.6803  11.00000  0.05    0.17
Q2    1  -0.0848  0.6738  0.7578  11.00000  0.05    0.14
Q3    1   0.3253  0.8345  0.5773  11.00000  0.05    0.14
Q4    1   0.1595  0.4984  0.8109  11.00000  0.05    0.13
Q5    1   0.6326  0.4542  0.6422  11.00000  0.05    0.13
Q6    1  -0.1266  0.3126  0.6604  11.00000  0.05    0.13
Q7    1   0.5755  0.3155  0.5391  11.00000  0.05    0.13
Q8    1   0.9330  1.2440  0.8359  11.00000  0.05    0.12
Q9    1   0.4382  0.4883  0.4651  11.00000  0.05    0.12
Q10   1   0.4122  0.8913  0.6174  11.00000  0.05    0.12
Q11   1   0.6395  0.6483  0.5742  11.00000  0.05    0.12
Q12   1   0.3202  0.1841  0.5095  11.00000  0.05    0.12
Q13   1  -0.0560  0.3119  0.5501  11.00000  0.05    0.12
Q14   1   0.4676  0.1349  0.6259  11.00000  0.05    0.12
Q15   1   0.7130  0.4733  0.7681  11.00000  0.05    0.12
Q16   1   1.2363  1.3727  0.7868  11.00000  0.05    0.11
Q17   1   0.8443  0.3535  0.7431  11.00000  0.05    0.11
Q18   1   0.4034  0.7642  0.7792  11.00000  0.05    0.11
Q19   1  -0.1418  1.1548  0.6251  11.00000  0.05    0.11
Q20   1   0.6271  1.0488  0.6902  11.00000  0.05    0.11
;
_shelx_res_checksum              29124
_shelx_hkl_file
;
  -1   0   0   45.25    1.00
  -1   0   0   44.71    1.09
  -2   0   0   35.94    1.00
  -2   0   0   33.33    1.09
  -2   0   0   33.71    0.94
  -3   0   0  162.95    3.60
  -3   0   0  170.52    3.70
  -3   0   0  166.66    3.51
  -3   0   0  163.40    3.72
  -4   0   0   41.12    1.48
  -4   0   0   38.86    1.44
  -4   0   0   43.04    1.49
  -5   0   0   12.93    0.89
  -5   0   0   11.07    0.87
  -5   0   0   11.65    0.81
  -6   0   0    2.11    0.59
  -6   0   0    3.61    0.54
  -7   0   0    4.26    0.57
   0  -1   0   -0.01    0.10
   0  -1   0   -0.02    0.14
   0  -1   0   -0.30    0.13
   0  -1   0   -0.11    0.15
   0   1   0   -0.08    0.10
   0   1   0   -0.30    0.19
   0   1   0   -0.18    0.12
   0   1   0   -0.22    0.13
  -1  -1   0   86.55    1.75
   1  -1   0   83.76    2.19
  -1  -1   0   87.85    1.70
   1  -1   0   87.86    2.29
   1  -1   0   88.95    2.09
  -1  -1   0   84.86    1.78
  -1  -1   0   86.43    1.91
  -1  -1   0   87.63    1.84
  -1   1   0   85.18    2.28
   1   1   0   87.63    1.87
  -1   1   0   86.73    2.21
  -1   1   0   85.74    2.39
  -2  -1   0   10.05    0.31
   2  -1   0   10.72    0.71
   2  -1   0    9.74    0.68
  -2  -1   0    9.57    0.45
   2  -1   0   10.34    0.63
  -2  -1   0   11.18    0.30
  -2   1   0   10.26    0.70
  -2   1   0    9.18    0.82
   2   1   0   10.63    0.47
  -2   1   0    9.75    0.73
  -3  -1   0    4.79    0.20
  -3  -1   0    4.75    0.25
   3  -1   0    4.87    0.53
   3   1   0    4.88    0.37
  -3   1   0    4.30    0.64
  -3   1   0    3.39    0.55
  -4  -1   0    2.47    0.19
  -4  -1   0    2.30    0.28
  -4   1   0    3.05    0.66
  -4   1   0    2.23    0.55
  -4   1   0    2.79    0.55
  -5  -1   0    5.78    0.30
  -5  -1   0    6.07    0.49
  -5  -1   0    4.98    0.44
  -5   1   0    5.56    0.90
  -5   1   0    7.26    1.04
  -6  -1   0    0.17    0.24
  -6   1   0    0.11    0.46
  -6   1   0    0.07    0.39
  -7   1   0    0.84    0.52
   0  -2   0   88.39    2.04
   0  -2   0   92.15    2.34
   0  -2   0   87.64    2.32
   0  -2   0   86.86    2.52
   0  -2   0   92.26    2.50
   0  -2   0   85.85    2.20
   0   2   0   92.76    2.38
   0   2   0   86.65    2.39
   0   2   0   92.57    2.75
  -1  -2   0   39.68    1.28
  -1  -2   0   42.20    1.16
  -1  -2   0   43.93    1.24
   1  -2   0   40.69    1.47
  -1  -2   0   39.45    1.31
   1  -2   0   41.71    1.72
   1  -2   0   41.58    1.62
   1   2   0   40.32    1.28
  -1   2   0   42.40    1.88
  -1   2   0   41.46    1.69
  -1   2   0   43.33    1.58
  -2  -2   0   18.81    0.75
  -2  -2   0   19.36    0.63
  -2  -2   0   20.03    0.75
   2  -2   0   18.70    1.13
   2  -2   0   19.37    1.05
  -2  -2   0   19.37    0.75
  -2  -2   0   19.21    0.73
   2  -2   0   21.42    1.26
  -2  -2   0   20.98    0.86
  -2   2   0   19.65    1.13
   2   2   0   19.62    0.82
  -2   2   0   19.74    1.25
  -2   2   0   19.58    1.40
  -3  -2   0    3.78    0.30
   3  -2   0    3.93    0.66
  -3  -2   0    4.19    0.24
  -3  -2   0    4.12    0.20
   3  -2   0    3.60    0.56
  -3  -2   0    3.92    0.42
  -3   2   0    4.82    0.90
   3   2   0    3.12    0.40
  -3   2   0    3.87    0.65
  -4   2   0   17.71    1.38
  -4   2   0   16.36    1.45
  -5  -2   0    1.39    0.21
  -5  -2   0    1.18    0.24
  -5   2   0    2.31    0.73
  -6   2   0    0.35    0.49
  -7   2   0    1.07    0.64
   0  -3   0   -0.03    0.16
   0  -3   0   -0.19    0.24
   0  -3   0    0.13    0.22
   0  -3   0   -0.06    0.23
   0  -3   0    0.14    0.25
   0  -3   0   -0.07    0.13
   0  -3   0   -0.15    0.09
   0   3   0   -0.35    0.25
   0   3   0   -0.18    0.17
  -1  -3   0   48.71    1.87
   1  -3   0   47.15    2.03
   1  -3   0   47.85    1.89
  -1  -3   0   48.73    1.57
  -1  -3   0   50.56    1.50
  -1  -3   0   49.53    1.91
   1  -3   0   46.66    2.14
   1   3   0   49.63    1.69
  -1   3   0   48.61    1.92
   1   3   0   45.01    2.00
  -1   3   0   51.05    2.39
  -1   3   0   49.27    2.08
   2  -3   0   23.21    1.32
  -2  -3   0   22.50    1.09
  -2  -3   0   22.44    1.13
  -2  -3   0   24.14    0.99
  -2  -3   0   24.72    1.07
  -2  -3   0   22.18    1.04
  -2  -3   0   25.18    0.97
   2  -3   0   23.10    1.55
   2   3   0   24.39    1.12
  -2   3   0   24.24    1.75
  -3  -3   0    1.85    0.32
   3  -3   0    1.69    0.51
  -3  -3   0    1.82    0.32
  -3  -3   0    1.27    0.29
  -3  -3   0    1.50    0.32
  -3  -3   0    2.02    0.39
  -3  -3   0    1.70    0.32
  -3   3   0    0.95    0.58
  -4  -3   0   10.51    0.54
  -4  -3   0    9.79    0.51
  -4  -3   0   10.02    0.69
  -4   3   0    8.82    1.48
  -5  -3   0    0.62    0.19
  -5   3   0    0.57    0.63
  -6   3   0    1.90    0.85
   0  -4   0   12.07    0.80
   0  -4   0   14.95    0.96
   0  -4   0   13.53    1.17
   0  -4   0   13.91    1.07
   1  -4   0    5.75    0.85
  -1  -4   0    6.34    0.59
  -1  -4   0    7.07    0.97
  -1  -4   0    6.93    0.59
  -1   4   0    6.23    1.24
  -2  -4   0    7.43    0.84
  -2  -4   0    8.35    1.01
  -2  -4   0    9.00    0.65
   2  -4   0    9.52    1.15
  -2   4   0    9.74    1.53
  -3  -4   0   16.96    1.15
  -3  -4   0   16.58    0.90
  -3  -4   0   17.63    1.20
  -3  -4   0   16.98    1.00
  -3   4   0   19.52    2.29
  -4  -4   0    6.21    0.55
  -4  -4   0    7.85    0.74
  -4   4   0    7.32    1.49
  -5   4   0    1.77    1.00
   0  -5   0    0.02    0.34
   0  -5   0    0.17    0.23
   1  -5   0    0.05    0.23
  -1  -5   0    0.70    0.30
   1  -5   0    0.27    0.36
  -1  -5   0    0.49    0.37
  -2  -5   0    0.33    0.23
  -2  -5   0    0.27    0.51
  -2  -5   0    0.21    0.35
   2  -5   0    0.34    0.42
  -3  -5   0    2.47    0.57
  -3  -5   0    1.24    0.36
  -3   5   0    1.01    0.88
  -4  -5   0    1.88    0.47
  -4   5   0    2.31    1.22
   0  -6   0    7.15    0.89
   0  -6   0    6.33    1.07
   1  -6   0    3.44    0.85
  -1  -6   0    2.55    0.55
   1  -6   0    3.21    0.66
  -1  -6   0    2.60    0.68
   2  -6   0    0.61    0.47
   2  -6   0    0.32    0.34
  -2  -6   0    0.16    0.24
  -2  -6   0    0.26    0.37
  -3  -6   0    0.25    0.29
  -3  -6   0    0.35    0.44
  -7   0   1    1.41    0.40
  -6   0   1    0.23    0.29
  -6   0   1    0.57    0.43
  -5   0   1    0.26    0.29
  -5   0   1    0.73    0.32
  -5   0   1    0.59    0.33
  -4   0   1   26.50    1.12
  -4   0   1   25.62    1.11
  -4   0   1   26.91    1.19
  -3   0   1  118.96    2.65
  -3   0   1  117.78    2.90
  -3   0   1  120.32    2.74
  -3   0   1  119.68    2.77
  -2   0   1  130.18    2.69
  -2   0   1  126.00    2.64
  -2   0   1  131.40    2.87
  -1   0   1    2.81    0.27
  -1   0   1    2.82    0.16
  -1   0  -1   27.85    0.73
   1   0   1   27.20    0.69
  -1   0  -1   27.06    0.72
   1   0   1   26.70    0.71
  -2   0  -1    3.67    0.31
  -2   0  -1    4.07    0.42
  -2   0  -1    3.94    0.35
   2   0   1    3.99    0.25
  -3   0  -1    8.30    0.59
  -3   0  -1    7.16    0.49
  -3   0  -1    4.73    0.45
  -4   0  -1    9.89    0.69
  -4   0  -1    9.65    0.70
  -4   0  -1    9.85    0.69
  -5   0  -1   -0.04    0.25
  -5   0  -1   -0.32    0.21
  -5   0  -1   -0.01    0.24
  -6   0  -1    0.21    0.39
  -6   0  -1    0.22    0.27
  -7   0  -1    9.27    0.71
  -7   1   1    0.29    0.48
  -6  -1   1    3.35    0.49
  -6   1   1    3.96    0.82
  -6   1   1    4.03    0.87
  -5  -1   1    4.20    0.38
  -5  -1   1    3.66    0.44
  -5   1   1    3.14    0.70
  -5   1   1    3.51    0.76
  -4   1   1   26.93    1.39
  -4   1   1   24.82    1.43
  -4   1   1   27.43    1.56
   3  -1  -1   22.76    0.98
  -3   1   1   26.23    1.31
  -3   1   1   26.29    1.23
   3   1  -1   26.18    0.91
   2  -1  -1   50.67    1.52
   2  -1  -1   48.85    1.58
   2  -1  -1   50.15    1.61
  -2  -1   1   52.58    1.28
   2   1  -1   51.90    1.29
  -2   1   1   51.30    1.68
  -2   1   1   52.57    1.77
   1  -1  -1   94.08    2.32
  -1  -1   1   92.96    2.02
   1  -1  -1   89.11    2.17
   1  -1  -1   88.42    2.36
  -1  -1   1   90.92    1.82
  -1  -1   1   93.26    1.87
  -1  -1   1   94.01    1.90
  -1   1   1   95.12    2.44
   1   1  -1   93.80    1.95
  -1   1   1   91.18    2.51
  -1   1   1   94.27    2.36
   0  -1   1  446.30    8.42
   0  -1  -1  431.56    6.87
   0  -1  -1  438.81    8.21
   0  -1   1  428.32    8.54
   0  -1   1  440.74    8.13
   0  -1  -1  438.76    8.16
   0  -1  -1  451.36    8.55
   0  -1  -1  429.84    8.47
   0  -1   1  433.01    8.14
   0   1  -1  467.18    8.37
   0   1  -1  438.71    8.51
   0   1  -1  427.75    8.40
   0   1   1  436.60    8.49
   0   1   1  425.98    8.41
   0   1   1  435.58    8.22
   0   1  -1  442.34    6.73
   0   1   1  425.71    8.40
  -1  -1  -1  167.48    3.28
  -1  -1  -1  169.43    3.45
  -1  -1  -1  165.82    3.27
   1  -1   1  174.21    3.84
   1  -1   1  166.93    3.55
  -1  -1  -1  168.03    3.16
  -1  -1  -1  171.62    3.37
   1  -1   1  172.38    3.77
   1   1   1  165.92    3.22
   1   1   1  169.54    3.17
  -1   1  -1  167.37    3.86
  -1   1  -1  172.84    3.72
  -1   1  -1  171.49    3.93
   1   1   1  165.90    3.38
   2  -1   1   73.54    2.04
  -2  -1  -1   73.81    1.49
  -2  -1  -1   71.84    1.70
  -2  -1  -1   71.55    1.46
   2  -1   1   70.68    1.90
   2  -1   1   71.65    2.06
  -2   1  -1   72.09    2.19
  -2   1  -1   73.10    2.33
   2   1   1   73.25    1.74
  -2   1  -1   71.52    2.09
  -3  -1  -1    7.02    0.33
   3  -1   1    5.59    0.50
  -3  -1  -1    6.21    0.33
  -3  -1  -1    7.36    0.30
  -3   1  -1    6.46    0.72
   3   1   1    7.00    0.45
  -3   1  -1    5.90    0.74
  -4  -1  -1    7.63    0.35
  -4  -1  -1    7.95    0.47
  -4  -1  -1    7.70    0.46
  -4   1  -1    4.21    0.73
  -4   1  -1    7.75    0.86
  -4   1  -1    7.68    0.93
  -5  -1  -1   28.04    1.09
  -5  -1  -1   28.63    1.11
  -5  -1  -1   28.09    0.82
  -5   1  -1   30.33    1.75
  -5   1  -1   28.31    1.63
  -6  -1  -1    3.39    0.49
  -6  -1  -1    3.23    0.28
  -6   1  -1    2.23    0.63
  -6   1  -1    3.31    0.84
  -7   1  -1    1.84    0.60
  -7   2   1    1.13    0.69
  -6   2   1    2.15    0.80
  -5   2   1   10.10    1.37
  -5   2   1    8.03    1.23
  -4   2   1   15.03    1.30
  -4   2   1   13.10    1.54
  -3  -2   1    2.05    0.17
  -3  -2   1    2.56    0.21
  -3  -2   1    2.01    0.29
   3  -2  -1    1.79    0.45
   3  -2  -1    2.41    0.53
  -3   2   1    3.22    0.76
  -3   2   1    1.89    0.53
   3   2  -1    2.14    0.33
   2  -2  -1   31.62    1.36
  -2  -2   1   32.12    0.86
  -2  -2   1   32.39    1.13
  -2  -2   1   31.15    0.95
  -2  -2   1   29.96    0.95
  -2  -2   1   29.64    0.97
   2  -2  -1   29.06    1.41
  -2  -2   1   30.92    0.90
   2  -2  -1   31.09    1.53
   2   2  -1   33.05    1.09
  -2   2   1   31.17    1.56
  -2   2   1   32.56    1.75
  -2   2   1   31.94    1.50
   1  -2  -1   36.01    1.39
  -1  -2   1   37.96    1.29
   1  -2  -1   38.21    1.56
  -1  -2   1   38.96    1.12
   1  -2  -1   38.70    1.62
  -1  -2   1   37.19    1.20
   1  -2  -1   38.69    1.44
  -1  -2   1   37.36    1.06
  -1   2   1   38.67    1.60
  -1   2   1   38.51    1.54
   1   2  -1   39.47    0.81
   1   2  -1   39.43    1.22
  -1   2   1   39.78    1.83
   0  -2  -1    6.67    0.70
   0  -2   1    5.35    0.56
   0  -2  -1    6.60    0.69
   0  -2   1    6.02    0.68
   0  -2  -1    6.59    0.48
   0  -2   1    6.28    0.45
   0  -2  -1    6.14    0.32
   0  -2  -1    6.57    0.56
   0  -2   1    5.25    0.40
   0  -2   1    5.84    0.53
   0   2  -1    6.57    0.78
   0   2  -1    6.79    0.51
   0   2  -1    5.84    0.62
   0   2   1    6.40    0.80
   0   2   1    5.90    0.52
   0   2   1    6.77    0.57
   1  -2   1  100.18    2.95
  -1  -2  -1  100.06    2.34
  -1  -2  -1   96.85    2.19
   1  -2   1   95.34    2.80
  -1  -2  -1  101.42    2.45
   1  -2   1   98.43    2.62
  -1   2  -1  100.79    3.14
  -1   2  -1  102.71    2.76
   1   2   1   99.56    2.18
   1   2   1   99.92    2.45
  -1   2  -1   98.31    2.93
   2  -2   1   62.20    2.01
  -2  -2  -1   64.15    1.70
  -2  -2  -1   60.62    1.73
   2  -2   1   62.30    2.18
  -2  -2  -1   63.44    1.67
   2  -2   1   63.37    2.26
  -2  -2  -1   62.31    1.62
  -2  -2  -1   62.05    1.57
  -2   2  -1   60.11    2.48
   2   2   1   61.70    1.73
  -2   2  -1   63.85    2.36
  -2   2  -1   60.04    2.11
  -3  -2  -1    3.21    0.38
  -3  -2  -1    3.13    0.22
  -3  -2  -1    3.22    0.33
  -3  -2  -1    3.24    0.25
   3  -2   1    3.33    0.61
  -3  -2  -1    3.41    0.37
   3  -2   1    3.24    0.55
  -3   2  -1    3.07    0.59
  -3   2  -1    3.96    0.82
  -4  -2  -1    6.26    0.33
  -4  -2  -1    6.33    0.35
  -4   2  -1    6.12    1.00
  -4   2  -1    5.96    1.05
  -5  -2  -1    5.24    0.45
  -5  -2  -1    6.57    0.39
  -5   2  -1    6.78    1.16
  -6   2  -1    4.19    0.95
  -7   2  -1    2.90    0.84
  -6   3   1    4.96    1.19
  -5  -3   1    1.14    0.21
  -5   3   1    0.11    0.57
  -4  -3   1   22.07    0.79
  -4  -3   1   22.64    0.97
  -4  -3   1   23.05    0.69
  -4   3   1   23.74    1.95
  -3  -3   1    7.53    0.52
  -3  -3   1    6.01    0.54
  -3  -3   1    7.83    0.54
  -3  -3   1    6.23    0.48
   3  -3  -1    6.04    0.86
  -3   3   1    7.50    1.28
  -2  -3   1   11.29    0.77
  -2  -3   1   11.19    0.63
  -2  -3   1   10.63    0.75
  -2  -3   1   10.37    0.70
  -2  -3   1   10.84    0.61
   2  -3  -1    9.60    1.18
   2  -3  -1    8.94    0.98
   2   3  -1   11.07    0.42
  -2   3   1   12.04    1.49
   2   3  -1   12.00    0.75
  -1  -3   1   77.81    2.01
   1  -3  -1   78.76    2.53
   1  -3  -1   81.75    2.91
  -1  -3   1   74.41    2.45
  -1  -3   1   80.65    2.59
   1  -3  -1   79.69    2.42
  -1  -3   1   77.68    2.11
   1  -3  -1   75.22    2.52
   1  -3  -1   75.20    2.74
  -1   3   1   83.56    2.70
   1   3  -1   81.57    2.30
  -1   3   1   75.72    3.04
  -1   3   1   76.93    2.69
   1   3  -1   76.67    2.66
   0  -3  -1   10.61    0.82
   0  -3   1   11.56    0.72
   0  -3  -1   11.48    0.86
   0  -3  -1   11.18    0.48
   0  -3  -1   11.56    0.67
   0  -3   1   10.43    0.96
   0  -3   1   13.16    0.87
   0  -3  -1   10.91    0.73
   0  -3   1   11.31    0.66
   0  -3  -1   11.41    0.99
   0  -3  -1   11.05    0.91
   0   3  -1   11.28    0.84
   0   3   1   10.08    1.18
   0   3   1   10.58    0.78
   0   3  -1   10.41    1.21
  -1  -3  -1   89.92    2.71
   1  -3   1   80.50    2.84
  -1  -3  -1   86.81    2.35
   1  -3   1   85.72    3.03
   1  -3   1   87.39    2.69
  -1  -3  -1   86.49    2.20
  -1  -3  -1   83.43    2.69
   1   3   1   82.70    2.87
   1   3   1   91.57    2.52
  -1   3  -1   82.84    3.21
  -1   3  -1   87.39    2.73
  -1   3  -1   85.61    2.94
  -2  -3  -1   27.30    1.31
  -2  -3  -1   26.95    1.04
  -2  -3  -1   27.09    1.08
   2  -3   1   24.71    1.58
  -2  -3  -1   27.94    1.17
  -2  -3  -1   26.13    1.18
   2  -3   1   28.60    1.46
  -2   3  -1   26.82    1.87
  -3  -3  -1   12.55    0.68
  -3  -3  -1   12.12    0.72
  -3  -3  -1   12.21    0.69
   3  -3   1   11.10    0.96
  -3  -3  -1   12.46    0.84
  -3   3  -1   12.45    1.65
  -4  -3  -1   13.27    0.67
  -4  -3  -1   11.12    0.76
  -4   3  -1   10.73    1.59
  -5  -3  -1   13.68    0.66
  -5   3  -1   16.25    1.97
  -6   3  -1    1.92    0.83
  -5   4   1    0.18    0.68
  -4  -4   1   10.06    0.64
  -4  -4   1   10.00    0.84
  -4   4   1    9.00    1.69
  -3  -4   1    8.43    0.71
  -3  -4   1    8.28    0.98
  -3  -4   1    9.33    0.87
  -3  -4   1    9.46    0.67
  -3   4   1    8.15    1.57
  -2  -4   1    0.31    0.20
   2  -4  -1    0.58    0.39
  -2  -4   1    0.24    0.29
  -2  -4   1    0.51    0.41
  -2  -4   1    0.15    0.35
  -2   4   1    0.29    0.64
  -1  -4   1    3.52    0.71
  -1  -4   1    3.50    0.50
  -1  -4   1    1.66    0.37
   1  -4  -1    1.32    0.47
  -1   4   1    1.89    0.80
   0  -4   1    4.63    0.62
   0  -4  -1    5.52    0.64
   0  -4  -1    4.89    0.81
   0  -4  -1    6.15    0.85
   0  -4   1    5.83    0.81
   0  -4   1    4.50    0.58
   0  -4  -1    5.51    0.69
   0  -4   1    4.99    0.87
   0  -4  -1    5.14    0.36
   0  -4  -1    6.79    1.00
  -1  -4  -1    4.42    0.57
   1  -4   1    3.91    0.63
  -1  -4  -1    4.88    0.84
   1  -4   1    4.78    0.80
  -1   4  -1    5.40    1.13
   2  -4   1    2.95    0.66
  -2  -4  -1    3.17    0.68
  -2  -4  -1    2.56    0.53
  -2  -4  -1    3.21    0.60
  -2  -4  -1    3.74    0.51
  -2   4  -1    3.16    0.97
  -3  -4  -1   13.47    0.91
   3  -4   1   13.30    1.16
  -3  -4  -1   12.10    0.98
  -3  -4  -1   11.85    0.88
  -3  -4  -1   13.17    0.80
  -3  -4  -1   11.40    1.03
  -3   4  -1   13.09    1.89
  -4  -4  -1    0.60    0.30
  -4  -4  -1    0.68    0.34
  -4   4  -1   -0.43    0.60
  -5   4  -1    0.06    0.70
  -4  -5   1    0.58    0.34
  -4   5   1    2.02    1.10
  -3  -5   1    3.93    0.59
  -3  -5   1    3.63    0.63
  -3   5   1    3.66    1.34
   2  -5  -1   -0.34    0.32
  -2  -5   1    0.38    0.25
  -2  -5   1    0.23    0.34
  -2  -5   1   -0.22    0.41
   1  -5  -1    3.18    0.75
  -1  -5   1    2.95    0.52
  -1  -5   1    3.38    0.70
   1  -5  -1    3.18    0.58
   0  -5   1   20.24    1.43
   0  -5  -1   21.45    1.19
   0  -5  -1   19.02    1.42
   0  -5   1   20.53    1.15
   1  -5   1   14.48    0.97
   1  -5   1   13.06    1.20
  -1  -5  -1   14.64    1.19
  -1  -5  -1   12.34    0.88
  -2  -5  -1    3.77    0.57
  -2  -5  -1    2.91    0.64
   2  -5   1    3.68    0.78
  -3  -5  -1   10.92    1.36
  -3  -5  -1    9.26    0.75
  -3  -5  -1    8.56    0.99
  -3   5  -1    9.17    1.76
  -4  -5  -1    1.84    0.49
  -4   5  -1    1.27    0.97
  -3  -6   1    0.82    0.37
   2  -6  -1    0.90    0.62
  -2  -6   1    2.52    0.66
  -2  -6   1    1.68    0.46
   2  -6  -1    1.56    0.49
  -1  -6   1    0.93    0.37
   1  -6  -1    1.14    0.41
  -1  -6   1    1.07    0.52
   1  -6  -1    1.10    0.55
   0  -6   1    3.31    0.80
   0  -6  -1    6.90    0.88
   0  -6   1    6.18    0.82
   0  -6  -1    4.68    0.95
  -1  -6  -1    0.47    0.42
   1  -6   1    0.41    0.34
  -1  -6  -1    0.60    0.34
   1  -6   1    1.17    0.56
  -2  -6  -1    0.22    0.38
  -2  -6  -1    0.12    0.25
   2  -6   1    0.02    0.30
   2  -6   1   -0.17    0.40
  -6   0   2    2.66    0.57
  -6   0   2    2.49    0.50
  -5   0   2   10.22    0.83
  -5   0   2    8.75    0.76
  -5   0   2    9.85    0.79
  -4   0   2   38.62    1.50
  -4   0   2   42.27    1.46
  -4   0   2   40.61    1.44
  -3   0   2  136.74    3.09
  -3   0   2  138.74    3.09
  -3   0   2  142.79    2.97
  -3   0   2  133.90    3.25
  -2   0   2   84.98    2.08
  -2   0   2   85.42    1.87
  -2   0   2   84.73    1.84
   1   0  -2  313.49    5.92
  -1   0   2  316.19    5.97
   1   0  -2  320.58    5.88
  -1   0   2  316.84    5.91
   0   0   2    1.63    0.12
   0   0  -2    1.52    0.08
   0   0  -2    1.60    0.18
   0   0  -2    1.77    0.09
   0   0  -2    1.77    0.12
   0   0   2    1.63    0.13
   0   0   2    1.75    0.10
   0   0   2    1.38    0.16
   0   0  -2    1.65    0.12
   1   0   2    0.15    0.09
   1   0   2    0.34    0.15
  -1   0  -2    0.41    0.17
   1   0   2    0.28    0.14
  -1   0  -2    0.30    0.13
  -2   0  -2   73.66    1.78
  -2   0  -2   71.58    1.78
   2   0   2   68.66    1.69
  -3   0  -2    0.36    0.19
  -3   0  -2    0.83    0.26
  -3   0  -2    0.81    0.26
  -3   0  -2    0.04    0.19
  -4   0  -2    0.82    0.28
  -4   0  -2    0.55    0.26
  -4   0  -2    0.77    0.30
  -5   0  -2   10.10    0.74
  -5   0  -2   13.68    0.89
  -5   0  -2   13.24    0.97
  -6   0  -2   11.74    0.81
  -6   0  -2   10.40    1.17
  -7   0  -2    2.66    0.46
  -7   1   2    0.50    0.53
  -6  -1   2    0.12    0.27
  -6   1   2   -0.20    0.40
  -6   1   2    0.62    0.53
  -5  -1   2    0.50    0.18
  -5  -1   2    0.69    0.23
  -5   1   2    1.05    0.53
  -5   1   2    0.59    0.47
  -4   1   2    0.94    0.41
  -4   1   2    1.20    0.41
  -4   1   2    0.91    0.46
   3   1  -2   40.56    1.18
  -3   1   2   36.88    1.54
  -3   1   2   37.37    1.61
   2  -1  -2   77.22    2.03
   2  -1  -2   75.12    2.06
   2  -1  -2   75.01    2.15
   2  -1  -2   75.06    2.00
  -2   1   2   76.68    2.22
  -2   1   2   75.62    2.28
   2   1  -2   78.29    1.74
  -1  -1   2   35.30    0.83
   1  -1  -2   34.21    1.19
  -1  -1   2   34.88    0.83
   1  -1  -2   34.75    1.26
   1  -1  -2   36.15    1.13
  -1  -1   2   34.22    1.00
  -1  -1   2   35.09    0.85
  -1  -1   2   35.19    0.83
  -1   1   2   35.64    1.27
  -1   1   2   35.88    1.24
  -1   1   2   33.55    1.33
   1   1  -2   35.12    0.86
   0  -1  -2  296.95    5.66
   0  -1  -2  292.07    5.86
   0  -1   2  293.89    5.53
   0  -1   2  299.32    5.77
   0  -1   2  295.41    5.99
   0  -1  -2  292.42    4.60
   0  -1   2  291.19    5.21
   0  -1   2  295.23    5.62
   0  -1  -2  296.86    5.97
   0  -1  -2  287.62    5.68
   0   1   2  299.88    5.95
   0   1  -2  303.55    5.69
   0   1  -2  295.66    4.59
   0   1  -2  298.97    5.95
   0   1  -2  277.67    5.82
   0   1   2  289.78    5.77
   0   1   2  287.48    5.88
   1  -1   2   18.24    0.79
   1  -1   2   16.98    0.72
  -1  -1  -2   17.14    0.69
  -1  -1  -2   17.23    0.55
  -1  -1  -2   17.84    0.55
  -1  -1  -2   17.25    0.60
   1  -1   2   16.94    0.85
  -1   1  -2   16.18    0.85
  -1   1  -2   16.39    0.74
   1   1   2   16.58    0.62
   1   1   2   17.02    0.48
  -1   1  -2   18.77    0.99
   2  -1   2   34.64    1.17
  -2  -1  -2   28.43    0.97
  -2  -1  -2   36.60    0.86
   2  -1   2   34.04    1.30
  -2  -1  -2   34.68    0.86
   2  -1   2   34.37    1.25
  -2  -1  -2   34.11    0.99
  -2   1  -2   34.56    1.39
   2   1   2   34.50    1.03
  -2   1  -2   32.20    1.46
  -2   1  -2   34.66    1.29
  -3  -1  -2   11.95    0.47
   3  -1   2    8.71    0.60
  -3  -1  -2    9.73    0.45
  -3  -1  -2   10.61    0.42
  -3  -1  -2    9.86    0.52
   3   1   2    9.73    0.54
  -3   1  -2    8.93    0.78
  -3   1  -2    9.25    0.72
  -4  -1  -2    5.85    0.42
  -4  -1  -2    6.08    0.35
  -4  -1  -2    5.62    0.45
  -4   1  -2    5.49    0.80
  -4   1  -2    6.02    0.75
  -5  -1  -2    9.43    0.46
  -5  -1  -2    7.54    0.62
  -5  -1  -2    9.62    0.61
  -5   1  -2    9.41    1.09
  -5   1  -2    6.20    0.94
  -6  -1  -2    2.94    0.46
  -6  -1  -2    2.76    0.31
  -6   1  -2    2.69    0.65
  -6   1  -2    2.33    0.79
  -7   1  -2    1.25    0.51
  -7   2   2   -0.06    0.56
  -6   2   2    5.27    1.12
  -5   2   2    3.72    0.90
  -5   2   2    4.35    0.98
  -4   2   2    2.77    0.73
  -4   2   2    1.14    0.62
  -3  -2   2    7.21    0.46
   3  -2  -2    6.12    0.78
   3  -2  -2    6.29    0.75
  -3   2   2    6.72    1.05
  -3   2   2    7.16    0.90
  -3   2   2    7.61    1.01
   3   2  -2    7.04    0.48
  -2  -2   2   23.58    0.74
   2  -2  -2   24.33    1.20
  -2  -2   2   23.34    0.79
  -2  -2   2   24.87    0.83
   2  -2  -2   27.11    1.41
  -2  -2   2   23.66    0.80
  -2  -2   2   23.45    0.69
   2  -2  -2   24.93    1.20
  -2  -2   2   23.38    0.98
   2  -2  -2   23.59    1.25
  -2   2   2   21.39    1.30
  -2   2   2   26.24    1.33
  -2   2   2   20.74    1.42
   2   2  -2   22.89    0.85
   1  -2  -2   11.18    0.75
  -1  -2   2    9.64    0.48
   1  -2  -2   11.01    0.83
   1  -2  -2    9.27    0.83
  -1  -2   2    7.94    0.50
  -1  -2   2    9.83    0.57
  -1  -2   2   10.06    0.48
  -1  -2   2   11.42    0.70
   1   2  -2    9.74    0.52
   1   2  -2   10.50    0.32
  -1   2   2    8.46    0.76
  -1   2   2   10.07    1.11
  -1   2   2   10.69    0.80
   0  -2  -2   27.35    1.19
   0  -2   2   26.59    0.94
   0  -2   2   27.86    1.28
   0  -2   2   27.04    1.08
   0  -2  -2   26.84    1.22
   0  -2  -2   26.42    1.10
   0  -2   2   28.45    1.13
   0  -2  -2   27.03    1.04
   0  -2  -2   25.84    0.69
   0  -2   2   26.48    0.86
   0   2  -2   26.88    1.32
   0   2   2   27.22    1.38
   0   2  -2   27.05    1.19
   0   2  -2   28.37    1.01
   0   2   2   27.97    1.07
   0   2   2   26.70    1.05
   0   2   2   27.33    1.16
  -1  -2  -2   16.78    0.79
  -1  -2  -2   17.60    0.74
   1  -2   2   17.82    0.91
  -1  -2  -2   14.75    0.65
   1  -2   2   17.00    0.98
   1  -2   2   17.42    1.10
  -1   2  -2   18.39    0.94
  -1   2  -2   16.60    1.05
  -1   2  -2   15.97    1.13
   1   2   2   17.25    0.80
   1   2   2   16.07    0.61
   1   2   2   16.05    0.96
  -2  -2  -2   15.12    0.79
   2  -2   2   15.28    1.00
   2  -2   2   15.84    1.06
  -2  -2  -2   15.11    0.65
  -2  -2  -2   15.45    0.63
  -2  -2  -2   15.82    0.74
  -2  -2  -2   14.69    0.68
  -2  -2  -2   16.02    0.70
   2  -2   2   16.58    0.93
   2   2   2   14.17    0.72
  -2   2  -2   16.08    0.99
  -2   2  -2   16.96    1.29
  -2   2  -2   14.19    1.09
   3  -2   2   20.14    1.09
  -3  -2  -2   19.56    0.65
  -3  -2  -2   18.75    0.86
  -3  -2  -2   19.56    0.65
   3  -2   2   19.05    1.19
  -3  -2  -2   18.65    0.82
  -3  -2  -2   19.08    0.73
  -3   2  -2   22.23    1.54
  -3   2  -2   20.06    1.22
  -4  -2  -2   25.48    0.81
  -4  -2  -2   25.41    0.83
  -4  -2  -2   23.79    1.00
  -4   2  -2   25.10    1.75
  -4   2  -2   22.61    1.61
  -5  -2  -2    2.76    0.30
  -5  -2  -2    2.22    0.39
  -5  -2  -2    2.57    0.31
  -5   2  -2    3.72    0.86
  -6   2  -2    6.99    1.17
  -6   3   2    0.11    0.56
  -5   3   2    5.09    1.17
  -4  -3   2   20.37    0.74
  -4  -3   2   19.86    0.82
  -4   3   2   20.35    2.22
  -3  -3   2   35.02    1.23
  -3  -3   2   34.10    1.21
   3  -3  -2   31.62    1.65
  -3  -3   2   34.90    1.24
  -3  -3   2   34.73    1.12
  -3   3   2   34.43    2.27
  -2  -3   2    0.24    0.22
  -2  -3   2    0.37    0.25
   2  -3  -2    0.45    0.39
   2  -3  -2    0.64    0.35
  -2  -3   2    0.71    0.32
   2  -3  -2    0.78    0.40
  -2  -3   2    0.48    0.18
  -2  -3   2    0.56    0.18
   2   3  -2    0.39    0.21
  -2   3   2    1.52    0.61
   2   3  -2    0.25    0.11
  -1  -3   2   78.38    2.40
  -1  -3   2   75.62    2.54
   1  -3  -2   75.41    2.82
   1  -3  -2   77.40    2.51
   1  -3  -2   76.58    2.75
  -1  -3   2   74.01    1.95
   1  -3  -2   78.14    2.55
   1  -3  -2   73.15    2.36
  -1  -3   2   75.62    2.04
   1   3  -2   78.16    2.21
  -1   3   2   76.65    2.64
  -1   3   2   75.03    3.02
   1   3  -2   74.34    2.58
   0  -3   2   42.36    1.45
   0  -3  -2   40.86    1.65
   0  -3   2   41.59    1.88
   0  -3   2   37.94    1.57
   0  -3   2   40.50    1.31
   0  -3  -2   40.35    1.83
   0  -3  -2   37.77    1.33
   0  -3  -2   40.43    1.53
   0  -3  -2   38.09    1.77
   0  -3  -2   40.88    1.01
   0   3   2   38.24    1.51
   0   3   2   40.06    2.01
   0   3  -2   39.49    1.94
   0   3  -2   40.51    1.66
  -1  -3  -2   33.87    1.57
   1  -3   2   30.30    1.46
  -1  -3  -2   31.92    1.46
   1  -3   2   30.26    1.70
  -1  -3  -2   30.74    1.15
  -1  -3  -2   31.61    1.24
   1  -3   2   32.63    1.66
   1   3   2   33.04    1.36
  -1   3  -2   27.42    1.56
   1   3   2   28.23    1.61
  -1   3  -2   32.28    1.87
  -1   3  -2   33.62    1.48
   2  -3   2   41.10    1.77
  -2  -3  -2   40.45    1.41
  -2  -3  -2   40.65    1.34
  -2  -3  -2   43.50    1.55
  -2  -3  -2   40.88    1.68
  -2  -3  -2   40.91    1.51
  -2   3  -2   39.43    2.21
  -3  -3  -2   14.52    0.77
  -3  -3  -2   15.84    0.85
  -3  -3  -2   15.39    0.97
  -3  -3  -2   15.85    0.79
   3  -3   2   14.52    1.08
  -3   3  -2   16.62    1.54
  -4  -3  -2    3.81    0.57
  -4  -3  -2    3.74    0.48
  -4   3  -2    4.38    1.05
  -5  -3  -2    1.83    0.32
  -5   3  -2    1.54    0.77
  -6   3  -2    6.77    1.36
  -5   4   2   -0.10    0.67
  -4  -4   2    5.79    0.48
  -4  -4   2    5.93    0.76
  -4   4   2    6.55    1.44
  -3  -4   2    3.02    0.65
  -3  -4   2    3.29    0.48
  -3  -4   2    3.19    0.49
  -3  -4   2    2.57    0.56
  -3   4   2    2.92    1.01
  -2  -4   2   15.41    0.84
  -2  -4   2   14.48    0.96
  -2  -4   2   15.77    0.85
   2  -4  -2   13.37    1.14
  -2  -4   2   14.04    1.07
  -2  -4   2   16.00    1.23
  -2   4   2   15.70    1.99
   1  -4  -2    3.72    0.75
   1  -4  -2    2.36    0.59
  -1  -4   2    3.52    0.50
  -1  -4   2    2.29    0.40
  -1  -4   2    2.82    0.64
  -1   4   2    4.15    1.03
   0  -4   2    6.07    0.84
   0  -4  -2    7.62    0.67
   0  -4  -2    7.43    0.43
   0  -4   2    8.44    0.70
   0  -4  -2    8.18    1.00
   0  -4  -2    7.29    0.92
   0  -4   2    9.13    1.14
   0  -4   2    9.19    0.67
  -1  -4  -2   11.15    0.76
  -1  -4  -2   10.79    1.22
   1  -4   2   10.52    0.83
   1  -4   2   11.52    1.01
  -1   4  -2   11.60    1.56
  -2  -4  -2    5.79    0.78
   2  -4   2    6.57    0.96
  -2  -4  -2    6.53    0.67
  -2  -4  -2    5.56    0.87
  -2   4  -2    6.63    1.28
   3  -4   2   20.82    1.42
  -3  -4  -2   18.95    1.11
  -3  -4  -2   19.02    1.31
  -3  -4  -2   17.43    0.94
  -3   4  -2   19.92    2.26
  -4  -4  -2    5.46    0.65
  -4  -4  -2    6.49    0.72
  -4   4  -2    5.85    1.39
  -5   4  -2    2.77    1.10
  -4  -5   2    3.72    0.55
  -4   5   2    2.34    1.15
  -3  -5   2    2.61    0.47
  -3  -5   2    2.90    0.58
  -3   5   2    1.02    0.91
  -2  -5   2   13.25    1.45
  -2  -5   2   11.20    0.82
   2  -5  -2   12.51    1.47
  -2  -5   2   13.17    1.04
   1  -5  -2    5.01    0.90
   1  -5  -2    5.04    0.71
  -1  -5   2    5.25    0.84
  -1  -5   2    6.44    0.75
   0  -5  -2    0.91    0.45
   0  -5   2    0.99    0.36
   0  -5   2    0.93    0.46
   0  -5  -2    0.98    0.39
  -1  -5  -2    4.58    0.88
   1  -5   2    4.44    0.87
   1  -5   2    5.59    0.72
  -1  -5  -2    4.23    0.62
  -1  -5  -2    5.05    0.84
  -2  -5  -2    3.00    0.53
   2  -5   2    2.78    0.70
  -2  -5  -2    3.85    0.74
  -2  -5  -2    2.08    0.56
  -3  -5  -2    2.29    0.46
  -3  -5  -2    2.54    0.59
  -3  -5  -2    2.70    0.78
  -3   5  -2    3.43    1.19
  -4  -5  -2    1.66    0.50
  -4   5  -2    0.65    0.89
  -3  -6   2    0.88    0.36
   2  -6  -2    1.54    0.72
   2  -6  -2    1.73    0.51
  -2  -6   2    2.07    0.48
  -2  -6   2    1.72    0.55
  -1  -6   2    0.10    0.25
  -1  -6   2   -0.11    0.31
   1  -6  -2    0.10    0.46
   1  -6  -2   -0.14    0.26
   0  -6  -2    0.32    0.44
   0  -6  -2   -0.21    0.24
   0  -6   2    0.23    0.31
   0  -6   2    0.24    0.39
  -1  -6  -2    0.69    0.48
   1  -6   2    0.21    0.40
   1  -6   2    0.52    0.35
  -1  -6  -2    0.40    0.30
  -2  -6  -2    0.33    0.30
   2  -6   2    0.20    0.32
  -2  -6  -2    0.08    0.41
   2  -6   2    0.08    0.41
  -7   0   3    3.91    0.57
  -6   0   3   13.41    1.03
  -6   0   3   11.58    0.87
  -5   0   3    1.10    0.39
  -5   0   3    0.64    0.36
  -5   0   3    0.98    0.39
  -4   0   3   25.47    1.22
  -4   0   3   25.48    1.13
  -4   0   3   25.56    1.09
  -3   0   3   15.59    0.74
  -3   0   3   16.00    0.88
  -3   0   3   17.23    0.67
  -3   0   3   16.64    0.71
  -2   0   3  495.91    9.19
  -2   0   3  505.65    9.51
  -1   0   3  345.34    6.62
   1   0  -3  349.19    6.56
  -1   0   3  344.21    6.65
   1   0  -3  345.16    6.63
  -1   0  -3  449.39    6.88
   1   0   3  436.99    8.61
   1   0   3  454.21    8.51
  -1   0  -3  445.69    8.29
   1   0   3  454.53    8.22
  -1   0  -3  444.71    8.64
   1   0   3  439.68    8.19
  -1   0  -3  450.58    8.49
  -2   0  -3   11.82    0.57
  -2   0  -3   12.42    0.63
   2   0   3   10.60    0.55
  -3   0  -3   41.45    1.39
  -3   0  -3   43.37    1.39
   3   0   3   42.92    1.28
  -3   0  -3   44.12    1.46
  -4   0  -3    1.31    0.36
  -4   0  -3    1.27    0.33
  -4   0  -3    1.62    0.35
  -5   0  -3   36.95    1.52
  -5   0  -3   35.86    1.65
  -5   0  -3   34.58    1.39
  -6   0  -3    1.09    0.35
  -6   0  -3    1.29    0.57
  -7   0  -3    4.29    0.57
  -7   1   3    0.18    0.50
  -6  -1   3    0.73    0.33
  -6   1   3    0.43    0.49
  -6   1   3    0.67    0.54
  -5  -1   3   12.79    0.64
  -5  -1   3   12.32    0.60
  -5   1   3   13.10    1.21
  -5   1   3   13.16    1.18
  -4   1   3    1.93    0.51
  -4   1   3    1.67    0.48
  -4   1   3    1.69    0.55
  -3   1   3   63.00    2.14
   3   1  -3   68.16    1.67
  -3   1   3   63.75    2.22
  -2  -1   3  127.87    2.50
   2  -1  -3  129.05    3.01
  -2  -1   3  127.32    2.39
   2  -1  -3  127.66    3.08
  -2   1   3  131.80    3.38
  -2   1   3  129.61    3.29
   2   1  -3  132.82    2.70
  -1  -1   3  386.63    7.24
  -1  -1   3  393.40    6.70
   1  -1  -3  385.11    7.81
  -1  -1   3  389.38    7.37
  -1  -1   3  374.35    7.01
  -1  -1   3  374.54    7.12
   1  -1  -3  377.06    7.39
  -1  -1   3  371.05    7.22
   1  -1  -3  387.67    7.72
  -1   1   3  384.83    7.85
  -1   1   3  398.47    7.89
   1   1  -3  382.29    7.12
  -1   1   3  383.00    7.83
   0  -1   3   42.59    0.93
   0  -1   3   42.69    1.13
   0  -1  -3   43.14    1.34
   0  -1  -3   42.84    1.24
   0  -1  -3   41.99    0.85
   0  -1   3   42.76    1.14
   0  -1  -3   42.29    1.18
   0  -1   3   41.13    1.31
   0  -1  -3   42.03    1.16
   0   1  -3   41.32    1.32
   0   1   3   40.47    1.34
   0   1  -3   42.60    1.31
   0   1   3   42.80    1.15
   0   1   3   39.17    1.15
   0   1   3   43.36    1.33
   0   1  -3   43.85    1.08
   0   1  -3   42.18    0.84
   1  -1   3    5.06    0.49
  -1  -1  -3    6.32    0.32
   1  -1   3    5.26    0.45
  -1  -1  -3    6.47    0.35
  -1  -1  -3    6.50    0.48
  -1  -1  -3    6.08    0.20
   1  -1   3    5.75    0.43
  -1  -1  -3    5.89    0.34
   1   1   3    8.17    0.34
  -1   1  -3    6.21    0.45
  -1   1  -3    5.77    0.55
  -1   1  -3    7.06    0.71
   1   1   3    5.73    0.45
   2  -1   3   21.85    0.88
  -2  -1  -3   21.08    0.83
  -2  -1  -3   20.54    0.65
   2  -1   3   19.58    0.97
  -2  -1  -3   20.70    0.65
   2  -1   3   22.30    0.98
  -2  -1  -3   20.86    0.74
  -2  -1  -3   20.78    0.66
  -2   1  -3   22.05    1.11
  -2   1  -3   22.06    1.18
  -2   1  -3   20.81    0.95
  -3  -1  -3   42.05    1.12
  -3  -1  -3   44.91    1.21
   3  -1   3   42.59    1.41
  -3  -1  -3   44.35    1.17
  -3  -1  -3   44.75    1.37
  -3   1  -3   45.23    1.83
  -3   1  -3   46.15    1.68
  -4  -1  -3   21.28    0.83
  -4  -1  -3   20.03    0.72
  -4  -1  -3   19.18    0.91
  -4   1  -3   21.35    1.19
  -4   1  -3   21.64    1.34
  -5  -1  -3   14.00    0.86
  -5  -1  -3   12.50    0.59
  -5  -1  -3   13.69    0.74
  -5   1  -3   12.35    1.07
  -5   1  -3   13.77    1.21
  -6  -1  -3    0.81    0.23
  -6   1  -3    1.14    0.50
  -6   1  -3    0.04    0.51
  -7   1  -3    1.36    0.53
  -7   2   3    0.54    0.65
  -6   2   3    0.52    0.64
  -5   2   3    2.10    0.74
  -5   2   3    3.37    0.87
  -4   2   3    3.61    0.77
  -4   2   3    2.65    0.78
   3  -2  -3   42.56    1.71
   3  -2  -3   46.24    1.82
   3  -2  -3   45.14    1.78
  -3   2   3   46.63    2.30
  -3   2   3   46.67    2.01
  -3   2   3   45.43    2.09
   3   2  -3   44.59    1.38
   2  -2  -3    2.21    0.54
  -2  -2   3    2.14    0.39
  -2  -2   3    1.98    0.27
   2  -2  -3    2.58    0.54
  -2  -2   3    1.97    0.28
  -2  -2   3    1.87    0.19
  -2  -2   3    1.84    0.25
   2  -2  -3    1.81    0.43
  -2  -2   3    2.48    0.26
  -2   2   3    2.54    0.55
   2   2  -3    2.10    0.28
  -2   2   3    2.16    0.62
  -2   2   3    2.57    0.53
   1  -2  -3    1.47    0.40
  -1  -2   3    1.50    0.22
  -1  -2   3    1.82    0.28
  -1  -2   3    1.69    0.29
   1  -2  -3    1.56    0.42
  -1  -2   3    1.65    0.22
   1  -2  -3    2.25    0.42
  -1  -2   3    1.88    0.38
   1   2  -3    1.74    0.25
  -1   2   3    1.51    0.40
  -1   2   3    2.18    0.45
  -1   2   3    1.90    0.57
   1   2  -3    1.69    0.15
   0  -2  -3    6.86    0.62
   0  -2  -3    6.33    0.33
   0  -2   3    6.26    0.39
   0  -2   3    6.07    0.41
   0  -2  -3    5.76    0.47
   0  -2  -3    6.48    0.56
   0  -2   3    6.50    0.53
   0  -2   3    7.27    0.56
   0  -2  -3    5.37    0.65
   0  -2   3    6.75    0.76
   0   2   3    6.57    0.52
   0   2  -3    6.86    0.63
   0   2   3    7.50    0.87
   0   2   3    7.46    0.64
   0   2  -3    6.26    0.75
   0   2  -3    6.07    0.36
   0   2  -3    6.18    0.44
   1  -2   3    8.21    0.68
   1  -2   3    8.43    0.64
  -1  -2  -3    9.35    0.59
  -1  -2  -3    8.77    0.52
  -1  -2  -3    9.04    0.49
   1  -2   3    9.31    0.82
  -1  -2  -3    8.89    0.24
  -1   2  -3    9.20    0.83
  -1   2  -3    8.92    0.63
  -1   2  -3    7.55    0.93
   1   2   3    8.64    0.74
   1   2   3    8.54    0.57
   1   2   3    8.63    0.45
  -2  -2  -3   16.40    0.69
   2  -2   3   16.65    1.06
  -2  -2  -3   15.12    0.66
   2  -2   3   15.58    0.93
  -2  -2  -3   16.67    0.75
  -2  -2  -3   16.86    0.88
   2  -2   3   16.46    1.11
  -2  -2  -3   15.34    0.72
  -2   2  -3   16.26    0.98
  -2   2  -3   16.12    1.26
  -2   2  -3   16.11    1.17
  -3  -2  -3   18.41    0.92
   3  -2   3   17.48    1.03
  -3  -2  -3   18.41    0.69
   3  -2   3   17.86    1.17
  -3  -2  -3   17.73    0.74
  -3  -2  -3   17.21    0.81
  -3   2  -3   14.91    1.27
  -3   2  -3   17.48    1.12
  -4  -2  -3   17.52    0.69
  -4  -2  -3   17.31    0.90
  -4  -2  -3   18.11    0.73
  -4   2  -3   16.50    1.43
  -4   2  -3   18.30    1.47
  -5  -2  -3   12.05    0.79
  -5  -2  -3   14.44    0.67
  -5  -2  -3   13.84    0.62
  -5   2  -3   15.31    1.67
  -6  -2  -3    0.58    0.24
  -6   2  -3    0.11    0.45
  -6   3   3    6.84    1.39
  -5   3   3    7.17    1.35
  -4  -3   3   17.31    0.69
  -4  -3   3   15.64    0.67
  -4   3   3   18.27    2.12
  -3  -3   3   20.35    0.86
  -3  -3   3   19.47    0.78
   3  -3  -3   21.00    1.34
  -3  -3   3   19.50    0.93
  -3  -3   3   20.08    0.86
  -3   3   3   21.96    1.84
  -2  -3   3   15.70    0.72
   2  -3  -3   15.86    1.28
   2  -3  -3   17.41    1.16
   2  -3  -3   15.48    1.10
  -2  -3   3   15.81    0.85
  -2  -3   3   16.88    0.75
  -2  -3   3   18.42    1.04
  -2  -3   3   15.66    0.81
  -2   3   3   19.41    1.58
   2   3  -3   16.72    0.49
   2   3  -3   17.22    0.87
  -1  -3   3   13.88    1.02
  -1  -3   3   13.29    0.68
  -1  -3   3   13.64    0.68
  -1  -3   3   14.32    0.89
   1  -3  -3   13.24    1.12
   1  -3  -3   13.91    1.11
   1  -3  -3   13.47    0.98
   1   3  -3   14.40    0.79
  -1   3   3   13.91    1.09
  -1   3   3   14.44    1.04
   1   3  -3   15.28    1.09
   1   3  -3   14.12    0.57
  -1   3   3   14.15    1.56
   0  -3   3   58.41    2.31
   0  -3  -3   58.08    2.24
   0  -3  -3   56.09    1.70
   0  -3  -3   55.35    1.27
   0  -3  -3   56.01    2.21
   0  -3   3   55.24    1.60
   0  -3   3   57.22    1.95
   0  -3   3   54.72    1.72
   0  -3  -3   54.36    1.99
   0  -3  -3   56.74    1.90
   0   3  -3   55.48    2.32
   0   3   3   56.31    2.43
   0   3   3   56.43    1.88
   0   3  -3   54.66    2.06
   1  -3   3    3.80    0.69
  -1  -3  -3    3.22    0.58
  -1  -3  -3    2.92    0.51
  -1  -3  -3    3.78    0.47
  -1  -3  -3    3.73    0.47
  -1  -3  -3    3.78    0.17
  -1  -3  -3    3.73    0.64
   1  -3   3    2.82    0.54
   1  -3   3    3.82    0.74
   1   3   3    3.17    0.68
  -1   3  -3    2.84    0.64
  -1   3  -3    4.14    0.62
  -1   3  -3    4.66    0.88
  -2  -3  -3    7.26    0.62
  -2  -3  -3    6.73    0.51
  -2  -3  -3    7.08    0.56
  -2  -3  -3    7.26    0.84
   2  -3   3    6.46    0.82
  -2  -3  -3    6.25    0.68
  -2   3  -3    5.31    1.01
  -3  -3  -3   15.76    1.02
  -3  -3  -3   13.96    0.82
  -3  -3  -3   14.50    0.77
  -3  -3  -3   14.92    0.79
   3  -3   3   14.17    1.06
  -3   3  -3   14.07    1.69
  -4  -3  -3    4.96    0.67
  -4  -3  -3    5.51    0.59
  -4  -3  -3    5.32    0.47
  -4   3  -3    5.70    1.17
  -5  -3  -3   14.48    0.76
  -5  -3  -3   11.70    0.68
  -5   3  -3   13.97    1.83
  -6   3  -3    2.37    0.90
  -5   4   3    0.23    0.78
  -4  -4   3   13.81    0.66
  -4  -4   3   13.40    1.03
  -4   4   3   17.09    2.31
  -3  -4   3    4.80    0.69
  -3  -4   3    3.88    0.54
  -3  -4   3    3.92    0.52
  -3  -4   3    5.04    0.79
  -3   4   3    4.13    1.19
  -2  -4   3    1.30    0.31
   2  -4  -3    1.64    0.54
  -2  -4   3    1.33    0.52
  -2  -4   3    0.85    0.27
   2  -4  -3    1.02    0.50
  -2  -4   3    1.43    0.40
  -2  -4   3    1.05    0.44
  -2   4   3    0.44    0.63
  -1  -4   3   22.33    1.03
   1  -4  -3   18.71    1.29
  -1  -4   3   19.73    0.96
   1  -4  -3   19.45    0.84
  -1  -4   3   20.05    1.32
   1  -4  -3   19.87    1.35
  -1   4   3   20.42    1.76
   0  -4  -3   21.71    1.12
   0  -4  -3   20.38    1.33
   0  -4  -3   23.40    0.76
   0  -4   3   21.97    1.12
   0  -4   3   22.48    1.50
   0  -4   3   22.62    1.07
   0  -4   3   23.63    1.34
   1  -4   3    6.91    0.77
  -1  -4  -3    4.88    0.75
  -1  -4  -3    4.67    0.84
   1  -4   3    4.54    0.75
  -1  -4  -3    4.81    0.61
  -1   4  -3    7.33    1.27
  -2  -4  -3    0.03    0.17
  -2  -4  -3    0.34    0.31
   2  -4   3   -0.24    0.22
  -2  -4  -3    0.26    0.39
  -2   4  -3   -0.23    0.45
   3  -4   3    1.02    0.49
  -3  -4  -3    1.69    0.48
  -3  -4  -3    1.37    0.34
  -3  -4  -3    2.19    0.59
  -3   4  -3    1.42    0.76
  -4  -4  -3   14.38    0.95
  -4   4  -3   15.83    2.12
  -5  -4  -3    2.91    0.49
  -5  -4  -3    2.33    0.43
  -5   4  -3    3.69    1.18
  -4  -5   3    2.84    0.48
  -4   5   3    1.52    1.09
  -3  -5   3    0.72    0.29
  -3  -5   3    0.46    0.34
  -3   5   3    0.19    0.82
  -2  -5   3   13.89    1.49
  -2  -5   3   14.35    1.09
  -2  -5   3   13.42    0.88
   2  -5  -3   12.66    1.47
  -1  -5   3    4.22    0.60
   1  -5  -3    5.45    0.75
  -1  -5   3    4.59    0.77
   1  -5  -3    3.60    0.78
   1  -5  -3    4.25    0.89
   0  -5   3    5.56    0.88
   0  -5  -3    7.15    1.08
   0  -5   3    5.26    0.68
   0  -5  -3    4.31    0.80
   0  -5  -3    6.09    0.78
  -1  -5  -3    5.28    0.93
  -1  -5  -3    5.19    0.88
   1  -5   3    6.02    0.95
  -1  -5  -3    4.37    0.65
   1  -5   3    6.73    0.79
  -2  -5  -3   11.22    1.01
  -2  -5  -3   12.24    0.86
  -2  -5  -3   11.87    1.06
  -3  -5  -3    3.62    0.73
  -3  -5  -3    4.19    0.62
  -3  -5  -3    4.31    0.77
  -3  -5  -3    3.60    0.86
  -4  -5  -3    2.42    0.57
  -4   5  -3    2.20    1.08
   2  -6  -3    2.77    0.84
  -2  -6   3    2.70    0.67
  -2  -6   3    2.62    0.55
  -1  -6   3    1.16    0.39
  -1  -6   3    2.26    0.61
   1  -6  -3    1.58    0.50
   1  -6  -3    0.85    0.55
   0  -6   3    1.20    0.42
   0  -6  -3    1.46    0.48
   0  -6  -3    0.76    0.50
   0  -6   3    1.74    0.62
  -1  -6  -3    0.95    0.38
   1  -6   3    0.51    0.33
   1  -6   3    0.39    0.37
  -1  -6  -3   -0.06    0.36
   2  -6   3    0.38    0.44
  -2  -6  -3    0.55    0.45
   2  -6   3    0.34    0.33
  -2  -6  -3    0.28    0.28
  -6   0   4    0.91    0.40
  -6   0   4    0.58    0.39
  -5   0   4    2.83    0.54
  -5   0   4    2.13    0.51
  -5   0   4    2.83    0.56
  -4   0   4    0.44    0.27
  -4   0   4    0.70    0.34
  -4   0   4    0.55    0.27
  -3   0   4   19.28    0.71
  -3   0   4   19.12    0.79
  -3   0   4   17.30    0.83
  -3   0   4   16.71    0.93
  -1   0   4  929.90   18.75
  -1   0   4  991.40   18.58
   1   0  -4  974.64   18.34
   1   0  -4 1000.00   18.18
   0   0  -4    8.93    0.27
   0   0  -4    8.14    0.38
   0   0  -4    8.41    0.28
   0   0   4    8.55    0.30
   0   0   4    8.21    0.37
   0   0  -4    8.31    0.47
   0   0   4    8.36    0.47
   0   0   4    8.78    0.38
   0   0  -4    8.01    0.36
  -1   0  -4   99.11    2.01
   1   0   4   95.91    2.18
   1   0   4   97.38    2.01
  -1   0  -4   99.58    2.36
  -1   0  -4   98.28    1.73
   1   0   4   99.04    2.33
  -1   0  -4   93.82    2.15
  -1   0  -4   98.24    2.15
   1   0   4  100.68    2.10
   2   0   4  148.65    3.08
  -2   0  -4  150.75    3.27
  -2   0  -4  151.21    3.45
   2   0   4  146.90    3.31
  -3   0  -4   23.72    1.09
   3   0   4   25.80    0.92
  -3   0  -4   28.19    1.08
  -3   0  -4   23.09    0.97
  -4   0  -4    0.26    0.20
  -4   0  -4   -0.08    0.19
  -4   0  -4    0.30    0.27
  -5   0  -4   57.09    1.88
  -5   0  -4   57.06    2.20
  -6   0  -4   12.56    0.84
  -6   0  -4   12.06    1.16
  -7   0  -4    1.34    0.39
  -7   1   4    0.09    0.51
  -6  -1   4    2.32    0.46
  -6   1   4    2.30    0.74
  -6   1   4    2.33    0.76
  -5  -1   4   12.90    0.64
  -5  -1   4   13.84    0.64
  -5   1   4   15.73    1.35
  -5   1   4   14.97    1.25
  -4   1   4    1.10    0.41
  -4   1   4    1.09    0.42
  -4   1   4    0.77    0.47
   3  -1  -4   14.62    0.82
  -3  -1   4   14.92    0.55
   3  -1  -4   14.40    0.81
  -3   1   4   15.11    0.97
   3   1  -4   17.02    0.67
  -3   1   4   15.80    1.03
  -2  -1   4    1.39    0.20
   2  -1  -4    1.76    0.35
   2  -1  -4    1.57    0.35
  -2   1   4    1.15    0.35
  -2   1   4    2.19    0.50
  -2   1   4    1.75    0.40
   2   1  -4    1.55    0.19
   1  -1  -4  142.20    3.33
   1  -1  -4  140.41    3.36
  -1  -1   4  138.60    2.66
  -1  -1   4  142.85    3.07
   1  -1  -4  140.72    3.13
  -1  -1   4  137.93    2.79
  -1  -1   4  140.42    2.81
   1   1  -4  137.61    2.82
  -1   1   4  141.03    3.35
   1   1  -4  135.07    2.70
   1   1  -4  142.92    2.66
  -1   1   4  138.01    3.25
   1   1  -4  136.88    2.16
  -1   1   4  139.70    3.43
   0  -1  -4   67.51    1.93
   0  -1  -4   68.60    1.71
   0  -1   4   73.02    1.69
   0  -1  -4   71.83    1.74
   0  -1   4   69.96    1.39
   0  -1  -4   69.97    1.31
   0  -1  -4   70.08    1.81
   0  -1   4   72.15    1.70
   0  -1   4   70.81    1.94
   0   1   4   69.55    1.92
   0   1   4   68.97    1.70
   0   1  -4   68.11    1.26
   0   1  -4   67.92    1.89
   0   1  -4   69.96    1.59
   0   1   4   69.47    1.73
   0   1   4   65.75    1.89
   0   1  -4   69.04    1.82
   1  -1   4   32.51    1.22
  -1  -1  -4   31.06    0.94
  -1  -1  -4   32.77    0.97
   1  -1   4   29.93    1.11
  -1  -1  -4   33.57    1.16
  -1  -1  -4   31.93    0.84
   1  -1   4   33.20    1.07
  -1  -1  -4   33.30    0.66
  -1   1  -4   30.14    1.03
  -1   1  -4   33.04    1.28
  -1   1  -4   32.67    0.83
   1   1   4   31.55    1.07
   1   1   4   30.50    0.96
   1   1   4   32.39    0.89
   1   1   4   30.26    1.08
  -1   1  -4   31.25    1.27
   2  -1   4   41.84    1.34
  -2  -1  -4   44.00    1.39
  -2  -1  -4   40.71    1.12
   2  -1   4   42.03    1.50
  -2  -1  -4   42.17    1.14
  -2  -1  -4   40.88    1.20
   2  -1   4   45.32    1.53
   2   1   4   42.21    1.25
  -2   1  -4   44.78    1.68
  -2   1  -4   42.98    1.45
  -2   1  -4   42.37    1.66
  -3  -1  -4    4.73    0.34
  -3  -1  -4    4.67    0.35
  -3  -1  -4    4.68    0.35
   3  -1   4    4.33    0.49
  -3  -1  -4    5.28    0.47
  -3   1  -4    5.36    0.73
  -3   1  -4    4.52    0.69
  -3   1  -4    5.07    0.61
  -4  -1  -4   33.82    1.34
  -4  -1  -4   33.82    1.06
  -4  -1  -4   35.34    1.17
  -4   1  -4   33.95    1.75
  -4   1  -4   36.45    1.57
  -5  -1  -4   14.01    0.66
  -5  -1  -4   12.62    0.74
  -5  -1  -4   13.19    0.88
  -5   1  -4   13.44    1.24
  -5   1  -4   15.90    1.18
  -6  -1  -4    9.46    0.57
  -6   1  -4    9.58    1.09
  -7  -1  -4    0.82    0.25
  -7   1  -4    0.34    0.39
  -6   2   4    4.90    1.14
  -5   2   4    8.48    1.34
  -5   2   4   10.43    1.38
  -4   2   4    7.98    1.12
  -4   2   4    3.35    0.86
   3  -2  -4   16.82    1.03
  -3  -2   4   15.85    0.44
   3  -2  -4   14.90    0.98
  -3   2   4   16.29    1.18
   3   2  -4   17.64    0.76
  -3   2   4   17.02    1.42
  -3   2   4   15.97    1.24
  -2  -2   4   15.88    0.53
   2  -2  -4   20.30    1.23
  -2  -2   4   16.30    0.60
  -2  -2   4   16.77    0.87
  -2  -2   4   16.78    0.75
   2  -2  -4   15.67    1.03
  -2  -2   4   15.45    0.60
   2  -2  -4   15.62    0.97
  -2   2   4   17.29    1.14
  -2   2   4   17.71    1.15
  -2   2   4   15.75    1.28
   2   2  -4   16.44    0.67
  -1  -2   4   22.76    1.07
   1  -2  -4   23.49    1.11
   1  -2  -4   20.92    1.16
   1  -2  -4   21.03    1.22
  -1  -2   4   22.12    0.70
  -1  -2   4   22.46    0.87
  -1  -2   4   21.75    0.81
  -1  -2   4   22.56    0.73
  -1   2   4   21.84    1.35
  -1   2   4   20.55    1.17
   1   2  -4   22.04    0.52
  -1   2   4   20.79    1.09
   1   2  -4   21.62    0.77
   0  -2  -4   41.99    1.41
   0  -2   4   44.72    1.71
   0  -2  -4   42.23    1.63
   0  -2  -4   42.95    1.48
   0  -2   4   41.67    1.20
   0  -2  -4   41.97    0.97
   0  -2   4   43.03    1.42
   0  -2   4   42.42    1.13
   0  -2  -4   41.89    1.54
   0  -2   4   41.80    1.42
   0   2   4   40.49    1.73
   0   2  -4   42.66    1.60
   0   2  -4   41.23    1.03
   0   2   4   42.35    1.62
   0   2  -4   40.60    1.65
   0   2  -4   45.53    1.29
   0   2   4   42.32    1.38
  -1  -2  -4   36.70    1.12
   1  -2   4   38.55    1.52
  -1  -2  -4   38.73    0.75
   1  -2   4   37.83    1.41
   1  -2   4   39.39    1.65
  -1  -2  -4   37.19    1.28
  -1  -2  -4   37.55    1.24
  -1   2  -4   37.92    1.69
   1   2   4   40.58    1.60
  -1   2  -4   38.49    1.38
  -1   2  -4   37.08    1.72
   1   2   4   38.04    1.14
  -2  -2  -4   33.18    1.36
  -2  -2  -4   33.16    1.15
   2  -2   4   34.79    1.60
   2  -2   4   32.48    1.52
  -2  -2  -4   35.15    1.07
   2  -2   4   35.44    1.42
  -2  -2  -4   34.01    1.16
  -2  -2  -4   33.66    1.13
  -2   2  -4   36.40    1.84
  -2   2  -4   31.85    1.67
  -2   2  -4   35.13    1.46
  -3  -2  -4   14.03    0.65
  -3  -2  -4   14.63    0.69
   3  -2   4   15.34    0.95
  -3  -2  -4   12.49    0.70
  -3  -2  -4   13.23    0.83
  -3   2  -4   15.07    1.22
  -3   2  -4   13.39    1.22
  -4  -2  -4    2.02    0.33
  -4  -2  -4    1.95    0.30
  -4  -2  -4    2.26    0.43
  -4   2  -4    1.74    0.64
  -5  -2  -4   28.15    1.04
  -5  -2  -4   26.72    1.26
  -5  -2  -4   26.19    0.97
  -5   2  -4   28.88    1.90
  -6  -2  -4    0.25    0.20
  -6   2  -4   -0.04    0.42
  -6   3   4    1.11    0.76
  -5   3   4    1.13    0.74
  -4  -3   4   10.10    0.49
  -4  -3   4   10.64    0.59
  -4   3   4   15.57    1.95
  -3  -3   4   13.23    0.61
  -3  -3   4   13.72    0.67
  -3  -3   4   11.87    0.79
  -3  -3   4   11.97    0.63
  -3   3   4   13.62    1.71
  -2  -3   4    7.54    0.57
  -2  -3   4    7.80    0.74
  -2  -3   4    7.11    0.56
  -2  -3   4    7.28    0.50
   2  -3  -4    8.38    1.00
  -2  -3   4    7.95    0.48
   2   3  -4    7.18    0.55
  -2   3   4    8.61    1.32
   2   3  -4    7.26    0.31
  -1  -3   4   13.75    0.67
  -1  -3   4   15.40    0.70
   1  -3  -4   15.28    1.17
   1  -3  -4   13.03    0.97
  -1  -3   4   14.96    1.08
   1  -3  -4   14.70    0.94
   1  -3  -4   15.19    1.22
  -1  -3   4   13.88    0.88
  -1   3   4   14.09    1.02
  -1   3   4   14.76    1.61
   1   3  -4   15.29    0.59
  -1   3   4   15.02    1.14
   1   3  -4   15.33    0.79
   0  -3   4   34.42    1.75
   0  -3  -4   32.90    1.64
   0  -3  -4   32.34    1.38
   0  -3  -4   34.09    1.52
   0  -3  -4   33.48    0.90
   0  -3   4   31.42    1.19
   0  -3   4   31.96    1.39
   0  -3   4   33.52    1.14
   0  -3  -4   33.85    1.25
   0  -3  -4   31.03    1.62
   0   3   4   33.40    1.83
   0   3  -4   32.60    1.56
   0   3   4   33.44    1.36
   0   3  -4   31.60    1.72
   1  -3   4   37.92    1.93
  -1  -3  -4   37.12    1.73
   1  -3   4   37.75    1.77
  -1  -3  -4   36.14    1.52
   1  -3   4   38.41    1.63
  -1  -3  -4   38.45    0.77
  -1  -3  -4   38.45    1.33
  -1  -3  -4   37.42    1.42
  -1  -3  -4   41.46    1.68
   1   3   4   40.47    1.94
  -1   3  -4   33.22    1.91
  -1   3  -4   40.80    1.93
  -2  -3  -4    4.40    0.58
  -2  -3  -4    3.38    0.45
  -2  -3  -4    4.17    0.58
  -2  -3  -4    4.65    0.50
   2  -3   4    3.33    0.60
  -2  -3  -4    3.79    0.64
  -2   3  -4    4.00    0.92
  -3  -3  -4    1.17    0.41
  -3  -3  -4    0.71    0.24
  -3  -3  -4    0.66    0.29
   3  -3   4    0.53    0.34
  -3  -3  -4    0.61    0.25
  -3   3  -4    1.52    0.69
  -4  -3  -4   15.84    0.84
  -4  -3  -4   16.53    1.08
  -4  -3  -4   15.09    0.85
  -4   3  -4   15.23    1.86
  -5  -3  -4    0.31    0.25
  -5   3  -4    1.04    0.67
  -6   3  -4    2.88    0.96
  -5   4   4    0.72    0.82
  -4  -4   4    3.38    0.38
  -4  -4   4    3.44    0.64
  -4   4   4    3.10    1.13
  -3  -4   4    7.31    0.83
  -3  -4   4    8.07    0.62
  -3  -4   4    8.73    1.03
  -3  -4   4    8.90    0.65
  -3   4   4    6.47    1.41
  -2  -4   4    7.30    0.55
  -2  -4   4    7.43    1.03
  -2  -4   4    7.27    0.57
   2  -4  -4    5.77    0.93
  -2  -4   4    8.23    0.71
  -2  -4   4    6.72    0.87
   2  -4  -4    6.73    1.01
   2   4  -4    9.05    0.51
  -2   4   4    7.87    1.44
  -1  -4   4    6.86    0.55
   1  -4  -4    6.33    0.57
  -1  -4   4    6.79    0.91
   1  -4  -4    6.53    0.96
  -1  -4   4    6.05    0.53
  -1   4   4    7.01    1.33
   0  -4  -4    3.61    0.72
   0  -4   4    4.03    0.75
   0  -4   4    3.39    0.63
   0  -4   4    3.29    0.50
   0  -4   4    3.47    0.49
   0  -4  -4    3.64    0.56
   0  -4  -4    3.76    0.36
  -1  -4  -4   46.25    2.24
  -1  -4  -4   44.67    1.96
   1  -4   4   46.60    2.03
  -1  -4  -4   43.88    1.63
   1  -4   4   45.26    1.77
   2  -4   4   26.88    1.59
  -2  -4  -4   27.94    1.66
  -2  -4  -4   28.11    1.21
  -2  -4  -4   26.41    1.42
  -2   4  -4   31.45    2.24
  -3  -4  -4    3.71    0.77
  -3  -4  -4    4.28    0.55
  -3  -4  -4    3.94    0.66
  -3   4  -4    3.67    1.06
  -4  -4  -4    2.37    0.51
  -4   4  -4    2.53    1.01
  -5  -4  -4    0.90    0.39
  -5   4  -4    0.29    0.58
  -4  -5   4    0.23    0.24
  -4   5   4    1.09    1.04
  -3  -5   4    1.03    0.32
  -3  -5   4    0.16    0.32
  -3   5   4    1.08    0.98
  -2  -5   4    5.10    0.97
  -2  -5   4    6.96    0.75
  -2  -5   4    6.50    0.87
   2  -5  -4    6.67    1.10
   2  -5  -4    6.47    0.68
   1  -5  -4   10.40    0.87
   1  -5  -4    9.31    1.21
  -1  -5   4   10.99    0.79
  -1  -5   4   10.86    1.00
   1  -5  -4   11.17    1.39
   0  -5   4    0.35    0.26
   0  -5   4    1.54    0.51
   0  -5  -4    0.57    0.32
   0  -5  -4    0.27    0.40
   0  -5  -4    1.19    0.47
  -1  -5  -4   17.23    1.34
   1  -5   4   18.50    1.06
   1  -5   4   17.14    1.35
  -1  -5  -4   14.40    1.00
  -2  -5  -4    7.42    1.03
  -2  -5  -4    7.46    0.80
   2  -5   4    5.43    0.95
  -3  -5  -4    0.10    0.20
  -3  -5  -4    0.43    0.41
  -4  -5  -4    2.08    0.47
  -4  -5  -4    1.35    0.54
  -4  -5  -4    1.14    0.47
  -4   5  -4    3.98    1.31
  -2  -6   4    2.98    0.70
   2  -6  -4    3.92    0.72
  -2  -6   4    4.91    0.69
   2  -6  -4    4.02    0.97
   1  -6  -4    2.44    0.77
  -1  -6   4    2.22    0.64
   1  -6  -4    2.76    0.63
  -1  -6   4    1.17    0.42
   0  -6  -4    0.93    0.41
   0  -6   4    0.66    0.47
   0  -6  -4    0.34    0.41
   0  -6   4    1.07    0.42
   1  -6   4    0.59    0.36
  -1  -6  -4    0.33    0.43
  -1  -6  -4    0.26    0.31
   1  -6   4    0.22    0.40
  -1  -6  -4    0.34    0.47
  -2  -6  -4    0.09    0.37
  -2  -6  -4    0.12    0.26
  -2  -6  -4   -0.18    0.42
   2  -6   4    0.10    0.27
   2  -6   4    0.18    0.42
  -6   0   5    1.72    0.50
  -6   0   5    0.60    0.40
  -5   0   5    9.65    0.79
  -5   0   5    8.77    0.82
  -5   0   5    7.60    0.90
  -4   0   5    0.23    0.24
  -4   0   5   -0.10    0.19
  -4   0   5   -0.17    0.28
  -3   0   5  124.49    3.05
  -3   0   5  125.39    2.91
  -3   0   5  127.91    2.69
  -3   0   5  117.62    3.10
  -2   0   5    0.49    0.23
  -2   0   5    0.66    0.22
   1   0  -5    0.34    0.11
   1   0  -5    0.21    0.13
   1   0  -5    0.17    0.15
  -1   0   5    0.52    0.19
   1   0  -5    0.33    0.17
  -1   0   5    0.38    0.15
   0   0   5    2.07    0.25
   0   0  -5    2.21    0.33
   0   0  -5    2.12    0.16
   0   0  -5    2.19    0.16
   0   0  -5    2.22    0.26
   0   0   5    3.02    0.36
   0   0  -5    1.90    0.24
   0   0   5    1.99    0.18
   0   0   5    2.47    0.26
  -1   0  -5   13.57    0.43
   1   0   5   12.80    0.46
   1   0   5   12.13    0.55
   1   0   5   13.09    0.55
  -1   0  -5   13.02    0.45
  -1   0  -5   12.47    0.55
  -1   0  -5   12.72    0.68
  -1   0  -5   12.21    0.57
   1   0   5   13.80    0.70
   2   0   5    0.56    0.15
   2   0   5    0.56    0.20
  -2   0  -5    0.81    0.23
  -2   0  -5    0.62    0.19
   2   0   5    0.71    0.19
  -3   0  -5   10.71    0.64
   3   0   5   10.53    0.56
  -3   0  -5   10.78    0.77
   3   0   5   12.26    0.60
  -4   0  -5    3.73    0.51
  -4   0  -5    3.68    0.60
  -4   0  -5    4.16    0.54
  -5   0  -5    7.23    0.93
  -5   0  -5    7.41    0.66
  -6   0  -5    0.35    0.46
  -6   0  -5    0.10    0.26
  -7   0  -5   -0.13    0.25
  -7   1   5    0.81    0.60
  -6   1   5    6.90    1.12
  -6   1   5    5.83    1.05
  -5  -1   5    7.23    0.51
  -5  -1   5    8.23    0.52
  -5   1   5    8.49    1.10
  -5   1   5    7.98    1.14
  -4   1   5    0.40    0.36
  -4   1   5    0.11    0.30
  -4   1   5    0.40    0.41
  -3  -1   5    7.40    0.33
   3  -1  -5    8.17    0.64
  -3  -1   5    7.68    0.45
  -3   1   5    7.89    0.88
   3   1  -5    8.81    0.46
  -3   1   5    9.02    0.76
  -2  -1   5   21.17    0.70
   2  -1  -5   20.67    0.93
   2  -1  -5   19.98    0.93
  -2  -1   5   20.36    0.61
  -2  -1   5   21.38    0.63
  -2  -1   5   20.82    0.72
   2   1  -5   20.86    0.63
  -2   1   5   21.07    1.05
  -2   1   5   19.12    1.13
  -2   1   5   20.82    1.06
   1  -1  -5   88.20    2.21
  -1  -1   5   88.62    2.19
  -1  -1   5   87.20    1.92
   1  -1  -5   86.07    2.34
   1  -1  -5   90.65    2.40
   1   1  -5   89.32    1.75
  -1   1   5   92.43    2.48
   1   1  -5   89.59    1.50
   1   1  -5   88.69    2.11
  -1   1   5   86.62    2.32
  -1   1   5   93.31    2.57
   0  -1  -5    3.52    0.23
   0  -1  -5    3.41    0.31
   0  -1   5    3.67    0.31
   0  -1  -5    3.36    0.40
   0  -1   5    3.08    0.43
   0  -1  -5    3.91    0.40
   0  -1   5    3.63    0.19
   0  -1  -5    3.68    0.47
   0  -1   5    3.97    0.32
   0   1  -5    3.30    0.46
   0   1  -5    3.66    0.22
   0   1   5    3.47    0.49
   0   1  -5    3.94    0.44
   0   1   5    3.11    0.35
   0   1   5    3.63    0.33
   0   1   5    3.26    0.48
   0   1  -5    3.37    0.28
  -1  -1  -5   54.02    1.04
   1  -1   5   54.66    1.60
  -1  -1  -5   54.38    1.39
  -1  -1  -5   53.02    1.23
  -1  -1  -5   53.33    1.45
   1  -1   5   54.28    1.51
  -1  -1  -5   52.25    1.66
   1  -1   5   53.93    1.71
  -1  -1  -5   53.71    1.41
  -1   1  -5   56.52    1.25
  -1   1  -5   55.74    1.55
   1   1   5   54.88    1.69
  -1   1  -5   52.86    1.74
   1   1   5   56.91    1.42
   1   1   5   56.31    1.60
  -1   1  -5   54.52    1.85
   2  -1   5   25.72    1.16
  -2  -1  -5   27.58    0.93
  -2  -1  -5   27.22    1.12
   2  -1   5   27.93    1.05
   2  -1   5   28.56    1.21
  -2  -1  -5   28.28    0.92
  -2   1  -5   30.25    1.39
   2   1   5   28.60    0.99
  -2   1  -5   28.78    1.34
  -2   1  -5   28.02    1.12
  -3  -1  -5   38.65    1.41
   3  -1   5   37.08    1.31
  -3  -1  -5   36.54    1.11
  -3  -1  -5   36.62    1.22
  -3  -1  -5   36.87    1.16
  -3   1  -5   39.46    1.50
  -3   1  -5   37.73    1.66
  -3   1  -5   36.48    1.71
  -4  -1  -5   12.15    0.62
  -4  -1  -5   12.78    0.84
  -4  -1  -5   12.61    0.67
  -4   1  -5   13.23    1.11
  -5  -1  -5   12.99    0.76
  -5  -1  -5   11.97    0.90
  -5  -1  -5   13.38    0.68
  -5   1  -5   13.32    1.45
  -5   1  -5   12.09    1.01
  -6  -1  -5    8.29    0.57
  -6   1  -5    6.00    0.88
  -7  -1  -5    2.32    0.39
  -7   1  -5    2.24    0.60
  -6   2   5    0.92    0.71
  -5   2   5    4.15    0.91
  -5   2   5    2.93    0.85
  -4   2   5    2.37    0.71
  -4   2   5    2.53    0.78
   3  -2  -5    5.30    0.72
  -3  -2   5    6.29    0.29
  -3  -2   5    6.14    0.36
  -3  -2   5    5.85    0.49
  -3   2   5    6.08    0.89
  -3   2   5    5.25    0.85
   3   2  -5    6.61    0.45
  -3   2   5    6.81    1.12
  -2  -2   5    2.64    0.46
  -2  -2   5    2.87    0.23
   2  -2  -5    3.83    0.62
  -2  -2   5    3.13    0.29
  -2  -2   5    3.24    0.44
   2  -2  -5    3.51    0.60
  -2  -2   5    3.29    0.24
  -2   2   5    3.27    0.63
  -2   2   5    3.27    0.59
  -2   2   5    3.03    0.75
   2   2  -5    3.69    0.30
   1  -2  -5   35.24    1.42
  -1  -2   5   36.41    1.42
   1  -2  -5   35.69    1.54
  -1  -2   5   33.16    0.94
   1  -2  -5   34.58    1.55
  -1  -2   5   33.09    1.08
   1  -2  -5   34.26    1.34
  -1  -2   5   34.63    0.90
   1   2  -5   35.30    0.76
  -1   2   5   39.34    1.84
  -1   2   5   34.18    1.56
   1   2  -5   35.11    1.02
  -1   2   5   34.50    1.41
   0  -2   5   41.50    1.38
   0  -2  -5   40.01    0.96
   0  -2   5   40.48    1.14
   0  -2   5   42.75    1.67
   0  -2  -5   39.97    1.44
   0  -2  -5   40.57    1.24
   0  -2   5   38.65    1.07
   0  -2  -5   40.73    1.39
   0  -2  -5   41.16    1.64
   0  -2   5   38.10    1.37
   0  -2  -5   39.53    1.54
   0   2  -5   40.77    1.01
   0   2  -5   38.90    1.59
   0   2   5   39.08    1.34
   0   2  -5   36.46    1.54
   0   2   5   39.49    1.60
   0   2   5   42.06    1.78
   0   2   5   42.83    1.47
  -1  -2  -5   78.75    2.19
  -1  -2  -5   79.07    2.12
  -1  -2  -5   83.09    1.95
   1  -2   5   80.53    2.28
  -1  -2  -5   82.09    2.20
  -1  -2  -5   81.69    1.45
   1  -2   5   80.73    2.45
   1  -2   5   84.17    2.68
  -1   2  -5   82.36    2.26
  -1   2  -5   83.22    2.74
   1   2   5   79.48    2.52
  -1   2  -5   83.05    2.73
   1   2   5   84.13    2.05
  -2  -2  -5   48.57    1.47
  -2  -2  -5   46.02    1.31
   2  -2   5   46.05    1.67
  -2  -2  -5   46.02    1.45
  -2  -2  -5   49.00    1.77
   2  -2   5   47.97    1.92
   2  -2   5   43.55    1.82
  -2  -2  -5   46.22    1.46
  -2   2  -5   45.39    1.70
  -2   2  -5   45.39    2.04
  -2   2  -5   48.36    2.11
  -3  -2  -5    4.19    0.47
  -3  -2  -5    3.71    0.55
  -3  -2  -5    4.30    0.48
  -3  -2  -5    3.41    0.40
   3  -2   5    3.87    0.58
  -3   2  -5    3.34    0.74
  -3   2  -5    3.28    0.73
  -4  -2  -5   18.66    1.06
  -4  -2  -5   18.77    0.82
  -4  -2  -5   18.00    0.82
  -4   2  -5   18.36    1.43
  -5  -2  -5    0.88    0.25
  -5  -2  -5    0.81    0.27
  -5  -2  -5    0.28    0.30
  -5   2  -5    0.82    0.53
  -6  -2  -5    0.54    0.26
  -6   2  -5    0.43    0.47
  -6   3   5    0.72    0.74
  -5   3   5    4.04    1.11
  -4  -3   5    5.09    0.48
  -4  -3   5    4.81    0.33
  -4   3   5    7.24    1.37
  -3  -3   5    4.34    0.58
  -3  -3   5    4.38    0.38
  -3  -3   5    4.27    0.37
  -3  -3   5    4.19    0.35
   3   3  -5    3.92    0.48
  -3   3   5    4.69    1.12
  -2  -3   5    8.63    0.60
  -2  -3   5    9.71    0.51
   2  -3  -5   10.02    1.08
  -2  -3   5    9.36    0.55
  -2  -3   5    8.78    0.60
  -2  -3   5    8.67    0.81
   2   3  -5    9.72    0.36
   2   3  -5    9.21    0.61
  -2   3   5    9.74    1.39
  -1  -3   5    8.62    1.00
   1  -3  -5    7.76    0.70
  -1  -3   5    7.35    0.46
   1  -3  -5    8.17    1.06
   1  -3  -5    5.72    0.79
  -1  -3   5    8.25    0.67
   1  -3  -5    6.25    0.88
   1  -3  -5    7.69    0.49
  -1  -3   5    8.04    0.50
  -1   3   5    7.77    1.00
  -1   3   5    8.95    1.25
   1   3  -5    7.81    0.42
   0  -3  -5   17.29    1.08
   0  -3   5   16.04    0.75
   0  -3  -5   16.39    1.16
   0  -3  -5   15.63    0.94
   0  -3   5   17.70    1.02
   0  -3  -5   16.90    0.62
   0  -3   5   15.19    1.19
   0  -3   5   17.52    0.81
   0  -3  -5   17.62    0.88
   0  -3  -5   17.05    1.19
   0   3  -5   15.84    1.23
   0   3  -5   16.47    1.12
   0   3   5   16.65    1.32
   0   3   5   16.66    0.91
   0   3  -5   16.01    0.69
  -1  -3  -5   17.12    1.17
  -1  -3  -5   17.09    0.47
  -1  -3  -5   16.50    1.06
   1  -3   5   17.30    1.16
   1  -3   5   18.99    1.11
  -1  -3  -5   15.62    0.99
  -1  -3  -5   16.26    0.90
  -1  -3  -5   17.81    0.86
  -1   3  -5   15.59    1.29
   1   3   5   16.46    1.28
  -2  -3  -5   14.21    0.88
   2  -3   5   11.29    0.93
  -2  -3  -5   14.69    1.05
  -2  -3  -5   11.42    0.68
  -2   3  -5   12.45    1.50
  -3  -3  -5    2.52    0.39
  -3  -3  -5    2.30    0.42
  -3  -3  -5    2.23    0.56
  -3  -3  -5    1.85    0.42
   3  -3   5    2.75    0.60
  -3   3  -5    1.69    0.72
  -4  -3  -5   14.70    1.05
  -4  -3  -5   12.50    0.81
  -4  -3  -5   12.61    0.79
  -4   3  -5   17.60    1.97
  -5  -3  -5    5.48    0.63
  -5   3  -5    5.31    1.15
  -6   3  -5    0.12    0.52
  -5   4   5    2.69    1.12
  -4  -4   5    4.85    0.38
  -4  -4   5    5.58    0.80
  -4   4   5    5.74    1.42
  -3  -4   5   11.73    0.73
  -3  -4   5   11.32    0.71
  -3  -4   5   11.79    0.89
  -3  -4   5   12.61    1.11
  -3   4   5    9.35    1.63
  -2  -4   5    2.59    0.40
  -2  -4   5    1.86    0.45
   2  -4  -5    4.25    0.85
   2  -4  -5    4.41    0.83
  -2  -4   5    2.08    0.54
   2   4  -5    2.11    0.32
  -2   4   5    2.20    0.87
  -1  -4   5    0.59    0.23
  -1  -4   5    0.93    0.26
   1  -4  -5    0.94    0.27
   1  -4  -5    1.64    0.56
  -1  -4   5    1.10    0.47
  -1   4   5    0.52    0.60
   0  -4   5   11.88    0.96
   0  -4   5   10.16    0.70
   0  -4  -5   13.21    1.11
   0  -4  -5   11.86    0.55
   0  -4  -5   12.62    0.85
   0  -4   5   12.91    0.81
  -1  -4  -5   24.96    1.45
  -1  -4  -5   26.94    1.69
   1  -4   5   25.37    1.49
  -1  -4  -5   24.99    1.19
   1  -4   5   24.27    1.23
  -2  -4  -5   13.68    1.02
   2  -4   5   13.01    1.10
  -2  -4  -5   14.70    0.86
  -2  -4  -5   11.83    1.32
  -2   4  -5   10.97    1.58
  -3  -4  -5    0.66    0.46
  -3  -4  -5    0.90    0.30
  -3  -4  -5    2.13    0.51
  -3   4  -5    0.74    0.65
  -4  -4  -5   11.82    0.92
  -4   4  -5   12.00    1.83
  -5  -4  -5    5.67    0.74
  -5   4  -5    6.80    1.45
  -4  -5   5    6.40    0.58
  -4   5   5    7.43    1.73
  -3  -5   5    4.83    0.68
  -3  -5   5    4.76    0.63
  -3   5   5    5.04    1.39
  -2  -5   5   21.01    1.53
   2  -5  -5   20.04    1.02
   2  -5  -5   22.38    1.74
   2  -5  -5   21.58    1.63
  -2  -5   5   18.52    1.24
  -2  -5   5   20.17    1.05
  -1  -5   5   17.84    0.98
  -1  -5   5   15.12    1.16
   1  -5  -5   14.96    1.06
   1  -5  -5   16.55    1.73
   1  -5  -5   15.94    1.37
   0  -5   5    3.62    0.73
   0  -5  -5    4.72    0.92
   0  -5   5    4.53    0.64
   0  -5  -5    3.14    0.61
  -1  -5  -5   12.85    1.40
  -1  -5  -5   11.85    0.91
   1  -5   5   10.80    1.26
   1  -5   5   14.56    0.94
   2  -5   5   10.02    1.24
  -2  -5  -5    9.42    1.17
  -2  -5  -5    8.52    0.75
  -3  -5  -5    0.16    0.39
  -3  -5  -5   -0.13    0.18
  -4  -5  -5    1.74    0.58
  -4  -5  -5    1.11    0.37
  -4   5  -5    2.88    1.16
  -2  -6   5    0.68    0.33
   2  -6  -5    0.93    0.62
   2  -6  -5    0.82    0.41
  -2  -6   5    0.66    0.42
   1  -6  -5    1.52    0.68
   1  -6  -5    1.21    0.46
  -1  -6   5    2.41    0.48
  -1  -6   5    2.08    0.61
   0  -6   5    1.40    0.56
   0  -6   5    1.54    0.45
   0  -6  -5    1.60    0.62
   0  -6  -5    1.79    0.52
   0  -6  -5    1.95    0.73
  -1  -6  -5    0.64    0.46
  -1  -6  -5    0.64    0.50
   1  -6   5    0.41    0.45
  -1  -6  -5    1.23    0.44
   1  -6   5    0.99    0.42
  -2  -6  -5    1.39    0.56
  -2  -6  -5    1.70    0.67
  -2  -6  -5    1.33    0.44
   2  -6   5    1.05    0.57
   2  -6   5    1.83    0.49
  -6   0   6    8.88    0.98
  -6   0   6    9.55    1.03
  -5   0   6    8.58    0.78
  -5   0   6    7.61    0.92
  -5   0   6    7.02    0.86
  -4   0   6    1.67    0.47
  -4   0   6    3.45    0.50
  -4   0   6    3.66    0.54
  -3   0   6   47.98    1.49
  -3   0   6   48.90    1.58
  -3   0   6   43.30    1.63
  -3   0   6   45.89    1.27
  -2   0   6   90.47    2.24
  -2   0   6   87.42    2.25
  -2   0   6   91.22    2.32
   1   0  -6  197.96    4.15
  -1   0   6  193.26    4.06
   1   0  -6  193.80    3.25
  -1   0   6  200.40    4.27
   1   0  -6  195.19    4.18
   1   0  -6  201.62    3.96
   0   0   6   46.46    1.11
   0   0   6   48.32    1.48
   0   0  -6   47.35    1.30
   0   0  -6   48.00    1.46
   0   0  -6   46.06    1.23
   0   0   6   47.82    1.27
   0   0  -6   46.93    0.95
   0   0   6   45.27    1.26
   0   0  -6   46.28    0.89
   0   0  -6   46.58    1.05
  -1   0  -6    0.34    0.10
   1   0   6    0.68    0.19
  -1   0  -6    1.01    0.28
  -1   0  -6    0.73    0.21
   1   0   6    0.58    0.17
   1   0   6    0.68    0.26
   1   0   6    0.52    0.12
  -1   0  -6    0.72    0.15
  -1   0  -6    0.60    0.18
  -2   0  -6   -0.04    0.16
  -2   0  -6   -0.03    0.12
   2   0   6   -0.08    0.14
   2   0   6    0.12    0.13
  -2   0  -6    0.21    0.20
   2   0   6    0.02    0.09
  -3   0  -6   13.97    0.74
   3   0   6   12.39    0.64
  -3   0  -6   13.32    0.88
   3   0   6   13.27    0.65
  -4   0  -6   49.15    1.69
  -4   0  -6   50.52    1.97
  -5   0  -6    9.60    1.07
  -5   0  -6    8.60    0.70
  -6   0  -6    2.29    0.47
  -6   0  -6    1.75    0.64
  -7   0  -6    0.84    0.37
  -7   1   6    1.37    0.65
  -6   1   6    2.71    0.80
  -6   1   6    2.83    0.79
  -5  -1   6    3.17    0.39
  -5  -1   6    3.04    0.43
  -5   1   6    3.43    0.81
  -5   1   6    2.78    0.70
  -4  -1   6    5.18    0.51
  -4  -1   6    4.72    0.33
  -4   1   6    5.52    0.91
   4   1  -6    5.52    0.43
  -4   1   6    4.37    0.72
  -4   1   6    5.47    0.83
  -3  -1   6   15.61    0.68
  -3  -1   6   16.04    0.60
   3  -1  -6   14.28    0.86
  -3  -1   6   17.52    0.59
  -3   1   6   17.19    1.05
   3   1  -6   17.13    0.66
  -3   1   6   16.55    1.07
  -2  -1   6   90.09    2.05
  -2  -1   6   88.20    1.95
   2  -1  -6   88.59    2.38
  -2  -1   6   89.58    2.12
   2  -1  -6   87.76    2.37
   2   1  -6   91.92    1.93
  -2   1   6   93.43    2.84
  -2   1   6   91.14    2.65
   1  -1  -6   26.67    1.12
   1  -1  -6   29.00    1.08
  -1  -1   6   27.52    1.03
   1  -1  -6   27.47    0.78
   1  -1  -6   30.01    1.19
   1   1  -6   28.87    0.62
   1   1  -6   28.41    0.62
   1   1  -6   28.41    0.87
   1   1  -6   28.08    1.01
  -1   1   6   27.15    1.08
  -1   1   6   28.30    1.27
  -1   1   6   27.00    1.22
   0  -1  -6   42.78    1.24
   0  -1   6   43.48    1.24
   0  -1  -6   44.16    1.52
   0  -1  -6   43.19    0.94
   0  -1   6   42.58    1.23
   0  -1   6   42.80    0.86
   0  -1  -6   42.44    1.34
   0  -1  -6   44.98    1.32
   0  -1   6   43.11    1.46
   0   1   6   42.77    1.49
   0   1  -6   43.08    1.19
   0   1  -6   43.62    1.34
   0   1   6   46.72    1.34
   0   1  -6   41.87    1.50
   0   1   6   44.25    1.56
   0   1   6   42.30    1.30
   0   1  -6   43.20    0.94
   1  -1   6   50.69    1.53
   1  -1   6   49.31    1.66
  -1  -1  -6   48.13    1.40
  -1  -1  -6   47.07    1.30
  -1  -1  -6   47.69    1.14
  -1  -1  -6   46.35    0.99
  -1  -1  -6   49.11    1.37
   1  -1   6   47.73    1.42
  -1  -1  -6   46.74    1.60
   1   1   6   47.97    1.50
  -1   1  -6   45.81    1.72
  -1   1  -6   49.39    1.42
  -1   1  -6   48.10    1.62
  -1   1  -6   48.71    1.15
   1   1   6   48.07    1.63
   1   1   6   47.58    1.32
  -2  -1  -6   79.77    1.98
   2  -1   6   75.75    2.28
   2  -1   6   81.21    2.36
  -2  -1  -6   76.21    1.92
  -2  -1  -6   78.13    2.28
   2  -1   6   76.61    2.07
  -2   1  -6   77.70    2.52
  -2   1  -6   77.55    2.16
   2   1   6   75.57    2.04
   2   1   6   79.70    2.01
  -2   1  -6   78.29    2.40
  -3  -1  -6    7.60    0.51
  -3  -1  -6    7.89    0.51
  -3  -1  -6    8.85    0.68
   3  -1   6    8.35    0.74
  -3  -1  -6    7.71    0.49
   3  -1   6    8.02    0.59
  -3   1  -6    7.50    0.86
  -3   1  -6    7.90    0.93
  -3   1  -6    8.56    0.67
  -4  -1  -6    1.37    0.29
  -4  -1  -6    2.16    0.46
  -4  -1  -6    1.53    0.29
  -4   1  -6    0.80    0.35
  -4   1  -6    0.82    0.46
  -5  -1  -6    1.78    0.33
  -5  -1  -6    1.64    0.50
  -5   1  -6    2.14    0.55
  -6  -1  -6    0.25    0.22
  -6   1  -6    0.31    0.36
  -6   2   6    5.42    1.16
  -5   2   6    3.97    0.97
  -4   2   6    3.41    0.78
  -4   2   6    2.97    0.84
  -3  -2   6   11.85    0.46
  -3  -2   6   12.48    0.64
  -3   2   6   13.34    1.09
   3   2  -6   13.19    0.62
  -3   2   6   11.80    1.42
  -2  -2   6   25.17    0.84
   2  -2  -6   26.05    1.35
  -2  -2   6   26.17    0.81
   2  -2  -6   25.27    1.27
  -2  -2   6   26.65    1.20
  -2  -2   6   24.90    1.10
  -2  -2   6   26.49    0.77
   2   2  -6   27.09    0.54
   2   2  -6   28.26    0.89
  -2   2   6   27.07    1.65
  -2   2   6   28.80    1.42
  -2   2   6   28.69    1.50
  -1  -2   6   20.75    0.60
   1  -2  -6   22.06    1.05
  -1  -2   6   21.60    0.68
  -1  -2   6   21.67    1.11
   1  -2  -6   21.40    1.11
   1  -2  -6   22.59    1.25
   1  -2  -6   21.31    1.22
  -1  -2   6   21.31    0.84
   1  -2  -6   22.16    0.77
  -1   2   6   22.58    1.11
   1   2  -6   21.96    0.57
   1   2  -6   22.48    0.73
  -1   2   6   21.14    1.25
   1   2  -6   22.79    0.99
  -1   2   6   22.33    1.41
   0  -2  -6   17.63    0.99
   0  -2  -6   18.79    0.78
   0  -2  -6   16.55    0.84
   0  -2   6   16.77    1.04
   0  -2  -6   16.56    1.06
   0  -2  -6   18.29    0.96
   0  -2   6   15.93    0.83
   0  -2   6   18.16    0.86
   0  -2  -6   17.52    0.58
   0  -2   6   17.43    0.64
   0  -2   6   17.36    0.61
   0   2   6   17.63    0.84
   0   2   6   15.91    1.10
   0   2  -6   16.00    1.02
   0   2  -6   16.53    0.60
   0   2   6   17.82    1.07
   0   2   6   15.99    0.87
   0   2  -6   16.63    1.01
  -1  -2  -6   26.41    1.09
   1  -2   6   28.15    1.16
   1  -2   6   26.80    1.36
  -1  -2  -6   27.22    0.93
  -1  -2  -6   26.29    1.03
  -1  -2  -6   24.93    0.62
  -1  -2  -6   24.87    1.07
   1  -2   6   24.40    1.19
  -1  -2  -6   21.05    1.19
  -1   2  -6   26.54    1.07
  -1   2  -6   25.15    1.41
   1   2   6   25.77    1.10
  -1   2  -6   23.61    0.84
  -1   2  -6   22.04    1.31
   1   2   6   26.31    0.96
   1   2   6   26.33    1.32
   2  -2   6   30.54    1.51
  -2  -2  -6   30.58    1.12
   2  -2   6   28.25    1.43
  -2  -2  -6   31.05    1.00
  -2  -2  -6   27.82    1.34
  -2  -2  -6   29.81    1.15
   2  -2   6   29.55    1.28
  -2   2  -6   30.72    1.68
  -2   2  -6   31.91    1.67
  -2   2  -6   31.88    1.35
   2   2   6   31.82    1.41
  -3  -2  -6    7.54    0.82
   3  -2   6    7.40    0.80
  -3  -2  -6    8.21    0.55
  -3  -2  -6    7.09    0.54
  -3   2  -6    8.43    1.12
  -4  -2  -6   18.14    0.86
  -4  -2  -6   18.78    0.88
  -4  -2  -6   17.11    1.06
  -4   2  -6   20.88    1.53
  -5  -2  -6    1.54    0.36
  -5  -2  -6    1.98    0.52
  -5   2  -6    1.42    0.59
  -6  -2  -6    2.95    0.44
  -6   2  -6    1.87    0.64
  -6   3   6    1.27    0.81
  -5   3   6    2.79    1.00
  -4  -3   6    0.60    0.16
  -4  -3   6    1.11    0.33
  -4   3   6    0.95    0.68
  -3  -3   6    7.30    0.48
  -3  -3   6    7.33    0.45
  -3  -3   6    7.88    0.48
  -3  -3   6    6.64    0.75
  -3   3   6    5.92    1.19
  -2  -3   6    2.98    0.42
  -2  -3   6    2.44    0.28
  -2  -3   6    2.11    0.52
  -2  -3   6    3.48    0.39
  -2  -3   6    2.43    0.38
   2  -3  -6    2.31    0.57
   2   3  -6    2.49    0.22
   2   3  -6    2.96    0.40
  -2   3   6    1.31    0.68
   1  -3  -6    4.94    0.65
  -1  -3   6    4.43    0.34
   1  -3  -6    4.33    0.44
  -1  -3   6    4.53    0.38
   1  -3  -6    4.44    0.72
  -1  -3   6    5.30    0.80
  -1  -3   6    4.99    0.61
  -1   3   6    6.31    1.10
   1   3  -6    4.02    0.31
   0  -3   6   10.72    0.58
   0  -3   6    9.49    0.58
   0  -3  -6   12.63    1.02
   0  -3   6   12.70    0.90
   0  -3  -6    9.22    0.81
   0  -3  -6   10.75    0.69
   0  -3   6    9.12    0.73
   0  -3  -6   10.79    0.49
   0  -3   6    8.67    1.04
   0  -3  -6    9.71    0.74
   0  -3  -6    7.55    0.92
   0   3  -6   10.13    0.56
   0   3  -6    9.97    0.93
   0   3  -6   11.61    1.03
   0   3   6   11.06    1.29
   1  -3   6   25.56    1.31
  -1  -3  -6   25.01    1.32
  -1  -3  -6   25.65    1.16
  -1  -3  -6   23.48    1.39
  -1  -3  -6   24.81    1.27
  -1  -3  -6   24.84    1.05
   1  -3   6   23.96    1.39
  -1  -3  -6   25.02    0.63
  -1   3  -6   23.40    1.57
  -2  -3  -6    6.50    0.51
  -2  -3  -6    6.13    0.71
   2  -3   6    6.76    0.82
  -2  -3  -6    6.65    0.89
  -2   3  -6    6.64    1.10
  -3  -3  -6    2.32    0.46
  -3  -3  -6    2.32    0.38
  -3  -3  -6    2.91    0.62
   3  -3   6    2.76    0.58
  -3   3  -6    2.64    0.78
  -4  -3  -6    5.35    0.80
  -4  -3  -6    5.71    0.68
  -4   3  -6    6.17    1.23
  -5  -3  -6    0.98    0.36
  -5   3  -6    0.17    0.52
  -6   3  -6   -0.74    0.40
  -5   4   6    9.95    1.84
  -4  -4   6    1.87    0.56
  -4  -4   6    1.82    0.28
  -4   4   6    0.62    0.86
  -3  -4   6    5.79    0.61
  -3  -4   6    5.25    0.86
  -3  -4   6    7.62    0.83
  -3   4   6    9.18    1.71
  -2  -4   6    2.24    0.38
  -2  -4   6    2.49    0.54
  -2  -4   6    2.22    0.46
   2  -4  -6    3.23    0.77
   2   4  -6    2.55    0.34
  -2   4   6    3.95    1.08
  -1  -4   6   15.75    0.81
   1  -4  -6   13.74    0.72
  -1  -4   6   15.84    1.04
  -1  -4   6   15.06    1.14
   1  -4  -6   17.32    1.30
  -1   4   6   15.26    1.92
   1   4  -6   15.87    0.76
   0  -4   6   20.63    1.27
   0  -4  -6   23.35    0.78
   0  -4   6   22.41    1.01
   0  -4  -6   18.17    1.31
   0  -4  -6   19.17    1.09
   1  -4   6   33.78    1.30
   1  -4   6   32.22    1.41
   1  -4   6   32.74    1.69
  -1  -4  -6   30.57    1.34
  -1  -4  -6   30.55    1.65
  -2  -4  -6    3.55    0.80
   2  -4   6    4.21    0.76
  -2  -4  -6    4.14    0.55
  -2  -4  -6    4.67    0.74
  -2   4  -6    3.26    0.94
  -3  -4  -6    6.19    0.68
  -3  -4  -6    6.60    0.86
  -3  -4  -6    7.81    1.12
  -3   4  -6    3.04    1.01
  -4  -4  -6    9.20    1.00
  -4   4  -6   10.26    1.68
  -5  -4  -6    2.45    0.54
  -5   4  -6    2.47    1.03
  -4  -5   6    7.93    0.61
  -4   5   6    9.38    1.98
  -3  -5   6    1.05    0.37
  -3  -5   6    1.44    0.35
  -3   5   6    1.38    0.91
   2  -5  -6   15.00    1.37
  -2  -5   6   11.84    0.79
   2  -5  -6   14.03    1.65
   2  -5  -6   14.87    0.87
  -2  -5   6   13.30    1.03
  -1  -5   6    1.34    0.47
  -1  -5   6    1.31    0.36
   1  -5  -6    1.57    0.46
   1  -5  -6    2.20    0.73
   0  -5   6    8.27    0.71
   0  -5  -6    7.49    0.87
   0  -5  -6    8.19    1.19
   0  -5   6    7.56    1.00
   1  -5   6   10.79    1.25
   1  -5   6   11.56    0.84
  -1  -5  -6   11.72    0.89
  -1  -5  -6   11.80    1.36
  -2  -5  -6    0.16    0.35
   2  -5   6    0.62    0.43
  -2  -5  -6    0.63    0.28
  -3  -5  -6    1.45    0.56
  -3  -5  -6    1.45    0.38
  -4  -5  -6    2.07    0.62
  -4  -5  -6    1.39    0.40
  -4   5  -6    0.10    0.81
   2  -6  -6    0.21    0.35
  -2  -6   6    0.07    0.23
  -2  -6   6    0.24    0.38
   2  -6  -6    0.66    0.53
   1  -6  -6    0.91    0.58
   1  -6  -6   -0.17    0.41
  -1  -6   6    0.58    0.29
  -1  -6   6    0.67    0.44
   1  -6  -6    0.09    0.29
   0  -6   6    1.15    0.39
   0  -6   6    1.05    0.49
   0  -6  -6    0.51    0.44
   0  -6  -6    0.76    0.59
   0  -6  -6    0.55    0.36
  -1  -6  -6   -0.02    0.42
   1  -6   6    0.02    0.28
  -1  -6  -6   -0.14    0.34
  -1  -6  -6   -0.17    0.23
   1  -6   6    0.13    0.38
   2  -6   6    0.66    0.45
  -2  -6  -6    0.80    0.51
  -2  -6  -6    0.94    0.40
  -2  -6  -6    1.27    0.61
  -6   0   7   -0.15    0.40
  -5   0   7    1.84    0.45
  -5   0   7    1.21    0.50
  -5   0   7    1.43    0.46
  -4   0   7    0.05    0.24
  -4   0   7    0.36    0.32
  -4   0   7    0.02    0.25
  -3   0   7   68.81    2.17
  -3   0   7   67.91    1.99
  -3   0   7   67.50    2.00
  -2   0   7   56.76    1.65
  -2   0   7   58.98    1.74
  -1   0   7   27.29    1.00
   1   0  -7   28.34    0.72
   1   0  -7   28.23    0.94
  -1   0   7   29.04    0.99
  -1   0   7   27.81    1.10
   1   0  -7   27.90    1.00
   1   0  -7   29.40    1.06
   0   0  -7    0.65    0.19
   0   0   7    0.81    0.16
   0   0   7    1.14    0.24
   0   0  -7    0.94    0.14
   0   0   7    0.96    0.20
   0   0  -7    1.18    0.23
   0   0   7    0.60    0.25
   0   0  -7    1.39    0.32
   0   0  -7    1.24    0.11
   0   0  -7    0.97    0.14
   1   0   7   35.12    1.11
  -1   0  -7   36.36    0.89
   1   0   7   37.45    1.38
   1   0   7   36.52    0.99
  -1   0  -7   35.31    0.94
   1   0   7   36.77    1.16
  -1   0  -7   37.18    1.39
  -1   0  -7   36.53    1.16
  -1   0  -7   36.00    1.15
  -2   0  -7   66.29    1.42
  -2   0  -7   66.30    2.11
   2   0   7   65.06    1.75
   2   0   7   67.01    1.67
  -2   0  -7   68.21    1.87
  -2   0  -7   66.15    1.82
   2   0   7   65.53    1.88
  -3   0  -7    6.79    0.53
  -3   0  -7    6.57    0.77
   3   0   7    6.52    0.46
  -4   0  -7    5.66    0.79
  -5   0  -7    6.44    0.71
  -5   0  -7    6.65    0.95
  -6   0  -7    1.41    0.39
  -7   1   7    1.26    0.72
  -6   1   7    1.47    0.69
  -5  -1   7    0.66    0.27
  -5  -1   7    0.68    0.29
  -5  -1   7    0.92    0.27
  -5   1   7    0.06    0.37
  -5   1   7    0.10    0.48
  -4  -1   7   20.05    0.79
  -4  -1   7   22.04    0.97
  -4   1   7   23.19    1.53
   4   1  -7   25.06    0.93
  -4   1   7   21.81    1.34
  -4   1   7   23.39    1.37
  -3  -1   7    4.15    0.33
  -3  -1   7    3.85    0.43
  -3  -1   7    3.43    0.31
  -3  -1   7    3.82    0.34
  -3   1   7    3.61    0.60
  -3   1   7    3.97    0.63
   3   1  -7    3.33    0.28
  -2  -1   7   16.60    0.64
  -2  -1   7   15.62    0.63
   2  -1  -7   16.35    0.87
  -2  -1   7   14.79    0.72
  -2  -1   7   16.09    0.69
   2  -1  -7   15.81    0.86
  -2   1   7   14.72    1.06
  -2   1   7   16.92    1.01
   2   1  -7   16.53    0.51
   1  -1  -7    2.66    0.44
   1  -1  -7    2.31    0.43
   1  -1  -7    2.14    0.33
   1  -1  -7    2.85    0.29
   1  -1  -7    2.24    0.37
  -1  -1   7    2.48    0.39
  -1   1   7    2.04    0.44
  -1   1   7    1.75    0.33
   1   1  -7    2.37    0.20
   1   1  -7    2.42    0.30
   1   1  -7    2.71    0.41
  -1   1   7    2.14    0.43
   0  -1   7   18.11    0.75
   0  -1   7   18.64    0.94
   0  -1  -7   16.99    0.61
   0  -1  -7   17.39    0.83
   0  -1  -7   17.63    0.72
   0  -1   7   18.19    0.39
   0  -1  -7   17.57    0.54
   0  -1   7   18.31    0.74
   0  -1  -7   18.03    0.95
   0  -1   7   17.67    0.40
   0  -1  -7   17.79    0.80
   0   1   7   19.84    1.03
   0   1   7   17.96    0.79
   0   1  -7   18.15    0.71
   0   1  -7   18.31    0.81
   0   1  -7   18.61    0.98
   0   1   7   16.65    0.92
   0   1  -7   17.06    0.54
  -1  -1  -7   34.13    1.20
  -1  -1  -7   37.01    1.44
  -1  -1  -7   37.50    0.95
   1  -1   7   37.24    1.44
  -1  -1  -7   37.52    0.85
   1  -1   7   35.18    1.20
  -1  -1  -7   36.13    1.18
  -1  -1  -7   35.95    1.09
   1  -1   7   35.16    1.26
   1   1   7   37.83    1.17
  -1   1  -7   38.09    0.99
   1   1   7   37.70    1.20
   1   1   7   36.46    1.33
  -1   1  -7   35.71    1.52
   1   1   7   37.77    1.46
  -1   1  -7   36.40    1.38
  -1   1  -7   38.45    1.23
  -2  -1  -7   56.85    1.52
   2  -1   7   53.56    1.64
   2  -1   7   53.43    1.88
  -2  -1  -7   54.47    1.87
  -2  -1  -7   51.97    1.51
   2  -1   7   54.41    1.84
  -2  -1  -7   54.87    1.11
  -2  -1  -7   53.24    1.56
   2   1   7   57.39    1.62
  -2   1  -7   54.57    1.71
   2   1   7   55.85    1.69
  -2   1  -7   53.50    2.07
   2   1   7   53.69    1.53
  -2   1  -7   56.10    1.93
  -3  -1  -7    8.28    0.54
  -3  -1  -7    7.20    0.50
   3  -1   7    8.49    0.62
  -3  -1  -7    8.64    0.73
  -3  -1  -7    8.18    0.52
   3  -1   7    7.65    0.72
  -3   1  -7    9.12    0.82
  -3   1  -7    7.23    0.61
  -3   1  -7    8.58    1.00
  -4  -1  -7    1.61    0.46
  -4  -1  -7    1.29    0.31
  -4  -1  -7    1.49    0.30
  -4   1  -7    0.41    0.32
  -4   1  -7    1.20    0.51
  -5  -1  -7    2.65    0.41
  -5  -1  -7    2.33    0.56
  -5   1  -7    2.09    0.55
  -6  -1  -7    4.42    0.54
  -6   1  -7    4.38    0.75
  -6   2   7    8.54    1.43
  -5   2   7    6.78    1.27
  -4  -2   7    0.49    0.20
  -4  -2   7    0.75    0.18
  -4   2   7    0.88    0.45
  -4   2   7    0.66    0.55
  -3  -2   7   23.85    0.76
  -3  -2   7   26.34    1.03
  -3  -2   7   24.96    0.78
  -3   2   7   25.95    1.76
  -3   2   7   25.40    1.50
   3   2  -7   26.75    0.92
   2  -2  -7    0.08    0.22
  -2  -2   7    0.20    0.14
  -2  -2   7    0.07    0.21
  -2  -2   7    0.42    0.14
   2  -2  -7    0.21    0.31
  -2   2   7    0.36    0.41
  -2   2   7    0.38    0.32
   2   2  -7    0.28    0.08
  -2   2   7    0.26    0.24
   2   2  -7    0.29    0.12
  -1  -2   7    1.64    0.21
   1  -2  -7    1.71    0.27
   1  -2  -7    1.57    0.39
   1  -2  -7    1.71    0.45
   1  -2  -7    1.56    0.34
  -1  -2   7    1.39    0.12
   1  -2  -7    1.11    0.40
  -1  -2   7    1.43    0.40
  -1  -2   7    1.31    0.25
  -1   2   7    1.40    0.37
   1   2  -7    1.33    0.31
  -1   2   7    1.62    0.53
  -1   2   7    1.56    0.46
   1   2  -7    1.50    0.18
   0  -2  -7   28.52    1.01
   0  -2   7   28.89    1.13
   0  -2   7   27.80    0.82
   0  -2  -7   28.19    0.79
   0  -2  -7   28.65    1.31
   0  -2  -7   26.35    1.20
   0  -2   7   28.51    1.39
   0  -2  -7   28.48    1.40
   0  -2  -7   28.30    1.14
   0  -2   7   26.72    0.79
   0  -2   7   29.29    1.16
   0   2  -7   28.30    0.83
   0   2   7   28.33    1.21
   0   2   7   25.65    1.43
   0   2   7   28.23    1.41
   0   2  -7   31.01    1.45
   0   2  -7   27.58    1.29
  -1  -2  -7   12.42    0.42
   1  -2   7   11.46    0.76
  -1  -2  -7   11.56    0.73
   1  -2   7   13.86    0.99
  -1  -2  -7   12.78    0.91
   1  -2   7   12.21    0.83
  -1  -2  -7   11.82    0.60
  -1  -2  -7   11.62    0.67
  -1  -2  -7   12.36    0.77
  -1   2  -7   12.99    1.05
  -1   2  -7   12.82    0.72
  -1   2  -7   11.90    0.60
   1   2   7   12.68    0.77
  -1   2  -7   12.52    0.99
   1   2   7   11.01    0.63
   1   2   7   11.33    0.92
  -2  -2  -7   14.27    0.99
  -2  -2  -7   14.33    0.81
   2  -2   7   16.80    1.12
  -2  -2  -7   14.81    0.76
   2  -2   7   15.15    0.91
  -2  -2  -7   15.68    0.68
  -2   2  -7   14.80    1.18
  -2   2  -7   14.19    1.12
  -2   2  -7   15.72    0.92
  -3  -2  -7   17.20    1.10
   3  -2   7   15.06    0.97
  -3  -2  -7   16.85    0.85
  -3  -2  -7   16.92    0.86
  -3   2  -7   15.92    1.28
  -4  -2  -7    8.20    0.62
  -4  -2  -7    7.68    0.88
  -4   2  -7    8.46    1.15
  -5  -2  -7    2.33    0.59
  -5  -2  -7    2.51    0.44
  -5   2  -7    2.47    0.70
  -6  -2  -7    2.22    0.43
  -6   2  -7    1.71    0.61
  -6   3   7    4.15    1.21
  -5   3   7    0.21    0.60
  -4  -3   7    0.27    0.26
  -4  -3   7    0.01    0.13
  -4  -3   7   -0.08    0.11
  -4   3   7    0.23    0.52
  -3  -3   7    5.67    0.73
  -3  -3   7    7.08    0.45
  -3  -3   7    6.00    0.45
  -3   3   7    4.84    1.15
  -2  -3   7    2.45    0.39
  -2  -3   7    2.37    0.33
  -2  -3   7    2.67    0.40
  -2  -3   7    2.76    0.25
   2  -3  -7    3.39    0.70
  -2  -3   7    2.83    0.59
  -2   3   7    3.17    0.86
   2   3  -7    3.16    0.24
   1  -3  -7   15.35    0.70
  -1  -3   7   16.19    1.16
  -1  -3   7   15.71    0.62
   1  -3  -7   16.58    1.03
  -1  -3   7   14.76    0.90
   1  -3  -7   16.40    1.12
  -1  -3   7   14.83    0.66
  -1   3   7   14.14    1.58
   1   3  -7   14.12    0.58
   0  -3   7   28.61    1.41
   0  -3  -7   27.25    1.30
   0  -3   7   31.33    1.70
   0  -3  -7   30.08    1.48
   0  -3   7   29.86    1.33
   0  -3  -7   30.34    1.20
   0  -3  -7   28.38    0.86
   0  -3  -7   29.45    1.62
   0  -3   7   27.69    0.98
   0  -3   7   29.11    1.04
   0   3  -7   31.87    1.62
   0   3  -7   29.09    1.00
   0   3   7   24.23    1.68
  -1  -3  -7    8.59    1.05
  -1  -3  -7    6.60    0.60
  -1  -3  -7    8.80    0.37
  -1  -3  -7   10.22    0.66
   1  -3   7    8.25    0.75
  -1  -3  -7    8.51    0.91
  -1   3  -7    7.76    1.09
  -2  -3  -7    1.19    0.47
   2  -3   7    0.63    0.32
  -2  -3  -7    1.11    0.28
  -2   3  -7    0.73    0.50
  -3  -3  -7   21.58    1.35
  -3  -3  -7   18.75    1.06
  -3  -3  -7   17.57    0.88
   3  -3   7   16.86    1.15
  -3   3  -7   18.51    1.61
  -4  -3  -7   25.12    1.24
  -4  -3  -7   27.21    1.53
  -4   3  -7   25.91    1.95
  -5  -3  -7    5.47    0.69
  -5   3  -7    3.66    0.98
  -6  -3  -7    0.40    0.33
  -6   3  -7    0.34    0.55
  -5   4   7   17.17    2.39
  -4  -4   7    1.56    0.56
  -4  -4   7    2.24    0.31
  -4   4   7    2.78    1.14
  -3  -4   7    8.35    0.77
  -3  -4   7    8.99    0.64
  -3   4   7   11.26    1.82
  -2  -4   7   21.93    1.12
   2  -4  -7   19.73    0.95
  -2  -4   7   19.17    1.20
   2  -4  -7   20.25    1.48
  -2  -4   7   20.64    0.93
   2   4  -7   20.59    0.79
  -2   4   7   23.31    2.47
  -1  -4   7   34.71    1.55
  -1  -4   7   32.92    1.20
   1  -4  -7   34.67    1.16
   1  -4  -7   31.10    1.82
  -1  -4   7   33.14    1.70
   1   4  -7   32.98    1.14
  -1   4   7   31.86    2.32
   0  -4   7   26.99    1.45
   0  -4  -7   26.37    1.28
   0  -4   7   26.46    1.10
   0  -4  -7   26.34    1.60
   0  -4  -7   26.27    0.86
   1  -4   7   25.31    1.09
  -1  -4  -7   24.90    1.49
  -1  -4  -7   23.93    1.18
   1  -4   7   22.07    1.37
   2  -4   7    9.24    1.09
  -2  -4  -7    8.97    1.04
  -2  -4  -7    8.53    0.67
  -2   4  -7    8.18    1.39
  -3  -4  -7   10.79    1.29
  -3  -4  -7    8.94    0.69
  -3  -4  -7    9.83    1.05
  -3   4  -7   11.91    1.72
  -4  -4  -7    1.74    0.54
  -4   4  -7    1.84    0.83
  -5  -4  -7    0.28    0.37
  -5   4  -7    0.75    0.74
  -4  -5   7    1.85    0.37
  -4   5   7    1.84    1.13
  -3  -5   7    2.96    0.53
   3  -5  -7    3.50    0.57
  -3   5   7    4.64    1.48
   2  -5  -7    5.17    0.62
   2  -5  -7    4.75    0.96
  -2  -5   7    3.13    0.50
  -2  -5   7    3.93    0.66
   2  -5  -7    3.93    0.97
  -1  -5   7    2.27    0.59
   1  -5  -7    4.20    0.68
   1  -5  -7    3.56    0.90
  -1  -5   7    3.73    0.53
   0  -5  -7    2.61    0.52
   0  -5   7    2.20    0.45
   0  -5   7    2.78    0.64
   0  -5  -7    2.94    0.80
  -1  -5  -7    0.16    0.27
  -1  -5  -7    1.02    0.50
   1  -5   7    0.75    0.35
   1  -5   7    0.37    0.37
   2  -5   7    2.94    0.73
  -2  -5  -7    3.30    0.55
  -2  -5  -7    3.00    0.71
  -3  -5  -7    6.81    0.79
  -3  -5  -7    6.81    1.03
  -4  -5  -7    1.46    0.57
  -2  -6   7    0.40    0.39
   2  -6  -7    1.32    0.52
  -2  -6   7    0.72    0.33
   1  -6  -7    1.46    0.50
  -1  -6   7    0.72    0.41
  -1  -6   7    1.17    0.36
   1  -6  -7    0.47    0.61
   1  -6  -7    1.37    0.66
   0  -6  -7    0.98    0.62
   0  -6  -7    0.29    0.33
   0  -6  -7    1.01    0.56
   0  -6   7    0.46    0.41
  -1  -6  -7    0.74    0.58
  -1  -6  -7   -0.04    0.26
   1  -6   7    0.54    0.45
  -6   0   8    0.01    0.42
  -5   0   8    1.84    0.50
  -5   0   8    1.68    0.57
  -5   0   8    2.30    0.53
  -4   0   8    0.45    0.28
  -4   0   8    0.74    0.40
  -4   0   8    0.70    0.30
  -3   0   8    3.47    0.50
  -3   0   8    3.68    0.59
  -3   0   8    2.83    0.43
  -2   0   8   63.40    1.77
   2   0  -8   61.10    1.69
  -2   0   8   61.24    1.90
   1   0  -8   57.94    1.60
   1   0  -8   60.73    1.26
  -1   0   8   63.71    1.75
   1   0  -8   60.33    1.46
   1   0  -8   58.99    1.78
  -1   0   8   58.84    1.86
  -1   0   8   60.56    1.68
   0   0  -8   25.54    0.90
   0   0  -8   24.50    0.53
   0   0   8   25.60    0.92
   0   0   8   24.74    0.77
   0   0  -8   24.57    0.95
   0   0  -8   23.38    1.07
   0   0   8   24.88    1.11
   0   0  -8   24.48    0.66
   0   0  -8   24.83    0.68
   0   0   8   23.91    0.92
  -1   0  -8    3.63    0.52
  -1   0  -8    2.79    0.22
   1   0   8    3.12    0.39
  -1   0  -8    3.18    0.30
  -1   0  -8    3.37    0.40
   1   0   8    3.20    0.49
   1   0   8    3.19    0.26
  -1   0  -8    3.21    0.39
   1   0   8    3.02    0.38
  -2   0  -8   29.41    1.11
  -2   0  -8   30.12    1.36
  -2   0  -8   30.16    1.14
   2   0   8   31.12    0.99
  -2   0  -8   28.58    0.86
   2   0   8   28.87    1.14
   2   0   8   28.34    1.06
  -4   0  -8    3.14    0.65
  -5   0  -8   11.21    0.81
  -5   0  -8   13.58    1.19
  -6   0  -8   -0.04    0.24
  -6   1   8    1.23    0.68
  -5  -1   8    0.76    0.35
  -5  -1   8    0.46    0.25
  -5  -1   8    0.24    0.22
  -5   1   8    0.81    0.46
  -5   1   8    0.36    0.51
  -4  -1   8    9.93    0.60
  -4  -1   8   10.11    0.60
  -4  -1   8    8.95    0.69
  -4   1   8   11.22    0.99
  -4   1   8   12.40    1.37
  -4   1   8    9.31    1.05
   4   1  -8   10.95    0.60
  -3  -1   8   16.16    0.76
  -3  -1   8   16.01    0.78
  -3  -1   8   15.73    0.68
  -3   1   8   13.42    0.99
  -3   1   8   16.41    1.03
   3   1  -8   16.63    0.62
  -2  -1   8   42.86    1.24
   2  -1  -8   41.85    1.52
  -2  -1   8   41.61    1.40
   2  -1  -8   44.28    1.55
  -2  -1   8   42.47    1.25
  -2   1   8   43.40    1.76
  -2   1   8   41.54    1.82
   2   1  -8   42.42    0.92
   2   1  -8   44.77    1.02
  -1  -1   8   32.98    1.27
   1  -1  -8   30.80    1.13
   1  -1  -8   32.54    0.90
   1  -1  -8   31.35    1.31
   1  -1  -8   31.90    1.21
   1  -1  -8   31.92    1.33
   1   1  -8   32.08    0.74
   1   1  -8   30.82    1.00
  -1   1   8   30.29    1.40
  -1   1   8   30.56    1.38
  -1   1   8   29.39    1.16
   1   1  -8   31.14    1.23
   0  -1  -8   82.94    2.15
   0  -1   8   80.86    2.37
   0  -1  -8   80.40    1.77
   0  -1  -8   79.13    1.58
   0  -1   8   80.34    2.03
   0  -1   8   78.22    2.07
   0  -1  -8   82.99    2.24
   0  -1  -8   82.82    2.43
   0  -1  -8   79.20    1.99
   0   1  -8   83.76    2.13
   0   1   8   77.49    2.12
   0   1  -8   79.78    2.42
   0   1  -8   81.52    2.04
   0   1   8   79.05    2.46
   0   1  -8   81.04    1.59
   0   1   8   81.08    2.35
   1  -1   8   11.74    0.70
   1  -1   8   12.68    0.69
  -1  -1  -8   12.51    0.67
   1  -1   8   13.15    0.87
  -1  -1  -8   12.55    0.70
  -1  -1  -8   11.66    0.82
  -1  -1  -8   11.42    0.56
  -1  -1  -8   12.87    0.46
   1  -1   8   11.78    0.43
  -1  -1  -8   11.98    0.47
   1   1   8   12.15    0.64
  -1   1  -8   13.21    0.55
   1   1   8   11.63    0.62
  -1   1  -8   10.37    0.74
  -1   1  -8   12.10    0.65
   1   1   8   11.46    0.75
   1   1   8   11.34    0.83
  -1   1  -8   13.43    0.94
  -2  -1  -8   44.44    1.43
   2  -1   8   45.44    1.74
  -2  -1  -8   44.21    1.32
  -2  -1  -8   40.27    1.65
  -2  -1  -8   44.28    1.39
  -2  -1  -8   44.56    1.02
   2  -1   8   42.62    1.62
   2  -1   8   43.12    1.45
   2  -1   8   43.38    1.20
   2   1   8   42.09    1.49
  -2   1  -8   42.34    1.85
   2   1   8   45.09    1.43
  -2   1  -8   44.10    1.50
  -2   1  -8   43.30    1.67
   2   1   8   44.73    1.38
  -3  -1  -8    9.71    0.63
   3  -1   8   10.22    0.57
  -3  -1  -8   11.65    0.88
  -3  -1  -8    9.46    0.59
  -3   1  -8   10.72    0.88
  -4  -1  -8    4.57    0.71
  -4  -1  -8    5.02    0.55
  -4   1  -8    4.65    0.73
  -5  -1  -8    4.93    0.78
  -5  -1  -8    4.02    0.53
  -5   1  -8    4.32    0.71
  -6  -1  -8    3.28    0.50
  -6   1  -8    3.16    0.67
  -6   2   8    0.98    0.74
  -5  -2   8    5.24    0.41
  -5   2   8    5.83    1.17
  -4  -2   8    0.55    0.22
  -4  -2   8    0.32    0.14
  -4  -2   8    0.25    0.20
  -4   2   8   -0.27    0.41
  -4   2   8    0.34    0.42
  -3  -2   8    3.11    0.45
  -3  -2   8    3.38    0.31
  -3  -2   8    3.19    0.28
  -3   2   8    2.35    0.55
  -3   2   8    1.81    0.67
  -2  -2   8   20.34    0.80
  -2  -2   8   20.33    0.78
   2  -2  -8   22.57    1.25
   2  -2  -8   20.64    1.17
  -2  -2   8   20.60    1.06
   2   2  -8   21.98    0.71
  -2   2   8   21.63    1.38
  -2   2   8   20.19    1.19
  -2   2   8   22.04    1.56
   2   2  -8   21.27    0.54
   1  -2  -8   56.33    1.86
  -1  -2   8   51.67    1.10
   1  -2  -8   54.89    1.93
   1  -2  -8   53.74    1.36
  -1  -2   8   49.46    1.55
   1  -2  -8   56.40    2.12
  -1  -2   8   54.50    1.25
  -1  -2   8   58.02    2.00
   1  -2  -8   53.80    2.07
   1   2  -8   49.68    1.61
  -1   2   8   52.85    2.12
   1   2  -8   52.44    1.12
  -1   2   8   54.54    1.85
  -1   2   8   50.77    2.25
   0  -2   8   12.48    0.46
   0  -2  -8   11.69    0.71
   0  -2  -8   13.26    0.86
   0  -2  -8   12.98    0.51
   0  -2  -8   11.36    0.90
   0  -2   8   11.67    0.72
   0  -2   8   13.86    0.96
   0  -2  -8   11.42    0.84
   0  -2  -8   11.97    0.63
   0  -2   8   12.45    0.46
   0  -2   8   13.44    0.77
   0   2   8   11.15    0.97
   0   2  -8   12.08    0.53
   0   2   8   12.39    0.76
   0   2   8   12.10    0.80
   0   2  -8   14.69    0.92
   0   2   8   12.70    0.99
   0   2  -8   11.71    0.94
  -1  -2  -8    3.26    0.59
  -1  -2  -8    4.30    0.36
  -1  -2  -8    3.53    0.43
   1  -2   8    4.17    0.68
   1  -2   8    4.11    0.58
  -1  -2  -8    3.84    0.52
   1  -2   8    4.00    0.54
  -1  -2  -8    4.28    0.27
  -1  -2  -8    3.67    0.52
   1   2   8    4.38    0.41
  -1   2  -8    3.37    0.64
   1   2   8    3.01    0.46
  -1   2  -8    4.44    0.45
  -1   2  -8    4.30    0.51
   1   2   8    4.32    0.71
  -1   2  -8    3.45    0.66
  -2  -2  -8    4.85    0.39
   2  -2   8    4.89    0.62
  -2  -2  -8    4.78    0.57
  -2  -2  -8    4.87    0.71
  -2  -2  -8    5.23    0.46
  -2  -2  -8    4.67    0.56
  -2   2  -8    4.51    0.78
   3  -2   8   24.94    1.25
  -3  -2  -8   24.35    1.36
  -3   2  -8   26.79    1.62
  -4  -2  -8   23.48    1.09
  -4  -2  -8   22.60    1.35
  -4   2  -8   24.54    1.64
  -5  -2  -8    0.90    0.46
  -5  -2  -8    1.94    0.41
  -5   2  -8    1.51    0.58
  -6  -2  -8    0.82    0.33
  -6   2  -8    0.84    0.53
  -6   3   8    1.81    0.87
  -5   3   8    0.27    0.62
  -4  -3   8    4.06    0.34
  -4  -3   8    3.83    0.57
  -4  -3   8    4.18    0.34
  -4   3   8    2.96    1.01
  -3  -3   8   13.80    0.72
  -3  -3   8   15.20    1.02
  -3  -3   8   15.60    0.70
  -3   3   8   14.26    1.88
   2  -3  -8    0.62    0.24
   2  -3  -8    1.10    0.46
  -2  -3   8    0.70    0.37
  -2  -3   8    1.09    0.28
  -2  -3   8    0.68    0.24
  -2   3   8    1.27    0.64
   2   3  -8    0.95    0.17
   1  -3  -8    4.03    0.61
   1  -3  -8    5.09    0.80
  -1  -3   8    5.12    0.38
  -1  -3   8    3.75    0.71
  -1  -3   8    5.62    0.65
   1  -3  -8    5.61    0.51
   1   3  -8    4.49    0.35
  -1   3   8    4.96    1.00
   0  -3  -8    0.51    0.24
   0  -3  -8    0.49    0.25
   0  -3  -8    0.31    0.14
   0  -3   8    0.34    0.30
   0  -3   8    0.32    0.16
   0  -3   8    0.00    0.19
   0  -3   8    0.35    0.16
   0  -3  -8    1.04    0.39
   0   3   8   -0.10    0.37
   0   3  -8    0.21    0.19
  -1  -3  -8    7.86    1.03
  -1  -3  -8    8.31    0.77
   1  -3   8    7.72    0.72
  -1  -3  -8    9.12    0.40
  -1  -3  -8   10.19    0.66
  -1   3  -8    7.44    1.03
   2  -3   8    5.04    0.74
  -2  -3  -8    4.85    0.82
  -2  -3  -8    4.46    0.51
  -2   3  -8    6.43    1.06
  -3  -3  -8   24.29    1.50
  -3  -3  -8   23.76    1.24
  -3  -3  -8   24.33    1.05
  -3   3  -8   22.46    1.73
  -4  -3  -8    8.08    1.03
  -4  -3  -8    6.89    0.80
  -4   3  -8    9.54    1.43
  -5  -3  -8    2.64    0.53
  -5   3  -8    2.91    0.92
  -5   4   8    3.63    1.32
  -4  -4   8    8.22    0.51
  -4   4   8    6.87    1.57
  -3  -4   8   11.56    0.87
  -3  -4   8   11.79    0.72
  -3   4   8   12.54    1.94
   2  -4  -8    0.77    0.45
  -2  -4   8    0.76    0.25
  -2  -4   8    0.28    0.30
   2  -4  -8    0.48    0.26
  -2  -4   8    0.48    0.28
  -2   4   8    1.62    0.86
   1  -4  -8    7.56    1.11
   1  -4  -8    6.08    0.56
  -1  -4   8    5.11    0.53
  -1  -4   8    6.58    0.79
  -1  -4   8    5.83    0.86
  -1   4   8    8.24    1.41
   1   4  -8    6.15    0.58
   0  -4  -8    8.89    0.48
   0  -4   8    8.49    0.96
   0  -4  -8    9.02    0.76
   0  -4  -8    9.40    1.14
   0  -4   8    8.88    0.62
  -1  -4  -8    2.32    0.46
   1  -4   8    2.54    0.57
   1  -4   8    2.37    0.41
  -1  -4  -8    2.99    0.67
   2  -4   8   13.50    1.11
  -2  -4  -8   15.49    0.91
  -2  -4  -8   18.11    1.24
  -2   4  -8   17.25    1.93
  -3  -4  -8    2.66    0.47
  -3  -4  -8    1.96    0.55
  -3   4  -8    2.67    0.95
  -4  -4  -8    0.66    0.39
  -4   4  -8    0.85    0.66
  -5  -4  -8    0.12    0.37
  -5   4  -8    0.18    0.61
  -4  -5   8    6.03    0.55
  -4   5   8    4.83    1.54
  -3  -5   8    2.31    0.47
   3  -5  -8    2.64    0.53
  -3   5   8    1.74    1.02
  -2  -5   8    2.81    0.58
   2  -5  -8    2.89    0.85
   2  -5  -8    2.87    0.49
  -2  -5   8    3.52    0.51
   2   5  -8    2.71    0.45
  -1  -5   8    8.88    1.02
   1  -5  -8    9.51    1.36
  -1  -5   8   11.54    0.76
   0  -5  -8    8.73    1.25
   0  -5   8    9.19    1.10
   0  -5  -8    9.19    0.99
   1  -5   8    0.53    0.41
  -1  -5  -8    0.50    0.30
  -1  -5  -8    2.13    0.69
  -2  -5  -8    1.06    0.53
   2  -5   8    3.03    0.70
  -2  -5  -8    2.69    0.51
  -3  -5  -8    8.76    0.76
  -3  -5  -8    9.53    1.19
  -1  -6   8    1.00    0.49
   1  -6  -8    1.68    0.54
   1  -6  -8    1.17    0.60
   1  -6  -8    0.74    0.61
   0  -6  -8    0.31    0.52
   0  -6   8    0.51    0.40
   0  -6  -8    0.05    0.28
   1  -6   8    0.00    0.39
  -1  -6  -8    0.12    0.30
  -1  -6  -8    0.29    0.50
  -6   0   9    3.06    0.73
  -5   0   9    0.66    0.47
  -5   0   9    0.61    0.36
  -5   0   9    0.34    0.32
  -4   0   9    2.16    0.56
  -4   0   9    3.47    0.55
  -4   0   9    3.69    0.60
  -3   0   9   78.83    2.25
  -3   0   9   76.41    2.46
  -3   0   9   76.13    2.33
  -2   0   9   55.01    1.87
   2   0  -9   58.45    1.68
  -2   0   9   58.06    1.71
   2   0  -9   57.81    1.30
   1   0  -9   37.87    1.40
   1   0  -9   37.46    1.23
   1   0  -9   38.04    0.94
   1   0  -9   39.41    1.06
  -1   0   9   39.42    1.29
  -1   0   9   37.26    1.47
  -1   0   9   39.12    1.36
   0   0   9   18.56    1.01
   0   0   9   18.81    0.67
   0   0  -9   19.28    0.59
   0   0  -9   19.24    0.86
   0   0  -9   18.95    0.43
   0   0  -9   20.45    1.03
   0   0  -9   18.52    0.58
   0   0  -9   18.73    0.79
   0   0   9   17.43    0.79
   0   0   9   17.30    0.81
  -1   0  -9   13.96    0.71
   1   0   9   14.02    0.72
  -1   0  -9   14.78    0.55
  -1   0  -9   14.05    0.90
  -1   0  -9   13.87    0.52
   1   0   9   14.18    0.90
   1   0   9   10.69    0.53
   1   0   9   14.23    0.73
  -1   0  -9   14.01    0.71
  -2   0  -9    2.28    0.49
   2   0   9    1.71    0.36
   2   0   9    2.28    0.38
  -2   0  -9    2.09    0.38
  -2   0  -9    2.06    0.28
  -2   0  -9    2.16    0.35
   2   0   9    2.37    0.31
  -3   0  -9   49.04    1.65
  -3   0  -9   44.08    1.91
  -4   0  -9    1.91    0.40
  -4   0  -9    0.60    0.40
  -5   0  -9    0.26    0.25
  -6   0  -9    0.39    0.31
  -6   1   9    1.51    0.68
  -5  -1   9    1.87    0.36
  -5  -1   9    1.73    0.47
  -5  -1   9    1.98    0.40
  -5   1   9    0.34    0.48
  -5   1   9    2.04    0.61
  -4  -1   9   19.21    1.04
  -4  -1   9   19.25    0.86
  -4  -1   9   19.69    0.92
  -4   1   9   21.77    1.31
  -4   1   9   18.01    1.43
  -3  -1   9    0.53    0.23
  -3  -1   9    0.64    0.26
   3   1  -9    0.54    0.14
  -3   1   9   -0.18    0.26
  -3   1   9    0.17    0.25
  -2  -1   9   11.05    0.60
  -2  -1   9   10.73    0.57
   2  -1  -9    9.90    0.52
  -2  -1   9    9.43    0.67
   2  -1  -9    9.11    0.71
   2  -1  -9   11.20    0.78
  -2   1   9   10.45    0.94
   2   1  -9   10.42    0.37
  -2   1   9   10.55    0.89
   2   1  -9   10.18    0.40
  -1  -1   9   64.44    1.79
   1  -1  -9   68.65    2.16
  -1  -1   9   65.80    1.76
   1  -1  -9   69.45    2.01
   1  -1  -9   68.70    2.18
   1  -1  -9   67.32    1.49
   1  -1  -9   65.82    1.87
  -1  -1   9   70.51    2.12
  -1   1   9   73.06    2.38
   1   1  -9   66.89    1.78
  -1   1   9   71.41    2.34
   1   1  -9   67.05    1.37
   0  -1  -9   49.60    1.80
   0  -1  -9   47.88    1.21
   0  -1  -9   48.83    1.56
   0  -1   9   47.35    1.49
   0  -1   9   47.31    1.45
   0  -1  -9   49.04    1.12
   0  -1  -9   47.76    1.40
   0  -1   9   46.18    1.72
   0  -1  -9   49.71    1.64
   0   1   9   46.91    1.53
   0   1   9   48.73    1.52
   0   1  -9   49.10    1.52
   0   1  -9   49.36    1.13
   0   1   9   47.63    1.83
   0   1  -9   48.46    1.46
   0   1   9   48.54    1.76
   0   1  -9   47.80    1.81
   1  -1   9    2.46    0.41
  -1  -1  -9    2.47    0.41
   1  -1   9    2.69    0.40
  -1  -1  -9    2.18    0.24
   1  -1   9    2.28    0.19
  -1  -1  -9    2.63    0.41
  -1  -1  -9    2.26    0.30
   1  -1   9    2.06    0.44
  -1  -1  -9    2.67    0.50
  -1  -1  -9    1.94    0.23
  -1   1  -9    2.15    0.34
   1   1   9    2.53    0.46
  -1   1  -9    2.59    0.44
   1   1   9    1.96    0.48
  -1   1  -9    1.41    0.43
   1   1   9    2.10    0.33
   1   1   9    2.47    0.35
  -1   1  -9    2.21    0.29
  -2  -1  -9   11.61    0.68
   2  -1   9   11.57    0.81
   2  -1   9   11.75    0.53
  -2  -1  -9   11.64    0.48
   2  -1   9   12.23    0.74
  -2  -1  -9    7.20    0.84
  -2  -1  -9   10.83    0.59
  -2  -1  -9   10.91    0.69
   2  -1   9   11.99    0.90
  -2   1  -9   11.84    0.73
  -2   1  -9   12.52    0.61
   2   1   9   11.64    0.77
  -2   1  -9   12.35    0.87
   2   1   9   11.84    0.67
  -2   1  -9   11.34    0.98
   2   1   9   11.54    0.68
  -3  -1  -9   24.61    1.02
  -3  -1  -9   26.34    1.41
  -3   1  -9   26.33    1.37
  -4  -1  -9    0.67    0.37
  -4  -1  -9    1.11    0.31
  -4   1  -9    1.08    0.43
  -5  -1  -9   11.24    1.06
  -5  -1  -9   10.18    0.72
  -5   1  -9   11.03    0.96
  -6  -1  -9    3.74    0.55
  -6   1  -9    2.44    0.59
  -6   2   9    0.47    0.69
  -5  -2   9    1.03    0.27
  -5   2   9    0.69    0.59
  -4  -2   9    0.70    0.19
  -4  -2   9    1.23    0.30
  -4  -2   9    0.87    0.27
  -4   2   9    1.48    0.68
  -3  -2   9    2.34    0.41
  -3  -2   9    2.89    0.35
  -3   2   9    1.77    0.66
  -3   2   9    1.46    0.50
   2  -2  -9    7.84    0.52
  -2  -2   9    6.68    0.46
  -2  -2   9    6.91    0.48
   2  -2  -9    7.66    0.87
  -2  -2   9    6.66    0.72
   2   2  -9    7.14    0.32
  -2   2   9    8.20    0.75
  -2   2   9    6.59    1.07
  -1  -2   9    7.60    0.54
   1  -2  -9    8.68    0.96
   1  -2  -9    8.84    0.67
  -1  -2   9    9.14    0.77
   1  -2  -9    9.00    0.83
   1  -2  -9    9.72    0.51
   1  -2  -9    9.66    0.78
   1   2  -9    9.35    0.63
  -1   2   9    8.72    1.00
   1   2  -9    9.23    0.41
  -1   2   9    9.94    1.19
  -1   2   9    9.08    0.73
   0  -2   9   17.91    0.53
   0  -2  -9   18.91    1.20
   0  -2  -9   19.56    1.06
   0  -2   9   18.53    0.95
   0  -2   9   18.26    0.55
   0  -2   9   19.43    0.93
   0  -2  -9   17.08    1.05
   0  -2  -9   19.08    0.65
   0  -2   9   19.48    1.15
   0  -2  -9   17.66    0.90
   0  -2  -9   16.89    0.77
   0   2   9   18.70    1.01
   0   2   9   18.24    1.27
   0   2  -9   15.19    1.11
   0   2  -9   17.17    0.67
   0   2   9   17.79    0.92
   0   2   9   16.90    1.16
   0   2  -9   18.13    1.02
  -1  -2  -9   25.02    1.05
   1  -2   9   25.40    1.25
  -1  -2  -9   23.93    1.36
   1  -2   9   25.08    1.39
  -1  -2  -9   24.91    1.19
  -1  -2  -9   25.20    0.71
   1  -2   9   22.71    1.10
  -1  -2  -9   25.32    1.18
  -1  -2  -9   25.13    0.91
  -1   2  -9   25.46    1.09
   1   2   9   26.63    1.05
  -1   2  -9   28.09    1.42
  -1   2  -9   23.66    0.91
   1   2   9   25.08    1.39
   1   2   9   24.62    1.17
  -2  -2  -9    2.13    0.54
  -2  -2  -9    2.89    0.41
  -2  -2  -9    1.93    0.30
  -2  -2  -9    1.77    0.39
   2  -2   9    2.70    0.49
  -2   2  -9    3.15    0.64
  -3  -2  -9   13.59    1.06
  -3   2  -9   14.08    1.20
  -4  -2  -9    2.34    0.45
  -4  -2  -9    1.83    0.56
  -4   2  -9    1.82    0.62
  -5  -2  -9    0.14    0.28
  -5  -2  -9   -0.31    0.36
  -5   2  -9   -0.10    0.34
  -6  -2  -9    1.62    0.44
  -6   2  -9    0.50    0.45
  -6   3   9    0.75    0.74
  -5   3   9   -0.14    0.56
  -4  -3   9    1.65    0.27
  -4  -3   9    1.71    0.44
  -4  -3   9    2.03    0.31
  -4   3   9    1.76    0.80
  -3  -3   9    6.18    0.47
  -3  -3   9    5.56    0.75
  -3   3   9    5.50    1.20
   2  -3  -9    0.62    0.24
  -2  -3   9    0.41    0.22
   2  -3  -9    0.24    0.33
  -2  -3   9    1.02    0.42
  -2  -3   9    0.31    0.22
   2   3  -9    0.40    0.15
  -2   3   9   -0.05    0.45
   1  -3  -9   13.00    0.66
   1  -3  -9   14.24    1.10
  -1  -3   9   13.64    0.59
  -1  -3   9   13.60    0.88
  -1   3   9   13.42    1.61
   1   3  -9   12.50    0.57
   0  -3  -9   11.12    0.74
   0  -3   9   11.82    0.57
   0  -3  -9   11.59    0.53
   0  -3   9   13.46    0.97
   0  -3   9   10.11    0.79
   0  -3  -9   10.90    0.92
   0   3  -9   11.35    0.63
   0   3   9   12.00    1.45
   1  -3   9    6.54    0.80
   1  -3   9    5.19    0.44
  -1  -3  -9    6.01    0.61
  -1  -3  -9    6.19    0.35
  -1  -3  -9    7.32    0.88
  -1   3  -9    6.40    0.61
  -1   3  -9    5.68    0.92
  -2  -3  -9    0.45    0.30
   2  -3   9    0.39    0.29
  -2  -3  -9   -0.03    0.32
  -2  -3  -9    0.03    0.15
  -2   3  -9    0.55    0.45
  -3  -3  -9    2.87    0.44
  -3  -3  -9    3.38    0.70
  -3  -3  -9    2.85    0.56
  -3   3  -9    3.05    0.84
  -4  -3  -9    2.34    0.52
  -4  -3  -9    2.64    0.68
  -4   3  -9    3.08    0.86
  -5  -3  -9    0.62    0.38
  -5   3  -9    0.28    0.56
  -5   4   9    0.32    0.79
  -4  -4   9    3.14    0.38
  -4   4   9    3.24    1.19
  -3  -4   9    1.47    0.34
  -3  -4   9    1.49    0.43
  -3   4   9    2.69    1.09
  -2  -4   9   14.83    0.77
   2  -4  -9   17.27    1.44
  -2  -4   9   14.95    0.93
   2  -4  -9   17.58    0.90
  -2  -4   9   13.63    1.03
   2   4  -9   14.42    0.67
  -2   4   9   19.00    2.31
  -1  -4   9    4.84    0.50
   1  -4  -9    4.70    0.50
  -1  -4   9    4.38    0.66
   1  -4  -9    4.17    0.86
  -1  -4   9    4.83    0.78
   1   4  -9    5.03    0.53
  -1   4   9    5.38    1.24
   0  -4  -9    9.19    1.18
   0  -4  -9    7.95    0.48
   0  -4   9    8.98    0.98
   0  -4  -9   10.05    0.80
   0   4  -9    8.82    0.64
  -1  -4  -9    5.36    0.87
   1  -4   9    4.52    0.75
  -1  -4  -9    6.88    0.74
  -2  -4  -9    9.05    1.08
  -2  -4  -9    8.24    0.68
   2  -4   9    9.68    1.12
  -3  -4  -9   11.49    1.02
  -3  -4  -9   11.77    0.81
  -3   4  -9   13.39    1.76
  -4  -4  -9    4.19    0.74
  -4   4  -9    4.46    1.17
  -4   5   9    5.67    1.69
   3  -5  -9    1.04    0.38
  -3  -5   9    1.61    0.42
  -3   5   9    0.24    0.81
  -2  -5   9    8.66    0.95
   2  -5  -9    9.17    0.70
   2   5  -9    8.09    0.74
  -1  -5   9    5.07    0.78
   1  -5  -9    5.59    1.10
   1  -5  -9    4.14    0.71
   0  -5  -9    7.99    1.25
   0  -5  -9    5.25    0.76
   0  -5   9    5.39    0.85
  -1  -5  -9   10.13    0.85
   1  -5   9    9.63    1.15
  -1  -5  -9   13.44    1.51
  -2  -5  -9    1.32    0.57
   2  -5   9    1.28    0.50
  -2  -5  -9    0.93    0.36
  -3  -5  -9    9.23    0.94
  -3  -5  -9    8.18    1.14
   1  -6  -9    0.72    0.40
   1  -6  -9    1.32    0.74
  -1  -6   9    0.58    0.41
   0  -6  -9    1.16    0.46
   0  -6  -9    1.83    0.75
   0  -6   9    0.92    0.47
  -6   0  10    0.25    0.50
  -5   0  10    0.33    0.31
  -5   0  10    0.09    0.42
  -4   0  10   -0.50    0.28
  -4   0  10   -0.02    0.23
  -4   0  10   -0.22    0.25
  -3   0  10    2.92    0.50
  -3   0  10    1.45    0.44
  -3   0  10    1.19    0.31
  -2   0  10   11.47    0.82
   2   0 -10   11.99    0.70
   2   0 -10   12.70    0.53
  -1   0  10   62.49    2.08
   1   0 -10   61.85    1.50
   1   0 -10   61.32    1.33
   1   0 -10   60.30    1.96
   1   0 -10   59.97    1.74
  -1   0  10   59.07    1.78
  -1   0  10   59.99    1.87
   0   0 -10    3.08    0.44
   0   0  10    2.67    0.49
   0   0  10    2.51    0.29
   0   0 -10    2.82    0.13
   0   0 -10    3.18    0.52
   0   0 -10    3.18    0.22
   0   0  10    3.49    0.45
   0   0  10    2.78    0.39
   0   0 -10    3.05    0.28
   0   0 -10    2.78    0.39
  -1   0 -10    0.15    0.12
   1   0  10    0.01    0.09
  -1   0 -10    0.08    0.09
   1   0  10   -0.08    0.15
   1   0  10    0.17    0.23
   1   0  10    0.20    0.16
  -1   0 -10   -0.10    0.12
  -1   0 -10    0.17    0.24
  -1   0 -10    0.40    0.20
   2   0  10    0.33    0.19
   2   0  10    0.11    0.12
  -2   0 -10    0.16    0.24
  -2   0 -10    0.04    0.16
  -2   0 -10    0.05    0.16
  -2   0 -10   -0.25    0.11
  -3   0 -10    2.70    0.60
  -3   0 -10    3.16    0.49
  -4   0 -10    0.79    0.30
  -5   0 -10   17.17    1.03
  -6   0 -10    0.37    0.30
  -6   1  10    1.25    0.73
  -5  -1  10    3.20    0.47
  -5  -1  10    3.77    0.54
  -5  -1  10    2.96    0.59
  -5   1  10    2.31    0.78
  -5   1  10    4.11    0.78
  -4  -1  10    1.11    0.28
  -4  -1  10    0.72    0.36
  -4  -1  10    0.85    0.31
  -4   1  10    0.53    0.37
  -4   1  10    0.25    0.43
  -3  -1  10   20.21    0.97
  -3  -1  10   18.48    0.85
  -3  -1  10   18.34    0.97
   3   1 -10   18.72    0.61
  -3   1  10   18.63    1.12
  -2  -1  10    6.08    0.47
  -2  -1  10    6.99    0.52
   2  -1 -10    7.01    0.45
   2  -1 -10    6.36    0.71
  -2  -1  10    6.49    0.60
  -2   1  10    6.55    0.89
   2   1 -10    6.47    0.34
  -2   1  10    5.71    0.79
   2   1 -10    6.38    0.27
  -2   1  10    6.87    0.63
   1  -1 -10   44.06    1.70
  -1  -1  10   40.71    1.61
   1  -1 -10   42.36    1.11
  -1  -1  10   44.33    1.38
  -1  -1  10   42.92    1.36
   1  -1 -10   40.52    1.50
   1  -1 -10   43.02    1.41
   1   1 -10   42.00    1.33
  -1   1  10   42.20    1.79
   1   1 -10   42.33    0.99
  -1   1  10   44.80    1.80
  -1   1  10   41.39    1.52
   0  -1 -10   15.84    0.57
   0  -1 -10   17.45    0.63
   0  -1  10   16.92    1.01
   0  -1  10   15.53    0.79
   0  -1 -10   16.50    0.91
   0  -1 -10   16.34    0.86
   0  -1 -10   16.88    1.04
   0  -1  10   16.24    0.80
   0  -1 -10   15.65    0.71
   0   1  10   14.49    0.95
   0   1 -10   15.15    0.99
   0   1 -10   15.24    0.57
   0   1 -10   15.24    0.79
   0   1  10   13.92    0.99
   0   1  10   17.32    0.85
   0   1  10   16.89    0.83
  -1  -1 -10   33.36    1.33
  -1  -1 -10   34.90    1.11
   1  -1  10   33.51    1.25
   1  -1  10   31.01    1.47
  -1  -1 -10   34.66    1.29
   1  -1  10   32.05    1.30
   1  -1  10   31.18    0.88
  -1  -1 -10   34.17    0.90
  -1  -1 -10   32.76    0.89
  -1  -1 -10   33.01    1.52
  -1   1 -10   32.63    1.00
   1   1  10   32.53    1.40
  -1   1 -10   33.36    1.34
  -1   1 -10   29.78    1.53
   1   1  10   36.11    1.25
  -1   1 -10   33.16    1.23
   1   1  10   32.92    1.21
   1   1  10   35.14    1.59
  -2  -1 -10    6.66    0.47
  -2  -1 -10    7.21    0.57
   2  -1  10    8.11    0.61
  -2  -1 -10    7.03    0.40
   2  -1  10    7.57    0.44
  -2   1 -10    6.90    0.77
   2   1  10    7.57    0.56
   2   1  10    7.03    0.76
  -2   1 -10    7.95    0.52
  -3  -1 -10    9.52    1.06
  -3  -1 -10   10.33    0.69
  -3   1 -10    7.30    0.86
  -4  -1 -10    2.44    0.62
  -4  -1 -10    2.93    0.47
  -4   1 -10    1.95    0.52
  -5  -1 -10    0.24    0.25
  -5   1 -10    0.36    0.32
  -6  -1 -10    2.17    0.45
  -6   1 -10    1.38    0.47
  -6   2  10    0.19    0.62
  -5  -2  10    5.38    0.59
  -5   2  10    5.08    1.16
  -4  -2  10    1.79    0.37
  -4  -2  10    1.77    0.36
  -4  -2  10    1.80    0.29
  -4   2  10    1.43    0.72
  -3  -2  10    4.24    0.46
  -3  -2  10    4.78    0.62
  -3  -2  10    4.53    0.37
  -3   2  10    3.70    0.89
  -2  -2  10   18.26    0.82
  -2  -2  10   16.82    1.02
   2  -2 -10   18.54    1.08
  -2  -2  10   18.56    0.82
   2  -2 -10   17.30    0.78
   2  -2 -10   16.42    1.09
  -2   2  10   19.79    1.54
   2   2 -10   19.15    0.58
   1  -2 -10   11.29    0.77
  -1  -2  10    8.73    0.60
   1  -2 -10   10.25    0.54
   1  -2 -10    8.52    0.98
  -1  -2  10    9.39    0.62
  -1  -2  10   10.83    0.84
   1  -2 -10    9.69    0.83
   1   2 -10    9.01    0.43
  -1   2  10    9.55    1.17
   0  -2 -10   44.48    1.13
   0  -2 -10   42.93    1.69
   0  -2  10   43.95    0.99
   0  -2 -10   45.53    1.38
   0  -2 -10   42.99    1.54
   0  -2  10   49.21    1.60
   0  -2  10   44.30    1.88
   0  -2 -10   44.67    1.94
   0   2 -10   45.83    1.98
   0   2 -10   48.54    1.24
   0   2  10   44.49    1.70
   0   2  10   42.95    2.03
   0   2 -10   46.81    1.73
   0   2  10   43.67    1.97
   1  -2  10   22.09    1.09
  -1  -2 -10   21.81    0.68
  -1  -2 -10   22.57    0.85
  -1  -2 -10   22.45    1.34
  -1  -2 -10   19.97    1.07
  -1  -2 -10   20.75    0.96
  -1   2 -10   21.71    0.87
  -1   2 -10   20.19    1.20
   1   2  10   22.18    1.34
  -2  -2 -10   14.75    0.80
  -2  -2 -10   15.86    0.71
   2  -2  10   15.54    0.95
  -2  -2 -10   15.92    1.15
  -2  -2 -10   14.39    0.89
  -2   2 -10   13.93    1.11
  -3  -2 -10   16.00    0.95
  -3  -2 -10   18.27    1.26
  -3   2 -10   20.00    1.38
  -4  -2 -10    2.54    0.48
  -4  -2 -10    3.73    0.74
  -4   2 -10    2.18    0.65
  -5  -2 -10    1.65    0.44
  -5   2 -10    1.65    0.61
  -6  -2 -10    1.03    0.39
  -6   2 -10    1.24    0.59
  -5   3  10    1.69    0.88
  -4  -3  10    6.44    0.48
  -4  -3  10    7.62    0.73
  -4   3  10    8.02    1.48
  -3  -3  10    5.44    0.46
  -3  -3  10    5.50    0.78
  -3  -3  10    5.43    0.49
  -3   3  10    7.72    1.45
  -2  -3  10   31.31    1.29
   2  -3 -10   31.16    1.17
  -2  -3  10   30.28    1.21
   2  -3 -10   33.73    1.80
   2   3 -10   33.01    0.91
  -2   3  10   34.43    2.26
   1  -3 -10    3.59    0.42
   1  -3 -10    2.53    0.59
  -1  -3  10    4.21    0.60
   1   3 -10    3.34    0.37
  -1   3  10    4.00    0.92
   0  -3 -10   12.96    0.58
   0  -3 -10   12.77    1.04
   0  -3  10   14.30    0.93
   0  -3 -10   13.44    0.81
   0   3 -10   12.70    0.67
   0   3  10   12.72    1.53
   1  -3  10    9.93    0.82
  -1  -3 -10   10.05    0.90
  -1  -3 -10   10.36    0.67
  -1  -3 -10   10.71    0.47
  -1   3 -10   10.03    0.66
  -1   3 -10   10.29    1.23
  -2  -3 -10    6.12    0.52
   2  -3  10    6.18    0.81
  -2  -3 -10    7.11    0.86
  -2   3 -10    7.28    1.10
  -3  -3 -10    5.44    0.59
  -3  -3 -10    4.70    0.68
  -3   3 -10    3.70    0.86
  -4  -3 -10    5.51    0.77
  -4   3 -10    5.83    1.10
  -5  -3 -10    4.66    0.72
  -5   3 -10    4.22    0.98
  -5   4  10   -0.06    0.79
  -4  -4  10    0.61    0.22
  -4   4  10    0.89    0.87
  -3  -4  10    1.10    0.39
  -3  -4  10    1.20    0.34
   3  -4 -10    0.71    0.33
  -3   4  10   -0.26    0.61
   2  -4 -10    3.46    0.50
   2  -4 -10    2.79    0.77
  -2  -4  10    2.96    0.50
  -2  -4  10    1.75    0.48
   2   4 -10    2.87    0.38
  -2   4  10    4.39    1.19
   1  -4 -10    2.82    0.40
  -1  -4  10    2.49    0.52
   1  -4 -10    2.72    0.76
   1   4 -10    3.17    0.44
   0  -4  10   19.81    1.24
   0  -4 -10   19.39    1.44
   0  -4 -10   17.38    1.05
   0  -4 -10   19.56    0.75
   0   4 -10   18.05    0.92
  -1  -4 -10    3.06    0.52
  -1  -4 -10    2.10    0.60
   1  -4  10    2.38    0.58
  -2  -4 -10    0.41    0.24
  -2  -4 -10    0.16    0.36
   2  -4  10    0.45    0.35
  -3  -4 -10    0.32    0.22
  -3  -4 -10   -0.25    0.28
  -3   4 -10    0.04    0.53
  -4  -4 -10    4.97    0.84
  -4   4 -10    5.01    1.21
  -3  -5  10    1.32    0.38
   3  -5 -10    0.30    0.33
  -3   5  10    0.60    0.94
   2  -5 -10    0.15    0.24
  -2  -5  10   -0.23    0.24
   2   5 -10    0.05    0.24
   1  -5 -10    5.11    0.77
  -1  -5  10    5.15    0.79
   1  -5 -10    6.34    1.16
   0  -5  10    7.84    1.01
   0  -5 -10    9.10    0.99
   0  -5 -10    9.69    1.37
  -1  -5 -10    1.97    0.68
   1  -5  10    2.75    0.67
  -1  -5 -10    2.35    0.53
  -2  -5 -10    1.26    0.39
  -2  -5 -10    2.40    0.73
   2  -5  10    1.47    0.54
  -3  -5 -10    2.12    0.48
  -3  -5 -10    2.63    0.73
  -6   0  11   -0.07    0.48
  -5   0  11    0.42    0.45
  -5   0  11    0.44    0.31
  -4   0  11   97.21    3.22
  -4   0  11   96.44    2.82
  -4   0  11   96.87    3.03
  -3   0  11   24.70    1.29
   3   0 -11   23.21    0.82
  -3   0  11   23.47    1.11
  -2   0  11    0.56    0.30
   2   0 -11    0.31    0.15
  -2   0  11    0.61    0.24
  -2   0  11    0.85    0.32
  -1   0  11    8.01    0.74
   1   0 -11    8.58    0.42
  -1   0  11    7.00    0.54
   1   0 -11    7.89    0.40
  -1   0  11    7.28    0.75
   1   0 -11    8.90    0.62
   1   0 -11    8.23    0.70
   0   0 -11   17.67    1.05
   0   0  11   17.97    0.86
   0   0 -11   17.95    0.62
   0   0 -11   18.78    0.61
   0   0 -11   17.83    0.92
   0   0 -11   19.98    0.90
   0   0  11   18.39    0.93
   0   0  11   16.93    1.08
   0   0  11   18.12    0.72
   1   0  11   68.78    2.05
   1   0  11   69.87    2.06
  -1   0 -11   71.10    2.04
  -1   0 -11   70.12    1.59
  -1   0 -11   72.55    1.67
  -1   0 -11   66.25    2.37
  -1   0 -11   69.86    2.10
   1   0  11   71.74    2.44
  -2   0 -11    1.79    0.38
  -2   0 -11    2.23    0.32
  -2   0 -11    2.25    0.49
   2   0  11    1.73    0.29
  -3   0 -11    5.80    0.67
  -4   0 -11    0.43    0.28
  -5   0 -11    1.65    0.42
  -6   0 -11    1.32    0.42
  -6   1  11    1.66    0.72
  -5  -1  11    1.60    0.51
  -5  -1  11    1.20    0.40
  -5   1  11    1.70    0.68
  -5   1  11    1.31    0.50
  -4  -1  11    7.84    0.86
  -4  -1  11    6.11    0.69
  -4   1  11    7.12    0.92
  -4   1  11    7.67    1.16
  -3  -1  11   12.58    0.72
  -3  -1  11   13.09    0.83
  -3  -1  11   13.10    0.87
  -3   1  11   12.97    0.94
   3   1 -11   13.70    0.54
  -3   1  11   11.71    1.33
  -2  -1  11    8.50    0.58
   2  -1 -11    8.22    0.72
  -2  -1  11    8.53    0.72
   2  -1 -11    9.60    0.67
   2  -1 -11    8.88    0.51
  -2   1  11    8.11    1.02
  -2   1  11    7.87    0.68
   2   1 -11    7.44    0.38
  -1  -1  11   63.72    1.86
  -1  -1  11   67.70    2.24
   1  -1 -11   65.88    2.26
   1  -1 -11   65.70    1.87
   1  -1 -11   64.71    2.05
  -1  -1  11   64.15    1.86
   1  -1 -11   63.22    1.50
   1   1 -11   65.14    1.81
  -1   1  11   60.02    1.99
  -1   1  11   62.04    2.28
  -1   1  11   61.77    2.33
   1   1 -11   66.02    1.38
   0  -1 -11    4.16    0.55
   0  -1 -11    3.62    0.33
   0  -1  11    3.91    0.48
   0  -1 -11    3.74    0.35
   0  -1  11    3.07    0.54
   0  -1 -11    4.15    0.57
   0  -1 -11    4.01    0.30
   0  -1  11    3.83    0.48
   0  -1 -11    3.53    0.62
   0   1  11    3.60    0.49
   0   1  11    3.46    0.59
   0   1 -11    3.95    0.65
   0   1  11    3.06    0.61
   0   1 -11    3.79    0.35
   0   1 -11    4.16    0.51
   0   1  11    4.81    0.53
  -1  -1 -11   18.30    1.16
   1  -1  11   16.73    0.89
   1  -1  11   17.36    0.60
  -1  -1 -11   16.48    0.74
  -1  -1 -11   17.87    0.64
   1  -1  11   16.18    0.93
  -1  -1 -11   17.59    0.60
  -1  -1 -11   17.04    0.91
   1   1  11   18.42    1.08
  -1   1 -11   16.82    0.94
  -1   1 -11   18.14    0.91
   1   1  11   17.03    0.86
  -1   1 -11   17.26    0.71
  -2  -1 -11   10.98    0.73
  -2  -1 -11   10.92    0.52
   2  -1  11   11.22    0.55
  -2  -1 -11   11.27    0.63
   2  -1  11   11.31    0.77
  -2   1 -11   12.02    0.85
  -2   1 -11   10.67    0.63
  -3  -1 -11    4.29    0.57
  -3   1 -11    5.05    0.74
  -4  -1 -11    2.21    0.42
  -4   1 -11    1.61    0.48
  -5  -1 -11    0.56    0.30
  -5   1 -11    0.85    0.39
  -6  -1 -11    3.03    0.58
  -6   1 -11    2.17    0.55
  -6   2  11   -0.39    0.53
  -5  -2  11    2.94    0.50
  -5  -2  11    2.70    0.48
  -5   2  11    3.06    0.94
  -4  -2  11   11.61    0.76
  -4  -2  11   11.19    0.79
  -4  -2  11   11.50    0.65
  -4   2  11   11.69    1.62
  -3  -2  11    3.73    0.42
  -3  -2  11    4.36    0.62
  -3  -2  11    3.71    0.46
  -3   2  11    3.34    0.86
   2  -2 -11    8.65    0.56
  -2  -2  11    8.31    0.57
  -2  -2  11    9.59    0.82
   2  -2 -11    9.74    0.86
   2  -2 -11    8.57    0.75
   2   2 -11    9.30    0.41
  -2   2  11    9.78    1.32
   1  -2 -11   19.95    1.04
   1  -2 -11   19.27    0.75
  -1  -2  11   18.97    1.17
   1  -2 -11   18.15    1.13
  -1  -2  11   18.75    0.91
  -1  -2  11   17.48    0.90
  -1   2  11   18.29    1.41
   1   2 -11   18.52    0.66
   0  -2 -11   19.44    0.97
   0  -2 -11   19.05    0.69
   0  -2 -11   19.60    1.11
   0  -2 -11   19.27    0.85
   0  -2  11   18.00    0.95
   0   2 -11   18.17    0.74
   0   2  11   19.09    1.37
   0   2 -11   18.77    1.06
   1  -2  11   11.53    0.79
  -1  -2 -11   10.75    0.58
  -1  -2 -11   11.97    0.84
  -1  -2 -11   11.53    0.50
  -1  -2 -11   11.60    0.71
  -1   2 -11    9.57    0.84
  -1   2 -11   10.13    0.60
   1   2  11   11.03    1.19
   2  -2  11   14.57    0.94
  -2  -2 -11   14.72    0.95
  -2  -2 -11   14.49    0.68
  -2   2 -11   14.30    1.09
  -3  -2 -11    5.09    0.67
  -3   2 -11    6.88    0.99
  -4  -2 -11    2.57    0.50
  -4   2 -11    2.73    0.71
  -5  -2 -11    2.12    0.49
  -5   2 -11    1.30    0.55
  -5   3  11    2.05    0.95
  -4  -3  11    0.99    0.40
  -4  -3  11    1.45    0.31
  -4   3  11    0.41    0.68
   3  -3 -11    6.50    0.67
  -3  -3  11    6.23    0.51
  -3  -3  11    5.88    0.52
  -3   3  11    5.52    1.25
  -2  -3  11    3.18    0.49
   2  -3 -11    2.44    0.40
   2  -3 -11    2.94    0.71
  -2  -3  11    3.24    0.47
  -2   3  11    2.90    0.96
   2   3 -11    3.67    0.35
   1  -3 -11    3.97    0.75
  -1  -3  11    2.93    0.50
  -1  -3  11    3.11    0.53
   1  -3 -11    2.38    0.35
   1   3 -11    3.04    0.37
  -1   3  11    2.43    0.78
   0  -3 -11   12.61    1.06
   0  -3 -11   11.37    0.76
   0  -3 -11   12.44    0.58
   0  -3  11   13.00    0.90
   0   3  11   12.87    1.54
   0   3 -11   10.89    0.64
  -1  -3 -11    3.72    0.69
  -1  -3 -11    3.79    0.49
   1  -3  11    4.00    0.64
  -1   3 -11    3.18    0.47
  -2  -3 -11   22.20    0.99
  -2  -3 -11   21.99    1.31
   2  -3  11   21.12    1.28
  -2   3 -11   19.53    1.47
  -3  -3 -11   17.92    0.90
  -3  -3 -11   18.07    1.17
  -3   3 -11   22.25    1.70
  -4  -3 -11    0.82    0.40
  -4   3 -11    0.80    0.56
  -5  -3 -11    4.08    0.70
  -5   3 -11    3.22    0.90
  -4  -4  11    0.36    0.24
  -4   4  11   -1.02    0.61
   3  -4 -11    4.83    0.63
  -3  -4  11    4.81    0.58
  -3   4  11    2.47    1.05
  -2  -4  11   16.93    1.17
   2  -4 -11   18.04    0.92
  -2  -4  11   18.31    1.04
   2   4 -11   16.57    0.77
  -2   4  11   24.38    2.16
   1  -4 -11    2.99    0.55
   1  -4 -11    2.90    0.77
  -1  -4  11    2.65    0.53
   1  -4 -11    2.07    0.36
   1   4 -11    2.60    0.42
   0  -4 -11   39.60    1.65
   0  -4  11   41.27    1.84
   0  -4 -11   44.93    2.21
   0   4 -11   37.48    1.39
   1  -4  11   12.79    1.06
  -1  -4 -11   11.11    1.28
  -1  -4 -11   13.43    0.89
  -2  -4 -11   14.94    0.90
   2  -4  11   12.20    1.09
  -2  -4 -11   12.59    1.13
  -3  -4 -11    6.18    0.93
  -3  -4 -11    7.35    0.76
  -4  -4 -11    3.12    0.71
  -4   4 -11    2.47    0.92
   3  -5 -11    0.26    0.31
  -3  -5  11    0.25    0.27
  -2  -5  11    1.61    0.46
   2  -5 -11    3.55    0.52
   2   5 -11    2.35    0.45
   1  -5 -11    3.73    0.92
  -1  -5  11    3.10    0.62
   1  -5 -11    3.20    0.64
   1   5 -11    1.94    0.44
   0  -5  11    0.92    0.44
   0  -5 -11    0.93    0.41
   0  -5 -11    2.61    0.75
  -1  -5 -11    5.11    1.02
   1  -5  11    2.54    0.65
  -1  -5 -11    4.08    0.68
   2  -5  11    1.39    0.55
  -2  -5 -11    1.49    0.42
  -2  -5 -11    1.29    0.59
  -3  -5 -11    2.59    0.54
  -3  -5 -11    2.45    0.69
  -6   0  12    0.41    0.55
  -5   0  12    0.60    0.34
  -5   0  12    0.73    0.50
  -4   0  12   24.61    1.54
  -4   0  12   25.29    1.25
   3   0 -12   31.05    0.99
  -2   0  12   40.78    1.73
  -2   0  12   37.84    1.45
  -2   0  12   38.97    1.64
   2   0 -12   37.23    1.05
   2   0 -12   35.65    1.21
  -1   0  12    1.36    0.41
   1   0 -12    0.57    0.23
   1   0 -12    0.62    0.17
   1   0 -12    0.30    0.27
  -1   0  12    1.09    0.34
  -1   0  12    0.09    0.13
   1   0 -12    0.55    0.15
   0   0 -12    4.67    0.60
   0   0 -12    4.22    0.27
   0   0 -12    4.73    0.55
   0   0  12    3.81    0.34
   0   0  12    4.41    0.51
   0   0 -12    3.81    0.35
   0   0  12    3.85    0.54
   0   0  12    4.19    0.67
  -1   0 -12   42.01    1.19
  -1   0 -12   44.48    1.20
   1   0  12   44.40    1.61
   1   0  12   46.61    1.37
  -1   0 -12   47.96    1.60
   2   0  12   13.57    0.84
   2   0  12   13.25    0.69
  -2   0 -12   13.71    0.84
  -2   0 -12   13.94    0.66
  -3   0 -12    2.35    0.45
  -4   0 -12   62.57    2.17
  -5   0 -12    3.11    0.56
  -6   0 -12    1.48    0.45
  -6  -1  12    0.06    0.45
  -6   1  12    0.78    0.63
  -5  -1  12    1.26    0.51
  -5   1  12    0.64    0.60
  -5   1  12    1.51    0.53
  -4  -1  12   17.81    1.09
  -4  -1  12   20.09    0.99
  -4  -1  12   18.80    1.17
  -4   1  12   18.79    1.25
  -4   1  12   20.00    1.56
  -3  -1  12   18.64    0.92
   3  -1 -12   18.41    0.82
  -3  -1  12   19.65    1.13
  -3  -1  12   18.67    1.05
  -3   1  12   19.27    1.45
   3   1 -12   19.56    0.69
  -3   1  12   20.23    1.17
   2  -1 -12    0.79    0.22
   2  -1 -12    0.76    0.27
  -2  -1  12    0.43    0.31
  -2  -1  12    0.74    0.23
  -2   1  12    0.91    0.45
   2   1 -12    0.73    0.17
   1  -1 -12   21.86    1.11
   1  -1 -12   23.47    0.97
  -1  -1  12   20.64    1.22
   1  -1 -12   19.60    0.73
  -1  -1  12   22.66    1.02
  -1  -1  12   19.88    0.94
  -1   1  12   20.67    1.06
   1   1 -12   21.58    0.70
  -1   1  12   20.64    1.30
   0  -1 -12    5.32    0.42
   0  -1  12    5.51    0.51
   0  -1 -12    5.58    0.36
   0  -1 -12    6.77    0.72
   0  -1  12    5.65    0.51
   0  -1 -12    6.40    0.38
   0   1 -12    5.84    0.38
   0   1 -12    4.90    0.58
   0   1  12    5.54    0.59
   0   1  12    4.84    0.72
   1  -1  12   29.63    1.25
  -1  -1 -12   29.65    1.05
  -1  -1 -12   30.47    0.84
  -1  -1 -12   30.07    0.91
  -1  -1 -12   28.00    1.25
  -1   1 -12   27.39    1.25
   1   1  12   29.93    1.44
   1   1  12   29.03    1.20
  -1   1 -12   29.05    0.99
  -2  -1 -12    4.13    0.40
  -2  -1 -12    3.68    0.42
  -2  -1 -12    2.99    0.50
   2  -1  12    3.17    0.51
  -2   1 -12    3.66    0.45
  -2   1 -12    3.48    0.60
  -3  -1 -12   11.51    0.81
  -3   1 -12   11.66    0.92
  -4  -1 -12    0.58    0.29
  -4   1 -12    0.61    0.38
  -5  -1 -12    1.60    0.40
  -5   1 -12    1.29    0.45
  -6   2  12    0.23    0.65
  -5  -2  12    2.68    0.54
  -5  -2  12    2.14    0.47
  -5   2  12    2.50    0.86
  -4  -2  12    1.04    0.35
  -4  -2  12    0.61    0.22
  -4  -2  12    1.19    0.39
  -4   2  12    0.68    0.59
  -3  -2  12   23.28    1.03
  -3  -2  12   22.11    1.22
  -3  -2  12   22.13    0.98
   3  -2 -12   24.25    1.02
  -3   2  12   22.85    1.77
   2  -2 -12    2.46    0.50
   2  -2 -12    2.42    0.37
  -2  -2  12    2.01    0.35
  -2   2  12    3.30    0.86
   2   2 -12    2.17    0.25
   1  -2 -12    8.07    0.68
  -1  -2  12    8.04    0.62
   1  -2 -12    8.31    0.51
   1  -2 -12    9.85    0.86
  -1  -2  12    8.15    0.63
   1   2 -12    8.96    0.47
  -1   2  12    9.88    1.27
   0  -2 -12    1.28    0.28
   0  -2  12    1.30    0.35
   0  -2 -12    1.21    0.31
   0  -2 -12    0.66    0.33
   0  -2 -12    1.28    0.24
   0   2  12    0.40    0.42
   0   2 -12    1.03    0.23
   0   2 -12    1.36    0.38
  -1  -2 -12    0.75    0.19
   1  -2  12    0.85    0.31
  -1  -2 -12    0.98    0.23
  -1  -2 -12    0.51    0.34
  -1  -2 -12    0.85    0.27
  -1   2 -12    0.76    0.38
  -1   2 -12    0.75    0.25
   1   2  12    0.96    0.46
   2  -2  12   15.24    0.98
  -2  -2 -12   16.02    0.71
  -2  -2 -12   14.01    0.97
  -2   2 -12   15.46    1.16
  -2   2 -12   14.35    0.79
  -3  -2 -12   10.07    0.83
  -3   2 -12   10.37    1.20
  -4  -2 -12    2.63    0.52
  -4   2 -12    2.58    0.67
  -5  -2 -12    0.66    0.34
  -5   2 -12    1.35    0.56
  -5   3  12    2.51    0.99
  -4  -3  12    2.46    0.42
  -4   3  12    2.79    1.00
  -3  -3  12   11.80    0.76
  -3  -3  12   11.55    0.70
   3  -3 -12   10.77    0.74
  -3   3  12    9.72    1.61
  -2  -3  12    4.42    0.55
   2  -3 -12    4.90    0.54
  -2  -3  12    4.76    0.62
   2   3 -12    4.35    0.40
  -2   3  12    4.56    1.09
   1  -3 -12    1.86    0.32
  -1  -3  12    1.11    0.37
   1  -3 -12    1.12    0.49
  -1  -3  12    0.99    0.33
  -1   3  12    1.40    0.73
   1   3 -12    2.06    0.32
   0  -3 -12    8.43    0.49
   0  -3 -12    6.11    0.90
   0  -3 -12    8.05    0.64
   0  -3  12    8.89    0.77
   0   3 -12    8.34    0.58
   0   3  12    7.76    1.27
  -1  -3 -12    4.86    0.56
  -1  -3 -12    3.05    0.63
   1  -3  12    4.35    0.67
  -1   3 -12    3.89    0.52
  -2  -3 -12   17.58    0.88
   2  -3  12   19.27    1.22
  -2  -3 -12   18.68    1.24
  -2   3 -12   18.22    1.44
  -3  -3 -12    3.54    0.65
  -3  -3 -12    3.40    0.47
  -3   3 -12    2.35    0.76
  -4  -3 -12    0.22    0.32
  -4   3 -12   -0.29    0.43
  -5  -3 -12    3.26    0.65
  -5   3 -12    2.81    0.83
  -4  -4  12    0.20    0.23
   4  -4 -12    0.19    0.30
  -4   4  12    0.57    0.84
  -3  -4  12    0.68    0.29
   3  -4 -12    0.31    0.29
  -3   4  12    0.13    0.71
   2  -4 -12    4.13    0.54
  -2  -4  12    3.61    0.57
  -2   4  12    5.42    1.40
   2   4 -12    4.89    0.50
   1  -4 -12    3.88    0.65
   1  -4 -12    3.06    0.80
   1  -4 -12    3.84    0.47
  -1  -4  12    3.51    0.60
   1   4 -12    4.45    0.53
   0  -4 -12    3.07    0.55
   0  -4 -12    3.74    0.83
   0  -4  12    2.50    0.54
   0   4 -12    2.87    0.49
  -1  -4 -12    5.21    0.67
   1  -4  12    4.82    0.78
  -1  -4 -12    3.75    0.79
   2  -4  12    0.01    0.33
  -2  -4 -12    0.40    0.24
  -2  -4 -12    0.86    0.46
  -3  -4 -12    5.74    0.67
  -3  -4 -12    5.24    0.88
  -4  -4 -12    0.59    0.46
  -4   4 -12    1.10    0.75
  -3  -5  12    2.21    0.47
  -2  -5  12    3.53    0.64
   2  -5 -12    3.64    0.54
   2   5 -12    3.75    0.54
   1  -5 -12    3.09    0.86
  -1  -5  12    3.43    0.66
   1  -5 -12    5.31    0.80
   1   5 -12    4.68    0.64
   0  -5 -12    5.36    1.10
   0  -5  12    6.87    0.94
   0  -5 -12    7.56    0.95
  -1  -5 -12    4.12    0.67
   1  -5  12    3.25    0.71
  -1  -5 -12    3.07    0.81
  -2  -5 -12    0.35    0.28
  -2  -5 -12    0.72    0.54
   2  -5  12    0.05    0.38
  -6   0  13    3.16    0.87
  -5   0  13    0.34    0.48
  -5   0  13    0.38    0.32
  -4   0  13   11.54    0.87
   4   0 -13   11.44    0.64
  -4   0  13   11.06    1.25
  -3   0  13   12.61    1.03
  -3   0  13   12.72    0.86
   3   0 -13   13.54    0.65
  -2   0  13    5.19    0.75
  -2   0  13    6.05    0.56
   2   0 -13    4.94    0.38
   1   0 -13    1.06    0.21
   1   0 -13    0.37    0.24
  -1   0  13   -0.02    0.13
   1   0 -13    0.64    0.15
  -1   0  13    1.30    0.39
   0   0  13   22.99    0.89
   0   0 -13   23.04    0.78
   0   0  13   25.06    1.22
   0   0 -13   24.07    0.74
   0   0 -13   25.34    1.13
  -1   0 -13   11.01    0.76
  -1   0 -13   12.45    0.60
  -1   0 -13   11.04    0.51
   1   0  13   11.73    0.83
   1   0  13   11.06    0.62
   2   0  13   17.44    1.02
  -2   0 -13   17.20    0.76
   2   0  13   18.53    0.87
  -2   0 -13   17.51    1.01
  -3   0 -13   10.73    0.81
  -4   0 -13   37.02    1.63
  -5   0 -13    0.06    0.24
  -6  -1  13    0.66    0.52
  -6   1  13    1.35    0.78
  -5  -1  13    0.66    0.46
  -5   1  13    0.76    0.62
  -4  -1  13   15.35    0.89
  -4  -1  13   13.80    1.03
  -4   1  13   15.01    1.65
   3  -1 -13    2.49    0.38
  -3  -1  13    1.91    0.45
  -3  -1  13    1.97    0.37
  -3   1  13    1.65    0.62
   3   1 -13    2.07    0.29
   2  -1 -13    2.32    0.42
  -2  -1  13    2.82    0.42
   2  -1 -13    2.86    0.36
  -2   1  13    2.37    0.67
   2   1 -13    3.03    0.32
   1  -1 -13    0.85    0.34
  -1  -1  13    0.02    0.19
   1  -1 -13    0.72    0.19
  -1  -1  13    0.62    0.24
   1  -1 -13    0.47    0.21
   1   1 -13    0.72    0.18
  -1   1  13    0.72    0.39
   0  -1 -13    7.51    0.50
   0  -1 -13    6.61    0.41
   0  -1 -13    7.35    0.68
   0  -1  13    6.86    0.61
   0   1 -13    7.82    0.47
   0   1  13    6.78    0.87
   0   1 -13    7.12    0.60
   0   1  13    6.28    0.57
  -1  -1 -13    1.56    0.27
   1  -1  13    1.55    0.38
  -1  -1 -13    1.24    0.25
  -1  -1 -13    1.66    0.40
  -1   1 -13    1.15    0.27
   1   1  13    1.10    0.31
   1   1  13    1.86    0.50
  -1   1 -13    1.48    0.38
  -2  -1 -13   16.35    0.69
  -2  -1 -13   16.78    0.99
   2  -1  13   17.27    1.00
  -2  -1 -13   14.81    0.76
  -2   1 -13   16.20    1.03
  -2   1 -13   13.85    0.76
  -3  -1 -13    1.95    0.43
  -3   1 -13    1.55    0.44
  -4  -1 -13   14.05    0.95
  -4   1 -13   13.85    1.07
  -5  -1 -13    2.32    0.50
  -5   1 -13    3.33    0.67
  -5  -2  13    3.38    0.61
  -5   2  13    2.42    0.85
  -4  -2  13    1.06    0.38
   4  -2 -13    1.18    0.33
  -4  -2  13    0.79    0.26
  -4   2  13    0.34    0.59
  -3  -2  13    0.70    0.29
  -3  -2  13    0.19    0.18
   3  -2 -13    0.02    0.19
  -3   2  13    0.31    0.55
   3   2 -13    0.42    0.15
  -2  -2  13    7.84    0.61
  -2  -2  13    7.54    0.59
   2  -2 -13    7.58    0.82
   2  -2 -13    8.86    0.57
   2   2 -13    8.94    0.45
  -2   2  13    8.79    1.33
  -1  -2  13    4.58    0.57
   1  -2 -13    4.42    0.73
   1  -2 -13    4.40    0.44
  -1  -2  13    5.15    0.61
   1  -2 -13    5.06    0.63
  -1   2  13    6.47    1.06
   1   2 -13    3.99    0.39
   0  -2 -13   18.21    0.71
   0  -2 -13   18.69    0.83
   0  -2 -13   16.49    1.12
   0  -2  13   18.55    1.02
   0  -2 -13   17.41    0.94
   0   2 -13   15.59    0.72
   0   2  13   16.35    1.36
  -1  -2 -13    1.01    0.29
   1  -2  13    1.75    0.44
  -1  -2 -13    0.53    0.19
  -1  -2 -13    1.31    0.24
  -1  -2 -13    0.84    0.36
  -1   2 -13    1.23    0.43
  -1   2 -13    1.35    0.30
  -2  -2 -13   12.83    0.94
   2  -2  13   14.24    0.96
  -2  -2 -13   12.48    0.64
  -2   2 -13   14.13    0.80
  -2   2 -13   12.45    1.06
  -3  -2 -13    4.22    0.68
  -3   2 -13    3.95    0.78
  -4  -2 -13    0.65    0.31
  -4   2 -13    0.83    0.47
  -5  -2 -13    1.53    0.47
  -5   2 -13    1.12    0.52
  -5   3  13    0.34    0.79
   4  -3 -13    4.42    0.62
  -4  -3  13    4.41    0.56
  -4   3  13    4.24    1.22
  -3  -3  13    6.73    0.59
  -3  -3  13    7.80    0.65
   3  -3 -13    7.77    0.75
  -3   3  13    7.91    1.55
  -2  -3  13    6.43    0.72
  -2  -3  13    5.41    0.63
   2  -3 -13    5.57    0.58
  -2   3  13    5.24    1.21
   2   3 -13    6.27    0.43
   1  -3 -13    0.20    0.37
  -1  -3  13    0.23    0.24
   1  -3 -13    0.01    0.16
  -1   3  13    0.19    0.55
   1   3 -13    0.18    0.18
   0  -3  13    0.45    0.28
   0  -3 -13    0.85    0.44
   0  -3 -13    0.34    0.24
   0  -3 -13    0.72    0.21
   0   3 -13    0.21    0.20
  -1  -3 -13    1.16    0.30
   1  -3  13    0.91    0.36
  -1  -3 -13    1.14    0.45
  -1   3 -13    0.86    0.30
  -2  -3 -13    7.89    0.59
  -2  -3 -13    7.73    0.97
   2  -3  13    8.56    0.99
  -2   3 -13    9.33    1.25
  -3  -3 -13    6.79    0.90
  -3   3 -13    6.45    1.07
  -4  -3 -13    0.85    0.42
  -4   3 -13   -0.01    0.40
  -4  -4  13    1.06    0.32
  -4   4  13    0.64    0.85
  -3  -4  13    7.12    0.64
   3  -4 -13    7.33    0.77
  -3   4  13    5.71    1.44
  -2  -4  13    5.05    0.66
   2  -4 -13    6.40    0.67
   2   4 -13    4.59    0.51
  -2   4  13    4.85    1.38
   1  -4 -13    6.85    0.82
   1  -4 -13    8.59    0.59
  -1  -4  13    7.73    0.88
   1  -4 -13    7.32    1.19
   1   4 -13    6.27    0.63
   0  -4  13    0.97    0.40
   0  -4 -13    0.06    0.42
   0  -4 -13    2.24    0.49
   0   4 -13    1.69    0.41
   1  -4  13    2.29    0.55
  -1  -4 -13    3.88    0.85
  -1  -4 -13    2.54    0.48
  -2  -4 -13    5.18    0.65
   2  -4  13    6.06    0.91
  -2  -4 -13    4.08    0.85
  -3  -4 -13    0.44    0.27
  -3  -4 -13    0.60    0.41
   2  -5 -13    1.91    0.44
  -2  -5  13    1.61    0.47
   2   5 -13    2.49    0.48
  -1  -5  13    0.42    0.35
   1  -5 -13    0.20    0.52
   1  -5 -13    0.17    0.31
   1   5 -13    0.21    0.29
   0  -5 -13    1.84    0.72
   0  -5  13    2.08    0.57
   0  -5 -13    4.04    0.72
  -1  -5 -13    0.26    0.28
  -1  -5 -13    0.29    0.50
   1  -5  13   -0.02    0.34
   2  -5  13    0.75    0.46
  -2  -5 -13    0.16    0.45
  -2  -5 -13    1.46    0.43
  -6   0  14   15.63    1.71
  -5   0  14    2.52    0.77
   4   0 -14    7.85    0.56
  -4   0  14    8.09    1.11
   3   0 -14   50.97    1.41
  -3   0  14   51.67    1.91
  -3   0  14   51.88    2.22
  -2   0  14   13.31    1.04
  -2   0  14   15.63    0.93
   2   0 -14   15.31    0.66
  -1   0  14    0.20    0.27
   1   0 -14    0.45    0.17
   0   0 -14   13.59    0.84
   0   0  14   12.09    0.89
   0   0 -14   12.11    0.57
   1   0  14   41.55    1.68
  -1   0 -14   39.70    1.56
  -1   0 -14   41.26    1.22
  -2   0 -14    0.03    0.18
  -2   0 -14   -0.03    0.19
  -3   0 -14    1.41    0.41
  -4   0 -14    0.39    0.29
  -5   0 -14    0.15    0.27
  -6  -1  14   -0.21    0.49
  -6   1  14   -0.43    0.59
  -5  -1  14    0.23    0.44
  -5   1  14    0.85    0.63
  -4  -1  14   11.50    0.80
  -4  -1  14   11.90    1.01
   4  -1 -14   10.96    0.70
  -4   1  14   12.55    1.54
  -3  -1  14    6.46    0.60
  -3  -1  14    6.75    0.82
   3  -1 -14    6.84    0.53
   3   1 -14    6.64    0.43
  -3   1  14    7.33    1.13
   2  -1 -14    2.14    0.34
  -2  -1  14    1.52    0.35
  -2  -1  14    2.12    0.46
   2   1 -14    2.04    0.28
  -2   1  14    1.60    0.55
   1  -1 -14    0.40    0.32
  -1  -1  14    0.90    0.31
   1  -1 -14    0.82    0.21
  -1  -1  14    0.62    0.26
   1  -1 -14    0.95    0.25
  -1   1  14    1.25    0.48
   1   1 -14    0.78    0.20
   0  -1  14   37.37    1.51
   0  -1 -14   37.71    1.26
   0  -1 -14   39.06    1.10
   0  -1 -14   36.50    1.56
   0   1 -14   37.22    1.46
   0   1 -14   36.78    1.12
   0   1  14   36.05    1.78
   0   1  14   38.72    1.46
  -1  -1 -14    2.19    0.33
   1  -1  14    1.56    0.39
  -1  -1 -14    2.53    0.34
  -1  -1 -14    1.31    0.38
   1   1  14    2.20    0.54
  -1   1 -14    1.86    0.32
   1   1  14    2.33    0.44
  -1   1 -14    2.87    0.52
  -2  -1 -14    0.82    0.32
  -2  -1 -14    1.27    0.28
   2  -1  14    1.91    0.44
  -2  -1 -14    1.79    0.31
  -2   1 -14    1.60    0.43
  -2   1 -14    1.72    0.36
  -3  -1 -14    5.59    0.72
  -3   1 -14    7.07    0.87
  -4  -1 -14    8.57    0.78
  -4   1 -14    6.79    0.90
  -5  -1 -14    5.07    0.73
  -5   1 -14    5.90    0.86
  -5  -2  14    0.67    0.45
  -5   2  14    0.44    0.62
   4  -2 -14    0.66    0.31
  -4  -2  14    1.20    0.41
  -4   2  14   -0.35    0.44
  -3  -2  14    1.09    0.31
   3  -2 -14    0.78    0.28
  -3  -2  14    1.18    0.37
  -3   2  14    2.00    0.79
   3   2 -14    1.82    0.27
  -2  -2  14    8.54    0.66
  -2  -2  14    9.37    0.70
   2  -2 -14    9.33    0.59
   2   2 -14    8.14    0.46
  -2   2  14    9.15    1.36
  -1  -2  14    5.49    0.64
   1  -2 -14    5.61    0.66
   1  -2 -14    5.34    0.80
   1  -2 -14    6.72    0.47
  -1   2  14    6.00    1.04
   1   2 -14    5.19    0.40
   0  -2 -14    9.21    0.68
   0  -2  14    8.45    0.71
   0  -2 -14   10.36    0.92
   0  -2 -14    8.25    0.49
   0   2 -14    7.87    0.54
   0   2  14    8.55    1.21
   1  -2  14    1.04    0.36
  -1  -2 -14    1.64    0.49
  -1  -2 -14    1.78    0.28
  -1   2 -14    0.96    0.38
  -1   2 -14    1.13    0.31
   2  -2  14    6.77    0.82
  -2  -2 -14    7.11    0.87
  -2   2 -14    7.37    0.93
  -2   2 -14    5.76    0.63
  -3  -2 -14    0.29    0.31
  -3   2 -14    1.50    0.56
  -4  -2 -14    1.16    0.43
  -4   2 -14    1.32    0.54
  -5  -2 -14    1.65    0.49
  -5   2 -14    1.52    0.55
  -5  -3  14    0.23    0.34
  -5   3  14    0.67    0.73
   4  -3 -14    2.27    0.48
  -4  -3  14    3.08    0.52
  -4   3  14    3.22    1.12
  -3  -3  14    6.85    0.61
  -3  -3  14    6.58    0.72
   3  -3 -14    5.54    0.64
  -3   3  14    4.07    1.14
   2  -3 -14    1.86    0.36
  -2  -3  14    0.84    0.29
   2   3 -14    1.02    0.25
  -2   3  14    1.63    0.80
   1  -3 -14    1.91    0.43
  -1  -3  14    2.07    0.44
   1  -3 -14    2.53    0.37
   1  -3 -14    3.59    0.79
  -1   3  14    1.91    0.81
   1   3 -14    1.98    0.34
   0  -3 -14   15.20    0.88
   0  -3  14   14.97    1.02
   0  -3 -14   14.83    0.68
   0  -3 -14   15.48    1.23
   0   3 -14   14.28    0.78
  -1  -3 -14   18.54    0.91
  -1  -3 -14   16.73    1.27
   1  -3  14   16.21    1.11
  -1   3 -14   16.70    0.93
   2  -3  14    3.57    0.66
  -2  -3 -14    1.99    0.55
  -3  -3 -14   16.10    1.21
  -3   3 -14   15.37    1.41
  -4  -3 -14    0.10    0.33
  -4   3 -14    0.12    0.49
  -4  -4  14    0.95    0.36
  -4   4  14    1.55    0.97
  -3  -4  14    1.03    0.33
   3  -4 -14    1.81    0.44
  -3   4  14    1.94    0.96
  -2  -4  14    2.27    0.47
   2  -4 -14    2.59    0.45
   2   4 -14    2.12    0.39
  -2   4  14    3.13    1.11
   1  -4 -14    1.12    0.39
   1  -4 -14    1.04    0.60
  -1  -4  14    1.05    0.38
   1  -4 -14    1.18    0.30
   1   4 -14    1.13    0.33
   0  -4 -14    3.28    0.79
   0  -4 -14    3.03    0.55
   0  -4  14    2.29    0.57
   0   4 -14    1.81    0.42
  -1  -4 -14    3.57    0.81
   1  -4  14    3.95    0.70
  -1  -4 -14    3.01    0.52
  -2  -4 -14    0.30    0.25
  -2  -4 -14    0.71    0.43
   2  -4  14    0.35    0.36
  -3  -4 -14    2.20    0.64
   2  -5 -14    1.73    0.39
   2  -5 -14    0.48    0.41
   2   5 -14    0.55    0.36
   1  -5 -14    5.66    0.84
  -1  -5  14    5.31    0.81
   1  -5 -14    4.63    1.07
   1   5 -14    3.00    0.54
   0  -5 -14    2.61    0.58
   0  -5  14    1.76    0.54
   0  -5 -14    1.28    0.72
  -1  -5 -14    0.03    0.28
   1  -5  14    0.56    0.38
  -1  -5 -14    0.01    0.46
  -5   0  15    1.48    0.69
  -4   0  15    1.17    0.41
   4   0 -15    0.46    0.23
  -4   0  15    1.40    0.55
   3   0 -15   17.31    0.77
  -3   0  15   17.45    1.30
   2   0 -15   -0.28    0.11
  -2   0  15    0.23    0.33
  -1   0  15   12.04    0.96
   1   0 -15   12.88    0.60
   0   0 -15    0.31    0.16
   0   0  15    0.25    0.28
   0   0 -15    0.02    0.18
  -1   0 -15   43.83    1.69
  -1   0 -15   42.87    1.29
   1   0  15   42.27    1.77
  -2   0 -15   74.61    1.91
  -2   0 -15   74.03    2.40
  -3   0 -15    5.14    0.72
  -4   0 -15   -0.06    0.24
  -5   0 -15    6.81    0.87
   5  -1 -15    3.01    0.50
  -5  -1  15    2.15    0.65
  -5   1  15    2.27    0.85
   4  -1 -15    2.17    0.41
  -4  -1  15    1.32    0.52
  -4  -1  15    1.83    0.42
  -4   1  15    1.21    0.61
  -3  -1  15    6.87    0.85
   3  -1 -15    5.80    0.57
  -3  -1  15    5.98    0.68
  -3   1  15    6.34    1.09
   3   1 -15    6.77    0.45
  -2  -1  15    2.12    0.48
  -2  -1  15    3.34    0.50
   2  -1 -15    2.90    0.38
  -2   1  15    2.86    0.71
   2   1 -15    3.45    0.37
  -1  -1  15    2.18    0.46
   1  -1 -15    1.26    0.25
   1   1 -15    1.73    0.27
  -1   1  15    1.82    0.59
   0  -1  15    9.48    0.78
   0  -1 -15    9.60    0.52
   0  -1 -15    8.67    0.80
   0   1 -15    8.66    0.54
   0   1  15   11.33    1.02
  -1  -1 -15    8.61    0.78
  -1  -1 -15    8.77    0.56
   1  -1  15    9.16    0.77
  -1  -1 -15    8.64    0.53
  -1   1 -15    8.68    0.59
   1   1  15    9.52    1.09
  -1   1 -15    9.11    0.76
  -2  -1 -15   21.15    0.87
  -2  -1 -15   22.33    1.25
   2  -1  15   21.70    1.22
  -2   1 -15   21.57    1.25
  -2   1 -15   21.70    0.99
  -3  -1 -15    2.37    0.51
  -3   1 -15    2.61    0.60
  -4  -1 -15    6.15    0.80
  -4   1 -15    6.31    0.88
  -5  -1 -15    0.51    0.34
  -5   1 -15    0.84    0.43
  -5  -2  15    0.20    0.43
   5  -2 -15    0.90    0.38
  -5   2  15    1.13    0.73
  -4  -2  15    4.50    0.71
   4  -2 -15    4.76    0.60
  -4   2  15    3.31    1.06
   3  -2 -15    4.49    0.54
  -3  -2  15    4.75    0.65
  -3  -2  15    4.20    0.56
  -3   2  15    3.22    0.94
   3   2 -15    5.20    0.39
   2  -2 -15    3.27    0.44
  -2  -2  15    3.12    0.51
   2   2 -15    2.78    0.33
  -2   2  15    3.17    0.93
   1  -2 -15    1.81    0.56
  -1  -2  15    1.75    0.43
   1  -2 -15    2.03    0.42
   1  -2 -15    2.60    0.36
   1   2 -15    1.71    0.30
  -1   2  15    2.37    0.73
   0  -2 -15   10.06    0.91
   0  -2 -15   10.40    0.57
   0  -2  15   11.10    0.83
   0   2 -15    9.44    0.60
   0   2  15    9.17    1.30
   1  -2  15   26.92    1.36
  -1  -2 -15   26.04    1.46
  -1  -2 -15   25.92    0.92
  -1   2 -15   24.99    1.06
  -2  -2 -15    4.43    0.74
   2  -2  15    4.45    0.70
  -2   2 -15    2.66    0.48
  -2   2 -15    3.39    0.65
  -3  -2 -15    3.19    0.65
  -3   2 -15    3.09    0.79
  -4  -2 -15    0.06    0.29
  -4   2 -15    0.38    0.44
  -4  -3  15    0.84    0.37
   4  -3 -15    0.49    0.31
  -4   3  15    0.21    0.69
  -3  -3  15    0.59    0.28
  -3  -3  15    0.61    0.31
   3  -3 -15    0.66    0.30
  -3   3  15    0.46    0.64
   2  -3 -15    6.33    0.63
  -2  -3  15    7.31    0.66
  -2   3  15    6.41    1.38
   2   3 -15    8.83    0.55
   1  -3 -15    3.37    0.43
   1  -3 -15    1.96    0.43
  -1  -3  15    2.24    0.49
   1  -3 -15    2.26    0.67
  -1   3  15    2.83    0.90
   1   3 -15    2.71    0.40
   0  -3 -15    9.58    1.20
   0  -3 -15    8.45    0.54
   0  -3  15    9.14    0.83
   0   3 -15    7.06    0.66
   1  -3  15   12.41    1.01
  -1  -3 -15   12.49    1.14
  -1   3 -15    9.67    0.75
   2  -3  15    6.35    0.88
  -2  -3 -15    7.52    1.01
  -3  -3 -15    3.64    0.75
  -3   3 -15    3.63    0.84
  -4  -3 -15    0.50    0.37
  -4   3 -15    1.43    0.64
  -3  -4  15    4.59    0.63
   3  -4 -15    4.62    0.64
  -3   4  15    6.15    1.57
   2  -4 -15    2.16    0.42
  -2  -4  15    1.12    0.37
  -2   4  15    0.42    0.74
   2   4 -15    1.32    0.33
   1  -4 -15    6.20    1.12
  -1  -4  15    6.04    0.79
   1  -4 -15    5.95    0.59
   1  -4 -15    6.13    0.77
   1   4 -15    5.89    0.66
   0  -4 -15    0.06    0.24
   0  -4  15    0.34    0.36
   0  -4 -15    0.06    0.39
   0   4 -15    0.03    0.25
   1  -4  15    2.66    0.63
  -1  -4 -15    2.43    0.74
  -2  -4 -15    2.73    0.74
   2  -4  15    3.31    0.74
  -3  -4 -15    0.46    0.50
  -5   0  16    0.64    0.60
   4   0 -16    1.41    0.32
  -4   0  16    1.64    0.62
  -3   0  16   -0.04    0.36
   3   0 -16    0.08    0.17
  -2   0  16    3.12    0.68
   2   0 -16    2.59    0.35
   1   0 -16    5.85    0.43
  -1   0  16    7.97    0.98
   0   0  16    3.46    0.65
   0   0 -16    4.71    0.67
   0   0 -16    3.79    0.41
  -1   0 -16    0.13    0.18
   1   0  16    0.47    0.33
  -1   0 -16   -0.03    0.23
  -2   0 -16   44.87    1.82
  -2   0 -16   43.26    1.40
  -3   0 -16    8.74    0.95
  -4   0 -16    0.45    0.34
  -5   0 -16    2.58    0.57
  -5  -1  16    1.87    0.69
   5  -1 -16    2.43    0.46
  -5   1  16    2.31    0.82
   4  -1 -16    0.01    0.23
  -4  -1  16    0.16    0.27
  -4  -1  16    0.28    0.42
  -4   1  16    0.34    0.45
   3  -1 -16    0.13    0.20
  -3  -1  16    0.26    0.31
   3   1 -16    0.22    0.17
  -3   1  16   -0.48    0.38
  -2  -1  16    9.51    0.85
   2  -1 -16    7.52    0.52
  -2   1  16    7.50    1.13
   2   1 -16    8.14    0.49
  -1  -1  16    3.73    0.61
   1  -1 -16    3.45    0.40
  -1   1  16    3.88    0.83
   1   1 -16    3.46    0.39
   0  -1 -16    2.75    0.61
   0  -1 -16    2.05    0.31
   0  -1  16    3.60    0.59
   0   1 -16    1.75    0.32
   0   1  16    1.58    0.59
   1  -1  16   29.58    1.43
  -1  -1 -16   28.24    1.02
  -1  -1 -16   27.63    1.46
  -1   1 -16   30.09    1.42
  -1   1 -16   26.73    1.08
   1   1  16   28.44    1.67
  -2  -1 -16   10.80    0.91
  -2   1 -16    9.89    0.70
  -2   1 -16   11.78    0.93
  -3  -1 -16    4.59    0.71
  -3   1 -16    4.66    0.75
  -4  -1 -16    1.06    0.45
  -4   1 -16    1.34    0.47
   5  -2 -16    0.90    0.40
  -5  -2  16    1.44    0.56
  -5   2  16    0.73    0.70
  -4  -2  16    0.17    0.38
   4  -2 -16    0.87    0.35
  -4   2  16    0.85    0.70
  -3  -2  16    0.13    0.26
   3  -2 -16    0.26    0.22
   3   2 -16    0.11    0.16
  -3   2  16   -0.03    0.45
  -2  -2  16    6.36    0.75
   2  -2 -16    6.12    0.59
  -2   2  16    7.13    1.26
   2   2 -16    5.93    0.43
  -1  -2  16    0.56    0.31
   1  -2 -16    0.31    0.19
   1   2 -16    0.29    0.18
  -1   2  16    0.62    0.54
   0  -2  16    0.74    0.32
   0  -2 -16    1.18    0.26
   0  -2 -16    1.38    0.49
   0   2  16    1.66    0.64
   0   2 -16    0.70    0.26
  -1  -2 -16   10.50    0.60
   1  -2  16   10.88    0.88
  -1  -2 -16   10.57    0.97
  -1   2 -16    9.90    0.68
  -2  -2 -16    3.23    0.67
   2  -2  16    2.78    0.59
  -2   2 -16    3.43    0.54
  -2   2 -16    2.65    0.62
  -3  -2 -16    0.57    0.38
  -3   2 -16    0.20    0.39
  -4  -2 -16    0.56    0.40
  -4   2 -16    0.12    0.40
  -4  -3  16    2.38    0.52
  -4   3  16    4.97    1.37
   3  -3 -16    2.08    0.43
  -3  -3  16    2.12    0.47
  -3   3  16    0.96    0.81
   2  -3 -16    7.82    0.61
  -2  -3  16    5.37    0.69
   2   3 -16    7.82    0.55
  -2   3  16    8.24    1.55
  -1  -3  16    2.49    0.53
   1  -3 -16    2.51    0.39
  -1   3  16    2.55    0.96
   1   3 -16    3.18    0.45
   0  -3 -16    6.90    1.05
   0  -3 -16    7.61    0.53
   0  -3  16    6.99    0.86
   0   3 -16    6.53    0.66
   1  -3  16    7.81    0.95
  -1  -3 -16    8.18    1.12
  -1   3 -16    6.93    0.74
  -2  -3 -16    1.88    0.61
   2  -3  16    3.63    0.68
  -3  -3 -16    2.22    0.62
  -3  -4  16    2.56    0.51
  -3   4  16    2.03    1.04
  -2  -4  16    0.79    0.35
   2  -4 -16    1.46    0.37
   2   4 -16    1.01    0.32
  -1  -4  16    0.79    0.37
   1  -4 -16    0.73    0.29
   1   4 -16    1.09    0.34
   0  -4 -16    0.76    0.57
   0  -4  16    1.42    0.49
   0   4 -16    0.76    0.34
   1  -4  16    0.69    0.45
  -1  -4 -16    0.80    0.50
  -1   4 -16    0.24    0.31
  -2  -4 -16    1.88    0.67
   2  -4  16    2.45    0.65
  -5   0  17   17.70    1.62
   4   0 -17    0.17    0.22
  -4   0  17    0.97    0.52
   3   0 -17    0.14    0.17
  -3   0  17    0.35    0.42
   2   0 -17    3.07    0.39
  -2   0  17    3.05    0.68
   1   0 -17   18.70    0.80
  -1   0  17   22.30    1.41
   0   0 -17   11.36    0.63
   0   0  17   13.84    1.10
  -1   0 -17    4.27    0.66
  -1   0 -17    3.33    0.44
   1   0  17    2.95    0.64
  -2   0 -17    1.14    0.30
  -2   0 -17    1.66    0.46
  -3   0 -17    7.86    0.93
  -4   0 -17    0.07    0.29
   5  -1 -17    2.20    0.46
  -5  -1  17    1.31    0.64
  -5   1  17    1.40    0.77
   4  -1 -17    1.13    0.34
  -4  -1  17    1.19    0.54
   4   1 -17    1.06    0.28
  -4   1  17    0.64    0.56
   3  -1 -17    0.18    0.21
  -3  -1  17    0.24    0.32
   3   1 -17    0.74    0.22
  -3   1  17    0.17    0.46
   2  -1 -17    4.59    0.49
  -2  -1  17    4.79    0.74
   2   1 -17    5.79    0.43
  -2   1  17    4.40    0.92
  -1  -1  17    5.03    0.75
   1  -1 -17    4.81    0.48
   1   1 -17    5.61    0.43
  -1   1  17    3.40    0.78
   0  -1 -17    0.68    0.40
   0  -1  17    0.51    0.34
   0  -1 -17    0.20    0.17
   0   1  17    0.33    0.42
   0   1 -17    0.38    0.21
  -1  -1 -17    4.30    0.71
   1  -1  17    4.71    0.72
  -1  -1 -17    3.67    0.45
  -1   1 -17    3.74    0.63
  -1   1 -17    3.63    0.49
  -2  -1 -17    1.67    0.50
  -2   1 -17    0.98    0.40
  -2   1 -17    0.93    0.33
  -3  -1 -17    0.09    0.30
  -3   1 -17    0.12    0.29
  -4  -1 -17    1.04    0.44
  -4   1 -17    0.59    0.40
  -4  -2  17    0.82    0.49
   4  -2 -17    1.79    0.43
  -4   2  17    1.87    0.86
  -3  -2  17    1.96    0.51
   3  -2 -17    2.58    0.43
   3   2 -17    3.02    0.37
  -3   2  17    3.15    0.99
  -2  -2  17    3.23    0.57
   2  -2 -17    2.59    0.40
   2   2 -17    3.24    0.40
  -2   2  17    4.19    1.03
  -1  -2  17    3.83    0.63
   1  -2 -17    3.98    0.46
  -1   2  17    4.37    1.01
   1   2 -17    4.41    0.49
   0  -2 -17    5.52    0.52
   0  -2  17    6.22    0.81
   0  -2 -17    6.00    0.94
   0   2  17    7.19    1.25
   0   2 -17    4.79    0.54
  -1  -2 -17    3.06    0.41
   1  -2  17    2.09    0.52
  -1  -2 -17    3.42    0.72
  -1   2 -17    2.98    0.47
  -2  -2 -17    0.72    0.44
  -2   2 -17    0.46    0.31
  -3  -2 -17    1.00    0.48
  -3   2 -17    1.15    0.48
  -4  -2 -17    1.39    0.51
  -4   2 -17    1.27    0.54
  -4  -3  17    3.91    0.69
  -4   3  17    2.35    1.05
  -3  -3  17    3.93    0.64
   3  -3 -17    3.69    0.55
   3   3 -17    4.37    0.46
  -3   3  17    2.82    1.09
  -2  -3  17    2.43    0.50
   2  -3 -17    2.65    0.45
   2   3 -17    2.84    0.42
  -2   3  17    1.82    0.88
  -1  -3  17    0.62    0.31
   1  -3 -17    1.76    0.34
   1   3 -17    0.94    0.31
  -1   3  17    1.81    0.84
   0  -3 -17    8.23    1.18
   0  -3 -17    8.53    0.57
   0  -3  17    7.84    0.93
   0   3 -17    6.95    0.71
  -1  -3 -17    4.67    0.91
   1  -3  17    3.33    0.68
  -1   3 -17    3.76    0.59
   2  -3  17    1.51    0.51
  -2  -3 -17    1.74    0.57
  -3  -3 -17    0.39    0.42
  -2  -4  17    1.09    0.40
   2  -4 -17    1.13    0.36
   2   4 -17    1.23    0.37
   1  -4 -17    0.59    0.27
  -1  -4  17    0.50    0.34
   1   4 -17    0.52    0.33
   0  -4 -17    0.31    0.51
   0  -4  17    0.53    0.39
   0   4 -17    0.99    0.39
   1  -4  17    2.69    0.65
  -1  -4 -17    1.39    0.67
  -4   0  18    0.27    0.48
   4   0 -18    0.55    0.25
   3   0 -18    1.18    0.27
  -3   0  18    0.69    0.47
  -2   0  18    4.81    0.86
   2   0 -18    5.24    0.51
  -1   0  18   26.60    1.60
   1   0 -18   23.51    0.93
   0   0  18    0.53    0.39
   0   0 -18    0.56    0.21
   1   0  18   39.78    1.92
  -1   0 -18   36.06    1.29
  -1   0 -18   39.07    1.75
  -2   0 -18   11.94    1.00
  -2   0 -18   11.51    0.75
  -3   0 -18    0.46    0.35
  -4   0 -18    0.03    0.30
  -4  -1  18    0.25    0.42
   4  -1 -18    1.11    0.33
   4   1 -18    0.26    0.22
  -4   1  18    0.15    0.53
  -3  -1  18    1.66    0.53
   3  -1 -18    1.31    0.32
  -3   1  18    0.32    0.54
   3   1 -18    1.33    0.28
  -2  -1  18    2.20    0.57
   2  -1 -18    1.64    0.33
  -2   1  18    2.15    0.72
   2   1 -18    1.83    0.31
   1  -1 -18    0.38    0.19
  -1  -1  18    0.44    0.35
  -1   1  18    0.48    0.47
   1   1 -18    0.07    0.17
   0  -1  18    0.63    0.34
   0  -1 -18    1.01    0.25
   0   1  18    0.54    0.48
   0   1 -18    1.10    0.29
   1  -1  18    1.92    0.52
  -1  -1 -18    2.75    0.41
  -1  -1 -18    2.44    0.60
  -1   1 -18    2.22    0.41
  -2  -1 -18    1.66    0.53
  -2   1 -18    2.24    0.43
  -2   1 -18    3.07    0.63
  -3  -1 -18    0.81    0.46
  -3   1 -18    0.87    0.40
  -4  -1 -18    1.50    0.51
  -4   1 -18    1.44    0.49
   4  -2 -18    1.17    0.36
  -4  -2  18    1.05    0.53
  -4   2  18    0.08    0.66
   3  -2 -18    6.56    0.68
  -3  -2  18    6.19    0.85
  -3   2  18    6.53    1.35
   2  -2 -18    2.77    0.42
  -2  -2  18    2.11    0.52
   2   2 -18    1.87    0.33
  -2   2  18    2.26    0.84
  -1  -2  18    0.60    0.35
   1  -2 -18    0.71    0.26
   1   2 -18    0.50    0.24
  -1   2  18    0.31    0.54
   0  -2 -18    3.80    0.46
   0  -2 -18    4.04    0.83
   0  -2  18    3.82    0.66
   0   2 -18    2.63    0.43
  -1  -2 -18    0.40    0.24
   1  -2  18    0.53    0.38
  -1  -2 -18    0.64    0.44
  -1   2 -18    0.54    0.28
  -2  -2 -18    3.32    0.74
  -2   2 -18    2.25    0.50
  -3  -2 -18    0.53    0.44
  -3   2 -18    0.08    0.32
  -3  -3  18    0.69    0.36
  -3   3  18    1.89    0.96
   3   3 -18    1.25    0.30
  -2  -3  18    2.99    0.58
   2  -3 -18    2.45    0.43
   2   3 -18    2.47    0.42
  -2   3  18    2.76    1.05
  -1  -3  18    7.41    0.88
   1  -3 -18    8.67    0.61
   1   3 -18    5.87    0.63
   0  -3 -18    3.40    0.44
   0  -3 -18    1.93    0.70
   0  -3  18    2.92    0.59
   0   3 -18    2.62    0.47
  -1  -3 -18    2.29    0.69
   1  -3  18    3.83    0.72
  -1   3 -18    1.71    0.44
  -2  -3 -18    0.28    0.42
  -1  -4  18   -0.20    0.25
   1  -4 -18    0.00    0.22
   0  -4  18    0.48    0.38
   0  -4 -18    0.52    0.56
  -4   0  19   -0.04    0.46
   4   0 -19   -0.13    0.20
  -3   0  19   -0.01    0.41
   3   0 -19   -0.17    0.15
   2   0 -19    0.76    0.25
  -2   0  19    0.57    0.46
   1   0 -19    2.49    0.37
  -1   0  19    1.89    0.63
   0   0 -19    0.20    0.20
   0   0  19   -0.01    0.34
  -1   0 -19    4.19    0.53
  -1   0 -19    4.36    0.73
   1   0  19    3.71    0.77
  -2   0 -19    4.09    0.55
  -2   0 -19    3.10    0.64
  -3   0 -19    0.37    0.37
  -4  -1  19    0.50    0.49
   4  -1 -19   -0.22    0.23
   4   1 -19    0.19    0.22
  -4   1  19   -0.43    0.50
   3  -1 -19    4.34    0.53
  -3  -1  19    2.83    0.69
  -3   1  19    4.24    1.03
   3   1 -19    3.89    0.46
  -2  -1  19    1.66    0.53
   2  -1 -19    1.43    0.32
   2   1 -19    1.46    0.31
  -2   1  19    0.65    0.52
   1  -1 -19    0.68    0.24
  -1  -1  19    0.28    0.34
  -1   1  19    1.19    0.63
   1   1 -19    0.16    0.19
   0  -1 -19    3.11    0.43
   0  -1  19    2.16    0.57
   0   1  19    3.34    0.82
   0   1 -19    3.46    0.48
   1  -1  19   10.95    1.01
  -1  -1 -19    8.99    0.64
  -1  -1 -19   10.22    1.16
  -1   1 -19    8.42    0.76
  -2  -1 -19    2.56    0.65
  -2   1 -19    2.39    0.47
  -2   1 -19    2.11    0.57
  -3  -1 -19    2.36    0.62
  -3   1 -19    3.36    0.69
  -3  -2  19    0.27    0.36
   3  -2 -19    0.42    0.27
   3   2 -19    0.44    0.22
  -3   2  19    1.35    0.75
  -2  -2  19    0.23    0.31
   2  -2 -19    0.04    0.19
  -2   2  19   -0.63    0.51
   2   2 -19   -0.11    0.18
   1  -2 -19    8.90    0.60
  -1  -2  19    6.40    0.88
  -1   2  19   10.90    1.66
   0  -2 -19    2.20    0.38
   0  -2  19    2.19    0.55
   0   2 -19    1.85    0.39
  -1  -2 -19    1.77    0.58
   1  -2  19    1.17    0.49
  -1   2 -19    1.67    0.40
  -2  -2 -19    0.42    0.44
  -2   2 -19    0.06    0.32
  -3  -2 -19   -0.22    0.33
   2  -3 -19    4.33    0.55
  -2  -3  19    2.68    0.57
  -2   3  19    4.33    1.26
   2   3 -19    4.37    0.55
   1  -3 -19    0.11    0.19
  -1  -3  19    0.31    0.31
   1   3 -19    0.01    0.25
   0  -3  19    0.98    0.43
   0  -3 -19    0.98    0.29
   0   3 -19    1.20    0.38
   1  -3  19    0.22    0.33
  -1  -3 -19    0.65    0.53
  -1   3 -19    0.82    0.38
  -2  -3 -19   -0.11    0.40
  -2   3 -19    0.41    0.37
   4   0 -20    0.08    0.25
  -4   0  20    0.16    0.48
  -3   0  20    0.56    0.49
   3   0 -20   -0.14    0.18
   2   0 -20    3.69    0.46
  -2   0  20    3.19    0.80
  -1   0  20    1.80    0.63
   1   0 -20    1.79    0.34
   0   0  20    1.17    0.51
   0   0 -20    1.12    0.30
  -1   0 -20    3.33    0.50
  -2   0 -20    0.44    0.38
  -3   0 -20   -0.40    0.28
  -3  -1  20    0.40    0.42
   3  -1 -20    0.47    0.26
  -3   1  20    0.84    0.61
   3   1 -20    0.40    0.22
  -2  -1  20    0.19    0.39
   2  -1 -20    0.10    0.20
  -2   1  20   -0.32    0.46
   2   1 -20    0.14    0.20
  -1  -1  20    1.47    0.52
   1  -1 -20    1.44    0.33
  -1   1  20    2.22    0.77
   1   1 -20    2.06    0.38
   0  -1  20    3.38    0.74
   0  -1 -20    2.27    0.40
   0   1  20    2.88    0.81
   0   1 -20    2.04    0.40
   1  -1  20    2.34    0.64
  -1  -1 -20    2.65    0.44
  -1  -1 -20    2.36    0.63
  -1   1 -20    2.08    0.42
  -2  -1 -20    0.06    0.37
  -2   1 -20    0.05    0.29
  -3  -1 -20    1.39    0.53
  -3   1 -20    1.97    0.60
  -3  -2  20    1.94    0.55
  -3   2  20    1.83    0.94
   3   2 -20    1.67    0.34
  -2  -2  20    1.08    0.44
   2  -2 -20    1.13    0.33
  -2   2  20    0.11    0.61
   2   2 -20    0.62    0.28
   1  -2 -20    1.72    0.35
  -1  -2  20    0.91    0.40
   1   2 -20    1.62    0.38
  -1   2  20    1.91    0.83
   0  -2  20    1.81    0.54
   0  -2 -20    1.51    0.33
   0   2 -20    1.29    0.35
   1  -2  20    0.10    0.35
  -1  -2 -20   -0.08    0.34
  -1   2 -20   -0.09    0.25
  -2  -2 -20    0.12    0.41
  -2   2 -20   -0.03    0.31
  -1  -3  20   -0.21    0.27
   1  -3 -20    0.15    0.23
   0  -3  20    1.16    0.47
  -1  -3 -20    3.31    0.86
   1  -3  20    3.10    0.70
   3   0 -21    0.14    0.23
  -3   0  21    0.01    0.49
  -2   0  21    0.95    0.54
   2   0 -21   -0.02    0.20
   1   0 -21    0.28    0.21
  -1   0  21   -0.05    0.41
   0   0 -21    0.89    0.30
   0   0  21    0.41    0.45
  -1   0 -21    6.05    0.66
  -2   0 -21    0.90    0.47
  -3  -1  21    1.70    0.60
   3   1 -21    2.31    0.40
  -3   1  21    1.95    0.85
   2  -1 -21    0.40    0.24
  -2  -1  21    0.33    0.43
   2   1 -21    0.47    0.24
  -2   1  21    0.93    0.60
  -1  -1  21    2.38    0.65
   1  -1 -21    1.35    0.33
  -1   1  21    2.33    0.79
   1   1 -21    1.89    0.38
   0  -1 -21    5.83    0.61
   0  -1  21    7.13    1.04
   0   1  21    5.59    1.12
   0   1 -21    6.16    0.66
   1  -1  21    0.13    0.34
  -1  -1 -21   -0.04    0.23
  -1   1 -21    0.34    0.28
  -2  -1 -21    0.34    0.41
  -2   1 -21    0.54    0.35
  -2  -2  21    1.44    0.53
  -2   2  21    1.65    0.84
   1  -2 -21    0.56    0.27
  -1  -2  21    0.78    0.43
   1   2 -21    1.04    0.34
  -1   2  21    0.49    0.62
   0  -2 -21    1.75    0.37
   0  -2  21    1.20    0.47
   0   2 -21    1.58    0.41
  -1  -2 -21    0.08    0.40
   1  -2  21   -0.46    0.30
  -1   2 -21   -0.28    0.26
  -2   0  22    0.90    0.60
  -1   0  22   -0.37    0.42
   1   0 -22    0.06    0.21
   0   0  22   13.74    1.58
   0   0 -22   14.23    0.86
  -1   0 -22    0.67    0.33
  -2  -1  22    0.64    0.49
  -2   1  22    0.16    0.58
   1  -1 -22    0.31    0.25
  -1  -1  22    0.27    0.42
  -1   1  22    0.93    0.70
   0  -1 -22    2.12    0.43
   0  -1  22    2.50    0.70
   0   1 -22    1.36    0.40
  -1  -1 -22    1.34    0.36
  -1   1 -22    1.75    0.43
  -1   0  23    0.10    0.55
   0   0  23    4.03    0.95
   0   0   0    0.00    0.00
;
_shelx_hkl_checksum              88096
loop_
_space_group_symop_operation_xyz
'x, y, z'
'-x, y+1/2, -z'
loop_
_atom_site_label
_atom_site_type_symbol
_atom_site_fract_x
_atom_site_fract_y
_atom_site_fract_z
_atom_site_U_iso_or_equiv
_atom_site_adp_type
_atom_site_occupancy
_atom_site_site_symmetry_order
_atom_site_calc_flag
_atom_site_refinement_flags_posn
_atom_site_refinement_flags_adp
O3 O 0.0238(4) 0.4777(4) 0.64576(12) 0.0326(7) Uani 1 1 d . .
O4 O 0.3001(4) 0.2805(4) 0.55556(13) 0.0345(7) Uani 1 1 d . .
O1 O 0.2941(4) 0.6291(4) 0.48968(11) 0.0327(6) Uani 1 1 d . .
O2 O 0.0033(4) 0.8263(4) 0.58564(11) 0.0333(6) Uani 1 1 d . .
N1 N 0.5193(5) 0.7406(5) 0.73065(14) 0.0309(8) Uani 1 1 d . .
N2 N 0.5250(6) 0.9849(6) 0.73072(17) 0.0388(9) Uani 1 1 d . .
N3 N 0.6734(6) 1.0497(6) 0.77868(16) 0.0401(8) Uani 1 1 d . .
C12 C 1.3058(8) 0.8573(12) 0.9512(2) 0.0708(15) Uani 1 1 d . .
H12 H 1.4274 0.8571 0.9817 0.085 Uiso 1 1 calc R U
C13 C 1.2782(8) 1.0364(10) 0.9027(2) 0.0633(14) Uani 1 1 d . .
H13 H 1.3813 1.1577 0.9002 0.076 Uiso 1 1 calc R U
C14 C 1.0973(8) 1.0372(8) 0.8575(2) 0.0524(12) Uani 1 1 d . .
H14 H 1.0786 1.1603 0.8250 0.063 Uiso 1 1 calc R U
C9 C 0.9443(6) 0.8567(8) 0.86030(17) 0.0384(9) Uani 1 1 d . .
C8 C 0.7604(6) 0.8474(8) 0.80886(16) 0.0323(8) Uani 1 1 d . .
C7 C 0.6608(6) 0.6505(7) 0.77825(17) 0.0338(9) Uani 1 1 d . .
H7 H 0.6865 0.4881 0.7885 0.041 Uiso 1 1 calc R U
C5 C 0.3801(6) 0.6062(6) 0.68044(15) 0.0296(9) Uani 1 1 d . .
H5 H 0.4055 0.4333 0.6891 0.036 Uiso 1 1 calc R U
C4 C 0.1402(6) 0.6536(7) 0.68843(17) 0.0329(9) Uani 1 1 d . .
H4 H 0.1046 0.6398 0.7368 0.039 Uiso 1 1 calc R U
C2 C 0.0439(6) 0.5741(6) 0.57914(18) 0.0290(9) Uani 1 1 d . .
H2 H -0.0619 0.5002 0.5460 0.035 Uiso 1 1 calc R U
C1 C 0.2727(6) 0.5334(7) 0.55673(17) 0.0292(9) Uani 1 1 d . .
C3 C 0.0583(6) 0.8897(7) 0.65706(17) 0.0346(9) Uani 1 1 d . .
H3A H -0.0672 0.9470 0.6796 0.042 Uiso 1 1 calc R U
H3B H 0.1692 1.0136 0.6605 0.042 Uiso 1 1 calc R U
C11 C 1.1551(8) 0.6792(11) 0.9550(2) 0.0702(15) Uani 1 1 d . .
H11 H 1.1733 0.5589 0.9884 0.084 Uiso 1 1 calc R U
C10 C 0.9763(7) 0.6766(10) 0.9096(2) 0.0544(12) Uani 1 1 d . .
H10 H 0.8757 0.5527 0.9121 0.065 Uiso 1 1 calc R U
C6 C 0.4365(6) 0.6575(7) 0.60591(15) 0.0303(8) Uani 1 1 d . .
H6A H 0.4349 0.8307 0.5975 0.036 Uiso 1 1 calc R U
H6B H 0.5799 0.5971 0.5986 0.036 Uiso 1 1 calc R U
H3 H 0.427(7) 0.249(8) 0.5452(17) 0.045 Uiso 1 1 d . U
H4O H 0.195(6) 0.540(8) 0.4620(18) 0.045 Uiso 1 1 d . U
loop_
_atom_site_aniso_label
_atom_site_aniso_U_11
_atom_site_aniso_U_22
_atom_site_aniso_U_33
_atom_site_aniso_U_23
_atom_site_aniso_U_13
_atom_site_aniso_U_12
O3 0.0305(15) 0.0284(14) 0.0393(14) 0.0021(11) 0.0040(12) -0.0031(12)
O4 0.0316(15) 0.0258(15) 0.0465(15) -0.0014(11) 0.0048(12) 0.0027(12)
O1 0.0325(14) 0.0341(17) 0.0311(13) 0.0006(11) -0.0007(11) -0.0060(13)
O2 0.0341(15) 0.0271(15) 0.0380(13) -0.0010(12) -0.0027(11) 0.0048(13)
N1 0.0351(19) 0.0239(17) 0.0331(17) 0.0008(13) -0.0032(14) 0.0010(15)
N2 0.042(2) 0.0245(18) 0.048(2) 0.0004(15) -0.0084(17) 0.0015(16)
N3 0.049(2) 0.0304(19) 0.0398(18) -0.0040(16) -0.0083(17) 0.0002(17)
C12 0.058(3) 0.081(4) 0.069(3) -0.008(3) -0.027(3) 0.008(4)
C13 0.047(3) 0.074(4) 0.067(3) -0.011(3) -0.010(3) -0.017(3)
C14 0.053(3) 0.053(3) 0.049(2) -0.003(2) -0.008(2) -0.007(2)
C9 0.038(2) 0.040(2) 0.0368(19) -0.005(2) -0.0033(18) 0.003(2)
C8 0.035(2) 0.029(2) 0.0323(17) -0.0017(18) 0.0016(16) 0.002(2)
C7 0.037(2) 0.029(2) 0.0347(19) 0.0025(17) -0.0034(18) 0.004(2)
C5 0.031(2) 0.023(2) 0.0343(19) 0.0027(15) -0.0033(16) 0.0003(17)
C4 0.033(2) 0.032(2) 0.0333(19) 0.0014(17) 0.0059(17) 0.0016(19)
C2 0.028(2) 0.025(2) 0.0345(19) 0.0021(16) -0.0017(16) -0.0020(17)
C1 0.033(2) 0.023(2) 0.0325(19) -0.0003(16) 0.0023(17) 0.0005(17)
C3 0.034(2) 0.033(2) 0.0366(19) -0.0034(18) 0.0023(16) 0.007(2)
C11 0.072(4) 0.068(4) 0.066(3) 0.013(3) -0.029(3) -0.002(3)
C10 0.057(3) 0.051(3) 0.053(2) 0.009(2) -0.014(2) -0.002(3)
C6 0.0225(19) 0.034(2) 0.0339(17) 0.0027(16) 0.0030(15) -0.0011(19)
loop_
_atom_type_symbol
_atom_type_description
_atom_type_scat_dispersion_real
_atom_type_scat_dispersion_imag
_atom_type_scat_source
C C 0.0033 0.0016 'International Tables Vol C Tables 4.2.6.8 and 6.1.1.4'
H H 0.0000 0.0000 'International Tables Vol C Tables 4.2.6.8 and 6.1.1.4'
N N 0.0061 0.0033 'International Tables Vol C Tables 4.2.6.8 and 6.1.1.4'
O O 0.0106 0.0060 'International Tables Vol C Tables 4.2.6.8 and 6.1.1.4'
loop_
_geom_angle_atom_site_label_1
_geom_angle_atom_site_label_2
_geom_angle_atom_site_label_3
_geom_angle
C2 O3 C4 101.7(3)
C1 O4 H3 109(3)
C1 O1 H4O 103(2)
C2 O2 C3 106.8(3)
C7 N1 N2 110.9(3)
C7 N1 C5 127.6(3)
N2 N1 C5 121.4(3)
N3 N2 N1 106.8(3)
N2 N3 C8 108.9(3)
C11 C12 C13 120.1(4)
C11 C12 H12 120.0
C13 C12 H12 120.0
C12 C13 C14 120.1(5)
C12 C13 H13 120.0
C14 C13 H13 120.0
C9 C14 C13 120.5(4)
C9 C14 H14 119.7
C13 C14 H14 119.7
C14 C9 C10 118.4(4)
C14 C9 C8 120.4(4)
C10 C9 C8 121.1(4)
N3 C8 C7 108.0(3)
N3 C8 C9 122.4(4)
C7 C8 C9 129.3(4)
N1 C7 C8 105.4(3)
N1 C7 H7 127.3
C8 C7 H7 127.3
N1 C5 C4 112.7(3)
N1 C5 C6 111.9(3)
C4 C5 C6 110.1(3)
N1 C5 H5 107.3
C4 C5 H5 107.3
C6 C5 H5 107.3
O3 C4 C3 101.8(3)
O3 C4 C5 106.5(3)
C3 C4 C5 114.3(3)
O3 C4 H4 111.2
C3 C4 H4 111.2
C5 C4 H4 111.2
O3 C2 O2 105.2(3)
O3 C2 C1 110.0(3)
O2 C2 C1 110.0(3)
O3 C2 H2 110.5
O2 C2 H2 110.5
C1 C2 H2 110.5
O4 C1 O1 109.7(3)
O4 C1 C6 112.4(3)
O1 C1 C6 108.2(3)
O4 C1 C2 105.4(3)
O1 C1 C2 110.3(3)
C6 C1 C2 110.8(3)
O2 C3 C4 103.3(3)
O2 C3 H3A 111.1
C4 C3 H3A 111.1
O2 C3 H3B 111.1
C4 C3 H3B 111.1
H3A C3 H3B 109.1
C12 C11 C10 120.3(5)
C12 C11 H11 119.9
C10 C11 H11 119.9
C11 C10 C9 120.7(5)
C11 C10 H10 119.6
C9 C10 H10 119.6
C1 C6 C5 109.0(3)
C1 C6 H6A 109.9
C5 C6 H6A 109.9
C1 C6 H6B 109.9
C5 C6 H6B 109.9
H6A C6 H6B 108.3
loop_
_geom_bond_atom_site_label_1
_geom_bond_atom_site_label_2
_geom_bond_distance
O3 C2 1.410(4)
O3 C4 1.442(4)
O4 C1 1.407(4)
O4 H3 0.85(4)
O1 C1 1.418(4)
O1 H4O 0.93(4)
O2 C2 1.422(4)
O2 C3 1.449(4)
N1 C7 1.331(4)
N1 N2 1.349(4)
N1 C5 1.464(4)
N2 N3 1.318(4)
N3 C8 1.357(5)
C12 C11 1.363(7)
C12 C13 1.368(7)
C12 H12 0.9300
C13 C14 1.383(6)
C13 H13 0.9300
C14 C9 1.381(6)
C14 H14 0.9300
C9 C10 1.386(6)
C9 C8 1.471(5)
C8 C7 1.368(5)
C7 H7 0.9300
C5 C4 1.531(5)
C5 C6 1.534(4)
C5 H5 0.9800
C4 C3 1.513(5)
C4 H4 0.9800
C2 C1 1.529(5)
C2 H2 0.9800
C1 C6 1.515(5)
C3 H3A 0.9700
C3 H3B 0.9700
C11 C10 1.374(5)
C11 H11 0.9300
C10 H10 0.9300
C6 H6A 0.9700
C6 H6B 0.9700
loop_
_geom_hbond_atom_site_label_D
_geom_hbond_atom_site_label_H
_geom_hbond_atom_site_label_A
_geom_hbond_distance_DH
_geom_hbond_distance_HA
_geom_hbond_distance_DA
_geom_hbond_angle_DHA
_geom_hbond_site_symmetry_A
C7 H7 N3 0.93 2.43 3.318(5) 159.9 1_545
C5 H5 N2 0.98 2.69 3.663(5) 169.9 1_545
C2 H2 O1 0.98 2.58 3.447(4) 148.2 2_546
C3 H3A N3 0.97 2.65 3.572(5) 160.0 1_455
C3 H3B N2 0.97 2.53 3.197(5) 125.9 .
O4 H3 O1 0.85(4) 2.01(4) 2.846(4) 170(4) 2_646
O1 H4O O2 0.93(4) 1.90(4) 2.831(4) 173(3) 2_546
loop_
_geom_torsion_atom_site_label_1
_geom_torsion_atom_site_label_2
_geom_torsion_atom_site_label_3
_geom_torsion_atom_site_label_4
_geom_torsion
C7 N1 N2 N3 0.5(4)
C5 N1 N2 N3 -176.3(3)
N1 N2 N3 C8 -0.2(4)
C11 C12 C13 C14 0.1(8)
C12 C13 C14 C9 -0.7(7)
C13 C14 C9 C10 0.4(7)
C13 C14 C9 C8 -175.4(4)
N2 N3 C8 C7 -0.1(4)
N2 N3 C8 C9 174.4(3)
C14 C9 C8 N3 -30.8(5)
C10 C9 C8 N3 153.6(4)
C14 C9 C8 C7 142.6(4)
C10 C9 C8 C7 -33.1(6)
N2 N1 C7 C8 -0.6(4)
C5 N1 C7 C8 176.0(3)
N3 C8 C7 N1 0.4(4)
C9 C8 C7 N1 -173.6(3)
C7 N1 C5 C4 119.9(4)
N2 N1 C5 C4 -63.9(4)
C7 N1 C5 C6 -115.4(4)
N2 N1 C5 C6 60.8(5)
C2 O3 C4 C3 44.1(3)
C2 O3 C4 C5 -76.0(3)
N1 C5 C4 O3 -169.2(2)
C6 C5 C4 O3 65.1(3)
N1 C5 C4 C3 79.2(3)
C6 C5 C4 C3 -46.5(4)
C4 O3 C2 O2 -44.2(3)
C4 O3 C2 C1 74.3(3)
C3 O2 C2 O3 25.9(4)
C3 O2 C2 C1 -92.5(3)
O3 C2 C1 O4 61.4(4)
O2 C2 C1 O4 176.9(3)
O3 C2 C1 O1 179.8(3)
O2 C2 C1 O1 -64.8(4)
O3 C2 C1 C6 -60.4(4)
O2 C2 C1 C6 55.0(4)
C2 O2 C3 C4 2.1(4)
O3 C4 C3 O2 -28.2(3)
C5 C4 C3 O2 86.2(3)
C13 C12 C11 C10 0.8(9)
C12 C11 C10 C9 -1.2(8)
C14 C9 C10 C11 0.5(7)
C8 C9 C10 C11 176.3(4)
O4 C1 C6 C5 -72.9(4)
O1 C1 C6 C5 165.9(3)
C2 C1 C6 C5 44.8(4)
N1 C5 C6 C1 -174.3(3)
C4 C5 C6 C1 -48.2(4)
