#------------------------------------------------------------------------------
#$Date: 2019-11-11 16:24:44 +0200 (Mon, 11 Nov 2019) $
#$Revision: 226541 $
#$URL: file:///home/coder/svn-repositories/cod/cif/4/03/50/4035043.cif $
#------------------------------------------------------------------------------
#
# This file is available in the Crystallography Open Database (COD),
# http://www.crystallography.net/
#
# All data on this site have been placed in the public domain by the
# contributors.
#
data_4035043
loop_
_publ_author_name
'Golushko, Andrei A.'
'Sandzhieva, Maria A.'
'Ivanov, Alexander Yu'
'Boyarskaya, Irina A.'
'Khoroshilova, Olesya V.'
'Barkov, Alexey Yu'
'Vasilyev, Aleksander V.'
_publ_section_title
;
 Reactions of 3,3,3-Trihalogeno-1-nitropropenes with Arenes in the
 Superacid CF<sub>3</sub>SO<sub>3</sub>H: Synthesis of (
 Z)-3,3,3-Trihalogeno-1,2-diarylpropan-1-one Oximes and Study on the
 Reaction Mechanism.
;
_journal_issue                   17
_journal_name_full               'The Journal of organic chemistry'
_journal_page_first              10142
_journal_page_last               10157
_journal_paper_doi               10.1021/acs.joc.8b01406
_journal_volume                  83
_journal_year                    2018
_chemical_formula_moiety         'C15 H12 F3 N O'
_chemical_formula_sum            'C15 H12 F3 N O'
_chemical_formula_weight         279.26
_space_group_crystal_system      triclinic
_space_group_IT_number           2
_space_group_name_Hall           '-P 1'
_space_group_name_H-M_alt        'P -1'
_atom_sites_solution_hydrogens   geom
_atom_sites_solution_primary     iterative
_audit_creation_date             2017-09-06
_audit_creation_method
;
Olex2 1.2
(compiled 2017.08.10 svn.r3458 for OlexSys, GUI svn.r5375)
;
_cell_angle_alpha                100.892(7)
_cell_angle_beta                 108.690(7)
_cell_angle_gamma                93.579(5)
_cell_formula_units_Z            2
_cell_length_a                   7.4873(5)
_cell_length_b                   9.5260(7)
_cell_length_c                   9.7340(9)
_cell_measurement_reflns_used    1928
_cell_measurement_temperature    293(2)
_cell_measurement_theta_max      30.2030
_cell_measurement_theta_min      3.6520
_cell_volume                     640.14(9)
_computing_cell_refinement       'CrysAlisPro 1.171.38.46 (Rigaku OD, 2015)'
_computing_data_collection       'CrysAlisPro 1.171.38.46 (Rigaku OD, 2015)'
_computing_data_reduction        'CrysAlisPro 1.171.38.46 (Rigaku OD, 2015)'
_computing_molecular_graphics    'Olex2 (Dolomanov et al., 2009)'
_computing_publication_material  'Olex2 (Dolomanov et al., 2009)'
_computing_structure_refinement  'ShelXL (Sheldrick, 2015)'
_computing_structure_solution
;
Superflip (Palatinus & Chapuis, 2007;Palatinus & van der Lee, 2008;
Palatinus et al., 2012)
;
_diffrn_ambient_temperature      293(2)
_diffrn_detector                 'CCD plate'
_diffrn_detector_area_resol_mean 10.3829
_diffrn_detector_type            Atlas
_diffrn_measured_fraction_theta_full 0.998
_diffrn_measured_fraction_theta_max 0.998
_diffrn_measurement_details
;
List of Runs (angles in degrees, time in seconds):

  # Type    Start    End  Width  t~exp~   \w     \q     \k     \f   Frames
--------------------------------------------------------------------------
  1  \w    -12.00  89.00   1.00    5.57    --   16.06  57.00 -90.00  101
  2  \w     -4.00  35.00   1.00    5.57    --   16.06  38.00-180.00   39
  3  \w     -5.00  26.00   1.00    5.57    --  -14.18 -99.00 -90.00   31
  4  \w    -57.00  23.00   1.00    5.57    --   16.06 -38.00 120.00   80
  5  \w     35.00  61.00   1.00    5.57    --   16.06-178.00 150.00   26
  6  \w     34.00  99.00   1.00    5.57    --   16.06-178.00 120.00   65
;
_diffrn_measurement_device       'four-circle diffractometer'
_diffrn_measurement_device_type  'SuperNova, Dual, Cu at zero, Atlas'
_diffrn_measurement_method       '\w scans'
_diffrn_orient_matrix_type
'CrysAlisPro convention (1999,Acta A55,543-557)'
_diffrn_orient_matrix_UB_11      0.0661135000
_diffrn_orient_matrix_UB_12      0.0496015000
_diffrn_orient_matrix_UB_13      0.0618590000
_diffrn_orient_matrix_UB_21      0.0368344000
_diffrn_orient_matrix_UB_22      -0.0582106000
_diffrn_orient_matrix_UB_23      0.0309213000
_diffrn_orient_matrix_UB_31      0.0667211000
_diffrn_orient_matrix_UB_32      -0.0017216000
_diffrn_orient_matrix_UB_33      -0.0379315000
_diffrn_radiation_monochromator  mirror
_diffrn_radiation_probe          x-ray
_diffrn_radiation_type           MoK\a
_diffrn_radiation_wavelength     0.71073
_diffrn_reflns_av_R_equivalents  0.0395
_diffrn_reflns_av_unetI/netI     0.0737
_diffrn_reflns_Laue_measured_fraction_full 0.998
_diffrn_reflns_Laue_measured_fraction_max 0.998
_diffrn_reflns_limit_h_max       9
_diffrn_reflns_limit_h_min       -9
_diffrn_reflns_limit_k_max       12
_diffrn_reflns_limit_k_min       -12
_diffrn_reflns_limit_l_max       12
_diffrn_reflns_limit_l_min       -10
_diffrn_reflns_number            5595
_diffrn_reflns_point_group_measured_fraction_full 0.998
_diffrn_reflns_point_group_measured_fraction_max 0.998
_diffrn_reflns_theta_full        25.242
_diffrn_reflns_theta_max         27.494
_diffrn_reflns_theta_min         3.397
_diffrn_source                   'micro-focus sealed X-ray tube'
_diffrn_source_type              'SuperNova (Mo) X-ray Source'
_exptl_absorpt_coefficient_mu    0.121
_exptl_absorpt_correction_T_max  1.00000
_exptl_absorpt_correction_T_min  0.82398
_exptl_absorpt_correction_type   multi-scan
_exptl_absorpt_process_details
;
CrysAlisPro 1.171.38.46 (Rigaku Oxford Diffraction, 2015)
Empirical absorption correction using spherical harmonics,
 implemented in SCALE3 ABSPACK scaling algorithm.
;
_exptl_crystal_colour            'clear colourless'
_exptl_crystal_colour_lustre     clear
_exptl_crystal_colour_primary    colourless
_exptl_crystal_density_diffrn    1.449
_exptl_crystal_description       prism
_exptl_crystal_F_000             288
_exptl_crystal_size_max          0.3
_exptl_crystal_size_mid          0.2
_exptl_crystal_size_min          0.15
_refine_diff_density_max         0.292
_refine_diff_density_min         -0.321
_refine_diff_density_rms         0.058
_refine_ls_extinction_method     none
_refine_ls_goodness_of_fit_ref   1.067
_refine_ls_hydrogen_treatment    constr
_refine_ls_matrix_type           full
_refine_ls_number_parameters     182
_refine_ls_number_reflns         2934
_refine_ls_number_restraints     0
_refine_ls_restrained_S_all      1.067
_refine_ls_R_factor_all          0.0766
_refine_ls_R_factor_gt           0.0487
_refine_ls_shift/su_max          0.000
_refine_ls_shift/su_mean         0.000
_refine_ls_structure_factor_coef Fsqd
_refine_ls_weighting_details
'w=1/[\s^2^(Fo^2^)+(0.0320P)^2^+0.0356P] where P=(Fo^2^+2Fc^2^)/3'
_refine_ls_weighting_scheme      calc
_refine_ls_wR_factor_gt          0.0905
_refine_ls_wR_factor_ref         0.1092
_reflns_Friedel_coverage         0.000
_reflns_number_gt                2054
_reflns_number_total             2934
_reflns_threshold_expression     'I > 2\s(I)'
_cod_data_source_file            jo8b01406_si_002.cif
_cod_data_source_block           mmx01649
_cod_database_code               4035043
_shelx_shelxl_version_number     2014/7
_chemical_oxdiff_formula         'F3 N O C15'
_shelx_space_group_comment
;
The symmetry employed for this shelxl refinement is uniquely defined
by the following loop, which should always be used as a source of
symmetry information in preference to the above space-group names.
They are only intended as comments.
;
_reflns_odcompleteness_completeness 99.82
_reflns_odcompleteness_iscentric 1
_reflns_odcompleteness_theta     28.64
_olex2_refinement_description
;
1. Fixed Uiso
 At 1.2 times of:
  All C(H) groups
 At 1.5 times of:
  All O(H) groups
2.a Ternary CH refined with riding coordinates:
 C15(H15)
2.b Aromatic/amide H refined with riding coordinates:
 C2(H2), C1(H1A), C3(H3), C4(H4), C7(H7), C8(H8), C9(H9), C10(H10), C11(H11),
 C13(H13)
2.c Idealised tetrahedral OH refined as rotating group:
 O1(H1)
;
_shelx_res_file
;
    mmx01649.res created by SHELXL-2014/7

TITL CF solution in P-1
CELL 0.71073 7.487299 9.526021 9.733962 100.8924 108.6905 93.5785
ZERR 2 0.00046 0.000667 0.00089 0.0068 0.0068 0.0054
LATT 1
SFAC C H F N O
UNIT 30 24 6 2 2

L.S. 4
PLAN  25
BOND
fmap 2
acta
OMIT -4 55
REM <olex2.extras>
REM <HklSrc "%.\\MMX01649.hkl">
REM </olex2.extras>

WGHT    0.032000    0.035600
FVAR       7.82838
F1    3    0.395326    0.697442    0.750336    11.00000    0.02827    0.02736 =
         0.02221   -0.00044    0.01413    0.00381
F2    3    0.552686    0.857305    0.948624    11.00000    0.02018    0.02931 =
         0.02050    0.00403    0.00448   -0.00214
F3    3    0.354917    0.921319    0.763008    11.00000    0.03173    0.02968 =
         0.02055    0.01111    0.01025    0.00203
O1    5    0.397999    0.537600    1.127035    11.00000    0.02563    0.02425 =
         0.02088    0.00986    0.01067    0.01073
AFIX 147
H1    2    0.470156    0.477817    1.118498    11.00000   -1.50000
AFIX   0
C2    1    0.283483    0.798590    1.282805    11.00000    0.01915    0.02324 =
         0.02059    0.00673    0.00762    0.00540
AFIX  43
H2    2    0.414835    0.815004    1.307317    11.00000   -1.20000
AFIX   0
C1    1   -0.106577    0.750356    1.211736    11.00000    0.02193    0.02875 =
         0.02982    0.00969    0.01464    0.00480
AFIX  43
H1A   2   -0.237739    0.733369    1.188137    11.00000   -1.20000
AFIX   0
C3    1   -0.184855    0.560064    0.585801    11.00000    0.02422    0.02146 =
         0.02172    0.00339    0.00701   -0.00193
AFIX  43
H3    2   -0.213585    0.464252    0.534139    11.00000   -1.20000
AFIX   0
C4    1   -0.097783    0.844948    0.739503    11.00000    0.02392    0.01788 =
         0.02012    0.00500    0.01095    0.00384
AFIX  43
H4    2   -0.069498    0.940710    0.791309    11.00000   -1.20000
AFIX   0
C5    1    0.169707    0.741698    1.136684    11.00000    0.02027    0.01564 =
         0.01867    0.00580    0.00897    0.00568
C6    1    0.260776    0.710120    1.020339    11.00000    0.01443    0.01830 =
         0.01289    0.00225    0.00311    0.00064
C7    1   -0.268836    0.798842    0.623541    11.00000    0.01977    0.02596 =
         0.02679    0.01193    0.00905    0.00609
AFIX  43
H7    2   -0.354390    0.864019    0.597573    11.00000   -1.20000
AFIX   0
C8    1   -0.312921    0.656547    0.546312    11.00000    0.01826    0.02981 =
         0.02209    0.00900    0.00537   -0.00163
AFIX  43
H8    2   -0.427619    0.625847    0.468483    11.00000   -1.20000
AFIX   0
C9    1    0.006713    0.806826    1.356533    11.00000    0.03488    0.02492 =
         0.02731    0.00842    0.02164    0.00862
AFIX  43
H9    2   -0.047834    0.828660    1.430119    11.00000   -1.20000
AFIX   0
C10   1   -0.014132    0.605736    0.701958    11.00000    0.02326    0.02197 =
         0.02058    0.00808    0.00806    0.00739
AFIX  43
H10   2    0.070423    0.540093    0.728700    11.00000   -1.20000
AFIX   0
C11   1    0.202523    0.831254    1.392900    11.00000    0.03280    0.02609 =
         0.01611    0.00544    0.00850    0.00845
AFIX  43
H11   2    0.279492    0.869465    1.490905    11.00000   -1.20000
AFIX   0
N1    4    0.372607    0.614546    1.014600    11.00000    0.02061    0.01979 =
         0.01667    0.00587    0.00685    0.00329
C12   1    0.381416    0.817613    0.841460    11.00000    0.02349    0.02135 =
         0.01670    0.00317    0.00578    0.00088
C13   1   -0.027658    0.718143    1.099628    11.00000    0.02054    0.02557 =
         0.02032    0.00337    0.00724    0.00005
AFIX  43
H13   2   -0.105359    0.681477    1.001523    11.00000   -1.20000
AFIX   0
C14   1    0.031401    0.748698    0.778557    11.00000    0.01865    0.02239 =
         0.01352    0.00516    0.00788    0.00283
C15   1    0.221503    0.800984    0.904143    11.00000    0.02033    0.01663 =
         0.01529    0.00260    0.00713    0.00364
AFIX  13
H15   2    0.211813    0.897925    0.954803    11.00000   -1.20000
AFIX   0
HKLF 4

REM  CF solution in P-1
REM R1 =  0.0487 for    2054 Fo > 4sig(Fo)  and  0.0766 for all    2934 data
REM    182 parameters refined using      0 restraints

END

WGHT      0.0321      0.0350

REM Highest difference peak  0.292,  deepest hole -0.321,  1-sigma level  0.058
Q1    1   0.2996  0.7902  0.8811  11.00000  0.05    0.29
Q2    1   0.4977  0.9166  1.0160  11.00000  0.05    0.28
Q3    1   0.1045  0.7973  1.3684  11.00000  0.05    0.25
Q4    1   0.2240  0.8530  1.3189  11.00000  0.05    0.24
Q5    1  -0.0470  0.7150  1.2833  11.00000  0.05    0.23
Q6    1   0.0461  0.6910  0.7265  11.00000  0.05    0.23
Q7    1   0.1361  0.7806  0.8387  11.00000  0.05    0.23
Q8    1   0.2181  0.9840  0.9851  11.00000  0.05    0.22
Q9    1   0.2185  0.7688  1.0801  11.00000  0.05    0.22
Q10   1  -0.2720  0.7328  0.5607  11.00000  0.05    0.22
Q11   1   0.5517  0.9645  0.7938  11.00000  0.05    0.21
Q12   1   0.1981  0.6929  1.0832  11.00000  0.05    0.21
Q13   1   0.3634  0.5155  0.9391  11.00000  0.05    0.20
Q14   1  -0.2930  0.7188  0.6326  11.00000  0.05    0.20
Q15   1   0.2766  0.9844  0.8425  11.00000  0.05    0.20
Q16   1   0.2201  0.7630  1.3248  11.00000  0.05    0.20
Q17   1   0.0283  0.5964  0.6836  11.00000  0.05    0.20
Q18   1   0.3309  0.8134  1.3018  11.00000  0.05    0.19
Q19   1  -0.2318  0.6377  0.5434  11.00000  0.05    0.19
Q20   1   0.3635  0.6199  0.7815  11.00000  0.05    0.19
Q21   1   0.4080  0.5668  0.9459  11.00000  0.05    0.19
Q22   1  -0.0565  0.7310  1.1638  11.00000  0.05    0.19
Q23   1   0.3353  0.7018  1.0552  11.00000  0.05    0.19
Q24   1   0.2252  0.8188  1.1986  11.00000  0.05    0.18
Q25   1  -0.3020  1.0023  0.7259  11.00000  0.05    0.18
;
_shelx_res_checksum              66976
_shelx_hkl_file
;
   0   0   2 33131.4 1098.37   1
   0   0   3 2823.60 414.206   1
   0   0   4 14855.4 1053.51   1
   0   0   5 3959.86 616.808   1
   0   0   6 24914.8 1689.00   1
   0   0   7 2023.40 525.713   1
   0   0   8 20752.1 1809.84   1
   0   0   9 456.944 321.393   1
   0   0  10 281.260 258.731   1
   0   0  11 540.026 394.245   1
   0   0  12 365.004 409.775   1
   0  -1  12 1248.03 622.414   1
   0  -1  11 9237.60 1461.58   1
   0  -1  10 5724.54 1080.94   1
   0  -1   9 1941.32 627.944   1
   0  -1   8 1500.20 504.042   1
   0  -1   7 33875.3 2106.14   1
   0  -1   6 1368.31 401.281   1
   0  -1   5 77239.0 2605.96   1
   0  -1   4 236.279 162.303   1
   0  -1   3 14939.3 881.989   1
   0  -1   2 34106.7 1088.99   1
   0  -1  -1 38489.0 978.148   4
   0  -1  -2 26947.3 1046.66   4
   0  -1  -3 36221.7 1438.18   4
   0  -1  -4 5351.01 648.520   4
   0   1   5 26891.1 1670.02   1
   0   1   6 6071.42 873.697   1
   0   1   7 5927.44 927.364   1
   0   1   8 1101.42 463.685   1
   0   1   9 3788.86 862.117   1
   0   1  10-433.768 370.735   1
   0   1  11 7088.80 1331.63   1
   0   1  12 3265.50 940.135   1
   0  -2  12 1465.26 644.171   1
   0  -2  11 3199.41 838.863   1
   0  -2  10 415.422 345.130   1
   0  -2   9 7168.95 1122.68   1
   0  -2   8 959.819 409.022   1
   0  -2   7 3154.90 644.699   1
   0  -2   6 20800.7 1489.47   1
   0   2  -6 19748.9 1523.60   1
   0  -2   5 601.671 256.432   1
   0  -2   4 5773.08 655.089   1
   0  -2   3 2260.95 363.133   1
   0  -2   2 356276. 3813.00   1
   0  -2   1 1780.47 247.175   1
   0   2   0 360743. 1648.21   3
   0  -2   0 354802. 3245.49   4
   0  -2  -1 30883.3 1094.48   4
   0  -2  -2 78664.3 1991.14   4
   0  -2  -3 14695.4 984.748   4
   0  -2  -4 12360.2 1010.18   4
   0  -2  -5 6921.75 848.721   4
   0  -2  -6 4042.75 710.252   4
   0   2   7 966.042 437.102   1
   0   2   8 2371.29 678.884   1
   0   2   9 3125.01 814.763   1
   0   2  10 649.210 407.107   1
   0   2  11 1042.82 525.194   1
   0  -3  12 426.691 376.866   1
   0  -3  11 543.239 391.740   1
   0  -3  10 331.859 296.007   1
   0  -3   9 5676.77 1002.88   1
   0  -3   8-149.029 202.891   1
   0  -3   7 1679.70 493.945   1
   0  -3   6 2006.38 491.356   1
   0  -3   5 16403.5 1223.18   1
   0  -3   4 101620. 2770.80   1
   0  -3   3 4857.76 563.902   1
   0  -3   2 9.46495 100.110   1
   0   3  -1 67462.3 1133.78   3
   0  -3   1 62994.6 1689.94   1
   0   3  -1 63368.8 1505.75   2
   0  -3   0 77251.8 1912.46   4
   0   3   0 80499.5 972.212   3
   0  -3  -1 34977.2 1354.89   4
   0  -3  -2 2421.33 404.495   4
   0  -3  -3 430.567 211.773   4
   0  -3  -4 31967.3 1716.39   4
   0  -3  -5 925.508 341.585   4
   0  -3  -6 663.253 315.786   4
   0  -3  -7 116.213 170.039   4
   0   3   8 1171.81 506.394   1
   0   3   9 14741.7 1803.72   1
   0   3  10-87.0560 193.763   1
   0   3  11 45.6501 298.505   1
   0  -4  12 2051.01 704.835   1
   0  -4  11 965.136 485.724   1
   0  -4  10 2122.89 682.432   1
   0  -4   9 22092.3 1961.97   1
   0  -4   8-13.1944 162.259   1
   0  -4   7 7024.80 974.895   1
   0  -4   6 590.958 290.217   1
   0  -4   5 2260.86 484.011   1
   0  -4   4 57324.6 2206.40   1
   0  -4   3 181038. 3639.34   1
   0   4  -2 74392.3 1906.06   2
   0  -4   2 80534.5 2316.45   1
   0   4  -1 37756.3 1329.20   2
   0  -4   1 38288.0 1506.79   1
   0  -4   1 34247.7 759.537   6
   0   4  -1 38132.9 935.268   3
   0  -4   0 163.642 124.192   4
   0  -4   0 62.8596 93.3009   2
   0   4   0 131.074 114.328   2
   0  -4  -1 2162.90 392.654   4
   0  -4  -2 1568.62 365.478   4
   0  -4  -3 658.010 283.391   4
   0  -4  -4 3460.57 606.919   4
   0  -4  -5 3781.35 681.841   4
   0  -4  -6 68.4584 136.417   4
   0  -4  -6-54.1390 56.2232   3
   0  -4  -7 397.507 276.911   4
   0  -4  -7 507.587 168.342   3
   0  -4  -8 6912.18 1161.75   4
   0   4   9-10.4949 201.552   1
   0   4  10 198.433 319.476   1
   0   4  11 9.73734 120.584   1
   0  -5  12 2502.84 786.195   1
   0  -5  11 3748.60 950.329   1
   0  -5  10 7141.62 1205.32   1
   0  -5   9 15233.9 1667.52   1
   0  -5   8 3798.64 787.005   1
   0  -5   7 468.791 277.284   1
   0  -5   6 44835.6 2365.19   1
   0  -5   5 402.428 268.732   1
   0  -5   4 50966.2 2212.91   1
   0  -5   3 855.487 297.343   1
   0   5  -3 976.305 210.499   3
   0   5  -3 991.392 263.271   2
   0   5  -2 34874.3 1423.43   2
   0   5  -2 31650.1 1064.63   3
   0  -5   2 30836.6 951.979   6
   0  -5   2 34679.8 1643.87   1
   0  -5   1 45461.1 1826.36   1
   0   5  -1 42138.3 1562.74   2
   0   5  -1 42416.4 1062.99   3
   0  -5   0 1623.60 370.093   4
   0  -5   0 1618.32 346.244   2
   0   5   0 1597.69 328.570   2
   0  -5  -1 930.498 277.914   4
   0   5   1 537.287 119.068   6
   0  -5  -2 42090.3 1990.32   4
   0  -5  -3 29601.6 1766.55   4
   0  -5  -4 3294.41 639.379   4
   0  -5  -4 2980.12 185.220   3
   0  -5  -5 69.0569 46.7608   3
   0  -5  -5 88.4458 176.141   4
   0  -5  -6 74.6305 182.088   4
   0   5   6 115.196 46.7745   5
   0  -5  -6 130.186 73.2006   3
   0  -5  -7 4461.25 896.070   4
   0  -5  -8 187.340 222.974   4
   0   5   9 265.634 351.473   1
   0  -5  -9-197.099 291.669   4
   0   5  10 905.323 509.079   1
   0  -6  12 406.025 388.345   1
   0  -6  11 15494.4 1912.10   1
   0  -6  10 557.188 369.892   1
   0  -6   9 11062.6 1449.11   1
   0  -6   8 3197.90 756.295   1
   0  -6   7-28.0360 182.008   1
   0  -6   6 7833.41 1050.94   1
   0  -6   5 38284.2 2179.79   1
   0  -6   4 12426.7 1181.73   1
   0   6  -4 11066.7 912.482   2
   0   6  -4 11890.8 837.871   3
   0  -6   3 33180.8 1827.68   1
   0   6  -3 30992.2 1231.50   3
   0   6  -3 31515.7 1491.65   2
   0   6  -2 52362.2 1434.41   3
   0   6  -2 54209.1 1929.38   2
   0  -6   2 53445.3 2230.92   1
   0  -6   2 49846.5 1220.69   6
   0  -6   1 3302.48 572.111   4
   0   6  -1 3053.67 470.016   2
   0   6  -1 3326.00 324.690   3
   0  -6   0 1316.67 359.140   2
   0   6   0 1801.34 383.779   2
   0   6   0 975.868 319.983   1
   0   6   1 1842.57 177.791   6
   0  -6  -1 2587.60 521.805   4
   0   6   1 2145.14 449.724   1
   0  -6  -1 2051.35 445.871   2
   0  -6  -2 935.245 337.632   4
   0   6   2 1154.12 223.264   6
   0  -6  -3 2053.19 521.138   4
   0  -6  -4 223.280 211.985   4
   0  -6  -5 3564.36 727.956   4
   0  -6  -6 3561.19 805.586   4
   0  -6  -7-93.5997 186.063   4
   0  -6  -8 1716.49 627.189   4
   0  -6  -9 3173.98 885.372   4
   0  -7  11 6942.17 1317.03   1
   0  -7  10 51.2080 190.794   1
   0  -7   9 644.189 336.484   1
   0  -7   8 152.204 210.659   1
   0  -7   7 4209.59 850.977   1
   0  -7   6 1377.40 457.784   1
   0   7  -5 945.758 299.317   2
   0  -7   5 1313.76 462.612   1
   0   7  -4 1554.64 365.685   2
   0  -7   4 1892.64 501.397   1
   0   7  -4 1654.54 323.815   3
   0  -7   3 1931.99 483.442   1
   0  -7   3 1733.13 276.703   6
   0   7  -3 1506.52 347.161   2
   0   7  -3 1432.53 275.252   3
   0  -7   2 14608.7 1272.27   1
   0   7  -2 15735.2 827.034   3
   0   7  -2 15158.6 1100.16   2
   0   7  -1 7550.17 786.625   2
   0  -7   1 7808.10 958.444   4
   0  -7   0 4714.20 775.572   4
   0  -7  -1 3552.47 662.513   4
   0  -7  -2 40.1779 116.775   4
   0   7   2 161.797 81.2131   6
   0   7   3-67.0390 84.8834   6
   0  -7  -3 69.7543 174.894   4
   0  -7  -4 2931.96 666.247   4
   0  -7  -5-305.425 283.363   4
   0  -7  -6 263.917 264.941   4
   0  -7  -7 600.980 399.419   4
   0  -7  -8 302.012 314.567   4
   0  -8  11 5267.37 1172.35   1
   0  -8  10 15.4910 221.238   1
   0  -8   9 1391.69 560.018   1
   0  -8   8 647.226 394.078   1
   0  -8   7 106.200 156.994   1
   0   8  -7 153.559 175.795   2
   0  -8   6-118.816 177.866   1
   0   8  -6 234.554 197.715   2
   0  -8   5 37.5959 104.719   6
   0  -8   5 177.502 202.083   1
   0   8  -5 184.747 172.672   2
   0   8  -4 13090.4 1094.45   2
   0  -8   4 14107.2 1428.36   1
   0  -8   4 12850.1 861.077   6
   0  -8   3 10169.8 1178.70   1
   0  -8   3 7850.38 569.772   6
   0   8  -3 9080.37 905.516   2
   0   8  -3 9121.25 727.575   3
   0   8  -2 4465.27 646.038   2
   0  -8   2 3444.90 696.528   4
   0   8  -2 3977.75 449.743   3
   0  -8   1 10635.5 1218.95   4
   0   8  -1 9764.44 970.234   2
   0  -8   0 7573.94 1035.70   4
   0  -8  -1 1319.26 440.906   4
   0  -8  -2 1052.42 423.976   4
   0  -8  -3 2883.87 690.390   4
   0   8   3 2704.38 350.309   6
   0  -8  -4 59.5282 162.751   4
   0   8   4 70.3282 80.5945   6
   0  -8  -5 256.659 240.760   4
   0  -8  -6 5655.45 1081.11   4
   0  -8  -7 264.981 270.827   4
   0  -9  10 1490.77 692.839   1
   0  -9   9-53.3089 200.427   1
   0   9  -8 548.716 267.048   2
   0  -9   8 787.419 450.981   1
   0  -9   7 4151.46 906.933   1
   0   9  -7 3511.76 642.449   2
   0   9  -6 110.094 150.087   2
   0  -9   6 816.331 442.219   1
   0   9  -5 1531.03 398.930   2
   0  -9   5 1390.37 488.372   1
   0  -9   4 36.4783 56.3186   6
   0   9  -4 181.806 148.068   2
   0  -9   3 1102.12 152.011   6
   0  -9   3 1129.14 407.107   4
   0  -9   3 1555.72 530.739   1
   0   9  -3 1105.14 344.673   2
   0   9  -3 1071.60 251.548   3
   0   9  -2 2150.44 486.422   2
   0  -9   2 1818.98 558.075   4
   0  -9   1 19640.0 1773.85   4
   0  -9   0 7098.75 1091.10   4
   0  -9   0 6370.22 434.083   5
   0  -9  -1 87.9055 158.376   4
   0  -9  -2 4476.44 889.637   4
   0  -9  -3 2238.32 633.728   4
   0  -9  -4 5077.31 1042.08   4
   0  -9  -5 2959.89 828.815   4
   0  -9  -6 2211.06 749.802   4
   0 -10   9 104.025 288.609   1
   0 -10   8 2437.02 777.867   1
   0 -10   7 219.916 218.147   1
   0  10  -7-140.297 132.865   2
   0 -10   6 484.347 343.843   1
   0  10  -6 1344.04 401.558   2
   0 -10   5 1432.60 530.826   1
   0  10  -5 1274.04 363.239   2
   0  10  -4 870.268 322.869   2
   0 -10   4 629.187 353.136   1
   0  10  -3 38424.8 2087.25   2
   0 -10   3 40437.0 2744.11   4
   0 -10   2-16.3504 202.228   4
   0 -10   1 166.055 258.566   4
   0 -10   0 524.467 339.019   4
   0 -10  -1-38.2394 110.999   4
   0 -10  -2 478.996 383.638   4
   0 -10  -3-263.107 279.004   4
   0 -10  -4-61.6993 283.713   4
   0 -10  -5 657.833 436.090   4
   0 -11   8 2164.52 757.502   1
   0 -11   7 516.672 353.203   1
   0  11  -6 112.860 124.756   2
   0 -11   6 191.999 290.901   1
   0 -11   5 3987.71 922.478   1
   0  11  -5 3380.54 665.830   2
   0  11  -4 4505.09 760.143   2
   0 -11   4 6007.31 1145.72   4
   0 -11   3 1883.05 650.703   4
   0 -11   2 37.3492 175.420   4
   0 -11   1-27.9014 200.797   4
   0 -11   0 6378.45 1167.75   4
   0 -11  -1 286.041 274.671   4
   0 -11  -2 498.588 341.595   4
   0 -11  -3 1503.03 614.891   4
   0 -11  -4 1509.08 649.848   4
   0 -12   7 311.022 318.394   1
   0 -12   6 78.8586 200.629   1
   0 -12   5 74.7395 225.684   4
   0  12  -5-117.221 180.808   2
   0 -12   4 1174.72 590.466   4
   0 -12   3-533.912 444.712   4
   0 -12   2 2338.78 785.031   4
   0 -12   1 4898.42 1106.90   4
   0 -12   0 186.854 226.674   4
   0 -12  -1 109.042 264.714   4
   0 -12  -2 1838.92 698.128   4
  -1  13  -4 3204.45 764.788   2
  -1  13  -5 565.185 328.541   2
   1 -12  -2 438.136 354.487   4
   1 -12  -1-544.578 485.139   4
   1 -12   0 3035.94 853.566   4
   1 -12   1 1364.24 580.257   4
   1 -12   2 128.476 364.939   4
  -1  12  -2 171.768 184.115   2
  -1  12  -3 392.456 277.324   2
   1 -12   3 1712.76 686.155   4
  -1  12  -4 740.228 337.946   2
   1 -12   4 1142.31 530.703   4
  -1  12  -5 8731.59 1162.85   2
   1 -12   5 12192.4 1774.26   4
  -1  12  -6 2417.62 640.614   2
   1 -12   6 3251.92 944.610   1
   1 -11  -4 5562.59 1133.23   4
   1 -11  -3-28.7317 215.574   4
   1 -11  -2 1816.96 637.613   4
   1 -11  -1-24.1342 132.977   4
   1 -11   0 2478.15 735.642   4
   1 -11   1 415.975 371.709   4
  -1  11  -2 2330.22 602.825   2
   1 -11   2 1818.90 641.204   4
  -1  11  -3 225.133 190.854   2
   1 -11   3 38.1791 209.843   4
  -1  11  -4 2413.56 588.896   2
   1 -11   4 2116.30 689.085   4
   1 -11   5 911.139 466.361   1
  -1  11  -5 653.315 327.150   2
   1 -11   6 1106.58 548.722   1
  -1  11  -6 77.7199 179.735   2
  -1  11  -7 1049.71 460.002   2
   1 -11   7 817.047 495.088   1
   1 -11   8 380.332 381.455   1
   1 -10  -5-74.7797 173.926   4
   1 -10  -4 179.148 212.500   4
   1 -10  -3 318.694 285.595   4
   1 -10  -2 1371.66 552.326   4
   1 -10  -1 445.153 311.101   4
   1 -10   0 4435.44 926.990   4
   1 -10   0 3664.56 420.307   5
  -1  10  -1 5303.21 858.678   2
   1 -10   1 5311.30 1005.37   4
   1 -10   2 13696.7 1619.39   4
  -1  10  -2 13548.7 1331.93   2
   1 -10   3 5304.38 1011.98   4
  -1  10  -3 4642.92 781.457   2
   1 -10   4 13804.0 1613.77   1
  -1  10  -4 14949.4 1410.28   2
  -1  10  -5 1037.52 379.581   2
   1 -10   5 589.392 378.344   1
   1 -10   6 1007.45 474.934   1
  -1  10  -6 247.204 254.761   2
  -1  10  -7 1920.55 526.781   2
   1 -10   7 1737.10 638.399   1
   1 -10   8 1321.23 586.414   1
  -1  10  -8 1046.79 429.230   2
   1 -10   9 103.512 234.073   1
   1  -9  -7 787.583 448.529   4
   1  -9  -6 2796.78 798.886   4
   1  -9  -5 1691.39 600.772   4
   1  -9  -4 6967.88 1163.75   4
   1  -9  -3 3312.44 792.387   4
   1  -9  -2 253.219 250.809   4
   1  -9  -1-189.144 228.428   4
   1  -9   0 2531.42 636.505   4
  -1   9   0 1976.11 501.207   2
   1  -9   0 1995.02 313.636   5
   1  -9   1 9420.43 1214.72   4
  -1   9  -1 8209.23 568.055   3
  -1   9  -1 8507.29 1011.51   2
   1  -9   2 44.0257 170.876   4
  -1   9  -2 229.691 138.085   3
  -1   9  -2-158.880 182.616   2
  -1   9  -3 1299.05 391.620   2
  -1   9  -3 1371.66 295.286   3
   1  -9   3 1070.39 447.768   1
  -1   9  -4 17944.8 1477.86   2
   1  -9   4 17549.3 1697.89   1
   1  -9   4 12722.3 803.173   6
   1  -9   5 1471.54 523.205   1
  -1   9  -5 1054.77 380.720   2
  -1   9  -6 211.185 199.203   2
   1  -9   6 116.356 211.771   1
   1  -9   7 5970.14 1112.67   1
  -1   9  -7 4739.39 809.960   2
   1  -9   8 71.6604 181.789   1
   1  -9   9 5105.17 1100.65   1
   1  -9  10-2.84239 67.9700   1
   1  -8  -8 437.945 394.704   4
   1  -8  -7 924.801 444.292   4
   1  -8  -6 5118.04 1039.66   4
   1  -8  -5 5277.29 1002.01   4
   1  -8  -4 3791.12 841.148   4
   1  -8  -3 1839.70 566.617   4
   1  -8  -2 615.599 371.825   4
   1  -8  -1 4592.75 832.529   4
  -1   8   1 3630.39 652.885   2
  -1   8   0 1941.42 472.048   2
   1  -8   0 1721.04 522.049   4
  -1   8  -1 618.219 151.752   3
   1  -8   1 509.760 301.423   4
  -1   8  -1 938.198 325.349   2
  -1   8  -2 138013. 2595.01   3
  -1   8  -2 141832. 3897.69   2
  -1   8  -3 30079.4 1336.63   3
   1  -8   3 28079.4 1007.58   6
  -1   8  -3 28483.1 1762.61   2
   1  -8   3 30677.6 2052.06   1
   1  -8   4 442.476 276.969   1
  -1   8  -4 372.292 239.005   2
   1  -8   5 4480.05 850.248   1
  -1   8  -5 4923.72 777.238   2
   1  -8   6 281.306 279.454   1
   1  -8   7-48.3660 191.893   1
   1  -8   8 665.064 376.322   1
   1  -8   9 393.278 392.522   1
   1  -8  10 1676.52 650.268   1
   1  -7  -9 1034.83 583.136   4
   1  -7  -8 1562.17 599.544   4
   1  -7  -7 2591.28 735.057   4
   1  -7  -6 2786.38 744.899   4
   1  -7  -5 2148.93 600.091   4
   1  -7  -4 1207.47 427.053   4
  -1   7   3 33.0466 51.0603   6
   1  -7  -3-188.749 216.461   4
   1  -7  -2 203.320 226.925   4
   1  -7  -1 98.6381 191.007   4
  -1   7   1 360.688 184.490   2
   1  -7  -1 402.008 114.507   5
   1  -7   0 243.470 235.715   4
  -1   7   0 77.1417 48.0148   3
  -1   7   0 269.026 171.259   2
   1  -7   1 10354.4 1103.79   4
  -1   7  -1 9549.24 573.038   3
  -1   7  -1 9059.10 927.617   2
  -1   7  -2 1163.09 340.659   2
   1  -7   2 595.883 112.391   6
   1  -7   2 1262.21 399.465   1
  -1   7  -3 686.510 270.249   2
   1  -7   3 536.962 275.134   1
  -1   7  -4 95.1229 135.851   2
   1  -7   4 452.633 248.292   1
   1  -7   5 224.117 179.789   1
   1  -7   6 7019.66 1050.36   1
   1  -7   7 666.468 369.205   1
   1  -7   8 175.571 148.452   1
   1  -7   9 1579.46 614.688   1
   1  -7  10 1318.22 567.119   1
   1  -7  11 194.638 224.137   1
  -1   6  10 2083.71 896.262   1
   1  -6  -9 979.456 539.404   4
   1  -6  -8 1087.49 484.026   4
   1  -6  -7 1059.84 471.961   4
   1  -6  -6 3120.11 726.762   4
   1  -6  -5-183.680 217.581   4
   1  -6  -4 5313.92 841.975   4
   1  -6  -3-28.5519 122.892   4
   1  -6  -2 7263.83 890.303   4
  -1   6   2 5199.18 278.859   6
   1  -6  -1 1501.23 385.980   4
  -1   6   1 1996.92 429.174   2
   1  -6  -1 2205.52 485.271   2
   1  -6  -1 2213.83 253.159   5
   1  -6   0 10456.7 1033.47   4
  -1   6   0 11336.7 487.289   3
  -1   6   0 11763.4 984.578   2
  -1   6  -1 15970.9 1154.43   2
   1  -6   2 11476.7 1046.45   1
  -1   6  -2 11607.1 1000.65   2
   1  -6   3 5815.07 782.231   1
   1  -6   4 12977.2 1215.81   1
   1  -6   5 2797.80 610.835   1
   1  -6   6 389.330 244.063   1
   1  -6   7 560.446 326.659   1
   1  -6   8 21582.5 1946.55   1
   1  -6   9 1402.64 561.457   1
   1  -6  10 1250.36 530.654   1
   1  -6  11 21.3532 252.281   1
  -1   5  10 56.5337 236.565   1
   1  -5  -9 134.633 232.517   4
   1  -5  -8 296.722 264.625   4
   1  -5  -7 14768.8 1583.85   4
   1  -5  -6 1513.64 492.487   4
  -1   5   5 10475.0 442.319   5
   1  -5  -5 11229.6 1221.58   4
   1  -5  -4-185.289 202.245   4
   1  -5  -3 17679.6 1355.50   4
  -1   5   2 69844.6 2311.21   2
   1  -5  -2 64330.9 2411.59   4
   1  -5  -1 1378.20 196.991   5
  -1   5   1 1839.93 365.736   2
   1  -5  -1 1108.18 322.902   4
   1  -5   0 1329.37 340.658   4
  -1   5   0 1262.75 307.224   2
   1  -5   1 60641.1 2143.14   1
  -1   5  -1 60858.8 2103.35   2
   1  -5   2 4042.33 591.134   1
   1  -5   3 119240. 3261.42   1
  -1   5  -4-166.160 151.630   1
   1  -5   4-81.6978 134.654   1
   1  -5   5 138.644 164.485   1
   1  -5   6 4730.67 788.189   1
   1  -5   7 2748.63 644.786   1
   1  -5   8-78.9184 163.244   1
   1  -5   9 1395.00 529.489   1
   1  -5  10 4357.35 959.205   1
   1  -5  11 459.557 408.227   1
   1  -5  12 118.259 204.782   1
  -1   4  11 592.006 453.815   1
  -1   4  10 7148.88 1359.55   1
   1  -4  -9 2779.16 791.423   4
  -1   4   9 3517.05 953.406   1
   1  -4  -8 2083.50 667.402   4
   1  -4  -7 20146.0 1781.26   4
   1  -4  -7 17991.3 911.328   3
   1  -4  -6 6222.38 470.629   3
   1  -4  -6 4788.65 826.524   4
   1  -4  -5-65.2333 40.3991   3
   1  -4  -5-256.655 204.956   4
   1  -4  -4 4003.34 634.455   4
  -1   4   3 41663.3 870.996   5
   1  -4  -3 41326.8 1888.62   4
  -1   4   2 63697.3 2007.78   2
   1  -4  -2 62406.6 2164.01   4
  -1   4   1 92180.9 2371.70   2
   1  -4  -1 91756.4 2478.90   4
   1  -4  -1 90362.3 1457.53   5
   1  -4   0 22831.6 1195.02   4
  -1   4   0 22559.2 1168.54   2
   1  -4   1 97.0690 119.606   1
  -1   4  -1 453.337 194.502   2
   1  -4   2 3232.83 474.016   1
   1  -4   3-0.83059 127.660   1
   1  -4   4 7546.26 824.256   1
  -1   4  -4 7594.71 829.633   1
  -1   4  -5 2382.52 521.877   1
   1  -4   5 2107.03 472.376   1
   1  -4   6 34792.1 2036.50   1
   1  -4   7 7027.92 990.251   1
   1  -4   8 5097.58 907.971   1
   1  -4   9 202.706 231.076   1
   1  -4  10 556.496 365.016   1
   1  -4  11 461.919 395.491   1
   1  -4  12 1269.40 584.345   1
  -1   3  11 3277.83 954.372   1
  -1   3  10 1122.44 574.305   1
  -1   3   9 3886.43 902.878   1
   1  -3  -8 22660.1 1203.61   3
   1  -3  -8 22956.9 1991.29   4
   1  -3  -7 39059.5 2392.05   4
   1  -3  -7 37273.6 1405.41   3
   1  -3  -6 4925.89 458.114   3
   1  -3  -6 5184.33 807.462   4
   1  -3  -5 4501.64 675.528   4
   1  -3  -5 3874.49 349.673   3
  -1   3   5 4357.29 686.882   4
   1  -3  -5 4541.47 612.175   2
   1  -3  -4 38088.9 1815.55   4
   1  -3  -4 37587.3 921.975   3
   1  -3  -3 2275.39 407.258   4
  -1   3   2 67565.6 1144.90   5
  -1   3   2 67452.7 1869.42   2
   1  -3  -2 68571.8 2039.85   4
  -1   3   1 12133.3 770.781   2
   1  -3  -1 11909.9 496.916   5
  -1   3   1 11975.7 411.433   6
   1  -3  -1 13098.2 813.967   4
  -1   3   0 2728.11 375.616   2
   1  -3   1 288807. 3691.69   1
   1  -3   2 132.794 120.330   1
   1  -3   3 1606.87 337.023   1
   1  -3   4 13976.9 1053.70   1
  -1   3  -4 14480.0 1093.35   1
   1  -3   5 41815.4 1987.96   1
  -1   3  -5 44052.1 2115.49   1
   1  -3   6 1143.37 367.852   1
   1  -3   7 1474.18 474.553   1
   1  -3   8-90.1738 175.901   1
   1  -3   9 2735.42 725.745   1
   1  -3  10 28.6620 223.787   1
   1  -3  11 69.9888 207.385   1
   1  -3  12 463.224 403.890   1
  -1   2  12-237.953 303.675   1
  -1   2  11 276.511 324.110   1
  -1   2  10-276.010 304.912   1
  -1   2   9 13093.4 1643.65   1
  -1   2   8 213.082 241.551   1
   1  -2  -8 102.864 101.334   3
   1  -2  -7 9068.49 725.901   3
   1  -2  -7 9626.87 1162.30   4
   1  -2  -6 13027.6 1229.93   4
   1  -2  -6 11471.4 737.843   3
   1  -2  -5 1.02032 135.258   4
   1  -2  -5-7.59528 41.3090   3
   1  -2  -4 28759.8 1473.03   4
   1  -2  -4 27047.8 850.909   3
   1  -2  -4 29732.8 1316.79   2
   1  -2  -3 134324. 1601.76   3
   1  -2  -3 138436. 2872.62   4
  -1   2   2 66071.8 1603.17   2
  -1   2   2 67449.2 840.164   3
   1  -2  -2 67741.1 1780.64   4
  -1   2   1 38781.2 781.400   6
  -1   2   1 38827.0 1179.57   2
   1  -2  -1 36371.9 1131.57   4
  -1   2   1 37634.7 846.968   5
   1  -2   0 114307. 1338.08   6
   1  -2   1 5321.14 433.801   1
   1  -2   2 3167.39 379.970   1
  -1   2  -3 6396.26 621.969   1
   1  -2   3 6743.68 626.295   1
   1  -2   4 20261.1 1230.89   1
  -1   2  -4 22853.9 1341.36   1
  -1   2  -5 2382.91 495.953   1
   1  -2   5 1497.11 378.142   1
   1  -2   6 727.426 292.258   1
   1  -2   7 117.011 154.976   1
   1  -2   8 217.380 210.246   1
   1  -2   9 1215.27 444.114   1
   1  -2  10 5073.11 1036.19   1
   1  -2  11 1371.45 652.831   1
   1  -2  12 1428.11 682.981   1
  -1   1  12 1199.15 622.152   1
  -1   1  11 42.3477 263.272   1
  -1   1  10 11325.3 1562.98   1
  -1   1   9 3826.00 864.230   1
  -1   1   8 394.170 289.075   1
  -1   1   7 4257.76 797.705   1
   1  -1  -7 4760.42 545.857   3
  -1   1   6 15983.3 1276.80   4
   1  -1  -6 16102.6 914.681   3
  -1   1   6 16068.7 1402.54   1
   1  -1  -5 487.721 241.277   4
   1  -1  -5 308.954 121.503   3
   1  -1  -4 1601.59 225.154   3
   1  -1  -4 1874.53 374.291   4
   1  -1  -3 157.111 108.231   4
   1  -1  -3 216.345 79.0274   3
  -1   1   2 12284.8 569.291   2
   1  -1  -2 12112.7 649.324   4
  -1   1   2 11772.1 418.834   3
   1  -1  -1 26774.4 695.830   6
   1  -1  -1 26107.1 743.050   4
  -1   1   1 26478.3 794.502   2
   1  -1   0 99460.1 1411.86   5
   1  -1   0 105780. 1405.03   6
   1  -1   1 111979. 1615.39   1
   1  -1   2 14475.7 744.174   1
  -1   1  -2 15247.3 777.532   1
   1  -1   3 19660.8 1039.60   1
  -1   1  -3 21595.9 1120.89   1
  -1   1  -4 27464.9 1468.80   1
   1  -1   4 26166.0 1387.04   1
   1  -1   5 3180.04 542.346   1
   1  -1   6 3132.80 601.713   1
   1  -1   7 555.377 301.242   1
   1  -1   8-222.711 229.361   1
   1  -1   9 58.8438 179.999   1
   1  -1  10 3899.01 876.277   1
   1  -1  11 3692.97 947.161   1
   1  -1  12 57.9889 209.277   1
  -1   0  12 85.9174 241.879   1
  -1   0  11 10488.0 1561.44   1
  -1   0  10 8265.88 1311.17   1
  -1   0   9 5500.05 996.040   1
  -1   0   8 12030.9 1381.09   1
  -1   0   7 60.3779 165.319   1
   1   0  -7 43.9386 126.369   3
  -1   0   6 1416.85 426.386   1
   1   0  -6 1649.03 303.659   3
  -1   0   6 1618.08 406.383   4
   1   0  -5 2945.46 366.824   3
  -1   0   5 2507.51 491.267   1
  -1   0   4 7390.61 735.305   1
   1   0  -4 7398.71 509.203   3
   1   0  -3 150160. 1977.82   3
  -1   0   3 151534. 2827.04   1
   1   0  -2 245433. 2557.91   4
   1   0  -2 252003. 2208.90   3
   1   0   1 87648.5 1325.54   1
   1   0   2 5553.21 464.301   1
   1   0   3 88610.4 2246.01   1
   1   0   4 17573.5 1168.32   1
   1   0   5 33.1458 113.654   1
   1   0   6 319.160 214.417   1
   1   0   7 6224.79 935.083   1
   1   0   8 24133.9 1966.72   1
   1   0   9-12.1210 147.500   1
   1   0  10 5272.79 1051.12   1
   1   0  11 2082.82 733.412   1
   1   0  12 1497.51 726.285   1
  -1  -1  12 719.199 441.758   1
  -1  -1  11 3836.86 917.254   1
  -1  -1  10 858.642 470.551   1
  -1  -1   9 451.186 269.816   1
  -1  -1   8 42558.1 2508.20   1
   1   1  -7 21064.1 1221.11   3
  -1  -1   7 20056.3 1586.00   1
  -1  -1   6 283.452 203.491   1
   1   1  -6 190.850 114.390   3
  -1  -1   6 253.146 153.841   4
   1   1  -5 7095.25 588.010   3
  -1  -1   5 6356.11 734.533   1
  -1  -1   5 7946.85 769.884   4
   1   1  -4 7470.98 538.139   3
  -1  -1   4 7333.63 703.599   1
   1   1  -3 80401.5 1553.41   3
  -1  -1   3 76965.6 1939.26   1
   1   1  -2 58110.7 1156.50   3
  -1  -1   2 57600.9 1347.43   1
  -1  -1   1 729.771 116.720   1
   1   1  -1 777.056 146.901   6
  -1  -1   0 82834.4 1174.56   4
   1   1   0 88466.8 1503.73   6
   1   1   1 285231. 2327.32   5
  -1  -1  -1 275917. 2919.79   4
  -1  -1  -2 26669.9 1117.47   4
  -1  -1  -3 28254.7 1358.97   4
   1   1   4 4651.61 638.250   1
   1   1   5-126.894 155.626   4
   1   1   5 270.262 190.815   1
   1   1   6 2721.15 597.755   1
   1   1   7 5892.01 950.041   1
   1   1   8 10530.8 1340.83   1
   1   1   9 8468.29 1292.19   1
   1   1  10 1782.02 662.206   1
   1   1  11 930.223 530.345   1
  -1  -2  12 6672.37 1300.60   1
  -1  -2  11 898.966 538.529   1
  -1  -2  10 668.606 401.016   1
  -1  -2   9 23263.9 1984.71   1
  -1  -2   8 47713.8 2631.49   1
  -1  -2   7 1927.39 511.963   1
   1   2  -6 33049.6 1437.74   3
  -1  -2   6 32222.9 1823.39   1
  -1  -2   5 923.750 298.417   1
   1   2  -5 1387.38 284.927   3
  -1  -2   4 9767.97 819.194   1
   1   2  -4 9274.82 629.121   3
   1   2  -3 27968.1 971.018   3
  -1  -2   3 27256.1 1183.05   1
   1   2  -2 28505.4 557.233   2
  -1  -2   2 32478.4 1021.66   6
   1   2  -2 30518.9 903.092   3
  -1  -2   2 30293.4 1078.70   1
   1   2  -1 219661. 2339.56   6
  -1  -2   1 208127. 1903.58   2
  -1  -2   1 209215. 2441.51   1
  -1  -2   1 217221. 2499.26   6
  -1  -2   0 17131.2 735.492   4
   1   2   0 16026.4 702.970   6
  -1  -2  -1 29411.0 1103.83   4
  -1  -2  -2 14467.6 899.870   4
  -1  -2  -3 7655.23 746.012   4
  -1  -2  -4 19006.9 1320.69   4
  -1  -2  -5 213.652 187.342   4
   1   2   6 2802.30 632.285   1
   1   2   7 16348.7 1618.12   1
   1   2   8 31.9349 196.659   1
   1   2   9 511.997 358.029   1
   1   2  10-91.9738 278.761   1
   1   2  11 2941.14 893.291   1
  -1  -3  12-134.381 276.668   1
  -1  -3  11 747.498 452.101   1
  -1  -3  10 2188.96 662.577   1
  -1  -3   9 137.984 238.326   1
  -1  -3   8 1709.04 517.654   1
  -1  -3   7 1631.56 466.290   1
  -1  -3   6 4328.96 684.566   1
   1   3  -6 4663.77 563.284   3
   1   3  -5 18730.2 1022.49   3
  -1  -3   5 18369.9 1274.99   1
  -1  -3   4 4492.20 574.796   1
   1   3  -4 5756.26 519.979   3
   1   3  -3 3390.55 359.594   3
  -1  -3   3 3597.17 466.195   1
   1   3  -3 3344.68 284.933   2
   1   3  -2 46923.2 1025.68   2
  -1  -3   2 46975.8 1526.47   1
   1   3  -2 48427.1 1221.29   3
  -1  -3   2 52077.4 1344.93   6
  -1  -3   1 36057.9 1239.16   1
   1   3  -1 35401.7 982.947   6
  -1  -3   1 38384.6 1096.05   2
  -1  -3   1 38742.5 1133.26   6
  -1  -3   1 37080.8 949.672   3
   1   3   0 1573.48 262.868   1
   1   3   0 1547.42 245.930   6
  -1  -3   0 1517.23 283.841   4
  -1  -3   0 1563.20 247.334   2
  -1  -3  -1 50403.4 1690.97   4
  -1  -3  -2 7526.23 717.226   4
  -1  -3  -3 25614.7 1460.66   4
   1   3   3 26910.8 795.163   5
   1   3   4 3380.68 582.359   4
  -1  -3  -4 2813.78 536.127   4
  -1  -3  -5 4224.78 719.325   4
  -1  -3  -6 22030.1 1782.20   4
   1   3   7 14048.8 1567.23   1
   1   3   8 379.509 318.438   1
   1   3   9-334.733 307.366   1
   1   3  10 134.414 185.760   1
   1   3  11 2907.30 914.820   1
  -1  -4  12-264.923 346.690   1
  -1  -4  11 6602.05 1213.01   1
  -1  -4  10 5609.10 1058.82   1
  -1  -4   9 4906.85 923.241   1
  -1  -4   8 4828.69 863.006   1
  -1  -4   7 3112.60 651.799   1
  -1  -4   6 333.127 220.728   1
   1   4  -5 199.585 122.482   3
  -1  -4   5 188.818 175.426   1
  -1  -4   4 43739.6 1891.88   1
   1   4  -4 42976.6 1468.16   3
   1   4  -3 38629.7 1133.06   2
   1   4  -3 37772.6 1252.45   3
  -1  -4   3 38212.6 1649.46   1
  -1  -4   3 37279.6 1330.39   6
  -1  -4   2 95.5952 88.4097   2
  -1  -4   2 78.7486 67.7121   6
   1   4  -2 54.9988 69.9873   2
   1   4  -2 44.6721 58.5170   3
  -1  -4   2 55.4523 118.729   1
   1   4  -1 4318.45 494.708   1
  -1  -4   1 4157.90 440.730   2
  -1  -4   1 3711.21 460.665   1
  -1  -4   1 3926.47 373.710   6
  -1  -4   1 3787.73 324.714   3
  -1  -4   1 3734.61 474.602   4
   1   4  -1 4033.59 346.921   6
   1   4   0 38909.7 1471.29   1
   1   4   0 40324.8 1205.44   6
  -1  -4   0 37132.5 1523.11   4
  -1  -4   0 38883.1 951.847   3
  -1  -4   0 39544.3 1434.18   2
   1   4   1 65278.2 1724.78   6
  -1  -4  -1 66155.6 1997.10   2
  -1  -4  -1 66620.0 2159.59   4
  -1  -4  -2 1097.77 313.106   4
  -1  -4  -3 2390.76 485.920   4
   1   4   3 2647.20 524.886   4
  -1  -4  -4 16456.9 1358.61   4
   1   4   4 15350.5 595.716   5
  -1  -4  -5 83594.9 3283.55   4
   1   4   5 82614.9 1638.89   5
  -1  -4  -6 6799.43 1031.57   4
  -1  -4  -7 21646.5 1970.32   4
   1   4   8 414.468 327.895   1
   1   4   9 1057.54 547.857   1
   1   4  10 714.222 480.293   1
  -1  -5  12 7637.41 1391.35   1
  -1  -5  11 958.152 445.101   1
  -1  -5  10 16357.8 1801.03   1
  -1  -5   9 2165.38 619.653   1
  -1  -5   8 10101.9 1259.95   1
  -1  -5   7 3608.04 710.773   1
  -1  -5   6-178.787 173.381   1
   1   5  -5 842.866 239.977   3
   1   5  -5 671.461 279.702   1
  -1  -5   5 822.406 279.151   1
   1   5  -4 9132.46 914.722   1
  -1  -5   4 8989.44 929.723   1
   1   5  -4 8733.11 628.792   2
   1   5  -4 8952.23 701.475   3
  -1  -5   3 78.2321 122.648   1
   1   5  -3 161.280 104.265   3
   1   5  -3 90.4204 80.1753   2
  -1  -5   2 74201.8 2394.85   1
  -1  -5   2 73843.2 2103.26   2
   1   5  -2 74446.4 1732.07   3
   1   5  -2 74750.8 1864.38   2
  -1  -5   2 73094.6 1772.03   6
   1   5  -1 16075.1 698.417   6
  -1  -5   1 16781.4 770.858   6
  -1  -5   1 15428.9 692.244   3
  -1  -5   1 14920.2 1082.50   4
  -1  -5   1 14573.6 961.644   2
  -1  -5   0 39112.7 1630.19   2
  -1  -5   0 37625.7 1730.67   4
   1   5   0 33365.8 1100.27   6
  -1  -5   0 37455.3 967.052   3
  -1  -5  -1 16241.5 588.647   3
  -1  -5  -1 16938.8 1215.62   4
  -1  -5  -1 17237.9 1137.66   2
   1   5   1 16185.7 882.020   6
   1   5   1 17303.3 1225.80   4
   1   5   2-22.3255 88.5687   4
  -1  -5  -2 171.568 153.993   4
  -1  -5  -2 192.337 144.648   2
  -1  -5  -3-151.546 160.780   4
  -1  -5  -4 5302.91 822.128   4
  -1  -5  -5 13449.1 1390.36   4
  -1  -5  -6 11636.6 1398.41   4
  -1  -5  -7 326.121 299.630   4
  -1  -5  -8-453.835 311.918   4
   1   5   9 177.367 252.208   1
   1   5  10 3847.63 1031.53   1
  -1  -6  12 3198.25 933.346   1
  -1  -6  11 8850.31 1441.86   1
  -1  -6  10 8.97822 79.1713   1
  -1  -6   9 1676.65 582.852   1
  -1  -6   8-66.4603 138.639   1
  -1  -6   7 117.045 150.170   1
  -1  -6   6 1784.74 474.278   1
   1   6  -6 897.282 251.689   2
  -1  -6   5 43391.4 2282.02   1
   1   6  -5 41165.5 1529.53   2
  -1  -6   4 8165.11 730.300   6
   1   6  -4 8578.66 681.226   2
  -1  -6   4 8708.02 978.636   1
   1   6  -4 8594.31 715.887   3
  -1  -6   3 414.895 238.468   1
   1   6  -3 139.030 101.569   2
  -1  -6   3 189.226 139.939   6
   1   6  -3 147.073 128.054   1
   1   6  -3 293.083 135.390   3
  -1  -6   2 1.56562 24.6834   6
   1   6  -2 38.3058 84.5969   2
  -1  -6   2-8.76847 101.642   1
   1   6  -2 103.068 98.3355   1
   1   6  -1 4852.35 663.727   1
  -1  -6   1 5049.76 641.082   2
  -1  -6   1 4980.28 693.200   4
   1   6   0 8175.95 541.172   6
   1   6   0 7505.63 818.139   1
  -1  -6   0 8878.98 932.751   4
  -1  -6   0 8539.42 860.658   2
  -1  -6  -1 13503.7 524.961   3
  -1  -6  -1 12605.4 1153.46   4
   1   6   1 11661.3 764.895   6
   1   6   1 13614.9 1134.08   1
  -1  -6  -2 652.016 107.768   3
  -1  -6  -2 670.557 290.257   4
  -1  -6  -3 11121.1 1190.70   4
  -1  -6  -4 1691.90 515.978   4
  -1  -6  -5 16478.1 1622.49   4
  -1  -6  -6 3634.12 802.409   4
  -1  -6  -7 142.061 241.539   4
  -1  -6  -8 885.791 486.904   4
   1   6   9 12.4186 137.168   1
  -1  -7  12-521.719 414.334   1
  -1  -7  11 593.949 437.225   1
  -1  -7  10 16649.9 1913.34   1
  -1  -7   9-70.5679 236.932   1
  -1  -7   8 1060.96 459.615   1
   1   7  -7 853.320 263.088   2
  -1  -7   7 814.950 355.121   1
  -1  -7   6 2025.29 552.388   1
   1   7  -6 1959.31 365.908   2
  -1  -7   5 1196.51 391.202   1
   1   7  -5 842.110 238.197   2
  -1  -7   5 1046.65 298.956   6
  -1  -7   4 1683.39 346.821   6
   1   7  -4 1689.09 338.973   3
  -1  -7   4 1699.54 479.268   1
   1   7  -4 1535.23 317.639   2
  -1  -7   3 117.873 82.7688   6
   1   7  -3 126.593 121.055   2
   1   7  -3 9.59255 23.8173   3
  -1  -7   3 290.227 205.333   1
  -1  -7   2 1203.09 231.252   6
  -1  -7   2 1525.20 426.241   1
  -1  -7   2 1746.83 458.894   4
  -1  -7   1 515.339 225.673   2
  -1  -7   1-11.2913 114.645   4
   1   7   0 1894.62 246.466   6
  -1  -7   0 2319.75 520.406   4
   1   7   1 172.925 92.8952   6
  -1  -7  -1 115.628 123.892   4
   1   7   2 20353.1 1137.68   6
  -1  -7  -2 23959.6 1799.48   4
   1   7   3 8639.67 819.979   6
  -1  -7  -3 11236.2 1295.40   4
  -1  -7  -4 783.046 381.180   4
   1   7   4 269.175 172.721   6
  -1  -7  -5 1247.49 481.615   4
  -1  -7  -6 411.884 281.703   4
  -1  -7  -7 4650.08 1060.06   4
  -1  -7  -8 594.338 407.747   4
  -1  -8  11 4971.84 1132.43   1
  -1  -8  10-213.944 264.157   1
  -1  -8   9 4307.66 960.753   1
  -1  -8   8 54.7991 144.444   1
   1   8  -8-44.4573 113.234   2
  -1  -8   7 2022.66 597.529   1
   1   8  -7 1433.33 345.634   2
  -1  -8   6 284.710 182.014   6
  -1  -8   6-93.5183 122.553   1
   1   8  -6-88.2267 118.276   2
  -1  -8   5 12778.2 1392.31   1
  -1  -8   5 11442.8 968.744   6
   1   8  -5 9934.67 856.743   2
  -1  -8   4 1123.38 279.334   6
  -1  -8   4 1927.21 532.732   1
   1   8  -4 1803.32 374.115   2
   1   8  -3 27745.7 1471.21   2
  -1  -8   3 27744.5 1922.14   1
  -1  -8   2 1757.56 498.833   4
  -1  -8   1 112.898 188.566   4
  -1  -8   0 3234.14 665.173   4
   1   8   1 1073.35 192.239   6
  -1  -8  -1 889.799 421.626   4
   1   8   2 2444.41 378.761   6
  -1  -8  -2 4067.41 791.343   4
  -1  -8  -3 724.358 331.328   4
   1   8   3 556.039 249.028   6
   1   8   4 518.667 249.220   6
  -1  -8  -4 468.377 313.395   4
  -1  -8  -5 901.341 417.912   4
  -1  -8  -6 1899.19 620.031   4
  -1  -8  -7 373.981 374.951   4
  -1  -9  10 322.014 270.891   1
  -1  -9   9 464.243 353.497   1
  -1  -9   8 1741.34 649.107   1
   1   9  -7 4621.79 620.184   2
  -1  -9   7 4968.91 983.935   1
  -1  -9   6 1570.84 540.701   1
   1   9  -6 1319.76 331.752   2
  -1  -9   5 3987.94 829.138   1
   1   9  -5 3189.05 522.765   2
  -1  -9   4 19329.2 1760.41   1
  -1  -9   4 18322.1 1129.99   6
   1   9  -4 19822.4 1311.82   2
  -1  -9   3 1172.09 231.590   6
  -1  -9   3 3167.28 733.595   4
  -1  -9   2 2016.18 587.223   4
  -1  -9   1 3715.74 757.400   4
  -1  -9   0 9837.83 1265.68   4
  -1  -9  -1 5203.84 967.175   4
  -1  -9  -2 5239.67 971.083   4
  -1  -9  -3 1787.11 587.015   4
  -1  -9  -4 496.042 325.608   4
  -1  -9  -5 3733.49 901.867   4
  -1  -9  -6 4654.03 1051.18   4
  -1 -10  10 236.553 292.585   1
  -1 -10   9 1333.87 574.365   1
  -1 -10   8 6648.07 1223.29   1
  -1 -10   7 204.748 254.317   1
   1  10  -7 460.022 216.959   2
  -1 -10   6 8724.97 1315.38   1
   1  10  -6 8765.04 899.124   2
  -1 -10   5 20749.1 1970.66   1
   1  10  -5 16887.5 1267.26   2
  -1 -10   4 2415.32 686.614   4
  -1 -10   4 4152.35 883.072   1
  -1 -10   3-242.165 269.288   4
  -1 -10   2 18.1697 213.127   4
  -1 -10   1 1268.66 566.994   4
  -1 -10   0 9804.11 1375.85   4
  -1 -10  -1 533.572 354.326   4
  -1 -10  -2 3891.60 910.395   4
  -1 -10  -3 2969.79 794.871   4
  -1 -10  -4 2190.59 708.804   4
  -1 -10  -5 2455.59 773.096   4
  -1 -11   8 423.421 444.101   1
  -1 -11   7 1266.06 588.253   1
  -1 -11   6 2909.17 791.614   1
   1  11  -6 2492.26 510.358   2
  -1 -11   5 773.661 469.819   4
  -1 -11   5 429.046 375.800   1
  -1 -11   4 1802.24 669.872   4
  -1 -11   3 7708.94 1296.86   4
  -1 -11   2 2451.32 750.722   4
  -1 -11   1 1006.38 509.604   4
  -1 -11   0 3619.02 912.049   4
  -1 -11  -1 1188.59 514.310   4
  -1 -11  -2 2822.94 817.940   4
  -1 -11  -3 1152.12 526.242   4
  -1 -12   7 550.742 392.360   1
  -1 -12   6-387.210 304.508   1
  -1 -12   6 328.478 357.736   4
  -1 -12   5 736.897 441.256   4
  -1 -12   4 883.085 476.178   4
  -1 -12   3-629.098 388.217   4
  -1 -12   2 1466.19 601.153   4
  -1 -12   1 691.524 407.693   4
  -1 -12   0 1463.65 624.682   4
  -1 -12  -1 8644.92 1478.48   4
  -2  13  -2 273.337 302.824   2
  -2  13  -3 2895.88 718.966   2
  -2  13  -4 122.531 149.020   2
  -2  13  -5 9804.62 1365.93   2
   2 -12  -2-167.259 295.973   4
   2 -12  -1 5170.11 1137.15   4
   2 -12   0-240.899 357.338   4
   2 -12   1 2644.94 833.756   4
  -2  12  -1 4111.09 874.056   2
   2 -12   2-338.379 384.882   4
  -2  12  -2 227.336 264.234   2
   2 -12   3 1200.55 585.787   4
  -2  12  -3 2114.75 617.161   2
  -2  12  -4 1662.25 517.894   2
   2 -12   4 1940.61 731.094   4
  -2  12  -5 657.426 350.218   2
  -2  12  -6 283.246 260.732   2
  -2  12  -7 450.179 314.959   2
   2 -11  -4 568.385 467.600   4
   2 -11  -3 1774.37 715.731   4
   2 -11  -2 2327.18 716.997   4
   2 -11  -1 2455.30 730.893   4
   2 -11   0 21.2023 186.454   4
  -2  11   0-386.689 271.496   2
  -2  11  -1 61.5551 129.356   2
   2 -11   1-45.5950 101.964   5
   2 -11   1-417.593 395.614   4
  -2  11  -2 558.925 317.897   2
   2 -11   2 50.3027 234.536   4
  -2  11  -3 3892.33 797.679   2
   2 -11   3 4678.82 1017.14   4
  -2  11  -4-110.028 229.695   2
   2 -11   5 813.632 422.128   1
  -2  11  -5 638.677 396.789   2
   2 -11   6 433.175 340.386   1
  -2  11  -6-193.338 186.914   2
  -2  11  -7 3016.86 754.134   2
   2 -11   7 3584.80 944.410   1
  -2  11  -8 2482.65 730.719   2
   2 -10  -6 249.783 311.835   4
   2 -10  -5-101.096 289.820   4
   2 -10  -4 7465.57 1312.16   4
   2 -10  -3 512.875 372.918   4
   2 -10  -2 419.665 314.164   4
   2 -10  -1 6947.22 1178.14   4
  -2  10   1 5460.99 925.166   2
   2 -10   0 7633.13 730.962   5
   2 -10   0 8973.39 1320.77   4
  -2  10   0 8621.37 1135.60   2
  -2  10  -1 17196.1 1594.28   2
   2 -10   1 17603.4 1831.52   4
   2 -10   1 16333.8 1199.32   5
  -2  10  -2 389.024 258.932   2
   2 -10   2-252.176 328.163   4
  -2  10  -3 619.559 327.174   2
   2 -10   4 497.150 303.632   1
  -2  10  -4 172.715 201.360   2
   2 -10   5 1513.07 545.140   1
  -2  10  -5 895.141 401.732   2
  -2  10  -6-274.862 258.647   2
   2 -10   6-152.629 275.888   1
   2 -10   7 203.816 277.098   1
  -2  10  -7-432.496 323.636   2
   2 -10   8 1362.96 623.171   1
  -2  10  -8 1266.51 521.963   2
   2 -10   9 129.395 232.638   1
   2  -9  -7 1162.56 540.292   4
   2  -9  -6 1025.21 521.148   4
   2  -9  -5 4159.02 912.633   4
   2  -9  -4 456.323 382.921   4
   2  -9  -3 768.472 423.165   4
   2  -9  -2 191.778 272.681   4
   2  -9  -1 7137.61 1101.37   4
  -2   9   1 6857.00 966.221   2
  -2   9   0 10312.5 538.030   3
  -2   9   0 11562.5 1245.59   2
   2  -9   0 10663.8 1341.16   4
   2  -9   0 11054.9 871.467   5
  -2   9  -1 11927.7 1270.49   2
  -2   9  -1 12788.4 747.296   3
   2  -9   1 13782.2 1531.45   4
  -2   9  -2 6386.57 596.054   3
   2  -9   2 5547.56 972.191   4
  -2   9  -2 5764.24 886.102   2
   2  -9   3 909.892 186.105   6
   2  -9   3 1072.80 437.407   1
  -2   9  -3 873.346 398.229   2
   2  -9   4 3577.16 800.203   1
  -2   9  -4 2464.17 618.951   2
  -2   9  -5 252.965 221.837   2
   2  -9   5 132.625 247.349   1
   2  -9   6 4906.29 976.597   1
   2  -9   7 5723.23 1127.37   1
   2  -9   8 463.335 339.906   1
   2  -9   9 3146.26 870.270   1
   2  -8  -8 2327.84 746.072   4
   2  -8  -7 98.0294 160.066   4
   2  -8  -6 16815.7 1819.82   4
   2  -8  -5 4346.18 903.330   4
   2  -8  -4 9396.93 1282.49   4
   2  -8  -3 2770.95 668.444   4
   2  -8  -2 88.9142 214.190   4
  -2   8   2 482.344 292.990   2
  -2   8   1 21140.8 1600.14   2
   2  -8  -1 22755.8 1807.58   4
   2  -8  -1 22267.0 1068.09   5
  -2   8   0 6742.66 904.045   2
  -2   8   0 7273.58 467.109   3
   2  -8   0 7092.62 1017.15   4
   2  -8   0 6297.35 645.288   5
  -2   8  -1 15749.8 1381.82   2
   2  -8   1 15090.7 1463.73   4
  -2   8  -2-1.35746 147.624   2
   2  -8   2 30.4764 47.3876   6
  -2   8  -3 1751.42 494.948   2
   2  -8   3 2239.79 575.726   1
  -2   8  -4 2182.24 552.059   2
   2  -8   4 2249.87 597.558   1
   2  -8   5 12402.2 1432.14   1
   2  -8   6 3337.99 768.697   1
   2  -8   7-226.785 275.029   1
   2  -8   8-136.997 225.552   1
   2  -8   9 1011.63 531.123   1
   2  -8  10 4584.46 1102.32   1
   2  -7  -9 585.755 426.051   4
   2  -7  -8 2.39122 216.657   4
   2  -7  -7-414.350 357.266   4
   2  -7  -6 14365.0 1610.37   4
   2  -7  -5 18069.4 1704.27   4
   2  -7  -4 1351.12 463.006   4
  -2   7   4 2158.00 311.475   6
   2  -7  -3 3601.79 719.217   4
  -2   7   3 3142.85 275.558   6
  -2   7   2 17199.0 1378.12   2
   2  -7  -2 16758.2 1457.80   4
  -2   7   1 22803.9 1575.92   2
   2  -7  -1 21178.9 1026.88   5
  -2   7   1 20520.8 589.294   3
   2  -7  -1 20740.4 1591.80   4
   2  -7   0 16599.0 1018.53   5
  -2   7   0 17029.6 1363.36   2
   2  -7   0 17306.2 1438.86   4
  -2   7  -1 102.168 185.999   2
   2  -7   1 279.006 232.327   4
   2  -7   2 960.126 370.026   1
   2  -7   2 604.046 172.983   6
  -2   7  -2 736.204 324.955   2
   2  -7   3 12492.8 1248.12   1
   2  -7   4 985.576 397.730   1
   2  -7   5 9008.17 1156.14   1
   2  -7   6-123.563 224.274   1
   2  -7   7 2082.45 645.357   1
   2  -7   8 472.393 358.298   1
   2  -7   9 1807.92 617.339   1
   2  -7  10 3490.03 935.255   1
   2  -7  11 582.927 407.600   1
   2  -6 -10 4741.01 1109.01   4
   2  -6  -9-92.6291 224.008   4
   2  -6  -8 1047.90 500.169   4
   2  -6  -7 133.398 269.624   4
   2  -6  -6 38186.7 2467.43   4
   2  -6  -5 961.846 405.534   4
   2  -6  -4 1454.63 445.168   4
  -2   6   4 1016.80 233.325   6
  -2   6   3 4307.47 664.850   2
   2  -6  -3 4249.61 714.784   4
  -2   6   3 4498.63 406.977   6
  -2   6   2 3793.65 258.916   6
  -2   6   2 5988.80 762.056   2
   2  -6  -2 6362.43 823.998   4
   2  -6  -1 14732.5 1227.30   4
  -2   6   1 13818.1 1151.29   2
   2  -6  -1 14009.4 814.257   5
  -2   6   0 3462.67 574.969   1
   2  -6   0 3136.74 571.564   4
  -2   6   0 3414.18 582.664   2
   2  -6   1 3161.76 318.795   6
  -2   6  -1 4887.52 713.440   2
  -2   6  -1 4605.19 671.533   1
   2  -6   2 4608.18 681.307   1
   2  -6   3 3577.51 633.584   1
   2  -6   4 1165.00 380.189   1
   2  -6   5 1685.74 479.154   1
   2  -6   6 2184.44 571.646   1
   2  -6   7-88.1369 184.621   1
   2  -6   8 615.416 378.899   1
   2  -6   9 7627.07 1251.80   1
   2  -6  10 764.486 461.509   1
   2  -6  11 682.834 452.039   1
  -2   5  10 2433.13 861.339   1
   2  -5 -10 1894.70 687.198   4
   2  -5  -9 379.190 361.898   4
   2  -5  -8 152.141 189.062   4
   2  -5  -7-73.9271 233.324   4
   2  -5  -6 949.582 385.117   4
  -2   5   6 1345.73 254.357   5
  -2   5   5 198.304 110.023   5
   2  -5  -5-1.36113 105.104   4
  -2   5   4 4303.57 390.559   5
   2  -5  -4 3596.87 645.745   4
  -2   5   4 4013.82 451.615   6
  -2   5   3 34631.1 1150.89   6
   2  -5  -3 35579.1 1879.59   4
  -2   5   3 37567.0 1812.55   2
   2  -5  -2 2689.53 498.078   4
  -2   5   2 3414.74 321.131   6
  -2   5   2 3225.50 528.658   2
  -2   5   1 7851.02 807.103   2
   2  -5  -1 7727.19 591.686   5
   2  -5  -1 7748.43 809.857   4
   2  -5   0 3684.45 552.619   4
   2  -5   0 3399.47 278.254   6
  -2   5   0 3923.34 587.940   2
  -2   5   0 4059.79 566.924   1
  -2   5  -1 228.951 159.451   1
   2  -5   1 30.8225 111.847   1
   2  -5   1 137.451 87.4013   6
  -2   5  -2 328.575 173.619   1
   2  -5   2 136.366 141.079   1
   2  -5   3 39020.0 1919.42   1
  -2   5  -3 36441.4 1835.69   1
   2  -5   4 100.427 145.062   1
   2  -5   5 19003.5 1501.02   1
   2  -5   6 715.330 375.672   1
   2  -5   7 1782.23 536.376   1
   2  -5   8 12698.1 1480.54   1
   2  -5   9 9145.56 1332.84   1
   2  -5  10 436.116 353.829   1
   2  -5  11 1438.00 633.821   1
  -2   4  11-136.983 236.548   1
  -2   4  10 63.2012 287.951   1
   2  -4  -9 4809.36 985.202   4
   2  -4  -8 15125.1 1627.89   4
   2  -4  -7 4339.85 808.354   4
   2  -4  -6 26708.4 1845.95   4
   2  -4  -5 23886.5 1636.27   4
   2  -4  -4 25911.3 1573.85   4
  -2   4   4 27304.9 1061.97   5
   2  -4  -4 28142.3 1619.53   2
  -2   4   4 29418.8 1720.32   4
   2  -4  -3-83.7408 131.381   4
  -2   4   3-10.4520 85.5989   4
  -2   4   3-8.49343 36.9738   6
  -2   4   3 8.01858 39.6253   5
  -2   4   3-5.36323 23.1479   3
  -2   4   3-39.7437 105.120   2
  -2   4   2 13970.7 996.566   2
   2  -4  -2 14948.8 1036.32   4
  -2   4   2 12671.0 658.429   6
  -2   4   2 15193.4 1058.40   4
  -2   4   1 28928.3 1378.11   1
  -2   4   1 30105.0 911.578   6
   2  -4  -1 28519.4 1098.07   5
  -2   4   1 30775.0 1494.76   2
   2  -4  -1 27852.0 1369.85   4
  -2   4   0 790.259 236.881   1
   2  -4   0 1125.62 196.719   6
  -2   4   0 592.750 241.656   2
   2  -4   1 3040.26 450.746   1
  -2   4  -1 3246.39 462.860   1
  -2   4  -2 16861.5 1093.92   1
   2  -4   2 17778.7 1129.56   1
   2  -4   3 5777.42 694.013   1
  -2   4  -3 4997.75 643.358   1
  -2   4  -4 1514.73 398.116   1
   2  -4   4 678.014 269.931   1
   2  -4   5-82.8255 159.337   1
   2  -4   6 4300.49 741.222   1
   2  -4   7 55253.3 2809.58   1
   2  -4   8-10.6567 220.995   1
   2  -4   9 4836.57 952.409   1
   2  -4  10 895.187 453.165   1
   2  -4  11-458.624 428.107   1
  -2   3  11 844.770 522.718   1
  -2   3  10 24729.4 2454.21   1
  -2   3   9 3998.18 932.321   1
   2  -3  -8 8069.69 733.313   3
   2  -3  -8 8040.17 1148.55   4
   2  -3  -7 134.780 115.938   3
   2  -3  -7 80.9565 194.990   4
   2  -3  -6 3782.04 666.944   4
   2  -3  -5 7141.67 762.133   2
   2  -3  -5 6554.39 808.982   4
  -2   3   5 6954.12 850.437   4
   2  -3  -4 15204.0 1116.20   4
  -2   3   4 17702.2 1230.63   4
  -2   3   3 22581.7 682.948   3
  -2   3   3 23323.8 1279.88   4
  -2   3   3 22923.4 954.262   5
  -2   3   3 23077.0 1184.50   2
  -2   3   3 22589.8 983.264   6
   2  -3  -3 22191.6 1231.22   4
   2  -3  -2 700.895 223.037   4
  -2   3   2 984.238 250.726   4
  -2   3   2 902.722 246.737   2
  -2   3   2 882.389 188.462   5
  -2   3   2 938.005 192.117   6
  -2   3   1 1800.67 339.760   2
   2  -3  -1 2168.56 295.590   5
   2  -3  -1 2139.56 338.553   4
  -2   3   1 1816.10 251.766   6
   2  -3  -1 2196.89 255.542   6
  -2   3   0 26455.7 1119.67   1
   2  -3   0 26418.8 1094.96   5
   2  -3   0 27818.9 1003.73   6
   2  -3   1 14477.7 856.129   1
  -2   3  -1 15280.9 875.624   1
  -2   3  -2 38404.9 1500.02   1
   2  -3   2 40847.7 1548.91   1
  -2   3  -3 6839.00 710.175   1
   2  -3   3 6323.99 673.851   1
   2  -3   4 4456.76 619.685   1
  -2   3  -4 3463.81 562.468   1
   2  -3   5 5492.66 748.172   1
  -2   3  -5 5581.13 780.154   1
   2  -3   6 4630.72 745.452   1
   2  -3   7 6902.83 995.750   1
   2  -3   8 6476.50 1017.21   1
   2  -3   9 128.649 250.121   1
   2  -3  10-72.1736 210.209   1
   2  -3  11-2.55369 218.992   1
  -2   2  12-170.472 374.176   1
  -2   2  11 6715.53 1319.56   1
  -2   2  10 32.1088 218.225   1
  -2   2   9 9730.36 1404.10   1
   2  -2  -8 8942.65 799.633   3
  -2   2   8 9639.12 1307.60   1
   2  -2  -7 11436.0 1228.63   4
   2  -2  -7 10021.0 774.580   3
   2  -2  -6 22160.0 1319.37   2
   2  -2  -6 22050.5 1542.56   4
  -2   2   6 21639.6 1521.20   4
   2  -2  -6 21534.0 1033.65   3
   2  -2  -5 3370.29 553.774   4
  -2   2   5 4243.96 617.478   4
   2  -2  -4 523.916 205.437   4
   2  -2  -4 554.852 188.432   2
  -2   2   4 714.901 236.746   4
  -2   2   4 484.723 127.213   3
   2  -2  -3 63621.1 1867.17   2
   2  -2  -3 64019.0 1874.52   4
  -2   2   3 66463.6 1773.41   2
  -2   2   3 64149.0 1290.98   3
  -2   2   3 65714.0 1679.84   6
  -2   2   3 65265.7 1911.16   4
  -2   2   2 83449.2 1767.49   5
   2  -2  -2 82903.4 1895.42   4
  -2   2   2 81271.2 1971.44   2
  -2   2   2 85231.1 1924.08   4
  -2   2   2 83757.1 1781.01   6
   2  -2  -1 14644.9 717.750   6
  -2   2   1 15796.7 782.998   6
   2  -2  -1 11111.2 646.176   5
   2  -2  -1 11146.6 627.331   4
  -2   2   0 1792.42 245.948   1
   2  -2   0 1648.17 272.624   5
   2  -2   0 2167.78 295.863   6
   2  -2   1 14251.6 730.885   1
  -2   2  -1 13848.9 725.114   1
   2  -2   2 283.729 140.561   1
  -2   2  -2 1.63914 54.3966   1
  -2   2  -3 285.383 139.667   1
   2  -2   3 392.967 180.357   1
  -2   2  -4 82.7123 97.1382   1
   2  -2   4 252.779 163.160   1
  -2   2  -5 10757.5 1070.70   1
   2  -2   5 9090.47 937.225   1
   2  -2   6 1953.96 493.295   1
   2  -2   7 2560.77 600.649   1
   2  -2   8 9232.59 1216.61   1
   2  -2   9 1099.18 479.703   1
   2  -2  10 909.168 448.820   1
   2  -2  11 136.335 220.086   1
   2  -2  12 2156.59 758.804   1
  -2   1  12 11935.4 1771.89   1
  -2   1  11 47.0004 293.565   1
  -2   1  10 2695.01 802.420   1
  -2   1   9 4536.89 927.606   1
  -2   1   8 11212.9 1356.35   1
  -2   1   7 3745.60 729.348   1
   2  -1  -7 4508.61 592.348   2
   2  -1  -7 4693.16 546.645   3
   2  -1  -6 9745.03 727.436   3
  -2   1   6 8415.18 999.691   1
  -2   1   6 10050.0 983.523   4
  -2   1   5 690.897 230.917   4
   2  -1  -5 581.519 180.406   2
   2  -1  -5 462.511 219.401   4
   2  -1  -5 784.868 190.625   3
   2  -1  -4 27531.2 1285.79   4
   2  -1  -4 25206.1 1058.75   2
  -2   1   4 26223.6 1258.62   4
  -2   1   4 26521.2 942.574   3
  -2   1   3 22749.7 896.371   2
  -2   1   3 23667.5 838.965   3
   2  -1  -3 25109.3 1044.34   4
  -2   1   3 24388.5 1045.11   4
   2  -1  -3 22943.4 955.468   2
   2  -1  -2 6012.27 490.820   6
  -2   1   2 5467.94 444.581   2
   2  -1  -2 6122.96 427.507   4
  -2   1   2 5336.89 398.753   4
   2  -1  -1 27116.6 1013.49   6
   2  -1  -1 24635.0 688.687   4
  -2   1   0 39499.1 869.750   1
   2  -1   0 40358.6 1261.52   5
   2  -1   0 39780.0 844.450   1
   2  -1   0 41537.0 1306.80   6
  -2   1  -1 148.201 73.3677   1
   2  -1   1 181.908 76.9532   1
  -2   1  -2 31246.9 1169.86   1
   2  -1   2 32740.0 1149.44   1
   2  -1   3 12266.0 839.539   1
  -2   1  -3 11222.8 840.724   1
   2  -1   4 78493.3 2432.02   1
  -2   1  -4 76360.9 2524.82   1
   2  -1   5 39569.4 1967.39   4
   2  -1   5 39604.0 1931.05   1
   2  -1   6 1161.25 393.048   1
   2  -1   7 10177.5 1180.34   1
   2  -1   8 16673.4 1634.78   1
   2  -1   9 1036.75 451.676   1
   2  -1  10 576.284 376.536   1
   2  -1  11 608.381 432.445   1
  -2   0  12 4025.50 1033.30   1
  -2   0  11 18503.8 2064.41   1
  -2   0  10 3676.37 861.924   1
  -2   0   9 5633.44 1006.85   1
  -2   0   8 72.4713 146.850   1
   2   0  -8-66.3272 87.7828   2
  -2   0   7 55163.0 2672.33   1
   2   0  -7 54662.4 1904.92   3
  -2   0   6 46.8770 131.694   1
   2   0  -6 49.0742 70.6318   2
  -2   0   6 155.955 144.610   4
   2   0  -6 223.717 119.657   3
   2   0  -5 4274.43 408.292   2
  -2   0   5 3998.92 603.161   1
   2   0  -5 4164.56 446.578   3
  -2   0   5 3456.09 491.502   4
   2   0  -4 6203.75 435.951   2
  -2   0   4 6448.99 669.223   1
  -2   0   4 6046.86 479.538   3
  -2   0   4 6437.57 581.091   4
   2   0  -4 6542.25 520.018   3
   2   0  -3 75971.6 1407.00   2
  -2   0   3 78717.3 1668.83   4
  -2   0   3 75138.4 1962.75   1
  -2   0   3 79376.3 1309.98   2
  -2   0   3 78079.4 1620.30   3
   2   0  -2 108683. 1425.85   4
  -2   0   2 107780. 1424.66   4
   2   0  -2 108316. 2090.86   6
   2   0  -1 105280. 2092.12   6
   2   0   0 513.247 92.2792   4
   2   0   0 377.561 142.403   5
   2   0   0 268.233 139.440   6
   2   0   1-19.8248 73.3753   5
   2   0   1 17.4717 53.9152   4
   2   0   1 32.7802 52.3677   1
   2   0   2 1862.19 278.312   1
   2   0   2 1773.41 297.377   4
   2   0   3 48723.1 1765.17   4
   2   0   3 47004.2 1656.56   1
   2   0   4 19317.4 1225.31   1
   2   0   5 7008.75 838.753   1
   2   0   5 7575.89 869.059   4
   2   0   6 143.530 136.396   1
   2   0   7 910.902 365.281   1
   2   0   8 5249.46 932.054   1
   2   0   9 565.441 411.985   1
   2   0  10 357.007 273.680   1
   2   0  11 1812.61 721.183   1
  -2  -1  12 7979.19 1424.93   1
  -2  -1  11-263.274 248.933   1
  -2  -1  10 811.169 429.160   1
  -2  -1   9 5236.20 950.221   1
  -2  -1   8 87.2192 126.025   1
   2   1  -7 2013.16 381.217   3
  -2  -1   7 1778.26 478.178   1
  -2  -1   6 2804.45 538.184   1
   2   1  -6 2821.97 416.662   3
  -2  -1   6 2888.73 502.649   4
  -2  -1   5 20587.0 1181.92   4
  -2  -1   5 20193.7 1283.11   1
   2   1  -5 20331.4 733.224   2
   2   1  -5 19536.6 1006.09   3
  -2  -1   4 52789.8 1833.42   1
   2   1  -4 50410.7 1494.83   3
   2   1  -4 48488.1 916.809   2
  -2  -1   4 51061.9 1588.71   4
   2   1  -3 77767.7 1955.84   1
  -2  -1   3 79041.2 1912.17   1
  -2  -1   2 408510. 3405.82   1
   2   1  -2 409076. 3494.83   1
   2   1  -2 415520. 4171.26   6
  -2  -1   1 15824.2 454.197   1
   2   1  -1 17504.8 887.308   6
   2   1  -1 16327.9 473.317   1
   2   1   0 70976.2 866.214   1
   2   1   0 76568.0 1950.00   6
  -2  -1   0 69777.5 1539.05   5
  -2  -1   0 73903.3 1233.04   4
   2   1   0 71931.8 1226.19   4
   2   1   1 80667.0 1763.71   5
  -2  -1  -1 83318.9 1749.94   4
   2   1   1 83939.6 1746.85   4
   2   1   2 36175.9 1372.48   4
  -2  -1  -2 36988.7 1436.67   4
   2   1   3 41134.7 1656.26   1
   2   1   3 41660.4 1706.76   4
   2   1   4 20950.8 1349.23   4
   2   1   4 20679.1 1336.63   1
   2   1   5 2721.41 542.116   1
   2   1   6 493.158 255.240   1
   2   1   7 3934.56 769.646   1
   2   1   8 21817.0 1928.54   1
   2   1   9 5388.34 1014.42   1
   2   1  10 7060.31 1271.00   1
   2   1  11 2687.03 832.660   1
  -2  -2  13 533.424 434.043   1
  -2  -2  12 2771.31 861.084   1
  -2  -2  11-260.286 318.989   1
  -2  -2  10 4667.90 939.306   1
  -2  -2   9 23042.1 1945.58   1
  -2  -2   8 128.199 188.920   1
  -2  -2   7 27595.7 1811.09   1
  -2  -2   7 28711.7 1719.77   4
   2   2  -6 30936.7 1405.99   3
  -2  -2   6 31254.7 1770.43   1
   2   2  -6 30971.9 1848.12   1
  -2  -2   5 49894.8 2031.74   1
   2   2  -5 50257.3 1671.21   3
   2   2  -4 42692.0 1701.66   1
   2   2  -4 43553.2 1458.70   3
  -2  -2   4 44657.3 1711.38   1
   2   2  -3 92981.8 2139.70   1
  -2  -2   3 90624.4 2088.65   1
   2   2  -2 48390.8 1522.96   6
  -2  -2   2 49698.3 1317.45   1
   2   2  -2 49312.1 1308.87   1
  -2  -2   1 20119.3 1012.07   6
   2   2  -1 20421.5 990.240   6
   2   2  -1 18208.0 674.683   1
  -2  -2   1 18435.1 690.249   4
  -2  -2   1 18506.9 674.404   1
   2   2   0 16206.4 628.771   1
   2   2   0 16718.3 745.261   4
   2   2   0 18321.0 998.688   6
  -2  -2   0 16156.3 733.716   5
  -2  -2   0 16970.6 754.029   4
   2   2   1 43337.8 1428.01   4
  -2  -2  -1 43296.7 1429.46   4
   2   2   2 74753.3 1713.29   5
  -2  -2  -2 76807.7 2163.88   4
   2   2   2 73382.3 2142.64   4
  -2  -2  -3 9397.21 873.653   4
   2   2   3 10235.7 687.305   5
   2   2   4 1217.42 348.966   4
  -2  -2  -4 1380.82 382.714   4
   2   2   5 15317.5 1340.50   1
   2   2   6 920.105 364.185   1
   2   2   7 1371.69 470.873   1
   2   2   8 2193.14 665.462   1
   2   2   9 1205.56 528.488   1
   2   2  10 4229.48 996.754   1
   2   2  11 80.7565 158.208   1
  -2  -3  13 197.925 311.456   1
  -2  -3  12 180.928 213.570   1
  -2  -3  11 3478.08 856.353   1
  -2  -3  10 3234.57 791.638   1
  -2  -3   9 11009.9 1338.27   1
  -2  -3   8 14479.2 1436.16   1
  -2  -3   7 8594.02 1027.04   1
   2   3  -6 7868.18 738.292   3
  -2  -3   6 8066.79 907.451   1
   2   3  -6 8233.64 954.513   1
  -2  -3   5 7194.07 784.258   1
   2   3  -5 8687.52 723.221   3
  -2  -3   4 38918.3 1585.26   6
   2   3  -4 39263.5 1669.69   1
   2   3  -4 37037.9 1408.08   3
  -2  -3   3 3288.70 438.743   1
  -2  -3   3 3230.18 435.117   6
   2   3  -3 2860.38 402.105   1
  -2  -3   2 1570.56 298.267   6
  -2  -3   2 1534.40 192.821   2
   2   3  -2 1381.64 269.851   6
  -2  -3   2 1327.31 238.736   3
  -2  -3   2 1156.21 249.738   1
   2   3  -2 1431.41 255.732   1
   2   3  -1 7945.45 656.412   6
  -2  -3   1 9324.72 604.319   1
  -2  -3   1 8940.55 688.312   6
   2   3  -1 9073.60 596.413   1
  -2  -3   1 7640.66 582.738   4
   2   3   0 11934.2 689.021   1
   2   3   0 13773.8 908.210   6
  -2  -3   0 11856.8 626.324   5
  -2  -3   0 12386.8 774.362   4
   2   3   0 11983.7 763.515   4
   2   3   1 25345.9 1228.75   4
   2   3   1 24186.5 1260.91   6
  -2  -3  -1 25258.1 1216.73   4
  -2  -3  -2 17839.0 1140.91   4
  -2  -3  -3 1802.07 398.592   4
   2   3   3 1581.08 389.467   4
   2   3   3 1398.55 249.921   5
   2   3   4 29825.5 1204.89   5
  -2  -3  -4 31919.8 1857.08   4
  -2  -3  -5 601.902 298.264   4
   2   3   6 1381.44 485.855   1
   2   3   7-249.299 296.073   1
   2   3   8 188.620 211.044   1
   2   3   9 329.873 317.816   1
   2   3  10 8328.97 1450.74   1
  -2  -4  13 369.167 357.194   1
  -2  -4  12 832.950 531.194   1
  -2  -4  11 227.286 293.607   1
  -2  -4  10 2368.21 665.291   1
  -2  -4   9 14948.4 1575.44   1
  -2  -4   8 270.880 227.935   1
  -2  -4   7 19596.8 1571.91   1
   2   4  -6 25238.0 1689.49   1
  -2  -4   6 22901.5 1580.53   1
  -2  -4   5 5700.77 675.692   6
   2   4  -5 6097.83 627.335   3
   2   4  -5 4975.79 283.998   2
   2   4  -5 5746.87 738.447   1
  -2  -4   5 5051.71 691.504   1
  -2  -4   4 14122.4 1058.90   1
  -2  -4   4 13476.2 956.555   6
   2   4  -4 12918.5 864.373   3
  -2  -4   3 1072.45 280.326   1
   2   4  -3 1144.45 283.883   1
  -2  -4   3 1332.58 310.132   6
   2   4  -2 215.316 124.583   1
  -2  -4   2 217.482 134.343   6
  -2  -4   2 170.999 96.5738   3
   2   4  -2 154.863 115.381   6
  -2  -4   2 229.629 147.571   1
  -2  -4   2 228.579 108.175   2
  -2  -4   1 28565.3 1074.14   3
  -2  -4   1 28303.0 1137.75   2
  -2  -4   1 28427.7 1274.41   6
   2   4  -1 27175.8 1207.59   1
   2   4  -1 29727.4 1266.89   6
  -2  -4   1 27688.5 1264.92   4
   2   4   0 4107.82 475.002   1
   2   4   0 3743.56 497.761   6
  -2  -4   0 3685.47 492.159   4
  -2  -4  -1 300.832 164.389   4
   2   4   1 179.537 160.467   6
   2   4   2 2760.27 505.311   4
  -2  -4  -2 2025.30 418.454   4
  -2  -4  -3 65636.5 2593.45   4
   2   4   3 69027.8 2693.04   4
   2   4   4 12286.7 694.705   5
  -2  -4  -4 12461.3 1213.57   4
   2   4   5 1197.42 253.416   5
  -2  -4  -5 622.373 323.934   4
  -2  -4  -6 37.7205 214.373   4
   2   4   6 94.3347 103.226   5
   2   4   7 221.725 264.742   1
   2   4   8 749.270 402.386   1
   2   4   9 192.455 211.934   1
   2   4  10 330.157 376.795   1
  -2  -5  12 679.486 407.180   1
  -2  -5  11 404.886 349.292   1
  -2  -5  10 4174.57 905.117   1
  -2  -5   9 641.858 351.620   1
  -2  -5   8 411.711 256.043   1
  -2  -5   7 27719.8 1930.01   1
   2   5  -7 27182.8 979.742   2
  -2  -5   6 12128.8 1203.89   1
  -2  -5   6 10826.4 1016.04   6
   2   5  -6 11414.4 556.598   2
   2   5  -5 20525.2 1459.77   1
   2   5  -5 20331.3 710.473   2
  -2  -5   5 19902.5 1278.29   6
   2   5  -5 20717.3 1205.97   3
  -2  -5   5 21655.5 1492.76   1
  -2  -5   4 202.601 167.714   1
  -2  -5   4 402.278 186.987   6
   2   5  -4 261.974 135.064   3
   2   5  -4 193.025 129.753   1
  -2  -5   3 21329.5 1316.42   1
  -2  -5   3 20986.3 1216.45   6
  -2  -5   2 747.446 257.904   4
  -2  -5   2 1315.43 311.851   6
  -2  -5   2 847.412 211.755   2
  -2  -5   2 617.675 223.414   1
  -2  -5   2 747.094 191.243   3
   2   5  -2 1084.59 250.914   6
  -2  -5   1 9516.60 759.765   2
   2   5  -1 9880.55 748.271   6
  -2  -5   1 9836.82 644.595   3
  -2  -5   1 9822.44 771.616   6
  -2  -5   1 9857.50 879.991   4
  -2  -5   0 20753.6 1293.99   4
  -2  -5   0 22734.5 1256.52   2
   2   5   1 6539.09 695.842   6
  -2  -5  -1 5656.65 716.187   4
   2   5   1 6799.42 787.625   4
  -2  -5  -2 1729.09 432.293   4
   2   5   2 1073.46 351.001   4
   2   5   2 1611.82 377.330   6
  -2  -5  -3-20.1896 139.613   4
  -2  -5  -4 15682.0 1448.70   4
  -2  -5  -5 8017.24 1115.53   4
  -2  -5  -6 20446.4 1900.87   4
  -2  -5  -7-158.633 179.248   4
   2   5   8 1555.89 627.700   1
   2   5   9-386.284 399.281   1
  -2  -6  12 1512.14 628.905   1
  -2  -6  11-350.147 370.900   1
  -2  -6  10 8345.46 1297.69   1
  -2  -6   9 7566.74 1173.59   1
  -2  -6   8 12533.9 1426.61   1
   2   6  -8 12751.9 736.375   2
  -2  -6   7-136.217 186.133   1
   2   6  -7 246.035 100.182   2
  -2  -6   6 18771.8 1560.33   1
  -2  -6   6 18516.2 1348.61   6
   2   6  -6 18973.7 804.744   2
  -2  -6   5 7530.69 949.655   1
   2   6  -5 8651.73 558.422   2
  -2  -6   5 8885.63 876.448   6
  -2  -6   4 7008.20 860.671   1
  -2  -6   4 6565.19 744.973   6
   2   6  -4 7828.44 886.450   1
   2   6  -3 30183.6 1670.93   1
  -2  -6   3 27808.8 1445.54   6
  -2  -6   3 27752.1 1625.28   1
  -2  -6   2 874.896 286.718   4
   2   6  -2 782.198 277.210   1
  -2  -6   2 1031.88 296.756   2
  -2  -6   2 858.675 236.944   6
  -2  -6   2 714.562 273.019   1
  -2  -6   1 53.0864 99.5317   4
   2   6  -1 58.1439 91.4554   6
  -2  -6   1 128.489 89.8380   3
  -2  -6   1 57.2735 93.9709   2
   2   6  -1 163.507 118.185   1
  -2  -6   0 548.072 238.587   4
  -2  -6   0 779.724 256.007   2
  -2  -6   0 323.152 110.526   5
  -2  -6   0 353.532 135.571   3
   2   6   0 559.446 197.823   6
   2   6   0 342.679 185.083   1
  -2  -6  -1 50.0034 62.4873   3
  -2  -6  -1 110.147 108.181   4
   2   6   1-171.931 125.308   1
   2   6   1 73.1495 101.590   6
  -2  -6  -2 246.102 186.544   4
   2   6   2 375.669 206.967   6
   2   6   3 4173.70 662.958   6
  -2  -6  -3 3347.36 681.093   4
  -2  -6  -4 162.288 173.455   4
  -2  -6  -5-175.773 197.555   4
  -2  -6  -6-176.683 217.230   4
  -2  -6  -7 275.206 280.249   4
   2   6   8 432.917 354.026   1
   2   6   9 2382.33 911.643   1
  -2  -7  12-483.471 387.099   1
  -2  -7  11 4308.33 1019.49   1
  -2  -7  10 213.260 232.378   1
  -2  -7   9 2.09447 298.356   1
  -2  -7   8 449.605 305.941   1
   2   7  -8 427.470 146.922   2
  -2  -7   7 14374.7 1516.30   1
   2   7  -7 15868.0 814.595   2
  -2  -7   6 11933.2 1317.28   1
   2   7  -6 10963.6 686.868   2
  -2  -7   5 1335.58 366.220   6
  -2  -7   5 589.795 296.683   1
  -2  -7   4 2758.95 493.479   6
  -2  -7   4 1834.09 494.030   1
  -2  -7   3 858.990 323.616   4
  -2  -7   3 578.374 248.275   6
  -2  -7   3 882.441 333.551   1
  -2  -7   2-19.4425 85.2748   6
  -2  -7   2 266.191 201.502   4
  -2  -7   2 135.746 212.013   2
  -2  -7   1 410.904 208.997   2
  -2  -7   1 130.017 135.121   4
   2   7  -1 218.808 131.433   6
  -2  -7   0 941.131 337.141   4
   2   7   0 777.326 230.083   6
  -2  -7   0 804.761 164.176   5
  -2  -7   0 1154.76 226.000   3
  -2  -7  -1 593.854 289.798   4
  -2  -7  -1 839.964 178.593   3
   2   7   1 703.096 243.728   6
  -2  -7  -2 6063.88 457.014   3
  -2  -7  -2 5500.68 873.874   4
   2   7   2 5099.09 699.370   6
  -2  -7  -3 4906.89 852.295   4
   2   7   3 3852.82 636.582   6
  -2  -7  -4 3427.99 759.812   4
   2   7   4 2583.23 564.242   6
  -2  -7  -5 2647.23 740.046   4
   2   7   5 1677.13 488.374   6
   2   7   6 176.359 220.575   6
  -2  -7  -6 858.052 427.150   4
  -2  -7  -7 1152.02 547.701   4
  -2  -8  11 899.497 512.737   1
  -2  -8  10 1063.19 496.027   1
  -2  -8   9 336.110 207.889   1
  -2  -8   8 89.1551 162.066   1
  -2  -8   7 335.995 248.638   1
   2   8  -7-34.5138 76.6156   2
  -2  -8   6 13404.8 1469.23   1
  -2  -8   5 226.351 169.226   6
  -2  -8   5 743.578 364.657   1
  -2  -8   4 1084.53 392.202   1
  -2  -8   4 1480.25 367.592   6
  -2  -8   3 9011.92 1095.22   1
  -2  -8   3 8083.94 1056.64   4
  -2  -8   2 147.014 161.739   4
  -2  -8   1 161.847 155.385   4
  -2  -8   0 5339.80 881.654   4
   2   8   0 5476.17 566.927   6
  -2  -8   0 5422.64 370.031   5
  -2  -8  -1 1482.72 503.072   4
   2   8   1 1063.91 288.359   6
  -2  -8  -1 1644.00 235.523   3
  -2  -8  -2 414.472 297.768   4
   2   8   2 79.8139 153.130   6
  -2  -8  -3 2071.60 586.873   4
   2   8   3 1745.01 451.600   6
   2   8   4 2683.75 585.455   6
  -2  -8  -4 3106.35 761.006   4
  -2  -8  -5 1967.69 644.469   4
  -2  -8  -6-32.7221 219.724   4
  -2  -9  11 3340.23 941.294   1
  -2  -9  10 2389.27 797.082   1
  -2  -9   9 1639.34 613.221   1
  -2  -9   8 294.137 252.588   1
  -2  -9   7-110.161 167.582   1
  -2  -9   6 11289.9 1419.43   1
  -2  -9   5 2792.17 685.061   1
  -2  -9   4 7784.38 1109.55   1
  -2  -9   4 7757.01 1121.99   4
  -2  -9   3 4370.53 850.511   4
  -2  -9   2-101.613 184.361   4
  -2  -9   1-136.558 209.042   4
  -2  -9   0 645.954 365.243   4
   2   9   0 246.387 122.533   6
  -2  -9  -1 811.012 419.041   4
  -2  -9  -2 432.611 308.243   4
  -2  -9  -3 3976.34 875.389   4
  -2  -9  -4-204.631 208.449   4
  -2  -9  -5 1538.64 600.514   4
  -2 -10  10 468.396 387.656   1
  -2 -10   9 1587.08 650.656   1
  -2 -10   8 5564.48 1118.45   1
  -2 -10   7 2532.59 740.012   1
  -2 -10   6 2202.62 655.174   1
  -2 -10   5 102.586 194.258   4
  -2 -10   5 301.370 270.926   1
  -2 -10   4-359.513 338.336   4
  -2 -10   3 2356.11 684.555   4
  -2 -10   2 1701.11 580.846   4
  -2 -10   1 593.107 347.087   4
  -2 -10   0 408.954 276.925   4
  -2 -10  -1 1497.32 554.782   4
  -2 -10  -2 1911.32 629.592   4
  -2 -10  -3 280.594 279.144   4
  -2 -10  -4 556.314 359.763   4
  -2 -11   9 211.727 238.052   1
  -2 -11   8 4105.16 998.461   1
  -2 -11   7-17.5166 210.780   1
  -2 -11   6 1671.67 608.983   4
  -2 -11   6 865.522 460.163   1
  -2 -11   5 2027.68 677.679   4
  -2 -11   4 1515.58 621.325   4
  -2 -11   3 2740.35 787.368   4
  -2 -11   2 3609.29 901.234   4
  -2 -11   1 1801.65 619.980   4
  -2 -11   0 3641.29 874.937   4
  -2 -11  -1-254.106 308.859   4
  -2 -11  -2-565.349 415.504   4
  -2 -11  -3 636.928 256.635   4
  -2 -12   7 59.8956 250.667   4
  -2 -12   7 344.526 384.202   1
  -2 -12   6 584.697 423.047   4
  -2 -12   5 816.332 494.010   4
  -2 -12   4 3206.80 914.477   4
  -2 -12   3-534.016 364.311   4
  -2 -12   2-209.973 290.979   4
  -2 -12   1-102.114 255.815   4
  -2 -12   0 2093.66 737.337   4
  -2 -12  -1-336.178 411.496   4
  -3  13  -2 239.677 316.216   2
  -3  13  -3 183.621 270.899   2
  -3  13  -4 553.673 223.791   2
   3 -12  -2 4538.84 1095.47   4
   3 -12  -1 5.47542 259.789   4
  -3  12   1 321.773 247.291   2
   3 -12   0 468.975 411.504   4
  -3  12   0 962.609 442.429   2
   3 -12   1-376.681 439.958   4
  -3  12  -1-96.0845 243.259   2
   3 -12   2 4729.61 1107.21   4
  -3  12  -2 3792.36 839.278   2
   3 -12   3 63.0360 102.892   5
   3 -12   3-222.048 317.990   4
  -3  12  -3 444.928 368.028   2
   3 -12   4-340.761 339.140   4
  -3  12  -4-389.714 312.855   2
  -3  12  -5 521.270 341.732   2
  -3  12  -6 801.419 434.357   2
  -3  12  -7 557.777 359.234   2
   3 -11  -4-230.018 279.440   4
   3 -11  -3-71.9782 285.365   4
   3 -11  -2 3791.38 952.325   4
  -3  11   1 3644.19 809.096   2
   3 -11  -1 2915.61 805.936   4
   3 -11   0-261.743 352.889   4
  -3  11   0-7.70568 200.029   2
   3 -11   1 22.2985 99.2463   5
   3 -11   1-261.314 319.929   4
  -3  11  -1-257.761 260.080   2
   3 -11   2 590.307 429.561   4
  -3  11  -2 1073.85 514.663   2
   3 -11   2 918.630 338.955   5
   3 -11   3 164.634 273.433   4
  -3  11  -3 638.772 340.861   2
  -3  11  -4 1267.49 523.764   2
   3 -11   5 589.814 359.795   1
  -3  11  -5-204.016 250.227   2
   3 -11   6 274.308 327.420   1
  -3  11  -6 1167.01 573.346   2
   3 -11   7 746.210 534.557   1
  -3  11  -7 54.7725 119.882   2
  -3  11  -8-889.682 484.167   2
   3 -10  -6 1854.43 729.346   4
   3 -10  -5 797.418 427.401   4
   3 -10  -4 4127.77 977.496   4
   3 -10  -3 1797.95 615.366   4
   3 -10  -2 1964.53 640.001   4
  -3  10   2 1143.08 457.589   2
   3 -10  -1-60.7185 198.852   4
  -3  10   1 494.430 298.472   2
   3 -10   0 10086.5 972.144   5
  -3  10   0 10889.9 1332.16   2
   3 -10   0 10716.2 1420.83   4
   3 -10   1 1492.26 585.026   4
   3 -10   1 2077.93 475.849   5
  -3  10  -1 1816.94 571.237   2
   3 -10   2 526.054 338.198   4
  -3  10  -2 277.738 260.871   2
  -3  10  -3 872.316 411.559   2
   3 -10   4 2593.74 712.317   1
  -3  10  -4 2756.95 734.455   2
  -3  10  -5 4.13329 194.480   2
   3 -10   5 169.597 266.043   1
  -3  10  -6-251.785 274.553   2
   3 -10   6 218.437 274.620   1
   3 -10   7 1075.11 519.085   1
   3 -10   8 2035.14 725.725   1
   3  -9  -7 2665.81 835.533   4
   3  -9  -6 646.565 394.385   4
   3  -9  -5 1298.11 529.822   4
   3  -9  -4 559.671 370.202   4
  -3   9   3 357.607 306.162   2
   3  -9  -3 281.111 279.102   4
   3  -9  -2-149.624 178.284   4
  -3   9   2-208.608 214.866   2
   3  -9  -1 2435.05 673.990   4
   3  -9  -1 2594.57 445.219   5
  -3   9   1 2644.80 661.508   2
   3  -9   0 41.7485 180.023   4
   3  -9   0-318.583 193.275   5
  -3   9   0 190.555 271.678   2
   3  -9   1 2886.22 553.066   5
   3  -9   1 1597.21 526.190   4
  -3   9  -1 2284.85 606.127   2
  -3   9  -2 5548.18 946.398   2
   3  -9   2 5960.63 391.843   6
   3  -9   2 6729.75 1094.81   4
   3  -9   3 1856.01 566.613   1
   3  -9   3 1464.18 315.938   6
  -3   9  -3 1048.28 445.006   2
  -3   9  -4 174.911 197.955   2
   3  -9   4-44.7864 108.617   6
   3  -9   4 168.008 199.916   1
   3  -9   5 1484.08 569.607   1
   3  -9   6 1283.15 520.932   1
   3  -9   7 1013.49 475.236   1
   3  -9   8-17.7840 78.2161   1
   3  -9   9 4699.03 1080.59   1
   3  -8  -8 705.546 448.422   4
   3  -8  -7 683.033 405.553   4
   3  -8  -6-127.134 208.512   4
   3  -8  -5 12343.2 1505.89   4
   3  -8  -4-9.10335 174.209   4
   3  -8  -3 2086.29 588.062   4
  -3   8   3 1022.93 398.152   2
  -3   8   2 2597.66 162.620   3
  -3   8   2 2567.98 610.033   2
   3  -8  -2 3494.72 733.538   4
   3  -8  -1 686.136 349.293   4
   3  -8  -1 552.982 221.181   5
  -3   8   1 534.052 301.427   2
   3  -8   0 2414.00 466.632   5
   3  -8   0 1268.41 452.160   4
  -3   8   0 2081.67 542.175   2
   3  -8   1 439.824 238.933   4
  -3   8  -1 651.207 306.149   2
   3  -8   1 522.234 114.218   6
   3  -8   1 578.266 257.671   5
   3  -8   2 4090.19 488.498   6
  -3   8  -2 8953.59 1164.63   2
  -3   8  -3 313.193 264.913   2
   3  -8   3 625.044 255.470   6
   3  -8   3 1073.33 424.809   1
   3  -8   4 644.152 341.398   1
   3  -8   5 3504.61 779.065   1
   3  -8   6 4892.46 945.516   1
   3  -8   7-237.330 239.361   1
   3  -8   8 1382.87 568.162   1
   3  -8   9 2137.50 713.522   1
   3  -8  10 4958.84 1092.03   1
   3  -7  -9 421.622 373.734   4
   3  -7  -8 764.636 434.924   4
   3  -7  -7 151.742 130.921   4
   3  -7  -6 207.376 240.924   4
   3  -7  -5 1129.38 437.313   4
   3  -7  -4 2637.42 642.660   4
  -3   7   4 2060.17 331.442   6
   3  -7  -3 267.154 257.213   4
  -3   7   3 81.5232 56.6619   6
  -3   7   3 251.751 238.937   2
   3  -7  -2 1938.66 514.051   4
  -3   7   2 1875.58 493.653   2
  -3   7   1 20182.5 1571.20   2
   3  -7  -1 18744.9 1522.80   4
   3  -7  -1 20340.0 1199.54   5
  -3   7   0 20709.4 1608.05   2
   3  -7   0 17680.1 669.186   6
   3  -7   0 19939.2 1270.70   5
   3  -7   0 17573.2 1468.30   4
  -3   7  -1 3655.55 711.324   2
   3  -7   1 4255.87 445.069   6
   3  -7   2 3152.22 625.511   1
   3  -7   2 2458.17 408.075   6
   3  -7   3 9500.69 1111.79   1
   3  -7   4-132.742 219.371   1
   3  -7   5 647.729 259.900   1
   3  -7   6 496.421 309.398   1
   3  -7   7 772.640 397.303   1
   3  -7   8-112.656 233.056   1
   3  -7   9 289.517 314.839   1
   3  -7  10 7100.69 1293.23   1
   3  -6 -10 521.344 382.619   4
   3  -6  -9 1163.48 531.409   4
   3  -6  -8 2044.94 628.392   4
   3  -6  -7 2010.48 610.703   4
   3  -6  -6 819.142 383.295   4
   3  -6  -5 2946.46 650.077   4
  -3   6   4 4209.20 507.601   6
  -3   6   4 4355.55 701.791   2
   3  -6  -4 4352.07 752.265   4
  -3   6   3 44074.5 2174.54   2
  -3   6   3 41523.9 927.409   3
   3  -6  -3 41259.5 2178.63   4
  -3   6   3 39969.5 1439.51   6
   3  -6  -2 2234.40 492.754   4
  -3   6   2 2082.53 295.076   6
  -3   6   2 2362.89 517.610   2
   3  -6  -1 2345.59 501.907   4
   3  -6  -1 1970.94 371.356   5
  -3   6   1 2409.15 542.778   2
  -3   6   0 1531.15 436.119   2
   3  -6   0 1652.85 381.280   5
   3  -6   0 1581.30 419.115   4
   3  -6   0 1682.53 278.486   6
   3  -6   1 7191.65 645.286   6
   3  -6   2 11365.5 1090.59   1
   3  -6   2 9771.41 841.500   6
   3  -6   3 2888.86 580.609   1
   3  -6   4 13273.1 1282.56   1
   3  -6   5 17548.4 1548.33   1
   3  -6   6 1465.60 479.294   1
   3  -6   7 6832.37 1084.50   1
   3  -6   8 1711.67 569.563   1
   3  -6   9-116.629 268.417   1
   3  -6  10 1238.04 541.498   1
   3  -6  11-316.369 589.280   1
   3  -5 -10 457.770 430.678   4
   3  -5  -9-42.3327 197.367   4
   3  -5  -8 2054.50 626.623   4
   3  -5  -7 32.0941 184.615   4
  -3   5   6 11380.5 1004.81   6
  -3   5   6 14451.9 965.997   5
   3  -5  -6 13120.2 1349.69   4
  -3   5   5 6813.63 645.734   5
   3  -5  -5 6713.90 910.387   4
   3  -5  -4 181.307 182.037   4
  -3   5   4 116.530 129.057   2
  -3   5   4 185.416 126.393   6
  -3   5   4 114.378 112.819   5
  -3   5   4 36.7444 42.5378   3
  -3   5   3 11362.5 1038.38   2
  -3   5   3 10135.9 760.772   6
   3  -5  -3 11436.1 1056.73   4
   3  -5  -2 143.324 146.659   4
  -3   5   2-32.4463 73.0077   1
  -3   5   2 56.8289 86.7192   6
  -3   5   2 207.498 163.779   2
   3  -5  -1 1535.10 385.700   4
   3  -5  -1 2186.89 382.381   5
   3  -5  -1 1598.60 258.992   6
  -3   5   1 1770.93 393.486   1
  -3   5   1 1333.40 370.247   2
  -3   5   0 10330.0 925.434   1
   3  -5   0 9009.11 670.250   6
   3  -5   0 9302.42 818.559   5
  -3   5  -1 130.269 138.866   1
   3  -5   1 13.4709 72.9745   1
   3  -5   2 3773.03 588.384   1
  -3   5  -2 2882.18 507.732   1
   3  -5   3 596.826 251.752   1
  -3   5  -3 726.228 299.044   1
   3  -5   4 107.085 116.452   1
   3  -5   5 1652.03 463.589   1
   3  -5   6 43775.5 2465.80   1
   3  -5   7 3367.17 735.373   1
   3  -5   8 1082.53 472.738   1
   3  -5   9-28.4454 128.474   1
   3  -5  10 375.442 301.918   1
   3  -5  11 1391.62 593.563   1
  -3   4  11 1069.87 564.982   1
  -3   4  10 319.545 329.985   1
   3  -4  -9 3361.93 812.700   4
   3  -4  -8 86.2063 223.515   4
   3  -4  -7 494.226 317.463   4
  -3   4   6-68.2752 86.4542   6
   3  -4  -6 225.637 217.899   4
  -3   4   5 18783.4 1105.14   5
   3  -4  -5 19511.8 1434.14   4
   3  -4  -4 46392.9 2062.55   4
  -3   4   4 43224.5 1642.97   6
  -3   4   4 49043.5 2043.70   2
  -3   4   4 48443.2 1719.52   5
   3  -4  -4 48341.0 2214.87   2
  -3   4   4 45203.1 1178.14   3
  -3   4   4 49803.6 2187.35   4
  -3   4   3 9851.84 760.919   5
   3  -4  -3 9636.79 888.777   4
  -3   4   3 8334.32 698.256   6
  -3   4   3 9610.30 888.526   4
  -3   4   3 9363.91 880.852   2
  -3   4   2 16682.6 966.172   6
  -3   4   2 14306.4 1110.77   2
   3  -4  -2 14906.7 1033.43   4
  -3   4   1 23206.2 1255.71   1
  -3   4   1 23654.0 1103.44   6
   3  -4  -1 23244.6 1053.14   6
   3  -4  -1 23772.0 1201.90   5
  -3   4   1 23010.3 1420.20   2
   3  -4  -1 22534.3 1247.40   4
  -3   4   0 6626.15 662.471   1
   3  -4   0 7510.80 718.076   5
   3  -4   0 9047.78 727.752   6
   3  -4   1 83442.1 2365.12   1
  -3   4  -1 80478.4 2350.42   1
  -3   4  -2 10832.3 907.147   1
   3  -4   2 12359.9 962.731   1
   3  -4   3 4735.50 641.447   1
  -3   4  -3 5721.88 707.038   1
   3  -4   4 7813.30 880.143   1
  -3   4  -4 8270.66 933.646   1
   3  -4   5 51063.7 2395.05   1
   3  -4   6 16214.3 1448.07   1
   3  -4   7 960.647 385.336   1
   3  -4   8 195.362 236.497   1
   3  -4   9 1927.87 617.207   1
   3  -4  10 1567.50 600.040   1
   3  -4  11 1321.49 596.620   1
  -3   3  12 1487.68 711.461   1
  -3   3  11 20.5242 272.262   1
  -3   3  10 325.254 285.613   1
  -3   3   9 4491.18 993.682   1
   3  -3  -8 2302.76 602.818   4
   3  -3  -7 55.2005 167.432   4
   3  -3  -6 1645.09 463.286   4
  -3   3   6 1768.53 388.695   6
   3  -3  -6 1088.83 343.973   2
  -3   3   5 20845.4 1410.21   4
  -3   3   5 18653.1 851.146   3
   3  -3  -5 19722.6 1342.94   2
   3  -3  -5 18828.0 1321.57   4
  -3   3   4 6059.31 626.900   6
  -3   3   4 6033.43 477.532   3
  -3   3   4 6569.70 686.328   2
   3  -3  -4 6101.60 688.199   4
  -3   3   4 6359.72 712.999   4
  -3   3   3 12273.4 871.945   6
  -3   3   3 12959.9 871.979   5
  -3   3   3 12362.2 934.221   2
   3  -3  -3 10972.7 850.830   4
  -3   3   3 11460.3 877.834   4
   3  -3  -2 2547.31 357.615   6
  -3   3   2 2901.59 431.045   6
  -3   3   2 3219.35 430.751   5
  -3   3   2 3080.24 485.859   2
   3  -3  -2 3089.99 419.542   4
  -3   3   1 31603.4 1275.33   1
   3  -3  -1 33801.6 1400.79   5
   3  -3  -1 35656.2 1369.21   6
  -3   3   1 36010.7 1408.24   6
   3  -3  -1 31778.3 1281.95   4
  -3   3   0 3821.38 443.233   1
   3  -3   0 2733.29 431.066   6
   3  -3   0 3643.26 493.411   5
   3  -3   1 0.57256 168.410   1
  -3   3  -1 331.412 149.190   1
   3  -3   2 14029.6 927.624   1
  -3   3  -2 13115.4 917.099   1
   3  -3   3 972.737 286.735   1
  -3   3  -3 488.615 209.666   1
   3  -3   4 42995.0 1941.38   1
  -3   3  -4 43069.4 2036.96   1
   3  -3   5 18298.9 1372.30   1
  -3   3  -5 17682.6 1453.29   1
   3  -3   6 18009.7 1485.00   1
   3  -3   7 4245.46 786.339   1
   3  -3   8 11370.8 1360.20   1
   3  -3   9-179.180 278.091   1
   3  -3  10 432.526 275.557   1
   3  -3  11 671.872 415.686   1
  -3   2  12 254.967 429.376   1
  -3   2  11 285.793 291.134   1
  -3   2  10 743.488 401.163   1
  -3   2   9 652.576 353.254   1
  -3   2   8 870.983 397.805   1
   3  -2  -7 5683.29 727.111   2
   3  -2  -7 5604.26 818.847   4
   3  -2  -6 19017.2 1382.09   4
  -3   2   6 19409.1 1412.39   4
   3  -2  -5 395.135 192.968   4
  -3   2   5 395.364 131.097   3
  -3   2   5 453.028 201.859   4
  -3   2   4 14814.2 978.320   6
  -3   2   4 16946.2 833.500   3
   3  -2  -4 17149.0 1055.35   4
  -3   2   4 17244.4 1002.89   2
  -3   2   4 17955.5 1082.23   4
  -3   2   3 2632.53 394.958   2
  -3   2   3 3229.57 450.678   6
   3  -2  -3 2769.71 378.665   4
  -3   2   3 2812.32 381.653   4
   3  -2  -2 2179.45 345.973   6
  -3   2   2 2439.97 396.006   6
  -3   2   2 2177.70 349.286   5
   3  -2  -2 1610.47 266.826   4
  -3   2   1 154035. 2401.78   1
  -3   2   1 158784. 3004.40   6
   3  -2  -1 161129. 3003.38   5
   3  -2  -1 164917. 3077.47   6
   3  -2  -1 154125. 2337.11   4
   3  -2   0 27023.5 1305.38   6
  -3   2   0 26302.1 974.532   1
   3  -2   0 27365.6 1291.83   5
   3  -2   1 1480.11 350.209   6
   3  -2   1 1071.10 210.870   1
  -3   2  -1 1266.12 239.475   1
   3  -2   1 1262.89 290.069   5
   3  -2   2 105.961 83.9204   1
  -3   2  -2 79.1222 98.0005   1
  -3   2  -3 797.604 230.264   1
   3  -2   3 813.906 241.020   1
  -3   2  -4 191.435 149.649   1
   3  -2   4-112.585 120.580   1
   3  -2   5 3489.85 583.600   1
  -3   2  -5 4158.04 689.868   1
   3  -2   6 244.266 206.399   1
   3  -2   7 243.576 200.540   1
   3  -2   8 201.452 234.526   1
   3  -2   9 1054.80 454.187   1
   3  -2  10-117.487 321.332   1
   3  -2  11 3495.48 961.308   1
  -3   1  12 12585.9 1805.06   1
  -3   1  11 745.701 476.090   1
  -3   1  10 25.0908 154.933   1
  -3   1   9 3379.74 809.093   1
  -3   1   8 2957.38 693.480   1
   3  -1  -8 2527.73 472.108   2
  -3   1   7 72.7943 188.706   1
  -3   1   6 398.853 202.113   4
  -3   1   6 237.933 132.855   3
   3  -1  -6 227.195 136.031   2
  -3   1   5 12935.6 787.388   3
   3  -1  -5 12078.1 834.259   2
   3  -1  -5 12805.7 959.169   4
  -3   1   5 14224.2 1003.20   4
  -3   1   4 66079.9 1721.07   3
   3  -1  -4 66959.1 1894.17   4
  -3   1   4 66405.8 1708.03   2
  -3   1   4 67300.7 1911.86   4
   3  -1  -3 24643.4 1211.16   6
  -3   1   3 23241.3 1045.62   2
   3  -1  -3 23082.4 929.833   4
  -3   1   3 23285.9 930.035   4
   3  -1  -2 97.1740 68.1505   4
   3  -1  -2 102.401 125.075   6
  -3   1   1 18533.5 647.008   1
   3  -1  -1 18631.1 1073.57   6
   3  -1  -1 18670.1 609.687   4
  -3   1   0 2170.03 218.362   1
   3  -1   0 1542.74 342.156   6
   3  -1   0 2195.67 369.245   5
   3  -1   1 26665.5 873.793   1
   3  -1   1 30013.6 1519.49   6
  -3   1  -1 27316.6 934.628   1
   3  -1   1 29635.5 1367.04   5
   3  -1   2 1077.37 222.204   1
  -3   1  -2 1255.07 251.493   1
   3  -1   3 9002.31 731.222   1
  -3   1  -3 8472.59 756.485   1
   3  -1   4 25868.3 1412.88   1
   3  -1   4 25949.4 1519.23   4
   3  -1   5 8618.55 916.662   1
   3  -1   6 7927.36 961.987   1
   3  -1   7 3156.69 661.078   1
   3  -1   8 614.978 367.608   1
   3  -1   9 355.906 302.762   1
   3  -1  10 3821.77 900.110   1
   3  -1  11 105.421 357.163   1
  -3   0  12 176.161 273.144   1
  -3   0  11 3094.24 814.018   1
  -3   0  10 480.553 347.825   1
  -3   0   9 3343.09 770.396   1
   3   0  -9 2644.23 471.230   2
  -3   0   8 5319.45 895.397   1
  -3   0   7 2615.45 518.178   4
   3   0  -7 2970.88 467.896   3
   3   0  -7 2340.65 373.182   2
  -3   0   7 2479.32 574.985   1
  -3   0   6 3130.55 523.468   6
  -3   0   6 3720.61 467.446   3
   3   0  -6 3123.04 392.342   2
  -3   0   6 3417.93 530.130   4
  -3   0   6 4416.40 697.573   1
   3   0  -5 7212.88 549.765   2
  -3   0   5 7602.85 810.893   1
  -3   0   5 7690.92 636.797   3
  -3   0   5 7031.73 664.694   4
  -3   0   4 139350. 2038.93   2
  -3   0   4 136232. 2582.46   3
  -3   0   4 137522. 3024.53   1
  -3   0   4 136916. 2480.67   4
   3   0  -3 49327.0 1729.50   6
  -3   0   3 45210.7 1482.60   1
  -3   0   3 45231.1 1262.51   2
  -3   0   3 46648.1 1140.91   4
   3   0  -2 135.721 104.052   6
  -3   0   2 208.858 96.0668   1
   3   0  -1 41361.4 1658.52   6
   3   0   0 66839.1 1175.44   4
   3   0   0 66833.0 1918.72   5
   3   0   1 16798.6 601.186   1
   3   0   1 16400.1 988.700   5
   3   0   1 16797.0 790.940   4
   3   0   2 86119.8 2376.18   5
   3   0   2 82468.6 1843.65   1
   3   0   2 85305.1 2140.66   4
   3   0   3 11450.5 824.887   1
   3   0   4 291.465 161.008   4
   3   0   4 176.408 132.637   1
   3   0   5 134.090 158.907   1
   3   0   6 3444.47 662.169   1
   3   0   7 428.963 280.976   1
   3   0   8 1440.58 509.254   1
   3   0   9 3626.55 844.321   1
   3   0  10-310.798 305.517   1
   3   0  11 2788.21 838.477   1
  -3  -1  13 341.821 327.265   1
  -3  -1  12 703.902 504.512   1
  -3  -1  11 5320.40 1086.80   1
  -3  -1  10 7683.43 1204.08   1
  -3  -1   9 2204.72 626.092   1
  -3  -1   8 5404.54 879.555   1
   3   1  -8 5228.65 529.157   2
   3   1  -7 927.544 202.494   2
  -3  -1   7 1212.05 342.579   4
  -3  -1   7 587.046 288.077   1
  -3  -1   6 277.542 182.165   1
  -3  -1   6 278.316 161.323   3
  -3  -1   6 312.546 166.409   4
   3   1  -6 299.162 105.311   2
  -3  -1   5 77681.1 2098.21   3
  -3  -1   5 79548.8 2501.82   1
  -3  -1   5 78322.1 2142.92   4
  -3  -1   4 38091.1 1265.52   4
  -3  -1   4 39002.7 1542.55   1
  -3  -1   4 38471.1 782.677   2
  -3  -1   3 96543.7 1523.95   4
   3   1  -3 101256. 2556.15   6
  -3  -1   3 96734.4 2027.15   1
  -3  -1   2 81131.6 1384.26   1
   3   1  -2 82658.7 2333.10   6
  -3  -1   1 14902.5 878.238   5
   3   1  -1 17621.3 1116.34   6
  -3  -1   0 10446.6 740.203   5
   3   1   0 11518.3 540.624   4
   3   1   0 9841.77 864.062   6
   3   1   1 81103.9 1473.97   1
   3   1   1 82547.8 2152.47   5
   3   1   1 82607.0 1855.89   4
   3   1   2 20090.4 1111.33   5
   3   1   2 18507.6 919.631   1
   3   1   2 17781.1 1024.25   4
   3   1   3-170.158 136.386   5
   3   1   3 172.448 120.722   1
   3   1   4 6149.61 726.331   1
   3   1   4 6891.24 814.943   4
   3   1   5 142.688 155.501   1
   3   1   6 170.227 159.699   1
   3   1   7 326.126 258.837   1
   3   1   8 3666.32 791.617   1
   3   1   9 175.703 250.601   1
   3   1  10 3455.42 888.865   1
   3   1  11 327.865 302.025   1
  -3  -2  13 7074.94 1375.20   1
  -3  -2  12 1322.67 600.742   1
  -3  -2  11 73.3231 198.854   1
  -3  -2  10 9045.16 1300.31   1
  -3  -2   9 7517.63 1098.31   1
   3   2  -9 7598.56 625.070   2
  -3  -2   8 1536.64 476.543   1
   3   2  -8 1968.84 276.843   2
  -3  -2   7 13662.7 1261.35   1
   3   2  -7 13789.8 611.090   2
  -3  -2   7 14578.9 1177.84   4
  -3  -2   6 45337.0 2092.57   1
  -3  -2   6 41629.4 1800.94   4
  -3  -2   6 43604.1 1713.80   3
  -3  -2   6 42149.9 1987.32   6
  -3  -2   5 863.153 281.069   1
  -3  -2   4 67165.3 2032.17   1
   3   2  -4 64738.7 2066.41   1
  -3  -2   3 14324.0 799.535   1
   3   2  -3 15348.4 996.863   6
   3   2  -3 14106.6 821.370   1
  -3  -2   2 1181.07 194.957   1
   3   2  -2 1195.82 195.021   1
   3   2  -2 1145.41 303.638   6
  -3  -2   2 1139.91 164.165   4
   3   2  -1 47838.2 993.293   1
   3   2  -1 47041.3 1845.14   6
  -3  -2   1 45767.3 1802.30   6
  -3  -2   1 47273.0 1076.83   4
   3   2   0 57520.5 1118.23   1
  -3  -2   0 59288.0 1466.56   4
  -3  -2   0 55761.7 1684.51   5
   3   2   0 56766.5 1433.54   4
   3   2   1 25569.1 1492.52   6
  -3  -2  -1 22132.2 1077.69   4
   3   2   1 23033.6 1096.40   4
   3   2   2 8797.90 719.402   5
   3   2   2 10066.6 826.841   4
  -3  -2  -2 8681.18 782.486   4
   3   2   3 1617.21 361.658   1
   3   2   3 1553.04 325.348   5
  -3  -2  -3 1366.68 361.451   4
   3   2   4 1974.38 429.341   1
   3   2   4 1470.40 398.530   4
   3   2   4 1496.92 332.074   5
   3   2   5 1035.62 297.754   5
   3   2   5 1128.73 375.899   1
   3   2   6 327.925 235.045   1
   3   2   7 3262.74 730.571   1
   3   2   8 522.199 292.975   1
   3   2   9 774.796 409.983   1
   3   2  10 1141.55 538.756   1
  -3  -3  13-533.772 385.641   1
  -3  -3  12-267.129 278.372   1
  -3  -3  11 1171.91 493.785   1
  -3  -3  10-111.338 194.366   1
  -3  -3   9 415.527 299.493   1
   3   3  -9 166.071 95.2421   2
  -3  -3   8 422.146 304.420   1
   3   3  -8 55.1579 35.8637   2
  -3  -3   7 5761.74 825.615   1
  -3  -3   6 11948.1 926.440   3
   3   3  -6 12938.4 1183.85   1
  -3  -3   6 12057.5 1105.65   1
  -3  -3   5 10175.0 948.864   6
  -3  -3   5 11231.0 958.565   1
  -3  -3   4 4617.59 564.892   1
  -3  -3   4 4670.80 631.470   6
   3   3  -4 4544.30 561.958   1
  -3  -3   3 6818.22 599.258   1
   3   3  -3 6401.45 586.050   1
   3   3  -3 6518.49 693.503   6
  -3  -3   3 6833.59 756.539   6
  -3  -3   2 4805.86 445.599   1
   3   3  -2 5178.33 463.842   1
  -3  -3   2 3731.28 576.313   6
   3   3  -2 4698.68 589.289   6
  -3  -3   2 5226.69 447.872   4
   3   3  -1 2204.42 284.953   1
  -3  -3   1 2082.82 300.683   4
   3   3  -1 2912.68 479.215   6
   3   3   0 32218.1 1094.50   1
   3   3   0 34577.1 1729.93   6
  -3  -3   0 32371.7 1282.63   5
  -3  -3   0 33721.7 1300.09   4
   3   3   0 33526.9 1304.12   4
   3   3   1 27071.3 1552.98   6
  -3  -3  -1 26110.1 1286.88   4
   3   3   1 26804.6 1306.65   4
   3   3   2 60771.9 2532.94   6
  -3  -3  -2 59573.6 2169.52   4
   3   3   3 6940.67 653.947   5
  -3  -3  -3 6946.29 836.132   4
   3   3   3 6700.00 811.253   4
   3   3   4 2358.71 405.818   5
  -3  -3  -4 2686.22 568.348   4
   3   3   5 5413.99 649.391   5
   3   3   5 5623.05 851.840   1
   3   3   6 675.290 316.077   1
   3   3   6 1029.51 309.891   5
   3   3   7 267.310 228.571   1
   3   3   7 425.766 198.915   5
   3   3   8-989.710 480.896   1
   3   3   9 8661.93 1348.31   1
   3   3  10 10625.2 1584.22   1
  -3  -4  13 1445.93 631.557   1
  -3  -4  12 882.616 487.588   1
  -3  -4  11 2004.13 663.001   1
  -3  -4  10 173.895 214.229   1
  -3  -4   9-215.024 196.141   1
  -3  -4   8 6663.34 980.186   1
  -3  -4   7 33536.5 2029.95   1
  -3  -4   6 96016.6 3183.87   1
   3   4  -6 95072.4 3253.44   1
  -3  -4   5 4634.46 575.583   3
  -3  -4   5 5418.18 700.600   1
  -3  -4   5 4112.62 645.696   6
  -3  -4   4 1689.66 400.878   6
  -3  -4   4 941.190 273.707   1
  -3  -4   4 1065.33 272.442   3
  -3  -4   3 2730.92 415.727   1
  -3  -4   3 2417.31 271.353   2
  -3  -4   3 2858.97 504.743   6
   3   4  -3 2975.48 472.349   6
   3   4  -3 2102.20 371.960   1
  -3  -4   2 23683.7 1119.20   1
   3   4  -2 24498.1 1158.75   1
  -3  -4   2 22613.5 1395.64   6
   3   4  -2 26771.3 1390.94   6
  -3  -4   2 24948.3 1168.02   4
   3   4  -1 1.70044 69.3701   1
   3   4  -1 65.5539 121.854   6
  -3  -4   1-143.191 150.120   6
  -3  -4   1-93.2152 104.245   4
  -3  -4   0 209.204 145.144   4
   3   4   0-53.5225 60.2567   4
   3   4   0 129.657 167.820   6
   3   4   0 241.282 136.843   1
  -3  -4   0 82.3903 82.3666   5
  -3  -4  -1 1105.83 318.888   4
   3   4   1 1190.40 274.192   1
   3   4   1 1053.97 318.244   6
  -3  -4  -2 2587.50 496.143   4
   3   4   2 2631.55 499.741   4
   3   4   3 90.5198 158.329   6
  -3  -4  -3 422.395 245.144   4
  -3  -4  -4 15403.2 1414.70   4
   3   4   5 1101.12 266.518   5
  -3  -4  -5 1130.72 428.792   4
   3   4   6 3334.73 492.204   5
   3   4   6 3889.42 815.006   1
   3   4   7 797.087 394.295   1
   3   4   8 773.942 418.428   1
   3   4   9 864.007 520.647   1
  -3  -5  12 504.046 355.254   1
  -3  -5  11 1138.01 518.977   1
  -3  -5  10 2167.33 652.053   1
  -3  -5   9 108.977 172.789   1
  -3  -5   8 6466.78 984.436   1
  -3  -5   7 611.878 307.686   1
  -3  -5   6 20119.1 1525.87   1
  -3  -5   5 14303.9 1203.02   1
  -3  -5   5 13834.5 1013.68   3
  -3  -5   5 12524.3 1155.81   6
   3   5  -5 15267.8 1240.45   1
  -3  -5   4 2130.20 438.226   1
  -3  -5   4 1949.92 436.024   6
  -3  -5   4 1856.48 368.413   3
  -3  -5   3 2830.47 531.142   6
  -3  -5   3 3690.21 535.897   1
   3   5  -3 3851.56 529.544   6
  -3  -5   3 3503.59 468.681   3
  -3  -5   3 3582.33 404.445   2
   3   5  -2 18107.3 1123.77   1
  -3  -5   2 17891.9 1227.48   6
  -3  -5   2 17403.2 962.942   2
   3   5  -2 17712.2 1139.30   6
  -3  -5   2 18883.5 1167.63   4
  -3  -5   1 7828.52 759.883   4
   3   5  -1 7022.60 694.432   1
   3   5  -1 8006.88 819.995   6
   3   5   0 6285.53 763.588   6
  -3  -5   0 6175.04 557.072   5
  -3  -5   0 6051.83 714.487   4
  -3  -5  -1 2542.72 486.694   4
   3   5   1 2642.91 511.640   4
   3   5   1 1767.33 435.891   6
   3   5   2 8580.06 977.334   6
  -3  -5  -2 9821.99 1021.52   4
   3   5   3 20417.5 1620.62   6
  -3  -5  -3 31395.1 1953.35   4
   3   5   4 2497.87 621.459   6
  -3  -5  -4 4502.87 807.844   4
  -3  -5  -5 7998.76 1155.28   4
  -3  -5  -6 914.841 417.232   4
   3   5   7 2021.16 646.577   1
   3   5   8 1600.97 611.381   1
   3   5   9 7454.22 1352.43   1
  -3  -6  12 1592.47 670.084   1
  -3  -6  11 1468.75 567.227   1
  -3  -6  10 70.9581 164.193   1
  -3  -6   9 4346.45 894.447   1
  -3  -6   8 4452.61 853.222   1
  -3  -6   7 169.201 201.226   1
  -3  -6   6 25364.7 1795.90   1
  -3  -6   5 25889.3 1731.09   1
  -3  -6   5 23954.8 1369.78   3
  -3  -6   5 20426.2 1527.56   6
  -3  -6   4 3577.01 605.271   1
  -3  -6   4 4025.23 548.155   3
  -3  -6   4 4191.46 665.275   6
   3   6  -4 3073.43 552.254   1
   3   6  -3 2581.10 487.889   1
  -3  -6   3 3171.24 540.830   1
  -3  -6   3 3535.53 597.104   6
  -3  -6   3 2882.65 442.169   3
  -3  -6   3 2812.06 422.605   2
  -3  -6   3 3166.33 563.408   4
   3   6  -2 50925.4 2091.15   1
   3   6  -2 49593.2 1942.75   6
  -3  -6   2 45611.2 2026.44   6
  -3  -6   2 52327.7 1793.08   3
  -3  -6   2 53959.2 1938.68   2
  -3  -6   2 51843.3 2167.86   4
   3   6  -1 3176.64 537.892   1
   3   6  -1 2658.03 483.536   6
  -3  -6   1 3439.67 517.168   2
  -3  -6   1 3652.96 586.135   4
  -3  -6   0 428.170 235.402   4
   3   6   0-108.330 158.194   6
  -3  -6   0 99.5943 93.9888   5
   3   6   0 331.701 184.496   1
  -3  -6  -1 1635.92 435.510   4
   3   6   1 2154.85 499.442   6
   3   6   1 2110.37 444.813   1
   3   6   2 3171.81 639.676   6
  -3  -6  -2 4839.75 771.384   4
  -3  -6  -3 54.4322 184.244   4
   3   6   3 308.820 241.518   6
  -3  -6  -4 1061.56 414.601   4
   3   6   4 1397.30 494.285   6
   3   6   5 7.29218 283.097   6
  -3  -6  -5 152.706 232.698   4
   3   6   6 921.963 431.569   6
  -3  -6  -6 4353.80 936.653   4
   3   6   7 1525.63 586.534   1
   3   6   8 1175.79 569.414   1
  -3  -7  12 47.3881 261.341   1
  -3  -7  11 1136.53 499.025   1
  -3  -7  10 4528.64 974.633   1
  -3  -7   9 1442.61 538.949   1
  -3  -7   8 2407.55 652.375   1
  -3  -7   7 2146.36 586.228   1
  -3  -7   6 4187.26 766.983   1
  -3  -7   5 2221.40 517.497   6
  -3  -7   5 1080.55 391.805   1
  -3  -7   4 6908.17 899.522   1
  -3  -7   4 7325.64 746.862   3
  -3  -7   4 6549.15 881.755   6
  -3  -7   3 3731.56 666.398   4
  -3  -7   3 2849.23 519.652   6
  -3  -7   3 3278.74 604.625   1
  -3  -7   3 3681.37 512.659   3
  -3  -7   3 3957.79 568.053   2
  -3  -7   2 4500.47 716.223   4
  -3  -7   2 4513.79 538.027   3
  -3  -7   2 3735.02 588.170   2
   3   7  -2 4973.95 629.239   6
  -3  -7   1 206.110 171.988   4
   3   7  -1 165.500 138.582   6
  -3  -7   0 3356.24 655.803   4
  -3  -7   0 2761.43 347.744   5
   3   7   0 3031.95 539.963   6
   3   7   1 4725.28 718.677   6
  -3  -7  -1 5129.83 824.493   4
  -3  -7  -2-86.2107 162.626   4
   3   7   2 176.214 192.247   6
  -3  -7  -3 4142.26 810.153   4
   3   7   3 2399.92 575.587   6
  -3  -7  -4 1398.40 529.697   4
   3   7   4 642.148 352.190   6
   3   7   5 1358.35 494.322   6
  -3  -7  -5 2745.43 739.799   4
   3   7   6 50.1525 279.292   6
  -3  -7  -6 575.862 388.063   4
  -3  -7  -7 1071.11 526.993   4
  -3  -8  11-82.3594 161.195   1
  -3  -8  10 5457.25 1104.87   1
  -3  -8   9 2344.22 699.137   1
  -3  -8   8 3246.67 799.329   1
  -3  -8   7 68.7495 156.701   1
  -3  -8   6 51.1889 203.945   1
  -3  -8   5 330.569 242.782   1
  -3  -8   4 3657.75 714.127   4
  -3  -8   4 3189.12 602.080   6
  -3  -8   4 3460.06 691.567   1
  -3  -8   3-144.977 149.341   2
  -3  -8   3-83.1122 184.741   4
  -3  -8   3-81.1720 106.260   3
  -3  -8   3-216.585 169.549   6
  -3  -8   2 490.311 273.749   4
  -3  -8   2 414.344 175.043   3
  -3  -8   1-81.2533 148.219   4
   3   8  -1 51.7314 114.480   6
  -3  -8   1 146.370 107.653   3
  -3  -8   1 82.8436 68.1003   5
   3   8   0 10067.0 973.012   6
  -3  -8   0 11780.4 1295.89   4
   3   8   1 5105.37 735.807   6
  -3  -8  -1 6773.83 1021.04   4
  -3  -8  -2 3085.76 714.365   4
   3   8   2 2208.56 534.103   6
  -3  -8  -3 717.183 364.771   4
   3   8   3 127.772 162.043   6
  -3  -8  -4 120.826 186.995   4
  -3  -8  -5-257.909 295.278   4
  -3  -8  -6-68.8379 312.972   4
  -3  -9  11 2743.37 827.811   1
  -3  -9  10 2533.86 780.767   1
  -3  -9   9 330.758 280.690   1
  -3  -9   8 2047.67 606.846   1
  -3  -9   7 901.953 442.270   1
  -3  -9   6-187.793 231.716   1
  -3  -9   5 12731.2 1429.86   1
  -3  -9   5 12724.6 1438.15   4
  -3  -9   4 5047.94 923.881   4
  -3  -9   3 254.194 284.403   4
  -3  -9   2 4570.18 866.153   4
  -3  -9   1 216.579 232.163   4
   3   9  -1-3.39139 109.706   6
  -3  -9   0 4064.88 846.555   4
   3   9   0 3472.96 538.674   6
  -3  -9  -1 1149.38 451.891   4
  -3  -9  -2-82.9930 158.851   4
  -3  -9  -3 3311.18 800.375   4
  -3  -9  -4 142.308 230.689   4
  -3  -9  -5-193.142 244.116   4
  -3 -10  10 1241.83 562.948   1
  -3 -10   9 10445.0 1579.69   1
  -3 -10   8 4615.79 1002.82   1
  -3 -10   7 3556.68 886.286   1
  -3 -10   6 652.118 371.512   4
  -3 -10   6 726.075 374.674   1
  -3 -10   5 97.2219 227.404   4
  -3 -10   5 396.932 279.846   1
  -3 -10   4-14.1525 220.905   4
  -3 -10   3 9144.35 1291.83   4
  -3 -10   2 299.611 263.044   4
  -3 -10   1 6727.19 1123.84   4
  -3 -10   0 3022.57 765.134   4
  -3 -10  -1 1346.34 573.271   4
  -3 -10  -2 78.4547 136.449   4
  -3 -10  -3 255.772 270.254   4
  -3 -10  -4 156.243 308.208   4
  -3 -11   9 2277.29 782.513   1
  -3 -11   8 3330.91 895.609   1
  -3 -11   7 1072.90 503.932   1
  -3 -11   6 383.266 327.492   4
  -3 -11   6 593.854 366.913   1
  -3 -11   5-144.606 200.638   4
  -3 -11   4 310.952 304.495   4
  -3 -11   3 1353.49 540.609   4
  -3 -11   2 2702.84 756.349   4
  -3 -11   1 1689.32 611.428   4
  -3 -11   0 940.367 458.458   4
  -3 -11  -1 3666.43 908.995   4
  -3 -11  -2-23.5128 254.211   4
  -3 -12   8-115.465 284.620   4
  -3 -12   7-623.184 427.374   4
  -3 -12   7 112.985 232.644   1
  -3 -12   6 668.197 430.451   4
  -3 -12   5 1020.84 555.899   4
  -3 -12   4 809.920 441.390   4
  -3 -12   3 1246.61 581.763   4
  -3 -12   2-441.941 319.355   4
  -3 -12   1 1396.08 614.704   4
  -3 -12   0-726.942 472.911   4
   4 -12  -1 759.062 476.946   4
  -4  12   1 612.073 366.929   2
   4 -12   0-313.676 353.606   4
  -4  12   0 852.901 448.983   2
   4 -12   1 1605.82 659.397   4
  -4  12  -1 2674.86 751.995   2
   4 -12   2 2085.62 724.896   4
   4 -12   2 1216.14 441.383   5
  -4  12  -2 2411.70 739.143   2
   4 -12   3 2158.94 619.634   5
   4 -12   3 4570.69 1111.87   4
  -4  12  -3 2743.90 793.159   2
   4 -12   4 1506.72 576.339   5
  -4  12  -4 1332.07 544.399   2
  -4  12  -5 224.848 363.967   2
   4 -11  -4-58.6649 136.829   4
   4 -11  -3 653.501 384.532   4
  -4  11   2 113.190 191.797   2
   4 -11  -2 697.579 482.552   4
   4 -11  -1 96.7643 295.294   4
  -4  11   1-4.21881 194.284   2
   4 -11   0-190.964 300.769   4
   4 -11   0 9.00925 40.3951   5
  -4  11   0-197.107 242.514   2
   4 -11   1 755.474 469.975   4
   4 -11   1 813.473 360.625   5
  -4  11  -1 1052.95 474.519   2
   4 -11   2 524.950 444.903   4
   4 -11   2-203.838 228.122   5
  -4  11  -2 594.401 384.355   2
   4 -11   3 3013.10 839.371   4
   4 -11   3 1910.07 583.398   5
  -4  11  -3 2427.33 713.769   2
  -4  11  -4-502.104 360.080   2
  -4  11  -5-299.069 395.762   2
  -4  11  -6 5486.48 1173.11   2
   4 -11   6 6771.56 1312.93   1
  -4  11  -7 11126.0 1657.93   2
   4 -10  -6 322.400 341.976   4
   4 -10  -5 1486.72 600.669   4
   4 -10  -4 706.781 415.686   4
   4 -10  -3 2220.71 684.252   4
  -4  10   3 1238.15 498.415   2
   4 -10  -2-65.1581 211.057   4
  -4  10   2-167.489 267.925   2
   4 -10  -1 962.980 454.316   4
  -4  10   1 960.266 463.656   2
   4 -10   0 446.579 284.162   4
   4 -10   0 617.083 264.088   5
  -4  10   0 845.178 437.725   2
   4 -10   1 4350.76 948.367   4
   4 -10   1 4422.94 777.781   5
  -4  10  -1 3292.09 773.651   2
   4 -10   2 2117.49 678.792   4
   4 -10   2 1648.52 508.527   5
  -4  10  -2 2027.03 616.531   2
   4 -10   3 7.18894 50.7409   5
  -4  10  -3 52.1262 172.528   2
  -4  10  -4 296.160 317.801   2
  -4  10  -5 447.064 393.926   2
   4 -10   5 450.067 328.035   1
   4 -10   6-53.7618 239.896   1
   4 -10   7 900.059 464.103   1
   4  -9  -7 2144.78 734.002   4
   4  -9  -6 159.088 218.307   4
   4  -9  -5 87.6184 219.264   4
   4  -9  -4 2358.24 692.851   4
  -4   9   4 2139.65 623.033   2
   4  -9  -3 1170.09 485.504   4
  -4   9   3 781.309 392.958   2
   4  -9  -2 4033.52 857.250   4
  -4   9   2 4649.05 887.828   2
   4  -9  -1 8932.76 935.409   5
  -4   9   1 8854.31 1215.77   2
   4  -9  -1 8603.10 1219.95   4
   4  -9   0 165.632 257.292   4
  -4   9   0-96.5612 185.243   2
   4  -9   0 196.698 203.819   5
   4  -9   1 3346.35 770.528   4
   4  -9   1 4566.21 773.566   5
  -4   9  -1 3656.59 816.255   2
   4  -9   2 46.0824 97.6928   6
  -4   9  -2-31.5351 168.050   2
   4  -9   3 4133.38 614.794   6
  -4   9  -3 8516.62 1267.50   2
   4  -9   4 119.859 138.644   6
   4  -9   4 314.959 259.594   1
   4  -9   5 808.901 416.623   1
   4  -9   5 111.448 146.400   6
   4  -9   6 1001.07 491.442   1
   4  -9   7 3434.14 845.780   1
   4  -9   8 3504.52 908.052   1
   4  -8  -8 680.438 454.563   4
   4  -8  -7 256.042 279.792   4
   4  -8  -6 4008.97 877.289   4
   4  -8  -5 1015.80 462.338   4
   4  -8  -4 600.932 407.887   4
  -4   8   4 489.538 315.442   2
   4  -8  -3-54.9137 195.024   4
  -4   8   3 136.276 61.1251   3
  -4   8   3 345.873 281.118   2
  -4   8   2 22780.0 1828.70   2
   4  -8  -2 22174.0 1811.82   4
   4  -8  -1 2140.40 583.529   4
   4  -8  -1 2666.76 498.079   5
  -4   8   1 2675.03 642.507   2
   4  -8   0 405.920 297.060   4
   4  -8   0 139.524 88.6417   6
   4  -8   0 135.234 138.737   5
  -4   8   0 404.492 281.620   2
  -4   8  -1 227.476 250.096   2
   4  -8   1 50.8964 84.5260   5
   4  -8   1-199.852 237.171   4
   4  -8   1 107.689 92.3934   6
   4  -8   2 11138.1 976.339   6
   4  -8   2 12846.4 1304.29   5
  -4   8  -2 12274.6 1436.39   2
   4  -8   3 11520.8 1328.44   1
   4  -8   3 10603.1 1036.34   6
   4  -8   4 5629.62 962.800   1
   4  -8   4 2597.68 592.109   6
   4  -8   5-311.331 250.354   1
   4  -8   6 2005.14 629.213   1
   4  -8   7 3904.90 886.921   1
   4  -8   8-375.964 295.671   1
   4  -8   9 42.4995 207.360   1
   4  -7  -9 7975.22 1363.49   4
   4  -7  -8 613.941 397.286   4
   4  -7  -7-113.043 216.992   4
   4  -7  -6 880.499 385.858   4
   4  -7  -5 5446.90 941.855   4
   4  -7  -4 234.264 244.847   4
  -4   7   4 185.612 69.2154   3
  -4   7   4-1.48605 147.196   2
  -4   7   3 39877.3 2324.70   2
   4  -7  -3 38563.0 2282.36   4
   4  -7  -2 736.610 385.743   4
  -4   7   2 661.158 328.911   2
   4  -7  -1 10029.0 967.821   5
  -4   7   1 10298.8 1196.23   2
   4  -7  -1 11048.4 1184.51   4
  -4   7   0 1115.79 418.656   2
   4  -7   0 893.526 228.903   6
   4  -7   0 853.052 309.903   5
  -4   7  -1-19.4438 136.032   2
   4  -7   1 192.306 186.268   5
   4  -7   1 95.5221 105.901   6
   4  -7   2 3878.04 588.274   6
   4  -7   3 21951.1 1705.34   1
   4  -7   3 13407.3 1223.91   6
   4  -7   4 3029.23 673.305   1
   4  -7   5 223.354 233.792   1
   4  -7   6 1196.18 464.323   1
   4  -7   7 1362.20 532.054   1
   4  -7   8 299.648 303.578   1
   4  -7   9 339.007 344.273   1
   4  -7  10 5.52466 104.885   1
   4  -6 -10 879.124 512.831   4
   4  -6  -9 919.138 473.722   4
   4  -6  -8 4328.90 904.303   4
   4  -6  -7 4481.85 868.559   4
   4  -6  -6 3522.37 728.646   4
  -4   6   5 720.433 324.740   2
   4  -6  -5 41.3953 144.597   4
  -4   6   5 696.976 148.042   3
  -4   6   4 14866.8 727.621   3
  -4   6   4 13619.7 1065.74   6
  -4   6   4 13397.4 1272.17   2
   4  -6  -4 14295.9 1337.89   4
  -4   6   3 27.5554 58.1965   6
  -4   6   3 38.0515 119.628   2
  -4   6   2 19468.4 1558.82   2
   4  -6  -2 19571.0 1457.90   4
   4  -6  -1 1423.07 410.977   4
   4  -6  -1 1849.62 322.327   6
   4  -6  -1 1834.38 408.056   5
  -4   6   1 1369.21 425.587   2
  -4   6   0 807.992 358.909   2
   4  -6   0 537.311 270.335   4
   4  -6   0 666.874 223.326   6
   4  -6   0 519.458 245.582   5
   4  -6   1 4213.84 628.096   6
   4  -6   1 4130.84 677.589   5
   4  -6   2 2091.52 471.596   6
   4  -6   2 1907.50 483.182   1
   4  -6   3 6768.32 885.572   1
   4  -6   3 7448.33 951.029   6
   4  -6   4 5824.12 868.921   1
   4  -6   5 13332.4 1370.21   1
   4  -6   6 2867.31 679.489   1
   4  -6   7 2143.26 619.229   1
   4  -6   8-100.259 229.022   1
   4  -6   9 151.483 237.970   1
   4  -6  10-471.214 358.641   1
  -4   5  11-54.2182 312.025   1
   4  -5 -10 2549.52 779.669   4
   4  -5  -9 1998.70 632.850   4
   4  -5  -8 293.003 272.379   4
   4  -5  -7 1344.73 459.515   4
   4  -5  -6 1950.05 542.999   4
  -4   5   6 2736.59 529.135   6
  -4   5   6 2460.73 469.139   5
  -4   5   5 5938.21 742.046   6
  -4   5   5 6711.19 517.927   3
  -4   5   5 7916.54 925.725   2
  -4   5   5 6928.35 757.229   5
   4  -5  -5 7097.68 923.775   4
   4  -5  -4 2117.76 478.163   4
  -4   5   4 2485.50 444.962   5
  -4   5   4 2281.71 506.248   2
   4  -5  -3 1550.15 382.956   4
  -4   5   3 919.469 277.695   6
  -4   5   3 1522.11 402.854   2
  -4   5   2 9363.57 929.904   1
  -4   5   2 7807.78 939.279   2
  -4   5   2 9366.03 813.168   6
   4  -5  -2 10135.9 784.705   6
   4  -5  -2 9500.37 919.580   4
   4  -5  -1 563.100 239.791   4
   4  -5  -1 101.464 112.493   6
   4  -5  -1 69.5326 114.786   5
  -4   5   1 407.058 198.814   1
  -4   5   0 9348.78 901.816   1
   4  -5   0 8408.73 807.573   6
   4  -5   0 9045.70 925.526   5
  -4   5  -1 2149.84 440.464   1
   4  -5   1 2065.72 436.645   6
   4  -5   1 2158.77 465.226   5
   4  -5   2 14311.0 1152.43   1
  -4   5  -2 14189.1 1170.03   1
   4  -5   3 288.660 183.634   1
   4  -5   4 24778.9 1680.44   1
   4  -5   5 18696.9 1545.42   1
   4  -5   6 184.936 208.449   1
   4  -5   7 2427.98 638.287   1
   4  -5   8 991.137 469.728   1
   4  -5   9 508.803 329.815   1
   4  -5  10 854.887 452.881   1
  -4   4  11 3048.54 920.118   1
  -4   4  10-175.163 357.010   1
   4  -4  -9 2059.85 620.231   4
   4  -4  -8 42.8678 169.319   4
   4  -4  -7 1672.45 495.311   4
   4  -4  -6 3799.28 675.426   4
  -4   4   6 3271.72 403.775   3
  -4   4   6 1973.41 462.220   6
  -4   4   6 3196.68 539.529   5
  -4   4   5 29086.9 1665.49   2
  -4   4   5 25392.5 1524.34   6
  -4   4   5 26210.4 1110.10   3
  -4   4   5 29557.5 1574.27   5
   4  -4  -5 24158.7 1574.59   4
  -4   4   4 44523.7 2047.05   2
  -4   4   4 48539.3 1992.01   5
   4  -4  -4 45302.3 2004.19   4
  -4   4   4 42280.8 1956.83   4
  -4   4   3 6987.33 777.667   6
  -4   4   3 7580.05 776.389   5
  -4   4   3 6438.35 790.464   2
   4  -4  -3 5643.94 674.731   4
  -4   4   2 12755.0 1135.93   2
  -4   4   2 12530.8 972.710   1
   4  -4  -2 10868.0 838.533   6
  -4   4   2 9941.14 852.838   6
   4  -4  -2 12719.8 959.502   4
  -4   4   1 2557.71 431.788   1
   4  -4  -1 2405.85 450.986   5
   4  -4  -1 2143.52 402.248   6
   4  -4  -1 2750.70 444.541   4
  -4   4   0 3519.45 499.320   1
   4  -4   0 3676.43 583.628   5
   4  -4   1-98.2980 150.461   6
  -4   4  -1 206.052 144.466   1
   4  -4   1 167.736 129.757   1
   4  -4   1 41.4016 136.810   5
   4  -4   2 147.681 159.758   6
   4  -4   2 591.700 228.013   1
  -4   4  -2 630.988 232.017   1
  -4   4  -3 857.021 304.967   1
   4  -4   3 933.700 286.283   1
   4  -4   4 159.578 156.923   1
  -4   4  -4 121.900 136.199   1
   4  -4   5 3644.91 663.054   1
   4  -4   6 8891.09 1097.26   1
   4  -4   7 2088.39 591.461   1
   4  -4   8 126.221 272.764   1
   4  -4   9-23.7923 70.8941   1
   4  -4  10 277.446 281.365   1
  -4   3  12 12259.8 1927.07   1
  -4   3  11 579.864 426.016   1
  -4   3  10 2541.11 795.101   1
  -4   3   9-178.042 245.609   1
   4  -3  -8 9352.70 1175.11   4
   4  -3  -7 4561.42 769.732   4
  -4   3   6 39305.8 1470.26   3
   4  -3  -6 39547.1 2018.42   4
   4  -3  -5 1592.20 383.335   4
  -4   3   5 1363.35 363.631   4
  -4   3   5 1430.43 372.743   6
  -4   3   5 1417.49 283.653   3
  -4   3   5 1301.82 335.978   2
  -4   3   4 20175.3 1269.52   5
  -4   3   4 20563.4 1301.54   2
   4  -3  -4 19021.1 1189.48   4
  -4   3   4 19934.8 1221.70   4
   4  -3  -3 2699.77 449.811   6
   4  -3  -3 2768.62 421.273   4
  -4   3   3 2356.65 454.515   2
   4  -3  -2 2667.04 450.689   6
  -4   3   2 1847.15 403.569   6
   4  -3  -2 2383.44 370.368   4
  -4   3   1 4869.41 516.151   1
   4  -3  -1 3898.83 557.187   6
   4  -3  -1 4200.98 576.566   5
   4  -3  -1 4746.98 503.960   4
  -4   3   0 23838.6 1145.22   1
   4  -3   0 20676.9 1355.52   6
   4  -3   0 24720.1 1448.82   5
  -4   3  -1 165.196 118.147   1
   4  -3   1 50.0771 78.9260   6
   4  -3   1 220.944 127.153   1
   4  -3   1 190.217 188.728   5
  -4   3  -2 98.7123 75.7585   1
   4  -3   2 8.29283 109.531   6
   4  -3   2 76.5271 157.647   5
   4  -3   2 29.2368 79.2222   1
   4  -3   3 5635.22 667.376   1
  -4   3  -3 6187.73 725.206   1
   4  -3   4 14628.1 1150.11   1
  -4   3  -4 13775.0 1201.09   1
   4  -3   5 11316.1 1108.82   1
   4  -3   6 46.6797 147.274   1
   4  -3   7 4906.89 843.916   1
   4  -3   8 106.396 170.260   1
   4  -3   9-152.768 221.779   1
   4  -3  10 696.154 418.518   1
  -4   2  12 148.229 253.229   1
  -4   2  11 416.959 324.141   1
  -4   2  10 1926.70 679.643   1
  -4   2   9 1255.91 505.312   1
  -4   2   8 67.0065 129.312   1
   4  -2  -7 10254.0 1073.67   4
   4  -2  -7 10526.5 1013.92   2
  -4   2   7 9443.03 785.033   3
  -4   2   6 988.085 310.692   4
  -4   2   6 789.372 223.189   3
   4  -2  -6 857.171 294.763   4
   4  -2  -5 108.482 111.208   4
  -4   2   5 266.281 161.774   4
  -4   2   5 105.639 133.465   6
  -4   2   5 86.5051 71.7974   3
  -4   2   5 47.8441 83.2518   2
   4  -2  -4 622.378 208.394   4
  -4   2   4 497.961 175.156   4
  -4   2   4 705.582 238.566   2
   4  -2  -3 15201.1 1050.09   6
  -4   2   3 15635.8 1084.71   2
   4  -2  -3 14234.7 820.094   4
   4  -2  -2 1488.16 242.171   4
   4  -2  -2 1409.43 339.220   6
  -4   2   1 1999.25 280.338   1
   4  -2  -1 1964.17 409.270   6
   4  -2  -1 1883.82 386.788   5
   4  -2  -1 1978.43 272.478   4
  -4   2   0 44270.6 1324.88   1
   4  -2   0 49832.8 2133.06   6
   4  -2   0 46672.0 1928.07   5
   4  -2   1 32131.8 1144.04   1
  -4   2  -1 32366.1 1221.29   1
   4  -2   1 32370.3 1668.90   5
   4  -2   1 31105.9 1745.57   6
   4  -2   2 9857.63 725.089   1
  -4   2  -2 9814.46 762.711   1
   4  -2   2 10927.8 1129.91   6
   4  -2   2 11024.0 1021.91   5
   4  -2   3 25.3025 102.842   1
  -4   2  -3 100.631 106.059   1
  -4   2  -4-155.522 131.218   1
   4  -2   4 45.0749 93.1089   1
   4  -2   5 8823.73 948.245   1
   4  -2   6 136.097 139.099   1
   4  -2   7-105.951 140.606   1
   4  -2   8 67.8425 216.921   1
   4  -2   9 2972.20 765.048   1
   4  -2  10 674.792 378.210   1
  -4   1  12 2753.87 892.083   1
  -4   1  11 308.522 299.127   1
  -4   1  10 172.809 80.7977   1
  -4   1   9 5655.94 1005.06   1
   4  -1  -8 21706.3 1386.26   2
  -4   1   8 24368.7 1942.10   1
  -4   1   7 1417.63 378.789   4
  -4   1   7 1324.40 447.381   1
  -4   1   7 1477.00 315.990   3
  -4   1   6 7379.26 686.961   3
  -4   1   6 6586.22 869.311   1
  -4   1   6 8265.83 825.724   4
  -4   1   5 3612.57 586.863   6
  -4   1   5 3682.02 445.561   2
   4  -1  -5 3226.38 464.753   4
  -4   1   5 3474.09 462.368   3
  -4   1   5 3038.37 441.435   4
  -4   1   4 39451.8 1890.07   6
  -4   1   4 38537.9 1477.27   2
   4  -1  -4 38333.8 1339.37   4
  -4   1   4 38315.7 1317.32   4
   4  -1  -3 13850.2 1012.63   6
   4  -1  -3 12508.0 620.772   4
  -4   1   3 11483.3 593.125   4
   4  -1  -2 3559.15 274.278   4
   4  -1  -2 3903.03 563.196   6
  -4   1   1 9661.48 469.898   1
   4  -1  -1 10490.5 953.021   6
   4  -1  -1 9009.72 432.969   4
  -4   1   0 18596.5 655.092   1
   4  -1   0 19450.1 1350.57   6
   4  -1   0 18986.8 1210.77   5
   4  -1   1 3543.45 317.292   1
   4  -1   1 3575.19 624.571   6
  -4   1  -1 3924.89 367.333   1
   4  -1   1 3546.58 549.014   5
   4  -1   2 7219.51 565.310   1
   4  -1   2 6559.78 877.570   6
  -4   1  -2 6908.26 593.366   1
   4  -1   2 5782.70 725.998   5
   4  -1   2 6832.72 655.006   4
   4  -1   3 26.7267 53.7217   1
   4  -1   3 21.0861 91.2293   5
   4  -1   4 11666.0 951.144   1
   4  -1   4 11670.6 1067.45   4
   4  -1   5-88.9986 119.821   1
   4  -1   6 2805.02 578.401   1
   4  -1   7 6649.30 967.202   1
   4  -1   8 322.371 232.937   1
   4  -1   9-12.2884 107.604   1
   4  -1  10-76.8142 158.534   1
  -4   0  13-508.094 400.986   1
  -4   0  12 897.054 485.548   1
  -4   0  11 2292.02 700.606   1
  -4   0  10-163.639 191.310   1
  -4   0   9 360.812 272.163   1
  -4   0   8 11692.7 1307.27   1
   4   0  -8 9777.96 834.610   2
  -4   0   7 1978.82 427.934   4
  -4   0   7 1824.45 373.484   3
  -4   0   7 2025.77 508.007   1
  -4   0   6 3262.22 476.503   3
  -4   0   6 3598.08 514.185   4
  -4   0   6 2802.07 543.103   1
  -4   0   5 2816.27 431.172   3
  -4   0   5 3063.49 348.195   2
  -4   0   5 2637.94 475.968   1
  -4   0   5 2955.16 405.397   4
  -4   0   4 13252.3 916.698   1
   4   0  -4 12133.0 1007.50   6
  -4   0   4 13793.0 783.708   2
  -4   0   4 12792.0 678.748   4
   4   0  -3 2366.37 443.080   6
  -4   0   3 1995.45 300.648   1
  -4   0   3 1804.27 178.230   4
  -4   0   2 717.485 135.059   1
   4   0  -2 464.144 226.706   6
   4   0  -1 24481.7 1488.17   6
   4   0   0 1173.66 367.432   6
   4   0   0 2089.37 400.794   5
   4   0   0 1771.74 216.192   4
   4   0   1 339.049 126.008   4
   4   0   1 237.020 67.5474   1
   4   0   1 459.463 261.405   6
   4   0   1 580.027 251.851   5
   4   0   2 43288.9 1277.74   1
   4   0   2 40989.0 1885.38   5
   4   0   2 42441.1 2285.24   6
   4   0   2 41038.4 1572.80   4
   4   0   3 43417.8 1587.77   1
   4   0   3 44725.9 2028.99   5
   4   0   4 9307.73 981.006   5
   4   0   4 9472.64 866.048   1
   4   0   4 9753.63 976.540   4
   4   0   5 2409.11 494.934   1
   4   0   5 2888.51 571.902   5
   4   0   6 3212.76 625.555   1
   4   0   7 3928.38 763.568   1
   4   0   8 1266.23 454.768   1
   4   0   9 349.177 284.869   1
  -4  -1  13 7780.34 1447.87   1
  -4  -1  12 461.048 360.009   1
  -4  -1  11 1862.27 623.797   1
  -4  -1  10 1891.89 596.509   1
  -4  -1   9 12193.4 1391.79   1
   4   1  -9 10654.3 795.240   2
  -4  -1   8 2763.51 630.403   1
  -4  -1   7 585.373 252.536   4
  -4  -1   7 497.184 204.249   3
  -4  -1   7 708.062 286.767   1
  -4  -1   6 1070.25 267.050   4
  -4  -1   6 1598.26 343.652   3
  -4  -1   6 996.690 309.329   1
  -4  -1   5 8072.79 743.927   3
  -4  -1   5 7851.74 778.061   1
  -4  -1   5 8175.81 436.821   2
  -4  -1   5 8065.78 634.070   4
  -4  -1   4 179.990 82.4965   2
  -4  -1   4 138.560 72.9028   4
  -4  -1   4-154.010 117.993   1
   4   1  -4 255.031 172.825   6
   4   1  -3 53720.0 2065.33   6
  -4  -1   3 52341.1 1396.24   1
  -4  -1   2 33568.5 721.292   1
   4   1  -2 34743.1 1741.55   6
   4   1  -1 638.291 276.730   6
  -4  -1   1 898.750 271.545   5
   4   1   0 2624.51 539.023   6
  -4  -1   0 3775.17 526.455   5
   4   1   0 3817.95 336.114   4
   4   1   1 17157.9 1364.29   6
   4   1   1 19588.4 1225.08   5
   4   1   1 20202.3 982.734   4
   4   1   1 19927.7 635.819   1
   4   1   2 6754.64 913.919   6
   4   1   2 5342.40 471.503   1
   4   1   2 5792.24 694.307   5
   4   1   2 4933.78 572.519   4
   4   1   3 45.9773 89.3481   1
   4   1   3 19.3899 130.853   5
   4   1   4 2364.01 446.590   1
   4   1   4 2479.06 502.992   5
   4   1   5 10926.1 1065.36   1
   4   1   5 9153.24 984.038   5
   4   1   6 2813.02 606.936   1
   4   1   6 1485.59 419.013   5
   4   1   7-43.6856 149.909   1
   4   1   7-110.591 192.120   5
   4   1   8 371.859 296.822   1
   4   1   8 452.577 296.611   5
   4   1   9 2640.73 726.631   1
   4   1   9 1591.86 515.115   5
  -4  -2  13 2.88065 310.776   1
  -4  -2  12 1222.25 541.487   1
  -4  -2  11 94.3759 140.974   1
  -4  -2  10 9836.89 1307.93   1
  -4  -2   9 6720.20 1018.10   1
  -4  -2   8 21179.8 1687.40   1
  -4  -2   7 891.796 334.271   1
  -4  -2   7 1217.53 326.745   3
  -4  -2   7 1446.15 356.385   4
  -4  -2   6 7903.00 780.592   3
  -4  -2   6 8755.42 908.094   1
  -4  -2   6 7613.26 717.554   4
  -4  -2   5 8418.12 649.998   4
  -4  -2   5 8069.27 786.062   1
  -4  -2   5 7694.14 747.076   3
  -4  -2   5 7266.12 880.374   6
  -4  -2   4 31406.4 1339.28   1
   4   2  -4 28655.1 1609.58   6
  -4  -2   3-26.4129 33.4488   4
  -4  -2   3 13.9788 51.0937   1
   4   2  -3 19.6125 60.0718   1
   4   2  -2 960.866 311.893   6
   4   2  -2 579.092 125.451   1
  -4  -2   2 740.923 311.302   6
  -4  -2   2 666.353 121.824   1
  -4  -2   2 676.859 99.7601   4
   4   2  -1 11930.7 1087.14   6
  -4  -2   1 12359.4 1111.34   6
  -4  -2   1 12555.5 942.256   5
  -4  -2   1 11934.9 538.517   4
   4   2   0 1230.55 378.126   6
   4   2   0 1293.90 138.682   1
   4   2   0 1294.04 150.398   1
  -4  -2   0 1371.14 318.665   5
   4   2   0 1665.46 256.142   4
  -4  -2   0 1547.52 258.607   4
   4   2   1 22123.6 1119.37   4
   4   2   1 22003.0 871.450   1
   4   2   2 12261.5 1248.80   6
   4   2   2 11084.8 763.299   1
   4   2   2 10767.2 923.628   5
   4   2   3 11687.5 930.239   1
   4   2   3 8995.86 1156.25   6
   4   2   3 11765.6 995.608   5
   4   2   3 11303.1 1027.75   4
   4   2   4 6560.44 776.501   1
   4   2   4 5831.55 739.657   5
   4   2   5 149.832 138.700   5
   4   2   5 320.632 234.969   1
   4   2   6 593.366 272.404   5
   4   2   6 1121.06 395.528   1
   4   2   7-39.5481 158.590   5
   4   2   7-54.6011 137.147   1
   4   2   8 74.7843 127.269   1
   4   2   8-210.502 234.645   5
  -4  -3  13-398.457 368.404   1
  -4  -3  12 1541.39 617.901   1
  -4  -3  11 206.399 243.997   1
  -4  -3  10 350.197 291.551   1
  -4  -3   9 1460.91 504.384   1
  -4  -3   8 11777.3 1262.38   1
  -4  -3   7 29120.0 1614.37   3
  -4  -3   7 26104.3 1530.03   4
  -4  -3   7 27431.7 1781.12   1
  -4  -3   6 3498.52 536.647   3
   4   3  -6 4099.93 658.874   1
  -4  -3   6 4197.81 641.206   1
  -4  -3   5 853.615 270.620   3
  -4  -3   5 1536.20 361.055   1
  -4  -3   4 653.029 205.262   1
   4   3  -4 732.910 227.907   1
  -4  -3   4 1090.38 365.171   6
   4   3  -4 731.375 279.986   6
  -4  -3   3 2977.33 379.867   1
   4   3  -3 1979.73 432.913   6
   4   3  -3 2540.17 356.388   1
  -4  -3   3 1624.85 454.556   6
  -4  -3   3 2706.87 305.819   4
  -4  -3   2 12.9736 25.9854   4
   4   3  -2 13.8210 62.4351   1
   4   3  -2 123.354 145.729   6
  -4  -3   2 165.648 164.599   6
   4   3  -1 8256.09 498.736   1
  -4  -3   1 9807.77 1010.58   6
   4   3  -1 9118.58 965.652   6
  -4  -3   1 9019.92 800.824   5
  -4  -3   1 9082.30 600.057   4
   4   3   0 2080.36 262.104   1
   4   3   0 1270.64 410.101   6
  -4  -3   0 2343.26 407.095   5
  -4  -3   0 2127.20 337.269   4
   4   3   0 2042.01 322.099   4
   4   3   1 3036.75 350.826   1
   4   3   1 1809.97 472.710   6
  -4  -3  -1 2481.55 421.105   4
   4   3   1 3190.74 469.641   4
   4   3   2 118.243 168.772   6
  -4  -3  -2 510.774 239.441   4
   4   3   3 32013.7 1654.54   1
   4   3   3 32344.1 1833.20   4
   4   3   4 9539.29 996.369   1
   4   3   4 8998.74 880.336   5
   4   3   5 2047.17 512.162   1
   4   3   5 1402.72 364.070   5
   4   3   6 146.578 149.420   1
   4   3   6-29.9457 122.308   5
   4   3   7 365.981 277.832   1
   4   3   8 4236.98 891.868   1
  -4  -4  13 507.394 386.456   1
  -4  -4  12 1621.18 673.265   1
  -4  -4  11-26.6057 171.812   1
  -4  -4  10 4510.47 905.722   1
  -4  -4   9 234.976 247.247   1
  -4  -4   8 36113.3 2223.26   1
  -4  -4   7 5579.25 818.653   1
  -4  -4   7 4930.77 688.657   3
  -4  -4   6 6759.75 836.598   1
  -4  -4   6 6871.14 780.286   3
   4   4  -6 8282.74 960.249   1
  -4  -4   5 437.036 209.587   1
  -4  -4   5 87.0326 137.281   3
  -4  -4   4 4140.68 547.710   1
   4   4  -4 4047.23 636.021   6
  -4  -4   4 3413.73 518.471   3
  -4  -4   4 4628.05 746.626   6
   4   4  -4 3929.57 538.175   1
  -4  -4   4 3729.07 287.653   2
  -4  -4   3 5972.08 591.155   1
   4   4  -3 4792.09 661.237   6
   4   4  -3 5222.90 565.880   1
  -4  -4   3 5724.71 653.620   3
  -4  -4   3 4251.82 713.840   6
  -4  -4   3 5900.03 546.454   4
   4   4  -2 7479.34 616.794   1
   4   4  -2 9312.74 961.326   6
  -4  -4   2 7351.10 892.015   6
  -4  -4   2 6850.65 586.594   4
   4   4  -1 4644.96 474.930   1
   4   4  -1 4412.77 675.474   6
  -4  -4   1 4670.26 587.802   5
  -4  -4   1 5370.48 550.444   4
  -4  -4   0 635.966 215.159   4
   4   4   0 801.886 321.560   6
  -4  -4   0 299.425 153.559   5
   4   4   0 472.941 151.697   1
   4   4   1 19238.8 1035.90   1
   4   4   1 21757.3 1661.38   6
  -4  -4  -1 19446.5 1246.16   4
   4   4   2 4102.89 757.624   6
  -4  -4  -2 3902.37 627.810   4
   4   4   2 4690.78 680.260   4
   4   4   3 24.8668 214.467   6
  -4  -4  -3-84.3661 131.959   4
   4   4   4 187.894 268.339   6
   4   4   4 368.716 207.237   1
  -4  -4  -4 427.100 253.894   4
   4   4   5 5148.65 860.586   1
   4   4   5 2755.33 719.051   6
   4   4   6 554.110 322.327   1
   4   4   7 4879.71 955.134   1
  -4  -5  13 155.606 215.811   1
  -4  -5  12 283.739 321.789   1
  -4  -5  11 1196.22 532.229   1
  -4  -5  10 568.375 333.602   1
  -4  -5   9 664.918 342.523   1
  -4  -5   8 1706.68 534.228   1
  -4  -5   7 6300.43 901.008   1
  -4  -5   7 6994.52 833.024   3
  -4  -5   6 45072.9 2243.86   1
  -4  -5   6 44505.0 2023.17   3
  -4  -5   5 2255.65 476.553   1
  -4  -5   5 2399.24 450.910   3
   4   5  -5 2829.40 525.147   1
   4   5  -4 1139.51 360.658   6
  -4  -5   4 1341.43 334.731   3
  -4  -5   4 1255.76 210.736   2
  -4  -5   4 1294.83 342.298   1
  -4  -5   3 274.493 186.489   6
  -4  -5   3 568.111 221.661   4
   4   5  -3 193.778 176.663   6
  -4  -5   3 780.602 252.128   3
  -4  -5   3 503.660 200.041   1
  -4  -5   3 573.765 170.607   2
   4   5  -2 11416.2 871.706   1
   4   5  -2 12267.2 1114.49   6
  -4  -5   2 12703.6 1196.30   6
  -4  -5   2 11668.5 893.926   4
   4   5  -1 10369.7 817.197   1
   4   5  -1 10263.4 1052.31   6
  -4  -5   1 9726.71 837.214   5
  -4  -5   1 9087.76 822.080   4
   4   5   0 8057.85 729.964   1
   4   5   0 7363.69 959.005   6
  -4  -5   0 7959.29 724.402   5
  -4  -5   0 8203.78 830.516   4
   4   5   1 68691.6 3058.64   6
  -4  -5  -1 74309.8 2659.69   4
   4   5   1 77763.3 2760.27   4
   4   5   2 37052.9 1736.10   1
  -4  -5  -2 33328.1 1912.30   4
   4   5   3-50.5812 195.928   6
  -4  -5  -3 76.4729 95.4292   4
   4   5   4 576.704 370.355   6
  -4  -5  -4 1089.41 446.174   4
   4   5   5 1357.34 456.315   1
   4   5   5 599.872 350.249   6
  -4  -5  -5 1143.22 456.055   4
   4   5   6 1326.92 550.035   6
   4   5   6 3101.79 750.148   1
   4   5   7-101.022 235.892   6
   4   5   8-1002.18 526.950   6
  -4  -6  12 1102.73 512.437   1
  -4  -6  11 721.890 419.990   1
  -4  -6  10 1153.42 503.900   1
  -4  -6   9 5078.69 953.867   1
  -4  -6   8 1375.44 476.627   1
  -4  -6   7 7384.54 1019.27   1
  -4  -6   6 301.638 222.115   1
  -4  -6   6 118.718 147.118   3
  -4  -6   5 14895.1 1272.53   1
  -4  -6   5 12778.9 1079.92   3
  -4  -6   4 334.819 209.595   4
  -4  -6   4 402.660 209.251   3
  -4  -6   4 484.323 223.244   1
  -4  -6   4 338.695 141.593   2
   4   6  -4 254.548 189.506   1
   4   6  -3 4402.35 630.156   1
   4   6  -3 3818.38 610.990   6
  -4  -6   3 4253.03 514.198   2
  -4  -6   3 3872.73 585.391   4
  -4  -6   3 4039.22 569.964   3
  -4  -6   2 2822.01 501.436   4
  -4  -6   2 2600.28 454.118   3
   4   6  -2 2498.88 506.785   6
  -4  -6   2 2191.06 397.868   2
   4   6  -1 10831.0 1105.93   6
  -4  -6   1 8821.59 799.103   5
  -4  -6   1 9797.74 950.676   4
   4   6   0-222.343 164.901   1
  -4  -6   0 91.2653 119.108   4
   4   6   0 173.982 194.839   6
  -4  -6   0 49.6651 63.1161   5
   4   6   1 7406.54 826.635   1
   4   6   1 7824.06 1038.89   6
  -4  -6  -1 5529.60 793.599   4
  -4  -6  -2 2218.66 543.615   4
   4   6   2 1135.07 442.253   6
   4   6   3-129.090 170.818   6
  -4  -6  -3-160.649 189.257   4
   4   6   4-38.4432 114.338   6
  -4  -6  -4 127.106 163.796   4
   4   6   5 2607.49 710.524   6
  -4  -6  -5 5224.64 1017.13   4
   4   6   6 64.8312 204.354   6
   4   6   7 962.914 513.950   6
  -4  -7  12 287.276 281.237   1
  -4  -7  11 4658.37 1030.12   1
  -4  -7  10 367.390 361.689   1
  -4  -7   9 1148.25 479.039   1
  -4  -7   8 8642.93 1212.61   1
  -4  -7   7 1278.40 447.862   1
  -4  -7   6 501.596 290.230   1
  -4  -7   5 386.428 219.257   3
  -4  -7   5 831.171 344.531   1
  -4  -7   4 2.27760 79.7322   2
  -4  -7   4 195.282 175.123   4
  -4  -7   4 255.650 166.210   3
  -4  -7   4 363.174 214.922   1
  -4  -7   3 2419.25 512.724   4
   4   7  -3 2062.20 459.450   6
  -4  -7   3 2353.40 432.535   3
  -4  -7   3 1944.48 407.865   2
  -4  -7   2 3381.50 614.680   4
  -4  -7   2 2997.62 488.935   3
   4   7  -2 3447.09 603.524   6
   4   7  -2 2835.17 541.288   1
  -4  -7   2 3865.83 588.341   2
  -4  -7   1 1722.95 431.514   4
  -4  -7   1 1895.81 380.233   3
   4   7  -1 2078.22 492.912   6
  -4  -7   1 1118.24 285.544   5
  -4  -7   0 1001.34 386.153   4
  -4  -7   0 1140.91 331.682   3
   4   7   0 839.579 366.192   6
   4   7   1 15365.8 1469.00   6
  -4  -7  -1 18825.3 1569.28   4
  -4  -7  -2 1053.75 444.397   4
   4   7   2 808.306 386.186   6
  -4  -7  -3 2374.74 630.072   4
   4   7   3 997.776 419.111   6
   4   7   4 661.724 399.107   6
  -4  -7  -4 84.1106 200.350   4
   4   7   5 627.442 378.923   6
  -4  -7  -5 1201.37 491.083   4
   4   7   6 953.541 491.462   6
  -4  -7  -6 1557.36 625.880   4
  -4  -8  11 4535.19 1049.30   1
  -4  -8  10 3761.06 889.659   1
  -4  -8   9 1750.22 580.104   1
  -4  -8   8 1116.99 471.887   1
  -4  -8   7 386.281 261.244   1
  -4  -8   6 123.756 167.360   1
  -4  -8   5-237.684 209.812   4
  -4  -8   5-96.7969 176.930   1
  -4  -8   4-133.341 218.510   4
  -4  -8   4 432.152 214.503   3
  -4  -8   3 8623.54 860.500   3
  -4  -8   3 8067.42 1028.68   4
   4   8  -2 4720.42 708.870   6
  -4  -8   2 5760.81 685.595   3
  -4  -8   2 6575.08 928.753   4
  -4  -8   1 1760.76 497.224   4
   4   8  -1 1924.36 467.596   6
  -4  -8   1 1678.65 361.329   3
  -4  -8   0 411.283 263.704   4
   4   8   0 406.144 245.779   6
  -4  -8   0 225.935 150.749   3
  -4  -8  -1 3399.10 724.327   4
  -4  -8  -1 4020.97 553.387   3
   4   8   1 3015.73 644.075   6
  -4  -8  -2 6282.34 1037.90   4
   4   8   2 4411.20 861.028   6
  -4  -8  -3 729.800 396.941   4
   4   8   3 499.619 290.557   6
  -4  -8  -4 1273.05 526.790   4
  -4  -8  -5 2.48039 164.702   4
  -4  -9  11-42.0630 116.379   1
  -4  -9  10-30.8387 174.097   1
  -4  -9   9 770.122 443.287   1
  -4  -9   8 781.547 430.102   1
  -4  -9   7 3411.90 822.638   1
  -4  -9   6 251.122 213.656   4
  -4  -9   6 306.644 224.908   1
  -4  -9   5 3406.98 736.127   4
  -4  -9   5 2847.15 668.928   1
  -4  -9   4-65.3637 152.284   4
  -4  -9   3 93.5227 150.514   4
  -4  -9   3-6.85115 46.8266   3
  -4  -9   2 2350.50 620.438   4
   4   9  -2 2955.26 568.351   6
  -4  -9   2 2604.16 478.769   3
   4   9  -1 9983.44 1028.55   6
  -4  -9   1 11288.5 929.611   3
  -4  -9   1 12346.3 1368.43   4
  -4  -9   0 486.135 311.839   4
   4   9   0 11.6470 99.3315   6
  -4  -9  -1 737.125 431.228   4
  -4  -9  -2 368.978 289.374   4
  -4  -9  -3 427.319 293.239   4
  -4  -9  -4 331.434 290.217   4
  -4 -10  10 2738.77 835.055   1
  -4 -10   9 863.849 480.502   1
  -4 -10   8 1100.40 513.828   1
  -4 -10   7 331.954 283.713   4
  -4 -10   7 621.977 349.074   1
  -4 -10   6 2173.85 657.159   4
  -4 -10   6 1948.98 612.013   1
  -4 -10   5 1233.77 506.246   4
  -4 -10   4 6404.32 1076.27   4
  -4 -10   3 1309.75 501.964   4
  -4 -10   2 1292.27 480.235   4
  -4 -10   1 8060.54 1216.67   4
  -4 -10   0 5595.20 1035.71   4
  -4 -10  -1 4942.35 987.643   4
  -4 -10  -2-218.255 312.337   4
  -4 -10  -3 127.143 231.667   4
  -4 -11   9 968.829 511.931   1
  -4 -11   8 974.625 474.383   4
  -4 -11   8-629.910 413.041   1
  -4 -11   7-89.2822 205.094   4
  -4 -11   7 794.966 414.759   1
  -4 -11   6 664.832 464.363   4
  -4 -11   5-484.079 393.648   4
  -4 -11   4 3256.91 858.555   4
  -4 -11   3 2875.10 772.572   4
  -4 -11   2 131.093 221.692   4
  -4 -11   1 961.349 477.900   4
  -4 -11   0 187.604 231.259   4
  -4 -11  -1 173.721 213.908   4
  -4 -12   8 535.761 452.860   4
  -4 -12   7 2116.56 595.299   4
  -4 -12   6 466.347 403.882   4
  -4 -12   5 1132.81 555.316   4
  -4 -12   4 272.487 322.173   4
  -4 -12   3 56.1241 166.745   4
  -4 -12   2 902.388 493.844   4
  -4 -12   1 2824.63 834.148   4
   5 -12   0 3110.18 926.920   4
   5 -12   1-28.1274 329.116   4
   5 -12   2 430.780 283.461   5
   5 -12   3 233.781 244.007   5
   5 -12   4 2807.81 783.980   5
   5 -11  -4 8367.56 1442.29   4
   5 -11  -3 183.659 230.301   4
  -5  11   3 810.615 419.294   2
   5 -11  -2-429.199 307.789   4
  -5  11   2-229.860 300.215   2
   5 -11  -1 1076.48 558.836   4
  -5  11   1 1287.99 527.737   2
   5 -11   0 2142.43 740.088   4
   5 -11   0 1596.22 475.992   5
  -5  11   0 2520.30 739.208   2
   5 -11   1-80.5305 337.989   4
   5 -11   1 281.472 223.386   5
  -5  11  -1 651.230 422.192   2
   5 -11   2 829.788 499.461   4
   5 -11   2 398.182 298.174   5
  -5  11  -2 540.040 342.934   2
   5 -11   3 656.866 414.552   4
   5 -11   3 327.991 304.076   5
  -5  11  -3 339.708 358.391   2
   5 -11   4 225.088 235.366   5
  -5  11  -4-349.893 230.961   2
   5 -11   5 3970.96 945.441   5
   5 -10  -6-83.1411 256.771   4
   5 -10  -5-453.374 402.760   4
   5 -10  -4 742.776 469.004   4
  -5  10   4 1303.29 518.552   2
   5 -10  -3 379.220 374.382   4
  -5  10   3 187.456 249.657   2
   5 -10  -2 906.576 442.339   4
  -5  10   2 1009.36 471.926   2
   5 -10  -1-121.056 252.954   4
  -5  10   1 151.161 199.640   2
   5 -10   0-41.4186 243.399   4
   5 -10   0 124.409 176.449   5
  -5  10   0 178.485 242.188   2
   5 -10   1 786.387 444.599   4
   5 -10   1 406.591 308.259   5
  -5  10  -1 77.5136 190.726   2
   5 -10   2 323.039 282.593   5
   5 -10   2 730.358 424.318   4
  -5  10  -2-163.919 288.939   2
  -5  10  -3 5815.91 1139.82   2
   5 -10   3 4661.64 970.971   5
  -5  10  -4 6866.57 1259.89   2
   5 -10   4 5013.24 1013.01   5
   5 -10   5 406.511 357.208   1
   5 -10   5-78.4134 157.692   5
   5 -10   6 162.217 230.676   1
   5 -10   7 2412.43 750.549   1
   5  -9  -7 546.261 442.920   4
   5  -9  -6 8029.77 1280.15   4
   5  -9  -5 174.491 271.503   4
  -5   9   5 643.369 370.587   2
   5  -9  -4-26.9598 173.806   4
  -5   9   4-491.161 334.237   2
   5  -9  -3 199.291 214.130   4
  -5   9   3 210.708 247.885   2
  -5   9   2 13244.4 1531.84   2
   5  -9  -2 11415.5 1416.80   4
  -5   9   1 9166.84 1296.39   2
   5  -9  -1 8114.14 1200.36   4
   5  -9   0 2095.23 625.549   4
   5  -9   0 985.979 377.151   5
  -5   9   0 1613.15 615.126   2
   5  -9   1 21.5699 56.8708   5
  -5   9  -1 357.553 310.252   2
   5  -9   2 196.782 197.697   4
   5  -9   2-75.6100 111.327   5
   5  -9   3-67.2763 160.674   6
   5  -9   3 35.1831 192.106   5
   5  -9   4 130.356 194.803   6
   5  -9   4 1776.19 540.666   5
   5  -9   5 682.041 395.781   6
   5  -9   5 1043.85 444.301   1
   5  -9   6 4289.20 969.563   1
   5  -9   6 3008.47 756.994   6
   5  -9   7 1316.71 487.550   6
   5  -9   7 2400.15 721.892   1
   5  -9   8 1742.54 651.665   1
   5  -8  -9 5802.65 1188.65   4
   5  -8  -8 1285.40 592.141   4
   5  -8  -7 96.7384 212.287   4
   5  -8  -6 1424.16 556.253   4
   5  -8  -5 1073.31 445.832   4
  -5   8   5 1217.26 448.762   2
   5  -8  -4 2690.17 693.258   4
  -5   8   4 2101.28 586.427   2
   5  -8  -3 3174.30 729.216   4
  -5   8   3 2406.92 627.068   2
   5  -8  -2 1111.16 438.707   4
  -5   8   2 809.353 349.734   2
   5  -8  -1-78.6982 210.331   4
   5  -8  -1-19.5928 84.0845   5
  -5   8   1 196.336 254.854   2
   5  -8   0 477.674 299.360   4
   5  -8   0 439.802 197.551   6
   5  -8   0 94.0737 183.325   5
  -5   8   0 213.299 259.134   2
   5  -8   1 6341.73 956.662   5
   5  -8   1 6739.77 788.700   6
  -5   8  -1 6836.48 1130.89   2
   5  -8   1 8230.46 1131.16   4
   5  -8   2 1309.08 417.502   6
   5  -8   2 2208.07 604.794   5
   5  -8   3 230.679 295.206   6
   5  -8   3-266.763 262.812   5
   5  -8   4-19.9644 136.311   6
   5  -8   4 471.012 279.566   1
   5  -8   5 7193.09 1127.34   1
   5  -8   5 5537.56 993.927   6
   5  -8   6 155.726 280.478   1
   5  -8   6 611.132 413.636   6
   5  -8   7 2349.65 722.198   1
   5  -8   8 1302.60 550.869   1
   5  -7 -10-575.323 477.454   4
   5  -7  -9 694.345 443.667   4
   5  -7  -8 1105.52 513.460   4
   5  -7  -7 149.165 269.223   4
   5  -7  -6 187.740 273.178   4
   5  -7  -5 1482.00 514.387   4
  -5   7   5 1575.24 252.744   3
  -5   7   5 1696.39 524.763   2
   5  -7  -4 502.687 362.022   4
  -5   7   4 219.255 244.251   2
   5  -7  -3 203.629 227.672   4
  -5   7   3-98.2657 158.980   2
   5  -7  -2 2452.43 569.366   4
  -5   7   2 2371.68 623.220   2
   5  -7  -1 2727.66 606.567   4
   5  -7  -1 2555.45 550.867   5
   5  -7  -1 2793.95 449.724   6
  -5   7   1 2648.04 658.490   2
  -5   7   0-82.8624 166.037   2
   5  -7   0 99.4389 176.893   4
   5  -7   0-7.75923 46.1574   6
   5  -7   0 42.3915 110.986   5
   5  -7   1 2739.56 548.659   6
   5  -7   1 3127.94 659.701   5
   5  -7   2 89.0821 141.386   6
   5  -7   2 181.033 233.273   5
   5  -7   3 5816.27 906.323   1
   5  -7   3 3099.34 685.367   6
   5  -7   3 5625.16 958.647   5
   5  -7   4 1659.14 524.744   6
   5  -7   4 2231.59 592.910   1
   5  -7   5-46.0663 154.163   6
   5  -7   5 230.486 241.258   1
   5  -7   6 3146.64 754.553   1
   5  -7   7 2552.95 700.370   1
   5  -7   8-702.068 399.636   1
   5  -7   9-361.819 328.272   1
   5  -6 -10 1537.08 649.658   4
   5  -6  -9 2064.21 664.333   4
   5  -6  -8 3213.44 766.025   4
   5  -6  -7-75.1743 151.241   4
  -5   6   6 28862.9 1166.46   3
  -5   6   6 29006.1 1996.39   2
   5  -6  -6 29641.6 2081.49   4
  -5   6   5 15381.4 886.745   3
  -5   6   5 15560.5 1437.69   2
   5  -6  -5 15067.9 1418.36   4
   5  -6  -4 1644.26 491.880   4
  -5   6   4 1288.90 358.636   6
  -5   6   4 1060.04 377.374   2
   5  -6  -3 3915.15 686.335   4
  -5   6   3 3929.96 743.143   2
   5  -6  -2 2913.88 585.115   4
   5  -6  -2 3165.63 501.785   6
  -5   6   2 3175.95 675.537   2
  -5   6   1 713.515 352.824   2
   5  -6  -1 460.479 248.576   4
   5  -6  -1 788.304 272.640   6
   5  -6  -1 529.471 266.558   5
   5  -6   0 38.2075 167.803   4
   5  -6   0-139.991 136.495   6
   5  -6   0 276.620 208.909   5
   5  -6   1-47.5344 126.418   6
   5  -6   1 312.252 267.581   5
   5  -6   2 3207.71 653.064   6
   5  -6   2 3262.12 700.286   5
   5  -6   3 155.969 203.882   6
   5  -6   3 297.613 238.405   1
   5  -6   3 410.263 271.117   5
   5  -6   4-48.6145 176.326   6
   5  -6   4 89.1779 119.290   1
   5  -6   5 7327.08 1030.71   1
   5  -6   6 1601.31 549.520   1
   5  -6   7 1217.95 458.482   1
   5  -6   8-575.155 361.999   1
   5  -6   9 2451.48 766.305   1
   5  -5 -10-266.260 287.070   4
   5  -5  -9-74.3620 207.766   4
   5  -5  -8 450.635 303.946   4
   5  -5  -7 418.793 315.403   4
   5  -5  -6 1379.03 447.126   4
  -5   5   6 1547.94 307.275   3
  -5   5   6 1848.93 483.870   2
  -5   5   5 29888.7 1339.24   3
  -5   5   5 26948.4 1763.49   6
  -5   5   5 31351.9 1932.11   2
   5  -5  -5 31382.3 1889.95   4
   5  -5  -4 2221.99 509.259   4
  -5   5   4 2866.95 577.612   6
  -5   5   4 2457.45 542.000   2
   5  -5  -3 1774.13 414.576   4
   5  -5  -3 1713.21 408.902   6
  -5   5   3 1315.87 365.657   6
  -5   5   3 1227.91 403.884   2
  -5   5   2 9659.29 963.623   1
   5  -5  -2 9905.72 910.286   6
  -5   5   2 9332.83 1101.03   2
   5  -5  -2 9245.70 919.172   4
   5  -5  -1 3050.66 534.753   4
   5  -5  -1 2165.89 450.102   6
   5  -5  -1 3783.99 639.614   5
  -5   5   1 3166.60 541.306   1
  -5   5   0 316.506 195.195   1
   5  -5   0 254.968 213.019   6
   5  -5   0 261.611 220.098   5
  -5   5  -1 143.046 121.374   1
   5  -5   1 391.422 211.956   6
   5  -5   1 271.107 224.639   5
   5  -5   2 277.800 206.961   6
   5  -5   2 570.140 257.022   1
   5  -5   2 668.338 308.152   5
  -5   5  -2 169.481 158.001   1
   5  -5   3 1769.85 517.104   6
   5  -5   3 2293.41 595.004   5
   5  -5   3 2863.17 556.574   1
   5  -5   4 9388.21 1049.60   1
   5  -5   4 6099.70 1032.00   6
   5  -5   5 14689.9 1387.76   1
   5  -5   6 16649.8 1565.01   1
   5  -5   7 1067.68 404.587   1
   5  -5   8 469.223 293.926   1
   5  -5   9-13.7533 113.744   1
  -5   4  11 74.3928 225.749   1
  -5   4  10 2625.33 816.019   1
   5  -4  -9 1064.77 431.929   4
   5  -4  -8 6495.43 999.600   4
  -5   4   7 5303.43 596.390   3
   5  -4  -7 5194.12 825.295   4
  -5   4   6 32796.6 1439.40   3
  -5   4   6 33561.7 1884.42   2
   5  -4  -6 33329.8 1932.84   4
  -5   4   5 11755.3 880.978   3
  -5   4   5 12924.6 1172.64   2
   5  -4  -5 12368.4 1108.85   4
  -5   4   5 11633.3 1068.42   4
  -5   4   4 3357.79 619.291   6
   5  -4  -4 3473.82 556.484   4
  -5   4   4 2644.18 538.963   2
   5  -4  -3 4752.99 642.853   6
  -5   4   3 6349.61 861.223   2
   5  -4  -3 6316.11 709.507   4
  -5   4   2 16850.6 1146.46   1
   5  -4  -2 16142.7 1220.54   6
  -5   4   2 13153.8 1159.16   6
   5  -4  -2 17055.0 1114.56   4
  -5   4   1 16829.8 1113.88   1
   5  -4  -1 18767.4 1391.58   5
   5  -4  -1 18855.8 1349.47   6
   5  -4  -1 16230.9 1090.39   4
  -5   4   0 543.988 200.275   1
   5  -4   0 575.753 282.264   6
   5  -4   0 1039.69 362.256   5
  -5   4  -1 7994.84 793.669   1
   5  -4   1 8548.27 1032.09   6
   5  -4   1 9442.89 1068.62   5
  -5   4  -2 1860.50 411.858   1
   5  -4   2 1813.18 475.650   5
   5  -4   2 487.238 278.238   6
   5  -4   2 2069.02 407.982   1
   5  -4   3 18016.3 1281.68   1
   5  -4   3 19661.6 1736.25   6
  -5   4  -3 16725.2 1320.90   1
   5  -4   3 17459.4 1553.04   5
   5  -4   4 45.4419 113.929   1
   5  -4   5 5492.28 824.268   1
   5  -4   6 1579.15 480.407   1
   5  -4   7 5968.11 977.638   1
   5  -4   8 306.435 270.752   1
  -5   3  12 2761.57 874.199   1
  -5   3  11-252.211 296.199   1
  -5   3  10 1556.87 630.440   1
  -5   3   9 1014.41 442.551   1
   5  -3  -8-237.417 223.177   4
  -5   3   7 3958.98 543.076   3
   5  -3  -7 4421.87 728.558   4
  -5   3   6 6107.73 658.463   3
  -5   3   6 6382.82 761.480   2
   5  -3  -6 6498.15 796.782   4
  -5   3   6 6962.44 832.260   4
  -5   3   5 5380.63 700.945   2
   5  -3  -5 4616.17 624.958   4
  -5   3   5 4212.47 599.027   4
  -5   3   4 61111.7 2643.57   6
  -5   3   4 61562.6 2433.98   2
   5  -3  -4 64281.9 2098.45   4
   5  -3  -3-25.3408 120.026   6
  -5   3   3 380.727 221.151   2
   5  -3  -3 456.091 176.943   4
  -5   3   3-21.3612 75.7208   6
  -5   3   2 5946.17 604.657   1
   5  -3  -2 6137.66 776.807   6
  -5   3   2 5133.93 733.317   6
   5  -3  -2 5845.52 563.197   4
  -5   3   1 6104.96 590.569   1
   5  -3  -1 5527.81 749.346   6
   5  -3  -1 6950.55 841.698   5
   5  -3  -1 6341.69 593.956   4
  -5   3   0 4036.97 489.269   1
   5  -3   0 3323.04 639.879   6
   5  -3   0 4699.65 711.543   5
  -5   3  -1 3906.12 502.867   1
   5  -3   1 5160.23 794.171   6
   5  -3   1 3219.78 615.522   5
   5  -3   2 30637.6 1406.59   1
   5  -3   2 25888.0 1880.08   6
  -5   3  -2 30653.8 1509.17   1
   5  -3   2 30057.3 1916.05   5
   5  -3   3 36807.8 1684.32   1
   5  -3   3 30224.6 2193.29   6
  -5   3  -3 36835.1 1849.77   1
   5  -3   3 35948.5 2171.90   5
   5  -3   4 66851.6 2499.37   1
  -5   3  -4 66609.0 2706.69   1
   5  -3   4 64466.9 3030.70   5
   5  -3   5 194.961 181.183   1
   5  -3   6 1215.97 412.060   1
   5  -3   7 61.7672 164.901   1
   5  -3   8 2445.12 663.272   1
  -5   2  12 9009.71 1559.89   1
  -5   2  11 7248.11 1309.96   1
  -5   2  10 539.353 378.320   1
  -5   2   9 1072.95 428.276   1
  -5   2   8 9149.07 1239.17   1
  -5   2   8 7802.84 807.165   3
  -5   2   7 10643.0 907.512   3
   5  -2  -7 9736.47 1019.56   4
  -5   2   7 10987.3 1066.27   4
  -5   2   6-151.053 118.763   4
  -5   2   6 61.0100 96.4267   3
  -5   2   6 253.560 156.158   2
   5  -2  -6 308.655 178.235   4
  -5   2   5 9349.53 862.968   2
   5  -2  -5 8473.56 753.583   4
  -5   2   5 8141.24 738.947   4
   5  -2  -4 1341.13 261.015   4
   5  -2  -4 1855.54 438.091   6
  -5   2   4 2342.42 531.175   6
  -5   2   4 1394.06 350.572   2
   5  -2  -3 11169.9 1020.69   6
   5  -2  -3 11901.0 701.673   4
   5  -2  -2 7.57590 48.0399   4
   5  -2  -2 188.220 154.875   6
  -5   2   2 85.0148 118.404   6
  -5   2   2 169.859 79.3925   1
  -5   2   1 5765.90 476.293   1
   5  -2  -1 4676.72 722.958   6
   5  -2  -1 5425.74 452.119   4
  -5   2   0 4134.71 410.587   1
   5  -2   0 4851.52 778.880   6
   5  -2   0 4395.31 684.265   5
   5  -2   1 4740.07 789.073   6
  -5   2  -1 6562.52 562.711   1
   5  -2   1 7029.07 892.466   5
   5  -2   2 3941.05 458.195   1
  -5   2  -2 4033.13 506.309   1
   5  -2   2 3862.53 669.149   5
   5  -2   3 5121.69 586.578   1
   5  -2   3 6497.26 1004.37   6
  -5   2  -3 4799.09 621.811   1
   5  -2   3 5377.92 824.137   5
   5  -2   4 1841.08 403.091   1
   5  -2   4 1969.49 573.875   5
   5  -2   5 1299.08 358.311   1
   5  -2   5 1128.32 435.370   5
   5  -2   6 160.876 188.442   1
   5  -2   6 140.144 189.743   5
   5  -2   7 7645.63 1038.81   1
   5  -2   8 111.746 190.743   1
   5  -2   9-379.814 316.961   5
  -5   1  12-58.5736 148.733   1
  -5   1  11-338.826 274.745   1
  -5   1  10 3970.74 897.587   1
  -5   1   9 880.741 398.399   1
  -5   1   8 456.528 299.249   1
  -5   1   8 371.264 185.410   3
  -5   1   7 5495.24 676.059   3
  -5   1   7 4444.89 765.831   1
  -5   1   7 5639.48 734.873   4
  -5   1   6 3769.73 552.359   3
  -5   1   6 3683.59 648.895   1
  -5   1   6 4205.35 514.831   2
  -5   1   6 4130.62 548.218   4
  -5   1   5 64.8716 58.5838   4
  -5   1   5 166.581 125.587   1
  -5   1   5 103.231 89.2700   2
   5  -1  -4 4347.82 652.518   6
  -5   1   4 4831.07 599.313   2
   5  -1  -4 4094.35 389.184   4
   5  -1  -3 24418.3 1531.25   6
  -5   1   3 23595.8 1660.43   6
   5  -1  -3 23178.2 708.144   4
   5  -1  -2-6.26887 22.2774   4
   5  -1  -2-1.13835 193.733   6
  -5   1   2 25.1017 54.7551   6
  -5   1   2 44.8609 41.5604   1
  -5   1   1 2120.58 200.270   1
   5  -1  -1 2460.94 529.365   6
   5  -1  -1 1907.94 205.060   4
   5  -1   0 60.7668 195.543   6
   5  -1   0 202.542 176.792   5
  -5   1   0 102.036 45.9700   1
   5  -1   0 147.470 79.3841   4
   5  -1   1 234.115 192.204   6
   5  -1   1 114.943 165.160   5
   5  -1   1 307.420 123.668   4
   5  -1   2 5429.16 470.220   1
   5  -1   2 3780.51 750.497   6
   5  -1   2 5363.79 787.683   5
   5  -1   2 4852.71 577.552   4
   5  -1   3 16241.5 975.122   1
   5  -1   3 14132.4 1552.25   6
   5  -1   3 17209.7 1439.99   5
   5  -1   3 15440.6 1151.19   4
   5  -1   4 1189.00 311.567   1
   5  -1   4 1268.82 425.552   5
   5  -1   5 209.343 153.000   1
   5  -1   5 54.8500 160.149   5
   5  -1   6-70.6087 187.929   1
   5  -1   6 444.128 288.318   5
   5  -1   7 452.899 246.643   1
   5  -1   7 669.848 352.376   5
   5  -1   8 524.714 358.678   5
   5  -1   9 5326.02 1021.71   5
  -5   0  13-701.986 428.748   1
  -5   0  12 316.195 320.081   1
  -5   0  11 4050.68 938.100   1
  -5   0  10 487.616 378.551   1
  -5   0   9 4720.99 892.366   1
  -5   0   8 15408.0 1199.49   3
  -5   0   8 16189.4 1512.08   1
  -5   0   8 16103.6 1295.12   4
  -5   0   7 2852.58 489.884   4
  -5   0   7 3080.85 618.875   1
  -5   0   7 2838.76 497.416   3
  -5   0   6 4344.40 598.544   3
  -5   0   6 4773.93 691.410   1
  -5   0   6 4576.06 462.107   2
  -5   0   6 4073.79 503.287   4
  -5   0   5 2077.34 413.837   3
  -5   0   5 2370.67 432.939   1
  -5   0   5 2365.01 361.919   2
  -5   0   5 2137.80 298.757   4
   5   0  -4 2843.09 535.728   6
  -5   0   4 2385.69 377.896   1
  -5   0   4 2594.30 235.298   4
   5   0  -3 7219.10 866.392   6
  -5   0   3 7311.94 519.478   1
   5   0  -2 2713.81 546.016   6
  -5   0   2 2084.32 443.908   5
   5   0  -1 22501.9 1620.39   6
   5   0   0 32822.3 2073.91   6
   5   0   0 35268.2 1016.42   4
   5   0   1-130.637 93.5277   4
   5   0   1 219.304 206.697   6
   5   0   1 122.170 181.434   5
   5   0   2-129.476 112.239   4
   5   0   2 176.048 81.8781   1
   5   0   2-10.4380 85.8692   5
   5   0   3 743.096 253.603   4
   5   0   3 1379.89 278.430   1
   5   0   3 535.872 326.693   6
   5   0   3 1547.12 426.906   5
   5   0   4 15468.4 1063.05   1
   5   0   4 14975.1 1365.03   5
   5   0   5 1572.70 392.096   1
   5   0   5 1543.43 473.851   5
   5   0   6 5353.99 789.225   1
   5   0   6 4572.93 820.969   5
   5   0   7 144.978 253.554   5
   5   0   7-560.476 300.656   1
   5   0   8 16.8699 219.222   5
   5   0   9 486.674 325.288   5
  -5  -1  13 484.882 352.152   1
  -5  -1  12 1236.41 532.467   1
  -5  -1  11 137.406 176.756   1
  -5  -1  10 4546.00 918.674   1
  -5  -1   9 658.470 351.986   1
  -5  -1   8 2699.56 520.569   4
  -5  -1   8 3036.04 547.903   3
  -5  -1   8 2083.72 526.908   1
  -5  -1   7 5639.16 720.808   3
  -5  -1   7 5765.05 801.130   1
  -5  -1   7 6709.46 714.931   4
  -5  -1   6 9306.05 895.997   3
  -5  -1   6 8666.30 893.446   1
  -5  -1   6 8730.40 698.669   4
  -5  -1   5 44109.3 1929.50   3
  -5  -1   5 45918.3 1810.24   1
  -5  -1   5 47437.2 1361.10   2
  -5  -1   5 42764.4 1224.99   4
  -5  -1   4 591.270 180.747   1
   5   1  -4 278.367 216.939   6
  -5  -1   3 25317.6 834.808   1
   5   1  -3 20791.9 1477.50   6
   5   1  -2 14201.3 1251.23   6
  -5  -1   2 13663.1 1121.31   5
   5   1  -1 4242.82 728.237   6
  -5  -1   1 3497.91 577.496   5
   5   1   0 22572.5 1749.31   6
   5   1   0 22185.5 833.295   4
   5   1   1 31400.6 2086.25   6
   5   1   1 34432.2 1336.81   4
   5   1   2 1768.81 242.824   1
   5   1   2 1973.19 475.819   5
   5   1   3 7335.13 635.482   1
   5   1   3 5251.36 948.855   6
   5   1   3 6241.49 829.034   5
   5   1   3 6261.07 756.521   4
   5   1   4-73.2209 253.072   6
   5   1   4 682.444 295.385   5
   5   1   4 724.579 249.213   1
   5   1   5 2410.21 494.058   1
   5   1   5 2387.18 554.204   5
   5   1   6 353.236 204.514   1
   5   1   6 460.610 304.992   5
   5   1   7 2618.43 633.263   5
   5   1   8 1503.15 509.304   5
  -5  -2  13 2751.55 830.431   1
  -5  -2  12 2896.33 805.976   1
  -5  -2  11 1237.49 491.955   1
  -5  -2  10 21086.9 1932.70   1
  -5  -2   9 558.197 281.362   1
  -5  -2   8 14150.0 1369.51   1
  -5  -2   8 15424.7 1253.84   3
  -5  -2   8 14316.4 1166.49   4
  -5  -2   7 13952.4 1147.89   3
  -5  -2   7 14346.4 1262.08   1
  -5  -2   7 13479.1 997.852   4
  -5  -2   6 838.634 213.639   4
  -5  -2   6 760.884 290.251   1
  -5  -2   6 879.344 283.348   3
   5   2  -5 1585.23 437.870   6
  -5  -2   5 1817.83 399.973   3
  -5  -2   5 1808.40 219.843   2
  -5  -2   5 1594.74 234.699   4
  -5  -2   5 1303.73 315.681   1
  -5  -2   4 3523.71 424.439   1
   5   2  -4 2409.05 515.967   6
  -5  -2   4 2808.49 185.849   4
  -5  -2   4 2437.02 171.593   4
  -5  -2   3 4302.41 345.397   1
   5   2  -3 4166.10 678.658   6
   5   2  -2 47372.3 2339.69   6
   5   2  -1 3648.24 690.005   6
  -5  -2   1 3324.70 563.364   5
   5   2   0 4592.75 812.578   6
   5   2   0 3915.11 396.811   4
   5   2   1 696.492 201.913   4
   5   2   1 482.974 325.117   6
   5   2   1 361.235 72.6182   1
   5   2   2 14119.5 1475.60   6
   5   2   2 16769.5 824.203   1
   5   2   3-141.442 125.617   4
   5   2   3 343.752 164.784   1
   5   2   3-119.621 208.602   6
   5   2   3-86.3714 155.940   5
   5   2   4 840.522 277.472   1
   5   2   4 491.202 354.933   6
   5   2   4 619.567 275.970   5
   5   2   5 342.331 199.985   1
   5   2   5 145.126 266.398   6
   5   2   5 200.832 206.085   5
   5   2   6 7197.30 948.421   1
   5   2   6 6015.00 874.322   5
   5   2   7 2151.84 577.841   5
  -5  -3  13 401.347 342.743   1
  -5  -3  12 233.905 267.628   1
  -5  -3  11 398.495 384.130   1
  -5  -3  10-198.654 256.569   1
  -5  -3   9 15508.1 1538.15   1
  -5  -3   8 619.488 280.792   3
  -5  -3   8 833.642 369.918   1
  -5  -3   8 369.893 187.997   4
  -5  -3   7 182.070 170.731   3
  -5  -3   7 502.256 249.334   1
  -5  -3   7 898.685 266.453   4
  -5  -3   6 6122.17 751.928   1
  -5  -3   6 5382.67 714.278   3
  -5  -3   6 5569.32 573.283   4
  -5  -3   5 23717.1 1324.64   1
  -5  -3   5 22058.8 1415.71   3
   5   3  -5 24005.2 1654.78   6
  -5  -3   4 68.8774 81.0430   1
  -5  -3   4 29.3635 50.6313   4
   5   3  -4 107.124 143.361   6
   5   3  -4-47.6914 76.1602   1
  -5  -3   3 266.663 79.9539   4
   5   3  -3 443.225 250.113   6
   5   3  -3 445.674 146.655   1
  -5  -3   3 315.356 107.485   1
   5   3  -2 22677.3 1662.23   6
   5   3  -2 25511.5 773.828   1
  -5  -3   2 24619.7 769.693   4
   5   3  -1 16522.7 1457.01   6
  -5  -3   1 16364.2 1219.96   5
  -5  -3   1 16117.7 783.300   4
   5   3   0 8986.56 399.785   1
   5   3   0 10121.9 1218.97   6
   5   3   0 10319.8 455.068   1
  -5  -3   0 10787.3 977.083   5
  -5  -3   0 10592.5 766.495   4
   5   3   0 10076.1 721.838   4
   5   3   1 552.288 312.438   6
   5   3   1 513.403 197.506   4
   5   3   1 567.400 154.362   1
   5   3   1 677.165 156.587   1
   5   3   2-38.1459 109.856   4
   5   3   2 2.45357 69.8830   1
   5   3   2-97.1350 182.996   6
   5   3   2 16.9474 30.7941   1
   5   3   3 156.452 133.840   1
   5   3   3 225.305 268.751   6
   5   3   4-198.099 269.376   6
   5   3   4-11.3492 101.707   1
   5   3   5 404.525 323.400   6
   5   3   5 318.528 211.326   5
   5   3   5 46.5309 72.7822   1
   5   3   6-260.578 251.417   6
   5   3   6 185.654 207.758   5
   5   3   7 779.716 488.621   6
  -5  -4  13 491.652 421.939   1
  -5  -4  12 822.326 358.530   1
  -5  -4  11 462.879 336.423   1
  -5  -4  10 3570.93 815.957   1
  -5  -4   9 9704.19 1232.83   1
  -5  -4   8 669.132 288.442   3
  -5  -4   8 789.261 359.074   1
  -5  -4   7 340.136 220.403   1
  -5  -4   7 448.702 212.336   3
  -5  -4   6 12189.4 1096.88   1
  -5  -4   6 11778.0 1080.17   3
   5   4  -6 12651.3 1172.31   1
  -5  -4   5 1976.41 412.552   1
  -5  -4   5 2083.14 459.061   3
  -5  -4   4 3142.81 459.012   1
  -5  -4   4 3237.99 557.050   3
   5   4  -4 2262.07 549.573   6
   5   4  -4 3203.82 467.237   1
  -5  -4   4 3197.70 378.802   4
   5   4  -3 6354.91 874.465   6
   5   4  -3 6748.40 602.869   1
  -5  -4   3 6744.52 524.869   4
  -5  -4   2 572.224 153.528   4
   5   4  -2 582.738 156.261   1
   5   4  -2 862.189 333.273   6
  -5  -4   1-141.722 102.968   4
   5   4  -1-56.3712 154.985   6
   5   4  -1-22.6749 53.9227   1
  -5  -4   1-288.136 180.798   5
   5   4   0-52.6766 59.7065   1
  -5  -4   0-162.210 117.717   5
  -5  -4   0 31.1092 58.5376   4
   5   4   1 2682.87 677.229   6
   5   4   1 2110.38 318.605   1
  -5  -4  -1 1721.50 384.130   4
   5   4   2 18251.6 1157.51   1
  -5  -4  -2 17099.1 1334.39   4
   5   4   3 527.631 226.646   1
   5   4   3 118.600 257.053   6
   5   4   4 140.014 135.537   1
   5   4   4 543.938 364.049   6
   5   4   5 153.272 181.246   6
   5   4   6 1036.48 501.991   6
   5   4   7 988.228 528.402   6
  -5  -5  13 501.054 379.074   1
  -5  -5  12-134.859 190.898   1
  -5  -5  11 256.994 228.288   1
  -5  -5  10 1060.00 443.445   1
  -5  -5   9 4925.67 909.585   1
  -5  -5   8 9260.11 1152.67   1
  -5  -5   8 9155.89 1036.51   3
  -5  -5   7 483.060 280.209   1
  -5  -5   7 779.121 311.600   3
  -5  -5   6 9222.47 1000.03   1
  -5  -5   6 9592.14 1001.05   3
   5   5  -6 10629.2 1108.68   1
  -5  -5   5 6590.17 778.004   1
  -5  -5   5 5904.54 764.132   3
   5   5  -5 6684.58 808.699   1
  -5  -5   4 3330.53 501.681   1
  -5  -5   4 3516.46 587.565   3
   5   5  -4 3441.00 635.921   6
  -5  -5   4 3454.88 377.525   2
  -5  -5   4 3753.05 488.392   4
  -5  -5   3 3925.35 604.871   3
   5   5  -3 4340.11 546.980   1
   5   5  -3 3638.75 686.945   6
  -5  -5   3 3730.65 475.031   4
  -5  -5   2 108.688 99.9716   4
   5   5  -2-64.9757 168.518   6
   5   5  -2 86.8545 115.437   1
   5   5  -1 6669.48 617.600   1
   5   5  -1 6458.21 943.770   6
  -5  -5   1 7096.93 715.318   4
  -5  -5   0 1820.58 382.398   4
   5   5   0 2060.67 353.945   1
   5   5   0 2708.75 637.447   6
   5   5   1-68.6452 175.398   6
  -5  -5  -1 47.2472 99.2578   4
   5   5   2 19332.7 1878.08   6
  -5  -5  -2 25318.2 1721.76   4
   5   5   3 2421.92 696.025   6
   5   5   3 4612.00 712.493   1
  -5  -5  -3 2817.37 621.203   4
   5   5   4 2407.83 726.449   6
   5   5   5 790.565 453.872   6
   5   5   6 411.697 339.216   6
   5   5   7-62.4984 160.766   6
  -5  -6  12-56.8017 150.888   1
  -5  -6  11 425.847 325.700   1
  -5  -6  10-62.7655 199.257   1
  -5  -6   9 3140.04 729.095   1
  -5  -6   8 143.048 176.724   1
  -5  -6   7 6533.37 942.856   1
  -5  -6   7 6574.14 881.025   3
  -5  -6   6 17066.6 1420.59   1
  -5  -6   6 13835.1 1226.46   3
  -5  -6   5 15091.6 1247.59   1
  -5  -6   5 13301.2 1168.09   3
   5   6  -5 15286.9 1282.99   1
  -5  -6   5 13836.4 1098.56   4
  -5  -6   4 119.750 133.869   4
   5   6  -4 224.332 175.615   1
   5   6  -4 331.485 222.307   6
  -5  -6   4 582.476 247.515   3
  -5  -6   4 582.689 244.538   1
  -5  -6   4 284.182 139.818   2
  -5  -6   3 53.6569 103.732   4
   5   6  -3 398.741 263.167   6
  -5  -6   3-53.8994 124.382   3
  -5  -6   3 251.334 160.787   2
  -5  -6   2 8683.79 907.245   3
   5   6  -2 6717.88 958.259   6
  -5  -6   2 9025.41 867.226   4
   5   6  -1 4566.33 818.166   6
  -5  -6   1 4867.84 659.327   4
  -5  -6   0 629.880 283.584   4
   5   6   0 427.499 281.416   6
  -5  -6  -1-50.9924 80.0871   4
   5   6   1 24.2467 152.962   6
   5   6   2 5997.51 1073.44   6
  -5  -6  -2 9513.94 1117.08   4
   5   6   3 1631.84 619.336   6
  -5  -6  -3 3020.06 680.182   4
   5   6   4 2297.10 743.337   6
  -5  -6  -4 5670.80 992.651   4
   5   6   5 108.680 224.618   6
   5   6   6 380.547 308.795   6
  -5  -7  12 730.489 485.961   1
  -5  -7  11 906.749 523.129   1
  -5  -7  10-331.275 371.209   1
  -5  -7   9-168.313 224.282   1
  -5  -7   8 5638.01 964.347   1
  -5  -7   7 22552.2 1825.19   1
  -5  -7   7 23178.3 1669.78   3
  -5  -7   6 1041.10 356.233   3
  -5  -7   6 1223.72 407.373   1
  -5  -7   5 829.801 311.157   4
  -5  -7   5 366.095 230.614   3
  -5  -7   5 448.860 257.100   1
  -5  -7   4 1990.27 439.857   4
   5   7  -4 2191.78 530.190   6
  -5  -7   4 1811.63 430.712   3
  -5  -7   3 2868.12 534.899   4
   5   7  -3 2558.82 574.418   6
  -5  -7   3 2848.51 535.298   3
  -5  -7   2 7612.66 867.168   3
   5   7  -2 6499.21 938.075   6
  -5  -7   2 7784.02 895.016   4
  -5  -7   1 5746.71 747.308   3
   5   7  -1 5384.29 884.443   6
  -5  -7   1 6944.93 871.907   4
  -5  -7   0 4350.55 706.614   4
   5   7   0 3838.60 786.487   6
  -5  -7  -1 1230.02 403.055   4
   5   7   1 543.831 381.040   6
   5   7   2 453.554 330.387   6
  -5  -7  -2 207.467 227.465   4
   5   7   3 101.889 166.246   6
  -5  -7  -3 637.385 329.215   4
   5   7   4 657.442 462.023   6
  -5  -7  -4 1612.45 557.311   4
   5   7   5 989.291 504.175   6
  -5  -8  11 843.588 475.597   1
  -5  -8  10-545.356 364.761   1
  -5  -8   9 594.886 349.624   1
  -5  -8   8 72.7366 158.689   1
  -5  -8   7 5812.57 987.700   1
  -5  -8   6 89.9825 153.594   4
  -5  -8   6 1.31152 127.167   3
  -5  -8   6 273.335 218.519   1
  -5  -8   5 153.253 141.192   4
  -5  -8   5 602.102 269.590   3
  -5  -8   5 515.134 256.940   1
  -5  -8   4 3855.15 689.199   4
  -5  -8   4 3585.35 631.934   3
   5   8  -3 5561.70 836.811   6
  -5  -8   3 6146.93 789.377   3
  -5  -8   3 6108.22 866.707   4
  -5  -8   2 29.9036 159.301   4
   5   8  -2-265.267 238.037   6
  -5  -8   2 185.496 152.836   3
  -5  -8   1 1923.82 512.537   4
   5   8  -1 1684.06 501.277   6
  -5  -8   1 1969.51 438.882   3
  -5  -8   0 4353.84 787.841   4
  -5  -8   0 3691.90 595.509   3
   5   8   0 3562.56 750.309   6
  -5  -8  -1 561.781 342.626   4
   5   8   1 388.086 329.718   6
  -5  -8  -2-631.251 330.606   4
   5   8   2-184.147 275.713   6
  -5  -8  -3 385.633 331.152   4
  -5  -8  -4 1803.69 623.701   4
  -5  -9  11 98.6764 161.823   1
  -5  -9  10 199.483 249.737   1
  -5  -9   9-462.963 380.604   1
  -5  -9   8 1732.45 581.936   1
  -5  -9   7 935.488 394.465   4
  -5  -9   7 1126.63 448.326   1
  -5  -9   6 2096.03 587.716   4
  -5  -9   6 808.521 394.486   1
  -5  -9   5 140.420 149.518   4
  -5  -9   5 68.1680 142.933   3
  -5  -9   4-98.4533 139.854   4
  -5  -9   4 173.825 188.627   3
  -5  -9   3 188.584 165.431   4
  -5  -9   3 851.685 311.262   3
   5   9  -2 5588.39 867.067   6
  -5  -9   2 6142.08 785.527   3
  -5  -9   2 5970.30 936.698   4
   5   9  -1 7435.09 998.786   6
  -5  -9   1 7246.46 1069.85   4
  -5  -9   0 1897.08 562.155   4
  -5  -9  -1 795.188 371.454   4
  -5  -9  -2 714.520 378.703   4
  -5  -9  -3 1287.38 555.618   4
  -5 -10  10-289.679 331.035   1
  -5 -10   9 6899.16 1270.83   1
  -5 -10   8 1167.18 491.311   4
  -5 -10   8 1262.27 526.312   1
  -5 -10   7 2405.73 696.451   4
  -5 -10   7 2855.78 751.782   1
  -5 -10   6 698.632 381.178   4
  -5 -10   5 1771.98 571.783   4
  -5 -10   4 457.112 331.045   4
  -5 -10   3 183.903 248.547   4
  -5 -10   2 5476.25 947.865   4
  -5 -10   1 2061.82 604.734   4
  -5 -10   0 5050.25 963.747   4
  -5 -10  -1 1312.73 503.095   4
  -5 -11   9 137.308 275.856   1
  -5 -11   8 2945.36 809.792   1
  -5 -11   6 2714.34 741.078   4
  -5 -11   5-55.3676 248.691   4
  -5 -11   4 2095.43 686.659   4
  -5 -11   3 4913.69 1000.46   4
  -5 -11   2-770.607 392.865   4
   6 -11  -4-743.876 452.899   4
   6 -11  -3-900.005 497.529   4
   6 -11  -2 6930.86 1241.22   4
   6 -11  -1 325.526 360.502   4
   6 -11   0 1706.18 687.762   4
   6 -11   1 516.417 422.234   4
   6 -11   1 847.978 399.187   5
   6 -11   2 175.704 251.217   4
   6 -11   2-210.306 268.154   5
   6 -11   3 616.160 475.632   4
   6 -11   3 1720.24 669.968   5
   6 -10  -6 1685.83 600.986   4
   6 -10  -5 822.059 466.310   4
   6 -10  -4-324.682 278.167   4
  -6  10   4 364.054 275.812   2
   6 -10  -3 330.103 247.040   4
  -6  10   3 510.047 356.913   2
   6 -10  -2 812.019 434.055   4
  -6  10   2 769.452 413.807   2
   6 -10  -1 742.746 432.224   4
  -6  10   1 1304.31 547.243   2
   6 -10   0 658.151 415.915   4
   6 -10   0 690.793 373.294   5
  -6  10   0 311.026 328.700   2
   6 -10   1 469.452 388.788   4
   6 -10   1 357.969 287.675   5
  -6  10  -1 552.975 441.232   2
  -6  10  -2 603.774 437.498   2
   6 -10   2 1396.17 536.116   4
   6 -10   2 1421.71 553.618   5
  -6  10  -3 2019.68 745.337   2
   6 -10   3 2072.19 665.637   4
   6 -10   3 1895.04 647.290   5
   6 -10   4 58.8694 310.112   5
   6  -9  -7-549.589 387.734   4
   6  -9  -6 386.588 319.233   4
   6  -9  -5 2010.21 676.573   4
  -6   9   5 1944.78 609.241   2
   6  -9  -4 948.075 479.038   4
  -6   9   4-460.872 342.920   2
   6  -9  -3 423.947 364.027   4
  -6   9   3 108.846 207.117   2
   6  -9  -2 4696.08 914.055   4
  -6   9   2 3415.64 814.256   2
   6  -9  -1 1381.47 511.210   4
  -6   9   1 996.135 467.756   2
   6  -9   0 1342.96 500.146   4
   6  -9   0 889.574 461.876   5
  -6   9   0 731.130 448.920   2
  -6   9  -1 674.628 454.334   2
   6  -9   1 312.743 236.459   4
   6  -9   1 387.097 310.806   5
  -6   9  -2 540.005 409.613   2
   6  -9   2 354.970 334.663   4
   6  -9   2 1332.92 527.999   5
   6  -9   3-140.830 246.701   5
   6  -9   4 97.4865 167.609   5
   6  -9   5 426.225 333.589   5
   6  -9   6 931.115 454.868   1
   6  -8  -9 6974.22 1311.14   4
   6  -8  -8 531.439 473.972   4
   6  -8  -7 740.560 399.062   4
   6  -8  -6 2167.14 660.318   4
  -6   8   6 2336.94 654.764   2
   6  -8  -5 874.405 410.314   4
  -6   8   5 1172.80 479.792   2
   6  -8  -4 2035.70 566.371   4
  -6   8   4 2188.90 628.248   2
   6  -8  -3 6173.73 1014.40   4
  -6   8   3 5361.86 977.714   2
   6  -8  -2 1640.65 528.630   4
  -6   8   2 2394.70 678.087   2
   6  -8  -1 13324.2 1083.97   6
  -6   8   1 12622.5 1560.89   2
   6  -8  -1 12716.2 1407.91   4
  -6   8   0 957.568 469.492   2
   6  -8   0 456.637 360.441   4
   6  -8   0 1872.44 455.147   6
   6  -8   0 1370.52 488.188   5
   6  -8   1 1680.71 534.375   4
   6  -8   1 1334.57 440.173   6
   6  -8   1 1306.39 478.238   5
   6  -8   2 2327.83 605.612   6
   6  -8   2 2185.84 667.940   5
   6  -8   3-472.432 297.934   6
   6  -8   3 287.477 304.125   5
   6  -8   4 854.697 475.273   6
   6  -8   4 1126.62 548.341   5
   6  -8   5 2540.12 727.223   6
   6  -8   5 4991.25 956.147   1
   6  -8   5 3883.60 954.248   5
   6  -8   6 1605.71 613.915   6
   6  -8   6 3398.70 842.750   1
   6  -8   7 1409.48 616.231   6
   6  -7 -10 1046.91 498.000   4
   6  -7  -9-4.77845 145.237   4
   6  -7  -8 4841.49 981.583   4
   6  -7  -7 1627.89 562.541   4
   6  -7  -6 1137.21 464.286   4
  -6   7   6 2607.53 667.564   2
   6  -7  -5 1205.07 417.489   4
  -6   7   5 999.197 261.142   3
  -6   7   5 638.098 369.217   2
   6  -7  -4 590.173 302.071   4
  -6   7   4 523.888 304.836   2
   6  -7  -3 3950.02 739.815   4
  -6   7   3 2863.14 694.628   2
   6  -7  -2 3907.49 724.233   4
   6  -7  -2 4584.06 661.332   6
  -6   7   2 4103.60 837.967   2
  -6   7   1 2960.54 751.977   2
   6  -7  -1 3703.08 705.707   4
   6  -7  -1 2827.70 550.695   6
   6  -7   0 3810.86 729.487   4
   6  -7   0 2734.94 571.346   6
   6  -7   0 3707.64 758.906   5
   6  -7   1 2652.79 598.424   4
   6  -7   1 2441.60 590.708   6
   6  -7   1 3030.38 717.234   5
   6  -7   2 4548.73 859.906   6
   6  -7   2 7270.52 1138.90   5
   6  -7   3 1960.68 601.792   6
   6  -7   3 2194.02 642.814   5
   6  -7   4-112.129 239.080   6
   6  -7   4 48.2625 171.220   1
   6  -7   4 359.535 303.997   5
   6  -7   5 260.606 273.747   6
   6  -7   5 232.097 216.126   1
   6  -7   5 177.511 239.199   5
   6  -7   6-199.013 226.259   6
   6  -7   6 445.650 353.777   5
   6  -7   6 91.8144 214.092   1
   6  -7   7-135.359 315.745   6
   6  -6 -10 880.604 465.871   4
   6  -6  -9 1410.40 523.444   4
   6  -6  -8 5463.52 983.517   4
   6  -6  -7 3001.72 683.181   4
  -6   6   6 5415.24 607.442   3
  -6   6   6 5235.90 890.678   2
   6  -6  -6 5000.09 877.411   4
  -6   6   5 9837.46 1201.86   2
   6  -6  -5 7702.71 1006.42   4
   6  -6  -4-232.838 215.894   4
  -6   6   4 13.1632 60.9162   2
   6  -6  -3 3408.97 632.633   4
   6  -6  -3 5107.35 729.194   6
  -6   6   3 4183.67 818.117   2
  -6   6   2 2032.72 591.761   2
   6  -6  -2 2004.02 477.940   4
   6  -6  -2 1865.03 441.896   6
   6  -6  -1 4314.33 705.717   6
   6  -6  -1 5030.06 756.026   4
   6  -6   0 5651.89 851.235   6
   6  -6   0 5916.52 941.899   5
   6  -6   0 5846.79 827.909   4
   6  -6   1 209.801 239.945   6
   6  -6   1 341.844 245.236   5
   6  -6   2-286.557 295.266   6
   6  -6   2 45.8801 161.505   5
   6  -6   3 1322.31 503.613   6
   6  -6   3 1733.42 473.511   1
   6  -6   3 1171.65 461.550   5
   6  -6   4 2219.65 659.214   6
   6  -6   4 2440.96 600.834   1
   6  -6   4 1880.16 605.983   5
   6  -6   5 466.486 377.200   6
   6  -6   5 686.800 436.668   5
   6  -6   5 1262.28 439.151   1
   6  -6   6 26.8841 253.942   6
   6  -6   6 1721.36 634.879   5
   6  -6   6 1694.58 568.781   1
   6  -6   7-291.595 337.910   6
   6  -6   7 717.346 480.139   5
   6  -5 -10 59.0716 257.231   4
   6  -5  -9 1015.85 471.008   4
  -6   5   8 436.915 179.454   3
   6  -5  -8 457.707 302.643   4
  -6   5   7 5432.01 631.581   3
  -6   5   7 6098.13 907.127   2
   6  -5  -7 5243.31 874.201   4
   6  -5  -6 344.392 236.955   4
  -6   5   6 311.806 170.486   3
  -6   5   6 94.5371 127.304   2
   6  -5  -5 1552.63 423.810   4
  -6   5   5 1423.34 458.937   2
   6  -5  -4 1041.56 358.459   4
  -6   5   4 652.552 282.419   2
   6  -5  -3 11319.7 1077.87   6
  -6   5   3 10273.7 1215.67   2
   6  -5  -3 10720.1 1013.08   4
  -6   5   2 3009.93 662.177   2
   6  -5  -2 3579.97 615.764   6
   6  -5  -2 3402.83 568.584   4
  -6   5   1 1066.76 326.415   1
   6  -5  -1 1481.69 380.802   4
   6  -5  -1 1366.36 423.076   6
  -6   5   0 3375.23 586.996   1
   6  -5   0 2753.34 613.978   6
   6  -5   0 4054.44 775.019   5
   6  -5   0 3729.29 601.586   4
   6  -5   1 643.071 313.813   6
  -6   5  -1 1853.49 443.561   1
   6  -5   1 1705.00 507.948   5
   6  -5   2 6801.73 1076.44   6
   6  -5   2 9119.49 1218.46   5
   6  -5   3 6710.83 841.887   1
   6  -5   3 4612.71 914.593   6
   6  -5   3 6099.92 1035.17   5
   6  -5   4 34.0196 183.189   5
   6  -5   4 64.3918 142.674   1
   6  -5   5-348.639 353.846   6
   6  -5   5 285.560 282.233   5
   6  -5   5 302.819 200.391   1
   6  -5   6 586.430 414.363   6
   6  -5   6 187.112 247.952   5
   6  -5   6 978.603 311.578   1
   6  -5   7 626.981 400.607   5
  -6   4  11 1233.72 586.902   1
  -6   4  10-47.0685 212.378   1
   6  -4  -9 2745.07 693.789   4
  -6   4   8 1428.59 356.187   3
   6  -4  -8 1508.98 469.782   4
  -6   4   7 650.324 241.788   3
  -6   4   7 608.688 311.799   2
   6  -4  -7 633.255 296.485   4
   6  -4  -6 1229.34 367.245   4
  -6   4   6 1122.62 312.449   3
  -6   4   6 1512.10 430.358   2
   6  -4  -5-112.979 111.776   4
  -6   4   5-19.7112 122.230   2
   6  -4  -4 32267.7 1873.28   6
  -6   4   4 29616.1 1922.50   2
   6  -4  -4 27403.3 1510.13   4
  -6   4   3 481.427 283.062   2
   6  -4  -3 682.505 234.644   4
   6  -4  -3 549.344 259.565   6
  -6   4   3 674.867 238.242   1
  -6   4   2 19527.9 1252.48   1
   6  -4  -2 20046.6 1530.19   6
   6  -4  -2 21140.8 1235.20   4
  -6   4   1 6160.35 687.054   1
   6  -4  -1 5814.40 858.768   6
   6  -4  -1 6618.08 707.200   4
  -6   4   0-7.70169 41.8312   1
   6  -4   0 178.336 191.216   6
   6  -4   0 306.302 219.841   5
  -6   4  -1 10240.9 925.423   1
   6  -4   1 8921.03 1208.26   6
   6  -4   1 10574.8 1226.29   5
  -6   4  -2 456.399 223.258   1
   6  -4   2 293.943 287.837   6
   6  -4   2 523.902 322.430   5
   6  -4   3 135.714 165.563   6
   6  -4   3-18.4877 82.6434   1
   6  -4   3 41.0569 164.889   5
   6  -4   4 7571.86 887.302   1
   6  -4   4 4198.35 960.587   6
   6  -4   4 7153.16 1130.05   5
   6  -4   5-389.584 359.300   6
   6  -4   5-84.0963 249.545   5
   6  -4   5 409.740 225.912   1
   6  -4   6 2018.34 708.204   6
   6  -4   6 3706.44 867.816   5
   6  -4   7 786.010 419.693   5
  -6   3  11 79.1886 271.171   1
  -6   3  10 539.167 402.092   1
  -6   3   9 1633.46 561.521   1
  -6   3   8 134.887 168.137   3
   6  -3  -8-72.1494 140.244   4
  -6   3   7 10110.9 934.262   3
  -6   3   7 10422.6 1021.72   2
   6  -3  -7 10143.0 1057.83   4
  -6   3   6 988.901 302.137   4
  -6   3   6 1593.44 398.032   3
  -6   3   6 2038.66 455.660   2
   6  -3  -6 1967.28 432.291   4
   6  -3  -5 115.392 141.993   4
  -6   3   5 322.570 201.171   2
   6  -3  -4 360.513 178.888   4
   6  -3  -4 23.3909 122.007   6
  -6   3   4 587.558 269.443   2
  -6   3   3 10852.4 871.327   1
   6  -3  -3 12289.7 1168.45   6
   6  -3  -3 11673.3 806.384   4
   6  -3  -2 346.450 150.225   4
   6  -3  -2 620.816 311.903   6
  -6   3   2 424.269 159.737   1
  -6   3   1 12701.2 864.292   1
   6  -3  -1 11919.0 1242.91   6
   6  -3  -1 11859.6 810.803   4
   6  -3   0 1989.12 562.954   6
   6  -3   0 2193.17 553.630   5
  -6   3   0 1676.36 321.325   1
  -6   3  -1-28.6018 60.9385   1
   6  -3   1 129.168 205.333   6
   6  -3   1 406.020 319.836   5
   6  -3   2 7372.62 1131.03   6
  -6   3  -2 8043.56 777.005   1
   6  -3   2 7326.92 1052.73   5
   6  -3   3 235.246 275.853   6
   6  -3   3 848.599 432.152   5
   6  -3   3 650.435 232.736   1
   6  -3   4 9249.39 914.169   1
   6  -3   4 8609.28 1350.98   6
   6  -3   4 8749.34 1217.94   5
   6  -3   5 2438.06 500.218   1
   6  -3   5 2169.37 760.722   6
   6  -3   5 2352.54 669.399   5
   6  -3   6 3574.55 941.918   6
   6  -3   6 6449.49 1123.93   5
   6  -3   7 6035.99 1107.56   5
   6  -3   8 1921.75 646.545   5
  -6   2  12 4719.41 1144.09   1
  -6   2  11 3615.02 955.511   1
  -6   2  10-382.977 310.387   1
  -6   2   9 1993.48 649.912   1
  -6   2   9 2556.68 515.268   3
  -6   2   8 2762.41 686.482   1
  -6   2   8 3173.24 551.348   3
  -6   2   7 1077.67 312.382   4
  -6   2   7 1569.13 373.039   3
  -6   2   7 1307.02 334.968   2
  -6   2   7 1415.77 445.074   1
  -6   2   6 3052.49 479.735   4
  -6   2   6 2814.21 512.719   3
   6  -2  -6 3155.63 479.937   4
  -6   2   6 2855.22 506.418   2
  -6   2   5 4756.96 668.409   2
   6  -2  -5 4522.70 515.440   4
   6  -2  -4 45542.8 2280.00   6
  -6   2   4 44685.7 2145.93   2
   6  -2  -4 47954.4 1422.82   4
  -6   2   3 22071.0 1088.94   1
   6  -2  -3 23948.8 1673.90   6
   6  -2  -3 23902.9 888.469   4
  -6   2   2-171.092 87.8439   1
   6  -2  -2 70.1695 54.9451   4
   6  -2  -2 286.285 228.375   6
  -6   2   1 9950.66 596.811   1
   6  -2  -1 10182.5 1179.90   6
   6  -2  -1 10918.0 634.519   4
   6  -2   0 184.451 221.050   6
  -6   2   0 730.815 171.210   1
   6  -2   0 288.599 224.644   5
   6  -2   1 21612.8 1870.51   6
  -6   2  -1 22223.5 973.057   1
   6  -2   1 22877.1 1745.55   5
   6  -2   2 294.917 291.038   6
   6  -2   2 316.756 128.794   1
   6  -2   2-200.204 208.937   5
   6  -2   3 895.608 419.519   6
   6  -2   3 1455.47 482.101   5
   6  -2   3 2116.33 367.002   1
   6  -2   4 4674.13 612.692   1
   6  -2   4 3151.27 847.925   6
   6  -2   4 4026.63 834.871   5
   6  -2   5-348.168 357.709   6
   6  -2   5 534.982 328.655   5
   6  -2   6 966.176 580.171   6
   6  -2   6 2101.60 639.760   5
   6  -2   7 237.794 281.849   5
   6  -2   8 54.0017 208.673   5
  -6   1  12-479.871 352.289   1
  -6   1  11 2066.34 677.263   1
  -6   1  10 1473.39 550.032   1
  -6   1   9 2578.54 674.846   1
  -6   1   9 3259.81 590.977   3
  -6   1   8 671.379 273.604   3
  -6   1   8 509.453 306.953   1
  -6   1   7 962.583 358.033   1
  -6   1   7 910.663 276.519   4
  -6   1   7 753.196 280.360   3
  -6   1   7 898.928 271.412   2
  -6   1   6 2405.59 517.523   1
  -6   1   6 2133.93 464.453   3
  -6   1   6 2661.25 447.499   2
  -6   1   6 2964.75 417.225   4
   6  -1  -5 25626.3 1771.23   6
  -6   1   5 24693.6 1457.96   1
  -6   1   5 27087.3 1495.92   2
   6  -1  -4 641.413 299.324   6
  -6   1   4 520.541 193.568   1
   6  -1  -3 98.7821 177.811   6
  -6   1   3 325.424 113.266   1
  -6   1   3 272.250 118.042   1
  -6   1   2 1067.78 146.233   1
   6  -1  -2 1119.02 400.134   6
  -6   1   2 1351.50 169.446   1
   6  -1  -1 1675.89 152.322   4
   6  -1  -1 1529.00 147.098   4
   6  -1   0 29246.1 2157.25   6
   6  -1   0 30003.9 1022.30   4
   6  -1   1 321.991 142.160   4
   6  -1   1 115.561 183.961   6
   6  -1   1 688.726 313.359   5
   6  -1   2 3.84025 114.651   6
   6  -1   2 139.400 63.2464   1
   6  -1   2 85.2135 202.937   5
   6  -1   3 377.708 320.170   6
   6  -1   3 171.879 238.691   5
   6  -1   3 358.914 134.862   1
   6  -1   4 613.902 222.599   1
   6  -1   4 287.366 306.029   6
   6  -1   4 290.802 234.560   5
   6  -1   5-25.8087 143.073   6
   6  -1   5-45.4750 242.162   5
   6  -1   6 548.624 456.575   6
   6  -1   6 996.503 435.245   5
   6  -1   7 1238.67 733.577   6
   6  -1   7 3345.99 825.092   5
   6  -1   8 861.380 420.558   5
  -6   0  12 531.782 362.530   1
  -6   0  11 1926.89 666.666   1
  -6   0  10 2212.06 667.852   1
  -6   0   9 253.388 211.850   3
  -6   0   9 512.576 307.291   1
  -6   0   8 184.080 166.418   1
  -6   0   8-78.1603 89.7246   4
  -6   0   8-300.915 179.279   3
  -6   0   7 696.451 288.123   1
  -6   0   7 1383.61 309.350   4
  -6   0   7 1130.43 352.548   3
  -6   0   6 479.100 227.063   1
  -6   0   6 431.153 149.074   4
  -6   0   6 648.049 263.864   3
  -6   0   6 482.014 173.810   2
   6   0  -5 16948.0 1442.73   6
  -6   0   5 17120.2 1117.85   1
  -6   0   5 17955.3 1127.29   2
   6   0  -4 9992.69 1096.77   6
  -6   0   4 11850.7 762.985   1
   6   0  -3 856.256 353.464   6
  -6   0   3 571.797 110.490   1
  -6   0   3 683.876 123.463   1
   6   0  -2 3578.52 721.311   6
   6   0  -1 36265.8 2302.46   6
   6   0   0 941.822 162.506   4
   6   0   0 1061.95 445.384   6
   6   0   1 1121.82 243.824   4
   6   0   1 1069.60 462.433   6
   6   0   2 1784.07 585.756   6
   6   0   2 2618.12 604.179   5
   6   0   3 1900.32 278.609   1
   6   0   3 1639.57 591.074   6
   6   0   3 1844.06 516.512   5
   6   0   4 378.524 356.421   6
   6   0   4-27.4761 146.632   5
   6   0   5 3087.84 882.242   6
   6   0   5 3034.13 716.079   5
   6   0   6-430.759 435.505   6
   6   0   6 31.9374 241.332   5
   6   0   7 201.213 316.674   6
   6   0   7-38.2898 158.304   5
   6   0   8 1182.18 477.145   5
  -6  -1  13 615.216 433.544   1
  -6  -1  12-680.601 406.010   1
  -6  -1  11-318.723 312.545   1
  -6  -1  10 3169.50 761.715   1
  -6  -1   9 672.211 322.526   1
  -6  -1   9 449.003 250.008   3
  -6  -1   8 4655.21 721.245   3
  -6  -1   8 4749.36 796.318   1
  -6  -1   8 4459.59 610.981   4
  -6  -1   7 92.9808 80.3706   4
  -6  -1   7 192.531 163.904   1
  -6  -1   7 272.854 202.170   3
  -6  -1   6 1678.16 387.660   1
  -6  -1   6 1421.82 386.990   3
  -6  -1   6 2361.66 320.377   2
  -6  -1   6 1976.50 273.006   4
   6   1  -5 12608.2 1263.73   6
  -6  -1   5 13701.6 947.114   1
  -6  -1   5 12979.3 882.868   2
   6   1  -4 1598.32 465.465   6
  -6  -1   4 1387.43 245.892   1
   6   1  -3 11358.5 1242.28   6
   6   1  -2 10961.8 1247.35   6
   6   1  -1 876.530 393.510   6
   6   1   0 19620.8 1822.37   6
   6   1   0 21943.8 787.068   4
   6   1   1 17958.1 1794.67   6
   6   1   1 21664.6 1072.80   4
   6   1   2 1118.93 493.582   6
   6   1   3 353.554 266.107   6
   6   1   3 106.512 165.128   5
   6   1   4 3009.38 882.344   6
   6   1   4 4193.19 786.881   5
   6   1   5 1065.88 561.507   6
   6   1   5 2156.42 592.528   5
   6   1   6-117.000 297.113   6
   6   1   6 173.010 193.114   5
   6   1   7 2824.52 899.601   6
   6   1   7 8098.93 1201.56   5
  -6  -2  13 2397.99 772.964   1
  -6  -2  12 3287.82 872.149   1
  -6  -2  11 1722.32 594.648   1
  -6  -2  10 658.266 332.500   1
  -6  -2   9 4017.78 788.254   1
  -6  -2   9 4840.07 777.625   3
  -6  -2   8 1217.51 413.064   1
  -6  -2   8 1926.00 475.900   3
  -6  -2   7 16654.5 1347.73   3
  -6  -2   7 16884.4 1337.71   1
  -6  -2   7 17801.4 998.814   4
  -6  -2   6 18141.5 1394.70   3
  -6  -2   6 20495.8 1304.99   1
  -6  -2   6 17963.1 667.120   2
  -6  -2   6 17804.3 769.869   4
  -6  -2   5 11213.5 832.414   1
   6   2  -5 11059.1 1211.70   6
  -6  -2   4 2782.87 320.501   1
   6   2  -4 1926.62 507.192   6
   6   2  -3 484.573 295.396   6
   6   2  -2 915.664 387.842   6
   6   2  -1 3338.65 754.049   6
   6   2   0 10415.8 1351.13   6
   6   2   0 11155.9 636.651   4
   6   2   1 863.638 231.895   4
   6   2   1 393.516 338.159   6
   6   2   2 4785.13 1002.44   6
   6   2   3 3247.03 816.527   6
   6   2   4 108.231 220.835   6
   6   2   5 366.845 308.110   6
   6   2   5 455.711 313.031   5
   6   2   6 26.8585 290.955   6
   6   2   6 1113.30 410.576   5
  -6  -3  13 401.222 384.737   1
  -6  -3  12 1356.47 553.063   1
  -6  -3  11 425.572 392.401   1
  -6  -3  10 2344.00 631.915   1
  -6  -3   9 528.462 284.729   3
  -6  -3   9 452.336 276.686   1
  -6  -3   8 2841.95 604.275   3
  -6  -3   8 2883.35 616.967   1
  -6  -3   7 2070.07 355.547   4
  -6  -3   7 1468.54 412.435   3
  -6  -3   7 1809.87 443.391   1
  -6  -3   6 3681.48 567.338   1
  -6  -3   6 3376.38 619.970   3
  -6  -3   6 2857.66 325.491   4
  -6  -3   5 15388.3 992.436   1
   6   3  -5 13071.4 1320.47   6
  -6  -3   5 14071.3 1234.60   3
  -6  -3   4 5214.05 456.537   1
   6   3  -4 4275.72 771.550   6
   6   3  -3 1542.97 477.365   6
   6   3  -2 9098.99 1169.88   6
   6   3  -1 20862.2 1810.68   6
   6   3   0 3930.64 831.414   6
   6   3   1 550.641 376.621   6
   6   3   2-28.9054 146.507   6
   6   3   3 708.853 478.889   6
   6   3   4 1637.60 600.248   6
   6   3   5 543.428 420.162   6
   6   3   6 870.419 488.387   6
  -6  -4  13 3119.74 911.593   1
  -6  -4  12 396.046 414.007   1
  -6  -4  11 4539.72 947.442   1
  -6  -4  10 7025.61 1102.35   1
  -6  -4   9 4309.95 762.683   3
  -6  -4   9 3809.28 777.497   1
  -6  -4   8 2174.67 541.695   1
  -6  -4   8 1736.33 482.071   3
  -6  -4   7 3459.73 626.802   1
  -6  -4   7 3575.72 656.286   3
  -6  -4   6 564.277 239.799   1
  -6  -4   6 644.321 308.005   3
  -6  -4   6 378.345 139.131   4
  -6  -4   5 90.0947 59.2213   4
   6   4  -5 368.275 282.373   6
  -6  -4   5 179.719 162.025   3
  -6  -4   5 18.3368 80.2836   1
  -6  -4   4 5520.62 512.936   1
  -6  -4   4 5032.87 320.525   4
   6   4  -3 15.6509 161.692   6
  -6  -4   3 110.674 49.0186   4
   6   4  -2 2490.89 632.052   6
  -6  -4   2 2879.55 310.646   4
   6   4  -1 1886.93 547.634   6
   6   4   0 2087.65 636.693   6
   6   4   1 1559.46 597.032   6
   6   4   2 1442.59 602.395   6
   6   4   3 1129.20 542.536   6
   6   4   4 955.893 491.838   6
   6   4   5 566.264 414.714   6
   6   4   6 1240.83 605.303   6
  -6  -5  13 862.935 419.557   1
  -6  -5  12 1999.53 669.851   1
  -6  -5  11 1582.27 553.984   1
  -6  -5  10 6519.80 1079.41   1
  -6  -5   9 8739.42 1183.07   1
  -6  -5   9 10578.2 1216.89   3
  -6  -5   8 997.479 364.880   1
  -6  -5   8 789.396 319.856   3
  -6  -5   7 3971.48 688.781   1
  -6  -5   7 2956.19 621.292   3
  -6  -5   6 20126.4 1409.69   1
  -6  -5   6 17824.5 1452.47   3
  -6  -5   6 18499.0 1083.90   4
  -6  -5   5 17032.2 1161.59   1
   6   5  -5 15249.8 1484.36   6
  -6  -5   5 14874.9 1307.32   3
  -6  -5   5 13919.9 840.974   4
   6   5  -4 2358.24 592.147   6
  -6  -5   4 2425.94 525.798   3
  -6  -5   4 2573.54 346.699   4
  -6  -5   3 1753.46 287.470   4
   6   5  -3 1753.15 530.780   6
   6   5  -2 6257.33 989.487   6
  -6  -5   2 5962.82 560.528   4
   6   5  -1 3407.77 762.887   6
  -6  -5   1 3873.50 511.476   4
   6   5   0 859.644 436.183   6
  -6  -5   0 565.792 240.614   4
   6   5   1 2437.02 710.243   6
   6   5   2 1721.18 635.351   6
   6   5   3 26.0402 200.727   6
   6   5   4 667.241 444.783   6
   6   5   5 2237.91 857.758   6
  -6  -6  12 556.401 377.750   1
  -6  -6  11 3291.64 799.446   1
  -6  -6  10 4670.38 930.311   1
  -6  -6   9 1679.09 531.531   1
  -6  -6   8 3697.18 731.914   1
  -6  -6   8 4150.09 753.716   3
  -6  -6   7 8700.53 1054.09   1
  -6  -6   7 8047.76 1031.00   3
  -6  -6   6 3086.64 510.938   4
  -6  -6   6 2147.81 526.533   3
  -6  -6   6 3259.23 614.563   1
  -6  -6   5 10105.8 958.071   1
   6   6  -5 10395.3 1238.09   6
  -6  -6   5 10293.9 1105.01   3
  -6  -6   5 10000.8 844.748   4
  -6  -6   4 2666.83 425.731   4
   6   6  -4 3169.27 700.630   6
  -6  -6   4 2764.30 576.682   3
  -6  -6   3 6140.82 854.939   3
   6   6  -3 5727.91 920.997   6
  -6  -6   3 6631.49 675.338   4
   6   6  -2 7467.64 1099.36   6
  -6  -6   2 9019.35 826.275   4
  -6  -6   1 583.306 218.094   4
   6   6  -1 690.994 379.408   6
   6   6   0 1467.03 551.112   6
  -6  -6   0 2179.50 460.527   4
   6   6   1-91.4691 178.223   6
  -6  -6  -1 25.3976 93.3268   4
   6   6   2 2792.72 786.900   6
  -6  -6  -2 6896.86 987.821   4
   6   6   3 1715.71 671.814   6
   6   6   4-118.859 222.630   6
   6   6   5 258.728 402.469   6
  -6  -7  12 789.151 431.909   1
  -6  -7  11 1270.02 530.032   1
  -6  -7  10 2569.78 701.617   1
  -6  -7   9 3579.21 800.056   1
  -6  -7   8 355.034 240.679   3
  -6  -7   8 293.589 242.479   1
  -6  -7   7 777.156 294.338   4
  -6  -7   7 174.607 225.124   3
  -6  -7   7 255.855 250.616   1
  -6  -7   6 5955.57 861.714   1
  -6  -7   6 5162.68 818.638   3
  -6  -7   6 7014.86 831.258   4
  -6  -7   5 10723.6 1151.69   3
  -6  -7   5 10820.6 981.408   4
   6   7  -4 39929.2 2457.87   6
  -6  -7   4 38851.3 2140.94   3
  -6  -7   4 43883.4 1969.94   4
  -6  -7   3 528.669 210.529   4
   6   7  -3 103.888 241.512   6
  -6  -7   3 88.8903 168.753   3
  -6  -7   2 96.5259 142.070   4
  -6  -7   2-128.630 139.539   3
   6   7  -2-56.8239 101.190   6
  -6  -7   1 2023.64 459.808   4
   6   7  -1 2126.14 651.987   6
   6   7   0 209.104 246.787   6
  -6  -7   0 335.552 204.691   4
   6   7   1-262.031 268.408   6
  -6  -7  -1-185.787 186.602   4
   6   7   2 746.596 463.021   6
   6   7   3 2675.58 796.808   6
   6   7   4 672.794 490.666   6
  -6  -8  11 358.240 315.984   1
  -6  -8  10 1157.70 491.878   1
  -6  -8   9 5002.46 1001.55   1
  -6  -8   8 1247.16 487.918   1
  -6  -8   7 4881.04 843.321   3
  -6  -8   7 5799.21 935.459   1
  -6  -8   6 894.079 356.973   3
  -6  -8   6 1029.28 376.604   1
  -6  -8   5 1029.46 391.634   3
   6   8  -4 1720.45 511.259   6
  -6  -8   4 2812.23 590.370   3
   6   8  -3-143.443 206.697   6
  -6  -8   3-114.373 150.244   3
   6   8  -2 512.189 292.163   6
  -6  -8   2 537.022 247.950   3
  -6  -8   1 626.575 282.261   3
   6   8  -1 455.123 282.461   6
  -6  -8   0 106.042 115.915   3
   6   8   0-55.0672 184.220   6
   6   8   1 108.605 269.476   6
   6   8   2 103.635 232.129   6
  -6  -9  11 783.337 492.584   1
  -6  -9  10 567.772 383.532   1
  -6  -9   9 2.24670 117.446   1
  -6  -9   8 9480.11 1329.14   1
  -6  -9   7 197.966 196.676   1
  -6  -9   6-56.8079 149.914   3
  -6  -9   5-1.45715 50.3125   3
  -6  -9   4 990.226 359.006   3
   6   9  -3 820.423 365.192   6
  -6  -9   3 436.059 276.349   3
   6   9  -2 2242.60 605.263   6
  -6  -9   2 2247.85 510.049   3
  -6 -10   5 1281.48 421.031   3
   7 -11  -2 1263.29 612.003   4
   7 -11  -1 2191.68 707.098   4
   7 -11   0 2871.31 834.433   4
   7 -11   1 1811.20 704.752   4
   7 -11   1 2607.36 726.947   5
   7 -10  -5-649.022 399.004   4
   7 -10  -4 342.592 369.148   4
   7 -10  -3 1655.34 611.896   4
   7 -10  -2 3068.44 795.191   4
   7 -10  -1 5781.02 1082.37   4
   7 -10   0-583.221 393.567   4
   7 -10   1 8081.59 1313.75   4
   7 -10   1 5256.52 1047.36   5
   7 -10   2 708.441 467.967   4
   7 -10   2 2.50392 258.170   5
   7 -10   3 7089.38 1282.49   4
   7  -9  -7 19.5863 162.873   4
   7  -9  -6-2.28163 190.111   4
   7  -9  -5 520.351 392.062   4
  -7   9   5 433.663 371.576   2
   7  -9  -4 3432.22 795.133   4
  -7   9   4 1628.37 598.692   2
   7  -9  -3 1234.51 491.448   4
  -7   9   3 856.859 466.066   2
   7  -9  -2 635.986 358.961   4
  -7   9   2 1509.27 555.283   2
   7  -9  -1 3563.34 828.014   4
  -7   9   1 2097.74 692.815   2
   7  -9   0 684.756 404.467   4
  -7   9   0 955.546 484.313   2
  -7   9  -1-148.929 266.608   2
   7  -9   1-130.472 230.712   4
   7  -9   1 485.620 323.381   5
   7  -9   2 5733.59 1049.50   4
   7  -9   2 5701.84 1098.65   5
   7  -9   3 672.560 395.683   5
   7  -8  -8 1382.63 572.414   4
   7  -8  -7-410.631 287.042   4
   7  -8  -6 988.248 438.708   4
  -7   8   6 643.368 377.779   2
   7  -8  -5 892.536 386.788   4
  -7   8   5 1507.78 558.716   2
   7  -8  -4 327.434 289.488   4
  -7   8   4-178.270 224.383   2
   7  -8  -3 623.906 348.260   4
  -7   8   3 998.012 457.644   2
   7  -8  -2 1251.92 474.128   4
  -7   8   2 463.672 325.706   2
   7  -8  -1 146.370 268.926   4
   7  -8  -1-127.257 133.502   6
  -7   8   1 241.288 292.081   2
  -7   8   0 449.346 352.034   2
   7  -8   0 512.030 349.121   4
   7  -8   0-201.512 180.176   6
   7  -8   0 501.074 337.549   5
   7  -8   1 5031.12 873.141   6
   7  -8   1 7440.40 1211.81   5
   7  -8   1 8084.83 1178.13   4
   7  -8   2 282.029 249.865   4
   7  -8   2-763.123 391.803   6
   7  -8   2-281.467 272.075   5
   7  -8   3-295.911 266.388   6
   7  -8   3 516.263 369.711   5
   7  -8   4-260.203 267.242   6
   7  -8   4-270.834 258.388   5
   7  -8   5 1291.30 577.883   6
   7  -8   6 238.851 315.489   6
   7  -7  -9 2067.64 695.326   4
   7  -7  -8 1989.52 641.547   4
   7  -7  -7 458.787 322.234   4
  -7   7   7 478.051 311.300   2
   7  -7  -6 387.747 250.650   4
  -7   7   6-9.63983 120.437   2
   7  -7  -5-96.6301 236.476   4
  -7   7   5 321.922 264.123   2
   7  -7  -4 1640.53 511.497   4
  -7   7   4 1669.98 544.301   2
  -7   7   3 12248.9 1508.01   2
   7  -7  -3 14953.2 1446.01   4
   7  -7  -2 401.276 287.213   4
   7  -7  -2 401.538 284.601   6
  -7   7   2 467.627 309.430   2
   7  -7  -1 15629.9 1415.85   6
  -7   7   1 17959.5 1917.46   2
   7  -7  -1 17413.6 1536.91   4
   7  -7   0 4490.48 816.340   6
   7  -7   0 6969.73 1131.04   5
   7  -7   0 6936.00 983.555   4
   7  -7   1 3240.12 678.365   4
   7  -7   1 3617.96 810.192   6
   7  -7   1 3121.72 795.811   5
   7  -7   2 136.074 167.867   6
   7  -7   2-95.8546 228.488   5
   7  -7   3 4990.55 1044.22   6
   7  -7   3 6491.82 1207.89   5
   7  -7   4 582.615 377.986   6
   7  -7   4 938.421 476.397   5
   7  -7   5-237.605 320.408   6
   7  -7   6-205.380 307.770   6
   7  -6  -9 96.7859 151.978   4
   7  -6  -8 4871.69 914.974   4
   7  -6  -7 33.3705 191.880   4
  -7   6   7 42.0218 93.3944   2
   7  -6  -6 3123.14 658.419   4
  -7   6   6 3225.16 534.938   3
  -7   6   6 3436.51 753.563   2
   7  -6  -5 1768.16 479.581   4
  -7   6   5 1915.86 568.980   2
  -7   6   4 5691.03 978.175   2
   7  -6  -4 5337.61 799.055   4
   7  -6  -3 112.044 148.413   4
   7  -6  -3-92.6655 130.118   6
  -7   6   3 242.094 222.606   2
  -7   6   2-136.110 212.019   2
   7  -6  -2-383.863 248.132   4
   7  -6  -2 40.8292 114.688   6
   7  -6  -1 117.918 162.162   4
   7  -6  -1-109.248 222.498   6
   7  -6   0 2603.50 573.102   4
   7  -6   0 2391.93 656.798   6
   7  -6   0 1943.32 593.854   5
   7  -6   1 107.511 223.589   6
   7  -6   1 955.953 460.824   5
   7  -6   2 307.830 274.561   6
   7  -6   2 431.420 340.799   5
   7  -6   3 223.291 282.820   6
   7  -6   3 80.6861 218.535   5
   7  -6   4 992.796 490.024   6
   7  -6   4 1688.80 607.025   5
   7  -6   5 108.818 374.520   6
   7  -6   5 556.950 413.520   5
   7  -6   6-43.3855 216.399   6
  -7   5  10 776.271 459.296   1
   7  -5  -9 3708.22 806.392   4
  -7   5   8 2469.25 476.708   3
   7  -5  -8 2899.88 676.236   4
  -7   5   7 1116.97 312.237   3
  -7   5   7 1187.23 413.372   2
   7  -5  -7 1270.99 433.465   4
   7  -5  -6 1542.01 453.608   4
  -7   5   6 1647.21 408.565   3
  -7   5   6 1149.41 404.785   2
   7  -5  -5 3296.81 603.003   4
  -7   5   5 3359.78 700.815   2
   7  -5  -4-40.5545 126.019   4
   7  -5  -4 325.059 255.495   6
  -7   5   4-400.100 305.610   2
   7  -5  -3 18653.8 1543.45   6
  -7   5   3 17607.1 1711.68   2
   7  -5  -3 17712.8 1279.74   4
   7  -5  -2 684.050 267.799   4
   7  -5  -2 487.264 266.294   6
   7  -5  -1 2549.13 487.017   4
   7  -5  -1 3126.80 715.018   6
   7  -5   0 546.556 255.790   4
   7  -5   0 491.861 322.319   6
   7  -5   0 501.008 353.384   5
   7  -5   1 9274.29 1320.35   6
   7  -5   1 11604.1 1420.93   5
   7  -5   2 8167.29 1324.90   6
   7  -5   2 9839.11 1353.78   5
   7  -5   3 94.2778 222.112   6
   7  -5   3 367.072 313.436   5
   7  -5   4 1027.63 526.495   6
   7  -5   4 813.662 489.142   5
   7  -5   5 1175.17 564.668   6
   7  -5   5 1004.63 512.580   5
   7  -5   6 394.220 377.016   6
  -7   4  11 756.469 507.977   1
  -7   4  10 1044.82 509.304   1
  -7   4   9 2453.69 493.077   3
  -7   4   9 2717.78 778.375   1
  -7   4   8 14929.2 1217.49   3
   7  -4  -8 15575.9 1454.68   4
  -7   4   7 1169.13 357.691   3
  -7   4   7 1284.73 407.872   2
   7  -4  -7 1095.01 368.305   4
  -7   4   6 271.637 197.786   3
  -7   4   6 295.412 265.811   2
   7  -4  -6 188.153 147.271   4
   7  -4  -5 4639.98 628.336   4
  -7   4   5 4498.65 798.321   2
   7  -4  -4 771.367 248.697   4
   7  -4  -4 925.642 354.833   6
  -7   4   4 938.993 381.004   2
   7  -4  -3 1.54181 115.887   4
   7  -4  -3 352.935 245.456   6
  -7   4   2 1662.49 388.599   1
   7  -4  -2 1532.93 330.144   4
   7  -4  -2 1510.28 467.480   6
   7  -4  -1 1192.40 312.165   4
   7  -4  -1 926.552 397.544   6
   7  -4   0 1801.66 386.776   4
   7  -4   0 1047.37 467.181   6
   7  -4   0 1819.35 567.791   5
   7  -4   1 284.094 295.512   6
   7  -4   1 7.37905 113.940   5
   7  -4   2-261.956 358.914   6
   7  -4   2 321.448 329.423   5
   7  -4   3 2941.37 795.126   6
   7  -4   3 6114.92 1109.58   5
   7  -4   4 2211.45 725.586   6
   7  -4   4 5077.66 1009.82   5
   7  -4   5 1412.87 621.255   6
   7  -4   5 1487.77 563.812   5
   7  -4   6 1674.10 715.841   6
   7  -4   6 2234.78 746.165   5
  -7   3  11 9802.22 1569.66   1
  -7   3  10 2266.88 731.057   1
  -7   3   9 6333.62 839.379   3
  -7   3   9 6466.24 1134.23   1
  -7   3   8 4507.60 921.489   1
  -7   3   8 3457.22 604.548   3
  -7   3   7 4805.17 703.222   3
  -7   3   7 4519.74 713.022   2
  -7   3   6 1731.40 453.776   2
   7  -3  -6 1912.98 395.081   4
   7  -3  -5 4678.46 800.635   6
  -7   3   5 5063.68 799.272   2
   7  -3  -5 4365.73 536.608   4
  -7   3   4 15390.8 1106.68   1
   7  -3  -4 14868.0 1409.89   6
  -7   3   4 14990.0 1425.01   2
   7  -3  -4 14860.2 875.415   4
  -7   3   3 28759.1 1401.60   1
   7  -3  -3 29119.1 2003.65   6
   7  -3  -3 29099.1 1144.70   4
  -7   3   2 2971.35 422.849   1
   7  -3  -2 2812.10 670.669   6
   7  -3  -2 2836.29 363.650   4
   7  -3  -1 353.534 165.221   4
   7  -3  -1 564.902 367.722   6
  -7   3   1 430.647 147.449   1
   7  -3   0 6293.96 1054.50   6
   7  -3   1 739.988 454.278   6
   7  -3   1 1583.79 569.972   5
   7  -3   2 566.887 305.045   6
   7  -3   2 813.224 413.589   5
   7  -3   3 304.798 275.932   6
   7  -3   3 160.681 251.812   5
   7  -3   4 1214.71 583.886   6
   7  -3   4 1225.93 509.740   5
   7  -3   5 416.967 398.165   6
   7  -3   5-278.943 329.454   5
   7  -3   6-455.912 397.754   6
   7  -3   6 125.407 171.643   5
  -7   2  12 4883.15 1122.43   1
  -7   2  11-748.135 456.825   1
  -7   2  10 162.415 292.801   1
  -7   2  10-13.2618 101.905   3
  -7   2   9 4100.27 679.662   3
  -7   2   9 3692.84 835.840   1
  -7   2   8 11577.8 1132.25   3
  -7   2   8 12263.2 1388.21   1
  -7   2   7 927.284 309.502   3
  -7   2   7 900.793 368.182   1
  -7   2   7 1094.69 328.853   2
  -7   2   6 1216.88 393.562   1
  -7   2   6 1544.24 400.401   2
   7  -2  -5 41.3706 113.937   6
  -7   2   5 356.438 186.470   1
  -7   2   5 139.765 157.406   2
   7  -2  -4 695.573 326.500   6
  -7   2   4 398.039 142.715   1
  -7   2   3 13054.7 780.649   1
   7  -2  -3 12240.6 1337.02   6
   7  -2  -2 546.639 301.532   6
  -7   2   2 370.456 107.788   1
   7  -2  -1 4454.78 859.631   6
   7  -2  -1 3970.70 328.421   4
   7  -2   0 15951.8 1723.30   6
   7  -2   1 527.457 376.702   6
   7  -2   1 1013.22 441.557   5
   7  -2   2 3366.11 900.261   6
   7  -2   2 4378.46 865.476   5
   7  -2   3-564.963 384.443   6
   7  -2   3 354.524 285.944   5
   7  -2   4 2567.00 818.392   6
   7  -2   4 4210.35 901.547   5
   7  -2   5 4053.63 1023.48   6
   7  -2   5 4898.98 987.198   5
   7  -2   6-728.424 519.825   6
   7  -2   6 730.841 421.727   5
  -7   1  12 4169.33 1027.62   1
  -7   1  11 3052.87 842.952   1
  -7   1  10 56.6741 105.973   1
  -7   1  10 218.588 182.914   3
  -7   1   9 348.821 274.318   1
  -7   1   9 411.277 244.095   3
  -7   1   8 1925.67 540.975   1
  -7   1   8 2507.45 545.179   3
  -7   1   7 1518.41 437.946   1
  -7   1   7 1332.96 416.976   3
  -7   1   7 1328.59 340.495   2
  -7   1   6 83.0388 117.327   1
  -7   1   6 168.950 142.004   2
   7  -1  -5 6519.04 981.899   6
  -7   1   5 7107.22 739.125   1
  -7   1   5 8831.00 946.817   2
  -7   1   4 4232.78 434.470   1
   7  -1  -4 3973.80 773.264   6
  -7   1   4 3803.96 449.117   1
  -7   1   3 6535.91 355.193   1
   7  -1  -3 5936.09 952.990   6
  -7   1   3 7010.84 375.687   1
   7  -1  -2 55392.2 2971.23   6
   7  -1  -1 7933.58 1182.44   6
   7  -1   0 1070.43 471.276   6
   7  -1   1 1356.76 555.900   6
   7  -1   2-46.1073 192.912   6
   7  -1   2 419.790 298.354   5
   7  -1   3 623.165 441.427   6
   7  -1   3 983.583 419.740   5
   7  -1   4-550.169 410.969   6
   7  -1   4-1.96830 159.488   5
   7  -1   5 135.450 351.815   6
   7  -1   5 482.041 348.277   5
   7  -1   6 868.510 579.992   6
   7  -1   6 355.642 333.427   5
   7  -1   7 1471.15 593.858   5
  -7   0  12 16356.2 1935.08   1
  -7   0  11 2153.62 669.894   1
  -7   0  10 2734.93 618.026   3
  -7   0  10 2478.87 670.682   1
  -7   0   9 2464.43 567.734   3
  -7   0   9 2970.35 685.926   1
  -7   0   8-172.333 155.079   3
  -7   0   8 242.116 188.785   1
  -7   0   7 1391.50 411.056   3
  -7   0   7 1287.06 372.866   1
  -7   0   7 1791.84 337.366   2
  -7   0   6 1087.44 378.337   3
  -7   0   6 1454.56 364.906   1
  -7   0   6 1423.87 348.374   2
  -7   0   5 473.876 207.404   2
  -7   0   5 754.716 213.410   1
   7   0  -5 955.065 380.127   6
  -7   0   4 4253.23 331.287   1
  -7   0   4 5070.50 386.324   1
   7   0  -4 4263.80 796.188   6
   7   0  -3 1611.03 529.456   6
   7   0  -2-153.241 197.092   6
   7   0  -1 575.549 352.315   6
   7   0   0 343.931 300.856   6
   7   0   1 2005.53 683.911   6
   7   0   2-76.8224 253.021   6
   7   0   3 253.266 295.940   6
   7   0   3 324.380 244.671   5
   7   0   4 361.596 392.451   6
   7   0   4 718.543 366.876   5
   7   0   5 494.494 439.304   6
   7   0   5 1215.27 500.312   5
   7   0   6 1160.10 476.152   5
   7   0   7 257.240 228.714   5
  -7  -1  13 1647.38 640.170   1
  -7  -1  12 8159.00 1341.26   1
  -7  -1  11-88.7801 160.409   1
  -7  -1  10 859.435 421.116   1
  -7  -1  10 1273.03 432.891   3
  -7  -1   9 126.309 171.540   1
  -7  -1   9 581.283 287.512   3
  -7  -1   8 1237.00 404.306   1
  -7  -1   8 931.408 353.690   3
  -7  -1   7 220.173 157.144   1
  -7  -1   7 13.5195 78.4970   3
  -7  -1   7 35.9998 77.2292   2
  -7  -1   6 10504.5 1133.40   3
  -7  -1   6 11015.2 919.453   1
  -7  -1   6 11875.8 850.347   2
   7   1  -5 764.035 359.449   6
  -7  -1   5 1148.50 247.894   1
   7   1  -4 285.070 249.898   6
   7   1  -3 5457.27 942.181   6
   7   1  -2-180.420 279.691   6
   7   1  -1 5209.66 993.543   6
   7   1   0 5409.11 1052.04   6
   7   1   1-155.686 189.170   6
   7   1   2 1863.31 695.358   6
   7   1   3 932.440 436.111   6
   7   1   4 545.651 424.885   6
   7   1   5 2323.91 833.152   6
   7   1   5 2248.89 649.737   5
   7   1   6 956.295 456.528   5
  -7  -2  13-274.166 319.637   1
  -7  -2  12 486.395 367.057   1
  -7  -2  11 3622.49 845.380   1
  -7  -2  10 263.135 236.923   1
  -7  -2  10 556.806 280.232   3
  -7  -2   9 1150.28 416.174   3
  -7  -2   9 1506.41 491.003   1
  -7  -2   8 2764.03 594.086   3
  -7  -2   8 2624.15 569.252   1
  -7  -2   7 2299.75 532.670   3
  -7  -2   7 3458.84 579.335   1
   7   2  -6 1727.00 553.017   6
  -7  -2   6 1550.71 452.717   3
  -7  -2   6 1213.51 300.573   1
  -7  -2   6 1551.08 274.375   2
  -7  -2   5-0.46562 81.3795   1
   7   2  -5-35.2171 148.095   6
   7   2  -4 731.784 375.110   6
   7   2  -3 3945.73 836.035   6
   7   2  -2 2994.14 759.196   6
   7   2  -1 10668.2 1439.55   6
   7   2   0 173.822 276.213   6
   7   2   1 1547.31 625.277   6
   7   2   2 626.140 459.554   6
   7   2   3 3048.99 879.389   6
   7   2   4 102.932 260.874   6
   7   2   5 654.859 486.421   6
  -7  -3  13 1030.39 531.562   1
  -7  -3  12 17850.2 1947.46   1
  -7  -3  11 6089.22 1067.94   1
  -7  -3  10-183.334 209.564   3
  -7  -3  10 250.364 238.210   1
  -7  -3   9 690.594 333.966   3
  -7  -3   9 724.846 326.315   1
  -7  -3   8 455.072 254.118   3
  -7  -3   8 81.1533 137.598   1
  -7  -3   7 418.137 224.524   1
  -7  -3   7 288.514 208.455   3
  -7  -3   6 20836.6 1212.73   1
   7   3  -6 18983.7 1745.74   6
  -7  -3   6 19379.4 1581.71   3
  -7  -3   5 2091.19 296.224   1
   7   3  -5 1839.63 568.806   6
   7   3  -4 1471.46 513.353   6
   7   3  -3 1101.39 462.908   6
   7   3  -2-119.701 197.451   6
   7   3  -1 791.662 424.425   6
   7   3   0 2021.08 660.101   6
   7   3   1 501.104 344.163   6
   7   3   2 629.582 393.991   6
   7   3   3 69.6851 253.977   6
   7   3   4 287.779 488.310   6
  -7  -4  13 157.390 254.132   1
  -7  -4  12 2711.16 776.439   1
  -7  -4  11 6396.52 1109.80   1
  -7  -4  10 87.9412 247.222   1
  -7  -4  10-332.069 248.014   3
  -7  -4   9 479.424 292.031   1
  -7  -4   9 299.155 239.225   3
  -7  -4   8 861.378 318.817   1
  -7  -4   8 85.0677 163.292   3
  -7  -4   7 1068.40 321.186   1
  -7  -4   7 1534.84 460.947   3
  -7  -4   6 130.918 148.673   3
  -7  -4   6 342.134 167.254   1
   7   4  -5 85.8983 203.102   6
  -7  -4   5 158.792 164.926   3
  -7  -4   5 226.484 102.659   1
   7   4  -4 3891.67 805.038   6
   7   4  -3 4791.17 939.575   6
   7   4  -2 26.6730 146.334   6
   7   4  -1 443.946 348.092   6
   7   4   0 157.884 261.590   6
   7   4   1 295.767 332.133   6
   7   4   2-297.737 271.601   6
   7   4   3-654.575 493.243   6
   7   4   4 721.713 459.535   6
  -7  -5  12 1438.24 586.021   1
  -7  -5  11 162.687 216.477   1
  -7  -5  10 4394.78 855.043   1
  -7  -5  10 3988.66 812.120   3
  -7  -5   9 2612.69 628.759   1
  -7  -5   9 1942.44 578.652   3
  -7  -5   8 1802.58 478.419   1
  -7  -5   8 2798.53 647.611   3
  -7  -5   7 1975.42 523.518   3
  -7  -5   7 2241.07 499.129   1
  -7  -5   6 110.823 209.609   3
  -7  -5   6 417.400 196.580   1
   7   5  -5 1823.64 602.356   6
  -7  -5   5 2334.76 563.311   3
  -7  -5   4 2345.72 558.038   3
   7   5  -4 1783.78 582.020   6
   7   5  -3-131.749 122.208   6
   7   5  -2 2347.79 685.349   6
   7   5  -1 2867.79 793.363   6
   7   5   0 750.921 428.514   6
   7   5   1 201.718 377.591   6
   7   5   2 4771.84 1101.27   6
   7   5   3-292.703 306.218   6
  -7  -6  12 707.563 405.206   1
  -7  -6  11 417.708 352.783   1
  -7  -6  10 173.694 236.295   1
  -7  -6   9 2812.02 680.400   1
  -7  -6   9 2128.31 596.703   3
  -7  -6   8 1431.71 426.334   3
  -7  -6   8 1709.80 508.011   1
  -7  -6   7 15.9812 143.192   3
  -7  -6   6 688.873 342.510   3
   7   6  -5 2067.07 634.541   6
  -7  -6   5 1718.44 502.740   3
   7   6  -4 130.077 204.149   6
  -7  -6   4-36.0748 164.983   3
  -7  -6   3 2761.80 636.881   3
   7   6  -3 1722.05 559.396   6
   7   6  -2 411.351 335.302   6
   7   6  -1-165.221 251.380   6
   7   6   0 2034.32 687.699   6
   7   6   1 558.496 388.613   6
   7   6   2 81.8191 181.525   6
   7   6   3-172.106 379.154   6
  -7  -7   9-350.717 276.950   3
  -7  -7   8 110.661 181.622   3
  -7  -7   7 3510.08 733.405   3
  -7  -7   6 1947.22 534.053   3
   7   7  -5 163.710 195.592   6
  -7  -7   5 553.104 317.262   3
   7   7  -4-5.94841 172.029   6
  -7  -7   4-196.800 164.739   3
   7   7  -3 3057.55 732.966   6
  -7  -7   3 4794.99 821.043   3
  -7  -7   2 349.465 243.881   3
   7   7  -2 715.601 412.964   6
   7   7  -1 265.345 271.705   6
   7   7   0 948.143 456.313   6
   7   7   1 1226.73 587.987   6
   7   7   2 2803.06 846.204   6
  -7  -8   8-38.1405 118.531   3
  -7  -8   7 78.1058 175.267   3
  -7  -8   6 1555.81 476.538   3
  -7  -8   5 310.397 238.978   3
   7   8  -4 367.701 302.493   6
  -7  -8   4 789.052 327.470   3
   7   8  -3 3129.68 773.597   6
  -7  -8   3 3410.55 688.857   3
   7   8  -2-79.5050 141.201   6
  -7  -8   2-45.4643 131.619   3
  -7  -8   1 3.04372 71.1674   3
   7   8  -1 331.582 313.530   6
   7   8   0 451.968 441.782   6
  -7  -9   7-23.2805 106.838   3
  -7  -9   6-10.3016 106.921   3
  -7  -9   5 11651.5 1312.90   3
  -7  -9   4 2348.46 593.487   3
   7   9  -3 527.982 356.169   6
  -7  -9   3-284.182 198.018   3
  -8   8   6 404.639 295.996   2
  -8   8   5 150.028 286.191   2
  -8   8   4-38.0520 244.452   2
  -8   8   3-39.1695 108.351   2
  -8   8   2 2367.55 757.253   2
  -8   8   1 2752.19 838.389   2
  -8   8   0-59.0641 131.106   2
   8  -8   1 274.761 266.943   5
   8  -8   2-600.765 387.833   6
   8  -8   3-579.870 430.752   6
  -8   7   7 488.302 369.321   2
  -8   7   6 1480.49 540.003   2
  -8   7   5 781.628 405.663   2
  -8   7   4-222.446 248.920   2
   8  -7  -3-121.345 135.982   6
  -8   7   3 188.543 247.412   2
  -8   7   2 190.685 269.915   2
   8  -7  -2-575.214 293.686   6
  -8   7   1 4169.19 969.895   2
   8  -7  -1 3341.93 737.611   6
   8  -7   0 692.310 360.717   6
   8  -7   1 3358.60 812.012   6
   8  -7   1 2517.42 726.721   5
   8  -7   2-42.1501 146.672   6
   8  -7   2 621.553 429.156   5
   8  -7   3 1909.82 728.708   6
   8  -7   4 309.769 355.522   6
  -8   6   7 471.041 339.086   2
  -8   6   6-138.483 142.609   3
  -8   6   6 28.9385 171.952   2
  -8   6   5 885.383 414.316   2
  -8   6   4 1544.86 552.541   2
   8  -6  -3 136.938 210.020   6
  -8   6   3 673.967 378.983   2
  -8   6   2 465.829 328.133   2
   8  -6  -2 647.492 355.844   6
   8  -6  -1 588.799 321.914   6
   8  -6   0 833.736 463.756   6
   8  -6   1 6820.41 1204.09   6
   8  -6   1 5586.58 1113.06   5
   8  -6   2 632.089 441.635   6
   8  -6   2-286.710 336.817   5
   8  -6   3 1460.79 637.839   6
   8  -6   3-39.3072 181.123   5
   8  -6   4 915.667 521.966   6
  -8   5  10 3329.51 944.303   1
  -8   5   8 1538.03 491.944   2
  -8   5   7 5146.72 765.420   3
  -8   5   7 4344.04 794.351   2
  -8   5   6-377.772 254.694   2
  -8   5   5 1016.91 433.100   2
   8  -5  -4-44.0454 124.110   6
  -8   5   4 271.262 254.550   2
  -8   5   3 1180.41 483.014   2
   8  -5  -3 838.362 387.750   6
   8  -5  -2-109.022 163.668   6
   8  -5  -1 1307.78 540.767   6
   8  -5   0 301.668 283.641   6
   8  -5   1 2007.17 690.890   6
   8  -5   1 3430.26 858.684   5
   8  -5   2 1664.66 675.122   6
   8  -5   2 950.919 458.662   5
   8  -5   3 1521.69 667.046   6
   8  -5   3 1823.36 700.751   5
   8  -5   4 311.037 407.970   6
  -8   4  11 191.387 320.319   1
  -8   4  10 3196.32 895.099   1
  -8   4   9 446.492 323.002   1
  -8   4   9 484.286 238.538   3
  -8   4   8 1218.60 477.045   1
  -8   4   8 1332.40 417.590   3
  -8   4   8 1647.96 484.971   2
  -8   4   7 93.3911 142.081   3
  -8   4   7-43.1395 76.2624   2
  -8   4   6 2551.84 612.768   2
  -8   4   5 2004.26 572.717   2
  -8   4   4 182.584 201.223   2
   8  -4  -4-190.118 221.376   6
   8  -4  -3 367.427 251.576   6
   8  -4  -2-359.965 314.383   6
   8  -4  -1 527.138 337.827   6
   8  -4   0 630.145 393.540   6
   8  -4   1 138.908 219.737   6
   8  -4   2 28.3229 170.690   6
   8  -4   2 312.465 332.282   5
   8  -4   3 2132.28 798.678   6
   8  -4   3 3542.35 918.840   5
   8  -4   4-358.499 362.922   6
   8  -4   4 215.136 250.265   5
  -8   3  11 7656.70 1377.25   1
  -8   3  10 586.548 291.338   3
  -8   3  10 612.303 376.684   1
  -8   3   9 51.3595 140.905   1
  -8   3   9 504.659 281.387   3
  -8   3   8 6514.14 895.539   3
  -8   3   8 7220.66 930.287   2
  -8   3   8 5604.89 966.198   1
  -8   3   7 2657.75 636.799   1
  -8   3   7 2411.54 574.765   3
  -8   3   7 2343.80 546.138   2
  -8   3   6 225.886 150.722   1
  -8   3   6-45.5717 127.784   2
   8  -3  -5 5152.72 937.808   6
  -8   3   5 5542.87 895.431   2
   8  -3  -4 13471.0 1477.79   6
  -8   3   4 11987.2 1360.92   2
   8  -3  -3 6518.64 1055.12   6
   8  -3  -2 2245.34 690.651   6
   8  -3  -1 548.989 386.912   6
   8  -3   0 2836.14 820.750   6
   8  -3   1 1536.67 630.116   6
   8  -3   2 972.838 529.161   6
   8  -3   2 812.697 462.530   5
   8  -3   3 104.217 351.941   6
   8  -3   3 647.144 414.669   5
   8  -3   4 8835.21 1591.95   6
   8  -3   4 12626.3 1679.40   5
  -8   2  12 1664.94 656.249   1
  -8   2  11 8294.94 1400.77   1
  -8   2  10 116.682 256.544   1
  -8   2  10 57.6632 99.4345   3
  -8   2   9 1149.56 443.269   1
  -8   2   9 650.504 289.371   3
  -8   2   8 319.634 207.912   3
  -8   2   8 163.657 127.360   2
  -8   2   7 993.215 395.132   3
  -8   2   7 782.600 317.127   1
  -8   2   7 781.262 298.690   2
  -8   2   6 451.141 220.997   1
  -8   2   6 570.675 269.440   2
  -8   2   5 44.3379 117.432   2
   8  -2  -5 3.61951 113.028   6
   8  -2  -4-181.979 229.223   6
   8  -2  -3 7517.80 1164.64   6
   8  -2  -2 1581.37 543.885   6
   8  -2  -1 444.542 329.151   6
   8  -2   0-279.031 311.750   6
   8  -2   1-321.476 322.859   6
   8  -2   2 235.052 342.586   6
   8  -2   3-218.006 307.348   6
   8  -2   3 512.620 371.691   5
   8  -2   4 959.610 630.802   6
   8  -2   4 3380.05 860.447   5
   8  -2   5 610.156 587.576   5
  -8   1  12 8389.79 1417.53   1
  -8   1  11 1960.92 635.904   1
  -8   1  10 4188.69 767.738   3
  -8   1  10 3584.24 806.289   1
  -8   1   9-129.335 184.031   3
  -8   1   9 568.865 315.902   1
  -8   1   8 6723.98 966.815   3
  -8   1   8 5876.43 902.997   1
  -8   1   7 392.715 252.447   3
  -8   1   7-167.559 141.136   2
  -8   1   7 215.944 157.791   1
  -8   1   6 1561.91 369.848   1
  -8   1   6 1588.83 413.461   2
  -8   1   5 3300.06 629.749   2
   8  -1  -5 2438.82 652.730   6
   8  -1  -4 6067.52 1026.44   6
   8  -1  -3 123.699 173.346   6
   8  -1  -2 510.078 329.383   6
   8  -1  -1 8551.30 1321.10   6
   8  -1   0 2349.55 734.001   6
   8  -1   1 2105.66 744.882   6
   8  -1   2 2235.51 828.357   6
   8  -1   3 250.023 403.615   6
   8  -1   4 5350.59 1292.52   6
   8  -1   4 7299.63 1253.62   5
   8  -1   5 2741.38 789.391   5
  -8   0  12 482.344 335.231   1
  -8   0  11 6673.33 1129.78   1
  -8   0  11 7137.81 1062.51   3
  -8   0  10 296.968 252.617   1
  -8   0  10 781.789 344.395   3
  -8   0   9 1270.25 432.805   1
  -8   0   9 1176.91 419.396   3
  -8   0   8 5326.66 862.080   3
  -8   0   8 5137.78 791.014   1
  -8   0   7-57.8932 122.569   1
  -8   0   7 173.967 185.672   3
  -8   0   7 3.36371 51.1727   2
   8   0  -6 335.028 253.063   6
  -8   0   6 128.537 147.660   2
   8   0  -5 342.301 270.073   6
   8   0  -4 1854.88 584.517   6
   8   0  -3 2388.27 701.479   6
   8   0  -2 1909.83 621.432   6
   8   0  -1 3114.97 825.455   6
   8   0   0 1424.72 562.894   6
   8   0   1 759.914 484.985   6
   8   0   2 997.499 630.320   6
   8   0   3 158.908 341.759   6
   8   0   4 568.980 527.681   6
  -8  -1  12 1690.85 623.702   1
  -8  -1  11 5824.11 1061.24   1
  -8  -1  11 4618.41 872.292   3
  -8  -1  10 14434.2 1525.41   1
  -8  -1  10 13972.5 1470.33   3
  -8  -1   9-94.3948 134.225   1
  -8  -1   9-91.7180 125.869   3
  -8  -1   8 42.9555 161.740   3
  -8  -1   8 154.536 172.333   1
  -8  -1   7 3740.30 735.157   3
   8   1  -6 1491.25 525.586   6
  -8  -1   6 1303.97 345.451   2
   8   1  -5 456.208 315.409   6
   8   1  -4 921.964 420.767   6
   8   1  -3 13110.1 1602.34   6
   8   1  -2 7122.68 1205.34   6
   8   1  -1-154.104 192.343   6
   8   1   0 1866.48 706.247   6
   8   1   1 939.794 532.761   6
   8   1   2 2074.51 885.316   6
   8   1   3-688.011 453.267   6
  -8  -2  12 2621.40 741.593   1
  -8  -2  11-263.378 279.316   3
  -8  -2  11 343.286 262.988   1
  -8  -2  10 2145.42 592.606   3
  -8  -2  10 1635.36 396.185   1
  -8  -2   9-435.535 263.441   3
  -8  -2   8 1971.87 546.642   3
  -8  -2   7-22.6625 125.323   3
   8   2  -6 31.8581 166.008   6
  -8  -2   6 91.5637 147.035   3
   8   2  -5 1593.20 569.409   6
   8   2  -4 2479.69 681.305   6
   8   2  -3 80.0225 255.263   6
   8   2  -2 132.545 241.654   6
   8   2  -1 1427.81 599.611   6
   8   2   0 328.316 412.419   6
   8   2   1 460.189 416.476   6
   8   2   2-267.116 334.241   6
   8   2   3-149.478 389.229   6
  -8  -3  10 2454.98 661.691   3
  -8  -3   9 1649.26 519.459   3
  -8  -3   8 305.059 274.331   3
  -8  -3   7 2486.89 624.469   3
   8   3  -6 382.602 301.849   6
  -8  -3   6-48.1138 168.881   3
   8   3  -5-34.6107 224.754   6
   8   3  -4 1139.82 529.960   6
   8   3  -3-354.922 318.499   6
   8   3  -2 3332.78 896.132   6
   8   3  -1 183.614 255.728   6
   8   3   0 271.885 327.250   6
   8   3   1 2732.12 871.584   6
   8   3   2 2992.42 942.438   6
  -8  -4  10 779.930 394.431   3
  -8  -4   9 767.385 369.988   3
  -8  -4   8-1.74217 157.491   3
  -8  -4   7 6593.21 1024.36   3
   8   4  -6 166.392 235.144   6
  -8  -4   6 76.0410 175.853   3
   8   4  -5 1562.20 577.651   6
  -8  -4   5 1842.33 568.892   3
   8   4  -4-47.0203 182.017   6
   8   4  -3 1189.96 552.499   6
   8   4  -2 3144.69 828.840   6
   8   4  -1 7.76692 115.094   6
   8   4   0 237.154 346.756   6
   8   4   1 566.494 416.145   6
   8   4   2 262.721 420.154   6
  -8  -5   9 122.613 239.497   3
  -8  -5   8 1120.11 427.039   3
  -8  -5   7 150.087 160.136   3
   8   5  -6 1287.44 512.634   6
  -8  -5   6 1449.67 490.537   3
   8   5  -5 2095.07 663.291   6
  -8  -5   5 2675.31 667.048   3
   8   5  -4-70.1877 224.484   6
   8   5  -3-221.166 214.406   6
   8   5  -2 458.092 316.859   6
   8   5  -1 1522.35 647.162   6
   8   5   0 1271.24 608.374   6
   8   5   1 904.357 524.339   6
  -8  -6   8-1.87048 155.706   3
  -8  -6   7 1512.14 547.841   3
  -8  -6   6 1485.08 495.639   3
   8   6  -5 986.838 479.614   6
  -8  -6   5 530.199 307.085   3
   8   6  -4 1139.05 502.101   6
  -8  -6   4 606.438 345.114   3
   8   6  -3-306.679 372.867   6
   8   6  -2-602.560 395.032   6
   8   6  -1 532.934 360.330   6
   8   6   0 1825.15 730.112   6
   8   6   1-631.046 484.315   6
  -8  -7   7 13521.0 1503.90   3
  -8  -7   6 1601.98 530.952   3
  -8  -7   5 7114.29 1075.45   3
   8   7  -5 6637.92 1171.73   6
   8   7  -4 430.189 382.040   6
  -8  -7   4 422.259 310.935   3
   8   7  -3 415.516 383.446   6
  -8  -7   3-426.579 264.870   3
  -8  -7   2-262.459 210.402   3
   8   7  -2-1226.92 545.191   6
   8   7  -1 2752.81 846.955   6
   8   7   0 797.846 485.543   6
  -8  -8   6 7606.22 1125.83   3
  -8  -8   5-444.761 294.736   3
   8   8  -4-7.16323 260.322   6
  -8  -8   4 369.619 248.951   3
   8   8  -3 387.340 340.114   6
  -8  -8   3-241.785 220.969   3
   8   8  -2-195.651 224.076   6
  -9   7   6-376.027 364.460   2
  -9   7   5 691.629 409.447   2
  -9   7   4 738.863 434.610   2
  -9   7   3 521.927 445.928   2
  -9   7   2 652.912 460.398   2
   9  -7  -2-273.014 266.376   6
  -9   7   1-348.435 323.235   2
   9  -7  -1 378.870 267.718   6
   9  -7   0 102.740 216.802   6
   9  -7   1 49.6109 154.212   6
   9  -7   2-1013.51 514.359   6
  -9   6   8 2139.52 628.363   2
  -9   6   7 153.109 191.080   2
  -9   6   6 1770.19 582.611   2
  -9   6   5 1455.08 560.104   2
   9  -6  -4 495.656 289.784   6
  -9   6   4-108.532 171.635   2
  -9   6   3 4307.27 990.495   2
   9  -6  -3 3574.22 799.212   6
  -9   6   2 3083.11 863.123   2
   9  -6  -2 2507.83 684.708   6
   9  -6  -1-145.091 179.454   6
   9  -6   0-238.954 263.751   6
   9  -6   1 1325.68 592.622   6
   9  -6   2-994.127 565.755   6
  -9   5   8 355.014 250.248   2
  -9   5   7 575.974 280.002   3
  -9   5   7-256.387 241.237   2
  -9   5   6 375.308 293.636   2
  -9   5   5 202.388 310.960   2
   9  -5  -4-254.355 274.247   6
  -9   5   4-138.269 246.386   2
  -9   5   3-172.668 196.612   2
   9  -5  -3-361.005 295.315   6
   9  -5  -2 63.6582 209.339   6
   9  -5  -1 989.438 478.054   6
   9  -5   0 195.901 283.031   6
   9  -5   1-644.048 407.268   6
   9  -5   2 231.661 301.404   6
  -9   4   8 629.599 308.167   3
  -9   4   7 4959.27 848.438   3
  -9   4   7 3484.61 755.990   2
  -9   4   6 1301.78 530.537   2
   9  -4  -5 6725.82 1104.20   6
  -9   4   5 5910.98 1021.18   2
  -9   4   4 505.209 356.010   2
   9  -4  -4 888.690 413.652   6
   9  -4  -3 2402.79 673.054   6
   9  -4  -2 320.081 304.061   6
   9  -4  -1 173.347 273.477   6
   9  -4   0 4169.13 1079.03   6
   9  -4   1 29.3943 176.236   6
   9  -4   2 12.9065 146.582   6
  -9   3  10 849.335 355.191   3
  -9   3   9 351.274 253.866   3
  -9   3   8 1485.11 460.251   3
  -9   3   7 228.069 232.916   3
  -9   3   7 604.486 312.151   2
  -9   3   6 845.575 379.002   2
   9  -3  -5 225.278 247.753   6
  -9   3   5 289.963 232.605   2
  -9   3   4 385.994 274.985   2
   9  -3  -4-2.08904 216.511   6
   9  -3  -3 1085.47 480.765   6
   9  -3  -2 293.495 255.830   6
   9  -3  -1 1626.73 615.631   6
   9  -3   0 1254.77 603.641   6
   9  -3   1-105.970 301.523   6
   9  -3   2 1182.85 604.176   6
  -9   2  10 614.187 312.960   3
  -9   2   9 2177.35 556.484   3
  -9   2   8 197.948 230.587   3
  -9   2   7 6972.19 1042.09   3
  -9   2   6 107.361 162.527   2
  -9   2   5 1001.24 414.734   2
   9  -2  -5-136.049 176.633   6
   9  -2  -4-492.399 320.056   6
   9  -2  -3 2102.32 659.810   6
   9  -2  -2 1243.85 589.884   6
   9  -2  -1 465.319 363.497   6
   9  -2   0 897.136 522.274   6
   9  -2   1 37.0346 271.146   6
   9  -2   2 217.821 305.538   6
  -9   1  10 87.2908 170.575   3
  -9   1   9 961.610 423.547   3
  -9   1   8 154.653 248.975   3
  -9   1   7 409.352 291.758   3
   9  -1  -6-17.3571 74.6670   6
  -9   1   6 227.725 216.976   2
   9  -1  -5 10515.3 1458.77   6
  -9   1   5 10312.8 1215.71   2
   9  -1  -4 16739.5 1832.13   6
   9  -1  -3 698.293 398.065   6
   9  -1  -2 890.565 468.481   6
   9  -1  -1-67.7083 222.229   6
   9  -1   0 555.867 417.608   6
   9  -1   1 848.899 515.697   6
   9  -1   2 2900.99 1013.95   6
  -9   0  10 393.706 273.409   3
  -9   0   9 148.974 184.607   3
  -9   0   8 1227.80 465.073   3
  -9   0   7 1334.95 538.710   3
   9   0  -6 24.3240 76.1550   6
   9   0  -5 1096.10 465.569   6
   9   0  -4 3389.26 855.091   6
   9   0  -3-95.2790 223.478   6
   9   0  -2-258.599 265.128   6
   9   0  -1 3246.88 892.172   6
   9   0   0 208.882 254.436   6
   9   0   1 830.543 547.461   6
  -9  -1  10 1406.64 510.692   3
  -9  -1   9 480.709 309.194   3
  -9  -1   8 3036.92 708.748   3
  -9  -1   7 702.181 359.945   3
   9   1  -6 6760.91 1183.08   6
   9   1  -5 5836.42 1102.30   6
   9   1  -4 11130.4 1561.83   6
   9   1  -3 5280.48 1124.83   6
   9   1  -2 2589.37 819.046   6
   9   1  -1-975.931 394.902   6
   9   1   0 3879.37 1055.49   6
   9   1   1 1390.39 714.753   6
  -9  -2   9 4415.10 882.489   3
  -9  -2   8 139.215 210.424   3
  -9  -2   7 156.216 200.941   3
   9   2  -6 39.3638 113.884   6
  -9  -2   6 211.905 237.654   3
   9   2  -5 753.941 426.752   6
   9   2  -4 2383.55 755.656   6
   9   2  -3 1261.46 596.994   6
   9   2  -2 1476.22 646.879   6
   9   2  -1-417.948 449.997   6
   9   2   0 874.714 493.463   6
  -9  -3   9 655.302 339.858   3
  -9  -3   8 2162.41 621.488   3
  -9  -3   7 1646.33 592.480   3
   9   3  -6 2921.72 804.989   6
  -9  -3   6 2859.02 705.743   3
   9   3  -5-2.38523 169.245   6
   9   3  -4 878.892 501.228   6
   9   3  -3 4272.82 1032.89   6
   9   3  -2-22.4429 265.850   6
   9   3  -1 234.480 323.345   6
   9   3   0 90.4112 175.558   6
  -9  -4   8 39.3817 148.166   3
  -9  -4   7-37.1497 189.312   3
   9   4  -6 3460.69 871.793   6
  -9  -4   6 3623.90 811.022   3
   9   4  -5-19.6315 117.739   6
  -9  -4   5 48.2957 210.178   3
   9   4  -4 1387.98 601.210   6
   9   4  -3 610.103 423.436   6
   9   4  -2 2459.24 797.690   6
   9   4  -1 1637.72 691.320   6
  -9  -5   7 6358.70 1060.68   3
   9   5  -6 5383.19 1097.86   6
  -9  -5   6 6934.20 1120.34   3
   9   5  -5 1901.43 705.298   6
  -9  -5   5 2568.56 718.760   3
   9   5  -4-411.404 343.893   6
   9   5  -3 397.891 385.360   6
   9   5  -2-489.809 408.777   6
   9   6  -5-413.830 282.119   6
   9   6  -4 213.100 331.144   6
  -9  -6   4 217.407 263.431   3
  10  -6  -4 355.478 285.829   6
  10  -6  -3 944.122 443.231   6
  10  -6  -2 1505.09 592.767   6
  10  -6  -1-727.667 416.126   6
 -10   5   6 342.334 315.097   2
 -10   5   5 1134.05 511.437   2
  10  -5  -4 2627.67 752.812   6
 -10   5   4 2930.54 815.240   2
 -10   5   3 704.232 414.350   2
  10  -5  -3 102.939 149.725   6
  10  -5  -2 570.669 382.860   6
  10  -5  -1 1829.28 727.674   6
 -10   4   7 1366.06 498.781   3
 -10   4   6 1043.35 437.123   2
  10  -4  -5 258.374 255.567   6
 -10   4   5 344.255 292.974   2
 -10   4   4 710.261 434.284   2
  10  -4  -4 1191.45 513.374   6
  10  -4  -3 1123.70 499.819   6
  10  -4  -2 534.860 403.556   6
  10  -4  -1 2899.49 893.224   6
 -10   3   8 1740.50 564.451   3
 -10   3   7 7978.71 1172.53   3
  10  -3  -5 2205.41 700.281   6
 -10   3   5 667.741 369.891   2
 -10   3   4 3142.28 833.525   2
  10  -3  -4 3225.84 862.875   6
  10  -3  -3 1021.23 518.679   6
  10  -3  -2 433.250 410.193   6
  10  -3  -1-100.126 174.229   6
 -10   2   8 2037.08 591.134   3
 -10   2   7-283.973 227.180   3
  10  -2  -6 2065.67 663.371   6
 -10   2   5 1356.68 507.137   2
  10  -2  -5 769.673 413.390   6
  10  -2  -4-237.126 282.987   6
  10  -2  -3 98.7234 184.905   6
  10  -2  -2 424.550 348.248   6
 -10   1   7 3760.13 842.787   3
  10  -1  -6 13952.7 1793.11   6
  10  -1  -5 794.034 421.718   6
  10  -1  -4-758.340 482.070   6
  10  -1  -3 880.236 468.041   6
  10  -1  -2 196.772 300.133   6
 -10   0   7 4046.75 877.090   3
  10   0  -6 1241.70 551.367   6
  10   0  -5 553.056 369.481   6
  10   0  -4 520.186 383.811   6
  10   0  -3 3049.37 869.292   6
  10   1  -5 1773.24 650.432   6
  10   1  -4 243.162 283.517   6
   0   0   0    0.00    0.00   0

TITL MMX01649 in P-1
REM P-1 (#2 in standard setting)
CELL 0.71073   7.487299   9.526021   9.733962 100.8924 108.6905  93.5785
ZERR    2.00   0.000460   0.000667   0.000890   0.0068   0.0068   0.0054
LATT  1
SFAC C N O F
UNIT 30.00 2.00 2.00 6.00
TREF
HKLF 4
END
;
_shelx_hkl_checksum              60698
_olex2_date_sample_data_collection 1504597766.12
_olex2_submission_special_instructions 'No special instructions were received'
_oxdiff_exptl_absorpt_empirical_details
;
Empirical correction (ABSPACK) includes:
- Absorption correction using spherical harmonics
- Frame scaling
;
_oxdiff_exptl_absorpt_empirical_full_max 1.268
_oxdiff_exptl_absorpt_empirical_full_min 0.635
loop_
_space_group_symop_operation_xyz
'x, y, z'
'-x, -y, -z'
loop_
_atom_site_label
_atom_site_type_symbol
_atom_site_fract_x
_atom_site_fract_y
_atom_site_fract_z
_atom_site_U_iso_or_equiv
_atom_site_adp_type
_atom_site_occupancy
_atom_site_site_symmetry_order
_atom_site_calc_flag
_atom_site_refinement_flags_posn
F1 F 0.39533(15) 0.69744(11) 0.75034(14) 0.0254(3) Uani 1 1 d .
F2 F 0.55269(14) 0.85730(11) 0.94862(13) 0.0244(3) Uani 1 1 d .
F3 F 0.35492(15) 0.92132(12) 0.76301(14) 0.0263(3) Uani 1 1 d .
O1 O 0.39800(18) 0.53760(14) 1.12704(16) 0.0219(3) Uani 1 1 d .
H1 H 0.4702 0.4778 1.1185 0.033 Uiso 1 1 calc GR
C2 C 0.2835(3) 0.7986(2) 1.2828(2) 0.0204(5) Uani 1 1 d .
H2 H 0.4148 0.8150 1.3073 0.024 Uiso 1 1 calc R
C1 C -0.1066(3) 0.7504(2) 1.2117(3) 0.0249(5) Uani 1 1 d .
H1A H -0.2377 0.7334 1.1881 0.030 Uiso 1 1 calc R
C3 C -0.1849(3) 0.5601(2) 0.5858(2) 0.0231(5) Uani 1 1 d .
H3 H -0.2136 0.4643 0.5341 0.028 Uiso 1 1 calc R
C4 C -0.0978(3) 0.8449(2) 0.7395(2) 0.0196(4) Uani 1 1 d .
H4 H -0.0695 0.9407 0.7913 0.024 Uiso 1 1 calc R
C5 C 0.1697(3) 0.74170(19) 1.1367(2) 0.0172(4) Uani 1 1 d .
C6 C 0.2608(2) 0.71012(19) 1.0203(2) 0.0158(4) Uani 1 1 d .
C7 C -0.2688(3) 0.7988(2) 0.6235(2) 0.0229(5) Uani 1 1 d .
H7 H -0.3544 0.8640 0.5976 0.027 Uiso 1 1 calc R
C8 C -0.3129(3) 0.6565(2) 0.5463(2) 0.0235(5) Uani 1 1 d .
H8 H -0.4276 0.6258 0.4685 0.028 Uiso 1 1 calc R
C9 C 0.0067(3) 0.8068(2) 1.3565(3) 0.0257(5) Uani 1 1 d .
H9 H -0.0478 0.8287 1.4301 0.031 Uiso 1 1 calc R
C10 C -0.0141(3) 0.6057(2) 0.7020(2) 0.0211(5) Uani 1 1 d .
H10 H 0.0704 0.5401 0.7287 0.025 Uiso 1 1 calc R
C11 C 0.2025(3) 0.8313(2) 1.3929(3) 0.0246(5) Uani 1 1 d .
H11 H 0.2795 0.8695 1.4909 0.030 Uiso 1 1 calc R
N1 N 0.3726(2) 0.61455(16) 1.01460(19) 0.0186(4) Uani 1 1 d .
C12 C 0.3814(3) 0.8176(2) 0.8415(2) 0.0210(4) Uani 1 1 d .
C13 C -0.0277(3) 0.7181(2) 1.0996(2) 0.0224(5) Uani 1 1 d .
H13 H -0.1054 0.6815 1.0015 0.027 Uiso 1 1 calc R
C14 C 0.0314(2) 0.7487(2) 0.7786(2) 0.0174(4) Uani 1 1 d .
C15 C 0.2215(2) 0.80098(19) 0.9041(2) 0.0172(4) Uani 1 1 d .
H15 H 0.2118 0.8979 0.9548 0.021 Uiso 1 1 calc R
loop_
_atom_site_aniso_label
_atom_site_aniso_U_11
_atom_site_aniso_U_22
_atom_site_aniso_U_33
_atom_site_aniso_U_23
_atom_site_aniso_U_13
_atom_site_aniso_U_12
F1 0.0283(6) 0.0274(6) 0.0222(7) -0.0004(6) 0.0141(5) 0.0038(5)
F2 0.0202(6) 0.0293(6) 0.0205(7) 0.0040(6) 0.0045(5) -0.0021(4)
F3 0.0317(6) 0.0297(7) 0.0206(8) 0.0111(6) 0.0103(5) 0.0020(5)
O1 0.0256(8) 0.0243(7) 0.0209(9) 0.0099(7) 0.0107(6) 0.0107(6)
C2 0.0192(10) 0.0232(10) 0.0206(13) 0.0067(9) 0.0076(9) 0.0054(8)
C1 0.0219(10) 0.0288(11) 0.0298(14) 0.0097(10) 0.0146(10) 0.0048(8)
C3 0.0242(10) 0.0215(10) 0.0217(13) 0.0034(9) 0.0070(9) -0.0019(8)
C4 0.0239(10) 0.0179(10) 0.0201(12) 0.0050(9) 0.0110(9) 0.0038(7)
C5 0.0203(10) 0.0156(9) 0.0187(12) 0.0058(9) 0.0090(8) 0.0057(7)
C6 0.0144(9) 0.0183(9) 0.0129(11) 0.0022(8) 0.0031(8) 0.0006(7)
C7 0.0198(10) 0.0260(11) 0.0268(14) 0.0119(10) 0.0091(9) 0.0061(8)
C8 0.0183(10) 0.0298(11) 0.0221(13) 0.0090(10) 0.0054(9) -0.0016(8)
C9 0.0349(12) 0.0249(11) 0.0273(14) 0.0084(10) 0.0216(11) 0.0086(9)
C10 0.0233(10) 0.0220(10) 0.0206(13) 0.0081(9) 0.0081(9) 0.0074(8)
C11 0.0328(11) 0.0261(11) 0.0161(12) 0.0054(10) 0.0085(9) 0.0085(8)
N1 0.0206(8) 0.0198(8) 0.0167(10) 0.0059(7) 0.0068(7) 0.0033(6)
C12 0.0235(10) 0.0214(10) 0.0167(12) 0.0032(9) 0.0058(9) 0.0009(8)
C13 0.0205(10) 0.0256(11) 0.0203(13) 0.0034(10) 0.0072(9) 0.0001(8)
C14 0.0186(9) 0.0224(10) 0.0135(11) 0.0052(9) 0.0079(8) 0.0028(7)
C15 0.0203(10) 0.0166(9) 0.0153(12) 0.0026(9) 0.0071(8) 0.0036(7)
loop_
_atom_type_symbol
_atom_type_description
_atom_type_scat_dispersion_real
_atom_type_scat_dispersion_imag
_atom_type_scat_source
C C 0.0033 0.0016 'International Tables Vol C Tables 4.2.6.8 and 6.1.1.4'
H H 0.0000 0.0000 'International Tables Vol C Tables 4.2.6.8 and 6.1.1.4'
F F 0.0171 0.0103 'International Tables Vol C Tables 4.2.6.8 and 6.1.1.4'
N N 0.0061 0.0033 'International Tables Vol C Tables 4.2.6.8 and 6.1.1.4'
O O 0.0106 0.0060 'International Tables Vol C Tables 4.2.6.8 and 6.1.1.4'
loop_
_geom_angle_atom_site_label_1
_geom_angle_atom_site_label_2
_geom_angle_atom_site_label_3
_geom_angle
C5 C2 C11 120.34(18)
C9 C1 C13 120.90(18)
C8 C3 C10 120.27(19)
C7 C4 C14 120.26(18)
C2 C5 C6 119.08(16)
C2 C5 C13 119.85(17)
C13 C5 C6 121.05(19)
C5 C6 C15 117.29(15)
N1 C6 C5 124.42(18)
N1 C6 C15 118.27(16)
C8 C7 C4 120.38(19)
C7 C8 C3 119.5(2)
C1 C9 C11 119.92(18)
C3 C10 C14 120.40(19)
C9 C11 C2 119.9(2)
C6 N1 O1 113.17(15)
F1 C12 F2 106.65(15)
F1 C12 F3 106.92(16)
F1 C12 C15 113.85(15)
F2 C12 F3 106.43(14)
F2 C12 C15 112.44(17)
F3 C12 C15 110.12(15)
C1 C13 C5 119.1(2)
C4 C14 C15 119.97(17)
C10 C14 C4 119.21(19)
C10 C14 C15 120.81(17)
C6 C15 C12 113.59(15)
C6 C15 C14 112.84(14)
C12 C15 C14 110.56(16)
loop_
_geom_bond_atom_site_label_1
_geom_bond_atom_site_label_2
_geom_bond_distance
F1 C12 1.341(2)
F2 C12 1.345(2)
F3 C12 1.346(2)
O1 N1 1.399(2)
C2 C5 1.385(3)
C2 C11 1.388(3)
C1 C9 1.373(3)
C1 C13 1.394(3)
C3 C8 1.385(3)
C3 C10 1.386(3)
C4 C7 1.387(3)
C4 C14 1.388(3)
C5 C6 1.493(2)
C5 C13 1.397(3)
C6 N1 1.280(2)
C6 C15 1.518(3)
C7 C8 1.383(3)
C9 C11 1.387(3)
C10 C14 1.386(3)
C12 C15 1.521(2)
C14 C15 1.528(3)
