#------------------------------------------------------------------------------
#$Date: 2020-09-02 19:55:10 +0300 (Wed, 02 Sep 2020) $
#$Revision: 255805 $
#$URL: file:///home/coder/svn-repositories/cod/cif/4/03/52/4035275.cif $
#------------------------------------------------------------------------------
#
# This file is available in the Crystallography Open Database (COD),
# http://www.crystallography.net/
#
# All data on this site have been placed in the public domain by the
# contributors.
#
data_4035275
loop_
_publ_author_name
'Liu, Yan'
'Chen, Xiao-Lan'
'Zeng, Fan-Lin'
'Sun, Kai'
'Qu, Chen'
'Fan, Lu-Lu'
'An, Zi-Long'
'Li, Rui'
'Jing, Chun-Feng'
'Wei, Sheng-Kai'
'Qu, Ling-Bo'
'Yu, Bing'
'Sun, Yuan-Qiang'
'Zhao, Yu-Fen'
_publ_section_title
;
 Phosphorus Radical-Initiated Cascade Reaction To Access
 2-Phosphoryl-Substituted Quinoxalines.
;
_journal_issue                   19
_journal_name_full               'The Journal of organic chemistry'
_journal_page_first              11727
_journal_page_last               11735
_journal_paper_doi               10.1021/acs.joc.8b01657
_journal_volume                  83
_journal_year                    2018
_chemical_formula_moiety         'C20 H15 N2 O P'
_chemical_formula_sum            'C20 H15 N2 O P'
_chemical_formula_weight         330.32
_space_group_crystal_system      triclinic
_space_group_IT_number           2
_space_group_name_Hall           '-P 1'
_space_group_name_H-M_alt        'P -1'
_symmetry_Int_Tables_number      2
_atom_sites_solution_primary     iterative
_audit_creation_date             2018-04-16
_audit_creation_method
;
Olex2 1.2
(compiled 2018.04.03 svn.r3497 for OlexSys, GUI svn.r5486)
;
_cell_angle_alpha                110.835(4)
_cell_angle_beta                 102.211(4)
_cell_angle_gamma                92.540(4)
_cell_formula_units_Z            2
_cell_length_a                   8.4116(3)
_cell_length_b                   10.4562(5)
_cell_length_c                   10.4805(5)
_cell_measurement_reflns_used    6965
_cell_measurement_temperature    150.00(10)
_cell_measurement_theta_max      28.8950
_cell_measurement_theta_min      2.1100
_cell_volume                     834.78(7)
_computing_cell_refinement       'CrysAlisPro 1.171.39.27b (Rigaku OD, 2015)'
_computing_data_collection       'CrysAlisPro 1.171.39.27b (Rigaku OD, 2015)'
_computing_data_reduction        'CrysAlisPro 1.171.39.27b (Rigaku OD, 2015)'
_computing_molecular_graphics    'Olex2 (Dolomanov et al., 2009)'
_computing_publication_material  'Olex2 (Dolomanov et al., 2009)'
_computing_structure_refinement  'olex2.refine (Bourhis et al., 2015)'
_computing_structure_solution    'olex2.solve (Bourhis et al., 2015)'
_diffrn_ambient_environment      N~2~
_diffrn_ambient_temperature      150.00(10)
_diffrn_detector                 'CCD plate'
_diffrn_measured_fraction_theta_full 0.8816
_diffrn_measured_fraction_theta_max 0.8772
_diffrn_measurement_details
;
List of Runs (angles in degrees, time in seconds):

  # Type    Start    End  Width  t~exp~   \w     \q     \k     \f   Frames
--------------------------------------------------------------------------
  1  \w     57.00  88.00   0.50    0.80    --   10.60  57.00  60.00   62
  2  \w    -40.00  77.00   0.50    0.80    --  -10.90  57.00 -30.00  234
  3  \w     47.00  73.00   0.50    0.80    --  -10.90  57.00  30.00   52
  4  \w    -97.00 -27.00   0.50    0.80    --  -10.90 -38.00 120.00  140
  5  \w      8.00  34.00   0.50    0.80    --  -10.90 -38.00 120.00   52
  6  \w    -25.00   2.00   0.50    0.80    --  -10.90  57.00  30.00   54
  7  \w    -95.00  31.00   0.50    0.80    --  -10.90 -82.00-120.00  252
  8  \w    -98.00   7.00   0.50    0.80    --  -10.90 -57.00  60.00  210
;
_diffrn_measurement_device       'four-circle diffractometer'
_diffrn_measurement_device_type  'XtaLAB AFC12 (RINC): Kappa single'
_diffrn_measurement_method       '\w scans'
_diffrn_orient_matrix_type
'CrysAlisPro convention (1999,Acta A55,543-557)'
_diffrn_orient_matrix_UB_11      0.0320282000
_diffrn_orient_matrix_UB_12      -0.0294011000
_diffrn_orient_matrix_UB_13      0.0499339000
_diffrn_orient_matrix_UB_21      0.0790643000
_diffrn_orient_matrix_UB_22      0.0079607000
_diffrn_orient_matrix_UB_23      -0.0120225000
_diffrn_orient_matrix_UB_31      0.0172154000
_diffrn_orient_matrix_UB_32      0.0665741000
_diffrn_orient_matrix_UB_33      0.0541853000
_diffrn_radiation_monochromator  graphite
_diffrn_radiation_probe          x-ray
_diffrn_radiation_type           'Mo K\a'
_diffrn_radiation_wavelength     0.71073
_diffrn_reflns_av_R_equivalents  0.0208
_diffrn_reflns_av_unetI/netI     0.0243
_diffrn_reflns_limit_h_max       11
_diffrn_reflns_limit_h_min       -11
_diffrn_reflns_limit_k_max       10
_diffrn_reflns_limit_k_min       -14
_diffrn_reflns_limit_l_max       13
_diffrn_reflns_limit_l_min       -14
_diffrn_reflns_number            10862
_diffrn_reflns_theta_full        28.9479
_diffrn_reflns_theta_max         28.95
_diffrn_reflns_theta_min         2.10
_diffrn_source                   'fine-focus sealed X-ray tube'
_diffrn_source_type              'Enhance (Mo) X-ray Source'
_exptl_absorpt_coefficient_mu    0.173
_exptl_absorpt_correction_T_max  1.00000
_exptl_absorpt_correction_T_min  0.83411
_exptl_absorpt_correction_type   multi-scan
_exptl_absorpt_process_details
;
CrysAlisPro 1.171.39.27b (Rigaku Oxford Diffraction, 2015)
Empirical absorption correction using spherical harmonics,
 implemented in SCALE3 ABSPACK scaling algorithm.
;
_exptl_crystal_density_diffrn    1.3141
_exptl_crystal_F_000             344.3391
_refine_diff_density_max         0.3531
_refine_diff_density_min         -0.3324
_refine_diff_density_rms         0.0496
_refine_ls_d_res_high            0.7342
_refine_ls_d_res_low             9.6884
_refine_ls_goodness_of_fit_ref   1.0501
_refine_ls_hydrogen_treatment    constr
_refine_ls_matrix_type           full
_refine_ls_number_constraints    30
_refine_ls_number_parameters     217
_refine_ls_number_reflns         3880
_refine_ls_number_restraints     0
_refine_ls_restrained_S_all      1.0501
_refine_ls_R_factor_all          0.0381
_refine_ls_R_factor_gt           0.0346
_refine_ls_shift/su_max          0.0020
_refine_ls_shift/su_mean         0.0005
_refine_ls_structure_factor_coef Fsqd
_refine_ls_weighting_details
'w=1/[\s^2^(Fo^2^)+(0.0377P)^2^+0.3797P] where P=(Fo^2^+2Fc^2^)/3'
_refine_ls_weighting_scheme      calc
_refine_ls_wR_factor_gt          0.0879
_refine_ls_wR_factor_ref         0.0898
_reflns_Friedel_coverage         0.0
_reflns_limit_h_max              11
_reflns_limit_h_min              -11
_reflns_limit_k_max              12
_reflns_limit_k_min              -14
_reflns_limit_l_max              14
_reflns_limit_l_min              0
_reflns_number_gt                3500
_reflns_number_total             3880
_reflns_threshold_expression     I>=2u(I)
_iucr_refine_instructions_details
;
TITL 
CELL 0.71073 8.4116 10.4562 10.4805 110.835 102.211 92.54
ZERR 4 0.0003 0.0005 0.0005 0.004 0.004 0.004
LATT 1
SFAC C H N O P
UNIT 40 30 4 2 2

L.S. 4
PLAN  20
FMAP 2
ABIN 
acta 
conf 
acta 
WGHT 0.037698 0.379693
FVAR 0.870098
REM <olex2.extras>
REM <HklSrc "%.\\HY.hkl">
REM </olex2.extras>

P     5     0.10293  0.26441  0.19024  11.00000  0.01699  0.01716  0.01457 =
 0.00710  0.00494  0.00199 
O     4     0.15189  0.17115  0.06438  11.00000  0.02433  0.02348  0.01770 =
 0.00709  0.00831  0.00406 
N2    3     0.08267  0.24520  0.43870  11.00000  0.02146  0.02298  0.01894 =
 0.01017  0.00663  0.00444 
C3aa  1     0.15376  0.20119  0.33287  11.00000  0.01742  0.01702  0.01599 =
 0.00661  0.00333 -0.00009 
N1    3     0.30686  0.04824  0.41935  11.00000  0.03035  0.02562  0.02241 =
 0.00971  0.00548  0.01000 
C5aa  1     0.26604  0.10282  0.32364  11.00000  0.02356  0.02472  0.01860 =
 0.00758  0.00608  0.00620 
AFIX 43
H5aa  2     0.31268  0.07585  0.24673  11.00000 -1.20000 
AFIX 0
C6aa  1     0.26915  0.03492  0.63569  11.00000  0.03681  0.02707  0.02623 =
 0.01466  0.00155  0.00576 
AFIX 43
H6aa  2     0.34257 -0.02960  0.63081  11.00000 -1.20000 
AFIX 0
C7aa  1     0.23297  0.09021  0.52899  11.00000  0.02290  0.01945  0.01860 =
 0.00775  0.00073 -0.00036 
C8aa  1     0.04672  0.22933  0.65404  11.00000  0.02869  0.03649  0.02285 =
 0.01407  0.00992  0.00744 
AFIX 43
H8aa  2    -0.02728  0.29354  0.66097  11.00000 -1.20000 
AFIX 0
C9aa  1     0.27865  0.51382  0.39728  11.00000  0.02994  0.02259  0.02803 =
 0.01020  0.00032  0.00037 
AFIX 43
H9aa  2     0.27287  0.47605  0.46448  11.00000 -1.20000 
AFIX 0
C0ba  1     0.12132  0.18907  0.53910  11.00000  0.01935  0.02130  0.01700 =
 0.00822  0.00272 -0.00031 
C1ba  1    -0.11400  0.27425  0.15810  11.00000  0.01839  0.02179  0.01831 =
 0.01097  0.00531  0.00228 
C2ba  1     0.20607  0.43823  0.25591  11.00000  0.01663  0.01861  0.02437 =
 0.00937  0.00648  0.00325 
C3ba  1    -0.18201  0.38768  0.23252  11.00000  0.02346  0.03180  0.02888 =
 0.00100  0.00606  0.00470 
AFIX 43
H3ba  2    -0.11474  0.46310  0.30409  11.00000 -1.20000 
AFIX 0
C4ba  1    -0.38404  0.16283  0.01950  11.00000  0.02234  0.03058  0.03191 =
 0.01369  0.00040 -0.00421 
AFIX 43
H4ba  2    -0.45173  0.08739 -0.05170  11.00000 -1.20000 
AFIX 0
C5ba  1    -0.35127  0.38790  0.19946  11.00000  0.02680  0.04566  0.03919 =
 0.00497  0.01266  0.01372 
AFIX 43
H5ba  2    -0.39703  0.46367  0.24907  11.00000 -1.20000 
AFIX 0
C6ba  1     0.29741  0.62807  0.19807  11.00000  0.04048  0.02887  0.05251 =
 0.02473  0.02315  0.00717 
AFIX 43
H6ba  2     0.30358  0.66664  0.13155  11.00000 -1.20000 
AFIX 0
C7ba  1    -0.21539  0.16126  0.05131  11.00000  0.02361  0.02064  0.02533 =
 0.00989  0.00371  0.00201 
AFIX 43
H7ba  2    -0.17031  0.08511  0.00153  11.00000 -1.20000 
AFIX 0
C8ba  1     0.08386  0.17352  0.75477  11.00000  0.03114  0.04130  0.01885 =
 0.01349  0.00647 -0.00241 
AFIX 43
H8ba  2     0.03457  0.19983  0.83009  11.00000 -1.20000 
AFIX 0
C9ba  1    -0.45191  0.27546  0.09275  11.00000  0.01716  0.04939  0.03628 =
 0.01999  0.00736  0.00472 
AFIX 43
H9ba  2    -0.56487  0.27601  0.07064  11.00000 -1.20000 
AFIX 0
C0ca  1     0.19602  0.07659  0.74554  11.00000  0.03771  0.03268  0.02211 =
 0.01718 -0.00120 -0.00461 
AFIX 43
H0ca  2     0.22068  0.04034  0.81551  11.00000 -1.20000 
AFIX 0
C1ca  1     0.21678  0.49594  0.15593  11.00000  0.03452  0.02561  0.02944 =
 0.01397  0.01351  0.00474 
AFIX 43
H1ca  2     0.16975  0.44560  0.06107  11.00000 -1.20000 
AFIX 0
C2ca  1     0.36895  0.70291  0.33941  11.00000  0.02624  0.01985  0.06297 =
 0.01574  0.01175  0.00018 
AFIX 43
H2ca  2     0.42304  0.79158  0.36755  11.00000 -1.20000 
AFIX 0
C3ca  1     0.35987  0.64599  0.43788  11.00000  0.03213  0.02285  0.04112 =
 0.00599 -0.00450 -0.00204 
AFIX 43
H3ca  2     0.40848  0.69635  0.53244  11.00000 -1.20000 
AFIX 0
HKLF 4

END
Q1 1 0.133333 0.361111 0.222222 11 0.05 0.35
Q2 1 0 0.277778 0.166667 11 0.05 0.34
Q3 1 0.166667 0.138889 0.527778 11 0.05 0.32
Q4 1 0.133333 0.25 0.277778 11 0.05 0.3
Q5 1 0.1 0.222222 0.611111 11 0.05 0.28
Q6 1 0.233333 0.055556 0.583333 11 0.05 0.25
Q7 1 0.2 0.138889 0.305556 11 0.05 0.24
Q8 1 -0.166667 0.222222 0.111111 11 0.05 0.24
Q9 1 -0.3 0.166667 0.027778 11 0.05 0.24
Q10 1 0.166667 0.472222 0.222222 11 0.05 0.23

  REM The information below was added by Olex2.
  REM
  REM R1 = 0.0346 for 3500 Fo > 4sig(Fo) and 0.0381 for all 3880 data
  REM 217 parameters refined using 0 restraints
  REM Highest difference peak 0.3531, deepest hole -0.3324
  REM Mean Shift 0.0005, Max Shift 0.0020.

  REM +++ Tabular Listing of Refinement Information +++
  REM R1_all = 0.0381
  REM R1_gt = 0.0346
  REM wR_ref = 0.0898
  REM GOOF = 1.0501
  REM Shift_max = 0.0020
  REM Shift_mean = 0.0005
  REM Reflections_all = 3880
  REM Reflections_gt = 3500
  REM Parameters = 217
  REM Hole = -0.3324
  REM Peak = 0.3531
  REM Flack = n/a
;
_cod_data_source_file            jo8b01657_si_003.cif
_cod_data_source_block           HY
_cod_depositor_comments
;

2020-08-18
Z value and formula fixed to values more according to usual
chemical conventions.                 miguel
;
_cod_original_formula_sum            'C10 H7.5 N O0.5 P0.5'
_cod_original_formula_weight         165.16
_cod_original_formula_moiety         '0.5(C20 H15 N2 O P)'
_cod_original_formula_units_Z            4
_cod_database_code               4035275
_chemical_oxdiff_usercomment     'C H O'
_reflns_odcompleteness_completeness 99.82
_reflns_odcompleteness_iscentric 1
_reflns_odcompleteness_theta     26.32
_olex2_refinement_description
;
1. Fixed Uiso
 At 1.2 times of:
  All C(H) groups
2.a Aromatic/amide H refined with riding coordinates:
 C5aa(H5aa), C6aa(H6aa), C8aa(H8aa), C9aa(H9aa), C3ba(H3ba), C4ba(H4ba),
 C5ba(H5ba), C6ba(H6ba), C7ba(H7ba), C8ba(H8ba), C9ba(H9ba), C0ca(H0ca),
 C1ca(H1ca), C2ca(H2ca), C3ca(H3ca)
;
_iucr_refine_fcf_details
;
data_HY
_computing_structure_refinement   'olex2.refine (Bourhis et al., 2015)'
_shelx_refln_list_code            4
loop_
  _space_group_symop_id
  _space_group_symop_operation_xyz
  1  x,y,z
  2  -x,-y,-z

_space_group_crystal_system       triclinic
_space_group_IT_number            2
_space_group_name_H-M_alt         'P -1'
_space_group_name_Hall            '-P 1'
_symmetry_space_group_name_H-M    'P -1'
_symmetry_space_group_name_Hall   '-P 1'
_symmetry_Int_Tables_number       2
_cell_length_a                    8.4116(3)
_cell_length_b                    10.4562(5)
_cell_length_c                    10.4805(5)
_cell_angle_alpha                 110.835(4)
_cell_angle_beta                  102.211(4)
_cell_angle_gamma                 92.540(4)
_cell_volume                      834.78(7)
loop_
  _refln_index_h
  _refln_index_k
  _refln_index_l
  _refln_F_squared_calc
  _refln_F_squared_meas
  _refln_F_squared_sigma
  _refln_F_squared_weight
  _refln_observed_status
-11 -2 2 34.213 30.314 3.487 13.856 o
-11 -2 3 317.495 338.542 12.469 0.847 o
-11 -2 4 14.462 16.564 2.681 27.347 o
-11 -2 5 10.697 7.639 1.480 60.507 o
-11 -1 3 112.436 113.345 6.393 3.568 o
-11 -1 4 114.151 120.596 6.961 3.246 o
-11 -1 5 66.981 69.227 5.085 6.248 o
-11 0 3 97.207 109.501 6.697 3.708 o
-11 0 4 77.596 87.099 5.799 4.935 o
-11 0 5 11.472 10.329 2.206 39.234 o
-11 1 3 6.232 6.842 2.061 53.793 o
-11 1 4 46.115 44.566 4.108 9.772 o
-11 2 1 3.623 2.232 1.572 98.522 o
-11 2 2 12.628 12.416 2.378 34.100 o
-11 2 3 54.965 59.755 3.315 9.806 o
-11 2 4 1.409 1.730 1.598 115.860 o
-11 3 1 34.752 34.686 3.646 12.876 o
-11 3 3 78.041 82.860 3.951 6.616 o
-11 3 4 13.585 11.505 2.483 32.130 o
-11 4 3 0.032 -0.291 1.532 154.110 o
-10 -5 6 15.124 17.462 2.708 26.438 o
-10 -5 7 77.123 79.319 5.204 5.562 o
-10 -4 3 45.138 48.569 4.266 9.351 o
-10 -4 4 5.661 6.248 1.981 58.568 o
-10 -4 5 14.110 16.577 2.589 28.607 o
-10 -4 6 57.645 69.373 4.768 7.049 o
-10 -4 7 180.598 168.809 7.688 2.128 o
-10 -3 2 131.425 133.425 4.878 3.676 o
-10 -3 3 143.015 143.871 9.325 2.128 o
-10 -3 4 20.042 19.454 1.830 31.713 o
-10 -3 5 65.956 62.304 3.063 9.092 o
-10 -3 6 0.004 -0.502 1.347 199.906 o
-10 -2 1 7.893 7.121 1.148 84.422 o
-10 -2 2 11.531 10.858 1.561 52.521 o
-10 -2 3 372.129 374.699 9.300 0.852 o
-10 -2 4 56.653 54.847 3.712 9.184 o
-10 -2 5 143.917 144.729 4.872 3.360 o
-10 -2 6 123.710 127.993 6.525 3.231 o
-10 -2 7 0.732 1.202 1.110 231.277 o
-10 -2 8 43.033 48.437 3.408 11.525 o
-10 -2 9 22.436 27.937 2.708 20.880 o
-10 -1 1 26.379 24.525 2.300 22.666 o
-10 -1 2 0.283 0.543 1.045 294.347 o
-10 -1 3 0.264 1.136 1.073 266.618 o
-10 -1 4 181.420 176.773 5.580 2.496 o
-10 -1 5 15.000 13.050 2.312 32.747 o
-10 -1 6 5.287 4.843 1.072 115.676 o
-10 -1 7 59.929 65.621 3.963 8.136 o
-10 -1 8 19.390 21.451 2.417 25.855 o
-10 0 1 10.179 8.652 2.351 38.896 o
-10 0 2 3.755 0.995 1.115 155.657 o
-10 0 3 425.112 407.309 11.201 0.679 o
-10 0 4 47.639 40.553 2.568 13.595 o
-10 0 5 188.027 206.203 8.771 1.778 o
-10 0 6 27.102 33.154 2.827 17.923 o
-10 0 7 5.702 7.186 1.691 68.931 o
-10 0 8 1.155 2.747 1.281 158.813 o
-10 1 1 70.611 71.507 2.431 9.079 o
-10 1 2 0.119 0.930 0.858 410.308 o
-10 1 3 10.376 10.723 1.206 64.887 o
-10 1 4 176.453 176.827 7.357 2.193 o
-10 1 5 21.900 22.001 2.569 23.250 o
-10 1 6 3.139 5.336 1.955 68.327 o
-10 1 7 100.167 108.312 5.548 4.276 o
-10 2 1 10.817 6.888 1.112 72.954 o
-10 2 2 41.200 40.266 2.804 14.089 o
-10 2 3 60.853 73.861 2.819 9.370 o
-10 2 4 0.985 3.113 1.053 206.830 o
-10 2 5 80.283 88.856 5.706 4.908 o
-10 2 6 83.807 78.870 5.653 4.989 o
-10 2 7 26.296 33.326 3.738 13.954 o
-10 2 8 43.834 37.183 3.976 10.654 o
-10 3 1 40.886 42.734 2.250 15.597 o
-10 3 2 2.988 2.977 0.910 183.868 o
-10 3 3 40.117 45.958 2.257 15.393 o
-10 3 4 67.786 75.595 3.576 7.796 o
-10 3 5 2.690 1.611 1.902 80.486 o
-10 3 6 43.211 44.091 4.451 9.302 o
-10 4 1 7.748 8.669 0.985 88.062 o
-10 4 2 0.459 1.816 1.074 241.882 o
-10 4 3 144.259 143.706 5.601 3.141 o
-10 4 4 36.194 40.036 4.200 10.718 o
-10 4 5 41.648 30.275 3.738 11.946 o
-10 5 1 42.970 37.729 2.659 14.437 o
-10 5 2 14.443 11.187 1.675 44.630 o
-10 5 3 15.905 11.426 2.589 29.109 o
-9 -7 6 11.486 11.399 2.193 38.845 o
-9 -7 7 51.621 48.318 3.910 9.528 o
-9 -7 8 8.048 9.405 2.047 48.258 o
-9 -6 1 26.066 26.193 2.932 18.633 o
-9 -6 2 13.602 14.767 2.325 33.015 o
-9 -6 3 38.346 42.440 3.765 11.527 o
-9 -6 4 0.659 0.779 1.215 208.311 o
-9 -6 5 6.488 7.027 1.876 59.382 o
-9 -5 1 44.652 46.370 2.720 13.208 o
-9 -5 2 65.336 64.522 5.607 5.839 o
-9 -5 3 0.866 0.779 1.189 209.600 o
-9 -5 4 7.596 8.942 1.955 52.092 o
-9 -5 5 0.012 -0.238 1.189 256.333 o
-9 -5 6 5.093 5.693 1.625 77.412 o
-9 -5 7 29.082 33.933 3.091 16.097 o
-9 -5 8 20.476 22.732 2.536 23.987 o
-9 -5 10 15.183 14.873 1.981 36.389 o
-9 -4 1 29.674 29.654 2.165 21.099 o
-9 -4 2 4.285 4.321 0.875 149.807 o
-9 -4 3 70.225 67.566 4.623 6.656 o
-9 -4 4 1.927 1.621 1.420 133.765 o
-9 -4 5 0.018 0.680 1.103 277.749 o
-9 -4 6 73.948 82.978 4.821 5.962 o
-9 -4 7 3.044 3.606 1.321 121.550 o
-9 -4 8 267.749 257.704 8.665 1.321 o
-9 -4 9 4.186 5.521 1.387 97.776 o
-9 -4 10 6.245 5.719 1.506 78.490 o
-9 -3 1 83.860 86.022 3.681 6.501 o
-9 -3 2 107.693 110.755 3.362 5.231 o
-9 -3 3 70.317 77.738 3.300 7.880 o
-9 -3 4 9.406 9.930 1.281 67.108 o
-9 -3 5 15.485 16.656 2.259 31.597 o
-9 -3 6 133.918 136.658 4.115 3.863 o
-9 -3 7 47.785 50.988 2.371 13.169 o
-9 -3 8 47.441 45.663 3.051 12.012 o
-9 -3 9 72.621 76.915 4.187 6.792 o
-9 -3 10 26.932 24.185 2.457 21.507 o
-9 -2 1 41.398 42.382 2.014 16.222 o
-9 -2 2 8.626 6.675 0.978 89.050 o
-9 -2 3 53.776 59.202 4.200 8.414 o
-9 -2 4 0.066 0.400 0.874 436.483 o
-9 -2 5 18.164 25.924 1.678 32.100 o
-9 -2 6 16.999 19.491 1.498 38.344 o
-9 -2 7 10.809 9.618 1.671 52.608 o
-9 -2 8 177.466 165.784 6.644 2.374 o
-9 -2 9 1.784 1.651 1.136 185.647 o
-9 -1 1 85.545 92.721 2.579 7.112 o
-9 -1 2 228.146 213.363 4.210 2.094 o
-9 -1 3 281.614 284.651 5.811 1.426 o
-9 -1 4 2.801 2.434 0.843 208.767 o
-9 -1 5 0.361 0.882 0.597 648.375 o
-9 -1 6 13.630 12.922 1.097 55.455 o
-9 -1 7 44.091 49.176 3.276 11.673 o
-9 -1 8 0.467 -0.185 1.004 322.405 o
-9 -1 9 45.877 38.398 3.051 12.754 o
-9 0 1 8.124 8.510 1.154 79.551 o
-9 0 2 43.254 42.553 3.298 12.162 o
-9 0 3 578.107 590.950 10.139 0.450 o
-9 0 4 347.240 342.903 9.306 0.936 o
-9 0 5 23.806 25.056 1.461 29.831 o
-9 0 6 2.709 4.200 0.803 193.349 o
-9 0 7 6.890 7.809 1.212 84.922 o
-9 0 8 57.303 54.461 2.727 10.883 o
-9 0 9 3.295 4.134 1.506 99.649 o
-9 1 1 78.411 75.117 2.348 8.370 o
-9 1 2 11.961 10.589 1.083 63.348 o
-9 1 3 0.440 0.316 0.840 423.541 o
-9 1 4 155.640 170.039 5.272 2.897 o
-9 1 5 2.206 2.565 0.742 251.796 o
-9 1 6 51.363 50.696 4.907 7.688 o
-9 1 7 57.817 54.804 2.761 10.745 o
-9 1 8 2.148 1.956 0.981 206.342 o
-9 1 9 31.789 34.105 3.514 13.846 o
-9 1 10 6.660 10.250 2.312 43.143 o
-9 2 1 4.566 4.987 0.780 149.547 o
-9 2 2 111.730 114.171 3.441 5.001 o
-9 2 3 151.609 159.950 6.710 2.639 o
-9 2 4 71.053 64.712 3.103 8.528 o
-9 2 5 137.365 141.503 4.782 3.527 o
-9 2 6 2.995 1.241 0.897 210.140 o
-9 2 7 90.068 94.305 3.829 5.922 o
-9 2 8 9.881 16.786 2.034 40.447 o
-9 2 9 4.550 3.223 2.100 60.558 o
-9 3 1 84.504 93.274 3.149 6.724 o
-9 3 2 6.138 6.874 1.038 101.978 o
-9 3 3 10.025 13.169 2.391 35.960 o
-9 3 4 98.015 98.686 3.951 5.448 o
-9 3 5 1.409 0.594 1.638 116.494 o
-9 3 6 9.036 6.433 2.127 47.028 o
-9 3 7 7.989 6.704 1.289 78.682 o
-9 3 8 97.600 110.122 6.578 3.756 o
-9 4 1 0.557 1.250 0.951 301.385 o
-9 4 2 142.481 153.904 11.069 1.741 o
-9 4 3 278.941 285.524 11.432 1.038 o
-9 4 4 79.463 86.206 3.699 6.697 o
-9 4 5 11.637 15.150 2.695 29.376 o
-9 4 6 6.988 5.323 1.928 58.354 o
-9 5 1 316.232 316.289 5.774 1.228 o
-9 5 2 19.067 15.601 1.463 38.621 o
-9 5 3 105.737 104.666 4.735 4.640 o
-9 5 4 24.892 30.975 3.751 14.334 o
-9 5 5 0.022 1.004 1.810 106.548 o
-9 5 6 12.726 10.118 2.563 32.215 o
-9 6 1 106.142 101.276 3.389 5.442 o
-9 6 2 11.168 14.448 1.347 54.298 o
-9 6 3 75.006 86.069 3.859 6.775 o
-9 6 4 55.531 57.953 3.183 10.072 o
-9 7 1 47.485 41.772 3.943 10.137 o
-9 7 2 3.552 0.913 1.120 159.262 o
-8 -9 4 76.516 80.270 5.099 5.661 o
-8 -9 5 54.528 53.826 4.214 8.529 o
-8 -8 4 0.003 -0.374 0.847 504.952 o
-8 -8 5 59.636 64.360 3.199 9.355 o
-8 -8 6 5.434 4.417 1.196 106.733 o
-8 -8 7 0.518 1.305 0.992 283.343 o
-8 -8 8 14.550 11.716 2.179 35.659 o
-8 -8 9 13.671 11.320 2.074 38.493 o
-8 -7 1 58.337 55.596 3.831 8.818 o
-8 -7 2 1.704 2.418 0.993 209.958 o
-8 -7 3 108.318 110.545 6.036 3.831 o
-8 -7 4 44.644 52.599 2.805 12.514 o
-8 -7 5 51.666 46.259 2.647 12.315 o
-8 -7 6 4.185 2.536 1.387 109.250 o
-8 -7 7 7.633 6.298 1.526 70.752 o
-8 -7 8 172.015 169.890 5.441 2.662 o
-8 -7 9 59.728 73.388 4.438 7.263 o
-8 -7 11 97.616 104.151 5.284 4.539 o
-8 -6 1 43.468 37.275 3.091 13.098 o
-8 -6 2 94.689 99.516 3.805 5.652 o
-8 -6 3 8.994 10.594 2.008 46.672 o
-8 -6 4 63.735 65.595 4.332 7.394 o
-8 -6 5 8.144 10.822 1.403 65.811 o
-8 -6 6 2.353 2.184 0.993 194.570 o
-8 -6 7 21.573 21.028 2.642 23.044 o
-8 -6 8 1.698 1.026 0.774 312.242 o
-8 -6 9 1.589 1.757 1.096 198.341 o
-8 -6 10 62.733 63.865 3.817 8.213 o
-8 -6 11 13.022 13.473 2.087 37.796 o
-8 -5 1 74.563 76.626 3.593 7.328 o
-8 -5 2 200.662 198.429 6.056 2.143 o
-8 -5 3 183.365 191.845 8.031 1.968 o
-8 -5 4 2.038 2.038 0.774 263.262 o
-8 -5 5 12.937 12.217 1.220 55.506 o
-8 -5 6 0.018 0.793 0.991 334.198 o
-8 -5 7 158.499 161.159 4.429 3.123 o
-8 -5 8 123.051 124.356 3.821 4.365 o
-8 -5 9 106.446 102.870 4.808 4.605 o
-8 -5 10 5.815 4.517 1.347 93.070 o
-8 -5 11 18.933 17.502 2.153 29.930 o
-8 -4 1 8.210 6.910 1.142 83.579 o
-8 -4 2 104.502 107.970 3.094 5.536 o
-8 -4 3 82.858 84.428 3.191 7.017 o
-8 -4 4 27.555 26.659 1.704 25.366 o
-8 -4 5 89.828 92.676 5.297 4.890 o
-8 -4 6 3.659 5.161 0.815 160.063 o
-8 -4 7 549.765 567.713 11.252 0.467 o
-8 -4 8 22.486 24.836 2.087 25.999 o
-8 -4 9 0.102 0.330 0.872 438.696 o
-8 -4 10 14.881 13.592 1.876 39.021 o
-8 -4 11 0.524 1.004 1.228 205.175 o
-8 -3 1 131.031 129.640 3.508 4.215 o
-8 -3 2 0.617 -0.476 0.598 706.010 o
-8 -3 3 30.332 30.307 1.870 22.241 o
-8 -3 4 1.073 0.507 0.525 592.443 o
-8 -3 5 214.425 207.196 6.162 1.990 o
-8 -3 6 127.869 136.919 3.919 4.060 o
-8 -3 7 14.235 13.129 1.185 52.285 o
-8 -3 8 198.789 183.550 6.816 2.094 o
-8 -3 9 3.631 2.853 1.255 126.435 o
-8 -3 10 42.882 44.342 3.236 12.257 o
-8 -2 1 7.875 8.093 0.758 98.551 o
-8 -2 2 5.106 6.559 0.701 136.490 o
-8 -2 3 34.428 33.820 1.512 21.415 o
-8 -2 4 32.389 31.150 1.355 23.520 o
-8 -2 5 18.516 20.782 1.141 39.676 o
-8 -2 6 4.367 2.243 0.588 206.949 o
-8 -2 7 31.312 32.458 1.752 21.956 o
-8 -2 8 60.654 57.974 3.421 9.196 o
-8 -2 9 0.253 0.515 0.911 378.169 o
-8 -2 10 27.234 23.697 2.404 21.817 o
-8 -1 1 84.051 94.073 2.136 7.468 o
-8 -1 2 5.064 5.949 0.596 149.348 o
-8 -1 3 576.639 594.609 8.261 0.470 o
-8 -1 4 196.197 187.717 3.449 2.621 o
-8 -1 5 61.387 65.119 2.132 10.705 o
-8 -1 6 65.661 64.978 2.138 10.224 o
-8 -1 7 65.662 72.284 2.293 9.659 o
-8 -1 8 27.260 25.062 1.702 25.981 o
-8 -1 9 5.133 2.434 0.882 150.531 o
-8 -1 10 18.078 22.330 1.757 32.903 o
-8 0 1 8.500 10.473 0.992 79.226 o
-8 0 2 9.723 6.441 0.582 97.527 o
-8 0 3 23.373 17.669 1.087 36.333 o
-8 0 4 147.400 151.132 3.605 3.599 o
-8 0 5 63.956 66.892 2.242 10.173 o
-8 0 6 234.359 242.585 4.969 1.865 o
-8 0 7 17.159 19.518 1.540 37.643 o
-8 0 8 98.944 93.113 3.489 5.819 o
-8 0 9 1.015 1.294 1.532 131.053 o
-8 0 10 19.792 23.145 1.871 30.091 o
-8 0 11 2.520 5.099 1.915 73.076 o
-8 1 1 13.853 8.568 0.669 69.177 o
-8 1 2 0.872 1.787 0.606 444.706 o
-8 1 3 488.956 481.011 10.686 0.572 o
-8 1 4 3.895 2.781 0.726 192.730 o
-8 1 5 4.353 3.013 0.712 180.343 o
-8 1 6 120.845 118.259 3.770 4.524 o
-8 1 7 90.228 83.304 3.301 6.568 o
-8 1 8 0.642 0.422 0.786 435.370 o
-8 1 9 57.899 63.308 7.456 4.356 o
-8 1 10 35.803 37.209 3.646 12.546 o
-8 2 1 4.324 3.710 0.656 179.809 o
-8 2 2 0.620 1.726 0.767 376.112 o
-8 2 3 207.003 197.871 5.732 2.142 o
-8 2 4 871.675 855.730 16.778 0.216 o
-8 2 5 110.939 113.283 3.638 4.945 o
-8 2 6 1.228 1.853 0.840 289.305 o
-8 2 7 19.049 22.806 1.814 31.326 o
-8 2 8 7.041 10.352 2.642 35.710 o
-8 2 9 123.644 135.725 4.730 3.861 o
-8 2 10 42.867 44.368 4.108 10.079 o
-8 3 1 0.082 0.136 0.582 963.228 o
-8 3 2 6.624 7.395 1.207 87.724 o
-8 3 3 224.988 224.305 6.323 1.841 o
-8 3 4 265.104 269.804 7.020 1.443 o
-8 3 5 32.613 34.946 2.560 17.435 o
-8 3 6 31.645 33.064 2.135 19.919 o
-8 3 7 12.190 15.251 2.345 33.733 o
-8 3 8 30.448 32.097 3.487 14.350 o
-8 3 9 0.516 0.304 1.678 121.691 o
-8 4 1 192.316 189.735 5.735 2.302 o
-8 4 2 496.526 468.296 10.699 0.570 o
-8 4 3 29.052 24.735 1.973 23.477 o
-8 4 4 206.729 213.008 6.043 2.042 o
-8 4 5 36.349 33.748 3.447 13.371 o
-8 4 6 52.025 53.797 4.993 7.432 o
-8 4 7 83.549 93.019 3.883 6.185 o
-8 4 8 112.570 129.684 7.172 3.123 o
-8 5 1 6.617 5.393 0.764 121.153 o
-8 5 2 152.458 142.668 7.516 2.507 o
-8 5 3 67.577 71.565 5.204 6.050 o
-8 5 4 13.995 21.927 3.091 22.319 o
-8 5 5 16.792 19.496 2.800 24.192 o
-8 5 6 3.992 5.231 2.061 61.052 o
-8 5 7 28.231 29.125 3.580 14.635 o
-8 6 1 18.053 21.974 1.906 31.515 o
-8 6 2 5.043 5.327 1.128 111.294 o
-8 6 3 39.998 46.934 2.700 14.013 o
-8 6 4 57.864 58.519 3.447 9.371 o
-8 6 5 102.158 110.720 4.275 4.917 o
-8 6 6 10.400 10.958 1.511 56.184 o
-8 6 7 6.112 10.250 1.889 55.915 o
-8 7 1 15.332 15.493 1.794 38.633 o
-8 7 2 1.585 0.684 0.894 281.681 o
-8 7 3 4.307 4.464 1.176 118.382 o
-8 7 4 1.676 1.376 0.994 228.427 o
-8 7 5 15.802 17.951 2.404 29.181 o
-8 7 6 6.924 4.808 1.625 71.798 o
-8 8 1 0.423 0.380 0.929 356.410 o
-8 8 2 19.851 14.883 1.863 33.455 o
-8 8 3 10.388 10.091 1.942 46.373 o
-8 8 4 58.802 56.441 4.240 8.104 o
-8 9 1 34.102 30.578 3.183 15.013 o
-8 9 2 7.711 5.389 1.796 61.217 o
-7 -10 4 78.416 84.919 5.125 5.492 o
-7 -10 5 43.409 53.390 4.174 9.484 o
-7 -10 6 2.152 5.138 1.889 75.996 o
-7 -9 3 35.056 38.200 3.276 13.806 o
-7 -9 4 36.261 37.449 2.423 16.727 o
-7 -9 5 72.344 78.990 3.606 7.375 o
-7 -9 6 61.012 68.219 3.352 8.847 o
-7 -9 7 68.340 83.725 8.249 3.504 o
-7 -9 8 40.349 45.419 2.810 13.764 o
-7 -9 9 25.959 20.064 2.734 20.855 o
-7 -9 10 7.235 6.221 1.704 64.936 o
-7 -8 1 61.815 61.751 4.438 7.471 o
-7 -8 2 132.462 132.365 6.023 3.256 o
-7 -8 3 0.517 0.076 0.859 413.120 o
-7 -8 4 80.864 78.826 5.733 5.010 o
-7 -8 5 0.222 1.754 1.407 160.797 o
-7 -8 6 83.516 90.583 4.610 5.642 o
-7 -8 7 458.775 459.622 10.661 0.618 o
-7 -8 8 160.590 158.323 5.288 2.904 o
-7 -8 9 0.043 0.249 0.874 450.037 o
-7 -8 10 39.174 45.689 3.381 12.278 o
-7 -8 11 2.803 2.008 1.413 122.212 o
-7 -7 1 4.495 5.333 1.083 120.259 o
-7 -7 2 47.965 49.724 2.386 13.209 o
-7 -7 3 23.037 18.791 1.655 31.258 o
-7 -7 4 5.413 5.555 1.088 110.003 o
-7 -7 5 50.699 51.498 2.661 12.048 o
-7 -7 6 9.503 7.242 1.163 75.891 o
-7 -7 7 6.568 7.143 1.195 89.389 o
-7 -7 8 270.750 281.714 6.994 1.395 o
-7 -7 9 0.627 0.939 0.769 417.276 o
-7 -7 10 34.235 34.111 2.237 18.471 o
-7 -7 11 100.911 100.572 5.416 4.424 o
-7 -6 1 24.583 24.000 2.444 22.577 o
-7 -6 2 9.794 7.936 1.129 74.397 o
-7 -6 3 28.430 29.390 3.494 14.940 o
-7 -6 4 6.849 6.802 1.041 96.947 o
-7 -6 5 39.700 41.029 1.783 17.523 o
-7 -6 6 3.492 3.714 0.650 202.308 o
-7 -6 7 6.496 7.736 0.855 106.053 o
-7 -6 8 20.781 22.003 1.558 32.669 o
-7 -6 9 33.611 33.520 2.182 18.991 o
-7 -6 10 12.910 16.298 1.600 44.413 o
-7 -6 11 0.078 0.486 0.898 409.240 o
-7 -5 1 69.888 70.561 3.989 7.330 o
-7 -5 2 35.984 33.776 1.540 20.716 o
-7 -5 3 37.243 34.329 1.528 20.187 o
-7 -5 4 9.820 12.338 0.691 77.437 o
-7 -5 5 0.028 -0.175 0.426 1922.830 o
-7 -5 6 327.940 325.232 6.008 1.162 o
-7 -5 7 0.016 -0.151 0.664 816.221 o
-7 -5 8 263.075 250.180 5.122 1.652 o
-7 -5 9 46.651 46.253 1.868 14.979 o
-7 -5 10 36.402 39.028 3.864 11.688 o
-7 -5 11 260.664 259.630 7.562 1.438 o
-7 -4 1 0.097 -0.441 0.686 732.384 o
-7 -4 2 21.674 20.463 1.416 33.843 o
-7 -4 3 47.055 45.975 1.473 15.781 o
-7 -4 4 12.046 12.828 0.958 62.512 o
-7 -4 5 45.207 48.796 1.836 15.091 o
-7 -4 6 158.178 161.461 3.139 3.412 o
-7 -4 7 269.171 269.670 9.841 1.201 o
-7 -4 8 85.315 83.933 2.493 7.458 o
-7 -4 9 98.377 106.002 3.729 5.442 o
-7 -4 10 149.976 148.401 6.327 2.824 o
-7 -4 11 8.317 3.817 1.361 80.562 o
-7 -3 1 40.813 42.395 1.430 17.994 o
-7 -3 2 66.091 73.631 1.904 9.981 o
-7 -3 3 183.628 184.215 2.495 2.926 o
-7 -3 4 87.086 86.705 1.632 7.817 o
-7 -3 5 62.855 58.917 1.533 11.670 o
-7 -3 6 8.180 9.160 0.758 92.902 o
-7 -3 7 9.307 8.896 0.770 86.532 o
-7 -3 8 450.538 422.539 7.105 0.734 o
-7 -3 9 9.507 9.274 1.101 73.783 o
-7 -3 10 97.826 109.025 5.244 4.497 o
-7 -3 11 79.010 80.693 4.570 6.040 o
-7 -2 1 19.456 16.681 0.675 45.479 o
-7 -2 2 107.866 104.384 1.952 5.998 o
-7 -2 3 15.935 12.427 0.965 52.996 o
-7 -2 4 240.554 246.699 3.500 1.930 o
-7 -2 5 0.151 0.018 0.311 2642.090 o
-7 -2 6 174.428 172.109 4.846 2.744 o
-7 -2 7 55.932 57.089 1.862 12.363 o
-7 -2 8 106.339 101.435 2.627 5.832 o
-7 -2 9 113.528 118.729 3.805 4.706 o
-7 -2 10 26.477 22.761 1.668 27.349 o
-7 -2 11 2.199 3.210 1.308 135.349 o
-7 -1 1 32.903 37.600 1.034 22.905 o
-7 -1 2 312.789 287.599 3.722 1.390 o
-7 -1 3 74.410 73.588 1.653 9.380 o
-7 -1 4 102.233 103.200 2.431 6.070 o
-7 -1 5 53.638 51.609 1.344 14.011 o
-7 -1 6 1.019 0.992 0.365 700.711 o
-7 -1 7 56.857 59.690 1.926 11.937 o
-7 -1 8 378.456 352.383 7.900 0.914 o
-7 -1 9 42.304 34.462 1.984 17.084 o
-7 -1 10 60.329 65.037 2.867 9.765 o
-7 -1 11 7.293 9.002 1.309 75.831 o
-7 -1 12 59.745 73.586 4.967 6.601 o
-7 0 1 134.524 128.852 2.324 4.494 o
-7 0 2 0.851 0.804 0.361 809.799 o
-7 0 3 314.228 305.202 3.895 1.339 o
-7 0 4 37.824 41.446 1.113 19.916 o
-7 0 5 6.842 8.154 0.601 113.392 o
-7 0 6 74.361 74.891 2.694 8.352 o
-7 0 7 65.623 65.378 2.097 10.256 o
-7 0 8 14.333 16.570 1.398 45.357 o
-7 0 9 136.536 117.540 3.973 4.064 o
-7 0 10 44.814 43.688 2.414 14.229 o
-7 0 11 35.576 32.705 3.447 13.578 o
-7 1 1 1.104 4.097 0.498 344.936 o
-7 1 2 40.291 41.530 1.834 17.141 o
-7 1 3 483.533 487.833 5.831 0.657 o
-7 1 4 765.075 758.895 9.059 0.303 o
-7 1 5 0.020 -0.176 0.402 2172.220 o
-7 1 6 65.952 66.145 2.113 10.159 o
-7 1 7 104.035 100.479 3.513 5.464 o
-7 1 8 81.070 81.503 3.201 7.193 o
-7 1 9 6.922 7.587 1.440 74.720 o
-7 1 10 182.741 186.876 10.197 1.635 o
-7 1 11 0.295 0.581 1.519 147.835 o
-7 2 1 0.392 0.728 0.355 1142.380 o
-7 2 2 1.667 0.522 0.409 551.936 o
-7 2 3 167.127 166.915 3.788 3.090 o
-7 2 4 73.117 72.506 2.385 8.867 o
-7 2 5 117.136 116.485 2.509 5.176 o
-7 2 6 0.067 -0.356 0.487 1428.360 o
-7 2 7 8.358 8.389 1.164 78.351 o
-7 2 8 26.163 26.994 1.907 24.742 o
-7 2 9 18.624 21.050 1.802 32.521 o
-7 2 10 6.584 8.031 2.166 48.747 o
-7 3 1 130.799 140.893 4.973 3.585 o
-7 3 2 27.799 27.693 1.901 23.799 o
-7 3 3 297.725 298.447 5.703 1.335 o
-7 3 4 119.821 117.386 2.583 5.042 o
-7 3 5 2.462 1.542 0.572 314.915 o
-7 3 6 0.854 0.786 0.911 316.436 o
-7 3 7 1.869 1.603 0.901 243.241 o
-7 3 8 0.043 1.347 1.598 132.681 o
-7 3 9 16.104 14.147 2.496 29.183 o
-7 4 1 344.074 328.812 8.039 1.018 o
-7 4 2 0.003 0.531 0.747 579.736 o
-7 4 3 29.176 27.910 1.422 25.712 o
-7 4 4 261.347 253.817 6.717 1.521 o
-7 4 5 15.223 14.204 1.526 43.764 o
-7 4 6 142.590 134.171 7.093 2.767 o
-7 4 7 10.367 11.571 2.259 38.801 o
-7 4 8 52.801 60.866 4.663 7.693 o
-7 4 9 15.249 16.392 2.800 25.702 o
-7 5 1 1.224 0.774 0.802 344.927 o
-7 5 2 8.468 5.739 0.977 92.910 o
-7 5 3 29.563 33.114 3.355 14.954 o
-7 5 4 5.379 8.757 2.074 53.145 o
-7 5 5 37.810 38.543 3.619 12.260 o
-7 5 6 0.118 -0.291 1.453 169.568 o
-7 5 7 23.242 26.410 2.070 25.296 o
-7 5 8 16.570 13.813 1.724 39.188 o
-7 6 1 60.223 67.565 3.084 9.333 o
-7 6 2 45.919 42.715 2.463 13.984 o
-7 6 3 29.392 30.665 4.233 11.899 o
-7 6 4 34.610 40.006 4.022 11.384 o
-7 6 5 0.016 0.342 0.780 553.600 o
-7 6 6 43.840 43.794 2.529 14.085 o
-7 6 7 22.128 18.529 1.795 30.786 o
-7 7 1 2.255 3.593 1.242 140.828 o
-7 7 2 33.178 40.155 3.197 14.240 o
-7 7 3 88.145 92.893 3.863 6.006 o
-7 7 4 114.332 134.067 4.792 4.048 o
-7 7 5 7.340 5.637 1.255 86.190 o
-7 7 6 10.433 13.090 1.902 44.825 o
-7 8 1 67.622 64.319 3.003 8.948 o
-7 8 2 1.029 1.427 1.255 179.931 o
-7 8 3 21.718 23.485 2.708 21.986 o
-7 8 4 93.241 94.086 5.350 4.741 o
-7 8 5 82.965 87.389 5.217 5.229 o
-7 8 6 12.937 8.797 1.955 43.213 o
-7 9 1 91.116 91.614 4.227 5.638 o
-7 9 2 34.995 33.822 2.608 16.769 o
-7 9 3 7.423 7.938 1.968 53.076 o
-7 9 4 6.487 4.755 1.744 68.058 o
-7 9 5 17.877 13.922 2.404 29.140 o
-7 10 1 3.628 2.906 1.519 100.557 o
-6 -11 4 26.802 22.521 2.734 20.136 o
-6 -11 5 46.151 44.395 3.844 10.363 o
-6 -10 3 1.745 2.615 1.427 129.019 o
-6 -10 4 98.030 95.351 3.975 5.492 o
-6 -10 5 33.300 33.082 2.549 17.547 o
-6 -10 6 67.936 76.323 3.648 7.678 o
-6 -10 7 144.229 157.502 7.872 2.423 o
-6 -10 8 17.686 19.570 2.002 31.731 o
-6 -10 9 21.128 21.385 2.840 21.659 o
-6 -10 10 4.881 3.897 1.598 84.171 o
-6 -9 1 13.816 10.541 2.100 38.320 o
-6 -9 2 14.685 17.616 1.657 40.152 o
-6 -9 3 133.418 129.393 6.116 3.231 o
-6 -9 4 43.556 38.781 3.540 11.721 o
-6 -9 5 322.574 345.191 16.769 0.647 o
-6 -9 6 121.660 116.603 6.353 3.412 o
-6 -9 7 59.781 67.025 3.292 9.086 o
-6 -9 8 70.006 71.290 3.432 7.965 o
-6 -9 9 66.493 64.154 2.515 9.701 o
-6 -9 10 15.810 13.629 2.444 30.195 o
-6 -9 11 141.583 149.880 7.093 2.694 o
-6 -8 1 34.099 34.943 1.633 20.859 o
-6 -8 2 0.950 2.708 0.775 305.944 o
-6 -8 3 98.354 103.367 3.829 5.429 o
-6 -8 4 323.588 329.459 9.834 0.979 o
-6 -8 5 113.976 116.852 4.222 4.523 o
-6 -8 6 72.146 69.488 3.381 7.941 o
-6 -8 7 330.881 328.805 6.445 1.128 o
-6 -8 8 258.440 261.822 6.743 1.514 o
-6 -8 9 15.990 15.176 1.474 42.746 o
-6 -8 10 30.068 32.621 2.426 19.118 o
-6 -8 11 162.501 159.034 7.278 2.400 o
-6 -7 1 127.306 125.201 3.215 4.470 o
-6 -7 2 103.493 116.023 4.788 4.521 o
-6 -7 3 78.576 81.639 3.231 7.308 o
-6 -7 4 0.850 1.225 1.024 255.759 o
-6 -7 5 200.603 202.444 4.273 2.385 o
-6 -7 6 0.999 1.341 0.552 497.640 o
-6 -7 7 8.199 8.773 0.932 87.360 o
-6 -7 8 0.015 0.252 0.720 656.033 o
-6 -7 9 10.150 9.147 1.004 74.494 o
-6 -7 10 118.959 122.096 3.428 4.666 o
-6 -7 11 164.243 160.164 5.243 2.857 o
-6 -7 12 2.451 2.761 1.519 110.454 o
-6 -6 1 163.169 159.500 4.389 3.075 o
-6 -6 2 34.828 38.637 2.192 17.826 o
-6 -6 3 332.773 336.776 7.101 1.080 o
-6 -6 4 336.758 339.678 5.040 1.149 o
-6 -6 5 179.777 184.328 3.934 2.770 o
-6 -6 6 0.030 0.035 0.410 2011.380 o
-6 -6 7 297.628 283.438 7.337 1.265 o
-6 -6 8 519.077 498.443 8.626 0.566 o
-6 -6 9 25.603 28.603 1.885 24.757 o
-6 -6 10 10.823 11.244 1.355 58.831 o
-6 -6 11 13.422 14.625 1.606 44.811 o
-6 -6 12 51.000 42.703 2.588 12.816 o
-6 -5 1 224.534 226.405 4.552 2.036 o
-6 -5 2 772.245 776.487 10.304 0.290 o
-6 -5 3 99.840 94.383 1.928 6.648 o
-6 -5 4 37.069 41.946 1.238 19.776 o
-6 -5 5 298.157 288.948 5.202 1.381 o
-6 -5 6 26.071 27.680 1.131 29.296 o
-6 -5 7 283.458 287.355 5.306 1.443 o
-6 -5 8 250.694 255.390 8.942 1.364 o
-6 -5 9 66.840 62.897 2.923 9.183 o
-6 -5 10 259.923 265.960 6.919 1.482 o
-6 -5 11 121.221 131.310 4.508 4.047 o
-6 -5 12 35.559 36.145 3.619 12.740 o
-6 -5 13 17.303 13.830 2.391 29.712 o
-6 -4 1 422.890 415.546 7.797 0.770 o
-6 -4 2 0.013 0.050 0.185 8306.360 o
-6 -4 3 555.614 538.672 5.977 0.538 o
-6 -4 4 2.250 4.111 0.280 307.521 o
-6 -4 5 48.494 45.130 1.209 16.031 o
-6 -4 6 30.195 28.108 1.011 26.963 o
-6 -4 7 4.593 5.250 0.545 168.230 o
-6 -4 8 242.792 226.285 3.876 1.960 o
-6 -4 9 187.617 186.357 4.966 2.494 o
-6 -4 10 0.732 0.107 0.710 515.752 o
-6 -4 11 24.110 21.310 2.622 22.081 o
-6 -4 12 0.606 -0.462 1.374 177.901 o
-6 -3 1 50.365 42.294 0.995 16.258 o
-6 -3 2 53.575 53.177 1.133 14.158 o
-6 -3 3 449.879 463.530 5.870 0.725 o
-6 -3 4 73.783 72.412 1.166 9.851 o
-6 -3 5 8.177 10.028 0.605 95.123 o
-6 -3 6 21.661 22.530 0.853 37.232 o
-6 -3 7 297.071 291.594 4.582 1.412 o
-6 -3 8 70.853 71.537 1.834 9.669 o
-6 -3 9 8.277 8.183 0.849 91.917 o
-6 -3 10 55.130 48.159 4.332 8.484 o
-6 -3 11 64.292 63.882 2.825 9.504 o
-6 -3 12 86.296 90.401 5.046 5.210 o
-6 -2 1 374.226 383.253 3.916 1.006 o
-6 -2 2 75.750 79.909 1.171 9.278 o
-6 -2 3 123.590 117.250 1.599 5.210 o
-6 -2 4 27.868 31.543 0.796 28.171 o
-6 -2 5 76.005 74.829 1.412 9.347 o
-6 -2 6 73.587 67.072 1.681 9.758 o
-6 -2 7 228.943 225.199 4.259 2.036 o
-6 -2 8 165.242 150.405 4.115 3.175 o
-6 -2 9 4.727 7.773 0.994 112.861 o
-6 -2 10 33.200 27.363 1.787 22.064 o
-6 -2 11 3.953 6.578 1.572 83.697 o
-6 -2 12 44.042 38.517 3.434 11.960 o
-6 -2 13 46.834 51.158 4.266 9.110 o
-6 -1 1 77.489 68.670 1.173 9.657 o
-6 -1 2 3.089 3.616 0.288 271.367 o
-6 -1 3 5.219 7.043 0.376 151.083 o
-6 -1 4 88.769 81.854 1.699 7.831 o
-6 -1 5 82.118 72.398 1.412 8.898 o
-6 -1 6 77.391 74.506 1.747 8.989 o
-6 -1 7 161.339 161.559 3.390 3.305 o
-6 -1 8 624.687 580.215 14.728 0.371 o
-6 -1 9 2.979 0.957 0.704 263.321 o
-6 -1 10 19.297 19.827 1.595 34.641 o
-6 -1 11 20.056 18.553 1.659 33.859 o
-6 -1 12 113.745 127.927 6.723 3.296 o
-6 0 1 84.966 82.650 1.423 8.235 o
-6 0 2 1.737 3.908 0.403 328.413 o
-6 0 3 223.384 199.508 2.544 2.353 o
-6 0 4 27.970 31.938 0.892 27.625 o
-6 0 5 160.239 154.746 2.322 3.586 o
-6 0 6 1009.190 986.867 11.169 0.188 o
-6 0 7 170.468 168.954 3.516 3.077 o
-6 0 8 34.321 34.444 1.916 19.728 o
-6 0 9 162.209 154.943 4.620 3.068 o
-6 0 10 25.832 32.956 3.144 16.709 o
-6 0 11 165.132 170.473 7.912 2.192 o
-6 0 12 2.246 0.291 1.519 124.480 o
-6 1 1 0.400 0.325 0.246 1787.930 o
-6 1 2 23.185 23.477 0.929 34.653 o
-6 1 3 7.968 7.866 0.448 109.882 o
-6 1 4 1082.740 1033.430 10.619 0.170 o
-6 1 5 380.289 383.691 5.006 0.964 o
-6 1 6 2.652 1.809 0.402 339.134 o
-6 1 7 287.459 271.196 4.948 1.484 o
-6 1 8 97.129 88.780 3.265 6.138 o
-6 1 9 339.441 340.193 11.901 0.835 o
-6 1 10 26.670 29.561 3.157 16.849 o
-6 1 11 100.110 97.105 3.875 5.449 o
-6 2 1 0.135 0.065 0.269 3160.860 o
-6 2 2 5.581 3.425 0.389 178.663 o
-6 2 3 1598.920 1542.900 15.044 0.083 o
-6 2 4 66.259 64.102 1.500 10.919 o
-6 2 5 28.857 26.484 1.004 28.388 o
-6 2 6 158.625 147.103 4.343 3.250 o
-6 2 7 57.349 53.941 2.472 11.361 o
-6 2 8 14.231 17.964 2.510 29.005 o
-6 2 9 1.876 2.783 0.905 219.504 o
-6 2 10 44.544 43.836 2.488 14.066 o
-6 2 11 83.096 77.470 5.561 5.102 o
-6 3 1 323.453 308.559 4.466 1.273 o
-6 3 2 536.287 554.592 6.295 0.547 o
-6 3 3 0.526 1.088 0.391 854.749 o
-6 3 4 2765.820 2687.630 31.770 0.029 o
-6 3 5 12.627 13.030 0.866 62.294 o
-6 3 6 6.692 6.129 1.559 73.195 o
-6 3 7 6.166 6.618 1.664 69.472 o
-6 3 8 9.452 10.977 1.882 48.619 o
-6 3 9 43.222 44.865 3.500 11.489 o
-6 3 10 62.278 72.304 3.361 8.574 o
-6 4 1 507.710 499.914 8.519 0.579 o
-6 4 2 952.108 928.223 12.096 0.205 o
-6 4 3 43.489 42.453 2.051 15.621 o
-6 4 4 275.482 253.747 4.963 1.587 o
-6 4 5 294.388 306.590 11.029 1.004 o
-6 4 6 2.323 1.453 1.228 158.736 o
-6 4 7 20.273 23.569 1.805 30.191 o
-6 4 8 13.054 17.186 1.641 42.865 o
-6 4 9 10.887 13.971 1.571 50.455 o
-6 5 1 107.585 101.607 2.846 5.667 o
-6 5 2 34.564 35.193 1.342 21.704 o
-6 5 3 10.883 11.247 0.925 69.709 o
-6 5 4 103.948 107.242 5.838 4.049 o
-6 5 5 5.798 5.687 1.063 107.909 o
-6 5 6 0.008 0.219 0.750 613.329 o
-6 5 7 0.164 1.726 0.634 547.706 o
-6 5 8 16.717 16.929 1.289 43.026 o
-6 6 1 7.207 6.102 1.321 82.343 o
-6 6 2 30.718 29.228 1.651 23.419 o
-6 6 3 34.606 31.938 1.774 20.662 o
-6 6 4 162.089 148.422 4.720 3.093 o
-6 6 5 0.355 2.968 0.906 281.717 o
-6 6 6 31.338 36.793 2.217 19.035 o
-6 6 7 18.898 18.971 4.121 14.710 o
-6 6 8 231.360 253.028 9.656 1.371 o
-6 7 1 13.447 12.707 1.823 42.293 o
-6 7 2 143.942 144.055 6.353 2.915 o
-6 7 3 82.799 80.864 4.504 5.943 o
-6 7 4 53.419 59.625 3.804 9.093 o
-6 7 5 0.130 0.198 0.951 377.210 o
-6 7 6 16.551 22.270 2.378 27.613 o
-6 8 1 60.592 57.735 3.080 9.761 o
-6 8 2 28.828 22.180 1.951 24.327 o
-6 8 3 31.262 30.423 3.117 15.888 o
-6 8 4 14.946 8.826 1.968 40.283 o
-6 8 5 136.583 159.340 5.620 3.133 o
-6 9 1 101.342 99.630 4.236 5.138 o
-6 9 2 14.912 12.476 2.450 31.185 o
-6 9 3 2.353 2.802 1.189 152.926 o
-6 9 4 199.709 229.510 6.964 1.905 o
-6 9 5 113.736 119.685 6.287 3.541 o
-6 10 1 8.306 6.143 1.955 53.512 o
-6 10 2 11.824 13.499 2.998 26.097 o
-5 -12 4 55.709 48.820 4.095 8.831 o
-5 -12 5 3.716 3.144 1.783 80.029 o
-5 -11 3 30.852 29.878 3.117 16.038 o
-5 -11 4 61.448 61.447 4.399 7.555 o
-5 -11 5 110.914 122.604 6.974 3.271 o
-5 -11 6 82.224 91.357 4.125 6.077 o
-5 -11 7 115.663 122.102 4.915 4.096 o
-5 -11 8 52.062 58.172 4.782 7.632 o
-5 -11 9 1.995 1.862 1.585 111.410 o
-5 -11 10 12.414 15.943 2.734 28.142 o
-5 -10 1 22.378 27.871 3.104 18.463 o
-5 -10 2 0.732 1.989 0.961 266.347 o
-5 -10 3 220.310 193.747 8.863 1.632 o
-5 -10 4 56.916 65.602 3.315 9.358 o
-5 -10 5 18.998 20.682 1.900 31.345 o
-5 -10 6 104.795 116.429 4.571 4.598 o
-5 -10 7 27.420 26.763 2.411 21.114 o
-5 -10 8 0.100 -0.178 0.759 603.190 o
-5 -10 9 4.244 2.962 0.826 168.691 o
-5 -10 10 25.782 27.434 2.747 19.586 o
-5 -10 11 0.305 -0.528 1.519 152.246 o
-5 -9 1 15.062 15.133 1.440 44.679 o
-5 -9 2 103.886 103.667 4.293 4.961 o
-5 -9 3 88.179 86.452 4.755 5.435 o
-5 -9 4 328.102 333.973 9.887 0.960 o
-5 -9 5 99.441 95.855 3.876 5.495 o
-5 -9 6 8.227 7.810 1.441 69.275 o
-5 -9 7 137.190 131.981 7.813 2.620 o
-5 -9 8 10.365 10.223 1.148 67.371 o
-5 -9 9 16.001 13.140 1.480 44.121 o
-5 -9 10 101.264 105.523 3.407 5.534 o
-5 -9 11 8.125 8.466 1.512 65.853 o
-5 -8 1 0.546 0.671 0.518 737.302 o
-5 -8 2 77.038 72.801 2.278 8.635 o
-5 -8 3 9.270 12.307 1.948 46.239 o
-5 -8 4 160.451 156.648 8.044 2.252 o
-5 -8 5 31.121 33.508 1.543 22.760 o
-5 -8 6 51.652 43.706 1.847 14.271 o
-5 -8 7 0.223 0.695 0.594 729.733 o
-5 -8 8 1.372 0.730 0.769 351.272 o
-5 -8 9 146.135 137.094 3.784 3.712 o
-5 -8 10 0.020 0.007 0.671 796.303 o
-5 -8 11 178.434 185.387 5.867 2.428 o
-5 -8 12 57.909 66.766 3.949 8.255 o
-5 -7 1 21.204 22.715 1.205 35.018 o
-5 -7 2 113.234 120.281 3.566 4.801 o
-5 -7 3 124.404 116.567 2.704 4.863 o
-5 -7 4 48.372 50.516 1.320 15.246 o
-5 -7 5 15.338 14.061 0.978 52.331 o
-5 -7 6 56.435 52.139 1.621 13.050 o
-5 -7 7 137.356 147.845 4.412 3.589 o
-5 -7 8 66.002 76.424 3.075 8.501 o
-5 -7 9 112.718 114.359 3.278 5.042 o
-5 -7 10 47.994 51.347 2.583 12.626 o
-5 -7 11 88.317 79.612 3.509 6.586 o
-5 -7 12 25.927 29.582 2.213 22.333 o
-5 -6 1 173.950 156.389 2.506 3.291 o
-5 -6 2 52.114 49.812 1.459 14.305 o
-5 -6 3 92.479 83.835 1.752 7.483 o
-5 -6 4 350.642 354.943 5.162 1.079 o
-5 -6 5 81.636 78.782 1.498 8.614 o
-5 -6 6 690.620 699.403 8.340 0.357 o
-5 -6 7 292.737 275.589 5.098 1.440 o
-5 -6 8 1093.260 1085.750 15.133 0.156 o
-5 -6 9 1.469 1.505 0.605 389.904 o
-5 -6 10 21.600 19.206 1.246 36.053 o
-5 -6 11 155.298 150.986 4.964 3.110 o
-5 -6 12 30.260 33.153 2.371 19.242 o
-5 -6 13 1.195 1.757 1.413 143.775 o
-5 -5 1 216.372 213.910 5.315 2.061 o
-5 -5 2 189.987 182.312 2.167 2.885 o
-5 -5 3 34.073 27.965 0.754 25.573 o
-5 -5 4 80.242 71.134 1.411 9.124 o
-5 -5 5 179.291 171.098 2.764 3.050 o
-5 -5 6 231.155 229.381 2.954 2.112 o
-5 -5 7 199.456 189.378 2.943 2.634 o
-5 -5 8 78.623 76.550 2.333 8.311 o
-5 -5 9 117.657 107.667 2.418 5.350 o
-5 -5 10 167.627 157.813 3.758 3.158 o
-5 -5 11 34.962 39.746 2.321 17.148 o
-5 -5 12 3.525 2.832 0.992 161.291 o
-5 -5 13 37.064 43.919 3.632 11.966 o
-5 -4 1 434.112 403.456 5.039 0.822 o
-5 -4 2 71.745 71.024 1.204 10.119 o
-5 -4 3 258.957 249.829 3.418 1.797 o
-5 -4 4 0.529 1.362 0.208 1035.770 o
-5 -4 5 173.551 160.888 2.153 3.309 o
-5 -4 6 220.079 211.106 3.094 2.283 o
-5 -4 7 7.692 6.025 0.483 120.361 o
-5 -4 8 663.780 660.419 10.534 0.368 o
-5 -4 9 4.804 6.451 0.601 149.053 o
-5 -4 10 3.736 2.719 0.627 213.636 o
-5 -4 11 7.054 8.459 0.947 94.674 o
-5 -4 12 5.320 2.422 0.750 161.866 o
-5 -4 13 47.454 48.873 3.672 10.387 o
-5 -3 1 29.908 26.008 0.657 29.134 o
-5 -3 2 657.264 643.647 5.222 0.412 o
-5 -3 3 43.696 48.954 0.801 17.420 o
-5 -3 4 64.084 61.114 1.004 11.852 o
-5 -3 5 65.134 64.529 1.494 11.039 o
-5 -3 6 153.982 146.164 2.222 3.821 o
-5 -3 7 311.528 307.489 4.209 1.333 o
-5 -3 8 27.577 31.064 1.224 26.717 o
-5 -3 9 50.558 50.282 1.952 13.648 o
-5 -3 10 169.479 168.474 3.975 3.007 o
-5 -3 11 38.364 40.920 1.840 17.736 o
-5 -3 12 50.806 60.810 2.969 10.823 o
-5 -3 13 0.761 1.044 1.400 158.804 o
-5 -2 1 400.384 392.585 3.840 0.929 o
-5 -2 2 189.579 201.172 2.215 2.759 o
-5 -2 3 553.805 576.460 5.310 0.527 o
-5 -2 4 1035.730 1130.570 10.984 0.169 o
-5 -2 5 11.438 6.810 0.397 89.521 o
-5 -2 6 87.879 83.235 1.552 7.927 o
-5 -2 7 30.415 30.840 0.963 26.193 o
-5 -2 8 435.947 408.523 9.927 0.699 o
-5 -2 9 46.882 49.047 4.048 9.632 o
-5 -2 10 30.227 30.465 1.955 21.819 o
-5 -2 11 34.099 34.607 3.091 14.978 o
-5 -2 12 0.047 1.744 1.334 180.368 o
-5 -2 13 2.035 2.549 1.691 98.026 o
-5 -1 1 4.733 3.066 0.263 215.986 o
-5 -1 2 125.597 133.190 1.569 4.875 o
-5 -1 3 2.628 3.560 0.292 299.086 o
-5 -1 4 595.688 619.657 6.080 0.463 o
-5 -1 5 33.386 33.039 0.749 24.576 o
-5 -1 6 128.090 130.493 2.238 4.680 o
-5 -1 7 475.409 472.784 7.467 0.653 o
-5 -1 8 66.427 61.717 1.685 10.852 o
-5 -1 9 7.785 8.763 1.169 79.949 o
-5 -1 10 333.176 317.711 11.003 0.911 o
-5 -1 11 6.029 4.306 1.545 80.631 o
-5 -1 12 132.989 137.285 4.695 3.675 o
-5 0 1 49.673 51.266 1.046 15.288 o
-5 0 2 116.388 120.929 2.154 5.248 o
-5 0 3 63.418 62.014 1.176 11.739 o
-5 0 4 42.390 45.035 0.927 18.191 o
-5 0 5 462.081 472.029 4.881 0.714 o
-5 0 6 110.928 100.804 1.674 6.041 o
-5 0 7 0.036 0.121 0.280 3536.530 o
-5 0 8 855.442 706.780 78.540 0.049 o
-5 0 9 2.685 2.245 1.242 144.349 o
-5 0 10 62.755 68.662 2.941 9.264 o
-5 0 11 5.297 6.372 2.279 49.159 o
-5 0 12 0.818 3.514 1.678 104.621 o
-5 1 1 22.097 33.900 0.991 30.679 o
-5 1 2 16.962 15.482 0.499 52.690 o
-5 1 3 2.875 1.874 0.244 351.109 o
-5 1 4 88.849 96.145 1.405 7.487 o
-5 1 5 31.800 29.299 0.751 26.520 o
-5 1 6 46.594 45.670 1.071 16.673 o
-5 1 7 227.286 221.063 8.189 1.616 o
-5 1 8 11.784 5.033 1.440 62.343 o
-5 1 9 163.769 141.265 4.403 3.200 o
-5 1 10 3.859 3.195 0.912 162.628 o
-5 1 11 9.513 11.964 1.392 60.376 o
-5 2 1 740.594 714.919 7.024 0.333 o
-5 2 2 429.658 415.047 4.390 0.831 o
-5 2 3 1219.490 1224.460 14.382 0.130 o
-5 2 4 253.037 258.648 2.848 1.840 o
-5 2 5 9.051 9.201 0.470 95.659 o
-5 2 6 273.354 262.092 4.681 1.595 o
-5 2 7 6.165 6.076 1.493 78.724 o
-5 2 8 59.238 55.731 2.602 10.798 o
-5 2 9 26.330 24.903 1.882 25.364 o
-5 2 10 27.273 34.752 3.421 14.959 o
-5 2 11 25.400 25.432 3.170 17.607 o
-5 3 1 1175.110 1141.150 11.624 0.145 o
-5 3 2 46.368 40.927 1.015 17.474 o
-5 3 3 9.848 16.123 0.595 71.299 o
-5 3 4 1052.530 1003.340 11.362 0.177 o
-5 3 5 0.304 0.903 0.390 1055.480 o
-5 3 6 115.373 107.971 4.220 4.606 o
-5 3 7 161.878 151.039 7.483 2.393 o
-5 3 8 0.879 2.755 0.865 274.494 o
-5 3 9 169.919 166.612 10.448 1.698 o
-5 3 10 41.678 45.522 2.561 14.237 o
-5 4 1 75.472 78.147 1.802 8.955 o
-5 4 2 73.460 71.271 1.578 9.647 o
-5 4 3 555.489 529.018 8.471 0.516 o
-5 4 4 408.966 412.506 7.278 0.811 o
-5 4 5 0.760 0.729 0.436 762.580 o
-5 4 6 0.028 0.233 0.685 716.769 o
-5 4 7 0.341 1.014 0.780 440.767 o
-5 4 8 120.256 107.908 4.749 4.229 o
-5 4 9 21.401 18.354 1.704 32.308 o
-5 4 10 114.256 110.227 5.574 3.943 o
-5 5 1 430.820 408.898 6.802 0.786 o
-5 5 2 141.111 151.467 3.261 3.811 o
-5 5 3 8.055 10.304 0.788 89.094 o
-5 5 4 924.923 888.379 11.834 0.217 o
-5 5 5 177.076 166.236 3.863 2.938 o
-5 5 6 75.443 74.560 2.400 8.576 o
-5 5 7 20.853 19.832 1.269 36.304 o
-5 5 8 56.132 62.503 3.042 10.027 o
-5 5 9 109.196 111.240 4.303 4.690 o
-5 6 1 4.874 5.797 0.681 146.984 o
-5 6 2 74.087 73.689 2.146 8.970 o
-5 6 3 27.891 32.542 1.901 22.649 o
-5 6 4 28.885 37.632 2.708 17.414 o
-5 6 5 281.794 262.816 8.890 1.245 o
-5 6 6 3.999 4.105 0.854 158.872 o
-5 6 7 121.106 121.700 3.916 4.410 o
-5 6 8 31.964 29.812 2.866 16.908 o
-5 7 1 245.969 245.975 4.962 1.779 o
-5 7 2 23.624 25.210 1.157 32.012 o
-5 7 3 80.830 79.166 2.109 8.232 o
-5 7 4 27.918 31.446 2.688 18.638 o
-5 7 5 9.891 7.136 1.218 72.502 o
-5 7 6 138.927 140.206 6.235 3.040 o
-5 7 7 7.726 8.837 2.378 41.157 o
-5 8 1 66.520 58.348 4.848 6.784 o
-5 8 2 27.012 29.677 2.085 22.618 o
-5 8 3 17.134 20.035 2.292 28.829 o
-5 8 4 102.693 103.892 4.021 5.154 o
-5 8 5 73.486 75.790 3.450 7.572 o
-5 8 6 12.959 16.194 2.906 25.829 o
-5 9 1 6.879 3.487 1.664 72.604 o
-5 9 2 0.725 0.872 1.506 141.695 o
-5 9 3 18.631 20.209 2.827 22.995 o
-5 9 4 12.772 23.327 3.157 21.962 o
-5 9 5 123.764 128.376 7.410 2.909 o
-5 10 1 10.221 7.265 2.140 44.230 o
-5 10 2 13.929 18.664 2.880 24.997 o
-5 10 3 4.079 4.887 2.008 63.586 o
-5 11 1 41.036 44.778 4.438 9.479 o
-5 11 2 1.322 3.091 1.968 78.843 o
-4 -12 3 58.097 67.854 4.636 7.240 o
-4 -12 4 8.829 6.895 2.061 48.732 o
-4 -12 5 0.308 1.466 1.453 152.835 o
-4 -12 6 35.658 35.743 3.738 12.374 o
-4 -12 7 1.178 1.268 1.453 141.162 o
-4 -11 1 8.760 12.746 2.417 36.973 o
-4 -11 2 111.040 118.252 4.483 4.455 o
-4 -11 3 4.130 2.370 0.985 155.611 o
-4 -11 4 18.750 19.311 2.655 24.611 o
-4 -11 5 78.353 83.553 7.331 3.892 o
-4 -11 6 16.803 19.478 2.292 29.236 o
-4 -11 7 183.141 193.791 6.392 2.251 o
-4 -11 8 70.144 67.566 2.764 8.903 o
-4 -11 9 0.928 0.327 0.824 379.862 o
-4 -11 10 0.170 -0.304 1.453 168.537 o
-4 -11 11 0.984 -0.438 1.040 272.727 o
-4 -10 1 94.845 82.702 5.217 4.944 o
-4 -10 2 20.302 16.296 1.599 35.346 o
-4 -10 3 315.686 307.702 8.014 1.126 o
-4 -10 4 26.800 29.258 2.906 18.135 o
-4 -10 5 41.434 43.565 2.640 14.235 o
-4 -10 6 33.350 31.674 1.737 21.354 o
-4 -10 7 5.886 5.068 0.878 123.148 o
-4 -10 8 14.453 16.998 1.420 44.484 o
-4 -10 9 5.339 8.092 1.343 85.739 o
-4 -10 10 3.930 2.070 0.826 185.637 o
-4 -10 11 59.184 60.834 7.093 4.650 o
-4 -9 1 81.972 78.734 3.212 7.211 o
-4 -9 2 11.497 17.280 2.272 34.521 o
-4 -9 3 0.220 -0.211 0.938 388.237 o
-4 -9 4 148.482 150.200 3.687 3.566 o
-4 -9 5 41.153 37.047 1.727 17.844 o
-4 -9 6 31.851 34.434 2.391 18.462 o
-4 -9 7 37.139 36.479 1.842 18.760 o
-4 -9 8 0.842 -0.230 0.846 390.579 o
-4 -9 9 43.878 48.407 2.224 14.456 o
-4 -9 10 51.950 58.940 2.496 11.698 o
-4 -9 11 24.149 23.130 1.637 28.977 o
-4 -9 12 191.326 214.247 9.444 1.642 o
-4 -8 1 0.676 1.416 0.483 621.149 o
-4 -8 2 1.517 3.139 0.779 260.435 o
-4 -8 3 180.963 187.808 4.646 2.613 o
-4 -8 4 14.623 17.873 1.123 47.917 o
-4 -8 5 21.673 22.780 1.325 33.557 o
-4 -8 6 22.376 25.409 1.431 31.008 o
-4 -8 7 27.837 27.196 1.539 26.031 o
-4 -8 8 36.818 38.391 2.237 17.150 o
-4 -8 9 15.011 14.093 1.227 49.067 o
-4 -8 10 42.711 46.983 2.110 15.135 o
-4 -8 11 55.558 60.253 3.138 10.033 o
-4 -8 12 0.074 0.123 1.103 290.256 o
-4 -7 1 16.205 19.047 0.592 49.845 o
-4 -7 2 216.441 194.340 3.577 2.352 o
-4 -7 3 17.084 14.137 0.893 49.860 o
-4 -7 4 279.903 272.763 4.152 1.564 o
-4 -7 5 341.934 318.532 5.006 1.169 o
-4 -7 6 51.268 56.227 1.656 13.534 o
-4 -7 7 366.334 346.224 6.232 1.010 o
-4 -7 8 162.754 162.505 3.324 3.287 o
-4 -7 9 7.383 6.882 0.930 98.656 o
-4 -7 10 81.501 84.953 2.790 7.426 o
-4 -7 11 25.406 30.155 2.140 22.881 o
-4 -7 12 73.483 78.047 3.544 7.402 o
-4 -7 13 3.451 3.038 1.638 91.752 o
-4 -6 1 0.306 0.851 0.207 1591.600 o
-4 -6 2 142.513 136.874 2.438 4.150 o
-4 -6 3 237.481 219.024 3.142 2.089 o
-4 -6 4 308.879 315.341 4.385 1.321 o
-4 -6 5 331.161 308.549 3.804 1.268 o
-4 -6 6 154.390 152.885 2.644 3.663 o
-4 -6 7 27.584 27.660 0.676 30.185 o
-4 -6 8 48.790 46.756 1.714 14.816 o
-4 -6 9 41.325 38.646 1.366 18.571 o
-4 -6 10 181.567 174.315 3.453 2.891 o
-4 -6 11 258.122 256.398 6.930 1.512 o
-4 -6 12 49.398 41.000 2.504 13.418 o
-4 -6 13 104.555 107.269 5.680 4.120 o
-4 -5 1 223.076 211.532 3.354 2.229 o
-4 -5 2 28.914 29.103 0.727 28.523 o
-4 -5 3 21.141 16.916 0.628 43.001 o
-4 -5 4 396.245 389.144 4.574 0.928 o
-4 -5 5 7.960 8.027 0.430 109.762 o
-4 -5 6 17.270 16.040 0.492 51.492 o
-4 -5 7 55.538 49.387 1.287 13.942 o
-4 -5 8 807.271 779.046 9.196 0.281 o
-4 -5 9 37.586 41.821 1.410 19.146 o
-4 -5 10 9.955 11.988 0.804 74.919 o
-4 -5 11 1.598 1.199 0.635 377.386 o
-4 -5 12 60.272 59.163 2.323 10.919 o
-4 -5 13 24.343 20.896 2.404 23.645 o
-4 -4 1 22.316 26.850 0.612 35.483 o
-4 -4 2 23.294 19.761 0.481 38.925 o
-4 -4 3 632.578 629.090 8.295 0.415 o
-4 -4 4 249.837 266.854 2.989 1.826 o
-4 -4 5 1.501 2.295 0.282 481.133 o
-4 -4 6 53.782 51.583 1.054 14.371 o
-4 -4 7 8.096 8.455 0.488 105.102 o
-4 -4 8 608.339 593.350 9.569 0.433 o
-4 -4 9 383.357 373.051 5.647 0.952 o
-4 -4 10 14.825 16.644 1.145 48.341 o
-4 -4 11 22.409 23.376 1.993 27.209 o
-4 -4 12 14.150 14.503 1.457 46.353 o
-4 -4 13 58.616 59.704 4.372 7.814 o
-4 -4 14 2.095 2.629 1.823 86.582 o
-4 -3 1 1484.710 1491.290 12.729 0.094 o
-4 -3 2 211.709 204.625 2.024 2.488 o
-4 -3 3 198.259 202.241 2.126 2.651 o
-4 -3 4 0.610 4.757 0.393 395.931 o
-4 -3 5 47.227 55.318 1.051 15.377 o
-4 -3 6 10.027 15.678 0.563 71.991 o
-4 -3 7 7.350 8.010 0.444 115.094 o
-4 -3 8 0.605 0.215 0.323 1274.640 o
-4 -3 9 75.340 75.332 1.910 9.002 o
-4 -3 10 0.072 0.634 0.514 1001.650 o
-4 -3 11 3.167 2.301 0.822 203.930 o
-4 -3 12 29.662 33.591 1.741 22.466 o
-4 -3 13 1.078 0.277 1.347 170.908 o
-4 -2 1 10.475 11.958 0.316 81.818 o
-4 -2 2 267.781 267.594 2.397 1.734 o
-4 -2 3 918.352 896.779 7.444 0.230 o
-4 -2 4 8.114 7.902 0.345 111.148 o
-4 -2 5 0.511 0.269 0.197 1791.710 o
-4 -2 6 197.764 216.423 2.658 2.526 o
-4 -2 7 116.019 104.431 1.649 5.744 o
-4 -2 8 100.795 94.918 1.806 6.638 o
-4 -2 9 10.467 11.173 1.103 66.675 o
-4 -2 10 30.478 31.139 1.856 22.076 o
-4 -2 11 33.630 36.609 2.208 18.399 o
-4 -2 12 47.294 52.938 3.520 10.521 o
-4 -2 13 22.730 33.273 3.447 15.901 o
-4 -1 1 682.956 701.520 6.516 0.371 o
-4 -1 2 655.083 708.485 5.880 0.389 o
-4 -1 3 25.105 20.213 0.526 36.388 o
-4 -1 4 161.222 149.563 1.672 3.714 o
-4 -1 5 12.873 16.886 0.580 60.297 o
-4 -1 6 317.577 287.333 3.530 1.377 o
-4 -1 7 328.074 311.515 3.832 1.273 o
-4 -1 8 31.090 25.950 2.014 22.080 o
-4 -1 9 104.430 113.356 3.745 5.097 o
-4 -1 10 39.853 36.318 2.351 16.248 o
-4 -1 11 82.032 91.524 4.834 5.497 o
-4 -1 12 71.817 75.093 3.336 7.828 o
-4 0 1 0.091 0.840 0.188 2199.190 o
-4 0 2 5.554 5.784 0.296 159.814 o
-4 0 3 614.131 656.164 6.649 0.430 o
-4 0 4 1312.420 1401.200 12.666 0.112 o
-4 0 5 0.636 3.139 0.270 572.435 o
-4 0 6 44.710 33.093 0.975 19.276 o
-4 0 7 27.180 23.150 1.444 28.254 o
-4 0 8 329.510 290.303 6.582 1.187 o
-4 0 9 286.016 257.715 8.671 1.256 o
-4 0 10 0.353 -0.296 0.755 550.565 o
-4 0 11 0.036 0.185 0.865 464.849 o
-4 0 12 33.291 36.516 2.351 17.920 o
-4 1 1 110.264 116.536 1.628 5.738 o
-4 1 2 346.022 386.593 3.943 1.081 o
-4 1 3 70.096 65.039 1.007 10.788 o
-4 1 4 367.020 392.581 4.059 1.010 o
-4 1 5 14.151 14.948 0.502 60.276 o
-4 1 6 129.573 122.753 3.536 4.328 o
-4 1 7 81.736 77.842 2.231 8.117 o
-4 1 8 0.681 0.666 0.571 622.380 o
-4 1 9 0.566 1.257 0.739 427.587 o
-4 1 10 9.806 4.266 1.176 80.758 o
-4 1 11 11.328 12.528 1.439 54.018 o
-4 2 1 311.060 300.617 3.268 1.386 o
-4 2 2 1096.360 1140.580 10.484 0.159 o
-4 2 3 1.283 2.585 0.294 488.799 o
-4 2 4 209.755 206.602 2.889 2.428 o
-4 2 5 712.632 712.643 9.213 0.337 o
-4 2 6 90.866 76.497 2.149 7.588 o
-4 2 7 41.869 43.059 1.613 17.128 o
-4 2 8 151.311 136.831 3.312 3.738 o
-4 2 9 57.465 59.084 2.653 10.725 o
-4 2 10 7.234 11.961 1.292 70.842 o
-4 2 11 0.650 2.298 1.189 194.067 o
-4 3 1 101.535 115.548 1.793 6.092 o
-4 3 2 296.021 269.080 3.218 1.535 o
-4 3 3 607.634 605.978 8.000 0.444 o
-4 3 4 37.782 36.367 1.119 20.860 o
-4 3 5 0.025 0.214 0.265 3511.530 o
-4 3 6 73.687 68.411 1.431 9.886 o
-4 3 7 97.911 85.711 2.433 6.712 o
-4 3 8 0.166 0.564 0.647 681.494 o
-4 3 9 125.600 113.005 9.332 2.355 o
-4 3 10 15.206 14.148 1.511 44.072 o
-4 3 11 88.249 83.929 4.610 5.591 o
-4 4 1 1.245 0.594 0.270 781.274 o
-4 4 2 428.172 425.552 8.217 0.742 o
-4 4 3 161.436 142.353 2.898 3.577 o
-4 4 4 1147.880 1130.570 16.044 0.143 o
-4 4 5 60.553 64.531 1.817 11.258 o
-4 4 6 189.624 175.352 3.844 2.718 o
-4 4 7 5.033 4.184 1.061 122.586 o
-4 4 8 40.705 38.085 2.174 16.419 o
-4 4 9 34.669 40.205 2.322 17.159 o
-4 4 10 67.456 67.166 3.263 8.506 o
-4 5 1 13.096 17.661 0.809 55.757 o
-4 5 2 0.354 0.168 0.252 2078.630 o
-4 5 3 86.217 78.927 2.627 7.454 o
-4 5 4 1137.550 1070.720 15.415 0.149 o
-4 5 5 106.507 110.780 2.543 5.670 o
-4 5 6 36.867 32.560 1.360 21.239 o
-4 5 7 17.948 17.473 1.265 41.219 o
-4 5 8 57.914 57.511 3.580 9.190 o
-4 5 9 3.737 3.619 1.308 115.840 o
-4 5 10 29.820 26.510 2.655 18.979 o
-4 6 1 94.241 96.226 2.130 6.800 o
-4 6 2 468.237 461.241 6.624 0.686 o
-4 6 3 96.915 87.890 2.859 6.439 o
-4 6 4 209.111 224.289 4.549 2.171 o
-4 6 5 38.067 35.361 1.612 19.435 o
-4 6 6 4.041 1.913 0.639 214.948 o
-4 6 7 1.042 0.692 0.850 337.539 o
-4 6 8 0.023 0.017 0.876 468.404 o
-4 6 9 0.480 -0.211 1.228 222.639 o
-4 7 1 258.802 245.816 5.123 1.689 o
-4 7 2 52.081 45.592 1.467 14.724 o
-4 7 3 184.409 169.261 5.588 2.502 o
-4 7 4 673.692 662.660 14.133 0.332 o
-4 7 5 319.673 305.796 7.559 1.142 o
-4 7 6 39.683 41.631 2.331 15.738 o
-4 7 7 17.639 14.834 2.708 25.797 o
-4 7 8 25.425 26.233 2.695 20.215 o
-4 8 1 195.362 194.368 8.229 1.854 o
-4 8 2 171.758 163.459 7.489 2.257 o
-4 8 3 0.437 0.502 1.334 185.781 o
-4 8 4 96.733 90.811 5.574 4.548 o
-4 8 5 4.738 7.252 1.968 60.154 o
-4 8 6 23.286 24.489 3.302 17.539 o
-4 9 1 10.874 15.071 2.457 33.271 o
-4 9 2 32.885 35.809 3.461 13.717 o
-4 9 3 19.501 20.725 2.880 22.114 o
-4 9 4 0.780 0.885 1.493 143.023 o
-4 9 5 2.100 2.523 1.849 84.869 o
-4 10 1 165.852 160.474 7.820 2.245 o
-4 10 2 30.556 31.226 3.395 14.781 o
-4 10 3 25.273 21.596 3.012 19.082 o
-4 10 4 58.269 71.341 5.297 6.323 o
-4 11 1 0.186 1.532 1.810 103.249 o
-4 11 2 4.277 5.270 2.034 61.344 o
-4 12 1 7.832 7.978 2.378 41.565 o
-3 -13 4 4.122 3.619 2.034 64.122 o
-3 -13 5 0.052 0.317 1.479 161.950 o
-3 -12 2 19.733 25.836 3.276 18.455 o
-3 -12 3 133.918 132.702 5.036 3.580 o
-3 -12 4 48.256 56.719 4.702 8.028 o
-3 -12 5 8.389 7.780 2.034 49.445 o
-3 -12 6 16.741 16.451 2.160 31.902 o
-3 -12 7 129.443 122.525 7.106 2.981 o
-3 -12 8 37.801 41.051 3.078 13.757 o
-3 -12 9 1.895 0.277 1.334 158.022 o
-3 -12 10 38.865 45.055 4.029 10.629 o
-3 -11 1 8.564 8.414 2.047 48.222 o
-3 -11 2 24.452 16.531 1.849 29.323 o
-3 -11 3 0.170 1.121 0.938 340.967 o
-3 -11 4 152.900 170.341 7.886 2.294 o
-3 -11 5 29.579 27.135 2.241 21.203 o
-3 -11 6 118.426 123.620 3.717 4.539 o
-3 -11 7 36.171 34.900 2.352 17.350 o
-3 -11 8 23.452 23.018 1.987 26.747 o
-3 -11 9 46.638 45.650 3.857 10.223 o
-3 -11 10 57.180 67.345 3.542 8.906 o
-3 -11 11 13.213 10.342 2.298 35.764 o
-3 -10 1 11.699 10.207 3.302 23.671 o
-3 -10 2 50.398 49.941 6.532 5.557 o
-3 -10 3 4.813 3.942 1.013 130.885 o
-3 -10 4 71.900 80.093 3.103 7.910 o
-3 -10 5 99.138 96.175 3.366 5.827 o
-3 -10 6 2.911 2.265 0.901 196.639 o
-3 -10 7 266.684 258.638 7.054 1.457 o
-3 -10 8 53.605 54.090 3.897 9.141 o
-3 -10 9 124.570 132.045 5.046 3.755 o
-3 -10 10 80.149 83.853 3.850 6.583 o
-3 -10 11 19.098 21.190 2.100 29.077 o
-3 -9 1 1.169 2.518 0.865 265.553 o
-3 -9 2 3.249 2.276 0.558 253.040 o
-3 -9 3 69.520 80.860 3.804 7.268 o
-3 -9 4 1.209 0.579 0.532 546.857 o
-3 -9 5 140.504 138.357 3.648 3.855 o
-3 -9 6 146.941 146.053 4.631 3.370 o
-3 -9 7 76.010 72.369 3.170 7.822 o
-3 -9 8 96.438 103.332 5.416 4.499 o
-3 -9 9 2.699 3.701 1.070 157.216 o
-3 -9 10 4.353 2.837 1.004 145.804 o
-3 -9 11 50.528 54.169 3.053 11.076 o
-3 -9 12 54.587 73.385 11.214 2.355 o
-3 -8 1 30.912 23.367 0.757 29.031 o
-3 -8 2 0.354 0.250 0.281 1808.940 o
-3 -8 3 137.206 124.412 3.633 4.087 o
-3 -8 4 640.042 659.622 11.261 0.376 o
-3 -8 5 20.698 26.639 1.687 29.780 o
-3 -8 6 69.637 70.104 2.042 9.655 o
-3 -8 7 5.615 4.893 0.752 137.070 o
-3 -8 8 85.890 82.650 3.500 6.638 o
-3 -8 9 1.451 0.244 0.784 357.922 o
-3 -8 10 0.062 0.288 0.850 468.671 o
-3 -8 11 20.953 21.258 2.206 26.906 o
-3 -8 12 193.034 201.403 6.309 2.152 o
-3 -8 13 11.333 6.723 2.100 43.908 o
-3 -7 1 21.334 15.445 0.503 44.578 o
-3 -7 2 23.841 28.365 0.705 32.887 o
-3 -7 3 0.703 0.774 0.402 828.671 o
-3 -7 4 489.759 474.873 8.025 0.623 o
-3 -7 5 0.147 0.159 0.373 1845.260 o
-3 -7 6 683.811 647.665 8.009 0.378 o
-3 -7 7 130.976 129.470 4.122 4.001 o
-3 -7 8 0.056 -0.205 0.628 888.649 o
-3 -7 9 35.862 31.619 2.086 18.984 o
-3 -7 10 5.436 5.372 1.066 112.252 o
-3 -7 11 292.435 288.689 7.675 1.252 o
-3 -7 12 45.576 49.206 5.000 7.913 o
-3 -7 13 92.220 103.095 5.693 4.434 o
-3 -6 1 105.378 111.241 1.515 6.108 o
-3 -6 2 56.009 46.007 1.324 14.123 o
-3 -6 3 2.400 0.068 0.286 517.328 o
-3 -6 4 663.522 662.981 7.885 0.386 o
-3 -6 5 308.411 277.245 3.969 1.423 o
-3 -6 6 68.704 66.672 1.369 10.587 o
-3 -6 7 42.021 34.726 1.205 19.396 o
-3 -6 8 118.864 117.393 2.933 4.941 o
-3 -6 9 35.334 43.554 2.100 17.345 o
-3 -6 10 211.427 215.684 6.059 1.995 o
-3 -6 11 3.594 4.750 1.046 138.135 o
-3 -6 12 70.355 68.720 3.215 8.292 o
-3 -6 13 108.208 107.150 5.627 4.072 o
-3 -5 1 29.342 45.777 1.001 22.759 o
-3 -5 2 79.688 76.455 1.930 8.569 o
-3 -5 3 141.114 128.204 2.797 4.202 o
-3 -5 4 178.066 173.946 2.758 3.048 o
-3 -5 5 1.078 2.292 0.191 602.501 o
-3 -5 6 155.414 177.770 5.211 2.865 o
-3 -5 7 50.848 49.986 1.416 14.612 o
-3 -5 8 841.013 797.250 12.233 0.253 o
-3 -5 9 261.281 256.431 5.133 1.644 o
-3 -5 10 0.450 0.459 0.509 842.188 o
-3 -5 11 127.239 127.815 8.559 2.508 o
-3 -5 12 108.694 111.865 5.468 4.092 o
-3 -5 13 0.253 -0.271 0.966 364.201 o
-3 -5 14 32.799 41.634 4.015 11.519 o
-3 -4 1 6.625 8.861 0.498 116.197 o
-3 -4 2 181.321 176.881 2.575 3.002 o
-3 -4 3 89.326 79.409 1.348 8.066 o
-3 -4 4 14.329 14.239 0.369 61.972 o
-3 -4 5 36.625 30.295 0.793 23.526 o
-3 -4 6 0.648 0.983 0.214 1083.490 o
-3 -4 7 0.954 1.516 0.311 682.650 o
-3 -4 8 47.544 50.471 1.378 15.335 o
-3 -4 9 141.140 140.871 3.244 3.930 o
-3 -4 10 254.020 253.794 8.784 1.369 o
-3 -4 11 144.762 155.839 6.974 2.662 o
-3 -4 12 136.619 142.213 3.792 3.852 o
-3 -4 13 55.209 62.629 8.374 3.752 o
-3 -3 1 218.095 185.760 2.267 2.504 o
-3 -3 2 300.829 300.545 3.123 1.438 o
-3 -3 3 57.564 49.644 0.825 14.055 o
-3 -3 4 4.250 2.996 0.286 232.977 o
-3 -3 5 47.515 63.639 1.106 14.356 o
-3 -3 6 58.312 49.786 1.016 13.713 o
-3 -3 7 0.109 -0.108 0.226 4627.160 o
-3 -3 8 925.121 911.151 10.950 0.217 o
-3 -3 9 32.298 33.410 1.424 22.755 o
-3 -3 10 74.196 72.034 2.830 8.328 o
-3 -3 11 31.023 34.904 2.542 17.953 o
-3 -3 12 32.001 25.159 2.708 18.265 o
-3 -3 13 1.362 2.297 1.015 217.469 o
-3 -2 1 11.819 10.450 0.296 79.142 o
-3 -2 2 1.723 0.601 0.111 688.502 o
-3 -2 3 243.270 251.785 2.825 1.936 o
-3 -2 4 81.101 100.915 1.516 7.800 o
-3 -2 5 476.478 509.424 5.562 0.655 o
-3 -2 6 115.580 125.671 1.774 5.305 o
-3 -2 7 498.621 511.938 5.705 0.622 o
-3 -2 8 427.841 412.029 5.007 0.826 o
-3 -2 9 561.950 555.012 7.891 0.504 o
-3 -2 10 330.100 335.100 5.431 1.164 o
-3 -2 11 0.027 -0.054 0.569 1099.820 o
-3 -2 12 28.198 32.166 2.183 21.085 o
-3 -2 13 14.294 18.017 2.747 26.323 o
-3 -1 1 416.431 398.977 3.480 0.890 o
-3 -1 2 1.474 0.807 0.121 737.621 o
-3 -1 3 313.089 303.319 3.190 1.373 o
-3 -1 4 942.224 1057.930 10.412 0.196 o
-3 -1 5 104.971 79.022 1.219 7.082 o
-3 -1 6 65.468 59.571 1.107 11.681 o
-3 -1 7 49.823 54.059 1.121 14.849 o
-3 -1 8 1000.840 1018.950 13.033 0.182 o
-3 -1 9 154.445 156.934 5.255 3.004 o
-3 -1 10 85.555 84.391 3.317 6.765 o
-3 -1 11 0.311 0.333 1.057 293.321 o
-3 -1 12 25.971 28.203 2.069 23.509 o
-3 0 1 1893.550 1930.330 16.870 0.059 o
-3 0 2 11.830 10.710 0.355 77.828 o
-3 0 3 303.903 325.939 3.774 1.344 o
-3 0 4 654.876 691.193 6.499 0.391 o
-3 0 5 566.494 697.902 10.026 0.421 o
-3 0 6 342.586 348.631 6.840 1.048 o
-3 0 7 482.976 484.290 6.175 0.655 o
-3 0 8 21.862 25.335 1.289 32.538 o
-3 0 9 4.336 3.756 0.653 179.323 o
-3 0 10 0.761 1.205 1.030 257.863 o
-3 0 11 15.662 19.918 2.444 28.201 o
-3 0 12 40.401 43.906 2.558 14.645 o
-3 1 1 2271.230 2323.900 19.025 0.042 o
-3 1 2 2.225 1.986 0.185 424.216 o
-3 1 3 2.857 2.043 0.216 349.699 o
-3 1 4 119.628 160.506 2.190 4.501 o
-3 1 5 164.037 170.397 6.941 2.412 o
-3 1 6 151.085 128.311 2.491 4.035 o
-3 1 7 2.641 0.991 0.374 386.099 o
-3 1 8 155.036 143.123 3.694 3.509 o
-3 1 9 3.075 1.370 0.657 260.637 o
-3 1 10 83.710 77.893 4.848 5.667 o
-3 1 11 2.881 3.097 0.950 178.320 o
-3 1 12 2.405 2.153 1.215 153.450 o
-3 2 1 1074.180 1025.450 14.995 0.164 o
-3 2 2 521.633 534.853 5.563 0.582 o
-3 2 3 0.062 0.226 0.245 3483.470 o
-3 2 4 775.337 791.138 8.044 0.296 o
-3 2 5 90.467 131.782 1.858 6.207 o
-3 2 6 150.316 175.298 2.803 3.494 o
-3 2 7 100.655 97.116 2.486 6.256 o
-3 2 8 253.546 232.589 4.611 1.803 o
-3 2 9 62.384 52.795 2.481 10.800 o
-3 2 10 23.131 18.826 2.516 23.819 o
-3 2 11 2.576 3.744 0.987 171.848 o
-3 3 1 271.258 301.058 5.880 1.431 o
-3 3 2 4.961 0.885 0.476 225.068 o
-3 3 3 0.564 5.766 0.497 322.121 o
-3 3 4 320.311 340.118 6.580 1.137 o
-3 3 5 53.088 53.318 1.231 14.112 o
-3 3 6 95.540 81.275 3.378 6.301 o
-3 3 7 62.734 58.497 1.858 11.314 o
-3 3 8 11.938 11.553 1.207 59.119 o
-3 3 9 38.559 32.511 2.754 15.539 o
-3 3 10 38.681 47.112 2.501 14.842 o
-3 3 11 35.843 38.926 2.985 14.611 o
-3 4 1 51.485 37.481 1.046 16.507 o
-3 4 2 17.473 12.454 0.602 54.034 o
-3 4 3 9.797 10.431 0.546 85.572 o
-3 4 4 229.961 202.589 3.465 2.197 o
-3 4 5 107.790 107.249 1.854 5.974 o
-3 4 6 0.177 0.125 0.174 3980.950 o
-3 4 7 207.720 204.399 4.750 2.245 o
-3 4 8 1.215 0.740 0.819 338.129 o
-3 4 9 164.932 169.575 6.578 2.488 o
-3 4 10 2.454 1.585 1.030 192.052 o
-3 4 11 77.254 76.439 4.346 6.420 o
-3 5 1 28.804 32.009 0.836 27.269 o
-3 5 2 4.196 2.050 0.330 250.650 o
-3 5 3 398.716 399.378 5.401 0.892 o
-3 5 4 34.201 40.698 1.116 21.433 o
-3 5 5 0.300 0.614 0.352 1307.010 o
-3 5 6 149.854 139.816 2.745 3.875 o
-3 5 7 2.518 1.645 0.530 320.249 o
-3 5 8 33.920 32.826 2.063 19.517 o
-3 5 9 0.705 0.297 0.919 342.322 o
-3 5 10 136.793 149.629 6.472 2.933 o
-3 6 1 330.159 319.949 4.018 1.243 o
-3 6 2 241.095 241.206 3.170 1.970 o
-3 6 3 2.193 0.891 0.464 408.760 o
-3 6 4 1219.390 1277.820 16.001 0.125 o
-3 6 5 114.937 121.005 3.068 4.954 o
-3 6 6 0.041 -0.010 0.640 863.034 o
-3 6 7 0.013 -0.114 0.768 612.553 o
-3 6 8 9.188 13.254 1.507 56.429 o
-3 6 9 75.835 85.104 4.623 6.030 o
-3 7 1 25.130 28.034 1.030 30.399 o
-3 7 2 42.530 43.495 2.556 14.283 o
-3 7 3 207.583 216.076 17.053 0.837 o
-3 7 4 98.316 99.515 5.508 4.444 o
-3 7 5 574.047 562.193 17.647 0.367 o
-3 7 6 108.263 126.118 6.763 3.372 o
-3 7 7 48.065 60.496 4.716 7.902 o
-3 7 8 46.358 51.633 3.527 10.676 o
-3 8 1 81.567 86.463 3.357 6.888 o
-3 8 2 47.636 46.926 2.364 13.552 o
-3 8 3 67.329 67.167 4.465 6.993 o
-3 8 4 9.176 14.384 2.325 37.357 o
-3 8 5 38.664 42.057 3.791 11.439 o
-3 8 6 1.250 2.404 1.664 106.950 o
-3 8 7 5.747 7.846 2.140 51.232 o
-3 9 1 25.156 24.899 2.655 20.787 o
-3 9 2 6.595 6.697 1.678 67.302 o
-3 9 3 3.884 2.800 1.400 109.481 o
-3 9 4 94.671 96.411 5.825 4.374 o
-3 9 5 39.125 36.179 3.712 11.969 o
-3 9 6 8.728 12.535 2.615 33.681 o
-3 10 1 34.668 37.962 3.461 13.260 o
-3 10 2 43.176 41.000 3.685 11.251 o
-3 10 3 4.569 5.534 1.796 70.928 o
-3 10 4 31.389 31.688 3.500 14.169 o
-3 10 5 15.972 16.841 3.038 23.004 o
-3 11 1 14.540 13.552 2.338 32.558 o
-3 11 2 0.203 0.845 1.611 131.754 o
-3 11 3 0.917 0.594 1.678 116.272 o
-3 12 1 60.479 64.578 4.821 6.959 o
-3 12 2 5.757 4.544 1.955 61.582 o
-2 -13 3 285.429 314.581 12.231 0.942 o
-2 -13 4 121.439 102.817 6.406 3.501 o
-2 -13 5 6.708 6.855 2.325 45.179 o
-2 -13 6 34.559 30.459 3.778 12.763 o
-2 -13 8 108.859 104.006 6.102 3.849 o
-2 -13 9 123.918 124.374 6.908 3.110 o
-2 -12 1 6.343 9.576 2.312 44.060 o
-2 -12 2 26.584 30.706 2.417 20.659 o
-2 -12 3 157.747 162.745 9.068 2.029 o
-2 -12 4 224.776 229.227 9.682 1.438 o
-2 -12 5 1.303 4.253 1.744 92.715 o
-2 -12 6 69.412 75.168 3.520 7.771 o
-2 -12 7 219.970 213.016 6.565 1.880 o
-2 -12 8 22.058 20.419 2.011 28.200 o
-2 -12 9 10.494 12.456 2.430 35.186 o
-2 -12 10 15.605 18.030 2.866 24.476 o
-2 -11 1 80.508 77.104 3.476 7.092 o
-2 -11 2 3.015 2.748 1.042 164.359 o
-2 -11 3 36.611 35.901 2.423 16.831 o
-2 -11 4 21.612 23.817 1.838 28.872 o
-2 -11 5 125.137 133.766 4.576 3.910 o
-2 -11 6 76.487 73.754 4.015 6.856 o
-2 -11 7 11.707 12.010 1.503 52.292 o
-2 -11 8 0.385 0.251 1.308 197.384 o
-2 -11 9 228.090 223.928 6.871 1.759 o
-2 -11 10 3.226 7.111 1.487 91.717 o
-2 -11 11 101.812 98.974 6.274 3.940 o
-2 -10 1 21.323 20.408 1.734 31.249 o
-2 -10 2 1.753 3.708 1.266 143.765 o
-2 -10 3 6.750 7.918 1.078 92.004 o
-2 -10 4 230.182 229.355 6.144 1.813 o
-2 -10 5 39.303 37.382 2.234 16.653 o
-2 -10 6 123.328 131.246 4.532 3.992 o
-2 -10 7 188.020 191.925 5.841 2.313 o
-2 -10 8 0.005 0.951 1.044 299.891 o
-2 -10 9 0.386 -0.702 0.900 399.623 o
-2 -10 10 151.197 146.495 5.337 3.099 o
-2 -10 11 0.316 0.304 1.013 316.963 o
-2 -9 1 0.635 -0.080 0.341 1309.030 o
-2 -9 2 34.874 26.945 1.731 21.718 o
-2 -9 3 99.679 98.360 2.367 6.336 o
-2 -9 4 38.194 37.020 1.714 18.782 o
-2 -9 5 60.443 62.322 3.329 9.173 o
-2 -9 6 31.341 32.117 2.059 20.556 o
-2 -9 7 139.058 136.328 6.261 3.056 o
-2 -9 8 108.191 106.844 4.091 4.895 o
-2 -9 9 0.268 0.783 0.820 431.957 o
-2 -9 10 58.457 54.849 3.017 10.225 o
-2 -9 11 256.377 257.303 13.935 0.942 o
-2 -9 12 2.622 2.100 1.200 152.624 o
-2 -9 13 34.671 36.905 3.791 12.263 o
-2 -8 1 9.641 5.879 0.639 98.261 o
-2 -8 2 50.562 43.796 1.517 15.147 o
-2 -8 3 0.003 0.152 0.276 3765.690 o
-2 -8 4 187.287 200.159 3.502 2.646 o
-2 -8 5 548.096 536.839 7.830 0.527 o
-2 -8 6 88.999 87.405 1.968 7.470 o
-2 -8 7 385.235 366.463 8.645 0.859 o
-2 -8 8 8.571 5.828 1.083 87.163 o
-2 -8 9 28.822 30.519 2.219 20.968 o
-2 -8 10 324.174 301.214 7.975 1.113 o
-2 -8 11 1.491 2.950 1.130 178.498 o
-2 -8 12 352.219 335.813 8.843 0.953 o
-2 -8 13 2.623 7.938 1.942 66.409 o
-2 -7 1 0.543 0.173 0.236 1687.980 o
-2 -7 2 247.324 265.587 7.354 1.503 o
-2 -7 3 876.849 870.170 12.538 0.230 o
-2 -7 4 109.552 96.576 1.733 6.183 o
-2 -7 5 415.270 390.539 5.404 0.866 o
-2 -7 6 228.163 214.449 4.887 2.018 o
-2 -7 7 7.814 8.403 1.305 75.064 o
-2 -7 8 382.685 364.827 6.628 0.934 o
-2 -7 9 11.349 12.250 3.560 20.998 o
-2 -7 10 287.589 271.994 12.819 0.943 o
-2 -7 11 313.448 303.518 13.783 0.817 o
-2 -7 12 24.874 29.205 2.959 18.396 o
-2 -7 13 92.841 101.193 5.667 4.458 o
-2 -6 1 227.513 242.798 3.946 2.008 o
-2 -6 2 135.583 125.407 2.854 4.364 o
-2 -6 3 0.357 0.882 0.149 1614.770 o
-2 -6 4 2470.570 2482.360 29.168 0.035 o
-2 -6 5 65.042 74.834 3.811 7.708 o
-2 -6 6 82.197 73.011 1.997 8.453 o
-2 -6 7 12.945 10.930 0.854 64.769 o
-2 -6 8 418.135 380.222 6.796 0.837 o
-2 -6 9 372.214 349.160 8.966 0.890 o
-2 -6 10 74.111 85.440 3.476 7.219 o
-2 -6 11 29.884 30.618 2.840 17.455 o
-2 -6 12 51.248 48.740 3.527 10.314 o
-2 -6 13 19.759 25.665 3.144 19.304 o
-2 -5 1 9.010 7.855 0.367 103.244 o
-2 -5 2 338.299 352.557 6.843 1.054 o
-2 -5 3 511.307 496.404 7.490 0.592 o
-2 -5 4 502.081 509.534 9.898 0.557 o
-2 -5 5 103.128 114.092 2.177 5.902 o
-2 -5 6 63.982 69.471 1.691 10.673 o
-2 -5 7 416.457 411.850 6.090 0.826 o
-2 -5 8 173.588 187.607 4.070 2.805 o
-2 -5 9 2.609 3.643 0.641 234.952 o
-2 -5 10 155.319 157.713 6.552 2.653 o
-2 -5 11 274.240 278.877 8.038 1.308 o
-2 -5 12 0.292 0.830 0.971 323.589 o
-2 -5 13 164.015 182.559 8.427 2.053 o
-2 -4 1 2375.310 2476.810 25.507 0.037 o
-2 -4 2 391.997 370.814 4.477 0.963 o
-2 -4 3 77.052 78.330 1.268 9.175 o
-2 -4 4 3.010 1.050 0.210 383.367 o
-2 -4 5 208.868 240.608 5.790 1.959 o
-2 -4 6 19.431 13.560 0.830 46.786 o
-2 -4 7 0.306 0.316 0.290 1802.090 o
-2 -4 8 692.599 674.850 10.532 0.348 o
-2 -4 9 98.344 94.041 3.675 5.702 o
-2 -4 10 363.739 361.626 8.300 0.921 o
-2 -4 11 5.315 6.156 1.047 111.193 o
-2 -4 12 205.619 204.221 8.705 1.700 o
-2 -4 13 5.547 5.653 1.823 66.161 o
-2 -3 1 314.440 377.875 3.831 1.201 o
-2 -3 2 1.391 1.498 0.170 633.036 o
-2 -3 3 117.880 112.465 2.979 5.034 o
-2 -3 4 594.073 611.389 9.981 0.433 o
-2 -3 5 122.867 136.499 2.646 4.626 o
-2 -3 6 79.920 76.836 1.616 8.764 o
-2 -3 7 130.354 136.882 3.763 4.058 o
-2 -3 8 1144.110 1121.520 16.017 0.144 o
-2 -3 9 194.010 181.616 3.209 2.716 o
-2 -3 10 30.867 30.461 1.764 22.510 o
-2 -3 11 173.527 171.094 4.844 2.761 o
-2 -3 12 0.442 0.476 1.202 224.482 o
-2 -3 13 38.097 41.925 2.712 14.809 o
-2 -2 1 101.649 96.886 2.204 6.358 o
-2 -2 2 68.744 68.295 0.963 10.782 o
-2 -2 3 938.693 982.359 17.840 0.184 o
-2 -2 4 0.547 0.507 0.171 1562.210 o
-2 -2 5 47.700 47.632 1.122 16.065 o
-2 -2 6 161.460 176.194 4.618 2.931 o
-2 -2 7 276.830 274.116 4.001 1.585 o
-2 -2 8 120.997 116.773 2.177 5.150 o
-2 -2 9 1053.040 1039.950 14.030 0.168 o
-2 -2 10 46.853 46.687 2.721 12.832 o
-2 -2 11 39.534 37.909 3.157 13.477 o
-2 -2 12 250.711 276.180 7.463 1.454 o
-2 -2 13 24.524 22.876 2.053 25.677 o
-2 -1 1 60.549 60.714 0.651 12.665 o
-2 -1 2 55.467 74.859 1.035 12.083 o
-2 -1 3 50.706 40.165 0.729 16.790 o
-2 -1 4 402.005 421.431 5.219 0.865 o
-2 -1 5 66.634 52.157 1.107 12.048 o
-2 -1 6 74.531 64.634 1.062 10.256 o
-2 -1 7 458.089 427.552 5.455 0.748 o
-2 -1 8 531.035 511.226 8.125 0.553 o
-2 -1 9 307.758 289.023 6.367 1.277 o
-2 -1 10 24.594 26.861 1.854 25.969 o
-2 -1 11 23.044 24.337 1.882 27.414 o
-2 -1 12 24.874 27.335 2.061 24.289 o
-2 0 1 227.651 210.323 2.246 2.279 o
-2 0 2 2302.850 2304.610 20.011 0.041 o
-2 0 3 2.692 2.457 0.162 352.951 o
-2 0 4 3.022 0.614 0.196 408.558 o
-2 0 5 124.130 131.132 2.226 4.794 o
-2 0 6 543.068 579.577 7.737 0.512 o
-2 0 7 251.770 267.556 4.283 1.730 o
-2 0 8 13.301 14.785 0.943 56.737 o
-2 0 9 147.285 151.147 5.805 2.988 o
-2 0 10 1.457 0.931 0.730 355.269 o
-2 0 11 188.406 196.431 5.751 2.304 o
-2 0 12 83.877 82.374 4.432 5.933 o
-2 1 1 9.731 8.845 0.274 95.897 o
-2 1 2 1547.500 1517.330 17.676 0.085 o
-2 1 3 321.818 287.510 3.834 1.347 o
-2 1 4 1858.440 2134.400 24.700 0.054 o
-2 1 5 211.684 191.492 2.769 2.500 o
-2 1 6 154.975 149.192 2.582 3.701 o
-2 1 7 61.786 59.199 1.435 11.912 o
-2 1 8 237.398 224.909 5.180 1.883 o
-2 1 9 80.589 86.293 3.215 7.072 o
-2 1 10 100.827 106.765 7.344 3.361 o
-2 1 11 26.310 25.979 1.900 24.973 o
-2 1 12 34.859 31.754 2.800 16.269 o
-2 2 1 880.978 914.174 15.350 0.213 o
-2 2 2 167.162 209.107 4.775 2.626 o
-2 2 3 690.332 775.417 18.076 0.272 o
-2 2 4 1614.460 1616.280 17.028 0.079 o
-2 2 5 1056.420 1210.530 14.742 0.152 o
-2 2 6 46.775 44.674 1.242 16.456 o
-2 2 7 18.761 15.008 0.946 45.487 o
-2 2 8 69.196 82.024 2.990 8.155 o
-2 2 9 79.999 81.171 3.094 7.365 o
-2 2 10 3.207 3.308 0.909 175.248 o
-2 2 11 153.411 148.580 4.824 3.193 o
-2 2 12 81.204 84.259 4.570 5.881 o
-2 3 1 743.682 761.704 11.809 0.297 o
-2 3 2 370.620 385.128 4.531 0.999 o
-2 3 3 91.522 124.686 2.100 6.224 o
-2 3 4 144.199 169.647 2.678 3.693 o
-2 3 5 105.687 101.233 1.439 6.360 o
-2 3 6 25.521 22.556 0.881 33.157 o
-2 3 7 26.893 28.847 2.146 22.483 o
-2 3 8 53.791 52.465 2.985 10.928 o
-2 3 9 394.998 378.789 11.399 0.735 o
-2 3 10 26.137 29.033 2.364 21.446 o
-2 3 11 4.955 5.495 1.308 98.177 o
-2 4 1 4.625 0.860 0.307 261.075 o
-2 4 2 309.477 332.656 4.188 1.292 o
-2 4 3 202.666 218.764 3.059 2.422 o
-2 4 4 267.427 285.247 3.818 1.616 o
-2 4 5 2.512 1.918 0.299 371.987 o
-2 4 6 17.206 17.314 0.501 50.266 o
-2 4 7 9.600 10.721 0.812 79.098 o
-2 4 8 73.981 78.142 3.903 6.990 o
-2 4 9 81.085 80.703 3.215 7.203 o
-2 4 10 93.926 81.802 5.601 4.715 o
-2 4 11 43.405 54.803 3.527 10.826 o
-2 5 1 303.499 347.724 4.972 1.254 o
-2 5 2 692.866 681.485 10.281 0.348 o
-2 5 3 39.896 39.222 1.132 19.532 o
-2 5 4 119.571 129.108 2.681 4.826 o
-2 5 5 30.277 30.241 0.921 26.605 o
-2 5 6 21.148 19.376 1.058 38.099 o
-2 5 7 4.695 5.927 0.963 125.044 o
-2 5 8 1.733 0.401 0.692 373.903 o
-2 5 9 0.823 1.427 0.850 326.093 o
-2 5 10 57.643 54.196 3.487 9.515 o
-2 6 1 360.491 369.838 5.485 1.019 o
-2 6 2 3.549 1.102 0.647 247.328 o
-2 6 3 105.856 106.105 2.906 5.617 o
-2 6 4 677.349 677.536 10.580 0.355 o
-2 6 5 147.564 152.990 3.401 3.630 o
-2 6 6 0.100 -0.001 0.692 721.039 o
-2 6 7 3.138 3.528 0.901 175.479 o
-2 6 8 42.342 45.019 2.827 13.412 o
-2 6 9 88.300 89.014 4.597 5.509 o
-2 7 1 103.245 98.918 1.981 6.333 o
-2 7 2 206.025 215.649 4.297 2.267 o
-2 7 3 61.894 56.285 2.342 10.867 o
-2 7 4 186.664 190.611 5.192 2.443 o
-2 7 5 98.903 98.165 4.531 5.054 o
-2 7 6 0.072 -0.264 1.400 183.505 o
-2 7 7 26.337 33.762 3.500 14.894 o
-2 7 8 43.484 52.888 4.531 8.786 o
-2 8 1 188.027 190.510 4.308 2.575 o
-2 8 2 1.026 1.330 0.621 445.430 o
-2 8 3 2.595 1.506 1.215 155.717 o
-2 8 4 147.347 148.177 4.569 3.364 o
-2 8 5 174.598 191.422 8.440 1.953 o
-2 8 6 0.017 -0.291 1.664 130.872 o
-2 8 7 4.890 4.702 1.981 62.679 o
-2 9 1 21.362 18.189 2.179 27.823 o
-2 9 2 22.785 23.380 2.589 22.433 o
-2 9 3 79.614 78.606 4.874 5.781 o
-2 9 4 0.706 -0.251 1.123 252.184 o
-2 9 5 303.878 314.356 11.967 0.921 o
-2 9 6 97.089 99.225 6.182 4.081 o
-2 10 1 3.217 6.525 1.678 81.016 o
-2 10 2 1.110 3.104 1.413 135.674 o
-2 10 3 60.193 65.806 4.557 7.288 o
-2 10 5 48.106 52.756 4.544 8.441 o
-2 11 1 8.092 8.810 1.942 51.619 o
-2 11 2 10.211 8.771 2.127 43.462 o
-2 11 3 3.721 4.399 1.717 81.223 o
-2 11 4 83.177 91.603 5.931 4.634 o
-2 12 1 0.507 -0.528 1.493 154.077 o
-2 12 2 24.834 29.324 3.289 16.651 o
-1 -13 2 19.956 23.551 3.064 20.100 o
-1 -13 3 223.753 220.957 9.946 1.429 o
-1 -13 4 0.023 0.951 1.519 149.179 o
-1 -13 5 33.751 28.069 3.368 14.587 o
-1 -13 6 223.843 234.617 7.133 1.722 o
-1 -13 7 6.181 4.874 1.757 68.300 o
-1 -13 8 84.168 93.888 5.865 4.627 o
-1 -12 1 50.933 48.340 5.396 7.023 o
-1 -12 2 95.459 94.377 5.772 4.411 o
-1 -12 3 48.063 42.308 3.857 10.247 o
-1 -12 4 152.864 156.016 5.192 3.048 o
-1 -12 5 77.007 81.568 3.674 6.969 o
-1 -12 6 4.673 5.302 1.810 70.317 o
-1 -12 7 89.420 91.366 4.057 5.837 o
-1 -12 8 1.954 1.810 1.059 196.081 o
-1 -12 9 63.827 60.403 3.423 8.830 o
-1 -12 10 92.257 101.510 6.380 4.041 o
-1 -11 1 16.490 19.325 2.681 25.488 o
-1 -11 2 226.954 230.203 9.312 1.468 o
-1 -11 3 498.976 516.761 11.278 0.533 o
-1 -11 4 296.417 310.517 7.860 1.190 o
-1 -11 5 14.329 14.502 1.574 44.073 o
-1 -11 6 33.935 36.075 3.130 14.718 o
-1 -11 7 13.140 12.426 3.177 23.840 o
-1 -11 8 90.135 91.246 5.468 4.782 o
-1 -11 9 91.789 86.584 4.319 5.638 o
-1 -11 10 55.698 56.976 3.312 9.875 o
-1 -10 1 65.571 76.657 2.922 8.713 o
-1 -10 2 6.247 6.252 0.977 107.271 o
-1 -10 3 1.196 0.887 0.513 533.671 o
-1 -10 4 816.829 823.003 13.104 0.253 o
-1 -10 5 204.691 204.845 4.365 2.321 o
-1 -10 6 43.365 42.588 1.749 16.447 o
-1 -10 7 30.505 31.569 2.946 16.691 o
-1 -10 8 13.507 10.159 1.479 51.037 o
-1 -10 9 156.443 160.519 7.714 2.345 o
-1 -10 10 32.971 38.548 2.657 16.492 o
-1 -10 11 8.686 10.168 1.968 48.536 o
-1 -10 12 36.218 47.789 4.293 10.104 o
-1 -9 1 0.366 0.081 0.409 1345.060 o
-1 -9 2 109.176 116.807 4.141 4.695 o
-1 -9 3 26.989 24.085 0.937 30.962 o
-1 -9 4 1.805 2.228 0.381 407.973 o
-1 -9 5 1.615 2.492 0.475 380.187 o
-1 -9 6 121.403 118.331 7.212 3.068 o
-1 -9 7 21.090 18.335 1.067 38.713 o
-1 -9 8 51.304 53.595 1.996 13.146 o
-1 -9 9 257.455 237.885 5.422 1.695 o
-1 -9 10 4.555 5.446 0.884 136.635 o
-1 -9 11 47.450 46.265 2.149 14.160 o
-1 -9 12 49.634 54.764 3.199 10.843 o
-1 -9 13 20.669 17.898 2.655 24.038 o
-1 -8 1 191.123 187.020 6.023 2.276 o
-1 -8 2 30.673 26.767 1.090 26.751 o
-1 -8 3 23.855 24.557 0.895 33.691 o
-1 -8 4 323.100 296.424 4.483 1.298 o
-1 -8 5 130.846 125.759 2.006 4.728 o
-1 -8 6 616.098 606.417 8.072 0.436 o
-1 -8 7 418.766 421.574 6.906 0.794 o
-1 -8 8 12.564 10.284 0.785 68.534 o
-1 -8 9 1.382 0.071 0.524 571.519 o
-1 -8 10 240.964 221.976 5.075 1.880 o
-1 -8 11 15.530 13.702 1.228 48.458 o
-1 -8 12 50.258 54.004 2.806 11.632 o
-1 -8 13 11.033 12.297 2.153 39.579 o
-1 -7 1 35.907 36.617 0.982 21.936 o
-1 -7 2 27.641 23.742 0.937 30.585 o
-1 -7 3 491.850 475.284 6.399 0.646 o
-1 -7 4 935.943 935.427 10.284 0.213 o
-1 -7 5 148.825 134.147 2.007 4.119 o
-1 -7 6 70.795 74.236 1.774 9.597 o
-1 -7 7 22.571 22.596 0.995 35.276 o
-1 -7 8 680.470 657.759 14.970 0.323 o
-1 -7 9 0.384 1.088 0.468 798.041 o
-1 -7 10 14.571 15.985 1.251 47.763 o
-1 -7 11 0.887 1.456 0.977 265.769 o
-1 -7 12 42.598 45.468 2.145 15.227 o
-1 -6 1 38.983 47.467 1.262 18.189 o
-1 -6 2 62.878 70.289 2.028 10.371 o
-1 -6 3 9.964 8.074 0.456 93.647 o
-1 -6 4 731.518 779.899 9.495 0.311 o
-1 -6 5 79.804 86.787 2.000 8.106 o
-1 -6 6 516.163 510.365 8.248 0.568 o
-1 -6 7 574.143 587.212 12.623 0.425 o
-1 -6 8 0.028 0.775 0.408 1335.220 o
-1 -6 9 15.016 19.870 1.424 41.540 o
-1 -6 10 7.448 10.075 1.684 59.552 o
-1 -6 11 99.240 101.966 3.143 5.839 o
-1 -6 12 228.296 242.543 5.499 1.853 o
-1 -6 13 38.644 56.494 4.663 8.747 o
-1 -5 1 28.577 26.234 0.656 30.037 o
-1 -5 2 701.154 706.448 10.032 0.339 o
-1 -5 3 139.689 133.053 1.642 4.439 o
-1 -5 4 731.469 770.695 9.456 0.313 o
-1 -5 5 752.376 699.509 8.994 0.322 o
-1 -5 6 186.259 192.027 3.281 2.738 o
-1 -5 7 2.204 1.430 0.340 422.009 o
-1 -5 8 148.438 168.541 3.729 3.391 o
-1 -5 9 12.902 14.888 0.869 58.855 o
-1 -5 10 191.531 196.734 5.654 2.291 o
-1 -5 11 64.193 71.176 2.512 9.587 o
-1 -5 12 107.262 107.978 4.210 4.841 o
-1 -5 13 253.972 257.202 10.541 1.208 o
-1 -4 1 575.786 557.467 7.504 0.495 o
-1 -4 2 32.599 43.652 0.752 22.384 o
-1 -4 3 868.244 852.334 10.139 0.244 o
-1 -4 4 2018.350 2071.040 21.750 0.051 o
-1 -4 5 95.281 90.097 1.663 7.155 o
-1 -4 6 895.373 857.296 14.174 0.221 o
-1 -4 7 187.389 215.252 6.342 2.137 o
-1 -4 8 213.873 234.219 3.940 2.154 o
-1 -4 9 65.414 59.273 1.706 11.107 o
-1 -4 10 62.444 67.103 2.309 10.238 o
-1 -4 11 237.072 238.456 5.132 1.845 o
-1 -4 12 60.773 53.456 4.095 8.296 o
-1 -4 13 0.291 0.277 1.334 192.228 o
-1 -3 1 6.918 9.464 0.287 116.425 o
-1 -3 2 192.460 197.133 3.302 2.629 o
-1 -3 3 168.732 175.865 2.498 3.217 o
-1 -3 4 567.773 515.425 5.463 0.542 o
-1 -3 5 3294.370 3420.290 35.431 0.020 o
-1 -3 6 55.424 60.890 2.139 11.720 o
-1 -3 7 97.767 110.249 2.015 6.309 o
-1 -3 8 315.433 315.263 4.828 1.276 o
-1 -3 9 93.246 91.229 3.359 6.192 o
-1 -3 10 621.265 604.552 9.944 0.417 o
-1 -3 11 76.547 78.964 3.352 7.390 o
-1 -3 12 68.703 60.021 4.227 7.406 o
-1 -3 13 48.635 50.841 4.015 9.469 o
-1 -2 1 661.076 668.266 11.883 0.356 o
-1 -2 2 3170.700 3185.930 36.206 0.022 o
-1 -2 3 3555.660 3759.370 38.927 0.017 o
-1 -2 4 245.238 265.567 4.030 1.795 o
-1 -2 5 473.745 495.692 8.843 0.615 o
-1 -2 6 226.106 221.838 2.824 2.199 o
-1 -2 7 1.138 0.456 0.230 907.877 o
-1 -2 8 1409.830 1329.400 14.603 0.105 o
-1 -2 9 59.705 59.330 1.472 12.165 o
-1 -2 10 56.635 60.438 2.337 11.268 o
-1 -2 11 47.067 47.050 3.540 10.819 o
-1 -2 12 189.594 197.736 8.216 1.880 o
-1 -2 13 6.862 7.991 1.876 57.247 o
-1 -1 1 249.767 267.776 3.302 1.806 o
-1 -1 2 276.501 270.322 3.742 1.611 o
-1 -1 3 58.651 58.827 1.127 12.752 o
-1 -1 4 124.605 140.808 2.025 4.684 o
-1 -1 5 31.092 30.997 0.674 26.648 o
-1 -1 6 27.138 27.073 0.700 30.675 o
-1 -1 7 372.148 366.207 4.502 1.021 o
-1 -1 8 78.276 69.698 1.446 9.351 o
-1 -1 9 789.810 771.798 16.432 0.252 o
-1 -1 10 30.921 28.174 2.523 19.066 o
-1 -1 11 59.817 56.217 3.738 8.828 o
-1 -1 12 0.302 0.211 1.228 225.175 o
-1 -1 13 0.750 0.449 1.228 206.721 o
-1 0 1 691.867 701.463 7.994 0.358 o
-1 0 2 2325.380 2278.630 35.291 0.037 o
-1 0 3 1.199 0.718 0.193 837.602 o
-1 0 4 0.199 0.548 0.168 2449.740 o
-1 0 5 35.350 40.957 1.008 21.203 o
-1 0 6 95.180 102.516 1.915 6.686 o
-1 0 7 6.201 5.420 0.486 142.757 o
-1 0 8 21.249 22.441 2.919 20.854 o
-1 0 9 643.814 624.327 17.370 0.324 o
-1 0 10 16.270 16.749 1.981 34.413 o
-1 0 11 0.025 0.225 0.809 527.011 o
-1 0 12 28.686 33.267 4.933 9.782 o
-1 1 1 6311.520 5706.500 129.063 0.005 o
-1 1 2 134.976 121.420 2.503 4.537 o
-1 1 3 181.660 158.211 2.327 3.173 o
-1 1 4 1289.770 1346.320 19.701 0.109 o
-1 1 5 39.477 66.769 1.446 15.193 o
-1 1 6 124.200 125.401 2.323 4.854 o
-1 1 7 484.104 480.967 7.553 0.634 o
-1 1 8 299.534 298.274 10.025 1.064 o
-1 1 9 5.423 5.809 0.974 117.051 o
-1 1 10 91.347 90.315 8.189 3.201 o
-1 1 11 29.658 26.495 1.859 23.447 o
-1 1 12 11.892 14.160 1.928 41.489 o
-1 2 1 35.069 23.305 0.560 26.844 o
-1 2 2 149.052 154.445 4.438 3.320 o
-1 2 3 42.461 37.909 0.850 19.459 o
-1 2 4 171.073 214.348 2.706 2.866 o
-1 2 5 58.077 49.114 1.019 13.816 o
-1 2 6 509.542 458.992 5.375 0.647 o
-1 2 7 139.986 136.133 3.578 3.911 o
-1 2 8 421.011 401.970 11.544 0.678 o
-1 2 9 299.921 305.044 9.497 1.087 o
-1 2 10 10.289 8.361 1.374 63.878 o
-1 2 11 85.459 79.755 4.148 6.167 o
-1 2 12 4.710 5.429 1.400 93.684 o
-1 3 1 0.095 0.620 0.324 1750.800 o
-1 3 2 24.640 21.110 0.576 36.208 o
-1 3 3 42.391 41.732 0.895 18.764 o
-1 3 4 928.695 885.178 8.877 0.225 o
-1 3 5 2.185 0.314 0.141 588.959 o
-1 3 6 19.623 18.037 0.493 45.301 o
-1 3 7 806.275 756.881 7.704 0.291 o
-1 3 8 273.834 267.423 9.979 1.180 o
-1 3 9 218.529 204.373 5.535 2.053 o
-1 3 10 0.028 -0.018 0.710 709.454 o
-1 3 11 5.514 7.423 1.479 79.297 o
-1 4 1 0.457 0.254 0.232 1799.620 o
-1 4 2 3.691 2.366 0.220 279.736 o
-1 4 3 138.936 140.007 2.111 4.274 o
-1 4 4 29.521 35.415 1.130 24.790 o
-1 4 5 1299.270 1305.190 12.899 0.118 o
-1 4 6 346.594 339.375 4.304 1.143 o
-1 4 7 2.039 1.568 0.596 337.576 o
-1 4 8 74.522 68.404 2.751 8.528 o
-1 4 9 19.582 19.080 1.538 35.328 o
-1 4 10 52.556 61.746 2.834 10.819 o
-1 5 1 1463.970 1514.330 17.989 0.091 o
-1 5 2 15.525 18.352 0.744 50.470 o
-1 5 3 234.970 240.271 3.701 1.981 o
-1 5 4 711.968 694.608 8.097 0.348 o
-1 5 5 147.861 155.692 2.562 3.785 o
-1 5 6 250.333 253.581 5.089 1.719 o
-1 5 7 163.941 165.289 4.700 2.953 o
-1 5 8 18.941 14.109 1.545 38.629 o
-1 5 9 107.658 114.340 3.987 4.854 o
-1 6 1 16.658 15.255 0.684 51.932 o
-1 6 2 383.354 361.148 5.156 0.980 o
-1 6 3 450.026 445.070 7.192 0.715 o
-1 6 4 344.015 346.442 5.237 1.109 o
-1 6 5 389.564 381.998 5.668 0.926 o
-1 6 6 61.084 56.484 4.478 7.609 o
-1 6 7 0.146 0.293 0.640 751.406 o
-1 6 8 54.472 60.769 2.807 10.705 o
-1 7 1 152.311 148.014 2.330 3.818 o
-1 7 2 2.804 1.855 0.435 317.550 o
-1 7 3 656.808 643.318 10.133 0.380 o
-1 7 4 192.521 194.904 3.527 2.612 o
-1 7 5 226.826 229.064 6.301 1.817 o
-1 7 6 40.659 33.101 3.197 13.560 o
-1 7 7 3.226 2.259 1.374 120.939 o
-1 8 1 13.903 11.776 0.596 64.661 o
-1 8 2 23.525 21.926 1.059 34.229 o
-1 8 3 9.403 9.705 1.645 56.352 o
-1 8 4 215.728 221.792 9.788 1.476 o
-1 8 5 297.345 308.478 11.399 0.973 o
-1 8 6 25.779 28.188 3.130 17.370 o
-1 8 7 1.221 0.304 1.374 162.377 o
-1 9 1 33.298 35.888 2.893 15.783 o
-1 9 2 8.369 10.197 1.836 52.648 o
-1 9 3 3.270 2.975 0.946 171.681 o
-1 9 5 2.014 1.611 1.479 124.859 o
-1 9 6 0.021 -0.885 1.545 151.672 o
-1 10 1 1.430 1.017 1.281 170.057 o
-1 10 2 27.752 27.738 2.800 18.642 o
-1 10 3 71.234 79.225 3.387 7.675 o
-1 10 4 39.424 42.110 3.751 11.454 o
-1 10 5 193.908 200.774 9.022 1.724 o
-1 11 1 44.843 48.071 2.610 13.321 o
-1 11 2 63.148 64.997 3.152 9.091 o
-1 11 3 6.401 7.912 1.955 55.752 o
-1 11 4 14.849 12.165 2.285 33.619 o
0 -14 6 3.853 6.116 1.955 64.810 o
0 -13 2 65.875 77.351 5.310 5.896 o
0 -13 3 90.019 90.348 5.944 4.476 o
0 -13 4 50.483 50.485 2.943 11.541 o
0 -13 5 39.866 43.416 2.822 13.989 o
0 -13 6 0.415 0.177 0.957 347.889 o
0 -13 7 58.599 55.120 4.478 7.798 o
0 -13 8 34.233 38.992 3.844 12.020 o
0 -12 1 235.540 221.049 9.273 1.456 o
0 -12 2 85.934 80.613 5.270 5.200 o
0 -12 3 137.392 140.568 7.331 2.718 o
0 -12 4 86.812 83.608 4.564 5.686 o
0 -12 5 78.607 74.161 3.545 7.215 o
0 -12 6 12.823 11.495 3.282 23.133 o
0 -12 7 28.288 23.283 2.158 23.016 o
0 -12 8 3.650 4.927 1.691 81.952 o
0 -12 9 180.812 178.192 9.484 1.777 o
0 -11 1 0.880 0.256 0.775 424.207 o
0 -11 2 42.103 44.921 2.787 13.572 o
0 -11 3 372.798 369.503 10.409 0.814 o
0 -11 4 203.754 197.864 5.655 2.180 o
0 -11 5 10.287 9.853 1.371 61.767 o
0 -11 6 32.219 29.098 2.767 17.386 o
0 -11 7 151.472 162.851 7.608 2.402 o
0 -11 8 179.996 180.488 11.142 1.521 o
0 -11 9 7.955 8.244 1.387 71.550 o
0 -11 10 64.322 72.005 3.824 7.827 o
0 -10 1 149.812 154.137 4.634 3.258 o
0 -10 2 298.219 292.994 7.164 1.257 o
0 -10 3 0.391 0.200 0.624 706.332 o
0 -10 4 33.580 32.600 1.922 20.286 o
0 -10 5 6.943 6.095 0.776 113.598 o
0 -10 6 11.061 9.988 0.968 70.290 o
0 -10 7 212.783 205.333 4.719 2.200 o
0 -10 8 42.228 40.757 2.608 14.444 o
0 -10 9 137.503 133.386 11.974 1.640 o
0 -10 10 5.768 8.020 1.522 74.808 o
0 -10 11 48.157 56.876 6.472 5.586 o
0 -10 12 7.664 10.118 2.298 42.185 o
0 -9 1 89.512 89.698 2.300 7.158 o
0 -9 2 101.796 106.868 2.737 5.853 o
0 -9 3 150.590 148.255 3.315 3.638 o
0 -9 4 164.887 173.777 3.962 3.038 o
0 -9 5 86.816 84.967 1.739 7.836 o
0 -9 6 10.730 12.247 0.753 72.404 o
0 -9 7 216.132 209.094 3.414 2.300 o
0 -9 8 77.231 84.439 2.669 7.826 o
0 -9 9 114.056 88.182 2.875 5.663 o
0 -9 10 89.439 73.493 2.687 7.374 o
0 -9 11 0.601 -0.124 0.872 397.906 o
0 -9 12 16.476 18.797 3.943 16.121 o
0 -9 13 5.291 6.723 1.354 89.139 o
0 -8 1 305.421 300.955 4.560 1.357 o
0 -8 2 52.575 46.418 1.057 15.167 o
0 -8 3 104.383 98.935 3.069 5.732 o
0 -8 4 584.541 570.943 8.181 0.474 o
0 -8 5 1167.870 1152.440 16.672 0.137 o
0 -8 6 498.179 488.517 6.102 0.633 o
0 -8 7 62.736 61.122 1.558 11.506 o
0 -8 8 95.145 80.458 2.256 7.126 o
0 -8 9 52.589 54.645 2.200 12.472 o
0 -8 10 30.032 25.415 2.807 18.285 o
0 -8 11 65.488 68.208 3.118 8.811 o
0 -8 12 2.101 1.708 1.003 206.254 o
0 -8 13 5.370 7.106 1.810 65.010 o
0 -7 1 26.445 25.800 0.768 31.485 o
0 -7 2 10.182 6.654 0.656 91.522 o
0 -7 3 154.805 157.419 3.711 3.382 o
0 -7 4 741.914 714.148 10.516 0.315 o
0 -7 5 106.775 111.464 3.552 5.153 o
0 -7 6 0.166 1.669 0.329 1001.640 o
0 -7 7 137.983 126.892 2.712 4.322 o
0 -7 8 14.378 7.784 0.710 67.976 o
0 -7 9 1.047 0.004 0.619 559.172 o
0 -7 10 65.850 66.208 2.478 9.711 o
0 -7 11 0.425 0.233 0.673 614.557 o
0 -7 12 84.573 84.215 2.987 7.099 o
0 -7 13 10.590 15.481 2.417 33.940 o
0 -6 1 27.687 27.642 0.811 29.620 o
0 -6 2 88.588 101.541 2.668 6.640 o
0 -6 3 585.460 575.111 10.358 0.448 o
0 -6 4 3.825 3.662 0.350 230.501 o
0 -6 5 11.851 7.985 0.576 80.625 o
0 -6 6 89.390 80.694 2.385 7.383 o
0 -6 7 46.332 64.313 2.006 13.063 o
0 -6 8 108.989 99.870 3.018 5.559 o
0 -6 9 87.571 70.177 2.046 8.112 o
0 -6 10 13.551 9.320 0.996 62.452 o
0 -6 11 153.144 156.827 6.358 2.731 o
0 -6 12 108.589 118.899 4.535 4.485 o
0 -6 13 93.834 111.482 6.235 3.995 o
0 -5 1 615.190 638.448 8.981 0.418 o
0 -5 2 80.860 76.458 2.063 8.370 o
0 -5 3 16.711 23.451 0.778 43.650 o
0 -5 4 1292.300 1344.670 17.948 0.111 o
0 -5 5 97.618 125.430 2.429 5.786 o
0 -5 6 565.802 616.629 9.555 0.456 o
0 -5 7 25.025 26.767 1.061 30.812 o
0 -5 8 5.394 5.229 0.530 154.529 o
0 -5 9 94.791 85.107 2.234 7.024 o
0 -5 10 71.786 81.466 2.682 8.311 o
0 -5 11 5.569 4.124 1.142 110.928 o
0 -5 12 57.551 56.027 3.001 10.285 o
0 -5 13 5.984 9.167 2.140 49.563 o
0 -4 1 669.339 711.671 9.772 0.356 o
0 -4 2 42.383 43.564 1.389 17.472 o
0 -4 3 140.902 135.392 2.558 4.180 o
0 -4 4 5518.340 5735.020 65.579 0.007 o
0 -4 5 0.124 -0.063 0.325 2647.190 o
0 -4 6 33.894 34.608 1.216 22.549 o
0 -4 7 0.880 1.516 0.308 709.732 o
0 -4 8 49.262 45.811 1.315 15.585 o
0 -4 9 289.819 296.921 4.944 1.414 o
0 -4 10 30.533 43.510 2.640 16.549 o
0 -4 11 259.075 253.233 6.943 1.514 o
0 -4 12 23.044 21.867 2.279 24.995 o
0 -4 13 17.814 21.993 2.932 22.113 o
0 -3 1 933.946 989.230 13.214 0.199 o
0 -3 2 3260.500 3202.890 68.422 0.017 o
0 -3 3 1771.850 1883.840 83.876 0.029 o
0 -3 4 307.499 310.257 6.144 1.251 o
0 -3 5 205.338 237.100 5.778 1.998 o
0 -3 6 1.121 2.331 0.300 539.902 o
0 -3 7 200.306 223.316 7.837 1.798 o
0 -3 8 3.084 16.959 3.115 28.548 o
0 -3 9 229.095 217.485 4.238 2.067 o
0 -3 10 642.704 640.084 10.438 0.387 o
0 -3 11 2.178 2.430 0.900 216.460 o
0 -3 12 133.461 140.516 4.917 3.560 o
0 -3 13 38.903 37.222 3.461 12.681 o
0 -2 1 1816.550 1753.430 27.805 0.060 o
0 -2 2 385.831 399.642 6.972 0.878 o
0 -2 3 3206.550 3197.310 51.926 0.020 o
0 -2 4 1132.260 1208.390 12.516 0.145 o
0 -2 5 64.572 82.632 5.663 5.504 o
0 -2 6 129.348 114.495 1.969 4.965 o
0 -2 7 780.829 712.996 8.335 0.309 o
0 -2 8 1211.690 1200.240 13.366 0.134 o
0 -2 9 443.413 419.398 7.194 0.746 o
0 -2 10 92.624 88.527 3.464 6.206 o
0 -2 11 170.641 179.310 7.569 2.187 o
0 -2 12 0.933 0.225 1.176 220.395 o
0 -1 1 538.519 552.214 9.097 0.513 o
0 -1 2 9634.320 9534.290 152.275 0.002 o
0 -1 3 2759.060 2864.810 32.894 0.027 o
0 -1 4 12.956 14.711 0.534 63.814 o
0 -1 5 27.806 31.886 0.859 27.873 o
0 -1 6 329.389 327.355 4.568 1.213 o
0 -1 7 188.915 202.760 3.151 2.656 o
0 -1 8 37.109 40.273 1.335 19.787 o
0 -1 9 333.889 332.803 6.841 1.095 o
0 -1 10 53.928 50.312 3.447 10.123 o
0 -1 11 0.879 0.754 0.760 405.088 o
0 -1 12 33.823 33.023 2.236 18.765 o
0 -1 13 0.110 -0.225 1.228 236.227 o
0 0 1 308.109 293.632 7.040 1.228 o
0 0 2 733.816 700.112 7.049 0.340 o
0 0 3 187.355 184.497 1.999 2.923 o
0 0 4 17.047 14.370 0.343 54.802 o
0 0 5 747.348 779.442 7.759 0.312 o
0 0 6 5.789 3.691 0.241 178.976 o
0 0 7 187.823 190.387 2.699 2.802 o
0 0 8 424.324 413.556 5.936 0.813 o
0 0 9 11.643 13.337 1.271 56.156 o
0 0 10 88.460 92.532 3.468 6.302 o
0 0 11 44.542 42.664 2.372 14.494 o
0 0 12 42.320 46.033 3.368 11.870 o
0 1 0 143.670 142.445 3.659 3.744 o
0 1 1 2657.430 2618.110 26.568 0.031 o
0 1 2 426.156 420.494 4.200 0.835 o
0 1 3 368.827 378.245 3.922 1.027 o
0 1 4 25.677 19.129 0.459 36.600 o
0 1 5 240.702 274.464 3.081 1.858 o
0 1 6 291.031 296.731 4.383 1.438 o
0 1 7 360.684 345.540 5.413 1.055 o
0 1 8 39.473 35.050 1.822 18.329 o
0 1 9 437.506 430.669 12.647 0.611 o
0 1 10 18.046 20.645 2.061 30.412 o
0 1 11 0.012 0.159 0.845 492.127 o
0 2 0 2472.210 2405.960 38.831 0.033 o
0 2 1 69.857 79.983 1.077 9.919 o
0 2 2 60.981 48.865 0.788 13.517 o
0 2 3 595.172 664.871 6.590 0.442 o
0 2 4 426.584 464.051 4.681 0.785 o
0 2 5 11.263 21.122 1.003 53.135 o
0 2 6 367.940 367.900 6.456 0.971 o
0 2 7 0.802 0.521 0.300 1009.440 o
0 2 8 185.922 177.431 4.670 2.612 o
0 2 9 19.102 22.310 1.915 30.487 o
0 2 10 63.950 61.386 2.717 9.810 o
0 2 11 25.137 26.867 2.734 19.967 o
0 3 0 485.667 499.369 8.696 0.602 o
0 3 1 46.480 49.254 0.930 16.454 o
0 3 2 26.477 24.744 0.609 32.526 o
0 3 3 63.817 60.329 1.133 11.839 o
0 3 4 991.945 1024.730 11.064 0.188 o
0 3 5 93.608 115.363 2.113 6.343 o
0 3 6 19.952 13.880 0.831 45.627 o
0 3 7 131.510 120.837 2.364 4.687 o
0 3 8 2.831 1.962 0.693 249.427 o
0 3 9 9.666 14.014 1.295 59.775 o
0 3 10 3.746 3.141 0.865 171.891 o
0 4 0 432.582 436.108 7.915 0.734 o
0 4 1 1.127 0.443 0.161 984.746 o
0 4 2 48.529 42.909 0.797 16.924 o
0 4 3 97.866 91.065 1.743 6.936 o
0 4 4 8.790 6.101 0.599 105.377 o
0 4 5 378.967 374.348 4.570 0.990 o
0 4 6 211.264 208.473 3.761 2.313 o
0 4 7 7.268 6.882 0.719 109.975 o
0 4 8 55.990 62.008 2.509 10.966 o
0 4 9 8.581 11.833 3.097 27.097 o
0 5 0 6.813 4.536 0.312 148.219 o
0 5 1 327.238 318.936 4.303 1.246 o
0 5 2 10.422 8.263 0.565 87.726 o
0 5 3 177.487 181.561 3.488 2.891 o
0 5 4 1601.950 1586.610 19.131 0.079 o
0 5 5 1.102 2.276 0.243 576.855 o
0 5 6 3.017 2.729 0.439 276.215 o
0 5 7 97.380 102.848 3.396 5.744 o
0 5 8 0.042 1.347 1.400 169.497 o
0 5 9 216.542 219.993 9.656 1.492 o
0 6 0 86.748 80.375 1.386 8.206 o
0 6 1 424.749 425.656 5.635 0.807 o
0 6 2 1005.330 946.543 13.214 0.188 o
0 6 3 151.798 153.254 3.226 3.587 o
0 6 4 84.807 82.956 1.840 7.990 o
0 6 5 46.108 46.821 1.394 16.064 o
0 6 6 30.211 28.246 1.968 22.216 o
0 6 7 49.594 53.628 4.148 9.022 o
0 6 8 17.125 16.511 2.655 26.151 o
0 7 0 10.415 19.360 0.636 63.169 o
0 7 1 1367.680 1388.420 16.672 0.104 o
0 7 2 17.684 17.890 0.780 46.551 o
0 7 3 90.865 87.960 4.107 5.808 o
0 7 4 213.722 205.642 3.845 2.294 o
0 7 5 15.594 14.632 1.275 46.785 o
0 7 6 23.131 26.470 2.827 20.131 o
0 7 7 0.540 0.555 1.281 196.364 o
0 7 8 34.560 40.313 3.949 11.582 o
0 8 0 31.677 31.876 1.065 24.825 o
0 8 1 72.694 66.956 1.820 9.728 o
0 8 2 438.762 447.226 6.204 0.751 o
0 8 3 454.696 442.882 7.651 0.700 o
0 8 4 33.996 33.616 2.985 15.510 o
0 8 5 10.088 10.871 1.889 47.452 o
0 8 6 0.492 0.264 1.308 194.318 o
0 8 7 26.101 27.171 3.315 16.475 o
0 9 0 663.147 662.605 8.927 0.380 o
0 9 1 350.223 371.622 6.169 1.022 o
0 9 2 12.974 13.976 1.081 56.065 o
0 9 3 122.911 116.013 4.392 4.232 o
0 9 4 99.796 104.383 3.794 5.381 o
0 9 5 257.555 258.087 10.184 1.226 o
0 9 6 3.321 5.033 1.744 79.976 o
0 10 0 14.916 17.753 1.502 42.025 o
0 10 1 3.235 2.386 0.708 222.031 o
0 10 2 78.070 75.309 3.238 7.524 o
0 10 3 30.129 31.926 2.122 20.724 o
0 10 4 2.961 4.174 1.532 99.685 o
0 10 5 158.585 151.928 7.437 2.429 o
0 11 0 207.601 201.064 8.361 1.746 o
0 11 1 70.579 66.216 4.597 6.701 o
0 11 2 2.120 4.095 1.638 96.846 o
0 12 0 32.242 26.735 3.302 15.275 o
0 12 1 11.638 9.775 2.206 39.363 o
1 -14 4 23.541 25.414 3.130 18.328 o
1 -14 5 0.155 -0.885 1.664 129.244 o
1 -13 1 14.413 16.696 2.827 25.783 o
1 -13 2 74.205 78.077 5.508 5.409 o
1 -13 3 2.693 4.504 1.955 71.339 o
1 -13 4 47.830 55.186 4.755 8.014 o
1 -13 5 3.464 4.165 1.968 68.534 o
1 -13 6 1.612 1.265 1.062 213.644 o
1 -13 7 2.296 4.914 1.889 75.866 o
1 -12 0 279.268 276.011 10.726 1.098 o
1 -12 1 27.759 27.897 3.157 16.788 o
1 -12 2 42.751 41.344 3.817 10.944 o
1 -12 3 47.417 51.752 4.385 8.815 o
1 -12 4 1.549 1.823 1.519 123.727 o
1 -12 5 26.089 22.992 4.735 11.057 o
1 -12 6 25.395 23.993 2.384 22.639 o
1 -12 7 5.973 4.914 1.730 70.172 o
1 -12 8 63.569 66.254 3.586 8.393 o
1 -12 9 4.125 2.589 1.757 81.089 o
1 -11 0 2.042 1.678 1.255 157.206 o
1 -11 1 11.538 11.122 1.889 44.919 o
1 -11 2 7.729 10.369 1.730 57.000 o
1 -11 3 10.648 12.839 1.783 47.237 o
1 -11 4 9.137 11.967 2.166 41.895 o
1 -11 5 0.276 -0.008 0.578 897.471 o
1 -11 6 0.306 -0.226 0.617 792.676 o
1 -11 7 67.706 73.633 3.176 8.354 o
1 -11 8 0.754 0.267 0.664 544.694 o
1 -11 9 135.583 142.456 5.356 3.359 o
1 -11 10 10.957 9.447 1.641 53.233 o
1 -10 0 2.192 2.866 1.268 143.268 o
1 -10 1 80.261 77.760 4.425 6.183 o
1 -10 2 9.221 10.036 1.486 61.100 o
1 -10 3 83.897 79.629 2.842 7.398 o
1 -10 4 253.920 255.864 6.048 1.611 o
1 -10 5 541.423 539.068 9.033 0.517 o
1 -10 6 166.932 166.765 4.974 2.843 o
1 -10 7 25.946 23.977 2.143 24.033 o
1 -10 8 34.605 35.814 2.090 18.708 o
1 -10 9 36.474 36.274 1.885 18.842 o
1 -10 10 7.052 8.721 1.472 70.628 o
1 -10 11 15.352 9.339 2.245 35.025 o
1 -10 12 16.157 10.475 2.404 31.608 o
1 -9 0 109.135 109.536 4.075 4.835 o
1 -9 1 9.720 10.309 1.651 54.739 o
1 -9 2 96.391 94.821 3.128 6.126 o
1 -9 3 315.972 294.136 6.612 1.225 o
1 -9 4 1488.210 1472.100 25.590 0.084 o
1 -9 5 3.949 5.033 0.710 167.522 o
1 -9 6 39.550 36.082 1.716 18.499 o
1 -9 7 93.882 90.129 2.898 6.508 o
1 -9 8 26.161 24.158 1.475 28.401 o
1 -9 9 80.414 72.787 2.665 8.014 o
1 -9 10 16.337 15.839 1.593 40.111 o
1 -9 11 83.987 81.832 3.026 7.169 o
1 -9 12 18.729 19.605 4.412 13.347 o
1 -8 0 0.587 0.292 0.262 1426.900 o
1 -8 1 0.011 0.265 0.287 3056.790 o
1 -8 2 2.083 2.079 0.421 372.577 o
1 -8 3 271.471 258.427 4.819 1.606 o
1 -8 4 0.633 1.025 0.555 606.029 o
1 -8 5 232.547 215.353 4.410 2.031 o
1 -8 6 34.683 36.623 1.293 21.526 o
1 -8 7 0.165 0.345 0.374 1610.190 o
1 -8 8 149.402 153.530 4.566 3.287 o
1 -8 9 18.946 17.815 1.596 35.981 o
1 -8 10 102.668 91.342 3.524 5.683 o
1 -8 11 2.794 5.118 0.979 155.724 o
1 -8 12 33.739 27.178 2.306 19.398 o
1 -7 0 29.534 24.344 1.470 26.267 o
1 -7 1 6.437 4.969 0.520 140.694 o
1 -7 2 201.923 207.514 4.242 2.351 o
1 -7 3 27.859 20.960 1.013 31.128 o
1 -7 4 484.427 472.579 9.279 0.608 o
1 -7 5 2.706 2.189 0.405 319.786 o
1 -7 6 133.328 123.368 2.595 4.530 o
1 -7 7 37.978 37.735 2.477 16.085 o
1 -7 8 26.549 19.417 2.272 23.926 o
1 -7 9 82.540 58.508 2.288 8.761 o
1 -7 10 30.524 22.695 1.498 26.018 o
1 -7 11 31.430 25.493 1.669 23.876 o
1 -7 12 101.593 99.010 4.191 5.168 o
1 -6 0 107.998 112.143 1.727 5.900 o
1 -6 1 241.856 261.667 3.814 1.846 o
1 -6 2 292.410 294.600 4.262 1.443 o
1 -6 3 525.310 508.287 12.376 0.494 o
1 -6 4 29.680 31.633 1.371 24.685 o
1 -6 5 166.031 141.637 3.035 3.470 o
1 -6 6 109.336 109.499 2.330 5.673 o
1 -6 7 0.386 0.595 0.418 1044.290 o
1 -6 8 70.724 71.296 2.104 9.426 o
1 -6 9 65.886 56.885 3.155 9.200 o
1 -6 10 5.705 7.783 0.967 106.029 o
1 -6 11 25.821 27.735 1.903 24.752 o
1 -6 12 96.150 99.664 6.459 3.940 o
1 -5 0 2459.760 2633.830 27.137 0.034 o
1 -5 1 109.659 99.473 1.791 6.089 o
1 -5 2 2.504 1.818 0.229 392.847 o
1 -5 3 43.782 30.951 1.227 19.383 o
1 -5 4 445.060 422.693 6.800 0.749 o
1 -5 5 53.488 63.582 1.576 12.662 o
1 -5 6 13.031 10.412 0.849 65.420 o
1 -5 7 79.417 89.909 2.189 7.883 o
1 -5 8 0.814 0.827 0.434 726.161 o
1 -5 9 18.400 16.857 0.987 44.153 o
1 -5 10 43.437 43.583 1.938 15.811 o
1 -5 11 122.680 126.187 4.622 4.024 o
1 -5 12 64.703 67.928 5.244 6.192 o
1 -4 0 971.918 991.212 13.828 0.189 o
1 -4 1 423.673 424.978 5.472 0.813 o
1 -4 2 223.819 211.031 3.558 2.206 o
1 -4 3 726.817 762.973 10.937 0.309 o
1 -4 4 44.983 37.750 1.270 17.832 o
1 -4 5 388.102 402.422 6.460 0.885 o
1 -4 6 205.720 215.656 3.656 2.344 o
1 -4 7 82.145 91.744 2.142 7.666 o
1 -4 8 371.562 366.041 5.690 0.989 o
1 -4 9 33.817 25.824 1.097 25.181 o
1 -4 10 101.985 98.247 2.922 5.930 o
1 -4 11 36.975 41.679 2.531 15.677 o
1 -4 12 3.520 1.694 0.981 174.572 o
1 -4 13 163.999 170.129 8.071 2.169 o
1 -3 0 914.798 935.652 9.906 0.219 o
1 -3 1 99.330 89.248 1.709 6.919 o
1 -3 2 1.419 1.297 0.205 639.077 o
1 -3 3 533.628 520.955 7.758 0.550 o
1 -3 4 1628.660 1733.510 20.587 0.073 o
1 -3 5 554.333 648.113 9.783 0.451 o
1 -3 6 0.386 3.616 0.423 492.407 o
1 -3 7 56.584 57.000 1.302 13.053 o
1 -3 8 192.731 175.481 3.252 2.765 o
1 -3 9 16.487 16.719 0.765 49.957 o
1 -3 10 7.902 6.097 1.125 88.249 o
1 -3 11 78.269 79.203 3.487 7.149 o
1 -3 12 48.082 50.125 2.841 12.111 o
1 -3 13 13.514 13.896 2.404 32.343 o
1 -2 0 918.061 885.027 11.693 0.220 o
1 -2 1 1116.350 1098.910 21.515 0.138 o
1 -2 2 5.141 6.640 0.372 156.060 o
1 -2 3 3.878 6.340 0.347 187.451 o
1 -2 4 584.440 679.662 10.436 0.411 o
1 -2 5 975.611 1046.610 10.509 0.190 o
1 -2 6 0.626 0.942 0.283 1012.120 o
1 -2 7 49.044 42.791 1.133 16.312 o
1 -2 8 20.256 20.076 0.853 40.433 o
1 -2 9 13.888 13.027 0.997 56.526 o
1 -2 10 72.927 75.343 4.385 6.605 o
1 -2 11 6.133 6.235 1.598 73.331 o
1 -2 12 69.471 63.283 4.253 7.239 o
1 -2 13 2.981 1.413 1.427 121.934 o
1 -1 0 1246.650 1204.800 17.252 0.124 o
1 -1 1 175.729 188.142 3.260 2.906 o
1 -1 2 5.070 5.574 0.287 171.993 o
1 -1 3 3.805 7.512 0.319 176.895 o
1 -1 4 624.934 625.141 8.953 0.416 o
1 -1 5 126.421 167.974 4.532 3.567 o
1 -1 6 25.042 26.016 0.624 33.188 o
1 -1 7 11.567 14.996 0.513 68.236 o
1 -1 8 10.216 9.054 0.436 89.410 o
1 -1 9 9.077 10.899 1.638 55.902 o
1 -1 10 230.366 230.054 6.220 1.801 o
1 -1 11 36.659 39.908 7.529 4.970 o
1 -1 12 43.889 40.683 3.263 12.300 o
1 0 0 2239.620 2123.400 27.873 0.043 o
1 0 1 1176.570 1181.490 12.213 0.141 o
1 0 2 168.878 227.096 3.530 2.702 o
1 0 3 1431.500 1411.720 14.756 0.100 o
1 0 4 289.358 293.808 3.148 1.509 o
1 0 5 309.164 306.253 3.141 1.386 o
1 0 6 26.002 29.347 0.571 31.105 o
1 0 7 185.615 183.777 2.130 2.941 o
1 0 8 240.650 231.879 3.409 1.992 o
1 0 9 377.678 382.083 6.688 0.924 o
1 0 10 127.563 131.459 4.271 3.999 o
1 0 11 81.957 82.747 3.385 6.942 o
1 1 0 79.650 88.526 1.374 8.450 o
1 1 1 737.956 764.283 8.910 0.314 o
1 1 2 12.804 14.578 0.425 65.724 o
1 1 3 1.711 1.034 0.167 609.967 o
1 1 4 63.004 53.214 1.049 12.577 o
1 1 5 84.349 106.257 1.760 7.283 o
1 1 6 105.916 98.910 1.761 6.292 o
1 1 7 175.935 166.499 2.612 3.160 o
1 1 8 28.185 25.460 1.038 29.055 o
1 1 9 488.548 478.122 10.096 0.585 o
1 1 10 42.944 41.366 2.199 15.444 o
1 1 11 1.573 0.277 1.294 171.980 o
1 2 0 13752.700 13068.600 168.176 0.001 o
1 2 1 4931.320 4811.330 49.301 0.009 o
1 2 2 190.255 179.290 1.997 2.919 o
1 2 3 44.926 52.918 0.981 16.310 o
1 2 4 70.260 56.875 1.111 11.211 o
1 2 5 186.607 186.573 2.645 2.850 o
1 2 6 0.104 0.336 0.247 2795.700 o
1 2 7 319.405 300.851 4.063 1.320 o
1 2 8 40.085 40.507 1.302 18.836 o
1 2 9 45.237 37.819 2.279 15.105 o
1 2 10 4.918 3.725 1.532 88.682 o
1 3 0 1291.060 1427.850 16.636 0.109 o
1 3 1 2620.690 2752.290 28.207 0.031 o
1 3 2 2.180 1.854 0.148 445.584 o
1 3 3 374.449 409.203 6.155 0.916 o
1 3 4 75.940 85.526 1.632 8.722 o
1 3 5 62.131 60.628 1.384 11.816 o
1 3 6 322.127 308.681 4.558 1.274 o
1 3 7 6.244 8.077 0.582 120.648 o
1 3 8 17.208 19.466 1.307 40.393 o
1 3 9 54.682 57.247 4.240 8.354 o
1 3 10 55.218 66.506 4.887 7.086 o
1 4 0 530.998 543.264 29.687 0.243 o
1 4 1 390.670 408.482 4.714 0.916 o
1 4 2 205.434 223.706 2.600 2.409 o
1 4 3 14.048 13.606 0.434 63.214 o
1 4 4 525.651 530.087 6.258 0.572 o
1 4 5 1.703 1.137 0.296 544.918 o
1 4 6 14.944 14.083 0.660 57.555 o
1 4 7 52.903 55.396 1.728 13.201 o
1 4 8 132.608 120.755 6.274 3.248 o
1 4 9 6.214 5.297 1.757 67.480 o
1 5 0 735.641 752.419 10.663 0.309 o
1 5 1 2.541 2.102 0.260 368.390 o
1 5 2 2.013 1.289 0.211 502.712 o
1 5 3 582.876 573.866 8.841 0.468 o
1 5 4 4.598 5.638 0.464 170.611 o
1 5 5 626.015 641.145 8.475 0.414 o
1 5 6 2.733 3.050 0.488 273.308 o
1 5 7 54.322 61.949 4.240 8.219 o
1 5 8 20.425 19.377 2.615 24.141 o
1 5 9 5.531 4.399 1.704 74.113 o
1 6 0 267.405 277.750 4.598 1.590 o
1 6 1 471.457 450.482 5.440 0.708 o
1 6 2 12.807 12.541 0.570 67.410 o
1 6 3 200.158 202.703 3.286 2.511 o
1 6 4 5.744 6.059 0.452 146.722 o
1 6 5 91.184 97.709 3.279 6.195 o
1 6 6 0.536 0.380 0.635 617.514 o
1 6 7 22.666 20.526 2.615 22.886 o
1 6 8 8.510 7.569 1.836 55.177 o
1 7 0 0.244 0.059 0.307 2219.820 o
1 7 1 79.252 86.891 1.652 8.382 o
1 7 2 0.137 -0.080 0.268 3403.300 o
1 7 3 6.101 6.344 0.652 128.373 o
1 7 4 176.246 185.227 7.397 2.155 o
1 7 5 45.818 42.708 2.144 14.845 o
1 7 6 36.495 36.615 3.276 13.697 o
1 7 7 37.898 44.104 3.831 11.301 o
1 8 0 61.353 72.690 1.378 11.113 o
1 8 1 70.156 70.684 1.518 10.070 o
1 8 2 109.138 111.896 2.894 5.387 o
1 8 3 1.596 1.556 1.123 194.645 o
1 8 4 186.795 193.191 5.384 2.396 o
1 8 5 17.399 21.042 2.536 25.943 o
1 8 6 26.048 22.442 2.800 19.995 o
1 8 7 61.340 68.620 4.953 6.657 o
1 9 0 2.090 0.468 0.427 468.697 o
1 9 1 216.325 219.482 4.651 2.118 o
1 9 2 42.172 43.198 2.252 15.260 o
1 9 3 191.262 196.486 5.547 2.312 o
1 9 4 48.603 53.964 3.586 10.195 o
1 9 5 206.554 197.630 8.454 1.748 o
1 9 6 1.351 1.070 1.519 130.258 o
1 10 0 35.622 34.386 1.657 20.304 o
1 10 1 30.261 36.021 1.693 21.922 o
1 10 2 120.460 132.202 4.388 4.103 o
1 10 3 17.118 20.553 2.576 25.849 o
1 11 0 156.599 148.870 4.999 3.097 o
1 11 1 0.079 -0.806 1.413 179.956 o
1 11 2 74.307 80.904 5.112 5.716 o
1 12 0 12.198 9.550 2.219 38.604 o
2 -13 5 0.750 1.400 1.519 135.671 o
2 -13 6 39.334 35.888 3.751 11.845 o
2 -12 0 73.438 72.384 4.861 6.155 o
2 -12 1 43.952 35.202 3.514 11.972 o
2 -12 2 28.160 28.689 2.959 17.574 o
2 -12 3 47.669 44.976 3.500 10.959 o
2 -12 4 30.372 32.520 2.959 16.550 o
2 -12 5 49.668 52.809 3.738 9.841 o
2 -12 6 2.870 3.302 1.008 167.039 o
2 -12 7 56.719 60.093 3.087 10.013 o
2 -12 8 189.316 201.694 15.580 0.983 o
2 -11 0 24.976 21.412 2.642 21.586 o
2 -11 1 36.873 34.977 3.249 13.862 o
2 -11 2 10.426 11.729 1.981 44.175 o
2 -11 3 57.176 59.202 3.923 8.619 o
2 -11 4 117.833 114.652 5.601 3.817 o
2 -11 5 23.799 22.363 2.338 24.048 o
2 -11 6 4.765 5.767 1.085 115.211 o
2 -11 7 32.753 32.578 2.481 18.068 o
2 -11 8 35.350 32.867 1.933 19.577 o
2 -11 9 101.513 109.369 4.715 4.703 o
2 -11 10 1.511 1.981 1.678 105.186 o
2 -10 0 317.645 334.975 11.531 0.897 o
2 -10 1 0.736 0.436 1.083 256.540 o
2 -10 2 63.867 67.342 2.473 9.859 o
2 -10 3 92.557 85.302 4.623 5.406 o
2 -10 4 11.524 9.933 1.664 51.007 o
2 -10 5 13.750 12.324 1.823 42.139 o
2 -10 6 9.686 11.533 1.386 60.657 o
2 -10 7 135.591 139.925 6.961 2.854 o
2 -10 8 75.818 77.405 2.887 7.958 o
2 -10 9 0.016 0.291 1.361 191.910 o
2 -10 10 116.584 115.723 7.245 3.133 o
2 -10 11 11.858 7.188 1.340 61.947 o
2 -9 0 49.362 58.634 3.817 9.453 o
2 -9 1 144.800 138.060 3.775 3.732 o
2 -9 2 90.312 88.887 2.387 7.078 o
2 -9 3 54.537 49.626 2.278 12.406 o
2 -9 4 72.607 70.188 2.745 8.616 o
2 -9 5 147.724 148.758 6.274 2.864 o
2 -9 6 187.562 183.152 5.375 2.440 o
2 -9 7 145.444 156.200 4.977 3.214 o
2 -9 8 193.312 188.381 5.704 2.304 o
2 -9 9 354.147 336.090 9.860 0.904 o
2 -9 10 2.079 0.411 0.742 320.733 o
2 -9 11 79.907 84.641 3.175 7.193 o
2 -9 12 27.457 29.894 2.307 21.114 o
2 -8 0 53.173 52.131 1.500 13.813 o
2 -8 1 27.926 29.322 1.192 27.195 o
2 -8 2 21.445 18.397 1.009 38.743 o
2 -8 3 0.328 1.417 0.611 570.142 o
2 -8 4 1035.120 1000.080 14.313 0.174 o
2 -8 5 266.688 274.144 6.519 1.465 o
2 -8 6 1.693 1.344 0.610 372.290 o
2 -8 7 146.236 144.452 4.194 3.523 o
2 -8 8 104.780 110.298 4.198 4.888 o
2 -8 9 8.285 7.031 1.223 79.391 o
2 -8 10 101.636 89.449 3.104 6.027 o
2 -8 11 29.766 27.904 2.274 20.808 o
2 -8 12 4.066 1.123 1.532 102.759 o
2 -7 0 152.993 173.988 3.281 3.364 o
2 -7 1 128.570 127.921 3.287 4.375 o
2 -7 2 64.444 62.599 1.577 11.163 o
2 -7 3 1.261 2.865 0.316 461.567 o
2 -7 4 500.001 455.536 8.899 0.607 o
2 -7 5 1469.530 1436.980 17.731 0.093 o
2 -7 6 29.535 29.467 1.384 25.273 o
2 -7 7 0.004 -0.196 0.498 1457.410 o
2 -7 8 116.988 109.406 4.782 4.273 o
2 -7 9 78.297 82.157 3.484 7.068 o
2 -7 10 0.318 0.489 0.647 646.082 o
2 -7 11 92.067 96.581 3.292 6.171 o
2 -7 12 4.356 5.350 1.968 63.862 o
2 -6 0 56.228 39.364 1.048 15.152 o
2 -6 1 8.696 16.647 0.724 72.363 o
2 -6 2 44.676 59.101 1.176 15.345 o
2 -6 3 131.035 124.904 4.788 3.799 o
2 -6 4 13.443 10.757 0.590 68.015 o
2 -6 5 129.067 116.595 2.166 4.885 o
2 -6 6 10.721 6.597 0.516 92.131 o
2 -6 7 153.472 156.895 3.640 3.426 o
2 -6 8 10.820 13.397 1.352 56.221 o
2 -6 9 4.877 4.458 1.209 110.282 o
2 -6 10 202.846 198.185 6.775 2.017 o
2 -6 11 4.541 3.312 1.163 123.186 o
2 -6 12 149.522 149.106 10.560 1.815 o
2 -5 0 42.409 34.228 1.085 19.636 o
2 -5 1 172.393 191.709 3.046 2.960 o
2 -5 2 0.297 0.507 0.205 1998.700 o
2 -5 3 58.693 39.456 1.520 13.935 o
2 -5 4 259.478 280.531 3.860 1.672 o
2 -5 5 123.162 103.247 1.832 5.425 o
2 -5 6 234.237 240.400 3.328 2.015 o
2 -5 7 3.258 5.095 0.602 195.791 o
2 -5 8 71.411 70.519 2.216 9.282 o
2 -5 9 4.186 7.732 1.097 110.578 o
2 -5 10 32.675 29.563 1.949 21.059 o
2 -5 11 117.799 111.475 4.393 4.413 o
2 -5 12 13.069 15.526 1.862 40.267 o
2 -4 0 2.922 1.755 0.231 354.252 o
2 -4 1 37.569 50.486 0.981 18.753 o
2 -4 2 131.194 125.988 2.603 4.551 o
2 -4 3 124.400 139.437 2.206 4.665 o
2 -4 4 1399.770 1444.730 15.638 0.100 o
2 -4 5 9.863 14.781 0.620 73.466 o
2 -4 6 51.213 53.276 1.956 13.265 o
2 -4 7 340.204 324.073 5.753 1.136 o
2 -4 8 146.851 144.856 4.032 3.554 o
2 -4 9 610.902 578.652 12.257 0.408 o
2 -4 10 3.325 5.004 1.075 136.857 o
2 -4 11 0.072 -0.016 0.923 416.921 o
2 -4 12 120.213 128.144 5.885 3.533 o
2 -3 0 559.947 523.894 5.948 0.542 o
2 -3 1 743.366 805.044 9.458 0.300 o
2 -3 2 10.928 13.088 0.545 73.870 o
2 -3 3 143.153 141.404 1.985 4.173 o
2 -3 4 291.588 308.571 3.421 1.451 o
2 -3 5 534.187 561.300 6.710 0.541 o
2 -3 6 15.244 10.732 0.732 60.271 o
2 -3 7 152.671 149.288 2.716 3.720 o
2 -3 8 146.408 148.091 2.734 3.862 o
2 -3 9 15.612 11.854 0.802 56.807 o
2 -3 10 26.668 27.530 2.067 23.355 o
2 -3 11 177.433 184.182 9.933 1.706 o
2 -3 12 1.790 13.156 2.364 46.826 o
2 -2 0 4315.540 4086.380 41.721 0.013 o
2 -2 1 1156.550 1194.520 19.889 0.130 o
2 -2 2 469.590 459.986 6.669 0.684 o
2 -2 3 87.349 93.996 1.738 7.494 o
2 -2 4 0.037 0.739 0.258 2143.790 o
2 -2 5 34.410 36.723 1.040 22.404 o
2 -2 6 26.389 25.615 0.813 31.412 o
2 -2 7 2.929 3.513 0.340 275.853 o
2 -2 8 4.947 5.084 0.592 159.102 o
2 -2 9 76.570 84.351 4.531 6.101 o
2 -2 10 121.976 129.539 6.010 3.443 o
2 -2 11 1.738 0.356 0.878 288.544 o
2 -2 12 58.056 61.580 4.187 8.065 o
2 -1 0 8352.570 7948.620 85.531 0.003 o
2 -1 1 64.146 64.054 2.272 10.268 o
2 -1 2 0.092 0.213 0.146 5069.800 o
2 -1 3 743.875 745.083 8.116 0.320 o
2 -1 4 434.122 452.466 6.964 0.739 o
2 -1 5 698.677 733.609 12.001 0.321 o
2 -1 6 58.274 68.012 2.196 10.815 o
2 -1 7 86.309 91.701 1.884 7.555 o
2 -1 8 162.953 163.899 2.388 3.437 o
2 -1 9 4.401 3.553 0.908 150.503 o
2 -1 10 12.469 11.778 1.361 54.064 o
2 -1 11 206.183 213.057 6.159 2.029 o
2 0 0 4534.310 4362.050 48.828 0.011 o
2 0 1 269.687 284.060 3.533 1.622 o
2 0 2 719.852 702.959 7.705 0.344 o
2 0 3 26.882 26.460 0.692 31.156 o
2 0 4 58.146 105.924 2.281 8.825 o
2 0 5 2.146 1.271 0.207 482.833 o
2 0 6 142.229 144.648 2.007 4.152 o
2 0 7 161.608 155.342 2.771 3.476 o
2 0 8 1.870 0.993 0.423 464.476 o
2 0 9 378.584 374.152 6.755 0.928 o
2 0 10 93.065 90.618 8.236 3.158 o
2 0 11 0.004 -0.568 1.347 199.908 o
2 1 0 10042.100 9801.180 90.710 0.002 o
2 1 1 1335.480 1444.350 15.066 0.106 o
2 1 2 313.499 350.719 4.026 1.248 o
2 1 3 438.896 530.082 4.932 0.704 o
2 1 4 20.110 20.632 0.702 41.336 o
2 1 5 0.095 1.444 0.284 1261.550 o
2 1 6 30.553 24.868 0.838 28.462 o
2 1 7 119.282 111.726 2.076 5.336 o
2 1 8 378.870 349.532 5.407 1.000 o
2 1 9 17.880 14.700 1.333 42.373 o
2 1 10 6.926 8.890 1.902 55.185 o
2 2 0 4797.010 4763.270 48.576 0.010 o
2 2 1 629.161 638.110 7.528 0.420 o
2 2 2 119.396 106.445 1.434 5.620 o
2 2 3 179.961 229.190 3.218 2.598 o
2 2 4 17.229 11.722 0.726 54.093 o
2 2 5 1.022 1.139 0.259 770.083 o
2 2 6 283.155 261.876 3.637 1.603 o
2 2 7 179.844 179.866 2.852 2.965 o
2 2 8 48.864 42.680 1.588 15.505 o
2 2 9 462.232 472.717 15.190 0.507 o
2 2 10 99.104 96.662 5.680 4.357 o
2 3 0 1288.430 1308.940 15.465 0.117 o
2 3 1 228.202 266.039 3.722 1.934 o
2 3 2 241.816 281.548 3.687 1.789 o
2 3 3 84.610 89.601 1.445 7.990 o
2 3 4 3.827 3.578 0.296 237.306 o
2 3 5 63.041 54.926 1.199 12.294 o
2 3 6 38.761 49.027 1.188 18.186 o
2 3 7 16.975 15.706 1.476 41.001 o
2 3 8 80.869 84.734 4.782 5.702 o
2 3 9 49.609 53.760 3.949 9.390 o
2 3 10 139.693 131.665 6.750 2.921 o
2 4 0 1722.880 1855.890 19.299 0.066 o
2 4 1 908.302 940.537 11.367 0.216 o
2 4 2 50.768 43.370 1.059 15.933 o
2 4 3 121.652 117.850 1.496 5.295 o
2 4 4 451.069 462.595 6.126 0.720 o
2 4 5 201.078 196.728 3.144 2.550 o
2 4 6 22.226 23.904 1.035 34.697 o
2 4 7 92.352 96.854 3.263 6.173 o
2 4 8 8.892 8.193 1.235 73.761 o
2 4 9 21.993 22.019 2.827 21.312 o
2 5 0 6.227 10.356 0.332 117.864 o
2 5 1 347.215 405.520 4.791 1.028 o
2 5 2 343.609 326.791 4.047 1.182 o
2 5 3 0.016 0.553 0.174 3468.750 o
2 5 4 195.022 197.074 3.304 2.599 o
2 5 5 28.270 31.588 1.065 26.853 o
2 5 6 23.358 24.762 1.302 31.425 o
2 5 7 48.066 48.912 3.725 10.209 o
2 5 8 27.034 22.970 2.800 19.590 o
2 6 0 63.906 80.880 1.336 10.347 o
2 6 1 50.191 51.949 1.223 14.849 o
2 6 2 99.983 91.174 1.585 6.881 o
2 6 3 0.867 0.843 0.275 900.783 o
2 6 4 80.557 87.650 3.070 7.161 o
2 6 5 9.005 7.680 0.981 84.041 o
2 6 6 2.699 1.862 0.752 243.120 o
2 6 7 6.824 6.512 1.664 67.401 o
2 6 8 7.616 5.548 1.810 60.775 o
2 7 0 164.313 159.250 2.386 3.456 o
2 7 1 84.091 76.107 1.412 8.573 o
2 7 2 7.104 7.415 0.670 111.359 o
2 7 3 211.755 223.261 5.658 2.017 o
2 7 4 1.611 0.870 0.654 383.028 o
2 7 5 115.216 117.805 3.893 4.630 o
2 7 6 0.179 -0.238 1.202 243.648 o
2 8 0 1.052 2.090 0.304 579.856 o
2 8 1 404.167 409.551 7.072 0.828 o
2 8 2 7.589 7.615 0.739 103.329 o
2 8 3 43.020 41.710 2.159 15.506 o
2 8 4 44.735 47.127 2.375 14.026 o
2 8 5 19.712 18.004 2.312 27.640 o
2 8 6 28.770 25.348 2.853 18.410 o
2 9 0 3.707 2.081 0.577 234.350 o
2 9 1 42.002 44.483 1.757 16.531 o
2 9 2 164.679 168.160 4.878 2.884 o
2 9 3 87.381 92.099 7.100 3.804 o
2 9 4 9.395 8.163 1.730 55.669 o
2 10 0 52.944 56.226 2.992 10.796 o
2 10 1 208.729 210.747 8.810 1.654 o
2 10 2 3.602 3.897 1.532 96.231 o
2 10 3 24.672 25.718 2.840 19.669 o
2 11 0 34.135 44.289 3.897 11.549 o
2 11 1 7.314 5.733 1.915 57.521 o
2 11 2 24.031 19.840 2.589 22.651 o
2 12 0 62.598 67.325 5.006 6.566 o
3 -12 0 39.601 31.873 3.514 12.803 o
3 -12 1 18.881 14.754 2.576 26.463 o
3 -12 2 116.528 121.680 6.538 3.376 o
3 -12 3 23.661 27.791 2.959 18.953 o
3 -12 4 201.253 211.328 8.810 1.690 o
3 -12 5 17.734 16.590 2.378 28.650 o
3 -12 6 19.268 22.276 1.989 29.658 o
3 -12 7 32.109 36.407 6.096 7.050 o
3 -12 8 5.100 5.085 1.849 67.332 o
3 -12 9 154.281 151.201 7.503 2.455 o
3 -11 0 234.710 212.530 9.207 1.484 o
3 -11 1 28.867 32.362 3.368 15.106 o
3 -11 2 15.587 19.285 2.563 27.180 o
3 -11 3 10.484 12.073 1.981 43.840 o
3 -11 5 15.583 15.045 2.087 34.433 o
3 -11 6 59.553 62.214 4.293 7.794 o
3 -11 7 18.293 19.573 1.910 32.248 o
3 -11 8 110.760 110.760 4.563 4.520 o
3 -11 9 22.208 20.799 2.100 27.215 o
3 -10 0 99.137 94.078 4.676 5.016 o
3 -10 1 237.111 222.431 5.687 1.841 o
3 -10 2 167.313 172.002 6.175 2.542 o
3 -10 3 147.430 144.478 6.631 2.791 o
3 -10 4 133.342 137.253 6.419 3.073 o
3 -10 5 160.066 161.398 7.093 2.455 o
3 -10 6 96.479 94.826 5.244 4.714 o
3 -10 7 184.742 187.869 8.097 1.960 o
3 -10 8 46.786 56.045 4.187 9.074 o
3 -10 9 277.043 315.334 12.324 0.952 o
3 -10 10 35.181 31.173 3.527 13.485 o
3 -10 11 1.369 1.452 1.025 229.180 o
3 -9 0 252.637 240.863 9.352 1.345 o
3 -9 1 81.186 72.418 2.721 7.920 o
3 -9 2 57.004 61.687 2.523 10.841 o
3 -9 3 317.933 309.020 10.686 0.969 o
3 -9 4 283.730 282.008 10.012 1.128 o
3 -9 5 27.505 31.239 2.787 18.278 o
3 -9 6 140.858 132.947 6.274 3.050 o
3 -9 7 7.833 8.757 1.796 56.607 o
3 -9 8 323.959 323.418 13.361 0.806 o
3 -9 9 85.308 102.073 4.307 5.601 o
3 -9 10 5.022 6.458 1.948 61.243 o
3 -9 11 1.499 0.291 1.453 143.540 o
3 -8 0 99.447 91.009 4.914 4.898 o
3 -8 1 45.745 38.886 1.903 15.914 o
3 -8 2 225.488 218.034 4.485 2.068 o
3 -8 3 0.000 -0.235 0.619 948.481 o
3 -8 4 678.622 630.076 11.770 0.358 o
3 -8 5 381.831 374.681 12.139 0.732 o
3 -8 6 38.028 35.062 2.161 17.548 o
3 -8 7 160.712 167.756 5.267 2.848 o
3 -8 8 27.421 27.815 2.083 22.856 o
3 -8 9 3.434 3.627 1.433 106.782 o
3 -8 10 20.885 21.478 1.965 29.040 o
3 -8 11 0.245 0.289 0.796 495.895 o
3 -7 0 286.199 279.306 4.648 1.488 o
3 -7 1 90.055 81.908 2.250 7.397 o
3 -7 2 23.406 29.936 1.018 31.075 o
3 -7 3 65.060 61.285 1.417 11.335 o
3 -7 4 10.749 12.168 1.230 60.962 o
3 -7 5 205.624 185.993 7.344 1.953 o
3 -7 6 124.411 122.658 4.179 4.207 o
3 -7 7 39.239 43.064 2.394 15.480 o
3 -7 8 172.875 187.182 8.123 2.036 o
3 -7 9 78.585 78.312 3.461 7.182 o
3 -7 10 27.575 26.470 2.072 23.154 o
3 -7 11 94.447 107.245 7.628 3.315 o
3 -6 0 108.784 123.637 2.273 5.438 o
3 -6 1 131.639 127.415 2.303 4.602 o
3 -6 2 3.561 5.480 0.415 202.521 o
3 -6 3 6.426 5.946 0.439 138.117 o
3 -6 4 576.818 556.270 10.116 0.465 o
3 -6 5 16.580 12.188 0.716 55.182 o
3 -6 6 1.659 1.175 0.431 478.949 o
3 -6 7 117.721 118.061 4.105 4.463 o
3 -6 8 225.560 241.114 9.339 1.449 o
3 -6 9 6.052 1.854 0.855 143.595 o
3 -6 10 122.525 113.855 4.980 4.008 o
3 -6 11 91.896 92.704 4.385 5.475 o
3 -6 12 139.503 135.496 7.318 2.726 o
3 -5 0 12.213 19.806 0.654 57.296 o
3 -5 1 30.073 30.610 1.010 26.286 o
3 -5 2 19.890 22.403 0.745 40.164 o
3 -5 3 616.998 622.711 9.229 0.420 o
3 -5 4 124.997 127.227 2.275 4.814 o
3 -5 5 2222.210 2236.160 21.852 0.043 o
3 -5 6 254.297 266.787 3.993 1.736 o
3 -5 7 63.181 71.982 2.634 9.488 o
3 -5 8 288.410 296.492 7.060 1.293 o
3 -5 9 4.722 3.611 0.910 144.734 o
3 -5 10 164.433 162.244 7.516 2.316 o
3 -5 11 118.042 113.007 10.111 2.191 o
3 -5 12 4.281 9.325 2.312 47.406 o
3 -4 0 1356.570 1505.600 17.660 0.099 o
3 -4 1 58.018 85.407 2.144 9.944 o
3 -4 2 6.962 6.071 0.404 131.620 o
3 -4 3 830.832 816.351 9.384 0.265 o
3 -4 4 921.027 942.944 10.709 0.215 o
3 -4 5 262.854 254.738 3.406 1.757 o
3 -4 6 196.092 189.197 2.947 2.676 o
3 -4 7 295.178 315.686 6.396 1.273 o
3 -4 8 237.985 240.281 8.843 1.453 o
3 -4 9 54.625 62.406 3.428 9.520 o
3 -4 10 24.956 28.310 2.142 23.484 o
3 -4 11 224.347 214.406 6.566 1.847 o
3 -3 0 192.853 194.850 3.678 2.588 o
3 -3 1 236.354 244.496 3.229 1.989 o
3 -3 2 849.858 893.756 15.671 0.222 o
3 -3 3 412.556 401.521 5.619 0.855 o
3 -3 4 33.419 33.360 1.336 22.611 o
3 -3 5 412.582 396.041 5.842 0.856 o
3 -3 6 52.334 60.178 1.700 12.941 o
3 -3 7 60.199 56.491 1.927 11.691 o
3 -3 8 0.751 0.980 0.424 733.484 o
3 -3 9 235.070 245.578 9.127 1.425 o
3 -3 10 45.819 45.993 3.553 10.987 o
3 -3 11 128.118 123.872 6.195 3.321 o
3 -2 0 243.162 258.120 3.025 1.901 o
3 -2 1 1720.950 1721.070 26.308 0.065 o
3 -2 2 0.008 1.828 0.283 1156.100 o
3 -2 3 185.286 198.545 2.885 2.760 o
3 -2 4 2014.470 2044.860 25.494 0.050 o
3 -2 5 103.828 114.918 2.724 5.612 o
3 -2 6 94.883 105.191 2.636 6.255 o
3 -2 7 1.450 1.824 0.536 408.441 o
3 -2 8 19.781 19.793 1.009 39.938 o
3 -2 9 254.634 253.912 5.375 1.669 o
3 -2 10 1.897 0.819 0.812 291.051 o
3 -2 11 2.828 3.146 1.079 158.468 o
3 -1 0 164.489 149.254 1.966 3.611 o
3 -1 1 2406.250 2531.770 45.249 0.032 o
3 -1 2 922.193 915.320 12.960 0.211 o
3 -1 3 688.192 675.534 6.529 0.375 o
3 -1 4 9.630 7.690 0.413 98.190 o
3 -1 5 540.426 565.249 7.685 0.522 o
3 -1 6 148.295 151.171 3.256 3.669 o
3 -1 7 44.504 42.704 1.232 17.342 o
3 -1 8 39.703 37.824 1.527 18.766 o
3 -1 9 0.565 3.325 0.761 316.907 o
3 -1 10 93.828 97.605 3.778 5.741 o
3 0 0 301.669 332.883 3.876 1.335 o
3 0 1 644.561 610.846 7.461 0.419 o
3 0 2 34.808 46.343 1.058 20.255 o
3 0 3 36.255 36.704 0.798 22.207 o
3 0 4 9.410 14.733 0.523 77.252 o
3 0 5 62.919 65.900 1.635 11.083 o
3 0 6 35.614 37.369 1.105 21.566 o
3 0 7 24.331 21.677 1.112 33.232 o
3 0 8 56.861 51.930 1.943 12.482 o
3 0 9 160.340 147.758 3.647 3.384 o
3 0 10 167.756 176.153 8.255 2.083 o
3 1 0 509.936 513.098 5.213 0.613 o
3 1 1 218.109 226.228 2.922 2.245 o
3 1 2 42.788 34.062 0.711 20.265 o
3 1 3 372.624 351.743 3.938 1.054 o
3 1 4 4.680 39.520 3.328 20.578 o
3 1 5 270.685 269.169 4.172 1.622 o
3 1 6 31.850 33.044 1.279 23.629 o
3 1 7 398.231 372.346 6.176 0.903 o
3 1 8 103.925 104.860 2.819 5.764 o
3 1 9 59.808 49.137 3.910 8.822 o
3 1 10 23.177 18.756 2.721 22.250 o
3 2 0 303.972 311.681 4.158 1.358 o
3 2 1 2.847 7.002 0.374 204.784 o
3 2 2 258.187 257.155 3.360 1.782 o
3 2 3 2.432 1.487 0.191 428.655 o
3 2 4 99.487 97.174 2.318 6.400 o
3 2 5 1.225 0.535 0.311 762.952 o
3 2 6 385.434 371.736 5.518 0.952 o
3 2 7 53.876 58.145 1.856 12.607 o
3 2 8 15.090 19.401 1.598 39.383 o
3 2 9 282.661 272.643 10.527 1.107 o
3 2 10 42.496 52.214 4.253 9.446 o
3 3 0 4474.270 4485.950 46.164 0.011 o
3 3 1 2697.660 2894.190 27.364 0.029 o
3 3 2 82.930 95.671 1.673 7.772 o
3 3 3 25.632 22.736 0.656 34.043 o
3 3 4 124.284 111.457 2.068 5.162 o
3 3 5 177.678 168.299 3.594 2.963 o
3 3 6 0.030 -0.102 0.335 3031.490 o
3 3 7 138.347 136.157 4.266 3.728 o
3 3 8 180.050 168.492 7.437 2.182 o
3 3 9 12.074 14.834 2.391 33.334 o
3 4 0 341.183 376.369 5.157 1.075 o
3 4 1 1492.520 1450.140 15.425 0.093 o
3 4 2 140.138 144.787 3.245 3.909 o
3 4 3 705.098 667.226 12.330 0.331 o
3 4 4 3.758 4.201 0.326 225.244 o
3 4 5 183.851 169.624 7.793 2.082 o
3 4 6 380.448 360.994 8.104 0.893 o
3 4 7 76.243 75.750 3.019 7.851 o
3 4 8 68.185 69.518 4.491 6.859 o
3 4 9 54.194 47.155 3.857 9.457 o
3 5 0 4.217 2.838 0.436 221.701 o
3 5 1 178.501 158.325 2.338 3.222 o
3 5 2 1.083 1.376 0.305 668.086 o
3 5 3 340.722 311.969 5.496 1.164 o
3 5 4 53.043 44.810 2.017 13.561 o
3 5 5 59.068 62.535 2.517 10.564 o
3 5 6 7.317 6.921 1.466 73.309 o
3 5 7 58.667 49.796 2.570 11.282 o
3 5 8 11.595 8.016 1.265 63.630 o
3 6 0 0.072 0.268 0.122 5413.770 o
3 6 1 28.630 38.291 1.082 24.680 o
3 6 2 29.236 23.720 0.779 30.051 o
3 6 3 139.975 131.437 3.063 4.116 o
3 6 4 103.773 107.927 2.809 5.712 o
3 6 5 265.474 245.057 4.986 1.664 o
3 6 6 0.117 -0.567 0.727 650.547 o
3 6 7 36.280 28.425 3.025 15.418 o
3 7 0 0.158 1.369 0.205 1417.740 o
3 7 1 51.405 44.641 1.278 15.295 o
3 7 2 97.762 101.891 2.514 6.265 o
3 7 3 10.347 5.760 1.671 58.069 o
3 7 4 138.131 127.567 4.062 3.887 o
3 7 5 119.010 120.379 4.012 4.440 o
3 7 6 0.626 1.176 1.189 210.892 o
3 7 7 16.594 16.154 2.589 27.226 o
3 8 0 0.454 -0.005 0.355 1506.750 o
3 8 1 13.534 16.709 1.013 52.837 o
3 8 2 99.325 91.518 6.149 4.133 o
3 8 3 123.842 132.362 7.258 2.937 o
3 8 4 43.502 43.549 3.263 12.156 o
3 9 0 23.165 22.822 2.074 26.286 o
3 9 1 175.956 186.957 8.005 2.038 o
3 9 2 42.186 54.460 3.936 10.052 o
3 9 3 15.150 13.830 2.113 35.038 o
3 9 4 28.692 24.185 2.655 19.701 o
3 10 0 16.996 15.996 2.444 28.598 o
3 10 1 61.141 52.188 4.029 8.418 o
3 10 2 123.506 129.790 6.578 3.201 o
3 10 3 4.228 4.359 1.585 87.256 o
3 11 0 8.614 6.314 1.928 53.489 o
3 11 1 0.117 -0.832 1.466 166.601 o
4 -13 1 3.819 6.855 2.417 47.083 o
4 -13 2 26.239 24.912 3.302 16.770 o
4 -13 4 35.617 37.909 3.712 12.316 o
4 -13 5 3.129 4.015 1.717 85.102 o
4 -13 6 18.543 19.853 2.880 22.673 o
4 -13 7 0.452 0.304 1.585 136.199 o
4 -12 0 1.560 0.330 1.678 111.613 o
4 -12 1 25.365 29.178 3.461 15.715 o
4 -12 2 48.447 57.921 4.531 8.267 o
4 -12 3 0.019 0.819 1.440 166.420 o
4 -12 4 0.049 0.819 1.427 168.774 o
4 -12 5 10.954 7.133 1.902 48.876 o
4 -12 6 1.374 1.400 1.374 150.333 o
4 -12 7 82.545 88.525 5.640 4.901 o
4 -12 8 0.008 -0.304 1.400 185.013 o
4 -11 0 212.609 215.819 9.695 1.512 o
4 -11 1 24.035 22.759 2.985 19.444 o
4 -11 2 0.559 -0.277 1.255 211.538 o
4 -11 3 125.144 115.603 6.248 3.409 o
4 -11 4 62.392 63.944 4.504 7.289 o
4 -11 5 77.018 74.379 4.887 5.947 o
4 -11 6 146.908 151.056 7.450 2.537 o
4 -11 7 2.251 0.555 1.374 143.425 o
4 -11 8 240.413 247.824 10.382 1.279 o
4 -11 9 0.266 0.304 1.294 203.791 o
4 -10 0 29.313 32.590 3.685 13.729 o
4 -10 1 67.512 67.470 2.928 8.923 o
4 -10 2 215.237 218.598 5.939 1.973 o
4 -10 3 9.751 10.207 1.203 67.870 o
4 -10 4 335.636 351.354 12.350 0.812 o
4 -10 5 18.179 22.983 2.695 23.682 o
4 -10 6 88.752 83.466 5.217 5.112 o
4 -10 7 292.124 302.204 8.259 1.192 o
4 -10 8 3.646 5.034 1.307 110.281 o
4 -10 9 202.618 214.466 10.091 1.507 o
4 -10 10 0.519 1.281 1.572 131.301 o
4 -9 0 468.003 412.736 14.147 0.552 o
4 -9 1 1.776 2.616 0.918 222.776 o
4 -9 2 86.686 83.854 3.212 6.807 o
4 -9 3 12.300 13.132 1.307 54.103 o
4 -9 4 99.758 91.616 5.257 4.661 o
4 -9 5 154.966 167.290 7.450 2.390 o
4 -9 6 50.592 58.370 4.148 8.764 o
4 -9 7 112.180 116.601 4.502 4.438 o
4 -9 8 64.141 61.759 3.264 8.982 o
4 -9 9 1.775 1.559 1.585 114.773 o
4 -9 10 3.235 0.594 1.440 122.027 o
4 -8 0 114.632 99.528 5.561 4.051 o
4 -8 1 431.303 394.203 9.966 0.715 o
4 -8 2 24.578 24.479 2.582 21.549 o
4 -8 3 146.240 137.914 3.412 3.806 o
4 -8 4 113.872 116.690 4.537 4.378 o
4 -8 5 19.989 17.746 1.281 38.317 o
4 -8 6 217.201 207.880 8.559 1.652 o
4 -8 7 112.510 117.676 4.412 4.460 o
4 -8 8 31.503 31.800 2.298 19.412 o
4 -8 9 97.296 104.297 6.182 4.026 o
4 -8 10 0.300 0.412 1.021 310.262 o
4 -7 0 418.858 393.301 7.201 0.812 o
4 -7 1 12.816 14.322 1.028 57.015 o
4 -7 2 151.345 148.845 4.482 3.317 o
4 -7 3 6.062 9.592 0.765 106.488 o
4 -7 4 497.001 472.236 9.554 0.589 o
4 -7 5 83.651 82.146 4.689 5.726 o
4 -7 6 289.086 297.230 9.907 1.100 o
4 -7 7 18.116 19.552 1.737 34.347 o
4 -7 8 89.602 87.416 5.323 4.951 o
4 -7 9 13.584 17.317 2.563 29.018 o
4 -7 10 83.184 89.876 3.903 6.254 o
4 -7 11 18.323 19.509 3.025 21.665 o
4 -6 0 3.545 4.250 0.546 206.932 o
4 -6 1 14.210 13.578 0.834 57.705 o
4 -6 2 11.456 10.129 0.576 77.455 o
4 -6 3 88.701 83.207 3.021 6.869 o
4 -6 4 1258.260 1194.860 30.922 0.101 o
4 -6 5 871.388 843.765 23.168 0.189 o
4 -6 6 45.902 46.012 5.046 7.908 o
4 -6 7 102.815 100.985 4.465 4.933 o
4 -6 8 9.505 10.976 1.995 45.858 o
4 -6 9 195.825 197.340 8.520 1.798 o
4 -6 10 24.693 20.355 2.747 21.173 o
4 -6 11 0.268 -0.291 1.572 143.009 o
4 -5 0 5.514 3.500 0.424 176.891 o
4 -5 1 4.858 2.035 0.354 222.055 o
4 -5 2 69.031 71.555 1.461 10.194 o
4 -5 3 91.354 95.116 2.526 6.755 o
4 -5 4 46.387 40.897 2.523 13.904 o
4 -5 5 447.550 421.480 13.248 0.589 o
4 -5 6 31.737 38.263 2.153 18.957 o
4 -5 7 165.875 159.457 6.908 2.453 o
4 -5 8 312.818 316.655 11.201 0.943 o
4 -5 9 8.131 5.944 1.651 64.650 o
4 -5 10 115.346 114.811 6.182 3.601 o
4 -5 11 50.414 61.712 4.583 7.934 o
4 -4 0 0.166 1.186 0.449 920.373 o
4 -4 1 0.510 2.059 0.311 743.656 o
4 -4 2 28.354 26.968 0.901 29.015 o
4 -4 3 146.611 134.577 3.742 3.740 o
4 -4 4 235.803 231.312 4.613 1.928 o
4 -4 5 87.502 83.280 3.462 6.574 o
4 -4 6 126.076 124.260 3.996 4.221 o
4 -4 7 6.246 7.151 1.031 100.525 o
4 -4 8 22.885 25.625 2.589 21.940 o
4 -4 9 22.565 28.003 2.787 20.314 o
4 -4 10 189.374 188.093 8.123 1.926 o
4 -4 11 73.495 78.526 5.033 5.864 o
4 -3 0 578.949 577.335 6.242 0.494 o
4 -3 1 2.501 5.522 0.357 245.783 o
4 -3 2 360.449 386.704 5.620 0.993 o
4 -3 3 509.749 518.134 5.890 0.602 o
4 -3 4 6.948 4.359 0.418 142.995 o
4 -3 5 429.831 406.675 6.163 0.804 o
4 -3 6 10.030 12.927 3.560 21.331 o
4 -3 7 110.669 112.284 3.756 4.911 o
4 -3 8 227.030 220.189 5.929 1.888 o
4 -3 9 21.193 22.804 1.717 30.574 o
4 -3 10 6.080 4.399 1.506 82.377 o
4 -2 0 4297.250 4453.450 41.758 0.012 o
4 -2 1 7.707 11.819 0.591 92.749 o
4 -2 2 287.953 302.769 5.204 1.395 o
4 -2 3 481.499 469.133 5.881 0.672 o
4 -2 4 424.734 433.785 5.097 0.809 o
4 -2 5 231.291 230.987 3.990 2.020 o
4 -2 6 184.765 174.980 3.814 2.786 o
4 -2 7 88.992 88.463 3.231 6.555 o
4 -2 8 112.018 116.292 5.204 4.104 o
4 -2 9 121.286 120.655 4.057 4.359 o
4 -2 10 21.999 19.998 2.880 21.304 o
4 -1 0 639.709 630.830 6.105 0.424 o
4 -1 1 1153.120 1207.950 13.090 0.141 o
4 -1 2 569.306 570.136 6.242 0.507 o
4 -1 3 2.376 4.154 0.353 286.974 o
4 -1 4 190.483 178.226 2.532 2.868 o
4 -1 5 77.446 67.974 1.781 9.253 o
4 -1 6 13.200 12.218 0.894 61.276 o
4 -1 7 332.699 334.612 9.365 0.975 o
4 -1 8 195.260 185.972 5.119 2.393 o
4 -1 9 112.977 116.231 4.795 4.281 o
4 -1 10 28.556 26.655 3.263 16.238 o
4 0 0 797.698 849.389 7.927 0.276 o
4 0 1 448.907 451.342 5.978 0.735 o
4 0 2 12.426 14.175 0.626 65.140 o
4 0 3 45.580 37.528 1.016 18.204 o
4 0 4 152.451 149.138 2.184 3.829 o
4 0 5 646.188 642.195 8.375 0.401 o
4 0 6 58.465 51.928 2.161 11.883 o
4 0 7 2.260 2.337 0.711 262.957 o
4 0 8 156.162 144.399 6.512 2.726 o
4 0 9 33.151 33.527 2.241 18.873 o
4 0 10 9.428 7.899 2.166 44.312 o
4 1 0 156.625 145.709 2.200 3.773 o
4 1 1 57.550 52.399 1.059 13.566 o
4 1 2 181.825 188.362 2.431 2.929 o
4 1 3 3.235 6.086 0.354 208.657 o
4 1 4 118.242 110.184 1.694 5.522 o
4 1 5 369.704 345.749 4.867 1.046 o
4 1 6 490.674 490.044 9.678 0.584 o
4 1 7 67.882 69.848 4.227 7.178 o
4 1 8 5.144 1.251 0.908 157.423 o
4 1 9 57.650 69.320 4.914 6.863 o
4 2 0 1370.420 1439.360 13.904 0.104 o
4 2 1 22.547 26.770 0.805 34.371 o
4 2 2 6.385 9.373 0.504 115.788 o
4 2 3 14.961 19.013 1.569 40.176 o
4 2 4 5.425 6.169 0.294 158.722 o
4 2 5 89.315 86.139 2.421 7.195 o
4 2 6 52.214 57.115 3.632 9.612 o
4 2 7 0.185 -0.318 0.780 554.618 o
4 2 8 37.984 41.198 2.429 15.851 o
4 2 9 1.342 2.483 1.585 114.503 o
4 3 0 314.821 323.087 4.127 1.292 o
4 3 1 523.705 632.032 17.104 0.382 o
4 3 2 96.977 92.363 1.735 6.953 o
4 3 3 24.851 22.474 1.125 32.338 o
4 3 4 361.266 367.593 5.231 1.028 o
4 3 5 5.494 5.733 1.268 96.324 o
4 3 6 25.993 24.809 1.769 26.335 o
4 3 7 122.600 135.373 4.499 3.976 o
4 3 8 0.864 -0.251 1.294 191.602 o
4 3 9 90.386 83.731 5.350 4.963 o
4 4 0 166.921 165.906 2.623 3.312 o
4 4 1 2.106 2.185 0.299 400.867 o
4 4 2 116.027 108.739 2.009 5.540 o
4 4 3 1.738 2.404 0.527 353.265 o
4 4 4 0.146 0.358 0.624 769.877 o
4 4 5 2.376 2.921 0.790 226.281 o
4 4 6 140.822 147.952 5.865 3.078 o
4 4 7 13.482 13.312 1.466 48.375 o
4 4 8 84.836 93.479 5.429 4.924 o
4 5 0 439.540 463.819 6.810 0.724 o
4 5 1 1103.350 1089.650 12.001 0.159 o
4 5 2 336.859 348.257 5.963 1.100 o
4 5 3 28.385 27.216 1.102 28.006 o
4 5 4 29.232 31.841 1.814 22.671 o
4 5 5 10.229 8.523 1.097 72.525 o
4 5 6 3.364 5.397 1.096 131.528 o
4 6 0 0.582 1.102 0.282 988.636 o
4 6 1 604.649 608.802 7.294 0.451 o
4 6 2 165.685 156.485 3.475 3.258 o
4 6 3 287.910 270.522 5.155 1.471 o
4 6 4 0.090 0.116 0.509 1223.810 o
4 6 5 50.375 58.380 3.045 10.864 o
4 6 6 73.445 76.545 4.702 6.229 o
4 6 7 10.574 10.052 1.981 45.213 o
4 7 0 12.180 8.909 0.601 76.452 o
4 7 1 109.512 100.073 2.161 5.936 o
4 7 2 78.465 76.787 2.849 7.835 o
4 7 3 28.832 24.212 2.140 22.684 o
4 7 4 120.061 115.216 3.936 4.514 o
4 7 5 0.085 1.044 1.268 206.066 o
4 8 0 115.871 119.972 2.951 4.988 o
4 8 1 19.550 20.332 1.464 35.504 o
4 8 2 134.134 126.739 6.208 3.207 o
4 8 3 123.123 118.628 5.904 3.556 o
4 8 4 39.559 50.326 3.712 11.065 o
4 9 0 7.422 5.931 1.691 65.331 o
4 9 1 338.834 347.009 12.258 0.814 o
4 9 2 8.538 10.765 2.061 45.995 o
4 9 3 37.545 49.903 3.857 10.945 o
4 9 4 7.741 7.503 1.810 57.918 o
4 10 0 20.747 23.631 2.813 21.570 o
4 10 1 0.712 0.793 1.321 179.193 o
4 10 2 36.439 29.786 3.157 14.740 o
5 -12 0 0.003 -1.070 1.981 92.465 o
5 -12 1 46.153 40.089 4.134 9.913 o
5 -12 2 11.850 11.835 2.549 32.423 o
5 -12 3 2.359 3.302 1.823 83.494 o
5 -12 4 24.049 19.483 2.906 20.485 o
5 -12 5 129.440 135.971 7.344 2.824 o
5 -12 6 42.934 48.727 4.399 9.250 o
5 -11 0 14.913 18.717 2.972 23.650 o
5 -11 1 5.172 5.455 2.127 55.324 o
5 -11 2 95.930 105.169 6.353 3.950 o
5 -11 3 178.970 189.652 8.705 1.886 o
5 -11 4 178.043 198.026 9.022 1.815 o
5 -11 5 0.189 0.872 1.228 217.727 o
5 -11 6 72.562 76.320 5.323 5.662 o
5 -11 7 0.260 0.317 1.493 155.556 o
5 -10 0 137.754 137.005 11.320 1.752 o
5 -10 1 1.817 2.592 2.536 50.243 o
5 -10 2 0.662 1.296 0.865 335.884 o
5 -10 3 114.885 119.247 4.272 4.445 o
5 -10 4 108.796 117.585 6.433 3.575 o
5 -10 5 1.392 0.555 1.268 178.631 o
5 -10 6 1.090 -0.291 1.242 199.647 o
5 -10 7 4.885 4.604 1.301 102.388 o
5 -10 8 84.025 92.916 4.290 5.837 o
5 -9 0 145.618 129.962 4.762 3.490 o
5 -9 1 71.966 69.124 3.085 8.315 o
5 -9 2 114.328 114.664 4.107 4.598 o
5 -9 3 144.519 136.660 4.567 3.512 o
5 -9 4 1.033 1.532 1.255 178.656 o
5 -9 5 7.632 5.508 1.691 65.334 o
5 -9 6 0.001 -0.819 1.176 262.658 o
5 -9 7 17.529 15.953 2.582 26.817 o
5 -9 8 11.291 14.326 1.773 45.194 o
5 -9 9 104.541 113.966 6.869 3.472 o
5 -8 0 251.869 249.927 6.302 1.615 o
5 -8 1 260.453 274.958 6.992 1.454 o
5 -8 2 13.075 11.560 1.367 52.860 o
5 -8 3 26.658 28.866 1.581 25.984 o
5 -8 4 46.365 43.935 2.078 14.774 o
5 -8 5 97.368 95.545 3.606 5.757 o
5 -8 6 30.489 29.484 1.844 22.483 o
5 -8 7 0.370 0.512 1.103 263.989 o
5 -8 8 80.433 76.632 8.137 3.452 o
5 -8 9 166.066 177.791 8.559 2.029 o
5 -7 0 197.868 165.192 5.449 2.414 o
5 -7 1 152.654 136.003 4.227 3.474 o
5 -7 2 240.988 236.392 4.640 1.871 o
5 -7 3 222.623 223.202 5.620 1.944 o
5 -7 4 21.523 17.558 1.407 35.480 o
5 -7 5 11.626 13.876 1.268 55.627 o
5 -7 6 1.806 2.523 1.281 149.754 o
5 -7 7 85.958 94.247 4.623 5.479 o
5 -7 8 111.717 107.953 7.205 3.264 o
5 -7 9 3.106 5.046 1.730 81.778 o
5 -7 10 26.833 28.544 3.342 16.033 o
5 -6 0 195.497 207.253 5.318 2.261 o
5 -6 1 761.366 680.620 11.431 0.309 o
5 -6 2 97.182 102.340 2.364 6.363 o
5 -6 3 351.717 334.547 8.101 0.989 o
5 -6 4 65.175 62.461 2.747 9.596 o
5 -6 5 187.634 167.567 7.384 2.138 o
5 -6 6 210.921 219.710 16.075 0.897 o
5 -6 7 71.022 78.423 3.463 7.630 o
5 -6 8 377.936 375.843 12.971 0.707 o
5 -6 9 38.292 42.968 3.738 11.574 o
5 -6 10 31.175 29.324 3.289 15.285 o
5 -6 11 4.883 5.534 1.968 62.086 o
5 -5 0 59.053 49.924 2.063 12.105 o
5 -5 1 80.044 74.953 1.655 8.806 o
5 -5 2 276.509 263.972 5.003 1.552 o
5 -5 3 47.693 59.363 1.949 13.360 o
5 -5 4 456.858 412.944 16.088 0.515 o
5 -5 5 93.376 107.189 5.587 4.423 o
5 -5 6 1.488 0.608 1.057 230.880 o
5 -5 7 318.194 312.269 10.950 0.950 o
5 -5 8 8.079 7.529 1.717 60.146 o
5 -5 9 0.922 0.238 1.189 216.425 o
5 -5 10 6.966 6.208 1.955 56.411 o
5 -4 0 130.593 117.032 2.759 4.649 o
5 -4 1 367.399 365.446 3.882 1.051 o
5 -4 2 29.264 32.459 0.926 26.528 o
5 -4 3 84.385 77.072 2.416 7.805 o
5 -4 4 66.428 62.623 2.137 10.269 o
5 -4 5 1698.120 1683.060 24.397 0.068 o
5 -4 6 95.752 104.454 3.102 5.959 o
5 -4 7 26.850 27.939 1.938 23.969 o
5 -4 8 48.358 53.207 2.711 12.150 o
5 -4 9 6.864 5.653 1.559 73.455 o
5 -3 0 2.585 6.681 0.456 209.821 o
5 -3 1 22.485 20.009 0.670 38.857 o
5 -3 2 1.624 1.252 0.372 510.507 o
5 -3 3 5.718 7.149 0.769 121.033 o
5 -3 4 299.359 295.161 5.645 1.338 o
5 -3 5 350.185 343.831 8.952 0.944 o
5 -3 6 0.972 -0.194 0.681 511.075 o
5 -3 7 1.511 0.914 0.710 361.158 o
5 -3 8 18.222 16.898 2.061 31.710 o
5 -3 9 2.725 1.489 1.255 147.534 o
5 -2 0 101.586 102.465 1.909 6.358 o
5 -2 1 247.125 294.585 3.438 1.729 o
5 -2 2 258.437 249.519 4.114 1.756 o
5 -2 3 300.577 283.192 4.105 1.439 o
5 -2 4 0.994 2.996 0.477 420.954 o
5 -2 5 43.152 40.144 1.565 17.300 o
5 -2 6 96.550 95.908 3.407 5.914 o
5 -2 7 82.007 82.707 4.854 5.636 o
5 -2 8 10.237 9.958 1.955 46.421 o
5 -2 9 11.259 13.539 2.298 36.115 o
5 -1 0 0.658 0.531 0.213 1298.720 o
5 -1 1 76.130 65.104 1.311 9.892 o
5 -1 2 3.418 1.392 0.364 306.387 o
5 -1 3 1.097 2.417 0.391 490.816 o
5 -1 4 308.599 296.252 5.262 1.320 o
5 -1 5 377.586 365.923 6.283 0.956 o
5 -1 6 141.237 145.037 4.254 3.591 o
5 -1 7 65.796 65.643 2.716 9.431 o
5 -1 8 1.563 2.853 1.479 123.017 o
5 -1 9 178.469 181.146 7.965 2.048 o
5 0 0 261.383 241.640 2.810 1.843 o
5 0 1 282.653 320.992 4.163 1.431 o
5 0 2 7.558 3.058 0.307 148.302 o
5 0 3 953.112 897.986 9.354 0.216 o
5 0 4 570.381 562.545 7.441 0.498 o
5 0 5 218.457 221.907 4.151 2.146 o
5 0 6 9.274 8.014 0.908 84.446 o
5 0 7 5.294 4.148 1.453 90.511 o
5 0 8 32.140 33.511 3.210 15.005 o
5 0 9 0.329 1.532 1.638 122.629 o
5 1 0 128.587 136.936 1.730 4.689 o
5 1 1 1669.250 1616.570 15.678 0.076 o
5 1 2 265.590 243.089 2.948 1.802 o
5 1 3 4.629 4.648 0.581 170.505 o
5 1 4 365.214 354.627 5.376 1.031 o
5 1 5 199.709 194.761 4.669 2.376 o
5 1 6 23.687 21.306 2.430 23.655 o
5 1 7 1.670 2.100 1.361 142.684 o
5 1 8 13.264 14.429 1.700 43.536 o
5 1 9 180.284 182.902 8.731 1.894 o
5 2 0 800.255 794.229 8.102 0.285 o
5 2 1 14.514 9.289 0.317 70.031 o
5 2 2 397.507 390.409 5.080 0.913 o
5 2 3 1122.240 1103.410 13.800 0.152 o
5 2 4 14.801 15.184 1.526 43.663 o
5 2 5 177.703 186.971 7.595 2.101 o
5 2 6 37.955 58.713 4.253 9.555 o
5 2 7 50.905 54.975 4.121 8.916 o
5 2 8 85.753 88.763 5.614 4.830 o
5 3 0 377.089 372.706 6.036 0.956 o
5 3 1 936.316 873.828 12.862 0.213 o
5 3 2 372.036 363.787 6.825 0.954 o
5 3 3 217.910 234.369 4.696 2.041 o
5 3 4 13.562 11.082 1.691 45.802 o
5 3 5 1.550 2.708 1.242 159.073 o
5 3 6 385.700 376.253 12.667 0.707 o
5 3 7 8.161 9.458 1.424 67.265 o
5 3 8 29.349 25.942 3.157 16.643 o
5 4 0 1114.420 1093.640 12.212 0.157 o
5 4 1 888.381 885.357 11.370 0.229 o
5 4 2 24.455 23.644 1.258 31.294 o
5 4 3 15.502 15.418 1.341 45.288 o
5 4 4 6.017 6.367 1.453 80.780 o
5 4 5 29.782 33.108 2.083 20.831 o
5 4 6 2.140 2.251 0.899 221.158 o
5 4 7 38.817 36.549 3.355 13.072 o
5 5 0 0.073 0.413 0.338 1961.480 o
5 5 1 633.871 618.352 11.561 0.389 o
5 5 2 0.356 0.555 0.938 349.051 o
5 5 3 0.657 0.383 0.964 317.059 o
5 5 4 13.923 14.743 1.391 47.687 o
5 5 5 31.797 30.298 1.984 21.087 o
5 5 6 47.724 43.708 3.659 10.658 o
5 6 0 90.709 98.697 1.897 7.055 o
5 6 1 6.476 6.865 0.966 103.603 o
5 6 2 12.745 14.061 1.231 53.634 o
5 6 3 1.700 1.044 1.096 205.391 o
5 6 4 12.930 15.692 2.166 35.502 o
5 7 0 41.872 36.741 1.547 18.206 o
5 7 1 253.175 233.597 5.977 1.682 o
5 7 2 104.870 90.275 3.344 5.728 o
5 7 3 61.452 76.453 4.649 6.833 o
5 7 4 55.417 57.366 4.148 8.450 o
5 7 5 19.955 15.005 2.391 27.618 o
5 8 0 59.645 63.929 2.104 11.025 o
5 8 1 22.026 17.555 2.325 26.300 o
5 8 2 234.021 252.698 9.814 1.347 o
5 8 3 3.505 4.293 1.651 86.908 o
5 8 4 72.617 71.763 4.716 6.353 o
5 9 0 16.451 20.276 2.602 26.024 o
5 9 1 3.516 3.064 1.545 98.581 o
5 9 2 29.789 37.936 3.474 14.009 o
5 10 0 3.743 1.664 1.387 117.289 o
6 -11 0 12.888 16.471 3.117 23.654 o
6 -11 1 155.993 167.276 8.639 2.116 o
6 -11 2 165.660 169.178 8.493 2.074 o
6 -11 3 8.640 10.739 2.219 42.237 o
6 -11 4 98.264 115.802 6.816 3.580 o
6 -11 5 0.574 -0.647 1.664 124.523 o
6 -10 0 77.043 73.979 3.427 7.434 o
6 -10 1 31.653 33.780 3.190 15.155 o
6 -10 2 58.303 52.768 2.909 10.542 o
6 -10 3 33.861 38.176 2.521 16.860 o
6 -10 4 21.106 24.080 3.064 19.648 o
6 -10 5 4.445 2.761 1.493 97.477 o
6 -9 0 0.245 -0.122 0.799 518.619 o
6 -9 1 78.105 86.016 3.636 6.830 o
6 -9 2 66.908 64.507 3.108 8.858 o
6 -9 3 4.637 3.681 1.052 130.866 o
6 -9 4 52.653 59.413 4.504 7.992 o
6 -9 5 211.331 220.085 9.629 1.517 o
6 -9 6 0.821 0.304 1.374 170.122 o
6 -9 7 44.681 44.050 2.909 12.890 o
6 -8 0 508.567 450.697 8.426 0.608 o
6 -8 1 60.752 50.956 2.191 11.586 o
6 -8 2 23.102 18.484 2.582 23.393 o
6 -8 3 55.391 52.262 2.024 12.545 o
6 -8 4 0.012 0.542 0.657 721.052 o
6 -8 5 62.932 71.905 3.021 8.999 o
6 -8 6 0.014 0.041 0.806 551.426 o
6 -8 7 5.095 4.874 0.965 126.279 o
6 -8 8 13.488 15.446 1.862 39.789 o
6 -8 9 8.499 8.744 2.391 39.985 o
6 -7 0 148.339 117.076 3.339 4.008 o
6 -7 1 12.753 7.564 2.087 41.656 o
6 -7 2 2.372 1.661 0.521 333.513 o
6 -7 3 6.696 5.397 0.698 124.256 o
6 -7 4 39.915 39.945 4.121 10.549 o
6 -7 5 0.904 0.499 0.781 402.333 o
6 -7 6 25.148 24.037 1.837 26.582 o
6 -7 7 145.128 143.986 5.211 3.244 o
6 -7 8 15.449 15.052 2.688 27.141 o
6 -7 9 116.219 127.967 6.908 3.188 o
6 -6 0 21.447 19.602 2.074 28.296 o
6 -6 1 87.405 83.807 2.447 7.364 o
6 -6 2 0.138 0.504 0.506 1022.380 o
6 -6 3 0.195 -0.076 0.548 1038.540 o
6 -6 4 99.646 106.596 5.851 4.137 o
6 -6 5 2.253 4.187 1.268 133.451 o
6 -6 6 484.134 481.672 15.481 0.481 o
6 -6 7 90.176 88.367 5.231 4.988 o
6 -6 8 151.222 158.347 7.542 2.440 o
6 -6 9 0.377 0.806 1.334 183.582 o
6 -5 0 556.657 528.473 12.420 0.461 o
6 -5 1 0.067 0.079 0.367 2244.580 o
6 -5 2 0.046 0.199 0.378 2023.640 o
6 -5 3 105.138 109.455 2.367 5.834 o
6 -5 4 301.027 293.895 5.812 1.325 o
6 -5 5 291.179 293.970 11.360 1.005 o
6 -5 6 0.166 0.680 0.607 730.993 o
6 -5 7 20.817 23.698 1.941 28.559 o
6 -5 8 0.146 -0.238 1.123 279.798 o
6 -5 9 21.291 24.080 2.866 20.916 o
6 -4 0 322.886 324.271 3.870 1.268 o
6 -4 1 60.268 53.481 1.317 12.716 o
6 -4 2 13.719 15.686 0.762 57.310 o
6 -4 3 195.837 185.061 3.592 2.622 o
6 -4 4 12.125 10.666 1.009 64.467 o
6 -4 5 425.034 414.701 7.728 0.768 o
6 -4 6 0.460 1.206 0.627 547.082 o
6 -4 7 0.010 0.461 0.781 541.592 o
6 -4 8 78.174 79.361 3.478 7.158 o
6 -4 9 13.058 11.386 2.312 35.201 o
6 -3 0 69.204 89.344 2.117 8.746 o
6 -3 1 37.185 32.877 1.106 21.845 o
6 -3 2 9.100 7.303 0.570 99.269 o
6 -3 3 360.505 359.793 6.476 0.999 o
6 -3 4 301.421 281.906 5.674 1.355 o
6 -3 5 122.584 127.044 2.943 4.674 o
6 -3 6 7.365 6.487 1.107 91.139 o
6 -3 7 39.795 35.553 3.903 11.378 o
6 -3 8 0.141 0.277 1.242 225.142 o
6 -2 0 6.379 4.794 0.399 149.370 o
6 -2 1 59.235 60.478 1.363 12.276 o
6 -2 2 468.999 460.312 6.046 0.695 o
6 -2 3 10.885 8.950 0.823 76.990 o
6 -2 4 10.316 12.657 0.814 71.855 o
6 -2 5 339.009 332.072 8.472 1.006 o
6 -2 6 163.583 162.147 6.129 2.644 o
6 -2 7 13.545 15.652 2.391 31.802 o
6 -2 8 26.398 23.366 2.919 19.027 o
6 -2 9 13.797 14.450 2.563 29.834 o
6 -1 0 416.076 436.403 4.729 0.830 o
6 -1 1 25.431 37.093 0.947 27.390 o
6 -1 2 17.373 16.218 0.755 48.846 o
6 -1 3 1.077 1.135 0.466 571.168 o
6 -1 4 55.788 52.620 1.741 12.930 o
6 -1 5 1.401 1.452 0.542 434.736 o
6 -1 6 150.025 141.096 6.961 2.688 o
6 -1 7 1.060 2.391 1.519 125.989 o
6 -1 8 63.083 50.180 4.134 8.189 o
6 -1 9 16.817 21.583 2.972 22.266 o
6 0 0 164.004 171.305 2.297 3.365 o
6 0 1 266.815 274.592 3.828 1.649 o
6 0 2 16.576 15.447 0.912 49.338 o
6 0 3 34.213 30.726 0.976 24.108 o
6 0 4 2.582 3.200 0.511 272.718 o
6 0 5 5.116 3.144 1.347 102.643 o
6 0 6 57.084 60.879 4.385 7.852 o
6 0 7 35.881 40.128 3.672 12.254 o
6 0 8 7.339 9.154 1.981 51.623 o
6 1 0 120.379 123.694 1.881 5.138 o
6 1 1 181.988 181.160 2.540 2.966 o
6 1 2 106.945 106.940 1.778 6.047 o
6 1 3 11.396 12.357 0.718 70.343 o
6 1 4 34.817 32.886 1.570 21.224 o
6 1 5 113.842 119.487 6.182 3.587 o
6 1 6 3.186 1.810 1.334 128.453 o
6 1 7 54.389 58.396 4.531 7.874 o
6 1 8 19.612 19.628 2.787 23.027 o
6 2 0 337.326 311.196 3.778 1.241 o
6 2 1 5.133 4.068 0.263 189.426 o
6 2 2 32.995 30.379 1.353 23.422 o
6 2 3 19.565 21.095 2.364 26.331 o
6 2 4 21.676 22.059 2.523 23.694 o
6 2 5 105.477 98.353 5.495 4.298 o
6 2 6 55.462 47.671 3.883 9.277 o
6 2 7 26.706 26.774 3.078 17.590 o
6 3 0 4.223 4.194 0.637 178.754 o
6 3 1 238.275 223.503 3.874 2.005 o
6 3 2 24.698 28.775 1.726 26.226 o
6 3 3 37.657 39.693 3.223 13.428 o
6 3 4 0.026 -0.462 1.044 331.395 o
6 3 5 4.105 11.571 2.285 46.617 o
6 3 6 150.195 147.780 7.331 2.553 o
6 3 7 0.905 0.821 1.018 264.945 o
6 4 0 313.086 312.814 5.573 1.255 o
6 4 1 3.827 3.733 0.560 204.454 o
6 4 2 38.824 36.641 3.038 14.092 o
6 4 3 51.606 51.897 3.791 9.602 o
6 4 4 76.104 84.351 5.046 5.651 o
6 4 5 48.751 53.694 4.095 9.186 o
6 4 6 21.448 18.286 1.819 31.175 o
6 5 0 17.467 15.606 1.087 45.470 o
6 5 1 68.817 70.224 3.533 7.957 o
6 5 2 18.801 17.259 1.763 34.474 o
6 5 3 144.050 159.510 7.159 2.601 o
6 5 4 18.316 18.968 2.576 25.635 o
6 5 5 4.282 5.231 1.915 66.678 o
6 5 6 149.729 157.251 7.754 2.406 o
6 6 0 171.135 161.070 4.715 2.882 o
6 6 1 453.302 420.794 9.350 0.680 o
6 6 2 52.623 37.267 3.177 11.583 o
6 6 3 0.322 0.238 1.255 215.293 o
6 6 4 46.522 56.375 4.253 8.957 o
6 6 5 22.108 22.323 2.853 21.029 o
6 7 0 1.155 1.914 0.596 406.562 o
6 7 1 319.076 290.841 7.210 1.187 o
6 7 2 369.945 354.143 17.026 0.588 o
6 7 3 43.069 47.525 2.621 13.640 o
6 7 4 5.320 5.033 1.770 70.413 o
6 8 0 5.096 6.221 1.796 67.891 o
6 8 1 63.438 74.009 4.874 6.534 o
6 8 2 5.388 4.399 1.691 75.383 o
6 9 0 18.170 18.307 2.708 24.659 o
7 -11 2 2.669 1.545 1.611 104.448 o
7 -10 0 93.482 110.782 7.040 3.585 o
7 -10 1 6.985 8.510 2.219 46.247 o
7 -10 2 39.068 40.607 2.704 14.773 o
7 -10 3 9.823 9.180 1.529 59.342 o
7 -9 0 31.773 23.774 1.677 24.084 o
7 -9 1 89.048 100.852 3.401 6.135 o
7 -9 2 0.012 -0.513 0.974 381.302 o
7 -9 3 59.564 67.280 3.434 8.880 o
7 -9 4 37.367 33.894 3.619 12.643 o
7 -9 5 11.057 9.669 2.206 40.119 o
7 -8 0 54.302 45.767 2.560 12.157 o
7 -8 1 65.241 58.032 4.768 6.952 o
7 -8 2 39.805 38.856 2.032 17.008 o
7 -8 3 81.878 81.563 2.780 7.517 o
7 -8 4 10.452 11.637 2.179 40.173 o
7 -8 5 5.187 4.030 1.038 123.766 o
7 -8 6 0.011 -0.053 0.884 463.270 o
7 -8 7 30.704 34.224 3.553 13.869 o
7 -7 0 126.460 120.808 5.865 3.498 o
7 -7 1 97.330 104.183 4.313 5.147 o
7 -7 2 19.351 16.064 1.205 40.979 o
7 -7 3 121.147 118.827 3.351 4.681 o
7 -7 4 63.478 65.674 3.844 8.063 o
7 -7 5 41.223 53.667 3.540 11.105 o
7 -7 6 14.126 17.555 2.259 32.321 o
7 -7 7 26.206 31.389 2.227 21.769 o
7 -7 8 175.222 167.990 8.203 2.070 o
7 -6 0 70.531 62.888 3.004 8.765 o
7 -6 1 320.106 298.518 5.937 1.238 o
7 -6 2 49.358 52.087 1.839 13.927 o
7 -6 3 1.738 1.591 0.592 364.419 o
7 -6 4 6.240 7.372 1.321 84.048 o
7 -6 5 13.556 18.653 1.702 40.246 o
7 -6 6 80.369 82.434 2.938 7.446 o
7 -6 7 150.981 151.188 5.346 3.067 o
7 -6 8 1.093 2.391 1.479 131.001 o
7 -5 0 11.024 15.832 1.026 59.764 o
7 -5 1 328.475 306.696 4.720 1.248 o
7 -5 2 17.667 15.252 0.928 47.335 o
7 -5 3 6.392 8.098 0.751 110.806 o
7 -5 4 0.061 0.009 0.657 810.061 o
7 -5 5 117.893 122.331 3.666 4.593 o
7 -5 6 2.516 1.970 0.823 231.045 o
7 -5 7 5.882 4.246 1.186 104.489 o
7 -4 0 15.926 14.494 0.831 52.636 o
7 -4 1 12.993 17.415 0.917 54.725 o
7 -4 2 57.715 57.641 2.020 11.817 o
7 -4 3 1.972 2.554 0.654 288.892 o
7 -4 4 83.284 94.866 2.577 7.184 o
7 -4 5 63.820 64.419 2.133 10.464 o
7 -4 6 78.459 77.972 2.843 7.801 o
7 -4 7 127.521 131.203 7.186 2.925 o
7 -4 8 28.468 32.282 3.632 14.100 o
7 -3 0 18.416 22.864 1.063 39.241 o
7 -3 1 115.515 100.878 2.180 5.657 o
7 -3 2 13.109 17.840 0.810 55.507 o
7 -3 3 107.927 124.372 2.721 5.280 o
7 -3 4 0.414 0.623 0.550 745.709 o
7 -3 5 464.838 467.551 7.320 0.674 o
7 -3 6 95.343 102.395 6.169 4.092 o
7 -3 7 73.360 73.824 5.178 5.817 o
7 -3 8 14.426 18.175 2.840 25.267 o
7 -2 0 56.372 42.802 1.292 14.415 o
7 -2 1 0.249 1.175 0.387 1003.230 o
7 -2 2 0.313 0.215 0.317 1752.060 o
7 -2 3 15.638 12.253 1.193 50.179 o
7 -2 4 36.371 34.730 1.391 20.903 o
7 -2 5 300.789 301.957 11.492 0.967 o
7 -2 6 78.507 75.607 5.204 5.578 o
7 -2 7 37.926 41.106 3.949 11.148 o
7 -2 8 0.237 -0.925 1.598 138.868 o
7 -1 0 17.799 18.485 0.761 46.016 o
7 -1 1 1.697 0.425 0.317 618.811 o
7 -1 2 0.112 0.634 0.395 1370.240 o
7 -1 3 142.089 143.773 5.226 3.288 o
7 -1 4 40.406 36.952 3.527 12.291 o
7 -1 5 151.003 153.341 7.582 2.455 o
7 -1 6 7.285 6.987 2.061 51.505 o
7 -1 7 8.502 7.595 1.995 50.507 o
7 -1 8 5.705 8.163 2.325 45.707 o
7 0 0 52.562 43.602 1.223 15.241 o
7 0 1 111.302 116.796 2.336 5.449 o
7 0 2 110.448 106.333 3.420 5.183 o
7 0 3 2.844 2.483 1.427 117.873 o
7 0 4 235.783 228.670 7.179 1.668 o
7 0 5 75.582 70.390 4.953 6.017 o
7 0 6 71.735 75.911 5.297 5.723 o
7 0 7 3.082 2.140 1.559 103.982 o
7 0 8 22.375 21.821 3.210 18.684 o
7 1 0 277.937 287.885 3.754 1.556 o
7 1 1 54.905 61.846 2.055 11.860 o
7 1 2 14.436 11.938 1.006 56.353 o
7 1 3 433.282 412.049 13.896 0.592 o
7 1 4 5.497 4.782 1.651 76.228 o
7 1 5 26.686 29.456 3.249 16.406 o
7 1 6 2.103 3.289 1.783 87.746 o
7 1 7 14.985 17.396 2.880 24.793 o
7 2 0 2.833 2.910 0.414 286.120 o
7 2 1 1063.100 1021.780 15.312 0.165 o
7 2 2 2.060 2.758 1.222 153.114 o
7 2 3 105.531 112.447 6.050 3.859 o
7 2 4 7.566 6.631 1.823 59.004 o
7 2 5 9.578 8.823 2.127 44.335 o
7 2 6 30.163 33.947 3.659 13.584 o
7 2 7 0.059 0.317 1.545 148.585 o
7 3 0 53.073 56.772 3.632 9.550 o
7 3 1 102.412 102.661 3.824 5.301 o
7 3 2 38.199 40.044 2.596 15.370 o
7 3 3 4.272 5.050 1.190 114.704 o
7 3 4 36.597 31.305 3.236 14.277 o
7 3 5 23.953 23.564 3.025 19.103 o
7 3 6 68.191 70.865 5.323 5.917 o
7 4 0 47.531 45.689 3.223 11.585 o
7 4 1 29.712 30.788 2.016 21.644 o
7 4 2 112.750 113.132 4.129 4.652 o
7 4 3 14.566 14.359 1.611 43.216 o
7 4 4 3.562 2.761 1.585 96.062 o
7 4 5 12.460 8.810 2.179 39.460 o
7 5 0 73.221 76.775 3.179 7.852 o
7 5 1 0.100 1.156 0.822 428.565 o
7 5 2 0.045 0.467 1.004 336.614 o
7 5 3 20.192 19.274 1.819 31.781 o
7 5 4 16.110 17.449 2.655 26.448 o
7 6 0 5.845 8.046 1.803 62.477 o
7 6 1 245.377 224.163 6.241 1.727 o
7 6 2 1.603 4.828 1.174 150.982 o
7 6 3 0.585 0.278 1.034 289.986 o
7 6 4 19.708 15.058 2.417 27.486 o
7 7 0 195.217 212.103 6.763 2.024 o
7 7 1 6.874 7.357 1.303 81.766 o
7 7 2 20.150 25.084 2.708 22.293 o
8 -10 0 51.532 58.013 4.465 8.172 o
8 -10 1 346.754 378.287 13.724 0.718 o
8 -10 2 6.170 5.231 2.008 57.587 o
8 -9 0 48.132 39.943 3.593 10.973 o
8 -9 1 3.335 7.093 1.968 64.305 o
8 -9 2 57.113 58.264 4.557 7.675 o
8 -9 3 29.224 33.339 3.659 13.784 o
8 -8 0 1.842 2.272 1.585 110.957 o
8 -8 1 42.389 48.734 2.835 13.081 o
8 -8 2 112.536 107.027 4.303 4.655 o
8 -8 3 0.345 0.435 0.791 472.484 o
8 -8 4 139.641 162.442 6.829 2.722 o
8 -7 0 153.129 152.285 5.291 3.044 o
8 -7 1 5.815 7.926 1.098 96.996 o
8 -7 2 9.421 10.884 1.003 73.949 o
8 -7 3 104.105 112.670 3.040 5.490 o
8 -7 4 5.998 6.397 1.040 104.808 o
8 -7 5 170.797 180.559 5.771 2.548 o
8 -7 6 44.305 38.847 3.395 12.011 o
8 -7 7 37.910 35.281 3.725 12.146 o
8 -6 0 116.103 96.183 3.695 5.024 o
8 -6 1 211.135 207.932 4.238 2.262 o
8 -6 2 0.071 0.324 0.611 841.136 o
8 -6 3 8.012 6.350 0.780 103.121 o
8 -6 4 102.164 105.688 3.324 5.544 o
8 -6 5 1.536 1.825 1.069 205.600 o
8 -6 6 111.261 109.532 4.232 4.692 o
8 -5 0 275.854 273.867 5.088 1.525 o
8 -5 1 14.977 15.275 0.953 52.185 o
8 -5 2 17.550 20.082 1.361 38.954 o
8 -5 3 39.954 40.794 1.711 17.699 o
8 -5 4 18.915 18.326 1.807 33.390 o
8 -5 5 86.828 81.392 3.040 7.008 o
8 -5 6 33.468 30.417 1.930 20.689 o
8 -4 0 0.597 -0.229 0.540 819.726 o
8 -4 1 175.997 172.463 3.660 2.946 o
8 -4 2 0.939 0.141 0.546 654.397 o
8 -4 3 202.061 194.706 4.068 2.436 o
8 -4 4 80.662 81.312 2.904 7.492 o
8 -4 5 31.253 30.004 2.034 21.104 o
8 -4 6 2.376 3.609 1.347 125.849 o
8 -3 0 8.914 13.143 0.991 71.825 o
8 -3 1 0.308 0.703 0.467 942.777 o
8 -3 2 199.854 197.773 3.672 2.495 o
8 -3 3 0.526 1.956 0.708 411.073 o
8 -3 4 48.762 51.383 1.926 13.929 o
8 -3 5 214.565 218.293 4.491 2.156 o
8 -3 6 27.840 28.637 3.553 14.865 o
8 -2 0 8.988 9.571 0.876 82.974 o
8 -2 1 4.063 2.470 0.617 208.680 o
8 -2 2 7.414 6.326 0.673 113.366 o
8 -2 3 69.437 72.046 2.459 9.126 o
8 -2 4 171.566 175.253 4.179 2.892 o
8 -2 5 13.621 15.434 3.329 21.648 o
8 -2 6 14.558 16.828 2.959 24.358 o
8 -1 0 0.285 0.086 0.495 1107.890 o
8 -1 1 7.565 7.778 0.997 91.276 o
8 -1 2 130.857 134.943 8.526 2.457 o
8 -1 3 60.779 57.812 1.929 11.520 o
8 -1 4 49.837 53.081 2.949 11.445 o
8 -1 5 523.039 499.346 17.092 0.420 o
8 -1 6 145.301 145.099 7.872 2.468 o
8 0 0 26.206 30.288 1.594 25.760 o
8 0 1 0.715 0.615 0.596 590.432 o
8 0 2 28.318 25.493 2.576 20.060 o
8 0 3 71.070 75.157 2.981 8.278 o
8 0 4 170.531 163.340 8.189 2.122 o
8 0 5 3.563 3.844 1.783 79.139 o
8 0 6 182.309 176.562 8.956 1.862 o
8 1 0 20.755 24.032 1.234 34.573 o
8 1 1 81.113 79.285 3.144 7.308 o
8 1 2 199.876 206.647 6.083 2.112 o
8 1 3 9.217 9.563 1.724 54.678 o
8 1 4 66.480 73.675 3.551 7.976 o
8 1 5 69.782 74.141 5.416 5.708 o
8 2 0 143.756 144.358 3.224 3.840 o
8 2 1 147.256 135.668 6.314 2.938 o
8 2 2 78.285 79.104 3.489 7.149 o
8 2 3 15.389 15.114 1.856 37.868 o
8 2 4 31.883 37.234 2.561 17.322 o
8 3 0 24.815 22.785 2.470 22.552 o
8 3 1 51.581 51.510 2.739 11.764 o
8 3 2 15.170 14.202 1.633 42.119 o
8 3 3 52.043 47.751 3.817 9.697 o
8 3 4 28.843 28.509 2.299 20.899 o
8 4 0 10.096 10.818 1.876 47.794 o
8 4 1 218.148 213.268 6.256 1.931 o
8 4 2 22.523 20.414 3.434 17.489 o
8 4 3 9.357 11.754 1.644 54.143 o
8 5 0 25.043 24.059 1.945 25.863 o
8 5 1 5.542 5.688 1.256 96.958 o
8 5 2 9.368 10.879 1.962 46.932 o
8 6 0 11.067 10.348 1.447 56.958 o
8 6 1 17.919 18.955 2.523 26.353 o
8 6 2 12.969 10.844 2.127 38.650 o
8 7 0 8.986 6.261 1.770 57.685 o
9 -7 0 95.167 95.353 3.379 6.003 o
9 -7 1 7.253 10.968 1.272 73.419 o
9 -7 2 78.637 83.090 2.670 7.776 o
9 -7 3 46.620 57.665 2.967 11.523 o
9 -7 4 0.389 1.347 1.453 152.484 o
9 -6 0 16.092 16.704 1.748 37.721 o
9 -6 1 158.277 174.641 4.703 2.966 o
9 -6 2 63.577 67.985 2.130 10.297 o
9 -6 3 11.855 11.848 1.601 49.962 o
9 -6 4 35.047 33.662 2.331 17.908 o
9 -5 0 265.519 282.315 5.401 1.534 o
9 -5 1 23.585 21.333 1.216 33.329 o
9 -5 2 11.435 13.192 1.140 59.812 o
9 -5 3 43.883 37.882 1.762 16.882 o
9 -5 4 15.836 18.824 1.507 40.042 o
9 -5 5 53.802 51.435 3.910 9.210 o
9 -4 0 6.101 8.964 0.929 100.471 o
9 -4 1 388.974 372.862 6.420 0.917 o
9 -4 2 46.704 42.453 2.440 13.924 o
9 -4 3 19.373 20.422 1.305 37.250 o
9 -4 4 0.322 -0.105 0.720 605.326 o
9 -3 0 61.833 58.882 2.140 11.016 o
9 -3 1 4.120 3.703 0.648 185.702 o
9 -3 2 12.268 10.767 0.920 65.861 o
9 -3 3 0.611 0.375 0.892 363.911 o
9 -3 4 13.736 18.253 1.283 46.757 o
9 -2 0 5.136 4.388 0.760 147.143 o
9 -2 1 115.393 103.407 3.426 5.064 o
9 -2 2 1.870 3.382 0.700 259.496 o
9 -2 3 87.592 90.310 2.932 6.806 o
9 -2 4 38.845 43.607 2.389 15.522 o
9 -1 0 78.215 82.053 2.861 7.665 o
9 -1 1 4.188 4.645 0.787 158.162 o
9 -1 2 128.028 122.284 3.755 4.291 o
9 -1 3 36.081 39.348 1.680 19.203 o
9 -1 4 76.321 74.986 5.640 5.276 o
9 0 0 53.224 53.362 2.284 12.313 o
9 0 1 67.172 67.758 5.594 5.732 o
9 0 2 0.066 -0.674 1.096 297.906 o
9 0 3 222.423 234.007 10.422 1.358 o
9 1 0 8.830 8.325 1.087 79.310 o
9 1 1 265.797 266.853 7.432 1.412 o
9 1 2 141.574 150.978 5.328 3.209 o
9 1 3 0.404 -0.431 1.103 275.365 o
9 2 0 166.417 172.765 5.557 2.684 o
9 2 1 16.853 10.831 2.074 35.409 o
9 2 2 14.432 10.393 1.783 43.252 o
9 3 0 0.030 0.256 0.910 418.101 o
9 3 1 138.388 136.104 6.657 2.939 o
9 3 2 62.173 65.278 4.491 7.282 o
9 4 0 161.067 159.853 7.265 2.412 o
9 4 1 77.040 75.964 4.900 5.903 o
9 5 0 0.890 0.462 1.374 167.176 o
9 6 0 141.399 144.253 6.948 2.768 o
10 -5 0 17.634 17.751 1.997 32.574 o
10 -5 1 43.247 35.480 2.525 15.021 o
10 -4 0 43.576 42.361 1.907 16.006 o
10 -4 1 9.979 10.951 1.085 69.270 o
10 -4 2 17.927 20.497 2.001 31.188 o
10 -4 3 38.041 47.657 3.751 11.290 o
10 -3 0 13.922 14.686 1.072 53.239 o
10 -3 1 73.718 82.766 2.365 8.422 o
10 -3 2 3.903 6.393 1.611 82.021 o
10 -3 3 6.341 5.104 1.180 98.283 o
10 -2 0 28.334 33.806 1.739 23.017 o
10 -2 1 95.221 91.835 2.489 6.659 o
10 -2 2 123.255 133.626 15.144 1.209 o
10 -2 3 32.332 30.433 3.315 14.842 o
10 -1 0 0.067 0.208 0.731 629.144 o
10 -1 1 17.812 19.443 1.570 36.617 o
10 -1 2 58.891 63.178 3.883 8.411 o
10 0 0 41.251 49.351 3.020 12.712 o
10 1 0 17.064 11.358 1.948 36.739 o
11 -2 0 99.823 111.997 6.433 3.775 o
11 -2 1 63.090 66.493 4.953 6.626 o
;
_olex2_submission_special_instructions 'No special instructions were received'
_oxdiff_exptl_absorpt_empirical_details
;
Empirical correction (ABSPACK) includes:
- Absorption correction using spherical harmonics
- Frame scaling
;
_oxdiff_exptl_absorpt_empirical_full_max 1.272
_oxdiff_exptl_absorpt_empirical_full_min 0.669
loop_
_space_group_symop_id
_space_group_symop_operation_xyz
1 x,y,z
2 -x,-y,-z
loop_
_atom_site_label
_atom_site_type_symbol
_atom_site_fract_x
_atom_site_fract_y
_atom_site_fract_z
_atom_site_U_iso_or_equiv
_atom_site_adp_type
_atom_site_occupancy
_atom_site_refinement_flags_posn
P P 0.10293(4) 0.26441(3) 0.19024(3) 0.01574(9) Uani 1.000000 .
O O 0.15189(11) 0.17115(9) 0.06438(9) 0.0215(2) Uani 1.000000 .
N2 N 0.08267(13) 0.24520(11) 0.43870(11) 0.0201(2) Uani 1.000000 .
C2 C 0.15376(14) 0.20119(12) 0.33287(12) 0.0169(2) Uani 1.000000 .
N1 N 0.30686(14) 0.04824(12) 0.41935(12) 0.0259(2) Uani 1.000000 .
C1 C 0.26604(16) 0.10282(14) 0.32364(13) 0.0222(3) Uani 1.000000 .
H5aa H 0.31268(16) 0.07585(14) 0.24673(13) 0.0266(3) Uiso 1.000000 R
C7 C 0.26915(19) 0.03492(15) 0.63569(15) 0.0296(3) Uani 1.000000 .
H6aa H 0.34257(19) -0.02960(15) 0.63081(15) 0.0356(4) Uiso 1.000000 R
C8 C 0.23297(16) 0.09021(13) 0.52899(13) 0.0209(3) Uani 1.000000 .
C4 C 0.04672(17) 0.22933(16) 0.65404(14) 0.0278(3) Uani 1.000000 .
H8aa H -0.02728(17) 0.29354(16) 0.66097(14) 0.0334(4) Uiso 1.000000 R
C14 C 0.27865(17) 0.51382(14) 0.39728(15) 0.0278(3) Uani 1.000000 .
H9aa H 0.27287(17) 0.47605(14) 0.46448(15) 0.0334(4) Uiso 1.000000 R
C3 C 0.12132(15) 0.18907(13) 0.53910(13) 0.0193(2) Uani 1.000000 .
C15 C -0.11400(15) 0.27425(13) 0.15810(13) 0.0184(2) Uani 1.000000 .
C9 C 0.20607(15) 0.43823(13) 0.25591(13) 0.0192(2) Uani 1.000000 .
C20 C -0.18201(17) 0.38768(16) 0.23252(15) 0.0310(3) Uani 1.000000 .
H3ba H -0.11474(17) 0.46310(16) 0.30409(15) 0.0372(4) Uiso 1.000000 R
C17 C -0.38404(17) 0.16283(15) 0.01950(15) 0.0290(3) Uani 1.000000 .
H4ba H -0.45173(17) 0.08739(15) -0.05170(15) 0.0347(4) Uiso 1.000000 R
C19 C -0.35127(19) 0.38790(18) 0.19946(17) 0.0393(4) Uani 1.000000 .
H5ba H -0.39703(19) 0.46367(18) 0.24907(17) 0.0471(5) Uiso 1.000000 R
C11 C 0.2974(2) 0.62807(16) 0.19807(18) 0.0359(4) Uani 1.000000 .
H6ba H 0.3036(2) 0.66664(16) 0.13155(18) 0.0431(4) Uiso 1.000000 R
C16 C -0.21539(16) 0.16126(13) 0.05131(14) 0.0232(3) Uani 1.000000 .
H7ba H -0.17031(16) 0.08511(13) 0.00153(14) 0.0279(3) Uiso 1.000000 R
C5 C 0.08386(18) 0.17352(16) 0.75477(14) 0.0300(3) Uani 1.000000 .
H8ba H 0.03457(18) 0.19983(16) 0.83009(14) 0.0360(4) Uiso 1.000000 R
C18 C -0.45191(17) 0.27546(17) 0.09275(16) 0.0330(3) Uani 1.000000 .
H9ba H -0.56487(17) 0.27601(17) 0.07064(16) 0.0396(4) Uiso 1.000000 R
C6 C 0.19602(19) 0.07659(15) 0.74554(15) 0.0305(3) Uani 1.000000 .
H0ca H 0.22068(19) 0.04034(15) 0.81551(15) 0.0366(4) Uiso 1.000000 R
C10 C 0.21678(18) 0.49594(14) 0.15593(15) 0.0279(3) Uani 1.000000 .
H1ca H 0.16975(18) 0.44560(14) 0.06107(15) 0.0334(4) Uiso 1.000000 R
C12 C 0.36895(18) 0.70291(15) 0.33941(19) 0.0362(4) Uani 1.000000 .
H2ca H 0.42304(18) 0.79158(15) 0.36755(19) 0.0435(4) Uiso 1.000000 R
C13 C 0.35987(19) 0.64599(15) 0.43788(18) 0.0361(4) Uani 1.000000 .
H3ca H 0.40848(19) 0.69635(15) 0.53244(18) 0.0433(4) Uiso 1.000000 R
loop_
_atom_site_aniso_label
_atom_site_aniso_U_11
_atom_site_aniso_U_22
_atom_site_aniso_U_33
_atom_site_aniso_U_12
_atom_site_aniso_U_13
_atom_site_aniso_U_23
P 0.01699(16) 0.01716(16) 0.01457(16) 0.00199(11) 0.00494(11) 0.00710(12)
O 0.0243(5) 0.0235(5) 0.0177(4) 0.0041(4) 0.0083(4) 0.0071(4)
N2 0.0215(5) 0.0230(5) 0.0189(5) 0.0044(4) 0.0066(4) 0.0102(4)
C2 0.0174(5) 0.0170(6) 0.0160(5) -0.0001(4) 0.0033(4) 0.0066(4)
N1 0.0304(6) 0.0256(6) 0.0224(6) 0.0100(5) 0.0055(5) 0.0097(5)
C1 0.0236(6) 0.0247(6) 0.0186(6) 0.0062(5) 0.0061(5) 0.0076(5)
C7 0.0368(8) 0.0271(7) 0.0262(7) 0.0058(6) 0.0015(6) 0.0147(6)
C8 0.0229(6) 0.0194(6) 0.0186(6) -0.0004(5) 0.0007(5) 0.0078(5)
C4 0.0287(7) 0.0365(8) 0.0228(7) 0.0074(6) 0.0099(5) 0.0141(6)
C14 0.0299(7) 0.0226(7) 0.0280(7) 0.0004(5) 0.0003(6) 0.0102(6)
C3 0.0193(6) 0.0213(6) 0.0170(6) -0.0003(5) 0.0027(5) 0.0082(5)
C15 0.0184(6) 0.0218(6) 0.0183(6) 0.0023(5) 0.0053(5) 0.0110(5)
C9 0.0166(5) 0.0186(6) 0.0244(6) 0.0032(5) 0.0065(5) 0.0094(5)
C20 0.0235(7) 0.0318(8) 0.0289(7) 0.0047(6) 0.0061(6) 0.0010(6)
C17 0.0223(6) 0.0306(7) 0.0319(7) -0.0042(5) 0.0004(6) 0.0137(6)
C19 0.0268(7) 0.0457(9) 0.0392(9) 0.0137(7) 0.0127(7) 0.0050(7)
C11 0.0405(8) 0.0289(8) 0.0525(10) 0.0072(6) 0.0232(7) 0.0247(7)
C16 0.0236(6) 0.0206(6) 0.0253(6) 0.0020(5) 0.0037(5) 0.0099(5)
C5 0.0311(7) 0.0413(8) 0.0188(6) -0.0024(6) 0.0065(5) 0.0135(6)
C18 0.0172(6) 0.0494(9) 0.0363(8) 0.0047(6) 0.0074(6) 0.0200(7)
C6 0.0377(8) 0.0327(7) 0.0221(7) -0.0046(6) -0.0012(6) 0.0172(6)
C10 0.0345(7) 0.0256(7) 0.0294(7) 0.0047(6) 0.0135(6) 0.0140(6)
C12 0.0262(7) 0.0199(7) 0.0630(11) 0.0002(6) 0.0117(7) 0.0157(7)
C13 0.0321(8) 0.0229(7) 0.0411(9) -0.0020(6) -0.0045(6) 0.0060(6)
loop_
_atom_type_symbol
_atom_type_scat_dispersion_real
_atom_type_scat_dispersion_imag
_atom_type_scat_Cromer_Mann_a1
_atom_type_scat_Cromer_Mann_a2
_atom_type_scat_Cromer_Mann_a3
_atom_type_scat_Cromer_Mann_a4
_atom_type_scat_Cromer_Mann_b1
_atom_type_scat_Cromer_Mann_b2
_atom_type_scat_Cromer_Mann_b3
_atom_type_scat_Cromer_Mann_b4
_atom_type_scat_Cromer_Mann_c
_atom_type_scat_source
_atom_type_scat_dispersion_source
H 0.00000 0.00000 0.49300 0.32291 0.14019 0.04081 10.51090 26.12570 3.14236
57.79970 0.0030380000826
'International Tables Volume C Table 6.1.1.4 (pp. 500-502)'
'Henke, Gullikson and Davis, At. Data and Nucl. Data Tables, 1993, 54, 2'
C 0.00347 0.00161 2.31000 1.02000 1.58860 0.86500 20.84390 10.20750 0.56870
51.65120 0.215599998832
'International Tables Volume C Table 6.1.1.4 (pp. 500-502)'
'Henke, Gullikson and Davis, At. Data and Nucl. Data Tables, 1993, 54, 2'
N 0.00653 0.00323 12.21260 3.13220 2.01250 1.16630 0.00570 9.89330 28.99750
0.58260 -11.5290002823
'International Tables Volume C Table 6.1.1.4 (pp. 500-502)'
'Henke, Gullikson and Davis, At. Data and Nucl. Data Tables, 1993, 54, 2'
O 0.01158 0.00611 3.04850 2.28680 1.54630 0.86700 13.27710 5.70110 0.32390
32.90890 0.250800013542
'International Tables Volume C Table 6.1.1.4 (pp. 500-502)'
'Henke, Gullikson and Davis, At. Data and Nucl. Data Tables, 1993, 54, 2'
P 0.10434 0.09671 6.43450 4.17910 1.78000 1.49080 1.90670 27.15700 0.52600
68.16450 1.11489999294
'International Tables Volume C Table 6.1.1.4 (pp. 500-502)'
'Henke, Gullikson and Davis, At. Data and Nucl. Data Tables, 1993, 54, 2'
loop_
_geom_angle_atom_site_label_1
_geom_angle_atom_site_label_2
_geom_angle_atom_site_label_3
_geom_angle
C2 P O 109.95(5)
C15 P O 112.80(5)
C15 P C2 106.57(5)
C9 P O 112.96(5)
C9 P C2 106.87(6)
C9 P C15 107.32(6)
C3 N2 C2 116.20(11)
N2 C2 P 119.34(9)
C1 C2 P 118.21(9)
C1 C2 N2 122.43(11)
C8 N1 C1 116.14(11)
N1 C1 C2 122.69(12)
C6 C7 C8 119.82(13)
C7 C8 N1 119.55(12)
C3 C8 N1 121.38(11)
C3 C8 C7 119.07(12)
C5 C4 C3 119.76(13)
C13 C14 C9 119.82(14)
C8 C3 N2 121.14(11)
C4 C3 N2 119.22(12)
C4 C3 C8 119.64(12)
C20 C15 P 123.37(10)
C16 C15 P 116.71(10)
C16 C15 C20 119.91(12)
C14 C9 P 123.81(10)
C10 C9 P 116.69(10)
C10 C9 C14 119.46(12)
C19 C20 C15 119.74(13)
C18 C17 C16 120.50(13)
C18 C19 C20 120.24(14)
C12 C11 C10 120.08(14)
C17 C16 C15 119.74(13)
C6 C5 C4 120.59(13)
C19 C18 C17 119.87(13)
C5 C6 C7 121.10(13)
C11 C10 C9 120.05(14)
C13 C12 C11 120.01(13)
C12 C13 C14 120.57(15)
loop_
_geom_bond_atom_site_label_1
_geom_bond_atom_site_label_2
_geom_bond_distance
P O 1.4869(9)
P C2 1.8199(12)
P C15 1.7986(12)
P C9 1.8020(13)
N2 C2 1.3196(15)
N2 C3 1.3672(16)
C2 C1 1.4189(17)
N1 C1 1.3149(17)
N1 C8 1.3663(17)
C7 C8 1.4174(18)
C7 C6 1.364(2)
C8 C3 1.4184(18)
C4 C3 1.4158(18)
C4 C5 1.3666(19)
C14 C9 1.3908(19)
C14 C13 1.390(2)
C15 C20 1.3903(18)
C15 C16 1.3936(18)
C9 C10 1.3983(18)
C20 C19 1.393(2)
C17 C16 1.3892(19)
C17 C18 1.380(2)
C19 C18 1.388(2)
C11 C10 1.386(2)
C11 C12 1.388(2)
C5 C6 1.407(2)
C12 C13 1.375(2)
loop_
_refln_index_h
_refln_index_k
_refln_index_l
_refln_F_squared_meas
_refln_F_squared_sigma
0 0 1 222.3 5.33
0 0 -2 539.94 12.33
0 0 -2 503.14 12.64
0 0 2 538.55 12.3
0 0 -2 529.02 12.34
0 0 2 520.08 12.64
0 0 2 545.35 12.31
0 0 3 138.85 3.53
0 0 -3 134.67 4.03
0 0 -3 137.67 3.61
0 0 3 145.27 4.03
0 0 -3 141.21 3.61
0 0 3 140.15 3.54
0 0 -4 10.55 0.63
0 0 4 10.48 0.56
0 0 4 9.64 0.88
0 0 4 11.13 0.86
0 0 -4 12.84 0.97
0 0 -4 10.99 0.64
0 0 4 11 0.58
0 0 5 586.23 15.07
0 0 -5 604.57 14.92
0 0 5 580.88 13.85
0 0 5 595.15 14.77
0 0 -5 581.74 14.03
0 0 5 593.15 13.86
0 0 6 2.74 0.67
0 0 6 3.01 0.37
0 0 6 2.82 0.35
0 0 6 2.97 0.59
0 0 -6 2.39 0.37
0 0 -6 2.89 0.69
0 0 7 140.15 5.31
0 0 7 153.13 5.07
0 0 7 140 3.98
0 0 -7 146.08 5.2
0 0 7 143.31 3.92
0 0 -8 301.85 9.41
0 0 8 311.05 7.92
0 0 8 320.37 9.21
0 0 8 319.34 9.76
0 0 9 9.55 1.46
0 0 9 10.48 1.28
0 0 10 68.48 3.48
0 0 10 72.03 4
0 0 11 31.35 2.34
0 0 11 33.57 2.8
0 0 12 34.85 2.55
0 -1 13 -0.17 0.93
0 -1 12 25.86 2.57
0 -1 12 24.3 2.25
0 -1 11 0.9 0.76
0 -1 11 0.19 0.88
0 -1 10 38.09 2.61
0 -1 9 248.85 8.11
0 -1 9 254.05 6.73
0 -1 8 31.8 1.47
0 -1 8 26.5 1.99
0 1 -8 32.02 2.19
0 -1 8 30.32 1.35
0 -1 7 157.02 4.44
0 -1 7 151.47 4.25
0 1 -7 151.89 5.38
0 -1 7 153.04 5.34
0 -1 6 246.03 6.6
0 -1 6 252.82 6.44
0 1 -6 250.34 7.45
0 -1 6 240.75 7.35
0 1 -5 23.85 1.5
0 -1 5 23.86 1.5
0 -1 5 24.95 1.13
0 -1 5 23.54 1.2
0 -1 4 11.55 0.77
0 -1 4 10.87 0.7
0 -1 4 10.65 0.89
0 1 -4 11.48 0.94
0 -1 3 2195.45 49.58
0 -1 3 2187.02 49.68
0 1 -3 2092.36 49.95
0 -1 3 2196.58 50.02
0 -1 2 7264.12 163.09
0 -1 2 7171.61 162.98
0 -1 1 412.78 9.74
0 1 -1 423.22 9.74
0 -1 0 105.01 2.68
0 1 0 110.55 2.69
0 1 1 1990.86 45.06
0 -1 -1 1921.5 44.9
0 -1 -1 1994.37 44.97
0 1 1 2002.06 44.88
0 -1 -1 1999.59 45.07
0 1 2 320.49 7.74
0 1 2 317.76 7.97
0 1 2 316.08 7.63
0 -1 -2 316.09 7.81
0 -1 -2 320.06 8.03
0 -1 -2 319.58 7.58
0 -1 -3 289.13 6.75
0 -1 -3 278.3 6.91
0 1 3 290.7 7
0 1 3 285.54 7.6
0 -1 -3 274.51 7.38
0 1 3 298.36 7.29
0 1 4 13.79 0.74
0 -1 -4 14.32 0.75
0 -1 -4 15.18 1.07
0 1 4 16.57 1.18
0 -1 -4 14.54 0.63
0 1 4 13.52 0.94
0 1 5 216.94 6.44
0 -1 -5 203.34 6.21
0 1 5 207.7 5.41
0 -1 -5 209.15 5.16
0 -1 -5 202.59 5.43
0 1 5 208 5.97
0 1 6 231.03 6.62
0 1 6 224.72 5.85
0 -1 -6 212.93 5.86
0 -1 -6 235.96 6.97
0 1 6 220.95 7.05
0 1 7 262.83 7.61
0 1 7 265.09 8.24
0 -1 -7 280.16 8.07
0 -1 -7 255.03 6.73
0 1 7 250.47 6.7
0 1 8 27.35 2.17
0 -1 -8 27.46 2.07
0 -1 -8 23.46 1.21
0 1 8 31.28 1.96
0 1 9 336.31 10.48
0 1 9 317.16 9.47
0 1 10 15.63 1.56
0 1 11 0.12 0.64
0 -2 12 0.17 0.89
0 -2 11 135.75 5.73
0 -2 10 67.42 3.65
0 -2 10 66.59 3.77
0 -2 9 324.05 9.9
0 -2 9 314.27 8.59
0 -2 9 315.03 10.02
0 -2 8 932.42 22.03
0 -2 8 898.68 23.25
0 -2 8 893.46 21.65
0 2 -8 925.97 23.22
0 -2 8 890.76 23.14
0 -2 7 527.66 14.52
0 -2 7 561.71 13.7
0 -2 7 536.58 13.39
0 -2 7 522.41 14.54
0 2 -7 546.47 14.53
0 -2 6 86.36 3.59
0 2 -6 89.9 3.59
0 -2 6 84.56 3.57
0 -2 6 86.82 3.15
0 -2 6 85.93 2.94
0 -2 5 52 2.54
0 2 -5 72.08 2.85
0 -2 5 69.59 2.37
0 -2 5 66.13 2.78
0 -2 5 50.37 2.29
0 -2 4 908.18 22
0 2 -4 950.2 21.96
0 -2 4 940.07 21.64
0 -2 4 914.24 22.11
0 2 -4 864.34 22.02
0 -2 4 906.05 21.8
0 -2 3 2387.99 55.63
0 2 -3 2452.26 55.56
0 2 -2 303.57 7.45
0 -2 2 301.53 7.48
0 2 -1 1350.77 30.46
0 2 -1 1347.52 30.25
0 -2 1 1281.51 30.47
0 2 0 1828.07 41.57
0 -2 0 1814.84 41.58
0 2 1 60.52 1.78
0 -2 -1 61.3 2.05
0 -2 -1 62.2 1.76
0 2 1 60.48 1.72
0 -2 -1 58.06 1.86
0 -2 -2 37.26 1.66
0 -2 -2 35.83 1.55
0 2 2 37.64 1.32
0 2 2 36.92 1.51
0 -2 -2 38.22 1.39
0 -2 -2 35.7 1.41
0 -2 -3 491.84 12.68
0 -2 -3 497.17 11.66
0 -2 -3 510.26 12.08
0 2 3 510.99 12.09
0 -2 -3 506.5 12.33
0 2 3 502.26 12.57
0 -2 -4 354.97 9.18
0 2 4 351.79 8.83
0 -2 -4 339 8.13
0 -2 -4 347.16 8.58
0 2 4 363.85 9.42
0 -2 -4 353.95 8.18
0 2 5 16.54 1.08
0 -2 -5 15.69 0.9
0 2 5 13.46 1.24
0 -2 -5 17.87 1.29
0 -2 -6 276.81 8
0 2 6 290.1 8.29
0 -2 -6 271.08 6.98
0 -2 -7 0.14 0.32
0 -2 -7 0.55 0.67
0 2 7 0.12 0.54
0 2 7 0.93 0.5
0 2 8 138.25 5.51
0 2 8 131.44 4.61
0 2 9 16.89 1.45
0 2 10 46.23 2.55
0 -2 -10 46.92 3.48
0 2 11 21.66 1.78
0 -2 -11 17.52 2.34
0 -3 13 28.18 2.62
0 -3 12 104 5.3
0 -3 12 108.6 5.23
0 -3 11 1.44 0.94
0 -3 11 2.26 0.99
0 -3 10 488.94 12.86
0 -3 10 490.54 14.2
0 -3 10 473.05 14.13
0 -3 9 164.96 6.31
0 -3 9 151.34 6.13
0 -3 9 169.96 5.14
0 -3 9 167.95 5.52
0 -3 8 16.33 1.74
0 3 -8 6.91 1.2
0 -3 8 15.92 1.31
0 -3 8 9 1.35
0 -3 7 168.64 5.5
0 3 -7 151.04 5.56
0 -3 7 191.76 6.25
0 -3 7 153.72 5.71
0 3 -7 160.24 5.79
0 -3 7 183.35 5.29
0 -3 6 2.17 0.64
0 3 -6 1.83 0.6
0 -3 6 1.13 0.55
0 -3 6 1.91 0.48
0 3 -6 1.44 0.6
0 -3 6 1.96 0.52
0 -3 5 172.42 5.7
0 -3 5 181.33 5.52
0 3 -5 157.89 5.47
0 3 -5 192.95 5.55
0 -3 5 176.11 5.52
0 -3 5 190.83 5.33
0 3 -4 238.92 6.49
0 -3 4 230.47 6.67
0 -3 3 1359.85 33.08
0 3 -3 1486.85 33.07
0 3 -2 2371.85 55.45
0 -3 2 2475.45 55.39
0 -3 1 734.02 17.07
0 3 -1 763.06 17.44
0 -3 1 749.75 17.48
0 3 0 382.48 9.29
0 -3 0 373.49 9.33
0 -3 -1 35.96 1.3
0 -3 -1 37.82 1.63
0 -3 -1 37.67 1.4
0 3 1 37.94 1.36
0 -3 -2 20.06 0.95
0 -3 -2 17.67 1.06
0 -3 -2 18.2 1.19
0 3 2 19.13 0.94
0 -3 -2 17.8 1.07
0 -3 -3 43.4 1.84
0 -3 -3 45.65 1.84
0 -3 -3 47.94 2.12
0 -3 -3 44.97 2.22
0 3 3 46.41 1.71
0 -3 -4 784.62 18.96
0 3 4 782.72 18.57
0 -3 -4 781.96 19.73
0 -3 -4 788.97 17.96
0 -3 -4 738.67 18.56
0 3 5 87.01 3
0 -3 -5 86.32 3.36
0 -3 -5 88 2.84
0 -3 -5 87.97 3.86
0 -3 -6 12.4 1.24
0 3 6 10.5 0.94
0 -3 -6 8.26 1.25
0 -3 -6 10.3 0.81
0 -3 -7 90.83 3.9
0 3 7 94.46 3.42
0 -3 -7 88.07 3
0 -3 -7 94.3 4.48
0 3 8 1.1 0.54
0 -3 -8 2.15 0.93
0 3 9 10.6 1.18
0 -3 -9 10.63 1.76
0 -3 -10 2 1.17
0 3 10 2.61 0.79
0 -4 13 16.65 2.22
0 -4 12 14.86 1.93
0 -4 12 18.31 2.18
0 -4 11 187.12 7.35
0 -4 11 196.3 7.52
0 -4 10 37.46 2.83
0 -4 10 32 2.14
0 -4 10 29.92 2.49
0 -4 9 226.86 6.84
0 -4 9 232.23 7.3
0 -4 9 210.78 7.6
0 -4 9 227.2 7.95
0 4 -8 36.48 2.34
0 -4 8 37.28 2.52
0 -4 8 34.51 2.32
0 -4 8 32.38 2.12
0 -4 8 33.59 1.96
0 -4 7 1.63 0.59
0 -4 7 0.99 0.54
0 4 -7 1.02 0.52
0 4 -7 1.26 0.67
0 -4 7 0.93 0.52
0 -4 7 1.13 0.64
0 4 -6 27.9 1.73
0 -4 6 22.09 1.77
0 -4 6 27.23 1.79
0 -4 6 27.53 1.65
0 -4 6 25.16 1.7
0 4 -5 0.07 0.33
0 -4 5 -0.18 0.37
0 -4 4 4215.74 99.49
0 4 -4 4318.72 99.02
0 -4 4 4473.94 99.65
0 -4 4 4351.59 99.03
0 -4 3 99 3.56
0 4 -3 105.8 3.3
0 -4 3 102.02 3.23
0 4 -2 35.38 1.43
0 4 -2 32.2 1.1
0 -4 2 31.7 1.4
0 4 -1 543.7 12.97
0 -4 1 539.76 13.06
0 -4 1 533.28 12.44
0 -4 0 328.55 8.52
0 4 0 331.73 8.43
0 -4 -1 0.6 0.25
0 4 1 0.31 0.26
0 -4 -1 0.3 0.21
0 -4 -1 0.12 0.27
0 -4 -2 30.43 1.34
0 -4 -2 31.76 1.56
0 4 2 33.57 1.27
0 -4 -2 33.52 1.79
0 -4 -2 34.22 1.71
0 4 2 31.9 1.41
0 -4 -3 67.19 2.48
0 -4 -3 69.06 3.06
0 4 3 71.29 2.45
0 -4 -3 67.92 2.69
0 -4 -4 4.12 0.8
0 -4 -4 6 0.73
0 4 4 3.47 0.54
0 -4 -4 4.73 0.63
0 -4 -5 285.78 6.8
0 4 5 280.41 7.67
0 -4 -5 273.96 8.07
0 -4 -5 286.17 7.62
0 -4 -5 290.59 9
0 -4 -6 153.62 6.11
0 4 6 156.2 4.88
0 -4 -6 153.94 4.65
0 -4 -6 167.83 5.49
0 -4 -7 4.86 0.98
0 -4 -7 4.94 1.17
0 4 7 5.52 0.79
0 4 8 46.44 2.32
0 -4 -8 47.94 3.31
0 -4 -9 12.1 1.82
0 4 9 7.41 1
0 -5 13 6.94 1.62
0 -5 12 44.53 3.34
0 -5 12 40.41 3.1
0 -5 11 2.92 1.27
0 -5 11 3.31 1.18
0 -5 10 59.65 3.49
0 -5 10 64.3 3.36
0 -5 10 60.52 3.73
0 -5 9 65.32 3.44
0 -5 9 64.69 3.72
0 -5 9 66.1 3.41
0 -5 9 62.08 3.06
0 5 -8 3.42 0.83
0 -5 8 3.53 0.85
0 -5 8 3.53 0.83
0 -5 8 4.81 0.96
0 -5 8 4.61 1.09
0 5 -7 20.89 1.57
0 -5 7 19.56 1.6
0 -5 7 20.57 1.58
0 -5 7 19.92 1.68
0 -5 6 469.05 12.89
0 -5 6 453.66 12.37
0 5 -6 477.31 12.35
0 -5 5 88.9 3.4
0 5 -5 97.22 3.42
0 -5 5 96.88 3.92
0 -5 5 97.46 3.94
0 -5 4 998.3 25.09
0 -5 4 989.67 24.29
0 -5 4 1044.95 24.94
0 5 -4 1037.16 24.33
0 5 -3 18.34 0.9
0 5 -3 18.08 1.15
0 -5 3 16.55 1.06
0 5 -2 56.45 2.12
0 -5 2 59.5 2.31
0 -5 1 488.74 12.13
0 5 -1 476.53 11.95
0 -5 1 484.63 11.3
0 5 0 3.17 0.5
0 5 0 2.95 0.52
0 -5 0 3.69 0.37
0 -5 0 3.6 0.59
0 -5 -1 238.57 6.33
0 5 1 250.96 6.51
0 -5 -1 235.87 6.92
0 -5 -1 239.51 6.35
0 -5 -2 5.39 0.56
0 5 2 6.69 0.59
0 -5 -2 6.77 0.73
0 -5 -3 137 4.23
0 -5 -3 141.78 5.01
0 -5 -3 134.18 4.58
0 -5 -4 1187.42 28.83
0 -5 -4 1182.93 29.81
0 -5 -4 1220.11 28.75
0 5 4 1211.93 28.53
0 -5 -5 1.81 0.56
0 -5 -5 1.26 0.32
0 -5 -5 2.01 0.33
0 -5 -5 1.71 0.77
0 5 5 1.97 0.57
0 -5 -5 1.41 0.61
0 -5 -6 2.12 0.97
0 5 6 2.18 0.6
0 -5 -6 2.18 0.75
0 -5 -6 1.86 0.54
0 -5 -7 76.92 4.27
0 5 7 78.39 3.22
0 -5 -8 1.02 1.06
0 -5 -9 166.55 7.31
0 -6 13 84.4 4.72
0 -6 12 87.96 4.65
0 -6 12 92.36 5.09
0 -6 11 120.57 5.74
0 -6 11 108.17 5.15
0 -6 11 126.75 5.29
0 -6 10 7.23 1.43
0 -6 10 7.76 1.26
0 -6 10 6 1.25
0 -6 9 49.93 2.95
0 -6 9 53.01 3.37
0 -6 9 55.1 3.23
0 -6 9 54.45 2.91
0 -6 8 75.18 3.79
0 6 -8 78.86 3.5
0 -6 8 79.96 3.55
0 -6 8 67.81 3.38
0 -6 7 52.2 2.97
0 -6 7 46.7 2.51
0 6 -7 47.91 2.49
0 -6 6 63.22 3.23
0 -6 6 66.16 3.32
0 -6 6 59.36 2.71
0 6 -6 57.51 2.65
0 6 -5 6 0.8
0 -6 5 6.12 0.77
0 -6 5 5.74 1.01
0 -6 5 6.26 0.99
0 6 -4 2.61 0.43
0 -6 4 3.06 0.54
0 6 -4 2.27 0.53
0 -6 4 3.32 0.74
0 -6 3 436.65 11.13
0 6 -3 434.16 11.05
0 -6 2 75.37 2.94
0 6 -2 78.17 2.78
0 6 -1 21.55 1.27
0 -6 1 21.16 0.83
0 -6 1 19.57 1.31
0 6 0 60.5 2.49
0 -6 0 58.76 2.58
0 -6 0 62.48 2
0 -6 0 59.17 2.28
0 6 0 62.45 2.54
0 -6 -1 313.38 8.3
0 -6 -1 324.81 8.3
0 6 1 322.21 8.5
0 -6 -1 329.41 9.1
0 6 2 708.35 16.94
0 -6 -2 725.09 18.08
0 -6 -2 717.22 17.03
0 -6 -3 116.24 3.82
0 -6 -3 118 4.4
0 -6 -3 113.47 4.59
0 -6 -4 60.27 3.29
0 -6 -4 63.3 2.7
0 -6 -4 64.29 2.46
0 -6 -4 62 2.88
0 6 5 33.99 1.9
0 -6 -5 34.84 2.58
0 -6 -5 34.33 1.99
0 -6 -5 38.6 2.14
0 -6 -6 19.4 2.05
0 6 6 22.38 1.56
0 -6 -7 40.6 3.14
0 -6 -8 12.5 2.01
0 -7 13 11.72 1.83
0 -7 12 61.38 3.72
0 -7 12 66.06 4.29
0 -7 12 64.27 3.81
0 -7 11 0.49 0.82
0 -7 11 0.22 1.03
0 -7 11 -0.18 0.84
0 -7 10 48.66 3.01
0 -7 10 54.19 3.61
0 -7 10 48.19 3.21
0 -7 9 -0.13 0.6
0 -7 9 0.17 0.75
0 -7 8 7.49 1.1
0 -7 8 5.63 1.24
0 -7 8 5.3 1.08
0 7 -8 4.73 0.94
0 -7 7 93.46 3.77
0 7 -7 102.02 3.91
0 -7 7 93.94 4.45
0 -7 7 93.44 4.43
0 7 -6 0.75 0.61
0 7 -6 1.62 0.58
0 -7 6 1.45 0.74
0 -7 6 0.81 0.54
0 -7 6 1.84 0.54
0 -7 6 0.96 0.76
0 7 -5 91.84 2.98
0 -7 5 80.46 3.77
0 -7 5 78.66 3.23
0 7 -5 82.86 3.29
0 -7 4 546.17 14.38
0 -7 4 534.18 13.58
0 7 -4 542.07 13.46
0 -7 3 118.32 4.04
0 7 -3 119.97 3.91
0 -7 2 5.28 0.77
0 7 -2 4.85 0.65
0 -7 1 19.4 0.82
0 -7 1 18.06 1.37
0 7 -1 21.56 1.36
0 7 -1 17.73 1.39
0 -7 1 19.91 0.83
0 -7 0 14.03 1.25
0 -7 0 14.64 1.07
0 7 0 14.75 1.19
0 -7 0 14.8 0.84
0 7 0 14.84 1.21
0 -7 -1 1032.83 25.89
0 -7 -1 1064.21 24.93
0 -7 -1 1045.49 24.97
0 7 1 1060.3 25.22
0 -7 -2 13.29 1.41
0 7 2 13.09 1.01
0 -7 -2 14.36 1.47
0 -7 -2 13.71 1.04
0 -7 -3 71.66 2.75
0 -7 -3 62.8 3.18
0 -7 -3 62.26 3.32
0 -7 -4 160.91 5.59
0 -7 -4 144.09 5.94
0 -7 -4 156.21 4.88
0 -7 -4 158.51 5.13
0 -7 -5 11.89 1.58
0 -7 -5 10.53 1.22
0 -7 -6 20.04 2.14
0 -7 -7 0.42 0.97
0 -7 -8 30.52 2.99
0 -8 13 5.38 1.37
0 -8 12 1.38 1.1
0 -8 12 1.21 1.05
0 -8 11 50.85 3.16
0 -8 11 52.6 3.55
0 -8 10 21.67 2.28
0 -8 10 17.42 1.77
0 -8 9 41.42 2.59
0 -8 9 41.35 3.09
0 -8 9 41.32 3.06
0 8 -8 58.99 3.06
0 8 -8 61.24 2.95
0 -8 8 70.32 3.9
0 -8 8 59.61 3.64
0 -8 8 56.79 2.9
0 -8 7 44.31 3.05
0 8 -7 46.26 2.62
0 8 -7 49.81 2.38
0 -8 7 47.67 3.07
0 -8 7 42.58 2.34
0 8 -6 369.66 10.31
0 -8 6 371.2 11.54
0 -8 6 377.11 10.33
0 -8 6 354.63 9.88
0 -8 6 351.23 11.18
0 8 -6 389.19 9.78
0 -8 5 886.74 21.6
0 -8 5 853.44 22.55
0 8 -5 875.03 21.48
0 -8 4 436.37 11.47
0 8 -4 435.84 11.32
0 -8 4 408.76 12.65
0 -8 4 443.95 12.35
0 -8 3 80.43 3.89
0 -8 3 75.35 3.06
0 8 -3 71.02 2.89
0 -8 2 35.55 1.11
0 8 -2 35.77 2.15
0 8 -2 33.63 1.82
0 -8 2 34.98 2.08
0 8 -1 234.43 6.74
0 -8 1 213.82 5.55
0 -8 1 232.86 7
0 -8 1 234.56 5.63
0 8 -1 225.66 6.96
0 -8 0 23.15 1.46
0 8 0 25 1.64
0 -8 0 23.04 1.73
0 8 0 25.33 1.66
0 -8 -1 49.85 2.73
0 -8 -1 52.17 2.2
0 8 1 49.57 2.32
0 -8 -2 325.81 10.02
0 -8 -2 346.74 9.78
0 8 2 344.39 8.97
0 -8 -2 335.48 8.95
0 -8 -3 337.51 10.19
0 -8 -3 340.77 10.42
0 -8 -3 328.52 9.55
0 -8 -4 23.43 1.95
0 -8 -4 27.95 2.37
0 -8 -5 8.23 1.43
0 -8 -6 0.2 0.99
0 -8 -7 20.57 2.51
0 -9 13 5.23 1.61
0 -9 13 4.99 1.33
0 -9 12 11.52 1.68
0 -9 12 17.49 2.27
0 -9 11 0.46 0.76
0 -9 11 -0.86 1.05
0 -9 10 57.67 3.82
0 -9 10 55.1 3.12
0 -9 10 54.34 3.77
0 -9 9 69.37 4.2
0 -9 9 67.07 4.11
0 -9 9 64.9 3.24
0 -9 8 68.86 4.01
0 -9 8 63.3 3.91
0 -9 8 61.35 2.92
0 -9 7 157.68 6.65
0 9 -7 161.07 5.55
0 -9 7 157.67 5.16
0 -9 7 158.46 5.53
0 -9 7 155.82 6.41
0 -9 6 9.36 0.93
0 -9 6 7.64 1.34
0 9 -6 10.78 1.19
0 -9 6 8.55 1.06
0 -9 5 64.8 2.34
0 9 -5 64.08 2.82
0 -9 5 62.71 2.88
0 -9 5 63.4 3.5
0 -9 5 67.32 3.88
0 -9 4 126.11 3.58
0 9 -4 129.22 4.43
0 -9 4 138.38 4.67
0 -9 4 137.73 5.74
0 -9 3 111.66 5.07
0 9 -3 110.83 3.97
0 -9 3 114.17 4.21
0 -9 2 76.8 3.54
0 9 -2 82.12 3.24
0 -9 2 84.13 4.16
0 9 -1 67.43 2.97
0 -9 1 64.89 2.85
0 -9 1 73.94 3.31
0 -9 1 65.37 3.58
0 -9 0 503.27 12.95
0 9 0 505.56 13.31
0 -9 0 493.54 13.69
0 -9 0 503.74 14.21
0 -9 -1 277.25 7.67
0 9 1 279.23 7.9
0 -9 -1 289.1 8.83
0 -9 -2 10.18 1.41
0 -9 -2 10.94 1.34
0 -9 -2 10.55 1.52
0 -9 -3 91.06 4.33
0 -9 -3 84.41 4.29
0 -9 -4 79.98 3.92
0 -9 -4 77.89 4.22
0 -9 -5 195.39 7.71
0 -9 -6 3.81 1.32
0 -10 12 7.66 1.74
0 -10 11 38.07 3.36
0 -10 11 47.87 3.7
0 -10 10 6.38 1.61
0 -10 10 5.71 1.65
0 -10 9 92.04 5.05
0 -10 9 110.17 5.6
0 -10 8 31.1 2.86
0 -10 8 30.63 2.73
0 -10 7 158.97 5.52
0 -10 7 147.67 6.7
0 -10 7 157.43 6.56
0 -10 6 8.33 1.09
0 -10 6 7.55 1.56
0 -10 6 6.13 1.28
0 -10 5 4.55 0.82
0 -10 5 4.61 1.24
0 -10 5 4.74 1.15
0 -10 4 25.68 1.79
0 -10 4 22.77 2.33
0 -10 3 -0.21 0.56
0 -10 3 0.72 0.88
0 -10 2 227.32 8.16
0 -10 2 217.26 7.26
0 -10 1 118.48 4.73
0 -10 1 114.43 5.23
0 -10 0 13.76 1.7
0 -10 0 13.17 1.53
0 -10 -1 0.88 0.88
0 -10 -1 1.77 0.91
0 -10 -1 2.91 1.01
0 -10 -2 55.69 3.55
0 -10 -2 58.17 3.39
0 -10 -3 24.83 2.34
0 -10 -3 23.55 2.21
0 -10 -4 3.16 1.16
0 -10 -5 115.02 5.63
0 -11 10 57.47 4.18
0 -11 10 51.68 3.88
0 -11 9 7.1 1.49
0 -11 9 5.05 1.48
0 -11 8 144.66 6.43
0 -11 8 127.79 6.35
0 -11 7 123.29 5.76
0 -11 6 24.23 2.51
0 -11 6 20.04 2.17
0 -11 5 7.19 1.56
0 -11 5 7.66 1.39
0 -11 4 151.7 5.34
0 -11 4 139.45 6.47
0 -11 4 155.71 6.15
0 -11 3 286.36 8.58
0 -11 3 270.6 9.8
0 -11 2 32.24 2.34
0 -11 2 36.46 2.93
0 -11 1 -0.18 0.85
0 -11 1 0.55 0.81
0 -11 0 152.22 6.33
0 -11 -1 50.13 3.48
0 -11 -2 3.1 1.24
0 -12 9 141.69 6.67
0 -12 9 127.33 6.68
0 -12 8 3.73 1.28
0 -12 7 16.15 2.31
0 -12 7 18.89 2.31
0 -12 6 10.69 1.73
0 -12 6 5.72 1.55
0 -12 5 56.4 3.62
0 -12 5 55.83 4
0 -12 4 67.12 4.3
0 -12 4 60.21 3.66
0 -12 3 106.42 5.55
0 -12 2 61.03 3.99
0 -12 1 167.35 7.02
0 -12 0 20.24 2.5
0 -12 -1 7.4 1.67
0 -13 8 29.52 2.91
0 -13 7 41.73 3.39
0 -13 6 -0.21 0.97
0 -13 6 0.52 1.09
0 -13 5 32.43 3.16
0 -13 5 33.23 2.9
0 -13 4 39.45 3.02
0 -13 4 36.64 3.3
0 -13 3 68.4 4.5
0 -13 2 58.56 4.02
0 -14 6 4.63 1.48
1 -14 4 19.24 2.37
1 -14 5 -0.67 1.26
1 -13 1 12.64 2.14
1 -13 2 59.11 4.17
1 -13 3 3.41 1.48
1 -13 4 41.78 3.6
1 -13 5 1.89 1.19
1 -13 5 4.87 1.62
1 -13 6 0.88 1.05
1 -13 6 1.05 1.25
1 -13 7 3.72 1.43
1 -12 0 208.96 8.12
1 -12 1 21.12 2.39
1 -12 2 31.3 2.89
1 -12 3 39.18 3.32
1 -12 4 1.38 1.15
1 -12 5 20.61 2.27
1 -12 5 13.44 2.04
1 -12 6 16.17 2.28
1 -12 6 19.78 2.27
1 -12 7 3.72 1.31
1 -12 8 51.83 3.82
1 -12 8 48.33 3.86
1 -12 9 1.96 1.33
1 -11 -4 9.21 1.73
1 -11 -3 5.99 1.48
1 -11 -2 50.99 3.39
1 -11 -2 47.32 3.36
1 -11 -1 35.82 2.78
1 -11 -1 36.96 2.81
1 -11 0 1.27 0.95
1 -11 1 8.42 1.43
1 -11 2 7.85 1.31
1 -11 3 9.72 1.35
1 -11 4 9.06 1.64
1 -11 5 0.26 0.61
1 -11 5 -0.22 0.91
1 -11 5 -0.18 0.87
1 -11 6 0.13 0.62
1 -11 6 -0.39 0.98
1 -11 6 -0.44 1.03
1 -11 7 53.48 3.66
1 -11 7 57.35 3.19
1 -11 8 -0.23 0.9
1 -11 8 -0.22 1.03
1 -11 8 0.87 0.75
1 -11 9 106.45 5.77
1 -11 9 109.18 5.7
1 -11 10 6.65 1.67
1 -11 10 7.69 1.86
1 -10 -5 152 6.83
1 -10 -4 31.88 2.84
1 -10 -3 61.72 3.78
1 -10 -3 58.41 3.49
1 -10 -2 21 2.12
1 -10 -1 0.77 0.97
1 -10 0 2.17 0.96
1 -10 1 58.87 3.35
-1 10 -2 6.59 1.05
1 -10 2 8.84 1.35
1 -10 3 62.37 3.21
-1 10 -3 58.47 2.9
1 -10 4 195.65 6.62
-1 10 -4 191.89 6.34
1 -10 5 410.08 12.53
1 -10 5 413.23 11.71
-1 10 -5 401.48 11.38
1 -10 6 125.1 5.01
1 -10 6 127.72 5.71
1 -10 7 15.89 2.04
1 -10 7 21.81 2.34
1 -10 7 17.19 1.67
1 -10 8 21.82 2.43
1 -10 8 30.9 2.76
1 -10 8 28.29 2.03
1 -10 8 26.41 2.19
1 -10 9 25.45 2.06
1 -10 9 29.4 2.78
1 -10 9 28.76 2.82
1 -10 10 7.28 1.68
1 -10 10 5.95 1.49
1 -10 11 7.07 1.7
1 -10 12 7.93 1.82
1 -9 -6 -0.67 1.17
1 -9 -5 1.22 1.12
1 -9 -3 2.33 1.05
1 -9 -3 2.18 0.98
1 -9 -2 7.72 1.39
1 -9 -1 27.17 2.19
1 -9 0 86.2 3.95
-1 9 0 80.03 3.58
1 -9 1 7.16 0.66
1 -9 1 9.66 1.3
1 -9 2 70.39 3.52
-1 9 -2 72.9 3.2
-1 9 -3 219.28 6.92
1 -9 3 226.3 7.25
1 -9 4 1121.82 27.56
-1 9 -4 1107.22 27.24
1 -9 5 3.59 1.07
-1 9 -5 3.59 0.91
1 -9 5 4.1 0.85
1 -9 6 24.5 2.33
1 -9 6 30.99 2.13
1 -9 6 24.88 2.26
-1 9 -6 27.24 2.01
1 -9 7 69.44 4.08
-1 9 -7 67.43 3.46
1 -9 7 68.12 3.95
1 -9 8 18.72 2.12
1 -9 8 18.63 1.7
1 -9 8 17.3 2.07
1 -9 9 53.08 3.7
1 -9 9 56.07 3.17
1 -9 9 55.71 3.7
1 -9 10 12.15 1.59
1 -9 10 11.77 1.85
1 -9 11 60.88 3.64
1 -9 11 65.69 4.16
1 -9 11 59.22 4.18
1 -9 12 17.66 2.08
1 -9 12 10.98 1.92
1 -8 -7 0.23 1.04
1 -8 -6 21.34 2.37
1 -8 -5 233.54 8.63
1 -8 -4 161.19 5.92
1 -8 -4 176.01 6.79
1 -8 -3 8.72 1.39
1 -8 -3 6.23 1.06
1 -8 -2 14.69 1.64
1 -8 -2 17.14 1.31
1 -8 -2 17.09 1.29
-1 8 1 8.52 1.13
1 -8 -1 9.39 1.29
1 -8 -1 7.91 0.84
1 -8 -1 9.28 0.96
-1 8 1 9.68 0.99
1 -8 0 0.15 0.45
-1 8 0 0.08 0.48
1 -8 0 0.25 0.32
-1 8 0 0.3 0.5
1 -8 0 0.35 0.64
-1 8 -1 0.64 0.53
-1 8 -1 -0.09 0.51
1 -8 1 0.13 0.27
-1 8 -2 0.59 0.54
1 -8 2 1.97 0.78
1 -8 2 2.06 0.43
-1 8 -2 1.23 0.7
-1 8 -3 196.79 6.13
-1 8 -3 197.13 6.41
1 -8 3 192.84 6.43
-1 8 -4 0.73 0.61
1 -8 4 0.82 0.58
1 -8 5 161.06 6.17
-1 8 -5 161.57 5.56
1 -8 5 166.14 5.67
-1 8 -6 27.71 2.03
1 -8 6 28.07 2
-1 8 -6 27.55 1.67
1 -8 6 27.62 2.28
1 -8 7 -0.34 0.68
-1 8 -7 0.13 0.86
-1 8 -7 0.66 0.57
1 -8 7 0.17 0.7
1 -8 7 0.5 0.51
-1 8 -8 117.63 4.56
1 -8 8 114.29 5.3
1 -8 9 14.37 1.67
1 -8 9 12.36 1.75
1 -8 10 64.14 3.64
1 -8 10 69.54 4.07
1 -8 10 75.07 4.43
1 -8 11 3.93 1.29
1 -8 11 4.36 1.35
1 -8 11 3.35 1.22
1 -8 12 24.18 2.49
1 -8 12 18.17 2.13
1 -8 12 19.18 2.46
1 -7 -7 1.71 1.04
1 -7 -6 25.06 2.42
1 -7 -5 167.75 6.79
1 -7 -5 177.29 5.77
1 -7 -4 150.31 6.01
1 -7 -4 144.42 5.25
1 -7 -4 153.59 5.06
1 -7 -4 141.64 5.18
1 -7 -3 475.53 12.83
1 -7 -3 504.22 13.87
1 -7 -3 483.18 12.57
1 -7 -2 1.3 0.51
1 -7 -2 1.73 0.72
1 -7 -2 1.27 0.54
-1 7 1 111.05 3.79
1 -7 -1 107.99 4.38
1 -7 -1 110.98 3.77
1 -7 -1 114.38 3.64
-1 7 1 115.13 4.31
1 -7 0 18.35 1.56
-1 7 0 14.28 1.28
1 -7 0 20.08 1.34
1 -7 0 17.62 0.69
-1 7 0 22.87 1.45
-1 7 -1 3.29 0.69
-1 7 -1 4.97 0.8
1 -7 1 3.18 0.45
1 -7 1 4.23 0.81
-1 7 -2 164.17 5.29
1 -7 2 161.85 5.47
1 -7 2 153.59 4.51
-1 7 -2 150.18 5.06
1 -7 3 16.6 1.36
-1 7 -3 15.13 1.27
-1 7 -3 15.91 1.36
-1 7 -4 364.53 9.94
1 -7 4 350.77 9.93
-1 7 -5 1.13 0.68
1 -7 5 2.1 0.72
-1 7 -5 1.7 0.52
1 -7 5 1.7 0.59
1 -7 6 90.69 4.29
1 -7 6 95.55 3.97
-1 7 -6 94.38 3.6
-1 7 -6 92.24 3.95
-1 7 -7 30.1 1.99
1 -7 7 26.35 2.24
1 -7 8 14.7 1.72
1 -7 9 44.64 3.17
1 -7 9 45.1 2.89
1 -7 9 43.1 2.96
1 -7 10 15.06 1.87
1 -7 10 17.01 2.09
1 -7 10 19.13 1.95
1 -7 11 19.99 2.15
1 -7 11 19.78 2.35
1 -7 11 18.17 2.09
1 -7 12 77.8 4.39
1 -7 12 71.58 4.59
-1 6 8 44.53 2.64
1 -6 -8 48.5 3.58
-1 6 7 0.53 0.6
1 -6 -7 -0.2 0.82
-1 6 6 40.2 2.3
1 -6 -6 46.98 3.19
1 -6 -5 286.71 8.14
1 -6 -5 292.84 8.51
-1 6 5 281.04 8.29
1 -6 -5 298.29 9.6
1 -6 -4 256.36 7.68
1 -6 -4 257.33 7.88
1 -6 -4 267.04 8.6
1 -6 -4 268.63 7.66
1 -6 -3 345.77 10.13
1 -6 -3 327.14 8.98
1 -6 -3 339.51 9.29
1 -6 -2 274.94 7.54
1 -6 -2 273.85 7.42
-1 6 2 276.88 8.08
1 -6 -2 267.18 8.29
-1 6 1 11.06 1.1
-1 6 1 12.83 0.96
1 -6 -1 12.03 1.22
1 -6 -1 10.21 0.89
1 -6 0 81.79 2.27
1 -6 0 87.63 3.06
-1 6 0 85.9 3.08
1 -6 0 86.23 3.44
-1 6 0 85.53 3.26
1 -6 1 194.83 5.25
1 -6 1 196.29 6.1
-1 6 -1 206.24 5.97
-1 6 -1 195.53 5.9
-1 6 -2 225.07 6.62
1 -6 2 219.84 6.77
-1 6 -2 223.59 6.49
1 -6 2 223.34 6.01
-1 6 -3 391.96 10.3
1 -6 3 396.65 10.38
-1 6 -3 364.05 10.39
-1 6 -4 23.94 1.34
-1 6 -4 23.96 1.64
-1 6 -5 104.16 3.73
-1 6 -5 108.41 4.12
1 -6 5 109.63 4.13
1 -6 6 87.28 3.74
1 -6 6 77.84 3.49
-1 6 -6 83.3 3.4
-1 6 -6 83.21 3.51
1 -6 7 0.59 0.69
1 -6 7 0.59 0.64
1 -6 7 0.54 0.61
-1 6 -7 0.11 0.6
1 -6 8 54.25 3.31
1 -6 8 58.16 3.06
1 -6 8 54.7 3.08
1 -6 8 48.12 2.99
1 -6 9 37.55 2.89
1 -6 9 44.23 2.85
1 -6 9 46.52 2.95
1 -6 10 6.59 1.3
1 -6 10 4.91 1.14
1 -6 10 6.21 1.41
1 -6 11 17.86 2.09
1 -6 11 22.78 2.45
1 -6 11 22.19 2.09
1 -6 12 70.68 4.31
1 -6 12 80.46 4.71
1 -5 -9 85.42 4.99
-1 5 9 87.21 3.79
1 -5 -8 9.1 1.61
-1 5 8 11.44 1.25
1 -5 -7 122.13 5.73
-1 5 7 126.95 4.54
-1 5 6 200.35 6.05
1 -5 -6 186.94 6.36
1 -5 -6 184.85 5.38
1 -5 -6 198.13 7.28
1 -5 -5 116.37 4.59
1 -5 -5 123.23 5.1
-1 5 5 121.77 4.16
1 -5 -5 115.62 3.85
1 -5 -5 113.51 4.28
-1 5 4 526.01 13.4
1 -5 -4 526.94 13.84
1 -5 -4 526.86 13.49
1 -5 -4 536.87 14.54
1 -5 -4 513.98 13.37
1 -5 -3 181.18 6.13
-1 5 3 185.03 5.46
1 -5 -3 182.15 5.32
1 -5 -3 178.83 5.6
-1 5 2 14.83 1.22
1 -5 -2 13.67 1.28
1 -5 -2 15.05 1.04
1 -5 -2 12.31 0.91
1 -5 -1 1154.23 27.66
1 -5 -1 1132.52 26.92
-1 5 1 1156.49 27.5
-1 5 1 1143.09 26.9
1 -5 0 2014.03 45.94
1 -5 0 1966.29 45.13
-1 5 0 1976.83 45.98
1 -5 0 2000.56 46.43
-1 5 0 2012.7 46.25
1 -5 1 76.23 2.95
-1 5 -1 72.26 2.78
1 -5 1 74.28 2.37
-1 5 -1 78.86 2.87
-1 5 -2 1.43 0.44
-1 5 -2 1.15 0.17
-1 5 -2 1.25 0.51
1 -5 2 2.5 0.64
1 -5 2 1.58 0.36
-1 5 -3 23.75 1.21
1 -5 3 22.96 1.45
-1 5 -4 322.52 8.54
-1 5 -4 328.16 8.94
1 -5 4 308.83 8.8
1 -5 5 46.35 2.39
1 -5 5 47.81 2.47
-1 5 -5 47.9 2.36
-1 5 -5 50.2 2.33
1 -5 6 8.43 1.08
-1 5 -6 6.59 0.93
1 -5 6 8.77 1.15
-1 5 -7 70.34 3.28
1 -5 7 68.56 3.21
1 -5 7 66.95 3.52
1 -5 7 66.11 3.27
1 -5 8 0.14 0.62
1 -5 8 1.25 0.69
1 -5 8 1.07 0.79
1 -5 8 0.23 0.58
1 -5 9 12.8 1.66
1 -5 9 12.91 1.59
1 -5 9 14.73 1.49
1 -5 9 10.47 1.31
1 -5 10 36.29 2.76
1 -5 10 31.2 2.27
1 -5 10 31.91 2.68
1 -5 11 95.15 4.89
1 -5 11 95.93 5.01
1 -5 12 47.4 3.52
1 -5 12 55.34 3.75
-1 4 10 46.94 2.66
1 -4 -10 46.38 3.63
-1 4 9 14.88 1.44
1 -4 -9 13.54 1.98
-1 4 8 51.2 2.58
1 -4 -8 52.85 3.53
-1 4 7 1.29 0.55
1 -4 -7 1.04 0.79
-1 4 6 256.37 7.33
1 -4 -6 250.94 6.6
1 -4 -6 257.12 6.57
1 -4 -6 262.3 7.88
1 -4 -6 260.77 8.65
1 -4 -5 991.83 24.5
-1 4 5 957.27 23.66
1 -4 -5 984.5 24.11
1 -4 -5 974.11 23.08
1 -4 -5 986.02 23.21
1 -4 -5 1038.24 25.16
1 -4 -4 26.19 1.7
-1 4 4 23.76 1.42
1 -4 -4 26.27 1.3
1 -4 -4 29.98 2.03
1 -4 -4 26.06 1.4
1 -4 -4 30.15 1.65
1 -4 -3 105.28 3.33
1 -4 -3 103.92 3.65
1 -4 -3 107.82 3.46
-1 4 3 106.82 3.49
1 -4 -3 105.89 4.06
-1 4 2 1.46 0.46
1 -4 -2 1.71 0.38
1 -4 -2 1.89 0.35
-1 4 2 2 0.44
1 -4 -2 1.69 0.5
1 -4 -2 1.81 0.38
-1 4 1 0.19 0.34
-1 4 1 0.44 0.28
1 -4 -1 -0.07 0.3
1 -4 0 749.31 18.28
-1 4 0 737.5 18.17
-1 4 0 763.64 17.95
-1 4 -1 320.22 8.36
1 -4 1 318.39 7.92
1 -4 1 320.29 8.51
-1 4 -1 328.25 8.39
1 -4 2 159.21 4.51
-1 4 -2 158.67 4.74
1 -4 2 161.46 4.76
-1 4 -3 575.68 14.48
-1 4 -3 589.07 14.16
1 -4 3 567.3 14.39
1 -4 4 28.21 1.66
-1 4 -4 27.17 1.62
1 -4 4 30.37 1.72
1 -4 5 321.71 9.01
-1 4 -5 302.31 8.58
1 -4 5 301.14 8.59
1 -4 5 293.7 8.6
1 -4 6 163.75 5.77
1 -4 6 163.13 5.48
-1 4 -6 159.34 5.49
1 -4 6 166.64 5.42
1 -4 7 68.22 3.07
-1 4 -7 69.53 3.3
1 -4 7 68.76 3.15
1 -4 7 71.73 3.5
1 -4 8 284.49 9.06
1 -4 8 266.25 8.17
1 -4 8 279.54 8.94
1 -4 8 279.47 8.39
-1 4 -9 19.89 1.51
1 -4 9 18.25 1.94
1 -4 9 18.32 1.61
1 -4 9 21.14 1.67
1 -4 10 71.44 4.06
1 -4 10 73.86 3.4
1 -4 10 77.98 4.18
1 -4 11 30.37 2.72
1 -4 11 32.64 2.7
1 -4 12 0.79 0.95
1 -4 12 1.9 1.19
1 -4 13 128.8 6.11
-1 3 11 5.62 1.12
1 -3 -10 -0.45 1.14
-1 3 10 0.22 0.61
-1 3 9 157.15 5.38
1 -3 -9 150.83 6.68
1 -3 -8 211.37 7.79
-1 3 8 196.26 6.26
1 -3 -7 557.98 13.42
1 -3 -7 585.79 13.58
1 -3 -7 552.67 13.3
-1 3 7 573.94 14.56
1 -3 -7 581.96 15.35
1 -3 -7 592.9 16.2
1 -3 -6 12.97 1.41
1 -3 -6 14.71 0.76
-1 3 6 13.22 1.11
1 -3 -6 13.45 0.78
1 -3 -6 12.78 0.8
1 -3 -6 13.84 1.57
1 -3 -6 14.1 1.39
1 -3 -5 0.12 0.54
1 -3 -5 0.51 0.45
-1 3 5 0.13 0.31
1 -3 -5 -0.07 0.24
1 -3 -5 0.4 0.22
1 -3 -5 0.31 0.19
1 -3 -5 0.3 0.51
1 -3 -4 680.63 17.32
1 -3 -4 658.57 16.56
1 -3 -4 670.12 15.96
1 -3 -4 674.65 15.89
1 -3 -4 675.06 16.89
-1 3 4 662.28 16.29
1 -3 -3 30.98 1.31
1 -3 -3 33.22 1.86
-1 3 3 32.82 1.47
1 -3 -3 30.28 1.48
1 -3 -3 31.18 1.61
-1 3 2 16.52 1.13
1 -3 -2 16.76 0.91
-1 3 2 15.63 0.92
1 -3 -2 14.97 1.12
1 -3 -2 15.78 0.88
-1 3 1 0.21 0.27
1 -3 -1 0.7 0.24
1 -3 0 722.96 16.88
-1 3 0 704.4 16.95
1 -3 0 697.63 17.03
-1 3 0 714.44 16.73
1 -3 0 701.89 16.29
1 -3 1 68.69 2.06
1 -3 1 62.48 2.39
-1 3 -1 67.83 1.79
-1 3 -1 70.06 2.34
1 -3 2 0.69 0.27
-1 3 -2 1.24 0.3
-1 3 -2 1.06 0.35
-1 3 -2 0.87 0.34
1 -3 3 390.48 10.15
-1 3 -3 391.33 10.13
1 -3 3 401.34 10.24
1 -3 4 1274.55 31.14
-1 3 -4 1309.53 31.13
1 -3 4 1305.74 31.31
1 -3 4 1356.94 31.11
-1 3 -5 502.04 12.88
1 -3 5 481.1 12.97
1 -3 5 488.36 12.64
1 -3 6 2.23 0.65
1 -3 6 2.98 0.63
1 -3 6 2.73 0.6
-1 3 -6 2.89 0.69
-1 3 -7 43.17 2.52
1 -3 7 41.41 2.56
1 -3 7 43.57 2.19
-1 3 -7 41.66 2.5
1 -3 7 46.36 2.63
1 -3 7 42.65 2.2
1 -3 8 130.69 5.41
1 -3 8 131.84 5.3
1 -3 8 135.86 4.54
1 -3 8 131.97 4.63
1 -3 9 11.58 1.6
1 -3 9 13.13 1.22
1 -3 9 12.48 1.6
-1 3 -9 12.71 1.12
1 -3 9 12.77 1.17
1 -3 10 4.29 1.23
1 -3 10 4.88 1.18
1 -3 11 58.47 3.61
1 -3 11 61.59 3.87
1 -3 12 38.61 2.97
1 -3 12 37.19 3.12
1 -3 13 10.52 1.82
-1 2 12 4.11 1.06
-1 2 11 60.38 3.14
-1 2 10 6.33 1.04
-1 2 9 230.94 7.19
-1 2 8 304.32 8.74
-1 2 7 101.61 3.77
1 -2 -7 97.1 4.2
1 -2 -7 107.14 3.18
1 -2 -6 346.59 10.09
1 -2 -6 358.09 9.84
1 -2 -6 335.9 8.12
1 -2 -6 353.68 8.65
-1 2 6 345.92 9.24
1 -2 -5 36.25 1.46
-1 2 5 37.6 1.78
1 -2 -5 36.05 2.11
1 -2 -5 37.97 1.22
-1 2 4 160.28 4.65
1 -2 -4 162.8 4.95
1 -2 -4 168.73 4.36
1 -2 -4 163.45 5.11
1 -2 -4 156.64 4.07
1 -2 -3 29.16 1.09
1 -2 -3 29.69 1.5
-1 2 3 27.57 1.27
1 -2 -3 28.35 1.4
-1 2 2 120.21 3.28
1 -2 -2 113.49 3.26
1 -2 -1 18.73 0.81
-1 2 1 17.95 0.99
1 -2 -1 17.26 0.8
-1 2 1 16.55 0.83
1 -2 0 656.41 15.92
-1 2 0 682.14 15.92
1 -2 0 678.81 15.47
-1 2 0 691.76 15.69
1 -2 0 637.75 15.72
-1 2 -1 801.78 19.67
-1 2 -1 844.88 19.37
1 -2 1 802.91 19.65
1 -2 1 872.66 19.46
-1 2 -2 5.51 0.5
1 -2 2 4.07 0.5
-1 2 -2 5.82 0.57
-1 2 -2 4.78 0.53
1 -2 2 4.69 0.56
1 -2 3 4.85 0.58
-1 2 -3 3.85 0.56
1 -2 3 4.47 0.58
-1 2 -3 5.94 0.62
1 -2 3 4.64 0.57
-1 2 -4 537.32 13.16
1 -2 4 518.88 13.07
1 -2 4 492.07 12.78
-1 2 -4 509.39 12.8
1 -2 5 795.8 19.27
-1 2 -5 815.32 19.32
1 -2 5 801.83 19.19
1 -2 5 789.92 19.74
-1 2 -5 757.18 19.66
-1 2 -5 790.23 19.78
1 -2 6 1.21 0.45
1 -2 6 0.26 0.42
-1 2 -6 0.71 0.52
-1 2 -6 0.83 0.55
1 -2 6 0.6 0.49
1 -2 7 29.78 2.06
1 -2 7 32.15 1.68
-1 2 -7 33.07 2.13
1 -2 7 33.46 1.72
-1 2 -7 33 2.18
1 -2 8 15.98 1.18
1 -2 8 16.83 1.18
-1 2 -8 14.51 1.09
-1 2 -8 13.38 1.51
1 -2 8 13.66 1.48
1 -2 9 9.64 1.35
1 -2 9 9.96 0.91
1 -2 10 57.04 3.32
1 -2 11 4.72 1.21
1 -2 12 47.91 3.22
1 -2 13 1.07 1.08
-1 1 12 10.72 1.46
-1 1 11 19.33 1.73
1 -1 -11 21.35 2.42
1 -1 -10 75.77 4.32
-1 1 10 63.37 3.25
1 -1 -9 4.41 1.17
-1 1 9 4.39 0.95
1 -1 -8 219.09 6.08
-1 1 8 234.27 7.05
-1 1 7 368.14 10.05
1 -1 -7 369.77 10.53
1 -1 -7 356.07 9.26
1 -1 -6 95.82 3.04
-1 1 6 96.16 3.53
1 -1 -6 91.11 3.77
1 -1 -6 95.9 3.94
1 -1 -5 47.35 2.41
1 -1 -5 52.54 2.41
1 -1 -5 51.27 1.88
-1 1 5 50.32 2.2
1 -1 -4 1013.56 24.53
1 -1 -4 978.86 24.62
-1 1 4 1010.27 24.26
1 -1 -4 1067.51 23.89
1 -1 -3 120.57 3.73
1 -1 -3 120.24 3.29
1 -1 -3 118.47 3.63
-1 1 3 119.75 3.49
-1 1 2 93.38 2.65
1 -1 -2 90.35 2.71
1 -1 -1 4320.22 97.71
1 -1 0 883.94 20.27
-1 1 0 922.1 20.28
-1 1 0 929.37 20.48
-1 1 -1 140.68 3.47
1 -1 1 144.19 3.51
1 -1 2 4.43 0.5
1 -1 2 4.45 0.47
-1 1 -2 4.27 0.47
-1 1 -2 3.93 0.35
-1 1 -3 4.68 0.54
-1 1 -3 5.62 0.44
1 -1 3 6.25 0.61
-1 1 -3 5.92 0.61
1 -1 3 5.95 0.56
-1 1 -4 447.76 11.23
1 -1 4 477.93 11.64
-1 1 -4 485.76 11.93
1 -1 4 490.39 11.96
-1 1 -4 465.26 11.73
-1 1 -5 134.66 3.64
1 -1 5 125.95 3.92
-1 1 -5 142.01 4.46
-1 1 -5 114.21 3.91
1 -1 5 118.18 3.67
1 -1 5 127.7 4.37
1 -1 6 19.7 1.1
-1 1 -6 19.9 1.28
-1 1 -6 20.43 1.02
-1 1 -6 21.25 1.54
1 -1 6 18.59 1.45
1 -1 6 19.49 1.15
-1 1 -6 17.28 1.52
-1 1 -7 11.8 1.34
1 -1 7 9.45 1.13
-1 1 -7 11.73 0.76
-1 1 -7 11.2 1
1 -1 7 10.28 1.36
1 -1 7 10.39 0.78
1 -1 7 11.79 0.91
-1 1 -7 14.22 1.38
-1 1 -8 7.42 1.25
1 -1 8 5.89 1.19
1 -1 8 7.24 0.64
1 -1 8 6.75 1.06
-1 1 -8 6.83 0.6
1 -1 8 6.46 0.76
1 -1 9 7.07 1.19
1 -1 9 9.55 1.45
1 -1 10 173.61 6.98
1 -1 10 174.63 6.38
1 -1 11 34.89 2.47
1 -1 11 23.49 2.43
1 -1 12 30.8 2.47
1 0 -12 20.53 2.5
-1 0 12 28 2.27
1 0 -11 0.21 1.01
-1 0 11 0.14 0.77
-1 0 10 12.68 1.5
-1 0 9 472.66 13.15
1 0 -8 15.31 1.11
-1 0 8 19.73 1.61
1 0 -7 3.75 0.58
-1 0 7 4.71 0.87
-1 0 7 3.79 0.73
1 0 -7 4.54 0.91
-1 0 6 76.13 2.58
-1 0 6 78.36 3.16
1 0 -6 79.69 2.75
1 0 -6 76.08 3.28
1 0 -5 31.97 1.45
-1 0 5 31.2 1.68
1 0 -5 28.61 1.72
-1 0 5 31.38 1.35
1 0 -4 0.55 0.27
1 0 -4 0.5 0.36
-1 0 4 0.62 0.33
-1 0 4 0.17 0.18
1 0 -3 0.63 0.23
1 0 -3 0.74 0.31
-1 0 3 0.17 0.17
-1 0 3 0.9 0.3
1 0 -2 1730.88 39.52
1 0 -2 1666.75 39.35
-1 0 2 1774.31 39.36
1 0 -1 528.4 12.02
-1 0 1 537.48 12.03
1 0 -1 536.05 12.19
-1 0 1 521.92 12.18
1 0 0 1642.6 36.6
-1 0 0 1566.92 36.62
1 0 0 1611.29 36.43
1 0 1 923.99 20.77
1 0 1 899.21 20.65
-1 0 -1 873.2 20.69
1 0 1 892.65 20.51
-1 0 -1 881.79 20.76
1 0 2 171.18 4.43
-1 0 -2 166.83 4.44
1 0 2 177.42 4.43
1 0 3 1066.32 25.19
-1 0 -3 1085.4 24.47
-1 0 -3 1063.08 25.17
1 0 3 1068.36 24.97
-1 0 -3 1059.39 25.12
-1 0 -4 224.03 5.36
-1 0 -4 218.35 6.22
1 0 4 227.48 5.49
1 0 4 215.69 6.17
-1 0 -4 227.07 6.11
1 0 4 219.71 5.85
-1 0 -5 235.71 5.63
1 0 5 238.24 5.72
1 0 5 227.03 6.15
1 0 5 225.71 6.64
1 0 5 237.78 7.2
-1 0 -5 232.12 6.73
-1 0 -5 223.89 6.42
-1 0 -6 21.06 1.32
1 0 6 21.82 1.74
1 0 6 21.49 0.83
-1 0 -6 25.1 1.65
1 0 6 23.4 1.23
-1 0 -6 22.08 0.81
1 0 6 22.15 1.51
1 0 7 135.88 4.22
1 0 7 145.55 4.91
-1 0 -7 136.31 5
1 0 7 139.46 5.42
-1 0 -7 132.35 4.42
1 0 7 140.23 3.53
-1 0 -7 142.02 3.5
1 0 8 174.87 6.56
1 0 8 171.32 5.15
-1 0 -8 182.58 6.24
1 0 8 180.04 5.96
-1 0 -8 171.31 5.32
-1 0 -9 292.58 8.06
1 0 9 284.95 9.63
1 0 9 288.81 8.83
1 0 10 99.81 4.95
1 0 10 99.31 4.27
1 0 11 64.7 4.03
1 0 11 61.17 3.32
-1 -1 13 0.34 0.93
-1 -1 12 0.16 0.93
-1 -1 11 42.56 2.83
-1 -1 10 21.33 1.91
-1 -1 9 595.48 14.63
-1 -1 9 570.6 15.86
-1 -1 8 52.71 1.61
-1 -1 8 52.92 2.2
1 1 -8 54.98 2.97
-1 -1 8 50.56 2.79
-1 -1 7 273.56 6.71
-1 -1 7 277.76 7.42
1 1 -7 276.67 7.65
1 1 -7 282.88 8.43
-1 -1 7 277.26 8.29
-1 -1 6 21.35 0.88
-1 -1 6 20.19 1.48
-1 -1 6 16.55 1.37
1 1 -6 21.56 1.29
1 1 -6 19.91 1.54
-1 -1 6 20.85 1.19
1 1 -5 25.45 1.58
1 1 -5 21.68 1.27
-1 -1 5 23.81 1.5
-1 -1 5 21.84 0.93
-1 -1 5 25.27 1.26
-1 -1 5 23.72 1.48
1 1 -5 24.42 1.54
1 1 -4 104.01 3.33
-1 -1 4 113.77 3.52
1 1 -4 106.75 3.54
-1 -1 4 103.3 3.52
-1 -1 4 105.06 3.26
-1 -1 3 47.01 1.75
1 1 -3 44.41 1.73
1 1 -3 42.55 1.69
-1 -1 3 44.13 1.66
-1 -1 2 203.77 5.29
1 1 -2 213.93 5.19
1 1 -2 199.94 5.3
1 1 -2 199.9 5.31
-1 -1 1 200.03 5.09
1 1 -1 198.15 4.98
1 1 -1 204.86 4.96
-1 -1 1 207.44 4.97
1 1 0 68.79 1.84
-1 -1 0 65.49 1.81
-1 -1 0 70.15 1.81
1 1 0 64.44 1.89
-1 -1 0 65.63 1.88
1 1 1 580.52 13.31
1 1 1 565.19 13.71
-1 -1 -1 592.56 13.69
-1 -1 -1 575.57 13.27
-1 -1 -2 11.63 0.63
-1 -1 -2 10.86 0.67
1 1 2 11.45 0.72
1 1 2 10.31 0.58
1 1 3 0.71 0.26
-1 -1 -3 0.9 0.27
1 1 3 0.43 0.22
-1 -1 -3 1.07 0.27
1 1 4 37.4 1.67
-1 -1 -4 41.5 1.83
-1 -1 -4 39.86 1.7
1 1 4 39.99 2.07
1 1 4 42.46 1.69
-1 -1 -5 81.88 3.08
-1 -1 -5 78.05 2.82
1 1 5 82.73 2.93
1 1 5 78.47 3.4
1 1 5 80.68 2.78
1 1 6 75.39 2.95
1 1 6 78.83 3.52
-1 -1 -6 68.96 3.04
-1 -1 -6 75.96 2.83
1 1 6 75.32 2.73
1 1 7 128.24 5.1
1 1 7 130.46 4.42
-1 -1 -7 124.14 4.14
-1 -1 -7 125.19 4.64
1 1 7 123.22 4.04
-1 -1 -8 20.26 1.76
1 1 8 20.64 1.92
1 1 8 20.01 1.55
-1 -1 -8 17.37 1.28
1 1 9 365.5 11.39
1 1 9 359.03 10.31
1 1 10 31.56 2.67
1 1 10 31.16 2.13
1 1 11 0.21 0.98
-1 -2 13 6.05 1.42
-1 -2 12 149.7 6.22
-1 -2 11 35.62 2.68
-1 -2 10 45.32 2.26
-1 -2 10 49.69 3.11
-1 -2 10 42.62 2.86
-1 -2 9 44.9 2.21
-1 -2 9 43.65 2.79
-1 -2 9 44.7 1.69
-1 -2 9 46.78 2.86
-1 -2 8 996.69 25.31
-1 -2 8 993.05 23.53
-1 -2 8 1008.41 24.28
-1 -2 8 1032.13 25.3
1 2 -8 1002.88 25.35
1 2 -7 -0.08 0.46
-1 -2 7 0.29 0.38
-1 -2 7 0.53 0.33
-1 -2 7 0.11 0.42
-1 -2 7 0.72 0.5
1 2 -7 0.55 0.63
1 2 -6 163.4 5.51
-1 -2 6 168.86 5.61
1 2 -6 164.11 5.2
-1 -2 6 171.33 4.68
-1 -2 6 164.86 5.41
-1 -2 6 173.18 5.18
-1 -2 5 370.27 9.91
-1 -2 5 389.05 9.84
1 2 -5 365.65 9.82
1 2 -4 195.67 5.71
-1 -2 4 208.67 5.64
1 2 -4 203.64 5.72
-1 -2 4 195.5 5.67
-1 -2 3 2784.56 66
-1 -2 3 2896.83 65.68
1 2 -3 2933.34 66.07
1 2 -3 2846.01 65.75
-1 -2 3 2762.12 65.99
1 2 -2 2412.68 54.69
1 2 -2 2391.38 54.55
-1 -2 2 2372.08 55.01
1 2 -2 2469.92 55.04
1 2 -1 517.2 12.28
1 2 -1 514.37 11.83
-1 -2 1 528.59 11.84
-1 -2 1 489.07 11.95
-1 -2 1 475.2 12.24
1 2 0 9715.35 220.62
-1 -2 0 9999 220.66
-1 -2 0 9962.27 220.3
1 2 1 3619.84 83.85
-1 -2 -1 3775.37 83.15
1 2 1 3679.9 83.11
-1 -2 -1 3480.26 83.86
-1 -2 -1 3641.6 83.34
1 2 2 139.89 3.48
-1 -2 -2 134.49 3.95
1 2 2 135.82 4.02
1 2 2 136.6 4.03
-1 -2 -2 133.83 3.63
-1 -2 -2 133.61 3.31
1 2 3 41.49 1.46
1 2 3 40.93 1.93
1 2 3 38.21 1.74
-1 -2 -3 40.53 1.64
-1 -2 -3 38.6 1.64
1 2 4 41.06 1.87
1 2 4 43.7 2.19
-1 -2 -4 42.4 1.8
-1 -2 -4 44.65 1.93
1 2 4 43.54 1.71
1 2 5 137.14 4.94
-1 -2 -5 145.82 4.36
1 2 5 139.36 4.23
1 2 5 140.6 4.38
-1 -2 -5 142.35 4.57
1 2 6 0.52 0.43
-1 -2 -6 0.13 0.33
1 2 6 0.69 0.61
1 2 6 0.19 0.41
-1 -2 -6 -0.09 0.43
1 2 7 232.68 6.67
1 2 7 232.06 7.67
1 2 7 223.41 6.53
-1 -2 -7 226.98 7.13
-1 -2 -7 224.62 6.58
1 2 8 32.54 2.44
1 2 8 28.59 1.77
-1 -2 -8 31.83 2.17
-1 -2 -8 30.75 1.74
1 2 9 27.34 1.83
1 2 9 30.79 2.51
1 2 10 2.82 1.16
-1 -3 13 38.49 3.04
-1 -3 12 45.44 3.2
-1 -3 11 61.77 3.64
-1 -3 11 57.77 3.54
-1 -3 10 467.56 13.54
-1 -3 10 448.92 13.36
-1 -3 10 456.65 12.32
-1 -3 9 74.2 3.61
-1 -3 9 72.76 3.15
-1 -3 9 62.77 3.53
-1 -3 9 66.57 2.6
-1 -3 8 237.82 7.6
-1 -3 8 240.42 7.9
-1 -3 8 244.25 7.3
-1 -3 8 233.26 6.63
-1 -3 7 78.12 3.68
-1 -3 7 85.85 2.98
1 3 -7 83.1 3.66
-1 -3 7 86.06 3.41
-1 -3 7 82.12 3.48
-1 -3 6 46.48 2.29
-1 -3 6 45.71 2.29
1 3 -5 2550.74 60.16
1 3 -5 2667.33 59.71
-1 -3 5 2623.41 60.17
-1 -3 5 2510.84 59.77
1 3 -5 2588.72 60.09
1 3 -4 393.92 10.29
1 3 -4 400.1 9.79
-1 -3 4 391.32 9.85
1 3 -4 373 10.25
-1 -3 4 389.45 10.33
-1 -3 4 391.4 10.32
-1 -3 3 136.09 4.07
1 3 -3 131.89 4.01
-1 -3 3 132.9 3.59
1 3 -3 132.05 3.55
1 3 -2 149.44 4.46
-1 -3 2 154.2 3.67
1 3 -2 143.79 3.67
-1 -3 1 6.7 0.66
-1 -3 1 6.94 0.4
1 3 -1 7.07 0.38
-1 -3 1 7.66 0.42
-1 -3 0 1060.18 25.63
-1 -3 0 1086.99 25.06
1 3 0 1082.3 24.74
-1 -3 0 1093.25 25.35
-1 -3 -1 2036.98 47.69
-1 -3 -1 2113.54 47.94
-1 -3 -1 2081.33 47.28
-1 -3 -1 2095.56 48.23
1 3 1 2090.01 47.63
1 3 2 1.3 0.23
1 3 2 1.25 0.24
-1 -3 -2 1.72 0.29
1 3 2 1.34 0.34
-1 -3 -2 1.4 0.25
-1 -3 -2 1.43 0.38
-1 -3 -3 317.48 7.86
-1 -3 -3 323.14 8.21
1 3 3 312.69 7.57
-1 -3 -3 295.54 7.16
1 3 3 301.38 8.27
1 3 4 66.43 2.22
1 3 4 67.03 2.84
-1 -3 -4 64.1 2.48
-1 -3 -4 61.31 2.46
-1 -3 -5 46.99 2.2
1 3 5 46.57 1.87
-1 -3 -5 43.21 1.98
1 3 5 47.22 2.48
1 3 6 235.35 6.49
-1 -3 -6 227.58 7.01
1 3 6 238.27 7.55
-1 -3 -6 233.68 6.69
1 3 7 6.11 0.77
1 3 7 4.26 1.02
-1 -3 -7 6.92 1.01
-1 -3 -7 6.34 0.81
1 3 8 14.64 1.22
1 3 8 14.92 1.69
-1 -3 -9 43.34 3.21
-1 -3 -10 50.35 3.7
-1 -4 13 0.21 1.01
-1 -4 12 40.47 3.1
-1 -4 11 184.66 6.26
-1 -4 11 178.15 6.92
-1 -4 11 177.51 7.1
-1 -4 10 49.57 2.73
-1 -4 10 52.53 3.16
-1 -4 10 50.61 3.28
-1 -4 9 45.45 2.24
-1 -4 9 44.45 2.57
-1 -4 9 47.2 2.78
-1 -4 9 41.54 2.89
-1 -4 8 171.7 5.98
-1 -4 8 173.7 5.97
-1 -4 8 183.42 5.51
-1 -4 8 179.17 6.53
1 4 -7 168.73 5.43
-1 -4 7 152.55 5.38
-1 -4 7 167.15 5.66
-1 -4 6 662.34 16.59
1 4 -6 625.14 16.92
1 4 -6 657.36 16.48
-1 -4 5 71.46 3.09
1 4 -5 68.29 2.58
-1 -4 5 67.29 3
-1 -4 5 66.87 2.59
1 4 -5 67.58 2.94
-1 -4 4 1581.19 36.38
1 4 -4 1596.58 37.03
-1 -4 4 1556.98 37.1
-1 -4 4 1526.81 37.29
1 4 -4 1574.87 36.33
-1 -4 3 635.96 15.09
-1 -4 3 660.15 15.21
-1 -4 3 646.9 15.93
1 4 -3 637.81 15.22
1 4 -2 32.24 1.14
-1 -4 2 35.61 1.57
1 4 -2 32.56 1.08
-1 -4 2 33.31 1.77
-1 -4 2 32.79 1.17
-1 -4 1 434.75 9.98
1 4 -1 415.3 10.13
-1 -4 1 407.45 10.91
-1 -4 1 427.36 10.22
-1 -4 0 433.34 10.5
-1 -4 0 388.39 10.13
-1 -4 -1 310.08 7.53
-1 -4 -1 305.73 8.52
-1 -4 -1 306.57 8.17
-1 -4 -1 305.51 8.03
1 4 1 316.91 7.76
1 4 2 171.06 4.86
-1 -4 -2 163.45 4.66
-1 -4 -2 165.86 5.28
-1 -4 -2 173.06 4.55
-1 -4 -2 170.43 5.27
1 4 2 171.19 4.49
-1 -4 -3 10.1 0.78
1 4 3 10.65 0.72
1 4 3 11.3 0.97
-1 -4 -3 10.2 1.07
-1 -4 -3 10.43 0.97
-1 -4 -3 9.67 0.61
1 4 4 390.35 10.77
1 4 4 404.49 10.02
-1 -4 -4 417.4 11.39
-1 -4 -4 395.95 10.56
-1 -4 -4 398.99 10.37
1 4 5 0.95 0.4
-1 -4 -5 0.13 0.66
1 4 5 0.6 0.48
-1 -4 -5 1.78 0.53
-1 -4 -5 0.62 0.47
-1 -4 -6 8.93 1.33
1 4 6 9.79 0.89
1 4 6 10.98 1.3
-1 -4 -6 11.13 1.05
-1 -4 -6 12.19 1.21
-1 -4 -7 41.4 2.12
1 4 7 42.64 2.02
-1 -4 -7 41.45 2.93
-1 -4 -8 91.42 4.75
-1 -4 -9 4.01 1.33
-1 -5 13 194.72 7.98
-1 -5 12 80.46 4.59
-1 -5 12 82.91 4.43
-1 -5 11 53.08 3.55
-1 -5 11 56.51 3.38
-1 -5 11 52.21 3.02
-1 -5 10 158.6 6.37
-1 -5 10 146.01 5.78
-1 -5 10 143.37 5.66
-1 -5 9 12.5 1.44
-1 -5 9 11.17 1.35
1 5 -9 10.6 1.32
-1 -5 9 10.92 1.19
-1 -5 8 132.74 4.9
1 5 -8 127.59 4.76
-1 -5 8 121.72 5.02
-1 -5 7 0.86 0.55
-1 -5 7 1.95 0.73
1 5 -7 1.19 0.52
-1 -5 7 1.1 0.54
1 5 -7 0.47 0.6
-1 -5 6 145.26 4.71
1 5 -6 150.36 4.68
-1 -5 6 137.96 5.25
-1 -5 6 146.1 5.34
1 5 -5 517.06 13.15
-1 -5 5 530.64 13.15
-1 -5 5 541.07 14.04
-1 -5 5 530.58 14.24
-1 -5 4 576.16 14.12
-1 -5 4 564.99 14.94
-1 -5 4 585.22 14.04
1 5 -4 604.45 14.22
-1 -5 3 103.65 3.91
1 5 -3 97.13 2.93
-1 -5 3 100.41 3.57
1 5 -3 100.19 2.73
-1 -5 3 105.29 2.7
-1 -5 3 97.62 2.94
-1 -5 2 530.47 12.89
1 5 -2 536 12.73
-1 -5 2 538.46 13.94
1 5 -1 19.64 0.99
-1 -5 1 20.83 0.79
-1 -5 1 19.12 1.38
-1 -5 1 18.65 1.05
-1 -5 0 562.53 14.38
-1 -5 0 562.02 13.59
-1 -5 0 583.92 14.01
-1 -5 -1 1.56 0.42
-1 -5 -1 1.65 0.5
-1 -5 -1 1.2 0.42
-1 -5 -1 1.74 0.31
1 5 2 1.29 0.32
-1 -5 -2 1.01 0.51
-1 -5 -2 0.74 0.27
-1 -5 -2 0.59 0.44
-1 -5 -2 1.12 0.39
-1 -5 -3 431.81 11.89
-1 -5 -3 450.06 11.69
-1 -5 -3 442.43 10.89
-1 -5 -3 414.31 10.69
-1 -5 -4 2.8 0.67
-1 -5 -4 3.28 0.8
-1 -5 -4 4.37 0.39
1 5 4 4.98 0.63
-1 -5 -4 4.51 0.68
-1 -5 -5 483.39 12.64
1 5 5 487.36 12.25
-1 -5 -5 479.48 12.7
-1 -5 -5 492.17 13.91
-1 -5 -6 2.25 0.89
-1 -5 -6 2.25 0.58
1 5 6 2.39 0.57
-1 -5 -7 46.9 3.21
-1 -5 -8 14.67 1.98
-1 -5 -9 3.33 1.29
-1 -6 13 42.77 3.53
-1 -6 12 182.06 7.11
-1 -6 12 180.16 7.61
-1 -6 12 187.85 6.96
-1 -6 11 74.36 3.94
-1 -6 11 77.65 4.39
-1 -6 11 79.64 4.07
-1 -6 10 6.38 1.15
-1 -6 10 8.93 1.39
-1 -6 9 18.37 1.84
-1 -6 9 15.69 1.51
1 6 -9 13.71 1.42
-1 -6 9 12.88 1.44
1 6 -8 0.1 0.53
-1 -6 8 1.14 0.61
-1 -6 8 1.07 0.72
-1 -6 8 0.15 0.66
-1 -6 7 430.18 12.73
-1 -6 7 425.8 11.75
-1 -6 7 470.66 12.94
1 6 -7 451.53 11.78
-1 -6 6 394.6 11.2
-1 -6 6 394.6 11.36
-1 -6 6 365.64 10.1
1 6 -6 392.47 10.11
-1 -6 5 63.99 2.37
-1 -6 5 64.95 3.08
1 6 -5 68.08 2.56
1 6 -4 602.45 14.12
-1 -6 4 575.04 15.37
-1 -6 4 608.68 14.1
1 6 -4 593.44 14.38
-1 -6 4 567.21 14.43
-1 -6 3 6.47 0.94
-1 -6 3 6.06 0.81
-1 -6 3 5.44 0.58
1 6 -3 6.59 0.6
1 6 -2 52.77 1.87
-1 -6 2 54.11 2.69
-1 -6 1 37.06 1.68
-1 -6 1 39.03 2.17
1 6 -1 33.97 1.52
-1 -6 1 35.5 1.16
-1 -6 0 208.46 5.64
-1 -6 0 214.25 6.07
-1 -6 0 208.03 6.46
-1 -6 -1 331.9 9.87
-1 -6 -1 340.93 9.34
-1 -6 -1 338.51 9.4
-1 -6 -1 346.09 8.57
1 6 1 345.19 9.02
-1 -6 -2 9.2 0.72
-1 -6 -2 8.65 0.87
1 6 2 10.81 0.82
-1 -6 -2 10.02 1.15
-1 -6 -2 8.16 1.03
-1 -6 -3 153.98 5.39
-1 -6 -3 154.44 4.6
-1 -6 -3 152.94 4.61
-1 -6 -3 152.23 5.52
-1 -6 -4 4.76 1.02
-1 -6 -4 4.7 0.7
-1 -6 -4 4.27 0.48
-1 -6 -4 5.22 0.91
-1 -6 -5 71.8 3.83
-1 -6 -5 75.47 3.26
-1 -6 -6 -0.17 0.94
-1 -6 -6 0.56 0.56
-1 -6 -7 15.54 1.98
-1 -6 -8 5.73 1.39
-1 -7 12 36.83 2.78
-1 -7 12 33.54 2.7
-1 -7 12 32.39 2.98
-1 -7 11 0.45 0.78
-1 -7 11 1.93 0.99
-1 -7 10 11.07 1.65
-1 -7 10 11.85 1.45
-1 -7 10 13.62 1.92
-1 -7 9 0.51 0.77
-1 -7 9 0.92 0.67
-1 -7 9 1.78 1.02
1 7 -9 0.44 0.57
1 7 -8 478.55 13.15
-1 -7 8 514.74 13.3
-1 -7 8 477.27 14.39
-1 -7 8 519.6 14.61
-1 -7 7 16.37 1.72
-1 -7 7 17.58 1.85
-1 -7 7 16.86 1.31
1 7 -7 17.53 1.35
-1 -7 6 59.39 2.33
-1 -7 6 55.65 3.07
-1 -7 6 54.4 3.2
1 7 -6 53.74 2.45
-1 -7 5 101.7 4.25
1 7 -5 95.88 3.11
1 7 -5 106.07 3.42
-1 -7 5 104.19 3.15
-1 -7 5 100.08 3.37
1 7 -4 708.31 16.35
1 7 -4 697.71 16.99
-1 -7 4 712.68 18.78
-1 -7 4 696.9 17.06
-1 -7 4 727.72 18.2
-1 -7 3 360.55 9.21
-1 -7 3 365.61 10.05
-1 -7 3 352.91 10.63
1 7 -3 359.26 9.1
-1 -7 2 18.08 1.18
-1 -7 2 17.49 1.59
1 7 -2 18.1 1.07
-1 -7 1 28.92 1.58
-1 -7 1 27.73 1.99
-1 -7 1 27.28 0.93
-1 -7 0 -0.08 0.44
-1 -7 0 0.1 0.49
-1 -7 0 0.1 0.33
-1 -7 -1 66.32 3.39
-1 -7 -1 64.35 2.32
-1 -7 -1 64.42 2.97
1 7 1 65.96 2.67
-1 -7 -1 68.67 2.98
-1 -7 -2 -0.17 0.48
1 7 2 -0.06 0.39
-1 -7 -2 -0.32 0.66
-1 -7 -2 0.25 0.34
-1 -7 -2 -0.25 0.65
-1 -7 -3 4.53 0.73
-1 -7 -3 5.09 0.98
-1 -7 -3 4.94 0.92
-1 -7 -4 140.23 5.6
-1 -7 -5 33.34 2.14
-1 -7 -5 30.86 2.49
-1 -7 -6 27.72 2.48
-1 -7 -7 33.39 2.9
-1 -8 13 9.31 1.63
-1 -8 12 41.48 2.87
-1 -8 12 40.14 3.16
-1 -8 11 9.22 1.71
-1 -8 11 9.88 1.42
-1 -8 11 11.96 1.77
-1 -8 10 164.96 6.89
-1 -8 10 168.7 6.09
-1 -8 10 170.37 7.12
-1 -8 9 0.37 0.85
-1 -8 9 -0.22 0.52
-1 -8 9 0.19 0.89
-1 -8 8 8.24 1.02
-1 -8 8 7.71 1.34
1 8 -8 7.84 1.13
-1 -8 8 6.79 1.37
-1 -8 7 309.31 10.09
-1 -8 7 319.08 10.46
-1 -8 7 335.14 8.79
1 8 -7 308.85 9.02
-1 -8 6 455.49 11.57
1 8 -6 469.75 11.57
1 8 -6 467.07 11.92
-1 -8 6 438.99 13.12
1 8 -5 94.77 2.64
-1 -8 5 95.58 4.19
-1 -8 5 97.64 3.35
1 8 -5 93.66 3.24
-1 -8 5 94.47 4.52
-1 -8 4 225.87 7.26
-1 -8 4 217.01 7.74
-1 -8 4 226.03 6.31
1 8 -4 226.35 6.2
-1 -8 3 18.32 1.55
-1 -8 3 18.47 1.2
-1 -8 3 19.3 1.83
1 8 -3 18.56 1.14
1 8 -2 20.49 1.24
-1 -8 2 20.52 1.85
-1 -8 2 19.83 1.38
-1 -8 1 137.62 4.64
-1 -8 1 146.74 5.46
-1 -8 0 54.86 2.61
1 8 0 55.6 2.62
-1 -8 0 53.13 2.18
-1 -8 0 54.34 1.81
-1 -8 0 59.52 3.01
1 8 1 50.78 2.38
-1 -8 -1 54.07 2.74
-1 -8 -1 52.86 2.11
-1 -8 -1 52.36 3.13
-1 -8 -1 58.4 2.88
-1 -8 -2 88.66 4.13
-1 -8 -2 83 3.77
-1 -8 -2 83.12 3.55
-1 -8 -3 0.4 0.7
-1 -8 -3 2.1 0.83
-1 -8 -4 146.44 5.63
-1 -8 -4 146.06 5.91
-1 -8 -5 15.93 1.92
-1 -8 -6 16.99 2.12
-1 -8 -7 51.95 3.75
-1 -9 13 13.55 2.01
-1 -9 12 40.16 3.45
-1 -9 12 42.65 3.4
-1 -9 11 34.79 3.09
-1 -9 11 33.27 2.4
-1 -9 11 37.94 3.17
-1 -9 10 3.8 1.32
-1 -9 10 4.54 0.98
-1 -9 10 3.6 1.27
-1 -9 9 185.55 6.01
-1 -9 9 181.8 7.45
-1 -9 9 169.84 7.2
-1 -9 8 40.68 2.13
-1 -9 8 40.86 2.98
-1 -9 8 40.04 3.09
-1 -9 7 14.49 1.76
-1 -9 7 13 1.03
-1 -9 7 15.76 1.93
-1 -9 6 96.29 4.38
-1 -9 6 85.37 3.27
-1 -9 5 2.35 0.53
-1 -9 5 1.11 0.73
1 9 -5 1.37 0.53
-1 -9 5 2.62 0.98
1 9 -4 1.89 0.51
-1 -9 4 2.13 0.5
-1 -9 4 1.34 0.8
-1 -9 4 0.87 0.62
-1 -9 3 17.78 1.26
-1 -9 3 19.54 1.64
1 9 -3 18.18 1.2
-1 -9 3 17.5 1.86
-1 -9 2 92.15 4.34
-1 -9 2 85.88 3.47
-1 -9 1 0.14 0.44
-1 -9 1 0.36 0.56
-1 -9 1 -0.43 0.69
-1 -9 0 -0.16 0.77
-1 -9 0 0.41 0.69
-1 -9 0 0.3 0.57
1 9 0 0.77 0.61
-1 -9 -1 170.63 6.03
-1 -9 -1 161.65 5.79
-1 -9 -1 166.37 6.55
-1 -9 -2 31.26 2.49
-1 -9 -2 33.88 2.34
-1 -9 -3 149.51 6
-1 -9 -3 148.02 5.88
-1 -9 -4 37.93 2.86
-1 -9 -4 43.36 2.83
-1 -9 -5 149.62 6.4
-1 -9 -6 0.81 1.15
-1 -10 12 36.18 3.25
-1 -10 11 9.17 1.9
-1 -10 11 6.19 1.58
-1 -10 10 29.1 2.82
-1 -10 10 29.27 2.87
-1 -10 9 115.78 5.71
-1 -10 9 127.46 6.09
-1 -10 8 8.82 1.68
-1 -10 8 6.58 1.44
-1 -10 7 23.9 2.23
-1 -10 6 34.17 2.87
-1 -10 6 34.17 2.6
-1 -10 6 30.48 1.74
-1 -10 5 155.9 4.92
-1 -10 5 158.14 6.09
-1 -10 5 149.84 6.55
-1 -10 4 604.24 15.51
-1 -10 4 624.1 16.78
-1 -10 4 645.3 17.85
-1 -10 3 -0.13 0.64
-1 -10 3 1.07 0.83
-1 -10 3 1.12 0.58
-1 -10 2 4.71 0.94
-1 -10 2 4.77 1.2
-1 -10 1 56.92 3.42
-1 -10 1 58.81 2.9
-1 -10 0 26.41 1.94
-1 -10 0 24.33 2.42
-1 -10 0 26.86 2.24
-1 -10 -1 28.08 2.11
-1 -10 -1 27.51 2.47
-1 -10 -1 26.2 2.13
-1 -10 -2 97.7 4.46
-1 -10 -2 102.91 4.98
-1 -10 -3 15.56 1.95
-1 -11 10 45.5 3.7
-1 -11 10 40.9 3.41
-1 -11 9 62.43 4.08
-1 -11 9 68.97 4.49
-1 -11 8 69.08 4.14
-1 -11 7 11.8 1.9
-1 -11 7 6.99 1.47
-1 -11 6 29.89 2.81
-1 -11 6 25.15 2.36
-1 -11 5 9.78 1.76
-1 -11 5 11.82 1.62
-1 -11 4 238.34 8.07
-1 -11 4 231.08 8.81
-1 -11 3 392.2 11.61
-1 -11 3 390.07 12.6
-1 -11 2 174.28 7.05
-1 -11 1 14.63 2.03
-1 -11 0 110.43 5.12
-1 -11 0 115.33 5.62
-1 -11 -1 -0.61 1.07
-1 -11 -2 61.25 3.87
-1 -12 10 76.85 4.83
-1 -12 9 44.71 3.52
-1 -12 9 46.88 3.83
-1 -12 8 1.04 1.04
-1 -12 8 1.77 1.26
-1 -12 7 69.33 4.58
-1 -12 7 69.04 4.14
-1 -12 6 5.49 1.54
-1 -12 6 2.75 1.11
-1 -12 5 62.22 3.72
-1 -12 5 61.15 4.19
-1 -12 4 114.47 5.9
-1 -12 4 120.87 5.27
-1 -12 3 32.03 2.92
-1 -12 2 71.45 4.37
-1 -12 1 40.18 3.05
-1 -12 1 32.01 3.08
-1 -12 0 7.23 1.68
-1 -13 8 71.08 4.44
-1 -13 7 3.69 1.33
-1 -13 6 182.99 8.18
-1 -13 6 173.24 7.19
-1 -13 5 21.25 2.55
-1 -13 4 0.72 1.15
-1 -13 3 167.28 7.53
-1 -13 2 17.83 2.32
2 -13 5 1.06 1.15
2 -13 6 27.17 2.84
2 -12 -2 22.2 2.49
2 -12 -1 -0.4 1.13
2 -12 0 54.8 3.68
2 -12 1 26.65 2.66
2 -12 2 21.72 2.24
2 -12 3 34.05 2.65
2 -12 4 24.62 2.24
2 -12 5 39.98 2.83
2 -12 6 1.98 0.91
2 -12 6 3.3 1.4
2 -12 7 46.68 3.14
2 -12 7 43.93 3.5
2 -12 8 163.95 7.37
2 -12 8 140.36 7.14
2 -11 -4 69.35 4.49
2 -11 -3 3.33 1.3
2 -11 -2 6.64 1.61
2 -11 -1 6.67 1.47
2 -11 0 16.21 2
2 -11 1 26.48 2.46
2 -11 2 8.88 1.5
2 -11 3 44.82 2.97
2 -11 4 86.8 4.24
2 -11 5 16.93 1.77
2 -11 6 4.32 1.25
2 -11 6 4.4 1.09
2 -11 7 24.69 2.74
2 -11 7 24.64 2.58
2 -11 8 24.44 2.3
2 -11 8 22.97 2.58
2 -11 8 27.36 2.8
2 -11 9 84.64 5.12
2 -11 9 80.98 4.98
2 -11 10 1.5 1.27
2 -10 -5 39.94 3.44
2 -10 -3 49.82 3.45
2 -10 -2 2.35 1.07
2 -10 -1 4.94 1.27
2 -10 0 253.6 8.73
2 -10 1 0.33 0.82
2 -10 2 49.8 2.28
2 -10 2 53.27 3.28
2 -10 3 64.58 3.5
2 -10 4 7.52 1.26
2 -10 5 9.33 1.38
2 -10 6 8.82 1.65
2 -10 6 8.67 1.36
2 -10 7 110.64 4.93
2 -10 7 100.1 5.22
2 -10 8 58.9 3.96
2 -10 8 59.51 4
2 -10 8 57.66 3.47
2 -10 9 0.22 1.03
2 -10 10 82.76 4.35
2 -10 10 93.73 5.2
2 -10 11 5.73 1.33
2 -10 11 4.98 1.57
2 -9 -6 75.12 4.68
2 -9 -5 237.99 9.06
2 -9 -4 -0.19 0.85
2 -9 -3 59.51 3.69
2 -9 -2 17.7 1.96
2 -9 -1 13.77 1.65
2 -9 0 44.39 2.89
2 -9 1 105.87 4.77
2 -9 1 103.75 3.57
2 -9 2 67.33 3.66
2 -9 2 64.87 2.68
-2 9 -2 70.62 3.29
-2 9 -3 36.82 2.35
2 -9 3 38.41 2.54
-2 9 -4 54.53 2.89
2 -9 4 51.56 2.99
2 -9 5 112.62 4.75
2 -9 6 140.45 5.57
2 -9 6 136.55 5.96
2 -9 7 118.87 5.54
2 -9 7 117.72 5.14
2 -9 8 140.88 6.35
2 -9 8 144.08 5.89
2 -9 9 246.76 9.41
2 -9 9 261.69 9.41
2 -9 10 -0.53 0.91
2 -9 10 0.92 1.03
2 -9 10 0.64 0.99
2 -9 11 64.89 4.2
2 -9 11 59.78 3.84
2 -9 11 68.43 4.54
2 -9 12 24.33 2.61
2 -9 12 21.04 2.35
2 -8 -7 3.56 1.5
2 -8 -6 -0.22 1.26
2 -8 -5 144.92 6.39
2 -8 -4 109.68 4.51
2 -8 -4 115.57 5.39
2 -8 -3 1.14 0.92
2 -8 -2 0.9 0.83
2 -8 -2 1.08 0.57
2 -8 -1 148.04 5.69
2 -8 -1 142.29 3.98
2 -8 0 38.03 2.57
-2 8 0 39.29 2.34
-2 8 0 38.98 2.09
2 -8 0 41.06 2.17
2 -8 1 23.23 1.37
2 -8 1 22.73 1.96
2 -8 1 18.42 1.49
-2 8 -1 25.1 1.81
-2 8 -1 21.42 1.57
2 -8 2 13.23 1.1
2 -8 2 13.78 1.57
-2 8 -2 15.09 1.44
2 -8 3 1.2 0.64
-2 8 -3 0.94 0.67
-2 8 -4 779.94 19.39
-2 8 -4 745.56 17.54
2 -8 4 747.23 19.59
-2 8 -5 206.97 6.92
2 -8 5 208.14 7.04
2 -8 6 0.54 0.68
-2 8 -6 1.46 0.63
2 -8 7 109.98 4.79
-2 8 -7 108.87 4.24
2 -8 8 84.61 4.45
2 -8 8 82.32 4.54
2 -8 9 4.47 1.3
2 -8 9 5.98 1.32
2 -8 10 69.22 3.98
2 -8 10 65.89 3.99
2 -8 10 67.99 4.26
2 -8 11 22.93 2.61
2 -8 11 19.49 2.29
2 -8 12 0.85 1.16
2 -7 -8 40.04 3.43
2 -7 -7 25.56 2.65
2 -7 -6 -0.2 1.06
2 -7 -5 71.74 3.18
2 -7 -5 78.6 4.29
2 -7 -4 144.59 5.99
2 -7 -4 144.09 5.21
2 -7 -3 43.21 2.86
2 -7 -3 42.23 2.26
2 -7 -2 162.53 6.07
2 -7 -2 159.73 5.14
-2 7 2 168.21 5.82
2 -7 -1 74.94 2.45
2 -7 -1 75.06 2.99
-2 7 1 72.95 3.33
2 -7 -1 76.72 3.63
2 -7 0 126.99 4.96
2 -7 0 132.82 4.43
-2 7 0 141.01 4.45
2 -7 0 125.15 3.48
-2 7 0 134.87 4.76
2 -7 1 91.33 3.22
-2 7 -1 99.62 3.84
-2 7 -1 95.14 3.6
2 -7 1 104.09 4.22
-2 7 -2 46.31 2.44
2 -7 2 47.73 2.14
-2 7 -2 50.06 2.41
2 -7 2 44.56 2.64
2 -7 3 1.51 0.56
-2 7 -3 1.95 0.61
-2 7 -3 2.39 0.32
-2 7 -3 2.05 0.74
-2 7 -4 367.37 10.05
-2 7 -4 332.53 9.74
2 -7 4 343.61 10.02
2 -7 4 334.3 10.16
2 -7 5 1084.52 27.14
-2 7 -5 1095.46 27.22
-2 7 -5 1088.16 26.81
-2 7 -5 1083.7 26.25
-2 7 -6 22.11 1.62
2 -7 6 22.23 1.91
-2 7 -6 22.68 1.98
-2 7 -7 -0.33 0.66
2 -7 7 0.17 0.66
2 -7 7 -0.28 0.64
2 -7 8 86.55 4.47
2 -7 8 79.31 4.16
2 -7 9 64.29 3.9
2 -7 9 60.32 3.58
2 -7 10 0.42 0.88
2 -7 10 0.18 0.82
2 -7 10 0.52 0.85
2 -7 11 78.59 4.67
2 -7 11 70.77 4.31
2 -7 11 70.63 4.04
2 -7 12 4.05 1.49
-2 6 9 67.39 3.48
2 -6 -8 36.8 3.17
-2 6 8 32.52 2.26
2 -6 -7 2.66 1.1
-2 6 7 2.68 0.87
-2 6 6 0.22 0.61
2 -6 -6 -0.37 1.02
2 -6 -5 117.26 5.27
2 -6 -5 116.36 4.01
-2 6 5 114.17 4.36
2 -6 -4 517.37 14.64
2 -6 -4 517 13.69
2 -6 -4 505.19 13.38
2 -6 -3 75.58 3.05
2 -6 -3 85.22 3.31
2 -6 -3 83.31 3.9
-2 6 3 77.71 3.59
-2 6 2 1.34 0.64
2 -6 -2 0.36 0.6
2 -6 -1 291.61 8.57
2 -6 -1 282.66 7.72
2 -6 -1 279.56 7.17
-2 6 1 265.94 8.14
2 -6 0 29.35 1.99
2 -6 0 30.19 1.21
-2 6 0 27.32 1.79
2 -6 0 31.34 1.71
2 -6 1 13.29 0.96
-2 6 -1 12.42 1.04
2 -6 1 13.19 1.32
-2 6 -1 11.12 1.16
-2 6 -2 47.49 2.36
2 -6 2 44.71 2.47
2 -6 2 46.6 2.06
-2 6 -2 42.38 1.46
-2 6 -2 45.1 2.16
2 -6 3 99.07 3.85
-2 6 -3 91.82 2.89
-2 6 -4 8.99 1.03
-2 6 -4 8.19 0.84
2 -6 4 7.01 0.97
2 -6 4 8.75 1.13
-2 6 -4 7.59 1.11
-2 6 -5 93.2 3.46
-2 6 -5 87.26 3.81
2 -6 5 87.16 3.85
-2 6 -5 85.85 3.51
2 -6 5 86.82 3.76
-2 6 -6 5.58 0.92
-2 6 -6 5.12 1.01
-2 6 -6 3.99 0.85
2 -6 6 5.39 0.96
2 -6 6 5.17 1.03
2 -6 6 4.52 1.01
-2 6 -7 121.63 4.73
2 -6 7 119.38 5.19
-2 6 -7 115.63 4.48
2 -6 8 10.01 1.4
2 -6 8 10.29 1.5
2 -6 9 4.19 1.09
2 -6 9 2.36 1.06
2 -6 10 138.89 6.25
2 -6 10 152.35 6.01
2 -6 10 158.34 6.63
2 -6 11 2.56 1.31
2 -6 11 2.46 1.19
2 -6 12 120.89 6.02
2 -6 12 104.9 5.6
-2 5 10 41.03 2.64
2 -5 -9 1.39 1.11
-2 5 9 0.86 0.79
-2 5 8 0.23 0.62
2 -5 -8 0.42 0.98
2 -5 -7 3.6 1.12
-2 5 7 4.96 0.96
2 -5 -6 17.09 1.91
2 -5 -6 13.87 1.08
-2 5 6 16.15 1.41
2 -5 -6 13.82 0.92
2 -5 -5 22.06 1.76
-2 5 5 24.96 1.67
2 -5 -5 22.41 1.34
2 -5 -5 23.08 1.72
2 -5 -5 22.15 1.44
2 -5 -4 95.84 4.29
2 -5 -4 91.36 3.74
2 -5 -4 95.03 3.61
-2 5 4 103.78 3.75
2 -5 -4 101 3.5
2 -5 -3 28.74 1.63
2 -5 -3 32.88 1.81
-2 5 3 28.01 1.7
-2 5 3 30.39 1.98
2 -5 -3 30.92 1.64
2 -5 -3 25.94 1.98
2 -5 -2 518.06 12.95
2 -5 -2 520.52 13.91
-2 5 2 509.02 13.64
2 -5 -1 264.2 7.47
-2 5 1 264.05 7.64
2 -5 -1 265.57 7.2
2 -5 -1 258.49 7.85
2 -5 0 28.66 1.78
2 -5 0 24.17 1.42
2 -5 0 21.98 1.49
2 -5 0 27.18 1.11
-2 5 0 26.79 1.43
-2 5 0 25.46 1.61
-2 5 -1 146.26 4.49
2 -5 1 147.81 4.32
2 -5 1 144.22 5
-2 5 -1 141.35 4.72
-2 5 -2 0.32 0.47
2 -5 2 0.44 0.34
-2 5 -2 0.4 0.24
2 -5 2 0.09 0.44
2 -5 2 0.62 0.41
-2 5 -3 32.52 1.98
-2 5 -3 28.5 1.65
2 -5 3 29.01 1.81
2 -5 4 215.86 6.72
-2 5 -4 213.75 6.24
-2 5 -4 207.37 6.3
-2 5 -4 211.75 6.72
2 -5 4 213.45 6.75
-2 5 -5 81.93 3.46
2 -5 5 74.51 3.46
-2 5 -5 77.3 3.16
2 -5 5 79.7 3.51
-2 5 -5 75.82 3.22
2 -5 5 79.98 3.65
-2 5 -6 178.13 5.77
2 -5 6 181.56 6.47
2 -5 6 176.94 6.26
2 -5 6 183.77 6.26
-2 5 -6 195.09 6.19
-2 5 -6 175.65 6.15
-2 5 -7 2.77 0.67
2 -5 7 4.27 1.02
2 -5 7 5.16 1.02
-2 5 -7 3.5 0.93
2 -5 8 53.99 2.97
2 -5 8 56.39 3.31
-2 5 -8 55.44 2.63
2 -5 8 47.42 2.82
2 -5 9 4.63 1.19
-2 5 -9 7.14 1.01
2 -5 9 4.84 0.99
2 -5 10 22.34 2.29
2 -5 10 22.41 1.93
2 -5 11 83.4 4.64
2 -5 11 85.42 4.77
2 -5 12 10.35 1.95
2 -5 12 12.98 2.04
-2 4 11 41.49 2.67
2 -4 -10 61.93 4.24
-2 4 9 61.51 3.05
2 -4 -9 60.36 4.04
-2 4 8 56.98 2.83
2 -4 -8 62.89 3.89
2 -4 -7 8.34 0.78
-2 4 7 7.72 1
2 -4 -6 14.06 0.79
2 -4 -6 13.35 0.97
2 -4 -6 13.85 1.63
-2 4 6 13.71 1.22
2 -4 -6 11.82 0.67
2 -4 -6 13.08 0.99
2 -4 -5 1.86 0.64
-2 4 5 1.65 0.55
2 -4 -5 1.75 0.78
2 -4 -5 2.02 0.65
2 -4 -5 0.72 0.32
2 -4 -4 213.59 7.04
2 -4 -4 218.71 6.38
-2 4 4 223.58 6.4
2 -4 -4 217.52 6.58
2 -4 -4 206.38 6.04
2 -4 -3 162.69 4.92
-2 4 3 174.41 5.11
2 -4 -3 166.54 5.64
2 -4 -3 158.42 4.85
-2 4 3 166.47 5.51
2 -4 -2 255.04 6.93
2 -4 -2 256.65 6.81
-2 4 2 247.65 6.96
-2 4 2 245.03 7.31
2 -4 -2 253.87 7.51
-2 4 1 0.29 0.35
2 -4 -1 1.39 0.53
2 -4 -1 0.36 0.29
2 -4 -1 0.87 0.34
2 -4 0 1.09 0.5
2 -4 0 1.45 0.3
2 -4 0 1.27 0.4
2 -4 0 1.25 0.38
-2 4 0 1.43 0.48
-2 4 -1 41.07 1.95
-2 4 -1 38.25 1.68
2 -4 1 39.03 1.64
2 -4 1 37.56 1.9
-2 4 -1 36.42 1.35
-2 4 -2 94.89 3.5
2 -4 2 99.15 3.3
2 -4 2 91.41 3.45
2 -4 3 103.7 3.81
-2 4 -3 108.51 3.56
2 -4 3 102.82 3.86
-2 4 -3 103.69 3.53
-2 4 -3 108.84 3.97
-2 4 -4 1092.76 26.33
-2 4 -4 1077.51 26.08
2 -4 4 1095.71 26.72
-2 4 -4 1128.48 26.61
2 -4 4 1073.29 26.64
2 -4 5 12.06 1.23
2 -4 5 11.51 1.22
2 -4 5 10.5 1.16
-2 4 -5 9.73 1.13
-2 4 -5 11.14 1.01
-2 4 -5 12.1 1.2
2 -4 6 43.54 2.41
2 -4 6 37.98 2.44
-2 4 -6 41.7 2.04
-2 4 -6 37 2.33
-2 4 -7 238.59 7.03
2 -4 7 249.82 8.07
2 -4 7 248.97 7.64
2 -4 8 112.18 4.36
2 -4 8 98.44 4.2
2 -4 8 112.29 4.88
-2 4 -8 114.45 3.93
2 -4 9 447.57 12.22
2 -4 9 429.69 12.09
2 -4 9 413.01 13.16
2 -4 9 459.42 13.23
2 -4 10 4.06 1.21
2 -4 10 3.53 1.1
2 -4 11 -0.63 1.02
2 -4 11 0.57 0.96
2 -4 12 92.32 5.23
2 -4 12 101.23 5.19
-2 3 11 4.16 0.99
-2 3 10 21.98 1.79
-2 3 9 286.77 8.63
-2 3 8 39.72 2.26
-2 3 7 23.73 1.6
2 -3 -7 20.48 1.26
-2 3 6 16.89 1.29
2 -3 -6 17.35 1.59
2 -3 -6 18.11 1.53
2 -3 -6 16.49 1.1
2 -3 -5 74.7 3.28
2 -3 -5 75.89 3.18
2 -3 -5 76.27 2.25
2 -3 -5 76.35 2.21
2 -3 -5 76.48 2.71
-2 3 5 80.07 2.98
2 -3 -4 129.69 3.61
-2 3 4 127.6 4.09
2 -3 -4 126.08 4.37
2 -3 -4 129.77 4.29
2 -3 -3 91.26 3.14
-2 3 3 92.02 3.17
-2 3 3 93.93 3.54
2 -3 -3 99.16 2.95
2 -3 -2 297.05 7.56
2 -3 -2 292.75 7.56
2 -3 -2 289.5 7.55
-2 3 2 295.77 7.71
-2 3 2 281.35 8
2 -3 -1 549.67 13.87
2 -3 -1 605.72 14.02
2 -3 -1 577.36 14.09
-2 3 1 571.47 14.34
-2 3 0 410 10.26
2 -3 0 395.13 9.98
2 -3 0 403.32 9.65
2 -3 0 388.06 10.31
2 -3 0 384.78 10.19
-2 3 -1 621.17 15.13
2 -3 1 587.54 15.21
2 -3 1 593.79 15.09
2 -3 1 618.3 14.81
-2 3 -1 622.94 14.48
2 -3 2 9.18 0.86
2 -3 2 10.84 0.88
-2 3 -2 9.2 0.73
2 -3 2 8.64 0.78
-2 3 -2 10.82 0.81
-2 3 -2 10.9 0.98
2 -3 3 106.48 3.79
-2 3 -3 110.7 3.66
2 -3 3 102.89 3.74
-2 3 -3 109.24 3.83
-2 3 -3 102.39 3.34
-2 3 -3 111.11 3.8
-2 3 -4 219.88 6.8
-2 3 -4 235.59 6.97
2 -3 4 235.01 7.03
2 -3 4 242.08 7.03
2 -3 4 229.03 6.86
-2 3 -4 242 6.96
-2 3 -4 231.48 6.39
-2 3 -5 431.95 11.49
-2 3 -5 427.35 11.62
-2 3 -5 415.93 10.77
2 -3 5 422.66 11.57
2 -3 5 427.68 11.41
-2 3 -6 6.74 1
-2 3 -6 8.25 0.81
2 -3 6 9.82 1.13
2 -3 6 7.49 0.95
2 -3 7 113.21 4.11
2 -3 7 109.7 4.13
-2 3 -7 115.47 3.74
2 -3 7 113 4.6
-2 3 -8 111.31 3.69
2 -3 8 113.57 4.13
2 -3 8 107.11 4.13
2 -3 8 117.75 4.84
2 -3 9 9.59 1.05
2 -3 9 8.19 1.06
2 -3 9 8.18 1.45
2 -3 9 9.78 1.51
2 -3 10 19.13 2.17
2 -3 10 22.26 2.13
2 -3 11 131.27 6.31
2 -3 11 146.31 6.11
2 -3 12 9.96 1.79
-2 2 12 63.79 3.46
-2 2 11 112.54 4.67
2 -2 -11 112.4 5.86
2 -2 -10 2.54 1.23
-2 2 10 2.48 0.83
2 -2 -9 60.18 3.75
-2 2 9 62.24 3
2 -2 -8 63.27 3.66
-2 2 8 61.35 2.88
2 -2 -7 12.94 1.53
-2 2 7 10.12 1.05
2 -2 -7 11.58 0.97
-2 2 6 34.67 1.84
2 -2 -6 32.45 2.12
2 -2 -6 32.53 1.6
2 -2 -6 36.02 2.12
-2 2 5 897.13 22.15
2 -2 -5 949.88 21.91
2 -2 -5 902.21 22.67
2 -2 -5 913.23 22.58
2 -2 -4 1181.81 28.75
2 -2 -4 1254.18 29.34
2 -2 -4 1217.32 29.16
-2 2 4 1221.71 28.89
2 -2 -4 1240.84 28.04
-2 2 3 600.91 13.97
2 -2 -3 573.54 13.47
-2 2 2 154.52 4.41
2 -2 -2 161.75 4.3
2 -2 -1 683.15 16.37
2 -2 -1 700.95 16.5
2 -2 0 3129.47 70.83
2 -2 0 3108.03 70.47
-2 2 0 2985.07 70.79
2 -2 0 3121.24 70.6
-2 2 0 3119.35 70.45
2 -2 1 910.11 21.24
2 -2 1 898.42 21.35
2 -2 2 356.8 8.96
-2 2 -2 341.26 8.74
2 -2 2 346.8 8.55
2 -2 3 69.73 2.74
-2 2 -3 74.24 2.8
-2 2 -3 69.69 2.3
-2 2 -3 71.55 2.8
2 -2 4 0.6 0.42
-2 2 -4 0.44 0.3
2 -2 4 0.64 0.48
-2 2 -4 0.62 0.44
2 -2 5 29.07 1.79
-2 2 -5 27.3 1.31
-2 2 -5 26.64 1.68
2 -2 5 28.52 1.66
-2 2 -6 19.31 1.45
2 -2 6 21.19 1.44
2 -2 6 20.02 1.59
-2 2 -6 17.54 1.56
-2 2 -6 18.83 1.07
2 -2 7 2.51 0.52
2 -2 7 2.18 0.62
-2 2 -7 2.9 0.7
-2 2 -7 2.59 0.44
2 -2 7 3.35 0.8
2 -2 8 3.99 0.75
-2 2 -8 4.97 0.58
2 -2 8 3.02 0.58
-2 2 -8 2.35 0.72
2 -2 8 2.96 0.89
2 -2 9 63.86 3.43
2 -2 10 98.07 4.55
2 -2 11 0.32 0.87
2 -2 11 0.21 1.03
2 -2 12 46.62 3.17
-2 1 12 24.04 2.12
2 -1 -11 19.49 2.37
-2 1 11 19.77 1.81
-2 1 10 76.26 3.62
2 -1 -10 87.38 4.64
-2 1 9 63.6 3.13
2 -1 -9 67.81 3.87
-2 1 8 167.24 5.74
2 -1 -8 172.84 5.37
2 -1 -7 44.6 2.08
2 -1 -7 44.8 2.65
2 -1 -7 46.91 2.62
2 -1 -7 44.24 2.7
-2 1 7 43.81 2.29
2 -1 -6 107.55 4.27
-2 1 6 116.94 4.02
2 -1 -6 111.9 3.68
2 -1 -6 118.59 4.54
2 -1 -6 109.48 4.27
2 -1 -5 145.43 4.32
2 -1 -5 144.82 4.86
-2 1 5 140.25 4.5
2 -1 -5 142.28 4.81
2 -1 -5 152.79 5.06
2 -1 -4 1576.53 36.71
-2 1 4 1678.81 36.91
2 -1 -4 1594.55 37.16
2 -1 -4 1609.96 37.38
2 -1 -3 216.79 6.16
2 -1 -3 214.72 5.84
2 -1 -3 220.25 5.24
-2 1 3 218.15 6.13
2 -1 -2 1134.6 27.05
2 -1 -2 1156.75 26.47
-2 1 2 1157.53 26.54
-2 1 2 1145.02 27.01
2 -1 -1 6.71 0.49
-2 1 1 6.11 0.5
2 -1 -1 7.37 0.65
2 -1 -1 6.37 0.56
2 -1 -1 7.29 0.55
-2 1 1 6.65 0.6
-2 1 1 6.49 0.54
-2 1 0 5961.24 135.75
-2 1 0 6200.75 135.54
2 -1 0 5659.66 135.36
-2 1 0 6199.09 135.8
2 -1 0 6071.44 135.68
2 -1 0 5981.63 135.84
2 -1 1 50.18 1.9
-2 1 -1 46.74 1.87
2 -1 2 0.15 0.18
-2 1 -2 0.28 0.27
2 -1 2 -0.06 0.27
2 -1 2 -0.05 0.28
-2 1 -2 0.53 0.31
2 -1 3 570.41 13.78
2 -1 3 551.39 14.02
2 -1 3 552.89 13.25
2 -1 3 581.43 13.72
-2 1 -3 563.47 13.97
2 -1 4 350.26 9.12
2 -1 4 344.16 9.03
-2 1 -4 332.44 9.25
2 -1 5 573.29 14.25
2 -1 5 556.12 13.91
-2 1 -5 535.47 14.24
-2 1 -6 50.26 2.57
2 -1 6 52.34 2.18
2 -1 7 68.48 2.8
2 -1 7 74.16 3.34
-2 1 -7 70.24 3.11
2 -1 7 66.87 2.42
-2 1 -8 134.19 4.98
2 -1 8 125.76 4.82
2 -1 8 119.65 3.5
2 -1 8 123.05 4.16
-2 1 -8 120.06 4.5
2 -1 8 126.6 5.45
2 -1 9 2.7 1.02
2 -1 9 2.68 0.93
2 -1 10 9.53 1.36
2 -1 10 7.92 1.58
2 -1 11 157.53 7.03
2 -1 11 164.14 6.23
2 0 -12 66.36 4.34
-2 0 12 59.65 3.39
2 0 -11 149.14 6.65
-2 0 11 148.39 5.76
2 0 -10 1.11 0.9
-2 0 10 0.39 0.7
-2 0 9 110.46 4.55
2 0 -9 119.25 5.21
-2 0 8 11.24 1.26
2 0 -8 12.63 1.53
2 0 -8 10.33 1.05
2 0 -7 199.42 6.7
2 0 -7 207.24 6.84
2 0 -7 198 6.04
-2 0 7 206.18 6.45
2 0 -6 434.51 11.93
2 0 -6 433.11 11.96
2 0 -6 433.3 11.29
-2 0 6 453.57 11.72
-2 0 5 103.16 3.29
2 0 -5 94.56 3.62
-2 0 5 94.79 3.49
2 0 -5 101.69 3.35
2 0 -5 100.63 3.68
-2 0 4 0.59 0.26
2 0 -4 0.19 0.25
2 0 -4 0.3 0.3
2 0 -4 0.93 0.4
2 0 -3 1.22 0.33
2 0 -3 1.86 0.36
-2 0 3 1.74 0.21
2 0 -3 2.07 0.23
-2 0 3 2.08 0.35
2 0 -2 1667.85 40.13
-2 0 2 1743.11 40.05
2 0 -2 1742.42 39.89
-2 0 2 1755.21 40.19
-2 0 2 1816.55 39.9
2 0 -2 1708.67 40.2
2 0 -2 1771.08 40.22
2 0 -1 160.5 4.27
2 0 -1 160.06 4.06
-2 0 1 156.99 4.24
2 0 -1 158.84 4.17
-2 0 1 163.09 4.06
-2 0 1 155.31 4.21
2 0 0 3315.03 74.01
-2 0 0 3284.9 74.09
2 0 0 3317.3 73.98
2 0 0 3292.09 73.65
-2 0 -1 221.46 5.76
2 0 1 211.79 5.78
2 0 1 209.77 5.77
-2 0 -1 221.7 5.72
2 0 1 209.91 5.65
-2 0 -2 536.96 13.21
-2 0 -2 533.08 13.21
2 0 2 524.03 12.73
-2 0 -2 531.64 13.11
2 0 2 535.55 12.98
2 0 3 19.94 1.08
2 0 3 20.4 0.85
-2 0 -3 20.08 1.24
2 0 3 19.39 1.15
2 0 4 80.24 2.85
2 0 4 83.63 2.81
-2 0 -4 76.35 2.82
2 0 5 1.06 0.43
-2 0 -5 0.51 0.48
-2 0 -5 0.77 0.48
2 0 5 1.02 0.45
2 0 5 1.2 0.24
-2 0 -5 0.65 0.47
-2 0 -6 109.43 4.48
-2 0 -6 106.99 4.03
-2 0 -6 108.73 4
2 0 6 110.66 2.86
2 0 6 111.4 3.97
2 0 6 108.68 3.69
-2 0 -7 119.7 4.44
2 0 7 122.49 4.37
2 0 7 113.03 3.98
-2 0 -7 112.48 4.27
2 0 7 121.9 5.09
2 0 8 0.84 0.6
2 0 8 0.82 0.8
-2 0 -8 0.59 0.54
-2 0 -8 0.8 0.71
2 0 9 275.73 8.58
2 0 9 285.93 9.75
-2 0 -9 288.21 8.41
2 0 10 75.98 4.33
2 0 10 63.51 3.29
2 0 11 -0.43 1.02
-2 -1 12 20.2 2.03
2 1 -12 21.37 2.44
-2 -1 11 19.21 1.94
2 1 -11 17.41 2.1
2 1 -10 19.44 2.07
-2 -1 10 21.04 1.91
-2 -1 9 227.61 6.58
2 1 -9 218.73 6.79
-2 -1 9 207.24 7.23
2 1 -8 373.49 10.56
-2 -1 8 387.12 11.13
-2 -1 8 399.07 10.32
-2 -1 7 317.78 9.32
2 1 -7 327.92 9.59
2 1 -7 320.15 9.58
2 1 -7 316.31 8.99
-2 -1 7 334.68 8.78
-2 -1 6 46.11 2.39
-2 -1 6 49.31 1.46
2 1 -6 53.36 2.35
2 1 -6 46.97 2.43
2 1 -6 47.16 2.5
-2 -1 6 49.7 1.46
-2 -1 6 47.27 2.11
2 1 -5 40.17 2
-2 -1 5 40.34 1.32
2 1 -5 39.08 1.89
-2 -1 5 37.64 1.77
2 1 -4 326.73 8.46
-2 -1 4 324.88 8.34
2 1 -4 306.11 8.56
2 1 -4 304.03 8.39
-2 -1 4 323.05 7.78
2 1 -4 326.6 8.35
2 1 -3 27.95 1.41
-2 -1 3 30.5 1.19
2 1 -3 30.19 1.28
-2 -1 3 31.73 1.43
2 1 -3 29.94 1.44
-2 -1 3 31.85 1.42
2 1 -2 53.23 1.9
-2 -1 2 56.76 1.9
-2 -1 2 55.36 1.76
2 1 -2 58.4 1.94
-2 -1 2 60.05 1.9
2 1 -2 56.11 1.77
2 1 -1 44.58 1.45
-2 -1 1 46.28 1.38
2 1 -1 45.43 1.68
-2 -1 1 45.09 1.67
2 1 -1 46.2 1.72
-2 -1 1 50.72 1.68
2 1 -1 42.67 1.6
2 1 -1 47.32 1.47
-2 -1 1 45.98 1.43
-2 -1 1 44.75 1.66
-2 -1 0 7343.39 168.25
2 1 0 7501.75 167.81
2 1 0 7557.76 168.32
2 1 0 7395.96 168.33
-2 -1 0 7420.04 168.32
2 1 0 7295.41 168.27
-2 -1 -1 1103.98 25.6
-2 -1 -1 1075.64 25.55
2 1 1 1086.64 25.16
-2 -1 -1 1112.65 25.6
2 1 1 1087.95 25.62
-2 -1 -2 267.2 7.17
2 1 2 260.36 6.39
2 1 2 268.37 7.09
-2 -1 -2 269.63 7.07
2 1 2 263.41 6.48
2 1 3 390.31 9.31
-2 -1 -3 412.64 10.33
-2 -1 -3 385.5 9.85
2 1 3 402.78 10.23
2 1 3 410.1 9.8
-2 -1 -3 403.92 10.55
2 1 3 404.7 9.3
-2 -1 -4 15.39 1.14
2 1 4 15.32 0.98
-2 -1 -4 15.62 1.03
2 1 4 16.21 1.13
2 1 5 1.26 0.37
-2 -1 -5 0.81 0.43
-2 -1 -5 1.18 0.5
2 1 5 1.08 0.45
2 1 6 17.01 1.24
-2 -1 -6 19.84 1.47
2 1 6 20.08 1.77
-2 -1 -6 19.11 1.41
2 1 6 18.83 1.35
2 1 7 86.38 3.33
2 1 7 82.92 4.08
2 1 7 84.75 3.3
-2 -1 -7 81.43 3.47
-2 -1 -7 86.66 3.54
2 1 8 271.75 9.05
-2 -1 -8 260.33 8.15
-2 -1 -8 257.44 7.88
2 1 8 269.83 7.83
2 1 9 10.41 1.25
2 1 9 12.27 1.71
2 1 10 6.73 1.44
-2 -2 13 16.75 2.04
2 2 -13 18.05 2.4
2 2 -12 213.7 8.33
-2 -2 12 204.99 7.69
-2 -2 11 28.7 2.39
-2 -2 10 32.81 2.48
-2 -2 10 36.93 2.08
-2 -2 9 808.84 18.54
2 2 -9 777.84 20.18
-2 -2 9 798.5 19.87
-2 -2 9 755.91 20.74
-2 -2 8 87.85 3.95
-2 -2 8 85.5 2.62
2 2 -8 91.88 3.67
-2 -2 8 90.46 3.45
2 2 -7 206.95 6.65
-2 -2 7 210.26 5.34
2 2 -7 201.02 6.33
-2 -2 7 210.26 6.16
-2 -2 6 131.59 4.38
2 2 -6 127.62 4.57
2 2 -6 140.65 4.63
2 2 -5 35.47 1.97
-2 -2 5 33.78 1.88
2 2 -5 37.42 1.87
2 2 -5 35.45 1.91
-2 -2 5 37.78 1.87
-2 -2 4 0.48 0.27
2 2 -4 0.2 0.35
2 2 -4 0.72 0.35
-2 -2 4 0.06 0.28
2 2 -4 0.26 0.35
-2 -2 4 0.63 0.34
-2 -2 3 713.76 17.92
-2 -2 3 703.25 17.69
2 2 -3 787.65 17.94
-2 -2 3 759.4 17.84
2 2 -3 748.74 17.3
2 2 -2 51.26 2.06
2 2 -2 51.58 1.82
-2 -2 2 49.15 1.99
-2 -2 2 53.61 1.83
2 2 -2 51.94 1.43
2 2 -2 51.86 1.81
-2 -2 1 67.82 1.92
-2 -2 1 70.79 2.58
-2 -2 1 72.7 2.28
2 2 -1 77.58 2.16
-2 -2 1 75.34 2.05
2 2 -1 81.44 2.6
-2 -2 1 67.79 2.4
-2 -2 0 3658.1 82.05
-2 -2 0 3614.9 81.99
2 2 0 3609.76 82.29
-2 -2 0 3604.09 82.2
2 2 0 3540.93 82.64
2 2 1 489.25 11.6
-2 -2 -1 504.92 12.12
-2 -2 -1 466.1 11.79
-2 -2 -1 479.07 11.49
2 2 1 475.1 12.13
-2 -2 -2 80.87 2.24
2 2 2 80.75 2.95
-2 -2 -2 81.5 2.86
2 2 2 80.23 2.11
2 2 2 80 2.31
2 2 3 177.12 4.5
-2 -2 -3 174.15 5.18
-2 -2 -3 171.8 4.68
2 2 3 169.89 5.26
2 2 4 7.89 0.62
-2 -2 -4 10.35 0.8
2 2 4 7.98 0.89
-2 -2 -4 9.33 0.89
2 2 5 1.29 0.38
2 2 5 0.63 0.48
2 2 5 0.9 0.56
-2 -2 -5 0.72 0.42
-2 -2 -5 0.65 0.41
2 2 6 201.31 5.72
2 2 6 197.83 6.15
2 2 6 193.53 6.81
-2 -2 -6 201.99 6.08
-2 -2 -6 194.9 6.17
2 2 7 130.4 4.67
2 2 7 133.5 4.38
2 2 7 137.77 5.59
-2 -2 -7 135.5 4.81
-2 -2 -7 144.54 4.92
2 2 8 31.37 1.81
2 2 8 31.83 2.52
-2 -2 -8 33.79 2.09
2 2 9 357.88 11.5
2 2 10 73.18 4.3
2 3 -13 30.28 2.95
-2 -3 13 33 2.86
-2 -3 12 0.36 0.91
-2 -3 11 128.77 4.82
-2 -3 11 130.56 5.65
-2 -3 10 22.23 1.72
-2 -3 10 24.22 2.12
-2 -3 9 135.14 4.13
-2 -3 9 133.92 5.5
-2 -3 9 143.15 4.99
2 3 -9 137.88 5.16
-2 -3 8 839.85 20.33
-2 -3 8 865.71 21.27
2 3 -8 841.9 21.46
-2 -3 7 105.49 3.99
2 3 -7 101.62 4.07
-2 -3 6 56.76 2.79
2 3 -6 61.55 2.7
2 3 -6 54.27 2.72
2 3 -6 58.15 2.76
-2 -3 6 59.47 2.71
-2 -3 5 108.53 3.87
2 3 -5 100.76 3.54
2 3 -5 107.8 3.85
-2 -3 5 95.88 3.72
2 3 -5 103.68 3.86
2 3 -4 481.45 11.53
-2 -3 4 442.41 11.87
2 3 -4 472.95 11.94
2 3 -4 443.5 12.04
-2 -3 4 469.94 12.1
2 3 -3 82.55 2.64
2 3 -3 87.06 2.33
-2 -3 2 1.05 0.35
2 3 -2 1.22 0.28
2 3 -2 0.76 0.37
2 3 -2 1.35 0.31
-2 -3 2 0.9 0.33
-2 -3 2 1.23 0.28
-2 -3 1 292.99 7.2
-2 -3 1 272.95 7.56
2 3 -1 288.92 6.91
-2 -3 1 297.71 6.77
-2 -3 1 276.65 6.72
2 3 -1 288.15 7.66
-2 -3 1 282.36 6.98
2 3 0 986.05 23.45
-2 -3 0 998.9 22.96
-2 -3 0 986.65 23.4
-2 -3 0 991.84 23.88
2 3 1 198.38 5.95
2 3 1 199.76 5.4
-2 -3 -1 201.84 5.32
-2 -3 -1 205.78 5.97
2 3 2 208.24 5.11
2 3 2 207.61 6.32
-2 -3 -2 210.32 5.34
-2 -3 -2 225.02 6.29
-2 -3 -2 215.91 5.28
2 3 3 67.55 1.99
-2 -3 -3 68.47 2.23
2 3 3 69.31 2.85
2 3 3 63.17 2.79
-2 -3 -3 70.17 2.77
2 3 4 3.03 0.38
2 3 4 2.1 0.63
2 3 4 2.87 0.63
-2 -3 -4 2.27 0.53
-2 -3 -4 2.61 0.48
2 3 5 39.23 2.18
2 3 5 43.43 2.47
-2 -3 -5 42.2 1.95
-2 -3 -5 41.32 2.16
2 3 5 41.7 1.66
2 3 6 39.49 1.7
2 3 6 36.03 2.1
2 3 6 36.16 2.42
-2 -3 -6 37.48 2.11
-2 -3 -6 34.91 1.93
2 3 7 13.51 1.04
2 3 7 10.57 1.44
-2 -3 -7 10.09 1.16
2 3 8 64.15 3.62
2 3 9 40.7 2.99
2 3 10 99.68 5.11
-2 -4 13 4.28 1.38
-2 -4 12 154.61 6.59
-2 -4 11 4.28 1.24
-2 -4 11 4.89 1.03
-2 -4 10 273.9 9.24
-2 -4 10 273.67 8.57
-2 -4 9 73.26 3.43
2 4 -9 64.47 3.3
-2 -4 9 74.21 2.88
2 4 -8 497.43 13.94
2 4 -8 508.61 13.57
-2 -4 8 525.98 13.93
2 4 -7 0.22 0.55
-2 -4 7 0.11 0.47
2 4 -7 0.16 0.37
2 4 -7 0.11 0.56
-2 -4 7 0.72 0.64
-2 -4 6 8.91 1.16
2 4 -6 10.26 0.92
-2 -4 6 11.55 1.28
2 4 -5 168.92 4.96
-2 -4 5 192.43 6.02
2 4 -5 192.09 5.84
2 4 -5 183.29 5.3
-2 -4 5 191.21 5.92
2 4 -5 166.98 5.76
-2 -4 4 1.05 0.46
2 4 -4 0.86 0.22
2 4 -4 0.61 0.33
2 4 -4 0.63 0.44
2 4 -3 60.75 2.65
2 4 -3 60.82 2.34
2 4 -3 58.09 1.86
-2 -4 3 56.13 2.3
-2 -4 3 56.83 2.6
2 4 -3 62.36 2.05
-2 -4 2 285.26 7.92
2 4 -2 281.89 7.04
-2 -4 2 277.27 7.27
-2 -4 2 277.5 7.95
2 4 -2 281.87 7.86
-2 -4 1 1899.93 42.62
-2 -4 1 1848.23 43
-2 -4 1 1811.21 42.89
2 4 -1 1888.23 43.71
-2 -4 1 1925.63 43.71
-2 -4 0 1411.33 33.01
-2 -4 0 1411.87 32.26
-2 -4 0 1395.95 32.03
-2 -4 0 1373.07 33.56
-2 -4 0 1430.2 32.56
-2 -4 -1 727.99 16.53
-2 -4 -1 710.15 18.02
2 4 1 694.9 17.16
-2 -4 -1 712.96 17.23
2 4 2 30.96 1.64
-2 -4 -2 33.67 1.24
-2 -4 -2 33.02 1.37
-2 -4 -3 90.36 2.78
2 4 3 85 2.4
2 4 3 91.46 3.39
2 4 3 86.87 2.57
-2 -4 -3 88.4 3.5
-2 -4 -3 93.65 2.47
-2 -4 -4 353.21 9.04
2 4 4 351.42 8.69
2 4 4 338.91 9.79
-2 -4 -4 355.91 9.72
-2 -4 -5 148.1 4.63
-2 -4 -5 150.84 5.05
2 4 5 147.23 4.24
2 4 5 150.55 5.34
2 4 6 18.39 1.12
2 4 6 17.93 1.66
-2 -4 -6 17.71 1.46
2 4 7 75.26 3.77
-2 -4 -7 71.8 3.27
-2 -4 -8 6.45 1.37
2 4 8 5.97 1.28
-2 -4 -9 16.67 2.14
-2 -5 13 138.21 6.38
-2 -5 12 1.27 0.79
-2 -5 12 -0.2 1.02
-2 -5 11 216.62 7.41
-2 -5 11 204.45 7.94
-2 -5 10 119.4 4.96
-2 -5 9 2.42 0.82
-2 -5 9 2.51 0.93
2 5 -9 3.16 0.79
-2 -5 8 139.46 5.67
-2 -5 8 146.16 5.54
2 5 -8 140.58 4.9
2 5 -7 318.88 9.41
-2 -5 7 299.67 9.46
-2 -5 7 315.25 9.51
2 5 -7 312.53 8.6
2 5 -6 53.6 2.15
-2 -5 6 53.35 2.85
2 5 -6 51.39 2.66
-2 -5 6 51.41 2.78
2 5 -5 87.23 2.73
-2 -5 5 87.39 3.75
-2 -5 5 82.81 3.53
2 5 -5 87.4 3.48
2 5 -4 376.51 9.23
2 5 -4 372.78 10.71
-2 -5 4 379.81 10.36
2 5 -4 409.51 9.67
2 5 -3 375.91 9.22
-2 -5 3 379.58 10.51
-2 -5 3 372.32 9.86
-2 -5 2 259.95 6.33
-2 -5 2 263.17 7.75
-2 -5 2 278.19 7.14
-2 -5 1 5.54 0.55
-2 -5 1 6.37 0.61
-2 -5 1 6.05 0.5
-2 -5 1 6.28 0.88
-2 -5 1 5.4 0.77
-2 -5 0 8.52 1.05
-2 -5 0 7.53 0.5
2 5 0 8.11 0.5
-2 -5 0 8.38 0.89
-2 -5 0 8.14 0.51
-2 -5 0 6.57 0.65
-2 -5 -1 307.82 7.42
2 5 1 310.05 7.85
-2 -5 -1 314.19 9.05
-2 -5 -1 300.29 8.26
-2 -5 -1 303.02 8.23
-2 -5 -2 246.04 7.26
-2 -5 -2 244.69 6.58
2 5 2 245.43 6.8
-2 -5 -2 258.24 7.62
-2 -5 -2 244.85 6.25
-2 -5 -3 0.19 0.23
-2 -5 -3 0.31 0.49
2 5 3 0.71 0.27
-2 -5 -3 0.69 0.32
2 5 3 0.15 0.4
-2 -5 -3 0.4 0.47
-2 -5 -4 145.46 4.45
2 5 4 155.03 5.1
-2 -5 -4 148.68 5.15
-2 -5 -4 148.31 5.49
2 5 5 23.88 1.77
2 5 5 23.72 1.26
-2 -5 -5 25.33 1.76
-2 -5 -5 22.51 1.94
-2 -5 -6 19.19 1.56
-2 -5 -6 17.7 1.89
2 5 6 19.01 1.72
-2 -5 -7 37.03 2.82
-2 -5 -8 17.39 2.12
-2 -6 13 19.43 2.38
-2 -6 12 36.9 2.67
-2 -6 11 23.18 2.15
-2 -6 10 64.18 3.59
-2 -6 10 65.26 3.87
2 6 -9 260.19 7.96
-2 -6 9 278.6 8.91
-2 -6 9 253.95 8.94
2 6 -8 285.34 8.22
-2 -6 8 297.01 9.33
-2 -6 8 281.48 9.33
2 6 -7 10.6 1.31
2 6 -7 7.72 0.86
-2 -6 7 7.09 1.15
-2 -6 7 7.86 1.21
2 6 -6 56.84 2.16
-2 -6 6 55.35 3.11
-2 -6 6 52.15 2.89
-2 -6 5 60.44 2.89
2 6 -5 54.67 1.99
2 6 -4 1892.76 43.56
-2 -6 4 1846.13 45.36
-2 -6 4 1854.98 44.64
2 6 -4 1917.31 43.2
-2 -6 3 1.01 0.56
2 6 -3 0.68 0.17
-2 -6 3 0.67 0.17
-2 -6 3 0.37 0.41
-2 -6 2 91.65 2.73
-2 -6 2 96.12 3.31
-2 -6 2 99.64 3.94
-2 -6 1 189.19 4.97
-2 -6 1 187.77 5.27
-2 -6 1 171.04 6.27
-2 -6 1 187.32 6.05
-2 -6 1 179.55 5.03
-2 -6 0 61 1.8
-2 -6 0 63.59 3.18
-2 -6 0 62.62 2.77
-2 -6 0 62.55 1.99
-2 -6 0 57.26 2.31
-2 -6 -1 39.05 1.42
-2 -6 -1 37.85 2.39
-2 -6 -1 39.82 2.02
-2 -6 -1 40.36 2
-2 -6 -2 70.74 2.29
-2 -6 -2 68.39 2.62
-2 -6 -2 67.68 3.32
2 6 2 69.26 2.5
-2 -6 -2 67.49 3.05
-2 -6 -3 0.58 0.35
-2 -6 -3 0.44 0.54
-2 -6 -3 0.69 0.6
-2 -6 -3 0.79 0.34
-2 -6 -4 65.4 3.16
-2 -6 -4 67.45 3.43
-2 -6 -5 4.95 1.11
-2 -6 -5 6.36 1
-2 -6 -6 1.36 0.91
-2 -6 -6 1.45 0.73
-2 -6 -7 4.93 1.26
-2 -6 -8 4.2 1.37
-2 -7 13 76.61 4.29
-2 -7 12 22.11 2.24
-2 -7 11 239.61 8.44
-2 -7 11 218.74 8.55
-2 -7 10 215.14 7.76
-2 -7 10 195.73 7.78
-2 -7 9 6.4 1.26
-2 -7 9 11.79 1.6
2 7 -8 273.34 7.84
-2 -7 8 278.23 9.28
-2 -7 8 278.07 9.19
-2 -7 7 4.07 1.02
2 7 -7 7.41 0.79
-2 -7 7 5.51 1.16
-2 -7 6 164.51 5.92
2 7 -6 160.94 4.74
2 7 -5 298.98 7.4
-2 -7 5 295.19 8.83
-2 -7 5 300.33 9.45
2 7 -5 289.33 7.57
2 7 -4 72.58 2.3
-2 -7 4 73.9 3.2
2 7 -4 72.86 2.13
-2 -7 4 74.17 3.68
-2 -7 3 651.68 15.38
-2 -7 3 671.5 17.55
-2 -7 3 655.34 16.61
-2 -7 2 190.83 5.37
-2 -7 2 208.51 6.82
-2 -7 2 207.01 5.98
-2 -7 1 0.33 0.52
-2 -7 1 0.18 0.25
-2 -7 1 0.21 0.36
-2 -7 1 -0.27 0.5
-2 -7 0 113.71 4.9
-2 -7 0 118.54 3.67
-2 -7 0 122.65 3.51
-2 -7 0 124.86 4.06
-2 -7 0 120.04 4.53
-2 -7 -1 55.7 1.96
-2 -7 -1 57.87 3.18
-2 -7 -1 57.08 2.05
-2 -7 -1 62.89 2.77
-2 -7 -1 56.48 2.6
-2 -7 -2 5.41 0.74
-2 -7 -2 6.07 0.93
-2 -7 -2 5.37 1.05
-2 -7 -3 172.19 6.16
-2 -7 -3 165.95 5.96
-2 -7 -4 0.56 0.69
-2 -7 -4 0.76 0.71
-2 -7 -5 89.2 3.97
-2 -7 -5 89.17 4.4
-2 -7 -6 -0.18 0.91
-2 -8 13 6.01 1.47
-2 -8 12 247.29 9.59
-2 -8 12 260.5 9.35
-2 -8 11 2.77 1.31
-2 -8 11 1.77 1.13
-2 -8 10 232.59 8.62
-2 -8 10 223.48 8.46
-2 -8 9 24.78 2.37
-2 -8 9 21.42 2.21
-2 -8 8 4 1.15
-2 -8 8 4.77 1.17
-2 -8 7 278.35 9.5
-2 -8 7 276.61 9.03
2 8 -6 64.46 2.31
2 8 -6 66.79 2.36
-2 -8 6 68.49 3.46
2 8 -5 402.04 9.83
-2 -8 5 425.77 11.57
2 8 -5 393.18 9.78
-2 -8 5 410.52 12.27
-2 -8 4 151 4.07
-2 -8 4 157.93 5.36
-2 -8 4 157.13 6.05
2 8 -4 145.69 3.96
-2 -8 3 0.29 0.63
-2 -8 3 -0.04 0.25
-2 -8 3 0.28 0.48
-2 -8 2 33.43 1.61
-2 -8 2 35.7 2.43
-2 -8 2 31.1 1.84
-2 -8 1 5.07 0.94
-2 -8 1 3.48 0.46
-2 -8 1 4.11 0.57
-2 -8 1 3.39 0.95
-2 -8 1 6.3 0.75
-2 -8 0 1.98 0.81
-2 -8 0 0.77 0.74
-2 -8 0 1.71 0.57
-2 -8 0 1.96 0.44
-2 -8 0 1.3 0.37
-2 -8 -1 310.68 9.07
-2 -8 -1 307.66 8.89
-2 -8 -1 312.28 9.96
-2 -8 -2 6.04 0.87
-2 -8 -2 5.73 0.95
-2 -8 -2 5.28 1.14
-2 -8 -3 32.48 2.39
-2 -8 -3 30.74 2.24
-2 -8 -4 36.55 2.6
-2 -8 -4 34.84 2.49
-2 -8 -5 13.63 1.75
-2 -8 -6 19.19 2.16
-2 -9 13 27.94 2.87
-2 -9 12 1.52 1.28
-2 -9 12 1.66 1.29
-2 -9 11 184.23 7.77
-2 -9 11 205.33 8.19
-2 -9 10 41.09 3.21
-2 -9 10 41.96 3.25
-2 -9 9 0.82 0.91
-2 -9 9 0.38 0.85
-2 -9 8 81.02 4.26
-2 -9 8 80.74 4.51
-2 -9 7 103.21 4.74
-2 -9 6 25.66 2.4
-2 -9 6 23.23 2.05
-2 -9 5 44.25 3.14
-2 -9 5 49.29 2.81
-2 -9 4 26.69 1.23
-2 -9 4 31.64 2.09
-2 -9 4 27.47 2.43
-2 -9 3 74.72 2.53
-2 -9 3 74.68 3.32
-2 -9 3 73.53 3.94
-2 -9 2 17.08 1.83
-2 -9 2 21.54 1.37
-2 -9 2 23.58 2.2
-2 -9 2 18.96 1.53
-2 -9 1 -0.14 0.66
-2 -9 1 -0.15 0.45
-2 -9 1 0.25 0.42
-2 -9 1 -0.35 0.69
-2 -9 0 0.91 0.66
-2 -9 0 1.68 0.72
-2 -9 0 2.43 0.99
-2 -9 -1 34.14 2.23
-2 -9 -1 31.49 2.08
-2 -9 -1 36.31 2.74
-2 -9 -2 129.79 5.56
-2 -9 -2 125.28 4.94
-2 -9 -3 75.28 3.92
-2 -9 -3 64.53 3.51
-2 -9 -4 6.18 1.31
-2 -10 11 0.23 1.09
-2 -10 11 0.23 1.08
-2 -10 10 110.21 5.77
-2 -10 10 111.57 5.66
-2 -10 9 -0.67 0.99
-2 -10 9 -0.4 0.94
-2 -10 8 0.72 0.79
-2 -10 7 146.36 6.01
-2 -10 7 144.03 6.53
-2 -10 6 101.53 5.18
-2 -10 6 97.6 4.58
-2 -10 5 26.87 2.55
-2 -10 5 29.33 2.26
-2 -10 4 175.08 6.21
-2 -10 4 171.76 7.02
-2 -10 3 6.4 1.36
-2 -10 3 5.74 1.02
-2 -10 2 1.35 0.89
-2 -10 2 1.74 0.95
-2 -10 2 4.35 0.9
-2 -10 1 14.92 1.74
-2 -10 1 16.1 2
-2 -10 0 45.1 3.23
-2 -10 0 40.57 2.72
-2 -10 -1 159.55 6.67
-2 -10 -2 2.95 1.16
-2 -10 -3 19.47 2.15
-2 -11 11 74.93 4.75
-2 -11 10 5.66 1.69
-2 -11 10 5.14 1.51
-2 -11 9 168.24 7.11
-2 -11 9 170.99 7.63
-2 -11 8 0.19 0.99
-2 -11 7 9.57 1.78
-2 -11 7 8.73 1.48
-2 -11 6 53.24 3.28
-2 -11 6 59.32 4.01
-2 -11 5 100.26 5.28
-2 -11 5 102.02 4.59
-2 -11 4 19.2 2.23
-2 -11 4 17.2 1.78
-2 -11 3 28.81 2.62
-2 -11 3 25.4 2.57
-2 -11 2 2.02 1.04
-2 -11 2 2.15 1.21
-2 -11 1 60.44 3.59
-2 -11 1 55.77 3.87
-2 -11 0 33.53 2.95
-2 -11 -1 4.34 1.45
-2 -11 -2 15.02 1.96
-2 -12 10 13.65 2.17
-2 -12 9 9.43 1.84
-2 -12 8 16.66 2.4
-2 -12 8 14.53 1.97
-2 -12 7 160.73 6.68
-2 -12 7 161.93 7.44
-2 -12 6 56.71 4.11
-2 -12 6 57.05 3.5
-2 -12 5 3.22 1.32
-2 -12 4 180.58 7.57
-2 -12 4 165.92 7.55
-2 -12 3 115.86 6.17
-2 -12 3 129.59 6.08
-2 -12 2 24.91 2.48
-2 -12 2 21.25 2.51
-2 -12 1 7.25 1.75
-2 -12 0 50.97 3.79
-2 -13 9 94.16 5.23
-2 -13 8 78.74 4.62
-2 -13 6 23.06 2.86
-2 -13 5 5.19 1.76
-2 -13 4 77.84 4.85
-2 -13 3 238.16 9.26
3 -12 -2 3.44 1.48
3 -12 -1 48.89 3.65
3 -12 0 24.13 2.66
3 -12 1 11.17 1.95
3 -12 2 92.12 4.95
3 -12 3 21.04 2.24
3 -12 4 159.99 6.67
3 -12 5 12.56 1.8
3 -12 6 17.73 2.05
3 -12 6 15.72 2.22
3 -12 7 22.22 2.69
3 -12 7 31.45 2.73
3 -12 8 3.85 1.4
3 -12 9 114.47 5.68
3 -11 -3 0.45 1.27
3 -11 -2 0.64 1.22
3 -11 -1 10.26 1.77
3 -11 0 160.9 6.97
3 -11 1 24.5 2.55
3 -11 2 14.6 1.94
3 -11 3 9.14 1.5
3 -11 5 11.39 1.58
3 -11 6 47.1 3.25
3 -11 7 15.13 2.13
3 -11 7 14.54 1.97
3 -11 8 82.22 4.65
3 -11 8 85.78 5.16
3 -11 9 14.34 1.95
3 -11 9 17.52 2.42
3 -10 -5 12.75 2.3
3 -10 -4 23.99 2.65
3 -10 -3 4.19 1.36
3 -10 -2 31.04 2.79
3 -10 -1 28.74 2.62
3 -10 0 75.78 4.22
3 -10 0 68.7 2.99
3 -10 1 171.67 6.98
3 -10 1 166.32 5.47
3 -10 2 126.5 4.61
3 -10 2 135.85 5.88
3 -10 3 109.38 5.02
3 -10 4 103.91 4.86
3 -10 5 122.19 5.37
3 -10 6 71.79 3.97
3 -10 7 142.23 6.13
3 -10 8 42.43 3.17
3 -10 9 238.73 9.33
3 -10 10 23.6 2.67
3 -10 11 1.44 1.25
3 -10 11 0.83 0.99
3 -9 -6 9.49 1.98
3 -9 -5 27.39 2.81
3 -9 -4 72.99 4.41
3 -9 -3 2.12 1.06
3 -9 -2 5.07 1.27
3 -9 -1 18.85 2.01
3 -9 0 182.35 7.08
3 -9 1 52.28 3.4
3 -9 1 56.2 2.59
3 -9 2 45.5 3.07
3 -9 2 47.43 2.44
3 -9 3 233.95 8.09
3 -9 4 213.5 7.58
3 -9 5 23.65 2.11
3 -9 6 100.65 4.75
3 -9 7 6.63 1.36
3 -9 8 255.28 9.31
3 -9 8 235.05 8.66
3 -9 9 75.2 4.51
3 -9 9 79.43 4.72
3 -9 10 6.27 1.57
3 -9 10 3.32 1.34
3 -9 11 0.22 1.1
3 -8 -7 5.94 1.62
3 -8 -6 1.82 1.26
3 -8 -5 31.84 2.87
3 -8 -4 10.89 1.76
3 -8 -3 50.85 3.38
3 -8 -2 33.71 2.66
3 -8 -2 36.9 2.42
3 -8 -1 68.08 3.7
3 -8 -1 70.15 3.43
3 -8 -1 61.99 2.29
3 -8 0 68.9 3.72
3 -8 1 28.28 2.38
3 -8 1 30.07 1.81
3 -8 2 166.47 5.49
3 -8 2 166.02 6.37
-3 8 -2 162.59 5.88
3 -8 3 -0.28 0.77
3 -8 3 -0.1 0.59
3 -8 4 477.19 13.64
-3 8 -4 476.88 11.77
3 -8 5 283.66 9.19
3 -8 6 26.82 2.27
3 -8 6 26.24 2.36
3 -8 7 129.41 5.79
3 -8 7 124.75 5.5
3 -8 8 21.82 2.36
3 -8 8 20.4 2.12
3 -8 9 3.86 1.2
3 -8 9 1.69 1.06
3 -8 10 16.92 2.07
3 -8 10 15.49 2.14
3 -8 11 0.2 0.97
3 -8 11 0.24 1.17
3 -8 11 0.22 1.02
-3 7 8 39.09 2.67
3 -7 -7 45.8 3.57
3 -7 -6 95.48 5.12
3 -7 -5 425.62 13.36
3 -7 -4 75.34 4.17
3 -7 -3 148.52 6.27
3 -7 -3 174.34 5.74
3 -7 -2 29.98 2.43
3 -7 -2 36.93 2.22
3 -7 -2 31.67 1.63
3 -7 -1 20.79 1.19
-3 7 1 19.99 1.72
3 -7 -1 23.42 1.77
3 -7 -1 20.93 1.89
3 -7 0 213.91 7.32
3 -7 0 221.41 7.01
3 -7 0 207.33 6.47
-3 7 0 203.61 6.83
3 -7 1 57.32 3.31
3 -7 1 61.74 2.66
3 -7 1 67.55 3.25
-3 7 -1 60.71 3.04
3 -7 2 21.42 1.9
3 -7 2 24.02 1.61
-3 7 -2 20.97 1.73
-3 7 -2 22.44 1.56
3 -7 2 23.98 1.9
-3 7 -3 50.08 2.72
3 -7 3 45.32 2.71
3 -7 3 46.72 2.83
3 -7 3 45.73 2.44
-3 7 -3 45.31 1.81
-3 7 -4 8.43 0.81
-3 7 -4 11.65 1.42
3 -7 4 8.48 1.24
3 -7 5 140.81 5.56
3 -7 6 93.84 4.42
3 -7 6 91.81 4.53
3 -7 7 30.98 2.46
3 -7 7 34.34 2.68
3 -7 8 141.71 6.15
3 -7 9 60.88 3.87
3 -7 9 57.87 3.56
3 -7 10 18.85 2.06
3 -7 10 21.48 2.42
3 -7 11 75.38 4.63
3 -7 11 86.93 4.94
-3 6 9 64.43 3.5
3 -6 -8 9.76 1.87
-3 6 8 10.19 1.44
3 -6 -7 -0.64 1.12
-3 6 7 0.25 0.68
3 -6 -6 -1.35 1.05
-3 6 6 0.24 0.65
3 -6 -6 0.46 0.52
-3 6 5 91.8 3.92
3 -6 -5 91.72 3.67
3 -6 -5 91.16 4.66
3 -6 -4 955.64 23.91
3 -6 -4 980.36 23.7
3 -6 -4 975.43 24.17
3 -6 -4 956.53 25.21
3 -6 -3 1.15 0.8
3 -6 -3 0.39 0.58
3 -6 -3 0.62 0.53
3 -6 -2 184.91 6.55
3 -6 -2 175.37 5.54
3 -6 -2 196.45 5.98
3 -6 -2 180.14 5.96
3 -6 -2 179.96 5.31
-3 6 2 179.39 6.18
3 -6 -1 238.85 7.84
3 -6 -1 238.81 6.49
3 -6 -1 229.29 6.93
3 -6 -1 253.39 7.48
-3 6 1 246.94 7.56
3 -6 -1 247.43 7.44
3 -6 0 96.86 4.17
3 -6 0 89.98 3.81
3 -6 0 97.23 3.58
3 -6 0 89.61 2.97
-3 6 0 96.31 3.88
-3 6 -1 97.32 3.89
3 -6 1 96.81 4.26
3 -6 1 96.77 3.5
3 -6 1 97.48 4.04
3 -6 1 93.85 3.93
3 -6 2 4.56 0.91
-3 6 -2 4.1 0.84
3 -6 2 4.07 0.86
3 -6 2 4.1 0.68
-3 6 -2 4.08 0.5
-3 6 -3 4.51 0.57
-3 6 -3 3.63 0.87
3 -6 3 4.37 0.84
-3 6 -3 5.23 0.78
3 -6 3 4.3 0.79
-3 6 -4 426.47 12.12
3 -6 4 414.5 11.98
-3 6 -4 440.09 11.39
3 -6 4 399 12.07
-3 6 -5 7.7 1.29
-3 6 -5 9.94 1.14
3 -6 5 9.06 1.27
-3 6 -5 9.79 1.07
3 -6 5 8.75 1.36
-3 6 -6 1.58 0.64
-3 6 -6 1.19 0.71
3 -6 6 0.14 0.58
3 -6 6 0.74 0.71
3 -6 7 91.15 4.39
3 -6 7 87.53 4.4
3 -6 8 182.54 7.07
3 -6 9 1.12 0.91
3 -6 9 1.69 0.92
3 -6 10 82.79 4.18
3 -6 10 90.33 4.81
3 -6 11 66.94 4.25
3 -6 11 73.58 4.56
3 -6 12 102.58 5.54
-3 5 10 113.28 4.9
3 -5 -9 -0.24 1.24
-3 5 9 0.54 0.84
3 -5 -8 23.99 2.52
-3 5 8 25.36 1.99
3 -5 -7 0.58 0.94
-3 5 7 1.96 0.75
3 -5 -7 1.11 0.55
3 -5 -6 103.32 3.81
-3 5 6 101.29 4.16
3 -5 -6 110.46 3.87
3 -5 -6 108.44 5.12
3 -5 -5 0.42 0.4
3 -5 -5 -0.16 0.83
3 -5 -5 0.8 0.52
-3 5 5 0.6 0.61
-3 5 4 31.84 1.96
3 -5 -4 31.15 1.79
3 -5 -4 31.13 1.88
3 -5 -4 32.44 2.4
3 -5 -4 28.57 1.64
3 -5 -3 288.73 8.27
3 -5 -3 307.07 8.43
3 -5 -3 317.17 8.55
3 -5 -3 296.86 9.3
-3 5 3 300.12 9.03
-3 5 2 1.82 0.64
3 -5 -2 1.3 0.64
3 -5 -2 1.75 0.48
3 -5 -2 1.43 0.57
3 -5 -2 1.39 0.52
3 -5 -1 23.83 1.82
3 -5 -1 25.78 1.49
3 -5 -1 24.32 1.6
3 -5 -1 25.58 1.67
3 -5 -1 23.24 1.26
-3 5 1 22.58 1.65
3 -5 0 16.14 1.5
-3 5 0 14.99 1.34
3 -5 0 15.53 0.97
3 -5 0 13.42 1.12
3 -5 0 14.19 1.25
3 -5 0 15.77 1.31
-3 5 -1 24.8 1.68
3 -5 1 25.34 1.48
-3 5 -1 21.83 1.16
3 -5 1 20.76 1.73
3 -5 1 23.08 1.66
-3 5 -2 18.35 1.49
3 -5 2 16.11 1.43
3 -5 2 18.13 1.33
-3 5 -2 17.14 1.03
3 -5 2 17.85 1.47
3 -5 2 13.87 1.26
-3 5 -3 477.35 12.94
3 -5 3 466.51 12.8
3 -5 3 489.88 12.64
-3 5 -3 452.31 12.07
-3 5 -4 95.38 4.11
3 -5 4 96.33 4.06
-3 5 -4 97.94 3.66
-3 5 -4 94.42 3.49
3 -5 4 97.7 4.07
3 -5 5 1719.56 40.84
3 -5 5 1679.03 40.69
3 -5 5 1724.87 40.9
-3 5 -5 1690.71 40.22
-3 5 -5 1630.56 39.73
-3 5 -5 1712.81 40.8
3 -5 6 193.6 7.01
-3 5 -6 208.66 6.77
3 -5 6 208.2 7.07
-3 5 -6 198.05 6.15
3 -5 6 201.31 6.93
3 -5 7 55.43 3.24
-3 5 -7 53.91 2.53
3 -5 8 230.66 8.03
-3 5 -8 219.97 6.68
3 -5 9 2.96 0.92
3 -5 9 2.46 1.04
3 -5 10 122.83 5.69
3 -5 11 92.66 4.93
3 -5 11 77.35 4.84
3 -5 12 7.06 1.75
-3 4 11 57.87 3.29
-3 4 10 1.2 0.78
-3 4 9 128.38 4.98
-3 4 8 0.56 0.62
-3 4 7 157.93 5.4
3 -4 -7 152.11 4.82
3 -4 -6 -0.15 0.45
-3 4 6 0.48 0.55
3 -4 -6 0.07 0.44
3 -4 -6 0.14 0.2
3 -4 -6 0.02 0.23
-3 4 5 80.66 3.31
3 -4 -5 83.13 3.56
3 -4 -5 84.53 3.08
3 -4 -5 79.86 2.63
3 -4 -5 77.81 3.38
3 -4 -4 147.68 4.95
-3 4 4 153.84 5.03
3 -4 -4 161.98 4.84
3 -4 -4 155.73 4.57
-3 4 4 144.26 5.37
3 -4 -3 7.73 0.83
3 -4 -3 8.61 0.82
3 -4 -3 8.76 0.84
-3 4 3 7.64 0.9
-3 4 3 5.76 0.89
-3 4 2 8.85 1.02
3 -4 -2 9.74 0.85
3 -4 -2 8.9 0.85
3 -4 -2 10.09 0.96
3 -4 -1 27.35 1.57
3 -4 -1 30.27 1.72
3 -4 -1 28.57 1.39
-3 4 1 27.18 1.73
-3 4 0 1136.98 27.01
3 -4 0 1121.81 26.69
3 -4 0 1120.2 26.24
3 -4 0 1180.02 27.04
-3 4 -1 62.47 2.29
3 -4 1 69.28 2.9
3 -4 1 59.15 2.89
-3 4 -1 63.98 2.83
3 -4 1 67.89 2.6
-3 4 -2 4.86 0.8
3 -4 2 4.58 0.75
-3 4 -2 4.92 0.58
3 -4 2 3.71 0.65
3 -4 2 4.72 0.71
3 -4 3 598.77 15.99
-3 4 -3 623.37 15.5
3 -4 3 625.81 16.08
-3 4 -3 624.35 16.22
3 -4 3 617.03 15.67
3 -4 4 697.17 18.38
-3 4 -4 729.1 18.02
-3 4 -4 709.25 17.5
3 -4 4 723.22 18.4
-3 4 -4 709.6 18.4
-3 4 -5 193.27 6.48
-3 4 -5 202.5 6.39
3 -4 5 188.41 6.47
-3 4 -5 191.96 5.68
3 -4 5 193.46 6.44
3 -4 5 186.53 6.58
-3 4 -6 147.95 5.51
3 -4 6 134.19 5.44
-3 4 -6 149.96 5.41
3 -4 6 138.38 5.36
-3 4 -6 141.84 4.55
3 -4 6 146.43 5.32
3 -4 7 249.16 8.02
-3 4 -7 239.26 6.82
3 -4 7 228.88 7.54
3 -4 8 173.79 6.65
-3 4 -8 187.18 5.56
3 -4 9 44.16 3.07
3 -4 9 49.35 2.68
3 -4 10 22.64 2.25
3 -4 10 19.95 2.34
3 -4 11 162.91 7.31
3 -4 11 161.81 6.78
-3 3 11 29.47 2.26
-3 3 10 36.87 2.43
3 -3 -10 33.63 3.02
-3 3 9 23.03 1.85
3 -3 -9 27.2 2.57
3 -3 -8 9.79 1.61
-3 3 8 8.15 1.11
-3 3 7 44.51 2.36
3 -3 -7 46.41 3.02
3 -3 -7 42.93 2.15
-3 3 6 58.83 2.71
3 -3 -6 66.02 2.67
3 -3 -6 57.87 3.26
3 -3 -5 43.03 2.04
-3 3 5 38.23 2.02
3 -3 -5 40.55 1.38
3 -3 -5 42 2.33
3 -3 -5 35.31 2.4
3 -3 -5 41.19 2.22
-3 3 4 257.2 7.37
3 -3 -4 257.74 6.76
3 -3 -3 4.04 0.6
-3 3 3 3.74 0.61
3 -3 -3 5.01 0.57
3 -3 -2 0.67 0.36
3 -3 -1 226.34 6.43
3 -3 -1 229.36 6.17
3 -3 0 138.77 4.23
3 -3 0 149.08 4.38
-3 3 0 143.1 4.21
-3 3 0 153.28 4.69
3 -3 0 154.87 4.72
3 -3 1 184.69 5.43
3 -3 1 185.19 5.34
3 -3 1 180.4 5.67
-3 3 -1 184.48 5.75
-3 3 -1 189.64 5.2
3 -3 2 668.68 16.93
3 -3 2 684.14 16.63
-3 3 -3 294.48 8.35
3 -3 3 305.2 8.24
3 -3 3 303.96 8.68
-3 3 -3 312.58 8.8
-3 3 -4 24.68 1.67
3 -3 4 25.28 1.74
-3 3 -4 25.91 1.86
3 -3 5 301.63 8.76
-3 3 -5 303.1 8.87
3 -3 5 287 8.75
-3 3 -5 307.34 9.01
3 -3 6 46.83 2.6
3 -3 6 46.32 2.46
-3 3 -6 43.49 2.57
-3 3 -6 45.4 2.68
3 -3 7 41.28 2.59
3 -3 7 44.58 2.44
-3 3 -7 42.08 2.56
3 -3 8 1.21 0.59
-3 3 -8 0.26 0.66
3 -3 8 0.57 0.69
3 -3 8 0.86 0.64
3 -3 9 185.92 6.91
3 -3 10 34.82 2.69
3 -3 11 93.78 4.69
3 -2 -11 2.81 1.34
-3 2 11 2.85 0.9
3 -2 -10 16.62 2.13
-3 2 10 12.81 1.46
3 -2 -9 41.99 3.08
-3 2 9 38.67 2.37
3 -2 -8 171.77 5.58
3 -2 -8 183.77 6.9
-3 2 8 174.93 5.88
-3 2 7 71.05 3.12
3 -2 -7 75.39 3.82
3 -2 -7 74.54 3
3 -2 -6 133.73 4.37
3 -2 -6 127.18 4.86
3 -2 -6 137.51 4.93
-3 2 6 131.55 4.51
3 -2 -6 133.33 5.2
-3 2 5 96.62 3.52
3 -2 -5 92.92 3.99
3 -2 -5 106.11 3.96
3 -2 -5 99.21 3.81
3 -2 -5 100.94 2.5
3 -2 -5 100.57 3.52
3 -2 -4 608.45 15.06
-3 2 4 603.26 15.34
3 -2 -4 594.56 14.88
-3 2 4 599.24 14.85
3 -2 -4 589.62 14.04
3 -2 -4 599.88 15.47
-3 2 3 0.31 0.39
3 -2 -3 -0.08 0.36
3 -2 -3 0.26 0.26
3 -2 -2 406.62 10.71
-3 2 2 421.65 10.21
3 -2 -2 384.79 10.08
3 -2 -2 398.28 10.09
3 -2 -2 413.5 10.3
-3 2 2 403.57 10.56
-3 2 1 760.85 18.75
3 -2 -1 813.22 19.08
3 -2 -1 769.48 18.52
3 -2 -1 832.15 18.47
3 -2 -1 770.69 18.65
-3 2 1 724.86 18.47
-3 2 1 753.85 18.84
-3 2 0 189.44 5.68
3 -2 0 190.46 5.87
-3 2 0 199.94 5.41
3 -2 0 191.27 5.3
3 -2 0 201.45 5.71
-3 2 0 199.15 5.75
-3 2 -1 1259.28 31.03
-3 2 -1 1326.67 31.09
-3 2 -1 1345.81 30.59
3 -2 1 1275.21 30.94
3 -2 2 1.47 0.34
3 -2 2 1.16 0.46
-3 2 -2 1.33 0.52
3 -2 2 1.48 0.46
-3 2 -3 146.33 4.95
3 -2 3 148.16 4.87
3 -2 3 151.95 5.09
-3 2 -3 160.17 5.18
3 -2 3 146.1 4.44
3 -2 4 1479.83 36.49
3 -2 4 1593.63 36.08
3 -2 4 1546.73 36.12
-3 2 -4 1566.65 36.52
3 -2 5 84.94 3.5
3 -2 5 90.43 3.5
-3 2 -5 85.2 3.73
3 -2 6 79.35 3.32
3 -2 6 77.95 3.45
-3 2 -6 81.74 3.62
-3 2 -7 0.72 0.62
3 -2 7 2.35 0.79
3 -2 7 1.29 0.57
3 -2 8 15.95 1.39
3 -2 8 15.01 1.15
3 -2 8 13.6 1.51
3 -2 9 188.1 7.6
3 -2 9 188.79 6.86
-3 2 -9 198.52 6.77
3 -2 10 0.64 0.88
3 -2 10 0.6 0.86
3 -2 11 2.87 1.1
3 -2 11 1.84 1.22
-3 1 12 1.63 0.92
3 -1 -11 2.2 1.22
-3 1 11 2.45 0.89
-3 1 10 55.89 3.07
3 -1 -10 63.23 3.84
-3 1 9 1.36 0.68
3 -1 -9 0.69 0.73
-3 1 8 114.13 4.3
3 -1 -8 104.49 3.99
3 -1 -8 106.13 4.79
3 -1 -7 0.66 0.47
-3 1 7 0.73 0.42
3 -1 -7 0.91 0.66
-3 1 6 98.2 3.65
3 -1 -6 94.94 3.9
3 -1 -6 98.89 3.57
3 -1 -6 95.85 4.02
3 -1 -5 123.12 4.47
3 -1 -5 133.63 4.13
3 -1 -4 118.66 3.95
3 -1 -4 126.31 3.24
-3 1 4 119.75 3.33
-3 1 4 121.9 4.18
3 -1 -4 118.61 4.19
3 -1 -3 1.33 0.38
3 -1 -3 2.13 0.48
-3 1 3 1.77 0.47
3 -1 -3 1.02 0.27
3 -1 -3 1.2 0.42
-3 1 3 1.84 0.34
3 -1 -2 1.4 0.32
-3 1 2 1.32 0.43
3 -1 -2 1.94 0.48
3 -1 -2 1.45 0.34
3 -1 -2 1.13 0.4
-3 1 2 1.85 0.34
-3 1 2 1.17 0.36
-3 1 1 1751.82 40.86
3 -1 -1 1763 41.01
3 -1 -1 1765.79 40.43
3 -1 -1 1802.71 40.74
3 -1 -1 1714.25 40.69
-3 1 1 1781.12 40.56
-3 1 1 1751.15 40.89
-3 1 1 1742.03 40.73
3 -1 0 109.88 3.69
3 -1 0 121.58 3.3
-3 1 0 109.92 3.49
3 -1 0 111.57 3.62
-3 1 0 111.21 3.72
-3 1 0 111.01 3.66
-3 1 -1 1954.58 44.64
3 -1 1 1949.7 44.53
3 -1 1 1842.21 44.43
-3 1 -2 705.28 17.18
3 -1 2 711.16 17.23
3 -1 2 710.13 17.05
-3 1 -2 649.58 16.89
-3 1 -2 685.91 17.29
3 -1 3 514.69 13.37
-3 1 -3 527.68 13.39
-3 1 -3 494.14 13.17
3 -1 3 519.74 12.85
3 -1 3 502.87 12.42
3 -1 3 511.67 13.06
-3 1 -3 508.97 13.38
3 -1 4 5.96 0.79
-3 1 -4 5.56 0.86
-3 1 -4 5.95 0.89
3 -1 4 5.93 0.6
3 -1 4 5.98 0.72
-3 1 -4 5.26 0.87
-3 1 -5 430.95 12.02
-3 1 -5 415.39 11.84
3 -1 5 425.96 11.32
3 -1 5 438.25 11.41
3 -1 6 118.09 4.11
-3 1 -6 109.22 4.45
3 -1 6 114.98 4.27
3 -1 7 32.24 2.09
3 -1 7 32.78 1.94
3 -1 7 32.23 1.5
-3 1 -7 32.06 2.18
3 -1 8 28.42 1.85
-3 1 -8 28.36 2.11
3 -1 8 29.16 2.08
3 -1 9 2.17 1.06
-3 1 -9 2.56 0.98
3 -1 9 2.79 0.96
3 -1 10 74.42 4.49
3 -1 10 73.53 3.71
-3 0 12 32.79 2.48
3 0 -12 33.92 3.1
3 0 -11 17.29 2.13
-3 0 11 13.59 1.55
-3 0 10 0.26 0.69
3 0 -10 1.82 0.96
3 0 -9 2.29 0.8
3 0 -9 2.22 0.9
-3 0 9 3.71 0.88
3 0 -8 20.87 1.59
-3 0 8 17.01 1.54
3 0 -8 19.46 1.83
-3 0 7 373.71 10.3
3 0 -7 371.3 10.72
3 0 -7 349.22 10.51
3 0 -7 372.28 10.69
3 0 -7 365.74 10.09
3 0 -6 260.03 7.84
3 0 -6 274.26 7.63
3 0 -6 256.2 7.86
-3 0 5 531.22 12.41
3 0 -5 524.39 13.46
3 0 -5 528.94 13.68
-3 0 4 499.58 13.03
3 0 -4 548.69 12.56
-3 0 4 527.58 12.49
3 0 -4 520.48 13.37
-3 0 4 517.87 13.24
3 0 -4 523.6 13.23
3 0 -4 519.89 13.3
-3 0 3 258.32 6.55
3 0 -3 257.36 6.74
3 0 -3 238.57 6.29
-3 0 3 246.49 6.33
-3 0 3 240.9 6.68
3 0 -3 248.5 6.77
3 0 -3 235.99 6.71
3 0 -2 7.98 0.72
3 0 -2 7.39 0.63
3 0 -2 8.72 0.66
-3 0 2 8.69 0.62
-3 0 2 8 0.65
-3 0 2 7.61 0.69
3 0 -1 1437.39 33.95
-3 0 1 1460.08 33.85
-3 0 1 1500.65 33.98
3 0 -1 1453.53 33.95
3 0 -1 1468.39 33.46
-3 0 1 1387.42 33.51
3 0 -1 1516.37 33.85
-3 0 0 237.22 6.71
-3 0 0 255.66 6.8
3 0 0 251.61 6.61
3 0 0 256.24 6.11
3 0 0 257.37 6.65
-3 0 -1 453.38 11.3
-3 0 -1 459.51 11.16
3 0 1 479.4 11.36
3 0 1 456.83 11.37
-3 0 -2 36.02 1.83
3 0 2 35.67 1.83
-3 0 -2 35.63 1.79
-3 0 -2 33.62 1.8
3 0 2 34.48 1.71
-3 0 -3 26.04 1.66
3 0 3 29.63 1.38
3 0 3 26.83 1.15
-3 0 -3 29.45 1.74
3 0 3 27.63 1.55
-3 0 -3 27.04 1.69
3 0 4 12.05 0.94
3 0 4 10.15 0.69
3 0 4 11.15 1
-3 0 -4 10.68 1.14
-3 0 -4 12.09 1.23
-3 0 -4 11.82 1.18
-3 0 -5 49.95 2.76
3 0 5 50.31 2.36
3 0 5 50.89 2.27
-3 0 -5 47.91 2.6
-3 0 -6 29.57 2.08
3 0 6 30.01 1.83
3 0 6 28.33 1.15
3 0 6 25.53 1.68
-3 0 -7 15.87 1.55
3 0 7 15.85 1.38
3 0 7 17.42 1.46
3 0 8 40.06 2.31
3 0 8 35.64 2.85
-3 0 -8 41.01 2.57
3 0 9 108.92 5.41
-3 0 -9 113.75 4.66
3 0 9 112.05 4.43
3 0 10 133.36 6.25
-3 -1 12 20.05 2.01
3 1 -12 23.1 2.5
-3 -1 11 -0.45 0.72
3 1 -11 1.15 0.92
-3 -1 10 63.89 3.42
3 1 -10 63.89 3.7
-3 -1 9 114.13 4.77
3 1 -9 115.45 4.57
3 1 -9 127.65 5.18
-3 -1 8 788.45 19.39
3 1 -8 775.27 19.68
3 1 -8 752.07 20
-3 -1 8 767.77 19.88
3 1 -7 38.82 2.34
-3 -1 7 40.54 1.17
3 1 -7 44.84 2.35
3 1 -7 39.45 2.32
-3 -1 7 41.53 2.15
3 1 -6 45.98 2.35
-3 -1 6 45.75 1.45
3 1 -6 42.08 2.4
3 1 -6 44.39 2.27
3 1 -6 44.47 2.28
-3 -1 6 46.36 2.2
-3 -1 5 59.45 1.92
3 1 -5 60.21 2.59
3 1 -5 62.08 2.73
-3 -1 5 59.83 2.57
3 1 -5 61.52 2.64
3 1 -5 57.44 2.45
-3 -1 5 58.93 2.51
-3 -1 4 837.66 19.39
-3 -1 4 785.23 18.77
3 1 -4 805.29 19.54
3 1 -4 782.43 19.51
3 1 -4 785.56 19.19
-3 -1 4 807.87 19.49
-3 -1 3 216.65 6.36
3 1 -3 237.23 6.34
-3 -1 3 232.83 6.05
3 1 -3 222.51 6.14
-3 -1 3 228.07 6.14
-3 -1 3 233.89 6.11
3 1 -3 234.32 6.13
3 1 -2 0.44 0.29
3 1 -2 0.5 0.27
3 1 -2 1.03 0.29
-3 -1 2 0.58 0.19
-3 -1 2 0.43 0.26
3 1 -2 0.65 0.26
-3 -1 2 0.58 0.25
3 1 -2 0.65 0.33
-3 -1 1 292.69 7.62
-3 -1 1 297.72 7.86
-3 -1 1 316.07 7.34
3 1 -1 289.2 7.95
3 1 -1 304.29 7.61
3 1 -1 297.82 7.87
-3 -1 1 311.78 7.93
3 1 -1 297 7.86
3 1 -1 307.31 7.42
-3 -1 0 385.33 9.9
-3 -1 0 380 9.74
3 1 0 392.25 9.12
3 1 0 403.54 9.85
3 1 0 377.67 9.72
3 1 0 390.53 9.74
-3 -1 -1 167.81 4.94
3 1 1 179.3 4.97
-3 -1 -1 170.67 4.87
3 1 1 164.21 4.12
3 1 1 180.76 5.11
-3 -1 -1 164.21 5.06
3 1 1 173.5 4.67
-3 -1 -2 26.37 1.52
-3 -1 -2 26.6 1.53
3 1 2 24.87 1.02
-3 -1 -2 25.03 1.51
3 1 2 27.45 1.54
3 1 2 25.54 1.14
-3 -1 -3 263.92 7.65
-3 -1 -3 274.8 7.81
-3 -1 -3 262.1 7.68
3 1 3 260.66 6.79
3 1 3 272.13 7.54
3 1 3 265.46 6.62
3 1 4 27.67 0.97
3 1 4 31.1 2.04
-3 -1 -4 37.18 2.17
-3 -1 -5 208.48 6.85
3 1 5 201.44 6.26
-3 -1 -5 207.53 6.57
3 1 5 199.32 5.75
-3 -1 -6 23.99 1.83
3 1 6 26.17 1.76
3 1 6 24.8 1.5
3 1 7 266.41 7.89
3 1 7 284.2 9.41
-3 -1 -7 286.06 8.74
3 1 7 292.33 8.4
3 1 8 79.05 4.31
-3 -1 -8 79.03 3.75
3 1 8 79.84 3.25
3 1 9 37.2 2.96
3 1 10 14.2 2.06
3 2 -13 13.64 2.08
-3 -2 12 23.26 2.21
3 2 -12 25.61 2.49
-3 -2 11 -0.16 0.81
-3 -2 11 -0.11 0.63
3 2 -11 0.18 0.86
3 2 -10 244.51 8.05
3 2 -10 261.95 8.69
-3 -2 10 259.39 8.49
-3 -2 10 250.21 7.76
3 2 -9 411.63 11.9
-3 -2 9 427.94 12.18
3 2 -9 424.06 12.21
-3 -2 9 417.46 11.54
3 2 -8 305.98 9.27
3 2 -8 325.91 9.34
-3 -2 8 312.22 7.65
-3 -2 8 307 7.69
-3 -2 8 310.15 8.95
3 2 -7 382.48 10.87
3 2 -7 398.19 10.94
3 2 -7 380.78 11.07
-3 -2 7 388.15 9.57
3 2 -7 377.86 10.6
-3 -2 7 396.86 10.65
-3 -2 6 97.33 3.62
3 2 -6 97.74 3.68
-3 -2 6 94.4 3.02
3 2 -6 94.66 3.77
3 2 -6 93.08 3.83
-3 -2 6 94.94 3.73
3 2 -6 93.92 3.45
3 2 -5 368.83 10.52
3 2 -5 383.23 10.6
-3 -2 5 395.31 9.89
-3 -2 5 385.22 10.44
3 2 -5 384.1 10.02
-3 -2 5 394.87 10.48
-3 -2 4 81.99 2.89
3 2 -4 78.01 2.97
-3 -2 4 76.1 2.67
3 2 -4 73.56 3
-3 -2 4 72.96 2.92
3 2 -4 75.28 2.52
3 2 -3 185 5.51
-3 -2 3 195.78 5.44
3 2 -3 184.82 4.95
3 2 -3 190.49 5.41
3 2 -3 187.85 5.36
-3 -2 3 186.51 4.91
-3 -2 3 203.71 5.31
-3 -2 2 0.66 0.23
-3 -2 2 0.53 0.31
-3 -2 2 0.47 0.2
3 2 -2 0.59 0.2
3 2 -2 0.39 0.32
3 2 -2 0.32 0.3
-3 -2 2 0.35 0.29
3 2 -2 0.43 0.33
3 2 -2 0.28 0.22
3 2 -1 7.47 0.79
-3 -2 1 6.76 0.54
3 2 -1 7.76 0.53
-3 -2 1 8.27 0.44
3 2 -1 8.87 0.64
-3 -2 1 8.51 0.73
3 2 -1 6.98 0.49
-3 -2 1 8.06 0.79
3 2 -1 9.49 0.83
-3 -2 1 7.5 0.71
3 2 0 235.32 6.34
3 2 0 236.47 6.36
-3 -2 0 240.4 6.33
-3 -2 0 231.74 6.16
-3 -2 -1 5.7 0.72
3 2 1 4.79 0.54
-3 -2 -1 6.27 0.66
-3 -2 -1 4.92 0.58
3 2 1 4.8 0.74
-3 -2 -2 202.73 5.86
-3 -2 -2 189.6 5.83
-3 -2 -2 196.16 5.75
3 2 2 189.28 5.15
3 2 2 196.62 5.97
3 2 3 1.18 0.21
3 2 3 1.35 0.53
-3 -2 -3 0.53 0.38
-3 -2 -3 1.18 0.56
-3 -2 -3 1.88 0.52
3 2 3 0.87 0.25
-3 -2 -4 74.43 3.31
3 2 4 67.48 3.06
-3 -2 -4 78.75 3.26
3 2 4 73.54 2.32
3 2 5 0.45 0.34
-3 -2 -5 0.12 0.64
-3 -2 -5 0.72 0.58
3 2 5 0.29 0.5
3 2 6 287.47 7.54
3 2 6 282.28 9.18
3 2 6 281.76 8.44
-3 -2 -6 272.2 8.51
3 2 7 44.1 2
3 2 7 41.21 2.91
-3 -2 -7 46.03 2.69
3 2 8 15.46 1.88
-3 -2 -8 14.09 1.58
3 2 9 206.41 7.97
3 2 10 39.53 3.22
-3 -3 13 1.73 1
3 3 -13 1.75 1.2
3 3 -12 21.08 2.21
-3 -3 12 16.98 2
3 3 -11 30.77 2.51
-3 -3 11 24.18 2.24
-3 -3 11 24.85 1.94
3 3 -10 56.44 3.22
-3 -3 10 52.92 2.87
-3 -3 9 24.73 1.29
3 3 -9 22.22 1.93
3 3 -9 27.09 2.02
-3 -3 9 27.33 1.94
-3 -3 8 686.12 17.79
3 3 -8 706.08 18.19
-3 -3 8 703.05 16.83
3 3 -8 679.24 18.09
-3 -3 8 644.88 18.1
3 3 -8 712.33 17.78
-3 -3 7 -0.11 0.45
3 3 -7 -0.45 0.65
-3 -3 7 -0.5 0.57
3 3 -7 -0.08 0.4
3 3 -7 0.2 0.51
3 3 -7 -0.12 0.61
-3 -3 7 0.18 0.3
3 3 -6 39.1 1.83
3 3 -6 37.38 2.01
-3 -3 6 36.57 1.81
-3 -3 6 37.88 2.16
3 3 -6 38.14 2.22
3 3 -6 35.96 2.2
-3 -3 6 38.51 2.15
-3 -3 5 45.42 2.35
3 3 -5 50.83 2.16
3 3 -5 51.78 2.44
-3 -3 5 47.29 2.29
3 3 -5 47.62 1.87
3 3 -5 45.37 2.43
-3 -3 5 48.15 2.15
-3 -3 4 2.13 0.49
3 3 -4 2.36 0.33
-3 -3 4 2.24 0.5
3 3 -4 2.21 0.5
3 3 -3 39.53 1.2
3 3 -3 37.79 1.69
3 3 -3 38.34 1.72
-3 -3 3 38.19 1.91
-3 -3 3 36.18 1.64
-3 -3 3 36.4 1.91
3 3 -3 32.98 1.91
-3 -3 2 217.02 6.45
3 3 -2 220.8 5.93
-3 -3 2 234.28 6.69
3 3 -2 232.39 6.63
-3 -3 2 235.53 6.22
-3 -3 2 228.13 5.88
3 3 -2 224.77 6.14
-3 -3 1 145.41 3.71
3 3 -1 136.18 3.96
-3 -3 1 150.34 4.27
3 3 -1 138.59 4.45
3 3 -1 138.54 3.64
-3 -3 1 136.72 4.32
-3 -3 1 138.19 3.54
-3 -3 0 3462.37 77.65
3 3 0 3392.04 78.62
-3 -3 0 3328.68 78.45
3 3 0 3345.34 78.1
-3 -3 0 3446.67 77.94
-3 -3 -1 2162.84 50.65
-3 -3 -1 2180.38 50.51
3 3 1 2197.75 51.32
-3 -3 -1 2220.62 51.17
3 3 1 2192.82 50.5
-3 -3 -1 2192.22 50.34
3 3 2 74.43 3.15
-3 -3 -2 73.63 2.9
-3 -3 -2 71.33 2.8
-3 -3 -2 68.73 3
3 3 2 73.48 2.46
-3 -3 -3 18.2 1.41
3 3 3 17.24 0.63
3 3 3 16.17 1.4
-3 -3 -3 17.03 1.38
-3 -3 -4 79.96 3.61
3 3 4 85.96 2.41
3 3 4 83.02 3.56
-3 -3 -4 86.21 3.53
3 3 5 122.58 3.53
-3 -3 -5 138.01 4.86
3 3 5 124.25 4.99
3 3 5 127.67 4.76
3 3 6 -0.04 0.33
3 3 6 0.57 0.75
3 3 6 -0.45 0.67
-3 -3 -6 -0.35 0.65
3 3 7 104.61 4.82
-3 -3 -7 101.8 4.35
3 3 8 127.56 5.63
3 3 9 11.23 1.81
-3 -4 13 41 3.21
3 4 -13 53.68 3.63
-3 -4 12 105.14 5.13
-3 -4 12 108.3 4.63
3 4 -12 109.38 5.22
3 4 -11 123.51 5.24
-3 -4 11 112.95 4.78
-3 -4 10 192.14 6.65
-3 -4 9 108.94 4.48
-3 -4 9 106.52 3.75
-3 -4 9 104.2 4.72
3 4 -8 40.25 2.58
3 4 -8 38.96 2.42
-3 -4 8 35.8 1.94
-3 -4 8 38.27 2.5
-3 -4 8 38.99 2.41
3 4 -7 1.09 0.61
-3 -4 7 1.47 0.59
3 4 -7 0.95 0.57
3 4 -7 1.27 0.65
-3 -4 7 1.29 0.5
-3 -4 7 0.82 0.57
3 4 -6 1.36 0.54
-3 -4 6 0.43 0.41
3 4 -6 1.09 0.34
3 4 -6 0.31 0.37
3 4 -6 0.9 0.58
-3 -4 6 0.83 0.45
-3 -4 6 0.41 0.45
3 4 -5 24.06 1.36
3 4 -5 20.85 1.51
-3 -4 5 22.48 1.53
-3 -4 5 20.74 1.5
-3 -4 5 24.28 1.71
3 4 -5 23.78 1.06
3 4 -4 11.26 0.51
3 4 -4 11.68 0.83
-3 -4 4 10.54 1.1
3 4 -4 11.22 1.34
3 4 -4 10.98 0.92
3 4 -4 10.35 0.5
-3 -4 4 8.68 0.92
3 4 -3 62.03 2.28
3 4 -3 58.84 2.33
-3 -4 3 62.83 2.81
-3 -4 3 59.63 2.32
3 4 -3 57.78 2.72
-3 -4 3 59.27 2.71
3 4 -2 133.49 3.59
-3 -4 2 142.66 4.08
-3 -4 2 124.17 3.81
3 4 -2 135.89 4.58
-3 -4 2 131.36 4.46
-3 -4 2 136.62 4.7
3 4 -1 6.13 0.8
-3 -4 1 5.85 0.72
-3 -4 1 7.67 0.49
-3 -4 1 7.32 0.71
-3 -4 1 5.95 0.43
-3 -4 0 290.01 7.4
-3 -4 0 287.19 8.39
3 4 0 273.85 7.81
-3 -4 0 287.79 7.73
-3 -4 -1 1124.64 26.06
-3 -4 -1 1093.94 25.84
-3 -4 -1 1125.63 26.87
-3 -4 -1 1079.43 25.82
3 4 1 1065.23 26.01
-3 -4 -2 108.14 3.74
-3 -4 -2 114.71 4.25
3 4 2 101.65 4.17
-3 -4 -2 112.1 3.3
3 4 3 515.63 13.38
-3 -4 -3 513.55 13.51
3 4 3 484.44 13.64
-3 -4 -4 3.1 0.79
3 4 4 1.84 0.68
-3 -4 -4 3.14 0.44
3 4 4 3.43 0.35
-3 -4 -5 133.95 4.87
3 4 5 122.15 4.95
3 4 6 269.64 8.82
-3 -4 -6 276.64 8.54
3 4 7 59.43 3.41
-3 -4 -7 55.53 3.08
3 4 8 52.63 3.4
3 4 9 35.7 2.92
3 5 -14 31.52 3.04
-3 -5 13 -0.21 1.06
3 5 -13 -0.2 1.01
-3 -5 12 84.69 4.14
-3 -5 11 102.6 4.56
-3 -5 11 89.64 4.71
-3 -5 10 -0.34 0.82
-3 -5 10 0.43 0.74
-3 -5 10 0.74 0.54
3 5 -9 187.8 6.23
-3 -5 9 200.99 7.17
-3 -5 9 195.08 6.9
-3 -5 8 612.89 16.4
3 5 -8 595.66 15.33
-3 -5 8 603.05 16.47
3 5 -7 37.56 1.81
3 5 -7 39.07 2.44
-3 -5 7 37.11 2.41
3 5 -7 33.44 2.37
-3 -5 7 41.92 2.56
3 5 -6 117.69 3.82
-3 -5 6 123.69 5.04
3 5 -6 129.52 5.22
3 5 -6 130.74 4.48
3 5 -6 143.33 4.99
-3 -5 6 140.21 5.07
3 5 -6 151.16 3.99
3 5 -5 1.83 0.61
3 5 -5 1.67 0.25
3 5 -5 2.41 0.54
3 5 -5 1.51 0.25
3 5 -5 2.29 0.46
-3 -5 5 1.14 0.53
-3 -5 5 1.47 0.54
3 5 -4 126.87 4.02
3 5 -4 138.19 4.43
3 5 -4 136.49 3.78
-3 -5 4 122.72 4.32
3 5 -4 132.19 4.89
-3 -5 4 126.69 4.85
-3 -5 4 136.9 4.93
3 5 -3 91.73 3.12
3 5 -3 89.33 3.81
3 5 -3 102.08 2.77
-3 -5 3 95.66 3.98
-3 -5 3 94.39 3.87
-3 -5 3 103.32 3.39
-3 -5 2 56.04 2.12
3 5 -2 55.65 2.69
-3 -5 2 57.42 2.21
-3 -5 2 63.47 2.79
-3 -5 1 37.96 1.33
-3 -5 1 35.05 1.66
-3 -5 1 31.75 2.12
3 5 -1 35.25 1.99
-3 -5 1 33.5 1.25
-3 -5 1 32.84 1.29
-3 -5 0 2.24 0.53
-3 -5 0 1.68 0.38
-3 -5 0 2.99 0.73
-3 -5 -1 119.54 3.71
3 5 1 120.11 3.82
-3 -5 -1 123.18 4.69
-3 -5 -1 119.71 3.86
-3 -5 -1 117.71 3.91
-3 -5 -2 1.1 0.37
-3 -5 -2 0.82 0.49
3 5 2 1.31 0.48
-3 -5 -2 0.89 0.58
-3 -5 -3 245.2 7.52
-3 -5 -3 236.01 7.08
3 5 3 227.83 7.05
-3 -5 -4 32.86 2.18
3 5 4 34.89 2.14
3 5 5 48.54 2.72
-3 -5 -5 46.13 2.67
3 5 6 5.24 1.11
3 5 7 38.28 2.68
-3 -5 -7 37.03 2.83
-3 -5 -8 6.42 1.43
3 5 8 5.75 1.29
-3 -6 13 81.12 4.26
-3 -6 12 54.17 3.66
-3 -6 12 50.19 3.26
-3 -6 11 3.91 1.12
-3 -6 11 3.23 1.12
-3 -6 10 164.6 6.61
-3 -6 10 162.05 6.37
3 6 -9 32.35 1.98
-3 -6 9 36.42 2.61
-3 -6 9 30.3 2.47
-3 -6 8 89.17 4.24
3 6 -8 88.11 3.29
-3 -6 8 89.84 4.27
3 6 -7 26.34 1.41
-3 -6 7 26.53 2.07
3 6 -7 25.82 2.01
-3 -6 7 26.44 2.14
3 6 -6 50.35 1.76
3 6 -6 51.27 2.68
-3 -6 6 48.48 2.72
3 6 -6 51.03 1.73
-3 -6 5 204.52 6.65
3 6 -5 207.22 7.09
-3 -6 5 212.05 7.04
-3 -6 5 209.28 7.12
3 6 -5 214.69 5.94
-3 -6 4 507.2 13.09
-3 -6 4 502.45 13.86
3 6 -4 495.11 12.39
3 6 -4 487.62 13.72
-3 -6 4 517.57 13.88
3 6 -3 -0.11 0.51
-3 -6 3 -0.11 0.44
-3 -6 3 0.38 0.52
-3 -6 3 0.07 0.34
-3 -6 2 36.7 2.19
-3 -6 2 34.06 1.59
-3 -6 2 34.54 1.6
-3 -6 1 85.7 2.93
3 6 -1 83.33 2.23
-3 -6 1 83.98 3.47
-3 -6 1 86.37 3.9
-3 -6 1 86.67 2.65
-3 -6 1 80.89 2.57
-3 -6 0 0.67 0.53
-3 -6 0 0.27 0.33
-3 -6 0 0.12 0.14
3 6 0 0.07 0.23
-3 -6 0 0.1 0.2
-3 -6 0 0.26 0.57
-3 -6 0 0.39 0.37
-3 -6 -1 27.36 1.62
-3 -6 -1 29.69 1.39
3 6 1 30.42 1.45
-3 -6 -1 25.35 2
-3 -6 -1 29.78 1.66
-3 -6 -2 19.42 1.29
-3 -6 -2 16.55 1.64
3 6 2 18.21 1.25
-3 -6 -2 17.74 1.15
-3 -6 -2 16.97 1.41
-3 -6 -3 103.91 4.34
3 6 3 96.93 3.7
-3 -6 -3 98.48 4.09
3 6 4 81.84 3.45
-3 -6 -4 83.29 3.84
-3 -6 -4 79.93 3.8
3 6 5 184.47 6.31
-3 -6 -5 190.95 6.56
-3 -6 -5 180.66 6.77
-3 -6 -6 -0.67 0.75
-3 -6 -6 -0.17 0.81
-3 -6 -7 21.52 2.29
-3 -7 13 78.05 4.31
-3 -7 12 40.7 3
-3 -7 12 33.13 2.96
-3 -7 11 217.58 8.11
-3 -7 11 219.58 8.33
-3 -7 10 3.53 1.09
-3 -7 10 4.57 1.2
-3 -7 9 24.67 2.28
-3 -7 9 23.22 2.19
-3 -7 8 -0.16 0.64
-3 -7 8 -0.15 0.71
3 7 -7 97.57 3.1
-3 -7 7 104.35 4.45
-3 -7 7 91.56 4.53
3 7 -6 478.78 11.47
-3 -7 6 493.14 13.55
3 7 -6 495.49 11.44
3 7 -6 494.96 12.39
-3 -7 5 0.72 0.69
3 7 -5 -0.05 0.39
-3 -7 5 -0.1 0.51
-3 -7 4 366 9.96
-3 -7 4 362.7 10.93
-3 -7 4 348.34 10.76
-3 -7 3 0.39 0.54
-3 -7 3 0.75 0.44
-3 -7 3 0.58 0.67
-3 -7 2 19.58 0.85
-3 -7 2 23.01 0.83
-3 -7 2 21.57 1.3
-3 -7 2 21.3 1.76
-3 -7 1 11.28 1.26
-3 -7 1 11.5 0.91
-3 -7 1 13.28 0.9
-3 -7 1 11.36 0.73
-3 -7 1 11.05 0.82
-3 -7 1 11.17 1.46
-3 -7 0 1.35 0.6
-3 -7 0 0.97 0.42
-3 -7 0 0.97 0.25
-3 -7 0 1.16 0.69
-3 -7 0 0.94 0.3
-3 -7 0 1.11 0.52
-3 -7 -1 32.55 1.85
-3 -7 -1 33.66 1.2
-3 -7 -1 36.8 1.99
-3 -7 -1 31.48 2.38
-3 -7 -2 77.89 3.84
-3 -7 -2 76.38 2.89
-3 -7 -2 77.57 3.36
-3 -7 -3 5.32 1.03
-3 -7 -3 2.79 0.98
-3 -7 -4 98.88 4.4
-3 -7 -4 94.27 4.3
-3 -7 -5 90.04 4.18
-3 -7 -5 92.33 4.42
-3 -7 -6 0.89 0.9
-3 -7 -7 12.23 1.96
-3 -8 13 5.09 1.59
-3 -8 12 149.9 6.81
-3 -8 12 154.89 6.7
-3 -8 11 14.42 1.96
-3 -8 11 17.76 2.17
-3 -8 10 0.58 0.86
-3 -8 10 -0.19 0.97
-3 -8 9 0.19 0.86
-3 -8 9 0.18 0.82
-3 -8 8 65.03 3.61
-3 -8 8 59.73 3.72
3 8 -7 3.76 0.7
-3 -8 7 3.59 0.98
-3 -8 6 55.84 3
3 8 -6 51.34 2.14
-3 -8 6 53.55 3.35
-3 -8 5 19.29 1.95
-3 -8 5 20.78 1.69
-3 -8 4 518.27 14.42
-3 -8 4 497.88 14.51
-3 -8 4 483.6 13.24
-3 -8 3 92.53 3.54
-3 -8 3 96.61 4.37
-3 -8 2 -0.13 0.69
-3 -8 2 0.23 0.27
-3 -8 2 0.55 0.47
-3 -8 2 -0.16 0.77
-3 -8 1 18.15 1.13
-3 -8 1 16.57 1.12
-3 -8 1 17.46 1.87
-3 -8 1 19.93 1.72
-3 -8 1 17.3 1.09
-3 -8 0 0.26 0.48
-3 -8 0 -0.11 0.57
-3 -8 0 -0.07 0.48
-3 -8 0 -0.16 0.69
-3 -8 -1 11.9 1.18
-3 -8 -1 12.67 1.66
-3 -8 -1 13.41 1.27
-3 -8 -2 65.33 3.12
-3 -8 -2 74.64 3.88
-3 -8 -3 106.04 4.74
-3 -8 -3 95.05 4.22
-3 -8 -4 32.97 2.47
-3 -9 12 46.75 3.69
-3 -9 12 63.73 4.15
-3 -9 11 39.87 3.21
-3 -9 11 42.17 3.33
-3 -9 10 2.32 1.09
-3 -9 10 1.98 1.06
-3 -9 9 2.87 1.21
-3 -9 9 2.74 1.09
-3 -9 8 78.23 4.1
-3 -9 7 55.94 3.25
-3 -9 7 53.34 3.56
-3 -9 6 112.44 4.71
-3 -9 6 108.16 5.25
-3 -9 5 103.8 5.02
-3 -9 5 99.47 5
-3 -9 5 109.18 4.41
-3 -9 4 1.18 0.82
-3 -9 4 0.18 0.79
-3 -9 4 0.11 0.57
-3 -9 3 58.95 2.76
-3 -9 3 64.71 3.59
-3 -9 2 2.37 0.95
-3 -9 2 1.09 0.54
-3 -9 2 2.2 0.97
-3 -9 1 2.58 0.9
-3 -9 1 1.27 0.85
-3 -9 0 16.01 1.58
-3 -9 0 19.15 2.1
-3 -9 -1 141.54 6.06
-3 -9 -2 41.23 2.98
-3 -9 -3 10.47 1.6
-3 -9 -4 18.31 2.01
-3 -10 11 14.7 2.2
-3 -10 11 17.29 2.3
-3 -10 10 61.52 3.98
-3 -10 10 65.61 4.28
-3 -10 9 96.34 4.96
-3 -10 9 103.98 5.42
-3 -10 8 40.95 2.95
-3 -10 7 196.7 7.24
-3 -10 7 194.73 7.91
-3 -10 6 2.42 1.08
-3 -10 6 1.14 0.88
-3 -10 5 78.42 4.34
-3 -10 5 69.39 4.26
-3 -10 5 71.03 3.51
-3 -10 4 60.68 3.03
-3 -10 4 60.57 3.72
-3 -10 3 3.49 1.09
-3 -10 3 2.45 1.08
-3 -10 2 32.31 2.83
-3 -10 2 42.2 2.89
-3 -10 1 9.62 1.43
-3 -10 1 4.62 1.27
-3 -10 0 12.11 1.85
-3 -10 -1 39.51 3.05
-3 -10 -2 98.26 4.98
-3 -10 -3 3.3 1.2
-3 -11 11 7.83 1.74
-3 -11 10 51.8 3.94
-3 -11 10 50.26 3.66
-3 -11 9 34.56 2.92
-3 -11 8 17.99 2.33
-3 -11 8 17 1.97
-3 -11 7 25.18 2.76
-3 -11 7 27.24 2.33
-3 -11 6 92.52 4.39
-3 -11 6 89.89 5.13
-3 -11 6 98.54 5.24
-3 -11 5 19.92 2.36
-3 -11 5 21.17 2.44
-3 -11 4 128.96 5.97
-3 -11 3 1.51 1.03
-3 -11 3 0.22 0.98
-3 -11 2 13.71 1.78
-3 -11 2 10.91 1.84
-3 -11 1 6.37 1.55
-3 -11 0 4.78 1.46
-3 -11 -1 -0.63 1.11
-3 -12 10 34.11 3.05
-3 -12 9 0.21 1.01
-3 -12 8 28.42 2.98
-3 -12 8 33.08 2.79
-3 -12 7 92.76 5.38
-3 -12 6 13.91 2.13
-3 -12 6 10.64 2.08
-3 -12 5 5.89 1.54
-3 -12 4 42.94 3.56
-3 -12 3 101.63 5.23
-3 -12 3 99.11 5.57
-3 -12 2 19.56 2.48
-3 -13 5 0.24 1.12
-3 -13 4 2.74 1.54
4 -13 1 5.19 1.83
4 -13 2 18.86 2.5
4 -13 4 28.7 2.81
4 -13 5 3.04 1.3
4 -13 6 15.03 2.18
4 -13 7 0.23 1.2
4 -12 -1 6.04 1.8
4 -12 0 0.25 1.27
4 -12 1 22.09 2.62
4 -12 2 43.85 3.43
4 -12 3 0.62 1.09
4 -12 4 0.62 1.08
4 -12 5 5.4 1.44
4 -12 6 1.06 1.04
4 -12 7 67.02 4.27
4 -12 8 -0.23 1.06
4 -11 -2 3.99 1.54
4 -11 -1 1.16 1.37
4 -11 0 163.39 7.34
4 -11 1 17.23 2.26
4 -11 2 -0.21 0.95
4 -11 3 87.52 4.73
4 -11 4 48.41 3.41
4 -11 5 56.31 3.7
4 -11 6 114.36 5.64
4 -11 7 0.42 1.04
4 -11 8 187.62 7.86
4 -11 9 0.23 0.98
4 -10 -4 54.01 4.01
4 -10 -3 16.35 2.28
4 -10 -2 23.64 2.57
4 -10 -1 121.49 5.92
4 -10 0 26.43 1.87
4 -10 0 20.85 2.45
4 -10 1 49.89 3.65
4 -10 1 51.75 2.79
4 -10 2 165.08 6.96
4 -10 2 165.79 5.89
4 -10 3 7.87 1.37
4 -10 3 7.61 1.22
4 -10 4 266 9.35
4 -10 5 17.4 2.04
4 -10 6 63.19 3.95
4 -10 7 231.76 8.72
4 -10 7 225.56 8.97
4 -10 8 3.33 1.48
4 -10 8 4.22 1.33
4 -10 9 169.5 7.26
4 -10 9 154.22 7.4
4 -10 10 0.97 1.19
4 -9 -5 1.91 1.4
4 -9 -4 0.67 1.13
4 -9 -3 15.69 2.18
4 -9 -2 27.11 2.62
4 -9 -1 11.41 1.86
4 -9 0 312.47 10.71
4 -9 1 1.18 1.04
4 -9 1 2.57 0.81
4 -9 2 62.46 3.79
4 -9 2 64.18 3.17
4 -9 3 9.53 1.51
4 -9 3 10.23 1.31
4 -9 4 69.36 3.98
4 -9 5 126.65 5.64
4 -9 6 44.19 3.14
4 -9 7 88.29 4.79
4 -9 7 88.26 4.85
4 -9 8 48.26 3.47
4 -9 8 45.1 3.52
4 -9 9 1.18 1.2
4 -9 10 0.45 1.09
4 -8 -6 18.54 2.5
4 -8 -5 5.49 1.49
4 -8 -4 68.75 4.22
4 -8 -3 0.38 1.01
4 -8 -2 123.75 5.67
4 -8 -1 147.15 6.23
4 -8 0 75.35 4.21
4 -8 1 291.89 8.71
4 -8 1 306.98 10.2
4 -8 2 20.04 1.66
4 -8 2 16.13 1.88
4 -8 3 107.14 4.85
4 -8 3 108.54 4.42
-4 8 -3 100.31 3.41
4 -8 4 83.77 4.34
-4 8 -4 90.64 3.2
4 -8 5 12.53 1.62
-4 8 -5 13.89 1.21
4 -8 6 157.38 6.48
4 -8 7 88.37 4.67
4 -8 7 89.83 4.78
4 -8 8 23.15 2.47
4 -8 8 24.92 2.45
4 -8 9 78.96 4.68
4 -8 10 -0.2 1.01
4 -8 10 0.92 1.2
-4 7 8 19.86 2.04
4 -7 -7 11.23 2.05
4 -7 -6 31.85 2.22
4 -7 -6 30.93 2.91
4 -7 -5 234.68 8.79
4 -7 -5 229.12 7.54
4 -7 -4 490 14.98
4 -7 -4 511.4 13.96
4 -7 -3 119.18 5.56
4 -7 -3 134.7 5.15
4 -7 -3 135.65 4.93
4 -7 -3 121.86 4.34
4 -7 -2 34.04 2.69
4 -7 -2 34 1.81
4 -7 -2 34.26 2.36
4 -7 -2 35.88 2.31
4 -7 -1 180.57 5.41
4 -7 -1 189.21 7.03
4 -7 -1 197.63 6.63
4 -7 -1 179.4 6.37
4 -7 0 293.66 9.76
4 -7 0 304.41 9.32
4 -7 0 294.64 9.27
4 -7 1 10.22 1.53
4 -7 1 10.84 1.19
4 -7 1 11.31 1.39
4 -7 2 120.83 5.06
4 -7 2 107.45 4.34
-4 7 -2 111.67 3.64
-4 7 -3 7.45 0.83
4 -7 3 7.25 1.22
4 -7 3 6.93 1.08
4 -7 4 360.76 11.03
-4 7 -4 355.03 9.58
4 -7 5 62.19 3.55
4 -7 6 217.44 8.05
4 -7 6 232.44 8.23
4 -7 7 14.46 1.83
4 -7 7 15.15 1.89
4 -7 8 66.18 4.03
4 -7 9 13.11 1.94
4 -7 10 71.19 4.37
4 -7 10 65.28 3.92
4 -7 11 14.77 2.29
-4 6 9 -0.16 0.93
4 -6 -8 0.48 1.22
-4 6 8 -0.29 0.79
-4 6 7 0.28 0.78
4 -6 -7 0.88 1.14
-4 6 6 1.56 0.78
4 -6 -6 0.6 1.08
4 -6 -6 1.93 0.75
-4 6 5 27.43 2.03
4 -6 -5 26.12 1.93
4 -6 -5 26.81 2.5
4 -6 -4 162.31 6.65
4 -6 -4 168.97 5.51
4 -6 -4 176.09 5.87
4 -6 -3 61.23 3.6
4 -6 -3 63.82 3.13
4 -6 -3 72.91 3.12
4 -6 -3 65.94 2.83
4 -6 -2 342.51 10.74
4 -6 -2 352.62 9.38
4 -6 -2 346.5 10.07
4 -6 -2 353.58 10.07
4 -6 -1 74.46 3.75
4 -6 -1 74.36 3.35
4 -6 -1 69.26 2.7
4 -6 -1 75.23 3.39
-4 6 0 2.3 0.76
4 -6 0 3.22 0.77
4 -6 0 3.69 0.95
4 -6 0 3.58 0.87
-4 6 -1 9.55 1.25
4 -6 1 12.21 1.52
4 -6 1 10.02 1.1
4 -6 1 9.67 1.28
4 -6 2 5.32 0.95
-4 6 -2 6.43 1.09
4 -6 2 7.66 1.16
4 -6 2 8.86 1.12
4 -6 2 7.62 1.18
-4 6 -2 8.68 0.84
-4 6 -3 62.57 3.28
4 -6 3 56.28 3.21
4 -6 3 60.14 3.1
-4 6 -3 68.85 2.66
4 -6 4 904.59 23.41
4 -6 5 638.79 17.54
4 -6 6 30.93 2.49
4 -6 6 38.57 2.72
4 -6 7 73.03 4.06
4 -6 7 79.79 4.19
4 -6 8 8.31 1.51
4 -6 9 149.4 6.45
4 -6 10 15.41 2.08
4 -6 11 -0.22 1.19
-4 5 10 20.07 2.01
-4 5 9 2.74 0.99
-4 5 8 43.54 2.71
-4 5 7 12.31 1.43
4 -5 -7 13.89 1.29
4 -5 -6 24.29 1.74
-4 5 6 22.99 1.87
4 -5 -6 26.26 1.75
-4 5 5 82.95 3.68
4 -5 -5 86.15 3.45
4 -5 -5 82.69 2.99
-4 5 4 814.25 20.57
4 -5 -4 819.48 20.25
4 -5 -4 798.43 19.84
4 -5 -3 63.89 2.82
4 -5 -3 59.88 2.66
4 -5 -3 55.58 2.6
4 -5 -2 0.18 0.39
-4 5 2 0.22 0.52
4 -5 -2 0.08 0.39
4 -5 -2 0.27 0.48
4 -5 -2 -0.07 0.4
-4 5 1 12.68 1.33
4 -5 -1 14.23 1.08
4 -5 -1 13.57 1.34
4 -5 -1 12.55 1.21
-4 5 0 2.84 0.83
4 -5 0 1.47 0.79
4 -5 0 3.31 0.81
4 -5 0 2.76 0.65
4 -5 0 2.6 0.6
-4 5 -1 0.64 0.62
4 -5 1 1.59 0.67
4 -5 1 2.13 0.57
-4 5 -1 2.02 0.5
4 -5 1 0.88 0.55
-4 5 -2 53.81 2.86
4 -5 2 52.68 2.88
4 -5 2 54.69 2.74
-4 5 -2 54.03 2.3
4 -5 2 53.91 2.88
4 -5 2 55.7 2.75
-4 5 -3 68.3 3.47
4 -5 3 74.47 3.56
-4 5 -3 67.9 2.83
4 -5 3 79.68 3.52
4 -5 3 70.84 3.24
-4 5 -4 32.91 2.42
4 -5 4 29.09 2.23
4 -5 5 319.09 10.03
4 -5 6 27.26 2.29
4 -5 6 30.52 2.31
4 -5 7 120.72 5.23
4 -5 8 239.73 8.48
4 -5 9 4.5 1.25
4 -5 10 86.92 4.68
4 -5 11 46.72 3.47
-4 4 10 52.67 3.09
4 -4 -10 47.73 3.85
-4 4 9 29.79 2.22
4 -4 -9 31.47 2.88
-4 4 8 29.38 2.11
4 -4 -8 27.94 2.63
4 -4 -7 1.79 0.68
4 -4 -7 2.54 1.13
-4 4 7 4.57 0.91
-4 4 6 133.26 4.92
4 -4 -6 132.07 5.65
4 -4 -6 132.76 4.69
-4 4 5 48.35 2.56
4 -4 -5 48.89 1.92
4 -4 -5 49.48 3.09
4 -4 -4 832.19 21.11
-4 4 4 874.62 21.42
4 -4 -4 860.2 20.61
-4 4 3 103.77 3.92
4 -4 -3 110.68 3.71
4 -4 -3 108.25 3.78
4 -4 -2 320.61 8.69
4 -4 -2 323.8 8.91
4 -4 -1 0.69 0.41
4 -4 -1 0.47 0.37
4 -4 -1 0.63 0.39
4 -4 -1 -0.09 0.49
-4 4 0 0.81 0.42
4 -4 0 1.02 0.58
-4 4 -1 1.14 0.43
4 -4 1 1.45 0.48
4 -4 1 2.04 0.58
4 -4 1 1.6 0.61
-4 4 -1 1.66 0.62
4 -4 2 20.26 1.57
4 -4 2 20.24 1.45
4 -4 2 19.6 1.62
-4 4 -2 20.98 1.7
-4 4 -2 20.86 1.36
4 -4 3 102.58 3.86
4 -4 3 101.06 4.17
-4 4 -4 177.36 5.81
4 -4 4 170.93 6.05
-4 4 -4 176.88 6.32
4 -4 5 65.01 3.23
4 -4 5 57.53 3.12
-4 4 -5 66.69 3.45
4 -4 6 91.17 4.13
-4 4 -6 97.22 4.44
4 -4 7 6.01 1.13
-4 4 -7 4.72 1.08
4 -4 8 19.4 1.96
4 -4 9 21.2 2.11
4 -4 10 142.4 6.15
4 -4 11 59.45 3.81
-4 3 11 63.54 3.49
4 -3 -10 9.52 1.84
-4 3 10 11.34 1.46
-4 3 9 79.75 3.77
4 -3 -9 93.88 4.9
4 -3 -8 0.55 0.85
-4 3 8 0.34 0.6
-4 3 7 63.78 3.04
4 -3 -7 66.72 2.98
4 -3 -7 63.59 3.68
-4 3 6 54.08 2.65
4 -3 -6 51.21 1.49
4 -3 -6 51.12 3.12
4 -3 -6 51.71 2.53
4 -3 -5 -0.39 0.7
4 -3 -5 0.26 0.5
-4 3 5 -0.47 0.74
4 -3 -5 0.13 0.71
-4 3 5 0.44 0.56
4 -3 -5 0.45 0.29
-4 3 4 26.16 1.71
4 -3 -4 26.69 1.33
-4 3 4 28.95 1.96
4 -3 -4 29.68 2.11
4 -3 -3 474.82 12.71
4 -3 -3 451.34 11.89
4 -3 -3 461.08 11.59
-4 3 3 448.08 12.35
4 -3 -2 214.72 6.7
4 -3 -2 201.38 5.93
4 -3 -2 210.13 5.88
-4 3 2 185.48 5.97
4 -3 -2 203.32 5.97
-4 3 2 206.71 6.07
-4 3 2 204.11 6.36
4 -3 -1 92.98 3.75
4 -3 -1 88.94 3.07
4 -3 -1 86.01 3.12
4 -3 -1 85.41 3.31
-4 3 1 85.68 3.38
-4 3 1 86.43 3.45
-4 3 0 430.7 11.68
4 -3 0 437.95 12.1
4 -3 0 437.09 11.17
4 -3 0 425.91 11.6
-4 3 0 452.72 11.79
-4 3 0 437.65 11.2
-4 3 -1 3.3 0.76
-4 3 -1 4.88 0.82
4 -3 1 4.18 0.79
4 -3 1 3.88 0.68
4 -3 1 5.12 0.66
4 -3 1 3.49 0.72
-4 3 -1 3.77 0.63
-4 3 -2 285.35 8.77
4 -3 2 294.51 8.68
4 -3 2 292.67 8.56
4 -3 2 297.38 8.08
-4 3 -3 388.02 11.2
4 -3 3 386.04 11.09
-4 3 -3 408.81 10.71
4 -3 3 391.7 10.46
4 -3 3 397.98 10.96
-4 3 -3 377.97 11.18
4 -3 4 2.81 0.65
-4 3 -4 4.21 0.93
-4 3 -4 3.18 0.76
4 -3 4 3.14 0.85
4 -3 4 3.68 0.79
-4 3 -4 2.89 0.76
4 -3 5 311.68 9.59
4 -3 5 311.26 9.12
4 -3 5 303.68 9.12
-4 3 -5 304.85 9.53
4 -3 6 7.1 1.12
-4 3 -6 12.49 1.49
4 -3 7 85.14 3.93
-4 3 -7 84.86 4.12
4 -3 8 164.32 6.25
-4 3 -8 169.16 6.45
4 -3 9 18.5 1.88
-4 3 -9 15.95 1.8
4 -3 10 3.33 1.14
4 -2 -11 2.8 1.19
-4 2 11 1 0.83
4 -2 -10 9.64 1.59
-4 2 10 8.66 1.24
4 -2 -9 45.9 3.18
-4 2 9 43.92 2.59
-4 2 8 103.29 4.16
4 -2 -8 100.1 4.06
4 -2 -8 108.79 4.96
-4 2 7 32.76 2.02
4 -2 -7 34.28 2.03
4 -2 -7 29.79 2.34
-4 2 6 55.85 2.66
4 -2 -6 57.09 2.66
4 -2 -6 61.81 3.24
4 -2 -5 550.54 12.89
4 -2 -5 545.3 14.71
-4 2 5 526.04 14.4
4 -2 -5 533.31 14.01
4 -2 -4 152.19 5.05
4 -2 -4 156.36 4.34
-4 2 4 156.01 4.54
-4 2 4 158.43 5.34
4 -2 -4 159.71 5.49
4 -2 -3 1.14 0.41
-4 2 3 1.46 0.52
4 -2 -3 2.12 0.65
4 -2 -3 1.15 0.48
-4 2 3 1.96 0.51
4 -2 -3 3.2 0.5
-4 2 3 1.67 0.41
4 -2 -2 861.28 21.47
4 -2 -2 842.43 20.92
4 -2 -2 873.17 20.7
-4 2 2 854.66 20.85
4 -2 -2 876.47 20.78
-4 2 2 877.54 21.05
-4 2 2 857.32 21.26
-4 2 1 229.91 6.72
4 -2 -1 234.63 6.98
4 -2 -1 221.55 6.15
-4 2 1 224.67 6.43
4 -2 -1 223.81 6.48
4 -2 -1 227.55 6.43
-4 2 1 232.62 6.73
-4 2 0 3315.41 77.55
4 -2 0 3432.6 77.85
-4 2 0 3384.37 77.19
4 -2 0 3279.98 76.86
4 -2 0 3394.32 77.44
-4 2 0 3419.51 77.75
-4 2 -1 8.67 1.07
4 -2 1 8.37 0.97
4 -2 1 8.54 0.95
-4 2 -1 9.7 0.95
-4 2 -1 9.33 1.09
-4 2 -2 234.21 7.16
4 -2 2 228.14 7.01
4 -2 2 226.01 6.38
-4 2 -3 356.74 10.12
4 -2 3 356.34 10.19
4 -2 3 352.46 9.32
4 -2 3 352.52 9.91
-4 2 -3 358.44 10.34
-4 2 -4 321.11 9.65
4 -2 4 340.32 9.87
4 -2 4 326.82 9.25
4 -2 4 334.25 8.87
4 -2 4 330.16 9.4
-4 2 -4 315.72 9.79
-4 2 -5 175.41 6.24
4 -2 5 169.97 5.78
4 -2 5 175.93 5.83
-4 2 -5 178.76 6.38
4 -2 6 135.83 4.92
4 -2 6 131.66 4.82
-4 2 -6 129.38 5.3
-4 2 -7 68.05 3.63
4 -2 7 66.05 3.31
4 -2 8 91.7 4.08
-4 2 -8 83.82 4.19
4 -2 9 88.43 4.22
-4 2 -9 94.42 4.48
4 -2 10 15.14 2.18
4 -1 -11 9.75 1.82
-4 1 11 9.33 1.36
-4 1 10 3.23 0.89
4 -1 -9 0.68 0.87
-4 1 9 1.18 0.73
4 -1 -8 0.21 0.57
4 -1 -8 1.65 0.9
-4 1 8 0.11 0.52
-4 1 7 57.8 2.78
4 -1 -7 60.65 2.86
4 -1 -7 58.19 3.18
4 -1 -6 91.92 3.61
4 -1 -6 94.14 3.99
4 -1 -5 11.93 1.16
4 -1 -5 11.07 1.07
4 -1 -5 10.76 1.18
4 -1 -5 11.93 0.72
-4 1 5 9.42 1.09
-4 1 5 11.42 0.74
-4 1 4 291.84 8.08
-4 1 4 294.42 7.78
4 -1 -4 298.44 7.58
-4 1 4 303.97 8.43
4 -1 -4 301.52 8.33
4 -1 -4 298.55 8.31
4 -1 -4 291.66 8.54
4 -1 -3 50.21 2.29
4 -1 -3 51.05 2.16
-4 1 3 50.97 2.09
4 -1 -3 47.27 2.32
-4 1 3 48.58 2.09
4 -1 -3 49.71 2.25
-4 1 3 50.54 2.31
4 -1 -3 46.08 1.87
4 -1 -2 290.92 8.2
4 -1 -2 301.05 7.68
4 -1 -2 276.97 7.91
-4 1 2 296.13 7.73
4 -1 -2 289.4 7.72
-4 1 2 303.06 8.03
-4 1 2 289.18 8.06
-4 1 1 90.44 3.26
4 -1 -1 86.28 3.07
4 -1 -1 85.73 2.78
-4 1 1 87.59 2.92
-4 1 1 93.63 3.36
-4 1 1 93.58 3.2
4 -1 -1 81.45 3.34
4 -1 -1 86.97 3.14
-4 1 0 472.88 12.39
4 -1 0 466.52 12.35
4 -1 0 475.86 12.21
4 -1 0 487.76 11.69
-4 1 0 493.43 12.27
4 -1 0 472.48 12.21
-4 1 0 471.5 12.53
-4 1 -1 896.36 22.49
4 -1 1 903.91 22.3
-4 1 -1 931.69 22.16
4 -1 1 941.59 22.39
4 -1 1 898 21.5
-4 1 -2 446.79 11.67
4 -1 2 430.61 11.64
-4 1 -2 431.23 11.33
4 -1 2 441.25 11.42
4 -1 2 429.85 11.7
-4 1 -2 407.38 11.71
-4 1 -3 2.39 0.65
-4 1 -3 3.17 0.75
4 -1 3 3.42 0.71
4 -1 3 2.89 0.49
4 -1 3 2.5 0.61
-4 1 -3 4.78 0.9
-4 1 -4 142.42 5.1
-4 1 -4 133.58 4.91
-4 1 -4 129.19 5.1
4 -1 4 133.83 4.46
4 -1 4 137.83 4.18
4 -1 4 131.56 4.65
-4 1 -5 51.06 2.9
4 -1 5 50.87 2.45
4 -1 5 51.23 2.56
-4 1 -5 53.02 2.99
4 -1 6 10.51 1.18
4 -1 6 8.12 1.06
-4 1 -6 8.99 1.32
4 -1 7 259.79 7.88
-4 1 -7 245.61 8.37
4 -1 8 142.58 5.27
-4 1 -8 138.63 5.72
4 -1 9 83.83 4.83
-4 1 -9 91.09 4.34
4 -1 10 20.18 2.47
-4 0 12 27.84 2.3
4 0 -12 27.35 2.81
-4 0 11 0.71 0.77
4 0 -11 -0.6 1
-4 0 10 -0.26 0.74
4 0 -10 -0.18 0.9
-4 0 9 205.01 6.71
4 0 -9 181.12 6.48
4 0 -9 199.07 7.19
4 0 -8 218.84 6.86
4 0 -8 220.82 7.25
4 0 -7 16.67 1.49
4 0 -7 18.43 1.61
-4 0 6 21.81 1.53
-4 0 6 26.79 1.11
4 0 -6 23.48 1.77
4 0 -6 24.91 1.7
4 0 -6 25.74 1.79
4 0 -5 1.63 0.58
4 0 -5 2.02 0.61
-4 0 5 2.23 0.48
4 0 -5 1.67 0.56
-4 0 5 2.67 0.43
4 0 -5 2.82 0.43
-4 0 4 1060.7 25.26
-4 0 4 1026.41 25.48
4 0 -4 1061.83 24.99
-4 0 4 1071.06 25.02
4 0 -4 1090.49 25.62
4 0 -4 1056.39 25.64
4 0 -4 1056.49 25.61
-4 0 3 497.04 12.27
4 0 -3 506.44 12.57
-4 0 3 501.12 12.18
4 0 -3 494.66 12.19
-4 0 3 488.06 12.42
4 0 -3 493 12.37
4 0 -2 3.32 0.6
4 0 -2 4.86 0.55
-4 0 2 4.48 0.64
4 0 -2 4.41 0.69
-4 0 2 4.74 0.53
4 0 -2 4.11 0.57
-4 0 2 4.19 0.62
4 0 -1 1.17 0.43
4 0 -1 0.85 0.28
-4 0 1 0.48 0.42
4 0 -1 0.34 0.36
-4 0 1 1.06 0.29
4 0 -1 0.24 0.3
-4 0 1 0.21 0.33
-4 0 0 635.01 16.06
4 0 0 645.25 15.98
4 0 0 651.76 15.98
4 0 0 637.54 15.94
4 0 0 647.98 15.19
4 0 0 637.05 15.86
-4 0 0 645.95 16.2
-4 0 -1 344.74 9.31
4 0 1 343.37 9.28
4 0 1 338.65 9.35
4 0 1 340.26 8.38
-4 0 -2 11.5 1.06
-4 0 -2 10.78 1.06
4 0 2 9.53 1.02
4 0 2 11.91 1.07
-4 0 -2 9.54 1.09
-4 0 -3 28.49 1.84
-4 0 -3 28.61 1.81
4 0 3 27.41 1.42
-4 0 -3 28.6 1.94
4 0 3 29.43 1.75
-4 0 -4 105.35 4.36
-4 0 -4 114.44 4.43
4 0 4 117.04 4.2
4 0 4 114.92 3.45
4 0 4 112.62 3.72
-4 0 -4 110.8 4.5
4 0 5 476.57 11.82
-4 0 -5 493.23 13.62
4 0 5 487.86 12.98
4 0 5 489.14 12.51
4 0 6 38.78 2.07
-4 0 -6 40.17 2.67
-4 0 -7 1.47 0.88
4 0 7 2 0.68
-4 0 -8 109.32 4.93
4 0 9 24.2 2.54
-4 0 -9 26.26 2.28
4 0 10 5.98 1.64
-4 -1 12 57.05 3.36
4 1 -12 56.59 3.83
-4 -1 11 69.29 3.66
-4 -1 10 29.12 2.22
4 1 -10 25.56 2.27
4 1 -9 84 3.9
4 1 -9 87.77 4.13
4 1 -8 21.16 1.76
4 1 -8 18.11 1.64
-4 -1 7 228.2 7.22
4 1 -7 238.45 7.42
4 1 -7 248.26 7.57
-4 -1 7 234.37 5.96
4 1 -7 228.82 7.62
4 1 -7 237.12 7.32
-4 -1 6 223.47 6.79
-4 -1 6 208.55 6.58
4 1 -6 219.17 6.88
-4 -1 6 222.69 5.74
4 1 -6 209.08 6.89
4 1 -6 219.39 6.64
-4 -1 5 12.95 1.19
-4 -1 5 13.12 1.09
4 1 -5 11.57 1.16
-4 -1 5 13.31 0.87
4 1 -5 12.73 1.18
4 1 -5 12.45 1.08
-4 -1 4 111.16 4.03
-4 -1 4 108.4 3.64
4 1 -4 120.4 3.75
4 1 -4 109.69 3.88
4 1 -4 116.4 3.96
-4 -1 4 109.63 3.51
4 1 -4 114.62 4.05
-4 -1 4 116.42 3.71
4 1 -4 111.95 3.76
4 1 -3 15.56 1.08
4 1 -3 15.5 1.18
-4 -1 3 14.38 0.93
4 1 -3 16.98 1.15
-4 -1 3 15.2 1.04
4 1 -3 15.88 1.09
-4 -1 3 14.07 0.98
4 1 -2 524.44 13.33
-4 -1 2 547.25 12.95
4 1 -2 524.9 13.48
4 1 -2 537.65 13.53
-4 -1 2 538.56 13.46
-4 -1 2 533.74 13.54
4 1 -2 552.66 13.65
4 1 -2 537.26 13.12
-4 -1 2 529.55 13.18
4 1 -1 534.91 12.69
-4 -1 1 516.78 13.1
4 1 -1 528.44 13.08
-4 -1 1 504.32 13.34
-4 -1 1 555.23 13.49
4 1 -1 527.39 13.45
-4 -1 1 525.17 12.66
4 1 -1 554.17 13.4
-4 -1 0 105.43 3.69
4 1 0 105.89 2.94
4 1 0 113.23 3.62
4 1 0 109.34 3.71
-4 -1 0 116.36 3.84
4 1 0 113.42 3.63
-4 -1 -1 39.26 1.94
4 1 1 40.9 1.97
4 1 1 38.41 2.02
4 1 1 38.01 1.25
4 1 1 45.13 2.16
4 1 1 38.93 1.76
-4 -1 -2 147.3 4.81
-4 -1 -2 138.97 4.65
-4 -1 -2 140.9 4.95
4 1 2 144.89 3.91
4 1 2 142.01 4.81
4 1 2 140.74 4.21
4 1 3 4.84 0.56
-4 -1 -3 3.83 0.79
-4 -1 -3 4.78 0.8
4 1 3 4.88 0.79
-4 -1 -3 3.24 0.71
4 1 3 4.94 0.5
4 1 4 83.07 3.49
-4 -1 -4 90.23 3.8
-4 -1 -4 83.76 3.64
4 1 4 86.77 2.59
-4 -1 -4 76.03 3.59
4 1 4 81.31 2.76
4 1 4 81.78 2.61
4 1 5 269.44 7.96
-4 -1 -5 269.04 8.37
4 1 5 257.48 7.03
4 1 5 255.47 6.47
-4 -1 -6 372.2 11.12
4 1 6 370.07 9.74
-4 -1 -7 52.88 3.2
4 1 8 0.79 1.02
-4 -1 -8 1.09 0.93
4 1 9 52.48 3.72
4 2 -13 25.19 2.61
-4 -2 12 37.6 2.8
4 2 -12 42.93 3.21
-4 -2 11 27.52 2.33
4 2 -11 27.92 2.4
-4 -2 10 22.87 1.87
4 2 -10 24.43 2.13
-4 -2 9 8.39 1.13
4 2 -9 8.54 1.24
-4 -2 8 71.63 2.3
4 2 -8 73.78 3.57
4 2 -8 72.89 3.34
-4 -2 8 72.95 3.34
-4 -2 8 68.22 3.37
4 2 -7 74.57 3.6
4 2 -7 80.16 3.63
-4 -2 7 79.84 2.62
4 2 -7 86.71 3.56
4 2 -7 73.12 3.19
-4 -2 7 79.29 3.45
-4 -2 7 78.9 3.49
4 2 -6 169.78 5.45
4 2 -6 162.23 5.62
4 2 -6 171.34 5.72
-4 -2 6 159.92 4.72
4 2 -6 153.28 5.06
-4 -2 6 166.03 5.51
-4 -2 6 166.43 5.41
4 2 -5 0.48 0.48
-4 -2 5 0.3 0.34
-4 -2 5 0.36 0.4
4 2 -5 0.12 0.33
-4 -2 5 0.11 0.3
4 2 -5 -0.09 0.43
-4 -2 4 6.17 0.69
-4 -2 4 5.56 0.58
4 2 -4 6.61 0.67
4 2 -4 5.8 0.77
-4 -2 4 6.39 0.71
4 2 -4 6.33 0.77
4 2 -4 4.72 0.71
-4 -2 3 673.43 16.28
4 2 -3 664.49 16.7
4 2 -3 660.55 16.28
4 2 -3 676.19 16.97
-4 -2 3 682.92 16.74
4 2 -3 714.69 16.63
-4 -2 3 679.89 16.16
-4 -2 3 646.23 16.91
4 2 -3 707.92 17.15
4 2 -2 203.98 5.39
-4 -2 2 204.88 5.28
4 2 -2 207.52 6.19
-4 -2 2 207.27 6.04
4 2 -2 202.84 5.5
-4 -2 2 202.97 5.95
-4 -2 2 199.59 5.39
4 2 -2 191.8 6
4 2 -2 200.31 5.86
-4 -2 2 203.94 6.05
-4 -2 1 8.93 0.86
-4 -2 1 8.02 0.72
4 2 -1 8.18 0.86
4 2 -1 9.48 0.74
4 2 -1 7.59 0.75
-4 -2 1 9.46 0.96
-4 -2 1 8.68 0.87
-4 -2 1 10.68 0.57
4 2 -1 9.22 0.99
4 2 -1 8.39 0.6
-4 -2 0 1082.11 25.81
4 2 0 1106.26 25.8
4 2 0 1094.71 26.05
4 2 0 1090.55 24.95
4 2 0 1072.36 25.95
-4 -2 0 1091.49 26.2
-4 -2 -1 20.88 1.35
-4 -2 -1 20.66 1.3
-4 -2 -1 19.11 1.46
4 2 1 20.82 1.56
4 2 1 19.8 1.22
-4 -2 -2 7.23 0.86
-4 -2 -2 7.15 0.86
4 2 2 7.24 0.71
4 2 2 7.1 0.96
-4 -2 -2 6.54 0.96
-4 -2 -3 12.68 1.24
-4 -2 -3 18.87 1.56
4 2 3 19.42 1.67
4 2 3 12.16 0.87
-4 -2 -3 11.95 1.27
4 2 3 14.35 0.64
4 2 4 5.29 0.51
4 2 4 4.18 0.42
-4 -2 -4 3.87 0.87
4 2 4 4.61 0.41
-4 -2 -4 4.57 0.92
-4 -2 -4 5.96 1.01
4 2 4 4.22 0.92
-4 -2 -5 66.76 3.35
4 2 5 64.53 2.19
-4 -2 -6 43.24 2.75
-4 -2 -7 -0.3 0.82
4 2 7 -0.18 0.85
-4 -2 -8 31.69 2.52
4 2 8 30.6 2.69
4 2 9 1.88 1.2
4 3 -13 0.21 1.02
-4 -3 12 25.75 2.1
-4 -3 12 23.44 2.28
4 3 -12 27.11 2.53
-4 -3 11 1.89 0.87
4 3 -11 1.59 0.89
-4 -3 10 0.45 0.68
-4 -3 10 0.9 0.72
4 3 -10 0.14 0.63
-4 -3 9 57.53 2.16
4 3 -9 51.93 2.85
-4 -3 9 58.95 3.22
-4 -3 9 59.53 3.09
-4 -3 8 0.85 0.58
-4 -3 8 0.12 0.55
4 3 -8 -0.28 0.53
-4 -3 8 0.06 0.38
4 3 -7 8.21 1.18
-4 -3 7 5.37 0.88
-4 -3 7 6.91 1.03
4 3 -7 5.41 0.75
4 3 -7 5.33 0.9
-4 -3 7 6.08 0.72
4 3 -7 5.61 1.03
4 3 -6 12.93 1.38
-4 -3 6 10.3 1.09
-4 -3 6 11.56 1.2
-4 -3 6 10.79 0.98
4 3 -6 12.45 1.15
4 3 -6 12.33 1.27
4 3 -6 12.79 0.99
-4 -3 5 45.94 2.14
4 3 -5 41.5 2.21
4 3 -5 40.07 2.35
4 3 -5 40.33 2.11
-4 -3 5 43.04 2.3
-4 -3 5 40.12 2.06
4 3 -5 41.65 1.75
4 3 -4 2.35 0.65
-4 -3 4 4.8 0.62
4 3 -4 3.09 0.41
4 3 -4 3.2 0.61
-4 -3 4 3.53 0.63
4 3 -4 4.16 0.65
-4 -3 3 161.35 4.46
4 3 -3 151.94 4
4 3 -3 153.02 5.09
4 3 -3 139.88 4.51
4 3 -3 156.3 4.77
-4 -3 3 153.25 5.01
4 3 -3 146.33 5.1
-4 -3 3 153.47 3.97
-4 -3 3 160.88 5.12
-4 -3 2 151.52 4.14
4 3 -2 151.45 4.36
4 3 -2 163.54 4.11
4 3 -2 155.31 5.22
-4 -3 2 156.24 5.15
-4 -3 2 158.14 4.1
4 3 -2 147.27 5.03
-4 -3 2 151.94 4.84
-4 -3 2 154.52 5.01
4 3 -1 1128.38 27.21
-4 -3 1 1125.17 26.44
4 3 -1 1136.93 26.72
-4 -3 1 1163.95 27.07
-4 -3 1 1143.77 25.84
4 3 -1 1112.56 26
-4 -3 1 1042.58 27.28
-4 -3 1 1168.01 27.13
-4 -3 0 249.72 6.66
4 3 0 240.81 7.46
4 3 0 244.86 6.96
-4 -3 0 241.17 6.86
-4 -3 0 245.38 7.07
-4 -3 -1 449.93 12.12
-4 -3 -1 499.22 12.2
4 3 1 503.64 12.99
-4 -3 -1 496.78 12.86
4 3 1 441.73 12.04
-4 -3 -2 70.56 2.96
-4 -3 -2 69.31 2.84
4 3 2 76.83 3.36
-4 -3 -2 69.77 3.16
4 3 2 65.34 2.56
-4 -3 -3 19.94 1.57
-4 -3 -3 18.52 1.48
-4 -3 -3 17.16 1.54
4 3 3 15.79 0.99
4 3 3 14.3 1.48
-4 -3 -4 288.66 8.72
-4 -3 -4 274.9 8.39
4 3 4 274 6.62
-4 -3 -4 278.49 8.58
-4 -3 -5 4.34 0.96
4 3 6 17.96 1.92
-4 -3 -6 19.5 1.87
4 3 7 102.87 4.99
-4 -3 -7 102.15 4.66
4 3 8 -0.19 0.98
4 3 9 63.39 4.05
4 4 -14 1.99 1.38
4 4 -13 45.2 3.31
-4 -4 12 10.39 1.45
4 4 -12 11.7 1.7
-4 -4 11 19.64 2.01
4 4 -11 14.55 1.65
-4 -4 11 19.01 1.84
-4 -4 10 11.72 1.57
-4 -4 10 12.29 1.49
4 4 -10 13.52 1.45
-4 -4 9 280.89 7.91
-4 -4 9 279.86 9.08
4 4 -9 282.8 8.41
-4 -4 9 286.38 8.96
-4 -4 8 465.92 11.89
4 4 -8 452.37 12.54
-4 -4 8 430.71 12.66
-4 -4 8 464.47 12.74
4 4 -8 430.4 11.8
-4 -4 7 5.52 0.95
-4 -4 7 5.75 0.98
4 4 -7 6.3 0.75
4 4 -7 5.64 0.87
4 4 -7 6.26 1.02
-4 -4 7 8.22 0.94
4 4 -6 38.83 1.99
4 4 -6 41.92 2.33
4 4 -6 38.3 2.44
-4 -4 6 37.28 2.11
-4 -4 6 40.97 2.25
-4 -4 6 39.6 2.38
4 4 -6 37.63 1.65
-4 -4 5 1.47 0.5
4 4 -5 1.82 0.34
4 4 -5 1.12 0.52
4 4 -5 1.65 0.57
-4 -4 5 2.44 0.63
4 4 -4 209.45 4.94
4 4 -4 196.2 5.94
4 4 -4 198.4 6.03
-4 -4 4 198.63 6.47
4 4 -4 196.35 6.62
-4 -4 4 203.41 5.94
-4 -4 4 206.6 6.54
-4 -4 3 495.52 12.82
4 4 -3 482.09 11.91
4 4 -3 483.26 12.85
-4 -4 3 487.54 12.65
-4 -4 3 441.99 11.67
4 4 -3 469.64 12.05
4 4 -2 14.69 0.92
4 4 -2 16.17 0.92
-4 -4 2 14.64 1.33
4 4 -2 17.01 1.49
-4 -4 2 14.86 1.17
-4 -4 2 16.83 1.31
-4 -4 2 14.56 0.59
-4 -4 2 13.48 0.79
-4 -4 1 20.95 1.02
-4 -4 1 20.01 0.67
-4 -4 1 20.24 1.4
4 4 -1 19.54 1.45
-4 -4 1 21.27 1.43
-4 -4 0 130.54 3.89
4 4 0 120.96 4.74
-4 -4 0 115.18 4.6
4 4 0 124.9 4.32
-4 -4 0 131.33 4.21
-4 -4 0 125.81 4.32
4 4 1 1.15 0.52
-4 -4 -1 2.18 0.5
-4 -4 -1 1.29 0.49
-4 -4 -1 1.26 0.51
4 4 1 1.85 0.72
-4 -4 -1 2.15 0.72
-4 -4 -2 79.21 3.32
-4 -4 -2 85.7 3.19
4 4 2 76.59 3.68
-4 -4 -2 82.95 3.66
4 4 2 84.68 2.98
-4 -4 -3 1.48 0.65
-4 -4 -3 2.25 0.72
-4 -4 -3 1.75 0.71
-4 -4 -4 -0.11 0.7
-4 -4 -4 0.62 0.64
-4 -4 -5 2.19 0.9
4 4 5 2.23 0.8
4 4 6 107.43 4.91
-4 -4 -6 116.31 4.95
4 4 7 10.19 1.59
-4 -4 -7 9.97 1.55
4 4 8 70.77 4.11
-4 -5 13 15.82 1.82
4 5 -12 43.81 2.93
-4 -5 12 47.5 3.31
-4 -5 12 43.45 2.94
-4 -5 11 0.71 0.85
-4 -5 11 0.15 0.77
4 5 -11 1.99 0.89
-4 -5 10 7.52 1.38
-4 -5 10 11.06 1.48
4 5 -10 8.82 1.15
-4 -5 10 8.82 1.02
-4 -5 9 30.82 1.97
-4 -5 9 32.35 2.45
-4 -5 9 31.63 2.36
4 5 -9 32.02 1.91
4 5 -8 589.39 15.55
-4 -5 8 607.4 15.5
-4 -5 8 576.83 15.97
-4 -5 8 603.85 16.2
4 5 -8 572.11 14.74
4 5 -7 34.48 1.65
4 5 -7 38.23 2.12
4 5 -7 38.49 2.4
-4 -5 7 41.28 2.36
-4 -5 7 39.2 2.38
-4 -5 7 40.59 2.57
4 5 -7 34.44 1.62
4 5 -6 12.72 1.2
4 5 -6 13.05 0.75
4 5 -6 11.85 1.04
4 5 -6 9.72 1.16
-4 -5 6 11.84 1.27
4 5 -6 11.98 0.75
-4 -5 6 12.18 1.23
4 5 -5 6.42 1.07
-4 -5 5 5.94 1.03
4 5 -5 6.53 0.71
-4 -5 5 5.94 0.82
4 5 -5 6.09 0.86
-4 -5 5 5.73 0.93
4 5 -5 5.69 0.78
4 5 -4 305.86 8.2
-4 -5 4 298.05 8.93
4 5 -4 286.31 8.03
4 5 -4 285.03 8.92
-4 -5 4 294.57 8.09
-4 -5 4 296.56 8.9
4 5 -3 13.02 0.8
-4 -5 3 11.59 0.89
4 5 -3 14.26 1.43
-4 -5 3 12.49 1.36
-4 -5 3 13.51 1.32
-4 -5 2 22.75 1.42
4 5 -2 21.18 1.12
-4 -5 2 22.97 1.82
-4 -5 2 21.25 1.58
4 5 -2 22.73 1.7
-4 -5 2 22.08 1.02
-4 -5 1 166.66 4.31
-4 -5 1 165.52 5.06
4 5 -1 161.48 5.36
-4 -5 1 148.9 4.19
-4 -5 1 159.22 5.25
-4 -5 0 348.81 9.04
-4 -5 0 347.21 9.59
-4 -5 0 366.85 10.45
4 5 0 331.87 9.63
-4 -5 0 361.45 9.53
-4 -5 -1 856.42 20.28
-4 -5 -1 816.1 19.81
-4 -5 -1 810.21 21.22
4 5 1 809.96 20.28
-4 -5 -1 829.24 20.07
-4 -5 -2 262.36 7.78
-4 -5 -2 260.05 7.42
-4 -5 -2 269.5 8.34
-4 -5 -3 20.36 1.66
-4 -5 -3 20.26 1.57
4 5 3 21.79 1.67
-4 -5 -3 19.85 1.8
4 5 4 24.63 1.89
-4 -5 -4 23.49 2
4 5 5 6.13 1.16
-4 -5 -5 6.76 1.19
4 5 6 3.26 0.98
-4 -5 -6 4.92 1.21
-4 -6 13 81.21 4.3
-4 -6 12 30.5 2.77
-4 -6 12 31.5 2.6
-4 -6 11 191.96 7.48
-4 -6 11 196.15 7.36
-4 -6 10 131.71 5.02
-4 -6 10 135.03 5.73
-4 -6 10 133.27 5.67
4 6 -10 129.11 4.71
-4 -6 9 29.48 2.1
-4 -6 9 27.98 2.28
-4 -6 9 31.59 2.46
4 6 -9 28.58 1.69
-4 -6 8 37.08 2.4
-4 -6 8 32.53 2.42
-4 -6 8 38.78 2.69
4 6 -8 34.34 1.67
4 6 -7 21.13 1.06
4 6 -7 22.76 1.57
4 6 -7 21.18 1.82
-4 -6 7 21.84 1.86
4 6 -7 20.6 1.55
-4 -6 7 18.73 1.71
-4 -6 7 22.27 2
4 6 -7 19.97 1.04
4 6 -6 113.9 3.84
4 6 -6 110.49 4.37
-4 -6 6 122.91 4.85
-4 -6 6 119.39 4.49
4 6 -6 113.64 4.08
4 6 -5 238.23 6.72
4 6 -5 231.18 7.03
4 6 -5 231.62 6.32
-4 -6 5 241.55 7.81
-4 -6 5 223.68 7.01
-4 -6 5 236.65 7.8
4 6 -4 232.05 6.73
4 6 -4 248.67 6.2
-4 -6 4 250.31 8.03
4 6 -4 236.99 7.84
-4 -6 4 227.36 6.83
-4 -6 4 235.51 7.71
-4 -6 3 170.27 5.91
4 6 -3 168.64 4.45
-4 -6 3 162.62 6.11
4 6 -3 160.44 5.91
-4 -6 3 164.79 4.87
4 6 -2 100.29 4.25
-4 -6 2 101.12 3.07
-4 -6 2 105.13 3.64
-4 -6 2 109.03 4.2
-4 -6 1 0.77 0.52
-4 -6 1 0.56 0.25
-4 -6 1 0.44 0.47
-4 -6 1 0.48 0.26
-4 -6 1 1.49 0.73
-4 -6 0 0.59 0.55
-4 -6 0 0.96 0.41
-4 -6 0 0.46 0.36
-4 -6 0 1.31 0.58
-4 -6 0 1.09 0.71
-4 -6 -1 474.74 12.09
4 6 1 463.2 11.82
-4 -6 -1 456.44 13.21
-4 -6 -1 436.69 11.87
-4 -6 -1 471.32 11.98
-4 -6 -2 129.83 4.51
4 6 2 116.06 4.13
-4 -6 -2 120.85 4.97
-4 -6 -2 111.4 4.27
-4 -6 -2 115.38 3.81
4 6 3 207.52 6.49
-4 -6 -3 209.72 7.2
-4 -6 -3 197.35 6.65
-4 -6 -4 0.13 0.71
4 6 4 -0.11 0.59
-4 -6 -4 0.29 0.73
-4 -6 -5 46.51 2.98
-4 -6 -5 41.9 2.82
-4 -6 -6 57.95 3.56
-4 -6 -7 7.61 1.5
-4 -7 13 2.3 1.24
-4 -7 12 57.42 3.83
-4 -7 12 60.61 3.76
-4 -7 11 21.81 2.22
-4 -7 11 23.89 2.37
-4 -7 10 66.94 3.49
-4 -7 10 59.7 3.67
-4 -7 10 65.67 3.84
-4 -7 9 6.11 1.33
-4 -7 9 4.01 1.11
-4 -7 9 5.44 1.25
-4 -7 8 119.09 5.14
4 7 -8 122.17 4.47
-4 -7 8 127.33 5.22
-4 -7 8 123.73 5.48
-4 -7 7 266.92 8.72
-4 -7 7 259.54 8.37
4 7 -7 260.51 7.56
4 7 -6 41.65 2.1
-4 -7 6 43.63 2.83
-4 -7 6 44.67 2.54
-4 -7 6 40.33 2.78
-4 -7 5 242.8 8.26
-4 -7 5 237.52 7.32
-4 -7 5 247.77 8.2
4 7 -5 238.38 6.83
4 7 -4 207.67 5.13
-4 -7 4 207.76 7.43
-4 -7 4 210.2 6.27
-4 -7 4 197.83 7.13
-4 -7 3 11.05 1.37
-4 -7 3 10.18 0.92
-4 -7 3 11.48 1.45
-4 -7 2 149.59 4.7
-4 -7 2 146.16 4.19
-4 -7 2 145.4 5.41
-4 -7 1 15.93 1.24
4 7 -1 15.05 0.68
-4 -7 1 13.78 1.63
-4 -7 1 13.29 0.58
-4 -7 1 14.99 0.85
-4 -7 0 6.72 0.96
-4 -7 0 7.66 0.96
-4 -7 0 6.2 0.71
-4 -7 0 6.58 1.22
-4 -7 -1 74.99 3.24
-4 -7 -1 76.85 3.92
-4 -7 -1 77.72 3.13
-4 -7 -1 73.88 3
-4 -7 -2 59.78 3.4
-4 -7 -2 56.97 2.79
-4 -7 -3 18.33 1.62
-4 -7 -4 90.31 4.36
-4 -7 -4 84.35 4.07
-4 -7 -5 0.79 0.96
-4 -8 12 -0.85 1.18
-4 -8 12 0.82 0.91
-4 -8 11 45.82 3.36
-4 -8 11 45.41 3.36
-4 -8 10 35.66 2.79
-4 -8 10 34.58 2.61
-4 -8 10 36.65 2.93
-4 -8 9 10.25 1.6
-4 -8 9 11.04 1.65
-4 -8 9 10.71 1.58
-4 -8 8 27.91 2.38
-4 -8 8 30.16 2.41
-4 -8 7 19.42 2.06
-4 -8 7 22.5 2.19
-4 -8 7 19.97 1.85
-4 -8 6 19.04 1.98
-4 -8 6 18.99 1.68
-4 -8 6 19.78 2.03
-4 -8 5 15.78 1.81
-4 -8 5 16.88 1.49
-4 -8 5 19.38 2.05
-4 -8 4 13.34 1.65
-4 -8 4 13.35 1.21
-4 -8 4 14.08 1.73
-4 -8 3 140.69 4.5
-4 -8 3 144.47 5.64
-4 -8 2 2.23 0.73
-4 -8 2 2.58 1
-4 -8 1 0.71 0.58
-4 -8 1 1.6 0.59
-4 -8 1 0.86 0.78
-4 -8 0 90.08 4.54
-4 -8 0 87.94 3.45
-4 -8 0 94.66 3.84
-4 -8 -1 16.17 1.86
-4 -8 -1 14.93 1.38
-4 -8 -2 95.95 4.7
-4 -8 -3 89.81 4.47
-4 -8 -4 38.1 2.81
-4 -9 12 162.2 7.15
-4 -9 11 17.43 2.29
-4 -9 11 16.76 1.95
-4 -9 11 18.49 2.25
-4 -9 10 46.72 3.27
-4 -9 10 44.26 3.22
-4 -9 10 42.64 3.33
-4 -9 9 34.93 2.86
-4 -9 9 38.32 2.86
-4 -9 9 36.52 3.04
-4 -9 8 -0.19 0.96
-4 -9 8 -0.16 0.86
-4 -9 7 28.42 2.59
-4 -9 7 28.08 2.2
-4 -9 7 26.15 2.51
-4 -9 6 22.19 2.25
-4 -9 6 29.53 2.63
-4 -9 6 26.41 2.01
-4 -9 5 27.87 2.56
-4 -9 5 29.39 1.99
-4 -9 5 26.08 2.36
-4 -9 4 113.5 5.4
-4 -9 4 115.03 4.23
-4 -9 4 111.92 5.12
-4 -9 3 -0.16 0.71
-4 -9 2 14.5 1.62
-4 -9 2 11.06 1.69
-4 -9 1 61.42 3.79
-4 -9 1 58.27 3.17
-4 -9 0 4.49 1.28
-4 -9 -1 262.71 9.28
-4 -9 -2 8.15 1.56
-4 -9 -3 37.78 2.92
-4 -9 -4 5.68 1.37
-4 -10 11 51.19 3.51
-4 -10 11 40.45 3.26
-4 -10 10 1.37 1.09
-4 -10 10 2.27 1.22
-4 -10 10 1.18 0.98
-4 -10 9 6.49 1.49
-4 -10 9 5.77 1.39
-4 -10 8 10.37 1.85
-4 -10 8 14.78 2.02
-4 -10 8 13.02 1.74
-4 -10 7 4.17 1.22
-4 -10 7 3.62 1.26
-4 -10 7 3.72 1.02
-4 -10 6 23.62 2.42
-4 -10 6 24.54 2
-4 -10 6 23.44 2.52
-4 -10 5 34.36 2.96
-4 -10 5 31.73 2.71
-4 -10 4 22.15 2.2
-4 -10 3 228.18 8.83
-4 -10 3 237.06 8.35
-4 -10 2 12 1.57
-4 -10 2 12.8 1.9
-4 -10 1 67.16 4.13
-4 -10 1 59.26 3.33
-4 -10 0 17.89 2.13
-4 -10 -1 0.6 1
-4 -10 -2 22.55 2.39
-4 -11 11 -0.23 1.08
-4 -11 11 -0.44 1.15
-4 -11 10 -0.23 1.1
-4 -11 9 0.96 1.15
-4 -11 9 0.23 1.06
-4 -11 9 -0.38 1.04
-4 -11 8 51 3.8
-4 -11 8 52.76 3.37
-4 -11 8 49.17 3.75
-4 -11 7 148.8 6.92
-4 -11 7 144.66 6.77
-4 -11 6 16.4 2.16
-4 -11 6 12.93 2.01
-4 -11 5 57.39 4.06
-4 -11 5 68.49 4.19
-4 -11 4 14.62 2.01
-4 -11 3 2.19 1.03
-4 -11 3 1.38 1.08
-4 -11 2 88.93 5.14
-4 -11 2 89.98 4.52
-4 -11 1 9.65 1.83
-4 -12 7 0.96 1.1
-4 -12 6 27.06 2.83
-4 -12 5 1.11 1.1
-4 -12 4 5.22 1.56
-4 -12 3 51.37 3.51
5 -12 0 -0.81 1.5
5 -12 1 30.35 3.13
5 -12 2 8.96 1.93
5 -12 3 2.5 1.38
5 -12 4 14.75 2.2
5 -12 5 102.94 5.56
5 -12 6 36.89 3.33
5 -11 -2 2.34 1.49
5 -11 -1 33.9 3.36
5 -11 0 14.17 2.25
5 -11 1 4.13 1.61
5 -11 2 79.62 4.81
5 -11 3 143.58 6.59
5 -11 4 149.92 6.83
5 -11 5 0.66 0.93
5 -11 6 57.78 4.03
5 -11 7 0.24 1.13
5 -10 -3 3.7 1.52
5 -10 -2 14.13 2.18
5 -10 -1 5.5 1.62
5 -10 0 92.79 5.45
5 -10 0 109.93 4.47
5 -10 1 -0.23 1.15
5 -10 1 3.61 1.02
5 -10 2 0.63 1.01
5 -10 2 1.28 0.86
5 -10 3 87.62 4.81
5 -10 3 92.36 4.37
5 -10 4 89.02 4.87
5 -10 5 0.42 0.96
5 -10 6 -0.22 0.94
5 -10 7 3.18 1.3
5 -10 7 3.84 1.51
5 -10 8 70.91 4.52
5 -10 8 69.73 4.67
5 -9 -5 97.19 5.61
5 -9 -4 17.66 2.39
5 -9 -3 15.3 2.14
5 -9 -2 0.66 1.14
5 -9 -1 2.64 1.26
5 -9 0 102.8 5.44
5 -9 0 95.59 4.18
5 -9 1 54.75 3.78
5 -9 1 50.72 2.97
5 -9 2 88.21 4.74
5 -9 2 85.72 4.12
5 -9 3 104.47 5.17
5 -9 3 102.63 4.65
5 -9 4 1.16 0.95
5 -9 5 4.17 1.28
5 -9 6 -0.62 0.89
5 -9 7 10.13 1.76
5 -9 7 14.04 2.08
5 -9 8 11.97 1.94
5 -9 8 9.55 1.86
5 -9 9 86.28 5.2
5 -8 -6 12.26 2.2
5 -8 -5 56.55 4.08
5 -8 -5 57.94 3.4
5 -8 -4 79.88 4.71
5 -8 -4 77.75 3.99
5 -8 -3 13.7 1.69
5 -8 -3 17.17 2.21
5 -8 -2 22.83 2.44
5 -8 -2 22.2 2.07
5 -8 -1 48.24 3.45
5 -8 -1 40.9 2.85
5 -8 0 200.09 7.86
5 -8 0 188.77 6.42
5 -8 0 180.29 6.96
5 -8 1 208.42 8.09
5 -8 1 207.97 7
5 -8 2 7.6 1.37
5 -8 2 9.67 1.38
5 -8 3 21.41 2.01
-5 8 -3 22.09 1.49
5 -8 4 33.38 2.69
-5 8 -4 33.2 1.94
5 -8 5 68.86 4.1
-5 8 -5 74.32 3.22
5 -8 6 23.52 2.34
-5 8 -6 21.6 1.74
5 -8 7 1.26 1.06
5 -8 7 -0.41 0.97
5 -8 8 51.76 3.77
5 -8 8 64.08 4.13
5 -8 9 134.6 6.48
5 -7 -7 6.69 1.8
5 -7 -6 111.77 5.76
5 -7 -6 102.33 4.54
5 -7 -5 5.57 1.57
5 -7 -5 5.31 1.14
5 -7 -4 21.32 2.4
5 -7 -4 25.39 2.09
5 -7 -3 59.13 3.83
5 -7 -3 59.28 2.79
5 -7 -3 62.11 3.33
5 -7 -3 59.3 3.08
5 -7 -2 19.2 2.18
5 -7 -2 20.3 1.47
5 -7 -2 17.84 1.79
5 -7 -2 18.24 1.77
5 -7 -1 182.86 7.33
5 -7 -1 187.88 5.77
5 -7 -1 186.72 6.71
5 -7 0 129.63 5.87
5 -7 0 121.38 5.1
5 -7 1 105.64 4.99
5 -7 1 101.01 4.17
5 -7 2 176.8 6.76
5 -7 2 186.56 6.36
-5 7 -2 174.53 5.39
5 -7 3 170.83 6.77
-5 7 -3 167.75 5.47
5 -7 4 11.92 1.6
-5 7 -4 14.05 1.29
5 -7 5 11.63 1.6
-5 7 -5 9.75 1.2
5 -7 6 1.91 0.97
5 -7 7 67.73 4.15
5 -7 7 74.73 4.21
5 -7 8 76.06 4.59
5 -7 8 86.97 4.72
5 -7 9 3.82 1.31
5 -7 10 21.61 2.53
-5 6 8 22.57 2.17
-5 6 7 89.34 4.34
5 -6 -7 94.45 4.06
5 -6 -6 3.21 0.9
-5 6 6 2.99 0.93
5 -6 -5 198.97 6.73
5 -6 -4 28.49 2.05
5 -6 -3 21.98 1.65
5 -6 -3 27.89 1.99
5 -6 -3 24.44 1.81
5 -6 -2 55.46 2.6
5 -6 -2 57.13 3
5 -6 -2 54.9 2.89
5 -6 -1 4.34 0.82
5 -6 -1 4.47 0.9
5 -6 -1 4.36 0.98
5 -6 0 155.51 5.62
5 -6 0 158.35 5.77
5 -6 1 511.69 14.89
5 -6 1 533.8 14.08
-5 6 -1 500.67 13.26
-5 6 -2 76.75 3.11
5 -6 2 77.66 3.98
5 -6 2 77.75 3.69
5 -6 2 78.07 3.72
5 -6 3 243.28 8.52
5 -6 3 263.42 8.43
-5 6 -3 262.65 7.54
5 -6 3 240.3 8.11
-5 6 -4 48.9 2.52
5 -6 4 44.74 3.03
5 -6 5 126.86 5.59
5 -6 6 153.38 6.64
5 -6 6 177.72 6.7
5 -6 7 59.58 3.79
5 -6 7 59.18 3.63
5 -6 8 284.54 9.82
5 -6 9 32.53 2.83
5 -6 10 22.2 2.49
5 -6 11 4.19 1.49
-5 5 9 85.58 4.24
5 -5 -9 82.17 5.09
-5 5 8 47.63 2.98
5 -5 -8 46.85 3.63
5 -5 -7 16.46 2.18
-5 5 7 14.29 1.6
5 -5 -7 14.88 1.44
-5 5 6 54.6 3.07
5 -5 -6 58.59 2.87
5 -5 -6 55.36 3.64
5 -5 -5 123.48 5.64
-5 5 5 123.72 4.94
5 -5 -5 129.33 4.74
5 -5 -4 699.72 17.22
-5 5 4 642.78 17.35
5 -5 -4 669.95 16.66
5 -5 -4 675.08 17.05
5 -5 -3 6.79 1.02
5 -5 -3 7.93 1.02
5 -5 -3 8.54 1.06
5 -5 -2 115.04 4.14
5 -5 -2 115.62 4.36
5 -5 -2 113.3 4.34
5 -5 -1 308.03 9.01
5 -5 -1 319.6 9.19
5 -5 -1 301.7 8.59
5 -5 0 36.6 2.07
5 -5 0 39.27 2.38
5 -5 1 56.6 2.9
5 -5 1 59.14 2.77
5 -5 1 55.6 2.81
5 -5 1 60.33 3.09
-5 5 -1 52.86 2.53
5 -5 2 198.42 6.77
-5 5 -2 195.82 6.14
5 -5 2 206.01 6.66
5 -5 2 186.43 6.79
-5 5 -2 212.69 7.2
5 -5 3 41.68 2.7
5 -5 3 44.58 2.57
-5 5 -3 47.54 2.42
5 -5 4 323.66 9.48
-5 5 -4 299.3 10.02
-5 5 -5 81.15 4.23
5 -5 6 0.46 0.8
5 -5 7 236.41 8.29
5 -5 8 5.7 1.3
5 -5 9 0.18 0.9
5 -5 10 4.7 1.48
-5 4 10 83.45 4.22
5 -4 -9 14.1 2.11
-5 4 9 13.77 1.63
-5 4 8 84.63 3.96
5 -4 -8 77.44 4.56
5 -4 -7 0.95 0.98
-5 4 7 0.63 0.74
5 -4 -6 -0.35 0.84
-5 4 6 0.59 0.66
5 -4 -5 0.32 0.87
-5 4 5 1.34 0.67
5 -4 -5 0.17 0.42
5 -4 -4 325.56 9.99
5 -4 -4 303.05 8.38
5 -4 -4 311.43 8.95
5 -4 -3 409.46 11.92
5 -4 -3 397.12 10.85
5 -4 -3 396.37 10.67
5 -4 -2 52.34 3.12
5 -4 -2 54.35 2.44
5 -4 -2 55.14 2.54
5 -4 -2 55.67 2.61
-5 4 2 51.06 2.79
5 -4 -1 55.24 3.19
5 -4 -1 64.24 2.62
5 -4 -1 62.13 2.85
-5 4 1 58.24 2.89
5 -4 -1 55.1 2.58
-5 4 1 57.81 2.97
-5 4 0 86.87 3.8
5 -4 0 88.56 4.16
5 -4 0 97.07 3.47
5 -4 0 84.48 3.7
-5 4 0 93.56 3.9
-5 4 0 79.9 3.33
-5 4 -1 281.9 8.6
5 -4 1 272.24 8.72
-5 4 -1 273.83 7.88
5 -4 1 269.57 8.31
5 -4 1 297.01 8.03
5 -4 1 269.12 8.03
5 -4 1 274.48 8.45
-5 4 -1 271.86 8.61
-5 4 -2 24.63 1.98
5 -4 2 23.86 1.95
5 -4 2 23.39 1.88
5 -4 2 26.1 1.74
-5 4 -2 25.77 1.69
5 -4 2 22.78 1.81
-5 4 -2 24.65 2.01
5 -4 3 59.46 3.23
5 -4 3 61.54 3.25
5 -4 3 54.89 2.76
5 -4 4 45.81 2.9
5 -4 4 46.27 2.53
-5 4 -4 50.55 3.06
5 -4 5 1258.46 32.15
5 -4 5 1260.17 31.55
-5 4 -5 1303.72 32.29
5 -4 6 78.01 4.16
5 -4 6 80.31 3.89
-5 4 -6 78.7 4.17
5 -4 7 21.05 2
-5 4 -7 21.27 2.16
5 -4 8 40.8 2.83
-5 4 -8 39.69 2.98
5 -4 9 4.28 1.18
-5 3 10 34.14 2.48
5 -3 -10 34.96 3.11
-5 3 9 119.37 4.98
5 -3 -9 135.19 6.13
5 -3 -8 1.88 1.14
-5 3 8 2.23 0.8
-5 3 7 109.44 4.46
5 -3 -7 120.77 5.36
-5 3 6 78.99 3.53
5 -3 -6 85.38 4.22
5 -3 -5 0.82 0.65
5 -3 -5 0.29 0.75
5 -3 -5 0.8 0.37
5 -3 -4 762.87 20
5 -3 -4 751.21 19.07
5 -3 -4 758.71 18.43
5 -3 -4 768.99 19.17
-5 3 4 756.25 19.61
5 -3 -3 12.62 1.22
5 -3 -3 11.77 1.09
-5 3 3 11.54 1.27
5 -3 -3 11.23 1.42
-5 3 3 13.24 1.22
5 -3 -3 12.71 1.09
-5 3 3 11.82 1.13
5 -3 -2 31.99 2.25
5 -3 -2 30.51 1.67
5 -3 -2 31.76 1.85
5 -3 -2 31.97 1.8
-5 3 2 30.04 1.87
-5 3 2 29.64 2
-5 3 1 845.14 21.71
5 -3 -1 854.79 21.26
5 -3 -1 847.02 22.23
5 -3 -1 876.08 20.98
5 -3 -1 882.93 21.44
-5 3 1 874.39 21.78
-5 3 0 5.51 0.96
-5 3 0 4.6 0.78
5 -3 0 4.04 0.88
5 -3 0 5.13 0.72
5 -3 0 4.86 0.85
-5 3 0 6.09 0.97
-5 3 -1 13.94 1.45
5 -3 1 15.74 1.48
-5 3 -1 13.89 1.44
-5 3 -1 14.73 1.27
5 -3 1 15.19 1.2
5 -3 1 16.33 1.25
5 -3 1 15.55 1.39
-5 3 -2 1.27 0.74
5 -3 2 1.08 0.56
-5 3 -2 0.55 0.57
5 -3 2 0.96 0.47
-5 3 -3 7.05 1.17
5 -3 3 5.58 0.98
5 -3 3 3.73 0.7
5 -3 3 5.96 0.98
5 -3 4 226.95 7.72
-5 3 -4 229.35 7.85
5 -3 4 215.96 6.78
5 -3 5 255.25 8.68
5 -3 5 273.18 8.2
-5 3 -5 249.48 8.76
-5 3 -6 -0.17 0.87
5 -3 6 -0.13 0.64
5 -3 7 0.41 0.7
-5 3 -7 1.03 0.84
5 -3 8 11.29 1.57
-5 3 -8 14.41 1.84
5 -3 9 0.32 0.85
-5 3 -9 2.22 1.15
5 -2 -11 22.2 2.62
-5 2 11 17.4 1.84
5 -2 -10 26.31 2.59
5 -2 -9 17.13 2.05
-5 2 9 19.98 1.79
-5 2 8 43.82 2.55
5 -2 -8 39.88 2.9
5 -2 -7 4.6 1.13
5 -2 -6 200.72 5.3
5 -2 -6 192.99 6.47
5 -2 -6 200.56 7.05
5 -2 -5 7.45 1.03
-5 2 5 5.43 0.98
5 -2 -5 7.1 1.18
-5 2 5 6.93 0.94
5 -2 -5 6.93 0.66
-5 2 5 7.38 0.75
5 -2 -4 196.48 6.3
5 -2 -4 200.65 6.65
5 -2 -4 189.13 6.05
-5 2 4 190.45 6.04
5 -2 -4 197.14 5.54
-5 2 4 189.82 5.77
5 -2 -4 200.51 6.2
-5 2 4 203.7 6.46
5 -2 -3 943.92 23.33
5 -2 -3 896.98 22.68
5 -2 -3 972.37 22.5
-5 2 3 955.25 22.68
5 -2 -3 903.12 22.24
-5 2 3 915.68 22.64
-5 2 3 896.07 22.92
5 -2 -2 316.25 9.36
5 -2 -2 305.84 8.36
5 -2 -2 325.13 8.81
-5 2 2 316.16 8.65
5 -2 -2 317.35 8.59
-5 2 2 306.83 8.89
-5 2 2 311.8 8.99
-5 2 1 531.17 14.18
5 -2 -1 529.89 14.63
5 -2 -1 541.4 13.94
5 -2 -1 547.78 13.47
5 -2 -1 541.62 13.96
-5 2 1 556.1 14.39
-5 2 1 538.92 14
-5 2 0 81.47 3.38
5 -2 0 71.4 3.33
-5 2 0 79.52 3.18
5 -2 0 80.09 2.82
5 -2 0 77.7 3.22
-5 2 0 72.84 3.41
-5 2 -1 223.3 7.14
5 -2 1 235.09 7.18
5 -2 1 210.16 6.91
-5 2 -1 220.03 6.73
5 -2 1 219.63 6.24
5 -2 1 222.98 6.86
-5 2 -1 230.96 7.32
-5 2 -2 182.34 6.47
5 -2 2 191.38 6.41
5 -2 2 194.24 6.46
5 -2 2 187.56 5.69
-5 2 -3 227.62 7.29
5 -2 3 212.33 7.18
5 -2 3 203.72 6.26
5 -2 3 215.22 6.82
-5 2 -3 215.3 7.39
5 -2 4 2.74 0.83
5 -2 4 1.7 0.64
5 -2 4 2.2 0.61
-5 2 -4 2.65 0.96
5 -2 5 30.51 2.02
-5 2 -5 31.15 2.46
5 -2 5 29.86 1.82
5 -2 6 72.63 3.38
-5 2 -6 72.58 3.99
5 -2 7 59.46 3.15
-5 2 -7 66.81 3.85
5 -2 8 8.66 1.28
-5 2 -8 5.7 1.33
-5 2 -9 10.25 1.74
5 -1 -11 9.86 1.75
-5 1 11 8.53 1.32
5 -1 -10 1.72 1.06
-5 1 10 2.97 0.91
-5 1 9 104.83 4.43
5 -1 -9 109.59 5.06
5 -1 -8 3.81 1.09
5 -1 -7 167.36 6.2
-5 1 6 34.25 2.01
5 -1 -6 35.91 1.52
-5 1 6 34.47 1.53
5 -1 -6 35.73 2.18
5 -1 -6 30.52 2.22
-5 1 5 21.85 1.51
5 -1 -5 21.36 1.21
-5 1 5 24.12 1.37
-5 1 5 20.32 1.6
5 -1 -5 23.74 1.7
5 -1 -5 21.39 1.62
5 -1 -5 21.99 1.77
5 -1 -4 78.75 3.39
-5 1 4 70.78 2.89
5 -1 -4 73.59 2.68
-5 1 4 72.1 2.89
5 -1 -4 70.35 3.07
-5 1 4 72.68 3.15
5 -1 -4 72.56 3.12
5 -1 -4 72.1 3.03
5 -1 -3 1.41 0.55
5 -1 -3 1.61 0.56
5 -1 -3 1.5 0.52
-5 1 3 1.29 0.55
5 -1 -3 1.38 0.65
-5 1 3 1.66 0.48
5 -1 -3 1.49 0.47
-5 1 3 0.98 0.47
5 -1 -2 11.07 1.11
5 -1 -2 11.23 1.07
5 -1 -2 12.51 0.94
5 -1 -2 11.78 1.24
-5 1 2 12.16 0.99
5 -1 -2 12.27 1.05
-5 1 2 10.99 1.11
-5 1 2 11.04 1.12
-5 1 1 26.14 1.69
5 -1 -1 25.65 1.76
5 -1 -1 24.42 1.28
5 -1 -1 30.19 1.69
-5 1 1 25.02 1.74
-5 1 1 22.5 1.59
-5 1 0 0.82 0.53
5 -1 0 0.35 0.47
5 -1 0 -0.09 0.4
5 -1 0 0.32 0.3
-5 1 0 0.17 0.44
5 -1 0 0.41 0.45
-5 1 0 1.16 0.57
-5 1 -1 50.83 2.68
5 -1 1 49.73 2.55
5 -1 1 47.69 2.53
5 -1 1 49.23 1.95
-5 1 -1 46.52 2.64
-5 1 -1 51.34 2.5
-5 1 -2 1.58 0.68
5 -1 2 1.52 0.61
5 -1 2 0.8 0.5
5 -1 2 0.56 0.48
-5 1 -3 1.56 0.68
-5 1 -3 1.38 0.65
5 -1 3 1.57 0.62
5 -1 3 3.1 0.56
5 -1 3 0.99 0.59
-5 1 -3 0.95 0.7
5 -1 4 220.9 6.69
5 -1 4 227.64 6.44
-5 1 -4 223.82 7.77
5 -1 5 279.92 7.71
5 -1 5 269.27 7.99
-5 1 -5 282.8 9.24
5 -1 6 108.71 4.17
-5 1 -6 111.38 5.07
5 -1 7 50.98 2.69
-5 1 -7 47.77 3.19
-5 1 -8 2.16 1.12
-5 1 -9 137.14 6.03
5 0 -12 2.66 1.27
5 0 -11 6.52 1.39
-5 0 11 3.07 0.97
-5 0 10 51.72 2.98
5 0 -10 52.31 3.35
5 0 -9 1.7 0.94
-5 0 8 472.91 13.96
5 0 -8 591.83 14.92
5 0 -7 0.23 0.63
5 0 -7 0.12 0.65
-5 0 7 -0.1 0.52
-5 0 7 0.12 0.27
-5 0 6 79 3.2
5 0 -6 77.2 2.71
-5 0 6 74.44 2.71
5 0 -6 78.03 3.54
5 0 -6 76.27 3.42
5 0 -6 72.97 3.38
-5 0 5 344.65 9.61
5 0 -5 357.55 9.36
-5 0 5 356.35 9.38
5 0 -5 367.82 10.13
-5 0 5 362.5 9.92
5 0 -5 353.56 10.07
5 0 -5 359.49 10.07
5 0 -4 35.4 2.05
-5 0 4 34.98 1.77
5 0 -4 35.54 1.77
-5 0 4 35.51 1.8
-5 0 4 33.8 1.88
5 0 -4 30.52 1.82
5 0 -4 32.05 1.96
5 0 -3 48.29 2.37
-5 0 3 45.78 2.02
-5 0 3 47.26 2.23
5 0 -3 46.45 2.16
-5 0 3 46.44 2.21
5 0 -3 47.76 2.14
5 0 -2 94.53 3.12
5 0 -2 87.12 3.54
-5 0 2 95.68 3.15
5 0 -2 90.08 3.37
-5 0 2 97.32 3.6
5 0 -2 88.01 3.49
-5 0 2 85.91 3.32
-5 0 1 42.02 2.06
5 0 -1 38.62 2.01
5 0 -1 38.18 1.59
5 0 -1 35.41 1.94
-5 0 1 39.46 2.17
5 0 -1 39.47 2.05
-5 0 0 195.03 5.89
5 0 0 178.2 5.7
5 0 0 174.42 5.75
5 0 0 181.85 5.73
5 0 0 179.51 4.88
-5 0 0 185.1 6.02
5 0 0 187.03 5.67
5 0 1 241.49 7
-5 0 -1 243.8 7.42
5 0 1 240.82 7.31
5 0 1 246.97 7.48
5 0 1 242.44 6.26
5 0 2 2.52 0.59
-5 0 -2 1.92 0.65
5 0 2 2.72 0.69
5 0 2 2.28 0.39
5 0 2 2.28 0.64
-5 0 -2 2.03 0.69
5 0 3 665.89 16.74
-5 0 -3 675.33 17.73
-5 0 -3 681.35 17.46
5 0 3 686.79 16.64
5 0 3 689.06 17.55
-5 0 -3 680.6 18.1
5 0 4 434.03 11.04
5 0 4 428.74 10.84
-5 0 -4 416.31 12.46
5 0 4 421.99 10.94
5 0 5 167.07 4.94
5 0 5 168.24 5.22
-5 0 -5 169.22 6.51
-5 0 -6 6.46 1.3
5 0 6 5.9 0.81
-5 0 -7 3.14 1.1
-5 0 -8 25.37 2.43
5 0 9 1.16 1.24
-5 -1 12 105.69 4.83
5 1 -12 101.78 5.25
5 1 -11 3.26 1.17
5 1 -10 240.53 8.33
-5 -1 9 5.75 1.04
5 1 -9 7.52 1.19
-5 -1 8 47.07 2.59
-5 -1 8 46.43 1.74
5 1 -8 47.05 2.72
-5 -1 7 363.67 10.12
-5 -1 7 357.8 9.14
5 1 -7 352.04 10.23
-5 -1 6 100.27 3.76
-5 -1 6 100.77 3.34
5 1 -6 103.06 4.16
5 1 -6 95.49 4.06
5 1 -6 93.47 3.79
5 1 -5 25.15 1.65
-5 -1 5 25.34 1.54
5 1 -5 26.2 1.54
-5 -1 5 23.4 1.42
5 1 -5 24.34 1.72
5 1 -5 27.08 1.78
5 1 -5 25.7 1.8
-5 -1 5 23.38 1.51
5 1 -4 465.48 12.22
5 1 -4 456.41 12.36
-5 -1 4 479.52 11.95
5 1 -4 469.12 12.22
-5 -1 4 467.93 12.08
5 1 -4 473.33 12.34
-5 -1 4 470.74 12.09
5 1 -3 2.9 0.59
5 1 -3 2.59 0.66
-5 -1 3 2.67 0.52
5 1 -3 3.17 0.62
5 1 -3 2.69 0.62
5 1 -3 2.49 0.57
-5 -1 3 2.28 0.55
-5 -1 2 101.02 3.47
5 1 -2 94.07 3.66
5 1 -2 104.65 3.57
-5 -1 2 99.2 3.72
-5 -1 2 102.41 3.2
5 1 -2 95.69 3.71
-5 -1 2 101.27 3.8
5 1 -2 101.46 3.77
5 1 -2 104.91 3.32
-5 -1 1 2.47 0.61
5 1 -1 2.27 0.57
5 1 -1 2.2 0.39
-5 -1 1 2.06 0.53
5 1 -1 2.54 0.58
5 1 -1 2.13 0.52
-5 -1 1 2.73 0.62
-5 -1 0 102.35 3.83
5 1 0 101.56 2.94
5 1 0 106.28 3.74
5 1 0 105 3.9
5 1 0 95.07 3.89
-5 -1 0 103.55 3.94
-5 -1 0 107.46 4.11
5 1 0 108.26 3.73
-5 -1 -1 1271.29 29.51
5 1 1 1252.95 29.48
-5 -1 -1 1194.37 29.59
5 1 1 1206.75 28.03
5 1 1 1224.15 29.69
5 1 1 1165.75 29.59
5 1 1 1245.86 29.13
-5 -1 -2 184.52 6
5 1 2 176.91 4.64
5 1 2 187.21 4.94
5 1 2 190.62 6.13
-5 -1 -2 186.17 6.35
5 1 2 182.18 5.41
5 1 3 4.13 0.65
-5 -1 -3 4.92 1.03
-5 -1 -3 3.86 0.83
-5 -1 -3 2.12 0.75
5 1 3 2.87 0.46
5 1 4 267.38 7.01
5 1 4 276.18 7.04
5 1 4 261.35 7.1
-5 -1 -5 145.35 5.91
5 1 5 148.59 4.41
-5 -1 -6 16.13 1.84
-5 -1 -7 1.59 1.03
5 1 8 10.46 1.8
-5 -1 -8 11.37 1.84
5 1 9 138.47 6.61
5 2 -13 1.93 1.28
5 2 -12 1.32 1.01
5 2 -11 26.2 2.34
-5 -2 10 21.57 1.96
5 2 -10 24.53 2.07
-5 -2 9 40.21 2.52
5 2 -9 34.08 2.31
-5 -2 8 320.83 9.55
-5 -2 8 289.14 9.17
-5 -2 8 321.3 8.09
5 2 -8 300.92 9.1
-5 -2 7 21.66 1.8
-5 -2 7 23.45 1.71
5 2 -7 23.18 1.78
-5 -2 7 24.85 1.36
5 2 -7 22.34 1.63
-5 -2 6 64.01 3.14
-5 -2 6 66.19 2.86
-5 -2 6 62.56 2.51
5 2 -6 66.68 3.16
5 2 -6 61.35 3.14
5 2 -6 57.87 2.67
5 2 -5 4.4 0.84
-5 -2 5 5.29 0.85
-5 -2 5 4.64 0.71
5 2 -5 4.48 0.71
5 2 -5 5.34 0.88
-5 -2 5 6.25 0.77
5 2 -5 5.39 0.87
5 2 -4 861.06 20.65
-5 -2 4 845.64 20.58
5 2 -4 813.89 21.04
5 2 -4 888.54 21.25
-5 -2 4 887.82 20.98
5 2 -4 853.43 21
-5 -2 4 837.8 20.45
5 2 -3 449.14 11.18
-5 -2 3 445.35 10.91
5 2 -3 442.62 11.81
-5 -2 3 446.31 11.64
5 2 -3 426.72 11.57
5 2 -3 436.54 11.26
5 2 -3 411.19 11.77
-5 -2 3 429.17 10.95
-5 -2 2 152.25 4.52
5 2 -2 158.17 4.56
-5 -2 2 152.41 4.24
5 2 -2 155.07 5.26
-5 -2 2 151.88 5.09
5 2 -2 148.66 4.45
-5 -2 2 149.17 5.06
5 2 -2 150.12 5.09
-5 -2 1 297.63 8.02
5 2 -1 307.56 8
-5 -2 1 287.86 8.45
5 2 -1 294.92 8.26
5 2 -1 282.74 8.64
-5 -2 1 302.1 8.63
5 2 -1 296.67 7.52
5 2 -1 305.14 8.45
-5 -2 0 610.94 15.19
5 2 0 610.64 15.04
5 2 0 606.11 15.38
-5 -2 0 590.4 15.46
5 2 0 590.41 14.04
5 2 0 599.87 15.18
5 2 1 8.49 0.92
-5 -2 -1 6.23 0.87
5 2 1 6.89 0.42
5 2 1 7.54 1.05
-5 -2 -1 7 1.03
5 2 1 6.92 0.37
-5 -2 -2 302.04 8.67
-5 -2 -2 285.97 8.37
5 2 2 291.88 8.93
-5 -2 -2 300.48 9.11
5 2 2 297.5 8.05
-5 -2 -3 853.67 21.18
-5 -2 -3 835.76 20.88
-5 -2 -3 843.96 21.61
5 2 3 810.08 20.01
5 2 4 11.98 0.78
-5 -2 -4 9.67 1.36
-5 -2 -5 141.55 5.75
-5 -2 -6 44.45 3.22
-5 -2 -7 41.62 3.12
5 2 8 67.2 4.25
5 3 -13 0.79 1.06
-5 -3 12 44.53 3.12
5 3 -12 47.56 3.24
-5 -3 11 31.29 2.42
-5 -3 11 29.93 2.4
5 3 -11 31.68 2.42
-5 -3 10 127.16 5.29
5 3 -10 122.52 4.99
-5 -3 10 133.3 5.38
-5 -3 9 34.59 2.44
-5 -3 9 40.2 1.78
5 3 -9 35.42 2.25
-5 -3 9 40.05 2.61
-5 -3 8 25.11 1.94
-5 -3 8 22.2 1.38
5 3 -8 22.34 1.63
-5 -3 8 25.85 2.03
-5 -3 7 232.1 7.3
5 3 -7 234.93 7.31
-5 -3 7 243.45 6.77
5 3 -7 226.24 6.83
-5 -3 7 224.96 7.51
-5 -3 6 110.78 4.1
-5 -3 6 111.22 3.92
5 3 -6 109.17 4.37
5 3 -6 107.87 4.2
-5 -3 6 114.86 4.53
5 3 -6 110.29 3.75
5 3 -5 47.99 2.43
5 3 -5 50.94 2.06
-5 -3 5 49.73 2.29
-5 -3 5 50.65 2.42
5 3 -5 43.17 2.42
5 3 -4 43.01 1.86
-5 -3 4 46.95 2.01
5 3 -4 46.01 2.31
-5 -3 4 48.63 2.41
5 3 -4 45.37 2.22
5 3 -4 46.42 2.57
-5 -3 4 47.02 1.75
-5 -3 4 47.72 2.55
5 3 -3 37.17 1.51
-5 -3 3 37.2 1.57
5 3 -3 38.07 1.8
5 3 -3 36.06 2.19
-5 -3 3 36.57 2.11
5 3 -3 37.92 2.21
-5 -3 3 38.7 1.51
5 3 -3 36.36 1.99
-5 -3 3 32.96 2.05
-5 -3 2 488.9 11.95
5 3 -2 472.36 12
5 3 -2 477.03 12.39
-5 -3 2 499.51 11.72
5 3 -2 475.8 13.24
-5 -3 2 498.3 13.14
5 3 -2 497.86 12.04
5 3 -2 478.72 13.04
-5 -3 2 489.23 12.87
-5 -3 2 491.51 12.99
-5 -3 1 19.97 1.25
-5 -3 1 20.2 1.53
5 3 -1 18.69 1.37
5 3 -1 18.9 1.62
5 3 -1 18.69 0.89
-5 -3 1 22.38 1.65
5 3 -1 20.71 1.52
-5 -3 0 285.02 7.7
-5 -3 0 278 8.12
5 3 0 283.02 7.94
-5 -3 -1 672.97 16.69
-5 -3 -1 666.2 17.38
5 3 1 645.47 16.56
-5 -3 -2 285.14 8.2
-5 -3 -2 283.17 7.94
-5 -3 -2 267.48 8.56
5 3 2 265.03 7.64
-5 -3 -3 174.01 6.08
-5 -3 -3 182.3 5.98
-5 -3 -3 175.38 6.44
-5 -3 -4 8.39 1.28
-5 -3 -5 2.05 0.94
-5 -3 -6 284.85 9.59
5 3 7 6.88 1.51
-5 -3 -7 7.43 1.54
5 3 8 19.64 2.39
-5 -4 13 37 2.78
-5 -4 12 1.61 0.98
-5 -4 12 1.99 0.97
5 4 -12 1.9 1
-5 -4 11 5.86 1.23
-5 -4 11 6.63 1.29
5 4 -11 6.67 1.21
-5 -4 10 2.59 0.95
-5 -4 10 2.27 0.9
5 4 -10 1.51 0.69
-5 -4 9 5.24 1.09
-5 -4 9 5.79 1.13
5 4 -9 4.67 0.87
-5 -4 9 4.35 0.73
-5 -4 8 516.94 13.13
-5 -4 8 502.83 14.09
5 4 -8 472.39 12.85
-5 -4 8 507.84 13.82
-5 -4 7 4.73 0.86
-5 -4 7 4.97 0.98
5 4 -7 4.58 0.69
5 4 -7 4.46 0.85
-5 -4 7 4.15 0.79
5 4 -6 160.91 4.65
5 4 -6 163.49 5.59
-5 -4 6 163.14 5.48
5 4 -6 154.66 5.34
-5 -4 6 156.72 5.3
5 4 -5 118.97 4.87
5 4 -5 121.4 3.55
5 4 -5 126.53 4.38
5 4 -5 123.7 4.41
-5 -4 5 127.54 4.59
-5 -4 5 113.16 4.65
-5 -4 5 119.68 4.17
5 4 -4 1.08 0.68
-5 -4 4 1.33 0.6
-5 -4 4 0.96 0.37
5 4 -4 0.83 0.58
5 4 -4 1.04 0.24
5 4 -4 0.89 0.46
-5 -4 4 1.16 0.57
-5 -4 3 182.91 5.1
5 4 -3 180.17 5.38
-5 -4 3 198.77 6.38
5 4 -3 191.16 6.4
-5 -4 3 190.26 4.67
-5 -4 3 195.88 6.29
-5 -4 2 53.88 1.8
5 4 -2 54.39 2.28
-5 -4 2 48.4 1.69
5 4 -2 56.06 1.95
5 4 -2 50.19 2.84
5 4 -2 59.61 2.9
-5 -4 2 56.98 2.92
-5 -4 2 53.24 2.57
-5 -4 2 55.42 2.69
-5 -4 1 299.73 7.98
-5 -4 1 296.46 8.68
5 4 -1 306.47 8.41
5 4 -1 310.65 8.93
-5 -4 1 314.58 8.75
-5 -4 0 806.71 20.52
-5 -4 0 850.95 20.11
-5 -4 0 820.47 21.27
-5 -4 0 835.9 20.8
5 4 0 823.06 20.72
-5 -4 -1 686.4 16.88
-5 -4 -1 654.01 17.3
-5 -4 -1 683.57 17.79
5 4 1 656.32 16.92
-5 -4 -2 19.95 1.53
-5 -4 -2 18.8 1.39
5 4 2 16.87 1.27
-5 -4 -2 15.28 1.61
-5 -4 -3 9.72 1.17
-5 -4 -3 12.38 1.36
-5 -4 -3 13.32 1.55
-5 -4 -4 4.82 1.1
5 4 5 25.08 2.24
-5 -4 -5 25.05 2.22
5 4 6 1.37 0.9
-5 -4 -6 2.09 1.04
5 4 7 27.67 2.54
-5 -5 13 33.25 2.75
-5 -5 12 2.41 1.11
-5 -5 12 1.9 1.02
-5 -5 11 30.5 2.5
-5 -5 11 29.68 2.47
-5 -5 10 123.67 5.27
5 5 -10 116.45 4.43
-5 -5 10 119.31 5.23
-5 -5 9 81.58 3.47
-5 -5 9 81.72 3.98
-5 -5 9 87.18 4.19
5 5 -9 77.49 3.24
5 5 -8 61.7 3.01
-5 -5 8 58.67 2.91
-5 -5 8 51.99 2.99
-5 -5 8 62.91 3.42
5 5 -8 55.67 2.38
5 5 -7 143.3 4.94
-5 -5 7 146.75 5.29
-5 -5 7 139.78 5.17
-5 -5 7 142.95 5.62
5 5 -7 143.8 4.24
5 5 -6 176.71 4.57
5 5 -6 172.49 5.68
5 5 -6 172.68 5.43
5 5 -6 176.76 5.91
-5 -5 6 168.25 5.98
-5 -5 6 172.88 5.72
5 5 -5 129.23 4.52
5 5 -5 134.3 4.6
-5 -5 5 125.42 4.94
-5 -5 5 122.15 4.97
-5 -5 5 133.85 4.44
5 5 -4 52.12 2.5
5 5 -4 56.06 3.06
5 5 -4 53.62 2.39
-5 -5 4 55.71 2.97
-5 -5 4 51.82 2.85
-5 -5 4 54.29 2.25
-5 -5 3 21.38 1.11
5 5 -3 20.96 1.23
5 5 -3 21.31 1.26
-5 -5 3 23.54 1.89
5 5 -3 19.83 1.76
-5 -5 3 19.84 1.66
-5 -5 2 141.84 3.59
5 5 -2 134.88 4.31
-5 -5 2 141.72 5.38
5 5 -2 135.93 5.18
-5 -5 2 138.57 4.78
-5 -5 2 133.01 4.91
-5 -5 2 137.82 3.47
-5 -5 1 157.25 4.57
-5 -5 1 167.05 5.41
5 5 -1 152.97 5.53
-5 -5 1 171.05 5.52
5 5 0 -0.1 0.59
-5 -5 0 0.7 0.51
-5 -5 0 0.69 0.66
-5 -5 0 0.06 0.4
-5 -5 -1 480.6 12.29
-5 -5 -1 445.73 12.75
-5 -5 -1 485.47 13.41
5 5 1 459.7 12.45
-5 -5 -2 0.42 0.71
-5 -5 -3 0.29 0.73
5 5 4 11.2 1.46
-5 -5 -4 11.12 1.52
5 5 5 21.57 1.99
-5 -5 -5 24.53 2.29
-5 -5 -6 33.09 2.77
-5 -6 13 1.33 1.07
-5 -6 12 23.31 2.32
-5 -6 12 26.9 2.5
-5 -6 11 112.26 5.29
-5 -6 11 116.32 5.34
-5 -6 10 15.58 1.79
-5 -6 10 13.19 1.71
-5 -6 10 14.69 1.46
-5 -6 9 1.33 0.86
-5 -6 9 1.15 1.01
-5 -6 9 0.99 0.64
5 6 -8 836.46 20.8
-5 -6 8 833.02 21.31
-5 -6 8 781.08 21.26
-5 -6 8 834.96 21.94
5 6 -7 214.89 6.69
5 6 -7 204.98 6.45
-5 -6 7 205.84 6.94
5 6 -6 515.09 13.8
5 6 -6 521.12 14.11
5 6 -6 544.64 13.48
-5 -6 6 555.63 14.84
-5 -6 6 523.38 14
-5 -6 6 514.96 14.82
-5 -6 5 61.5 3.31
5 6 -5 59.12 2.74
5 6 -5 60.52 2.36
5 6 -5 59.52 2.71
-5 -6 5 60.16 2.68
-5 -6 5 56.15 3.2
5 6 -4 261.48 7.02
-5 -6 4 277.22 8.8
-5 -6 4 272.17 8.56
-5 -6 4 267.74 7.33
5 6 -3 62 2.33
-5 -6 3 60.95 3.37
-5 -6 3 62.21 3.18
-5 -6 3 66.37 2.25
-5 -6 2 36.56 1.17
5 6 -2 36.17 2.41
-5 -6 2 42.47 2.2
-5 -6 2 37.51 2.3
-5 -6 1 116.78 4.29
-5 -6 1 118.51 5.07
5 6 -1 123.11 4.7
-5 -6 1 113.31 3.32
-5 -6 1 124.33 4.54
-5 -6 0 76.49 3.32
-5 -6 0 79.21 3.9
5 6 0 76.13 3.41
-5 -6 0 70.51 2.64
-5 -6 0 74.41 3.18
-5 -6 -1 3.92 0.77
-5 -6 -1 5.99 1.04
-5 -6 -1 6.23 1.26
5 6 2 10.69 1.21
-5 -6 -2 10.58 1.46
-5 -6 -3 0.79 0.83
-5 -6 -4 11.88 1.64
-5 -7 12 21.44 2.34
-5 -7 12 23.32 2.4
-5 -7 11 58.53 3.67
-5 -7 11 62.08 3.85
-5 -7 10 42.43 2.72
-5 -7 10 34.4 2.67
-5 -7 10 39.14 2.96
-5 -7 9 86.67 4.18
-5 -7 9 88.19 4.26
-5 -7 9 84.62 4.47
-5 -7 8 57.58 3.37
-5 -7 8 58.11 3.22
5 7 -7 120.45 4.39
-5 -7 7 113.53 5.06
-5 -7 7 106.27 4.51
-5 -7 7 104.57 5
-5 -7 6 41.46 2.83
5 7 -6 38.55 2.16
-5 -7 6 38.02 2.24
-5 -7 6 41.09 2.82
-5 -7 5 9.9 1.04
-5 -7 5 10.42 1.44
-5 -7 5 12.21 1.55
5 7 -4 38.09 1.53
-5 -7 4 36.51 2.67
-5 -7 4 37.93 1.85
-5 -7 4 40.82 2.66
-5 -7 3 90.73 4.39
-5 -7 3 83.62 3.99
-5 -7 3 89.39 2.84
-5 -7 2 93.46 3.62
-5 -7 2 88.06 3.93
-5 -7 1 15.59 1.38
-5 -7 1 17.34 1.84
-5 -7 1 18.92 1.62
-5 -7 0 27.56 1.91
-5 -7 0 27.3 2.37
-5 -7 0 28.38 1.9
-5 -7 -1 179.54 6.86
-5 -7 -1 174.72 6.02
-5 -7 -2 67.83 3.38
-5 -7 -2 68.99 3.82
-5 -7 -3 57.88 3.52
-5 -7 -4 43.43 3.14
-5 -7 -5 11.36 1.81
-5 -8 12 53.45 3.67
-5 -8 12 47.47 3.56
-5 -8 11 139.41 6.17
-5 -8 11 141.35 6.4
-5 -8 10 -0.35 0.91
-5 -8 10 -0.2 0.95
-5 -8 10 0.49 0.8
-5 -8 9 104.72 4.93
-5 -8 9 102.05 4.76
-5 -8 9 104.79 5.23
-5 -8 8 0.14 0.77
-5 -8 8 1.03 0.89
-5 -8 7 0.72 0.84
-5 -8 7 0.52 0.82
-5 -8 7 0.37 0.7
-5 -8 6 34.65 2.75
-5 -8 6 31.64 2.06
-5 -8 6 33.84 2.64
-5 -8 5 26.91 2.41
-5 -8 5 25.13 1.68
-5 -8 5 24.37 2.2
-5 -8 4 112.04 5.33
-5 -8 4 124.22 5.2
-5 -8 3 7.97 1.3
-5 -8 3 10.92 1.66
-5 -8 2 54.99 3.47
-5 -8 2 54.3 2.59
-5 -8 2 56.34 3.1
-5 -8 1 0.59 0.68
-5 -8 1 0.55 0.61
-5 -8 1 0.36 0.78
-5 -8 0 46.34 2.51
-5 -8 0 46.79 3.2
-5 -8 0 51.49 2.66
-5 -8 -1 13.29 1.76
-5 -8 -2 191.31 7.43
-5 -8 -3 3.25 1.25
-5 -8 -4 54.33 3.57
-5 -9 11 5.67 1.59
-5 -9 11 7.05 1.65
-5 -9 10 79.82 4.4
-5 -9 10 82.57 4.41
-5 -9 10 76.83 4.6
-5 -9 9 9.74 1.6
-5 -9 9 10.14 1.57
-5 -9 8 8.48 1.61
-5 -9 8 6.01 1.53
-5 -9 8 8.22 1.4
-5 -9 7 106.66 5.2
-5 -9 7 94.83 4.26
-5 -9 6 6.33 1.33
-5 -9 6 8.09 1.52
-5 -9 6 3.88 0.93
-5 -9 5 72.49 4.27
-5 -9 5 72.64 4.04
-5 -9 4 260.63 9.3
-5 -9 4 245.66 8.67
-5 -9 3 65.45 3.6
-5 -9 2 82.12 4.51
-5 -9 2 75.62 3.84
-5 -9 1 12.19 1.42
-5 -9 1 10.2 1.7
-5 -9 0 15.35 1.97
-5 -9 -1 2.32 1.17
-5 -9 -2 28.72 2.63
-5 -10 11 -0.4 1.15
-5 -10 10 22.83 2.41
-5 -10 10 18.67 2.2
-5 -10 9 3.14 1.27
-5 -10 9 1.92 1.13
-5 -10 9 1.85 0.93
-5 -10 8 -0.22 1.06
-5 -10 8 -0.65 1.18
-5 -10 8 0.3 0.84
-5 -10 7 21.96 2.37
-5 -10 7 18.31 2.32
-5 -10 6 86.48 4.95
-5 -10 6 89.68 4.84
-5 -10 5 14.86 2
-5 -10 5 16.43 2.07
-5 -10 4 46.92 3.55
-5 -10 4 51.94 3.4
-5 -10 3 146.68 6.71
-5 -10 2 1.51 0.94
-5 -10 2 1.5 1.15
-5 -10 1 21.1 2.35
-5 -10 0 1.26 1.05
-5 -11 10 12.07 2.07
-5 -11 9 1.41 1.2
-5 -11 8 44.04 3.62
-5 -11 7 94.27 5.36
-5 -11 7 90.67 5.17
-5 -11 6 71.17 4.58
-5 -11 6 67.32 4.27
-5 -11 5 92.82 5.28
-5 -11 4 46.52 3.33
-5 -11 3 22.62 2.36
-5 -12 5 2.38 1.35
-5 -12 4 36.96 3.1
6 -11 0 12.47 2.36
6 -11 1 126.64 6.54
6 -11 2 128.08 6.43
6 -11 3 8.13 1.68
6 -11 4 87.67 5.16
6 -11 5 -0.49 1.26
6 -10 -2 10.22 2.27
6 -10 -1 2.7 1.5
6 -10 -1 5.66 1.21
6 -10 0 56.02 4.22
6 -10 0 56 3.29
6 -10 1 28.48 2.94
6 -10 1 23.65 2.18
6 -10 2 39.34 3.31
6 -10 2 40.42 2.95
6 -10 3 28.46 2.81
6 -10 3 29.27 2.6
6 -10 4 18.23 2.32
6 -10 5 2.09 1.13
6 -9 -5 90.61 4.76
6 -9 -4 175.13 7.97
6 -9 -4 172.67 7.03
6 -9 -3 1.75 1.41
6 -9 -3 2.43 1.17
6 -9 -2 7.2 1.76
6 -9 -2 10.91 1.75
6 -9 -1 72.33 4.8
6 -9 -1 77.75 4.31
6 -9 0 -0.49 1.2
6 -9 0 0.14 0.7
6 -9 1 67.78 4.36
6 -9 1 63.23 3.55
6 -9 2 47.74 3.54
6 -9 2 49.67 3.15
6 -9 3 2.98 1.18
6 -9 3 2.61 1.08
6 -9 4 44.98 3.41
6 -9 5 166.62 7.29
6 -9 6 0.23 1.04
6 -9 7 32.9 3.09
6 -9 7 33.8 3.14
6 -8 -5 125.46 6.37
6 -8 -5 116.95 5.37
6 -8 -4 4.75 1.49
6 -8 -4 7.73 1.4
6 -8 -3 25.74 2.76
6 -8 -3 21.02 2.15
6 -8 -2 17.99 2.41
6 -8 -2 15.98 1.87
6 -8 -1 44.13 3.6
6 -8 -1 43.4 3.06
6 -8 0 344.52 11.89
6 -8 0 342.05 10.43
6 -8 0 337.39 10.97
6 -8 1 39.08 3.15
6 -8 1 40.59 2.75
6 -8 1 35.84 2.77
6 -8 2 16.04 2
6 -8 2 12.13 1.66
6 -8 3 38.3 3.05
6 -8 3 40.99 2.92
-6 8 -3 39.36 2.23
-6 8 -4 0.41 0.61
6 -8 4 0.41 0.86
6 -8 5 54.6 3.74
-6 8 -5 54.34 2.89
6 -8 6 0.22 0.98
-6 8 -6 -0.12 0.78
-6 8 -7 3.03 1.11
6 -8 7 5.07 1.46
6 -8 7 3.04 1.3
6 -8 8 12.63 2.03
6 -8 8 10.66 1.96
6 -8 9 6.62 1.81
6 -7 -6 16.86 1.8
6 -7 -5 0.15 0.72
6 -7 -4 45.14 2.88
6 -7 -3 61.22 3.41
6 -7 -2 109.06 4.81
6 -7 -1 9.62 1.38
6 -7 0 82.61 4.78
6 -7 0 91.52 4.13
6 -7 0 89.93 4.3
6 -7 1 7.29 1.42
6 -7 1 4.13 1.08
6 -7 2 1.65 0.93
6 -7 2 0.77 0.82
-6 7 -2 1.15 0.64
6 -7 2 1.55 0.86
6 -7 3 3.37 1.14
6 -7 3 4.99 1.22
6 -7 3 4.73 1.15
-6 7 -3 3.34 0.85
6 -7 4 26.26 2.53
-6 7 -4 32.5 2.12
6 -7 5 0.4 0.96
-6 7 -5 0.36 0.75
6 -7 6 19.49 2.29
-6 7 -6 17.35 1.75
6 -7 7 104.87 5.58
6 -7 7 112.76 5.51
6 -7 8 9.26 1.76
6 -7 8 13.33 2.01
6 -7 9 96.88 5.23
-6 6 8 191.56 7.31
-6 6 7 10.74 1.6
6 -6 -7 16.98 1.71
6 -6 -6 28 2.77
6 -6 -6 27.77 2.11
6 -6 -5 2.72 1.29
6 -6 -5 1.95 0.81
6 -6 -4 111.33 5.5
6 -6 -4 113.11 4.7
6 -6 -3 22.95 1.92
6 -6 -3 25.25 1.88
6 -6 -2 21.91 1.87
6 -6 -2 22.3 1.68
6 -6 -1 4.62 1
6 -6 0 14.84 1.57
6 -6 1 62.48 3.39
6 -6 1 62.93 3.33
-6 6 -1 64.56 2.96
6 -6 2 1.05 0.79
6 -6 2 0.14 0.63
-6 6 -2 0.1 0.61
6 -6 3 -0.32 0.81
-6 6 -3 0.21 0.62
6 -6 3 -0.14 0.77
6 -6 4 75.83 3.9
-6 6 -4 84.69 3.73
-6 6 -5 3.17 0.96
6 -6 6 364.66 11.72
6 -6 7 66.9 3.96
6 -6 8 119.88 5.71
6 -6 9 0.61 1.01
6 -5 -8 12.39 2.1
-6 5 8 12.67 1.65
6 -5 -8 13.13 1.48
6 -5 -7 2.16 1.28
-6 5 7 0.91 0.77
6 -5 -7 1.2 0.7
6 -5 -6 -0.2 0.97
-6 5 6 0.43 0.7
6 -5 -5 3.81 1.22
-6 5 5 4.62 1.07
6 -5 -4 81.19 4.42
6 -5 -3 8.62 1.53
6 -5 -3 8.75 1.14
6 -5 -3 8.23 1.09
6 -5 -2 24.29 2.38
6 -5 -2 29.69 2.01
6 -5 -2 26.26 1.9
6 -5 -2 25.39 1.83
6 -5 -1 79.16 4.33
6 -5 -1 74.64 3.46
6 -5 -1 77.71 3.57
6 -5 0 393.16 12.29
6 -5 0 386.75 11.44
-6 5 0 419.71 11.97
6 -5 1 0.32 0.7
6 -5 1 -0.13 0.65
-6 5 -1 0.1 0.56
6 -5 1 0.12 0.52
-6 5 -1 -0.15 0.78
-6 5 -2 0.31 0.62
6 -5 2 0.16 0.71
6 -5 2 -0.15 0.68
6 -5 2 0.24 0.56
-6 5 -2 0.16 0.66
6 -5 3 81.16 4.18
6 -5 3 78.78 4.11
6 -5 3 82.72 3.82
-6 5 -3 81.12 3.61
-6 5 -3 91.36 4.48
-6 5 -4 222.31 7.33
6 -5 4 213.49 8.02
6 -5 4 230.12 7.56
6 -5 5 231.01 8.4
-6 5 -5 213.81 8.22
6 -5 6 0.2 0.7
6 -5 6 0.64 0.8
-6 5 -6 0.79 0.94
6 -5 7 17.28 1.94
-6 5 -7 18.76 2.25
6 -5 8 -0.18 0.85
6 -5 9 18.23 2.17
6 -4 -9 9.77 1.91
-6 4 9 11.03 1.52
6 -4 -8 12.6 1.99
-6 4 8 13.26 1.59
6 -4 -7 18.15 2.15
-6 4 7 17.63 1.77
6 -4 -6 1.1 0.93
6 -4 -5 232.11 8.35
6 -4 -4 194.43 7.3
-6 4 4 188.06 6.53
6 -4 -4 193.79 5.91
6 -4 -3 33.57 2.64
6 -4 -3 31.33 1.92
6 -4 -2 713.79 19.26
6 -4 -2 700.73 17.9
-6 4 2 716.37 18.32
6 -4 -2 681.13 17.88
6 -4 -1 377.73 11.78
6 -4 -1 373.06 10.71
-6 4 1 384.75 11.1
6 -4 0 255.83 8.42
6 -4 0 234.05 7.77
6 -4 0 252.37 7.29
6 -4 0 239.77 7.5
6 -4 0 245.44 7.75
-6 4 0 246.15 8.17
-6 4 0 244.72 7.54
-6 4 -1 40.09 2.31
6 -4 1 41.45 2.71
6 -4 1 37.94 2.5
6 -4 1 41.49 2.22
6 -4 1 38.23 2.27
-6 4 -1 44.35 2.83
6 -4 2 14.12 1.58
6 -4 2 11.13 1.42
6 -4 2 13.21 1.33
6 -4 2 11.38 1.21
-6 4 -2 11.35 1.29
-6 4 -2 9.48 1.43
6 -4 3 141.35 5.76
6 -4 3 140.39 5.75
6 -4 3 138.61 5.11
-6 4 -3 140.38 5.23
6 -4 4 7.85 1.35
6 -4 4 6.88 1.16
-6 4 -4 9.79 1.54
6 -4 5 309.24 10.41
6 -4 5 318.27 9.52
-6 4 -5 313.36 10.57
6 -4 6 0.76 0.78
6 -4 6 0.88 0.74
-6 4 -6 1.16 1.02
6 -4 7 0.47 0.76
-6 4 -7 0.2 0.94
6 -4 8 60.99 3.57
-6 4 -8 58.96 3.9
-6 4 -9 8.62 1.75
-6 3 10 52.75 3.26
6 -3 -10 57.58 4.07
-6 3 9 31.73 2.42
6 -3 -9 37.03 3.06
6 -3 -8 6.42 1.53
-6 3 8 9.27 1.31
6 -3 -7 5.01 1.26
6 -3 -6 4.64 1.18
6 -3 -5 10.93 1.56
-6 3 5 9.31 1.21
6 -3 -5 9.76 0.9
6 -3 -4 2092.95 49.14
-6 3 4 1965.95 48.1
6 -3 -4 2032.45 47.35
-6 3 4 2045.97 47.88
6 -3 -3 1.01 0.95
6 -3 -3 0.7 0.72
-6 3 3 0.41 0.59
6 -3 -3 1.13 0.62
-6 3 3 0.93 0.59
6 -3 -2 423 12.47
6 -3 -2 426.28 11.14
6 -3 -2 418.25 11.38
-6 3 2 426.64 11.85
6 -3 -2 408.71 11.47
-6 3 2 416.05 11.87
-6 3 1 236.25 7.53
6 -3 -1 223.39 7.88
6 -3 -1 226.72 6.72
6 -3 -1 239.63 7.24
-6 3 1 241.64 7.71
-6 3 0 64.94 3.28
6 -3 0 70.25 3.54
6 -3 0 71.27 2.83
6 -3 0 63.87 3.12
-6 3 0 71.98 3.57
-6 3 0 63.19 3.04
-6 3 -1 27.4 2.09
6 -3 1 24.88 2.03
-6 3 -1 23.31 1.76
6 -3 1 24.94 1.58
-6 3 -1 24.12 2.08
6 -3 2 5.63 0.83
-6 3 -2 4.65 0.96
6 -3 2 5.57 1.06
6 -3 2 5.8 0.89
-6 3 -2 5.89 1.22
6 -3 3 274.28 8.98
-6 3 -3 276.12 8.52
6 -3 3 267.39 8.05
6 -3 4 210.98 7.69
6 -3 4 217.41 6.84
-6 3 -4 210.49 7.93
6 -3 5 97.77 4.74
6 -3 5 97.4 4.16
6 -3 5 99.75 4.04
-6 3 -5 87.12 4.71
6 -3 6 5.44 1.13
-6 3 -6 4.04 1.25
6 -3 7 29.33 2.25
-6 3 -7 23.42 2.42
-6 3 -8 0.21 0.94
6 -2 -11 58.65 4.21
-6 2 10 32.42 2.42
6 -2 -10 34.3 3
6 -2 -9 1.75 0.99
-6 2 9 2.45 0.95
6 -2 -8 13.6 1.9
-6 2 7 39.98 2.45
6 -2 -7 41.98 2.9
6 -2 -6 108.04 4.88
-6 2 6 113.99 4.45
6 -2 -5 18.7 1.89
-6 2 5 20.92 1.65
6 -2 -5 18.73 1.27
-6 2 5 21.62 1.47
6 -2 -4 49.13 2.92
6 -2 -4 49.98 2.23
-6 2 4 47.11 2.52
-6 2 4 49.22 2.51
-6 2 4 46.57 2.66
6 -2 -3 1234.75 29.27
6 -2 -3 1115.76 27.91
6 -2 -3 1157.23 28.41
-6 2 3 1181.46 28.29
6 -2 -3 1173.57 27.99
-6 2 3 1132.64 28.48
-6 2 3 1179.22 28.66
6 -2 -2 1.65 0.72
-6 2 2 3.45 0.83
6 -2 -2 2.71 0.59
6 -2 -2 2.72 1.01
6 -2 -2 2.38 0.63
-6 2 2 2.51 0.75
-6 2 1 0.11 0.6
6 -2 -1 0.52 0.64
6 -2 -1 -0.13 0.36
-6 2 1 -0.2 0.5
6 -2 -1 0.28 0.5
-6 2 1 -0.12 0.56
-6 2 0 3.86 0.93
6 -2 0 3.56 0.79
6 -2 0 4.05 0.91
6 -2 0 3.53 0.62
6 -2 0 4.15 0.84
-6 2 0 3.72 0.9
-6 2 0 2.33 0.76
-6 2 -1 49.19 2.76
6 -2 1 46.95 2.71
6 -2 1 46.35 2.72
6 -2 1 44.5 2.06
-6 2 -1 49.65 2.64
6 -2 1 41.7 2.43
-6 2 -1 42.46 2.79
-6 2 -2 338.92 10.62
6 -2 2 343.45 10.49
6 -2 2 343.74 10.59
6 -2 2 360.05 9.4
-6 2 -2 352.04 10.24
6 -2 3 6.39 1.14
6 -2 3 7.19 0.91
-6 2 -3 6.33 1.29
6 -2 4 11.02 1.47
6 -2 4 8.71 1.11
6 -2 4 9.16 1.03
-6 2 -4 10.17 1.55
6 -2 5 264.46 7.9
6 -2 5 241.96 7.49
-6 2 -5 246.69 8.92
6 -2 6 118.93 4.72
-6 2 -6 128.21 5.85
-6 2 -7 11.85 1.81
-6 2 -8 17.69 2.21
-6 2 -9 10.94 1.94
-6 1 11 75.17 3.93
6 -1 -11 71.32 4.41
6 -1 -10 22.38 2.39
6 -1 -9 257.55 9.01
-6 1 8 67.85 3.3
6 -1 -8 66.38 3.73
-6 1 7 207.32 6.72
-6 1 7 199.96 5.72
6 -1 -7 211.31 7.34
6 -1 -6 0.94 0.72
-6 1 6 0.9 0.61
6 -1 -6 1.82 0.57
-6 1 6 1.67 0.57
6 -1 -5 279.9 8.95
-6 1 5 281.85 8.39
6 -1 -5 303.03 8.06
-6 1 5 289.88 8.27
-6 1 5 294.57 8.8
6 -1 -4 790.38 20.23
-6 1 4 783.37 19.52
6 -1 -4 773.22 19.26
-6 1 4 772.58 19.65
-6 1 4 796 19.88
6 -1 -4 779.28 19.65
6 -1 -3 6.71 0.87
-6 1 3 7.42 1.03
6 -1 -3 4.89 0.98
-6 1 3 5.06 0.77
6 -1 -3 5.51 0.95
6 -1 -3 5.5 0.81
-6 1 3 6.35 0.97
6 -1 -2 18.26 1.53
6 -1 -2 19.28 1.25
6 -1 -2 14.17 1.51
6 -1 -2 18.91 1.41
-6 1 2 19.72 1.63
-6 1 2 16.85 1.48
6 -1 -2 15.32 1.44
6 -1 -1 0.4 0.57
-6 1 1 0.3 0.58
6 -1 -1 0.4 0.35
6 -1 -1 -0.33 0.52
-6 1 1 -0.3 0.54
6 -1 -1 0.37 0.48
-6 1 1 0.84 0.56
-6 1 0 344.09 9.67
6 -1 0 320.94 9.6
6 -1 0 331.39 9.67
-6 1 0 327.68 9.57
6 -1 0 322.33 8.53
6 -1 0 330.52 9.44
-6 1 0 337.52 10.05
-6 1 -1 29.23 2.09
6 -1 1 26.53 1.95
6 -1 1 27.21 1.9
6 -1 1 28.5 2.11
-6 1 -1 31.79 2.08
6 -1 1 26.39 1.39
-6 1 -1 28.58 2.22
-6 1 -2 12.49 1.58
6 -1 2 10.98 1.32
6 -1 2 14.22 1.55
6 -1 2 12.52 0.95
-6 1 -2 11.04 1.33
6 -1 3 0.69 0.72
6 -1 3 1.45 0.49
-6 1 -3 0.16 0.72
6 -1 4 39.65 2.13
6 -1 4 40.08 2.06
-6 1 -4 39.7 2.89
6 -1 5 1.49 0.63
6 -1 5 1.4 0.69
-6 1 -5 0.18 0.87
-6 1 -6 106.82 5.27
-6 1 -7 1.81 1.15
-6 1 -8 37.99 3.13
-6 1 -9 16.34 2.25
6 0 -12 0.22 1.15
6 0 -11 129.06 5.99
6 0 -10 24.95 2.38
-6 0 9 117 4.75
6 0 -9 117.66 5.17
-6 0 8 25.91 1.93
6 0 -8 26.29 2.2
-6 0 7 126.03 4.71
-6 0 7 128.12 4.15
6 0 -7 129.76 5.13
6 0 -6 749.49 19.48
-6 0 6 746.59 18.94
6 0 -6 763.79 18.49
-6 0 6 751.8 18.57
-6 0 6 721.33 19.11
6 0 -5 119.03 4.61
-6 0 5 122.89 4.24
6 0 -5 115.73 4.1
-6 0 5 114.49 4.16
6 0 -5 115.59 4.46
-6 0 5 115 4.33
6 0 -4 24.88 1.83
-6 0 4 26.26 1.59
6 0 -4 24.53 1.59
-6 0 4 21.8 1.65
6 0 -4 22.91 1.62
-6 0 4 24.17 1.68
6 0 -3 152.66 5.39
-6 0 3 147.51 4.78
6 0 -3 154.64 5.08
-6 0 3 153.48 5.27
6 0 -3 146.33 5.28
-6 0 3 151.71 5.07
6 0 -3 151.05 4.89
6 0 -2 1.59 0.59
6 0 -2 2.25 0.53
-6 0 2 4.15 0.79
6 0 -2 3.23 0.7
-6 0 2 2.53 0.51
6 0 -2 4.16 0.82
-6 0 2 2.9 0.72
-6 0 1 65.18 2.92
6 0 -1 60.86 2.84
6 0 -1 62.51 2.32
6 0 -1 62.24 2.92
6 0 -1 56.88 2.81
-6 0 1 60.86 3.09
6 0 -1 68.93 3.02
-6 0 0 130.62 4.78
6 0 0 131.63 4.73
6 0 0 127.43 3.8
6 0 0 131.49 4.87
6 0 0 127.79 4.73
-6 0 0 125.07 5.01
6 0 0 134.06 4.65
-6 0 -1 202.26 6.95
6 0 1 207.51 6.8
6 0 1 202.1 6.94
6 0 1 216.33 5.6
6 0 1 206.13 6.44
-6 0 -2 12.74 1.46
6 0 2 9.8 1.23
6 0 2 11.73 0.8
-6 0 -2 9.49 1.38
6 0 2 13.42 1.19
6 0 3 23.71 1.42
6 0 3 22.04 1.17
-6 0 -3 23.87 2.21
6 0 3 24.43 1.58
6 0 4 2.7 0.62
6 0 4 2.23 0.56
-6 0 -4 2.22 1.06
-6 0 -5 2.38 1.02
-6 0 -6 46.09 3.32
-6 0 -7 30.38 2.78
-6 0 -8 6.93 1.5
6 1 -12 96.85 5.09
6 1 -11 14.54 1.89
-6 -1 11 13.63 1.68
-6 -1 10 15.75 1.66
6 1 -10 14.08 1.76
-6 -1 9 1 0.73
6 1 -9 0.43 0.78
-6 -1 8 449.95 12.27
6 1 -8 427.65 12.47
-6 -1 7 122.38 4.55
-6 -1 7 121.8 4.09
6 1 -7 122.93 4.78
6 1 -6 54.92 2.83
-6 -1 6 58.24 2.69
6 1 -6 55.15 2.54
-6 -1 6 57.11 2.55
6 1 -5 54.9 2.74
-6 -1 5 54.16 2.47
6 1 -5 53.11 2.59
-6 -1 5 54.97 2.6
6 1 -5 56.45 2.79
-6 -1 5 55.45 2.56
6 1 -4 57.19 2.78
-6 -1 4 63.55 2.59
6 1 -4 56.7 2.87
6 1 -4 64.74 2.91
-6 -1 4 61.74 2.86
6 1 -4 68.02 2.9
-6 -1 4 60.59 2.67
6 1 -3 6 0.79
6 1 -3 5.47 0.91
-6 -1 3 4.71 0.77
6 1 -3 4.62 0.76
-6 -1 3 5.5 0.68
6 1 -3 5.57 0.88
6 1 -3 4.62 0.83
-6 -1 3 5.94 0.91
6 1 -2 2.25 0.51
6 1 -2 2.69 0.69
-6 -1 2 2.98 0.65
6 1 -2 2.77 0.62
-6 -1 2 1.98 0.68
-6 -1 2 2.41 0.47
6 1 -2 3.68 0.78
-6 -1 2 3.35 0.74
6 1 -1 53.27 2.04
-6 -1 1 53.98 2.51
-6 -1 1 49.51 2.67
6 1 -1 52.99 2.48
6 1 -1 49.78 2.57
6 1 -1 52.96 2.73
-6 -1 1 52.89 2.83
6 1 -1 49.24 2.53
-6 -1 0 99.64 3.85
6 1 0 86.49 2.83
6 1 0 90.89 3.66
6 1 0 94.97 3.93
-6 -1 0 91.45 3.91
6 1 0 99.78 4.03
-6 -1 0 97.99 4.16
6 1 0 93.41 3.67
-6 -1 -1 140.22 5.14
6 1 1 138.5 3.75
6 1 1 134.62 4.93
6 1 1 131.45 5.13
-6 -1 -1 131.94 5.11
6 1 1 143.38 4.77
-6 -1 -2 85.51 3.71
6 1 2 80.27 2.37
6 1 2 82.87 2.7
-6 -1 -2 78.11 3.95
6 1 2 77.64 3.16
6 1 3 9.73 1
6 1 3 9.27 0.74
-6 -1 -3 8.91 1.34
6 1 4 25.23 1.41
-6 -1 -4 24.04 2.21
-6 -1 -5 90.46 4.68
-6 -1 -6 1.37 1.01
-6 -1 -7 44.21 3.43
-6 -1 -8 14.86 2.11
6 2 -13 38.73 3.23
6 2 -12 29.16 2.6
-6 -2 11 4.98 1.19
-6 -2 10 20.89 1.87
6 2 -10 20.52 1.96
-6 -2 9 5.98 1.05
6 2 -9 5.78 1.08
-6 -2 8 108.49 4.41
-6 -2 8 119.42 3.94
6 2 -8 111.58 4.48
6 2 -7 169.21 5.74
-6 -2 7 168.26 5.69
-6 -2 7 173.49 5.35
6 2 -6 48.61 2.48
-6 -2 6 50.74 2.46
-6 -2 6 51.78 2.44
6 2 -6 52.16 2.87
6 2 -5 57.1 2.62
-6 -2 5 56.65 2.47
6 2 -5 56.98 2.8
-6 -2 5 56.48 2.66
6 2 -5 55.91 2.79
-6 -2 5 56.71 2.44
6 2 -4 22.44 1.58
-6 -2 4 24.21 1.43
6 2 -4 21.61 1.7
6 2 -4 26.39 1.88
-6 -2 4 23.11 1.65
6 2 -4 24.57 1.64
-6 -2 4 24.5 1.42
6 2 -3 84.66 3.61
6 2 -3 85.42 3.21
-6 -2 3 90.65 3.05
6 2 -3 84.81 3.74
-6 -2 3 91.56 3.72
6 2 -3 91.67 3.31
6 2 -3 86.3 3.77
-6 -2 3 92.41 3.23
-6 -2 2 63.3 2.56
6 2 -2 63.67 2.56
6 2 -2 54.36 2.64
-6 -2 2 60.55 2.23
6 2 -2 61.49 3.07
-6 -2 2 60.95 3.02
6 2 -2 60.78 2.37
-6 -2 2 57.38 2.95
6 2 -2 60.1 2.95
-6 -2 1 300.61 8.21
-6 -2 1 278.58 8.65
6 2 -1 297.28 8.18
6 2 -1 280.73 8.46
6 2 -1 282.72 8.85
-6 -2 1 291.53 8.9
6 2 -1 293.79 7.54
6 2 -1 291.31 8.55
-6 -2 0 233.82 7.21
6 2 0 242.83 7.08
6 2 0 234.3 7.41
-6 -2 0 221.76 7.42
6 2 0 237.84 6.03
6 2 0 239.85 7.22
6 2 1 2.87 0.3
-6 -2 -1 3.3 0.87
6 2 1 2.35 0.68
-6 -2 -1 3.83 0.88
6 2 1 3.24 0.35
-6 -2 -1 3.45 0.93
-6 -2 -2 24.77 1.86
-6 -2 -2 20.53 1.97
6 2 2 23.04 1.57
-6 -2 -3 15.97 1.79
-6 -2 -4 16.7 1.91
-6 -2 -5 74.46 4.16
-6 -2 -6 36.09 2.94
-6 -2 -7 20.27 2.33
-6 -3 12 68.44 3.82
-6 -3 11 47.13 2.99
6 3 -11 49.59 3.06
-6 -3 10 39.8 2.63
6 3 -10 33.24 2.36
-6 -3 9 5.61 1.18
-6 -3 9 7.06 1.11
6 3 -9 5.68 1.06
-6 -3 8 53.73 3.17
-6 -3 8 54.4 2.87
-6 -3 8 57.16 2.53
6 3 -8 50.5 2.66
-6 -3 7 220.81 7.59
6 3 -7 215.65 6.67
-6 -3 7 222.42 6.9
-6 -3 7 224.12 6.7
6 3 -6 18.75 1.36
-6 -3 6 16.15 1.33
-6 -3 6 14.88 1.6
-6 -3 6 17.46 1.41
6 3 -6 17.09 1.59
-6 -3 5 6.91 0.8
6 3 -5 7.06 0.88
-6 -3 5 7.97 1
6 3 -5 8.75 1.05
-6 -3 4 52.83 2.91
6 3 -4 55.96 2.21
-6 -3 4 55.29 2.23
6 3 -4 50.12 2.81
-6 -3 4 58.06 2.83
6 3 -4 53.71 2.53
6 3 -4 53.99 2.74
-6 -3 4 56.11 2.14
6 3 -3 345.17 9.04
-6 -3 3 353.83 8.94
6 3 -3 344.32 10.35
-6 -3 3 368.99 10.24
6 3 -3 366 9.4
6 3 -3 328.14 10.19
-6 -3 3 345.92 9.01
-6 -3 2 42.6 1.86
6 3 -2 42.29 1.86
6 3 -2 38.05 2.09
-6 -3 2 40.67 1.6
-6 -3 2 43.6 2.51
6 3 -2 38.53 1.73
6 3 -2 39.7 2.39
-6 -3 2 34.73 2.25
-6 -3 1 33.85 1.77
-6 -3 1 29.59 2.05
6 3 -1 34.49 2.03
6 3 -1 30.94 1.28
-6 -3 1 33.02 2.23
6 3 -1 30.72 2.04
6 3 0 3.05 0.76
-6 -3 0 3.32 0.84
-6 -3 0 3.17 0.93
-6 -3 -1 168.5 5.62
-6 -3 -1 164.08 6.26
6 3 1 169.88 5.58
-6 -3 -1 173.81 6.09
-6 -3 -2 22.7 1.74
-6 -3 -2 20.47 1.98
-6 -3 -3 30.05 2.44
-6 -3 -4 -0.35 0.79
-6 -3 -5 8.76 1.73
-6 -3 -6 111.88 5.55
6 3 7 1.04 1.1
-6 -3 -7 0.21 1.08
-6 -4 12 -0.35 1.04
-6 -4 11 18.16 2.01
-6 -4 11 14.19 1.74
-6 -4 10 -0.17 0.84
-6 -4 10 0.29 0.7
-6 -4 9 148.66 5.54
-6 -4 9 145.28 4.81
6 4 -9 137.86 4.97
-6 -4 9 130.03 5.65
-6 -4 8 172.2 6
-6 -4 8 176.56 5.68
-6 -4 8 166.63 6.45
6 4 -8 168.79 5.48
-6 -4 7 3.91 1
-6 -4 7 4.18 0.86
6 4 -7 4.22 0.74
-6 -4 7 3.5 0.77
6 4 -6 21.28 1.31
-6 -4 6 21.9 1.53
6 4 -6 22.46 1.78
-6 -4 6 19.36 1.62
6 4 -5 32.81 1.47
-6 -4 5 35.04 1.81
6 4 -5 31.84 2
-6 -4 5 35.55 2.21
-6 -4 5 37.38 2.47
6 4 -4 2.77 0.8
-6 -4 4 3.89 0.93
-6 -4 4 3.18 0.41
-6 -4 4 3.12 0.53
6 4 -4 2.81 0.4
6 4 -4 3.45 0.69
-6 -4 4 3.01 0.78
6 4 -3 387.16 10.8
6 4 -3 425.07 10.04
-6 -4 3 414.81 10.14
6 4 -3 410.91 10.53
-6 -4 3 416.03 11.75
-6 -4 3 402.11 9.96
-6 -4 3 392.15 11.61
6 4 -2 0.36 0.67
-6 -4 2 0.11 0.54
-6 -4 2 -0.05 0.35
6 4 -2 0.25 0.51
-6 -4 2 -0.03 0.23
-6 -4 2 -0.11 0.67
6 4 -2 0.04 0.32
-6 -4 2 -0.13 0.62
-6 -4 1 327.75 8.48
-6 -4 1 310.15 9.3
6 4 -1 308.77 9.02
-6 -4 1 292.44 9.55
6 4 -1 328.04 9.47
-6 -4 0 237.44 6.99
-6 -4 0 239.35 7.58
6 4 0 233.66 7.39
6 4 1 2.86 0.88
-6 -4 -1 2.64 0.72
-6 -4 -1 3.77 1.02
-6 -4 -1 2.09 0.85
-6 -4 -2 27.74 2.3
-6 -4 -3 39.29 2.87
-6 -4 -4 63.86 3.82
-6 -4 -5 40.65 3.1
6 4 6 13.83 1.89
-6 -4 -6 13.86 2.01
-6 -5 13 10.47 1.81
-6 -5 12 29.99 2.61
-6 -5 12 24.51 2.46
-6 -5 11 98.3 4.72
-6 -5 11 100.6 4.94
-6 -5 10 200.15 7.23
-6 -5 10 202.66 7.6
-6 -5 9 43.52 2.78
-6 -5 9 47.37 2.58
-6 -5 9 52.66 3.27
-6 -5 8 199.39 6.62
-6 -5 8 185.85 7.12
-6 -5 7 221.47 6.96
6 5 -7 219.56 6.83
-6 -5 7 211.02 7.09
-6 -5 6 19.3 1.47
6 5 -6 22.21 1.72
-6 -5 6 22.29 1.86
-6 -5 6 20.38 1.91
-6 -5 5 216.84 6.38
6 5 -5 214.02 6.76
-6 -5 5 226.68 7.45
-6 -5 4 31.85 1.53
6 5 -4 31.36 1.76
-6 -5 4 30.34 2.22
-6 -5 4 33.59 2.32
6 5 -3 71.6 2.89
-6 -5 3 73.62 2.32
-6 -5 3 71.23 3.61
-6 -5 3 66.32 3.39
6 5 -2 593.16 15.04
-6 -5 2 585.04 16.13
-6 -5 2 574.63 15.52
-6 -5 2 597.84 15.78
-6 -5 1 170.91 5.89
-6 -5 1 178.03 6.01
6 5 -1 164.78 6.01
6 5 0 11.39 1.34
-6 -5 0 13.1 1.47
-6 -5 0 10.78 1.48
-6 -5 -1 56.04 3.31
-6 -5 -1 50.69 2.92
-6 -5 -2 11.75 1.54
-6 -5 -2 14.42 1.73
-6 -5 -3 120.76 5.42
-6 -5 -4 14.36 1.95
-6 -5 -5 3.96 1.45
-6 -5 -6 119.05 5.87
-6 -6 12 33.72 2.86
-6 -6 12 30.99 2.69
-6 -6 11 11.24 1.7
-6 -6 11 10.89 1.74
-6 -6 10 8.69 1.39
-6 -6 10 8.29 1.52
-6 -6 9 20.68 2.12
-6 -6 9 22.4 1.93
-6 -6 8 386.8 11.25
-6 -6 8 368.8 11.73
-6 -6 8 375.45 10.99
-6 -6 7 215.49 7.43
-6 -6 7 201.24 7.59
-6 -6 7 223.9 6.96
-6 -6 6 0.18 0.51
-6 -6 6 0.15 0.75
6 6 -6 -0.11 0.65
-6 -6 6 -0.14 0.65
-6 -6 5 136.56 4.49
-6 -6 5 145.15 5.69
-6 -6 5 138.46 5.57
-6 -6 4 255.29 6.82
6 6 -4 251.95 7.13
-6 -6 4 268.31 8.67
-6 -6 4 256.14 8.39
6 6 -3 245.21 7.13
-6 -6 3 264.95 8.64
-6 -6 3 258.03 8.26
-6 -6 2 32.07 2.59
-6 -6 2 30.24 2.11
-6 -6 2 26.02 2.04
-6 -6 1 119.12 4.65
-6 -6 1 122.41 4.75
-6 -6 0 124.02 4.83
-6 -6 0 119.34 5.3
-6 -6 -1 323.96 10.39
-6 -6 -1 313.75 9.67
-6 -6 -2 26.05 2.16
-6 -6 -2 30.86 2.6
-6 -6 -3 0.18 0.95
-6 -6 -4 42.68 3.22
-6 -6 -5 16.9 2.16
-6 -7 12 2.09 1.15
-6 -7 11 123.7 5.83
-6 -7 11 119.06 5.42
-6 -7 10 96.56 4.32
-6 -7 10 89.66 4.77
-6 -7 10 90.17 4.43
-6 -7 9 6.99 1.18
-6 -7 9 5.02 1.24
-6 -7 9 8.18 1.32
-6 -7 8 -0.13 0.68
-6 -7 8 0.62 0.91
-6 -7 7 6.74 1.11
-6 -7 7 7.35 1.34
-6 -7 7 5.7 1.25
-6 -7 6 0.64 0.57
-6 -7 6 1.47 0.86
-6 -7 6 1.13 0.88
-6 -7 5 152.93 4.83
-6 -7 5 159.54 6.3
-6 -7 5 147.59 6.03
-6 -7 4 0.29 0.67
-6 -7 4 1.84 0.96
-6 -7 3 60.07 3.58
-6 -7 3 63.25 3.35
-6 -7 2 84.38 3.72
-6 -7 2 91.63 4.06
-6 -7 1 90.44 3.92
-6 -7 1 100.03 4.77
-6 -7 1 95.23 4.09
-6 -7 0 1.43 0.67
-6 -7 0 2.14 0.93
-6 -7 0 0.87 0.81
-6 -7 -1 217.34 7.35
-6 -7 -1 223.59 8.15
-6 -7 -2 281.65 9.5
-6 -7 -2 255.87 8.61
-6 -7 -3 34.79 2.66
-6 -7 -3 37.37 2.98
-6 -7 -4 3.81 1.34
-6 -8 11 120.4 5.51
-6 -8 10 20.81 2.11
-6 -8 10 27.4 2.36
-6 -8 10 25.9 2.53
-6 -8 9 10.87 1.53
-6 -8 9 12.12 1.63
-6 -8 8 208.87 7.66
-6 -8 8 195.99 6.83
-6 -8 8 189.44 7.63
-6 -8 7 252.11 8.86
-6 -8 7 245.06 8.86
-6 -8 7 249.38 7.78
-6 -8 6 49.99 3.38
-6 -8 6 55.11 3.47
-6 -8 5 89.51 4.64
-6 -8 5 87.5 4.41
-6 -8 4 241.56 8.83
-6 -8 4 256.45 8.6
-6 -8 3 78.59 4.32
-6 -8 3 77.98 3.91
-6 -8 2 2.05 0.81
-6 -8 2 2.05 0.85
-6 -8 1 26.47 2.5
-6 -8 1 23.99 1.91
-6 -8 1 28.98 2.13
-6 -8 0 4.71 1.36
-6 -8 -1 56.03 3.69
-6 -8 -2 3.33 1.28
-6 -9 11 113.47 5.37
-6 -9 10 11.96 1.72
-6 -9 10 8.26 1.6
-6 -9 9 52.32 3.5
-6 -9 9 47.99 3.02
-6 -9 9 45.17 3.44
-6 -9 8 54.04 3.63
-6 -9 8 53.9 3.72
-6 -9 7 51.94 3.57
-6 -9 7 49.55 3.48
-6 -9 6 93.16 4.9
-6 -9 6 83.54 4.57
-6 -9 5 274.27 9.64
-6 -9 5 248.88 9.01
-6 -9 4 29.36 2.68
-6 -9 3 97.96 4.63
-6 -9 2 12.38 1.61
-6 -9 2 14.59 2
-6 -9 1 7.98 1.59
-6 -9 0 13.86 2.05
-6 -10 10 2.95 1.21
-6 -10 9 16.19 2.15
-6 -10 8 15.55 2.19
-6 -10 8 14.07 2.1
-6 -10 7 119.24 5.96
-6 -10 6 58.16 4.02
-6 -10 6 57.44 3.8
-6 -10 5 26.78 2.5
-6 -10 5 22.92 2.56
-6 -10 4 74.73 4.51
-6 -10 4 70.01 4.04
-6 -10 3 1.98 1.08
-6 -11 5 33.61 2.91
-6 -11 4 17.05 2.07
7 -11 2 1.17 1.22
7 -10 -1 2.2 1.15
7 -10 0 83.87 5.33
7 -10 1 8.15 1.83
7 -10 1 4.79 1.38
7 -10 2 31.99 2.77
7 -10 2 29.09 3.04
7 -10 3 6.78 1.7
7 -10 3 7.09 1.58
7 -9 -5 10.54 1.82
7 -9 -4 3.6 1.32
7 -9 -3 6.01 1.49
7 -9 -2 23.74 2.99
7 -9 -2 26.88 2.63
7 -9 -1 68.18 4.82
7 -9 -1 75.39 4.01
7 -9 -1 62.99 4.02
7 -9 0 16.78 2.39
7 -9 0 16.98 2.01
7 -9 0 19.99 2.25
7 -9 1 77.57 4.84
7 -9 1 78.38 4.27
7 -9 1 73.08 4.33
7 -9 2 -0.23 0.98
7 -9 2 -0.57 1.12
7 -9 3 52.14 3.87
7 -9 3 49.9 3.51
7 -9 4 25.66 2.74
7 -9 5 7.32 1.67
7 -8 -6 6.66 1.48
7 -8 -5 66.16 3.95
7 -8 -4 71.23 4.05
7 -8 -3 17.78 2.05
7 -8 -2 1.08 0.95
7 -8 -1 50.63 3.19
7 -8 -1 46.52 3.24
7 -8 0 33.36 2.66
7 -8 0 36 2.83
7 -8 1 47.89 3.56
7 -8 1 40.67 2.98
7 -8 2 27.31 2.74
7 -8 2 30.74 2.66
7 -8 2 29.85 2.6
7 -8 3 62.93 4.12
7 -8 3 61.17 3.89
-7 8 -3 61.42 3.15
7 -8 4 10.81 1.89
-7 8 -4 7.51 1.27
7 -8 5 3.72 1.25
-7 8 -5 2.51 1.01
-7 8 -6 0.14 0.9
7 -8 6 -0.24 1
7 -8 7 28.96 2.84
-7 8 -7 23.58 2.24
7 -7 -6 9.91 1.44
7 -7 -5 5.4 1.66
7 -7 -5 3.5 1.1
7 -7 -4 105.21 5.69
7 -7 -4 98.79 4.71
7 -7 -3 70.22 4.58
7 -7 -3 70.4 3.8
7 -7 -2 30.4 2.42
7 -7 -1 2.72 0.94
7 -7 0 91.46 4.44
7 -7 1 82.16 4.28
7 -7 1 75.63 4.08
7 -7 2 11.75 1.77
-7 7 -2 11.91 1.37
7 -7 2 12.86 1.69
-7 7 -3 92.68 4.05
7 -7 3 85.47 4.67
7 -7 3 90.47 4.54
-7 7 -4 49.72 2.91
-7 7 -5 40.63 2.68
-7 7 -6 13.29 1.71
-7 7 -7 23.65 2.24
7 -7 7 23.91 2.56
7 -7 8 127.18 6.21
7 -6 -7 14.19 2.31
7 -6 -7 13.94 1.68
7 -6 -6 33.48 3.09
7 -6 -6 32.95 2.44
7 -6 -5 -0.45 1.1
7 -6 -5 0.71 0.7
7 -6 -4 33.89 2.95
7 -6 -4 27.8 2.22
7 -6 -3 27.05 2.71
7 -6 -3 20.64 1.94
7 -6 -2 32.54 3
7 -6 -2 32.21 2.38
7 -6 -1 52.02 3.7
7 -6 -1 50.56 3.01
7 -6 0 47.45 3.4
7 -6 0 47.74 3.06
7 -6 1 226.07 8.31
7 -6 1 222.79 7.92
-7 6 -1 228.56 7.24
7 -6 2 38.25 3.01
7 -6 2 38.53 2.97
7 -6 2 39.61 2.7
-7 6 -2 40.7 2.54
-7 6 -3 2.39 0.93
7 -6 3 1.37 0.9
7 -6 3 0.19 0.9
7 -6 3 0.92 0.86
7 -6 4 3.87 1.22
7 -6 4 4.76 1.18
-7 6 -4 7.29 1.31
7 -6 5 13.11 1.93
-7 6 -5 14.84 1.73
-7 6 -6 62.76 3.58
7 -6 6 59 4.06
7 -6 6 64.95 3.97
7 -6 7 111.17 5.89
7 -6 7 117.25 5.57
7 -6 8 1.81 1.12
7 -5 -8 12.16 2.18
7 -5 -8 9.55 1.41
7 -5 -7 18.49 2.43
-7 5 7 20.94 2.05
7 -5 -6 -0.22 1.1
7 -5 -5 29.18 2.74
7 -5 -4 6.63 1.57
7 -5 -3 25.07 2.54
7 -5 -2 4.72 1.3
7 -5 -2 4.14 0.9
7 -5 -1 0.4 0.89
-7 5 1 0.76 0.83
7 -5 0 13.1 1.8
7 -5 0 9.89 1.42
7 -5 0 12.18 1.44
-7 5 0 12.95 1.64
7 -5 1 233.52 8.42
7 -5 1 235.1 8.16
7 -5 1 218.28 7.55
-7 5 -1 237.3 8.41
-7 5 -1 237.36 7.56
-7 5 -2 9.21 1.29
7 -5 2 12.06 1.74
7 -5 2 10.45 1.59
7 -5 2 13.01 1.49
-7 5 -2 13.16 1.76
7 -5 3 6.86 1.4
7 -5 3 6.98 1.42
-7 5 -3 4.46 1.1
7 -5 3 6.37 1.17
-7 5 -3 5.99 1.37
7 -5 4 0.19 0.91
-7 5 -4 0.14 0.85
7 -5 4 -0.29 0.83
-7 5 -5 91.02 4.41
7 -5 5 95.12 5.06
-7 5 -5 92.1 5.04
7 -5 6 1.93 1.13
7 -5 6 0.51 0.97
-7 5 -6 2.22 1.17
7 -5 7 3.2 1.21
-7 5 -7 3.23 1.34
7 -4 -9 12.41 2.12
7 -4 -8 46.08 3.53
7 -4 -7 8.76 1.71
7 -4 -6 95.45 5.07
-7 4 6 106.19 4.64
7 -4 -5 12.12 1.82
-7 4 5 9.81 1.36
7 -4 -4 185.93 7.44
7 -4 -4 196.1 6.08
7 -4 -3 20.77 2.27
7 -4 -3 20.37 1.63
-7 4 3 22.25 1.85
7 -4 -2 0.57 0.96
-7 4 2 0.28 0.7
7 -4 -1 244.73 8.83
-7 4 1 252.62 8.4
7 -4 0 12.98 1.69
7 -4 0 8.53 1.35
-7 4 0 11.27 1.34
7 -4 0 11.29 1.28
-7 4 0 10.62 1.47
7 -4 1 13.02 1.68
7 -4 1 14.03 1.73
7 -4 1 14.3 1.44
-7 4 -1 13.17 1.45
-7 4 -1 10.85 1.53
7 -4 2 45.13 3.07
-7 4 -2 45.81 2.74
7 -4 2 38.93 2.45
-7 4 -2 45.86 3.17
-7 4 -3 1.75 0.86
7 -4 3 1.94 1
7 -4 3 2.09 0.76
7 -4 4 70.5 4.12
7 -4 4 75.79 3.64
-7 4 -4 73.95 4.35
-7 4 -4 66.75 3.64
7 -4 5 44.88 3.29
7 -4 5 53 3.09
7 -4 5 46.75 2.88
-7 4 -5 49.82 3.6
7 -4 6 58.64 3.88
7 -4 6 58.18 3.38
-7 4 -6 60.59 4.02
-7 4 -7 99.33 5.44
-7 4 -8 24.44 2.75
7 -3 -9 10.71 1.89
7 -3 -8 1.02 1.21
7 -3 -7 1.14 1.12
-7 3 7 1.27 0.86
7 -3 -6 -0.18 1
-7 3 6 1.2 0.78
7 -3 -5 0.69 0.93
-7 3 5 1.27 0.76
-7 3 5 1.41 0.64
7 -3 -4 89.54 4.53
-7 3 4 86.77 3.92
7 -3 -4 90.58 3.53
-7 3 4 88.28 3.85
7 -3 -3 229.35 8.21
7 -3 -3 228.24 6.96
-7 3 3 220.35 7.42
7 -3 -2 20.69 2.16
-7 3 2 21.18 1.93
7 -3 -1 110.47 4.92
-7 3 1 102.94 4.7
7 -3 0 15.77 1.31
7 -3 0 18.07 1.82
-7 3 0 19.75 1.95
-7 3 0 16.91 1.59
7 -3 1 75.28 3.91
-7 3 -1 76.61 3.64
7 -3 1 70.79 3.85
7 -3 1 80.06 3.17
-7 3 -1 76.65 4.11
7 -3 2 12.77 1.61
7 -3 2 12.59 1.64
7 -3 2 13.03 1.25
7 -3 2 15.13 1.4
-7 3 -2 15.13 1.63
-7 3 -2 11.15 1.63
7 -3 3 91.57 4.59
7 -3 3 92.75 3.7
7 -3 3 96.31 3.99
-7 3 -3 95.71 4.37
-7 3 -4 0.89 0.88
7 -3 4 -0.18 0.81
7 -3 4 0.47 0.71
-7 3 -4 0.81 1.02
7 -3 5 348.39 11.53
7 -3 5 348.63 10.58
7 -3 5 360.04 10.47
-7 3 -5 358.49 11.97
-7 3 -6 77.52 4.67
-7 3 -7 55.89 3.92
-7 3 -8 13.76 2.15
7 -2 -10 6.08 1.64
7 -2 -9 16.39 2.14
-7 2 9 15.61 1.77
7 -2 -8 19.41 2.19
-7 2 8 21.16 1.92
7 -2 -7 6.06 1.45
-7 2 7 6.51 1.11
7 -2 -6 -0.49 1.02
-7 2 6 -0.37 0.67
-7 2 6 -0.09 0.49
7 -2 -5 88.18 4.42
-7 2 5 90.1 3.88
7 -2 -5 89.06 3.43
-7 2 5 85.36 3.66
-7 2 4 58.61 2.94
7 -2 -4 54.47 2.6
-7 2 4 51.37 2.88
7 -2 -3 130.74 5.53
7 -2 -3 125.81 4.53
-7 2 3 123.28 4.99
7 -2 -2 0.39 0.51
7 -2 -2 1.23 0.84
7 -2 -2 0.5 0.57
-7 2 2 -0.41 0.69
7 -2 -1 0.43 0.43
7 -2 -1 0.38 0.61
7 -2 -1 0.96 0.74
-7 2 1 0.84 0.74
-7 2 1 0.29 0.69
-7 2 0 32.85 2.24
7 -2 0 33.27 2.4
7 -2 0 32.19 2.36
7 -2 0 32.15 1.74
-7 2 0 31.63 2.48
7 -2 1 1 0.68
7 -2 1 0.59 0.69
-7 2 -1 1.14 0.64
7 -2 1 1.57 0.55
-7 2 -1 -0.17 0.78
-7 2 -2 0.27 0.64
7 -2 2 0.45 0.6
7 -2 2 -0.32 0.8
7 -2 2 0.28 0.44
7 -2 2 -0.19 0.49
-7 2 -2 0.53 0.9
7 -2 3 9.67 1.47
-7 2 -3 11.73 1.49
7 -2 3 8.36 1.1
-7 2 -3 6.78 1.42
7 -2 4 25.1 2.32
7 -2 4 24.39 1.87
7 -2 4 26.88 1.87
-7 2 -4 29.66 2.64
7 -2 5 235.52 7.31
-7 2 -5 218.12 8.66
-7 2 -6 57.24 3.94
-7 2 -7 31.12 2.99
-7 2 -8 -0.7 1.21
7 -1 -11 0.44 1.15
-7 1 10 134.44 5.6
7 -1 -10 149.88 6.46
7 -1 -9 4.37 1.29
-7 1 9 6.55 1.21
7 -1 -8 59.32 3.61
-7 1 8 63.53 3.27
7 -1 -7 75.84 4
-7 1 7 76.25 3.56
7 -1 -6 52.49 3.18
-7 1 6 47.98 2.68
-7 1 6 50.27 2.56
7 -1 -5 -0.29 0.79
-7 1 5 0.11 0.59
7 -1 -5 -0.09 0.5
-7 1 5 -0.33 0.66
7 -1 -4 589.03 15.96
-7 1 4 561.92 15.02
7 -1 -4 572.31 14.93
-7 1 4 576.18 15.45
-7 1 4 574.4 15.38
7 -1 -3 396.76 10.29
7 -1 -3 363.58 11.15
-7 1 3 361.58 10.24
7 -1 -3 359.44 10.33
-7 1 3 362.03 10.87
-7 1 3 368.2 10.63
7 -1 -2 29.24 2.19
7 -1 -2 32.82 1.79
-7 1 2 34.62 2.41
-7 1 2 28.58 2.04
7 -1 -1 3.62 0.64
-7 1 1 1.97 0.86
7 -1 -1 3.91 0.85
7 -1 -1 2.23 0.7
-7 1 1 2.07 0.86
-7 1 1 3.8 1.02
-7 1 0 14.6 1.54
7 -1 0 14.41 1.06
-7 1 0 15.75 1.63
7 -1 0 11.17 1.44
7 -1 0 13.02 1.45
-7 1 0 14.34 1.66
7 -1 1 0.28 0.35
7 -1 1 0.15 0.7
7 -1 1 0.41 0.54
-7 1 -1 0.65 0.78
-7 1 -1 0.17 0.7
7 -1 2 0.59 0.68
7 -1 2 0.46 0.39
-7 1 -2 0.41 0.64
7 -1 3 115.56 4.33
-7 1 -3 100.41 4.69
7 -1 3 119.1 5.08
7 -1 3 109.11 4.05
-7 1 -3 94.95 5.04
7 -1 4 29.67 1.86
-7 1 -4 24.33 2.47
-7 1 -5 116.09 5.74
-7 1 -6 5.29 1.56
-7 1 -7 5.75 1.51
-7 1 -8 6.18 1.76
7 0 -11 24.76 2.61
-7 0 10 32.84 2.46
7 0 -10 33.36 2.73
-7 0 9 86.74 4.03
7 0 -9 91.66 4.52
7 0 -8 12.02 1.56
-7 0 8 12.96 1.44
7 0 -7 51.75 3.08
-7 0 7 51.08 2.72
-7 0 7 46.6 2.41
7 0 -6 60.49 3.23
-7 0 6 60.48 2.89
7 0 -6 51.4 2.6
-7 0 6 55.44 2.77
-7 0 5 7.04 1.08
7 0 -5 5.53 1.16
-7 0 5 5.26 0.92
7 0 -5 7.33 1.02
-7 0 5 5.29 0.96
7 0 -4 32.42 2.33
-7 0 4 31.6 1.92
7 0 -4 30.19 2.02
-7 0 4 30.78 2.15
7 0 -4 31.86 2
-7 0 4 31.48 2.03
7 0 -3 245.33 7.68
-7 0 3 229.98 6.88
7 0 -3 222.01 7.23
-7 0 3 223.37 7.52
-7 0 3 230.82 7.2
7 0 -3 234.29 6.93
7 0 -2 0.29 0.44
-7 0 2 0.72 0.63
7 0 -2 0.55 0.52
-7 0 2 1.07 0.7
-7 0 1 98.66 4.04
7 0 -1 98.13 3.32
7 0 -1 97.57 4.06
7 0 -1 91.94 4.06
-7 0 1 101.37 4.48
-7 0 0 33.27 2.22
7 0 0 31.94 1.55
7 0 0 33.44 2.21
7 0 0 32.11 2.32
-7 0 0 35.68 2.53
-7 0 -1 99.04 4.25
7 0 1 88.06 4.01
7 0 1 87.18 2.89
7 0 1 83.44 4.14
-7 0 -1 82.82 4.32
7 0 1 89.34 3.74
7 0 2 80.2 3.89
7 0 2 80.74 3.47
-7 0 -3 1.88 1.08
7 0 4 177.06 5.55
-7 0 -4 166.19 7.13
-7 0 -5 53.29 3.75
-7 0 -6 57.47 4.01
-7 0 -7 1.62 1.18
-7 0 -8 16.52 2.43
7 1 -12 55.71 3.76
7 1 -11 6.19 1.5
-7 -1 11 7.23 1.32
-7 -1 10 49.63 2.97
7 1 -10 48.78 3.18
-7 -1 9 27.39 2.09
7 1 -9 24.54 2.16
7 1 -8 269.73 8.66
-7 -1 8 264.03 8.27
7 1 -7 43.62 2.71
-7 -1 7 46.44 2.53
-7 -1 7 45.22 2.37
-7 -1 6 0.81 0.6
7 1 -6 0.12 0.72
-7 -1 6 0.96 0.57
7 1 -6 0.83 0.65
-7 -1 6 0.92 0.58
7 1 -5 40.04 2.44
-7 -1 5 37.1 2.09
7 1 -5 41.3 2.39
-7 -1 5 36.74 2.29
-7 -1 5 40.35 2.22
7 1 -4 73.41 3.51
-7 -1 4 80.49 3.15
7 1 -4 76.52 3.54
-7 -1 4 70.73 3.47
7 1 -4 84.99 3.44
-7 -1 4 79.87 3.27
7 1 -3 50.94 2.69
-7 -1 3 60.22 2.53
-7 -1 3 56.88 3.04
7 1 -3 55.47 2.55
-7 -1 3 53.89 2.65
-7 -1 2 218.36 6.75
7 1 -2 210.81 6.79
7 1 -2 212.47 6.99
-7 -1 2 215.66 7.35
-7 -1 2 211.66 7.24
7 1 -2 232.67 6.42
-7 -1 1 28.62 2.14
-7 -1 1 29.89 1.98
7 1 -1 27.12 1.86
7 1 -1 28.48 2.09
-7 -1 1 27.59 2.19
7 1 -1 28.76 1.52
7 1 0 206.84 5.84
-7 -1 0 224.93 7.07
7 1 0 226.48 7.1
-7 -1 0 218.32 7.32
7 1 0 214.19 7.29
-7 -1 0 220.93 7.64
-7 -1 -1 50.51 2.92
7 1 1 48.31 2.71
-7 -1 -1 41.3 2.71
7 1 1 46.74 2.54
7 1 2 9.6 1.14
-7 -1 -2 9.01 1.37
-7 -1 -2 7.82 1.54
-7 -1 -3 311.95 10.52
-7 -1 -4 3.62 1.25
-7 -1 -5 22.3 2.46
-7 -1 -6 2.49 1.35
-7 -1 -7 13.17 2.18
-7 -2 11 2.43 0.99
7 2 -10 17.71 1.86
-7 -2 10 16.8 1.72
7 2 -9 89.51 4.13
-7 -2 9 90.24 4.02
7 2 -8 76.26 3.62
-7 -2 8 77.93 3.52
-7 -2 8 76.24 3.23
7 2 -7 41.94 2.51
-7 -2 7 45.09 2.45
-7 -2 7 42.49 2.37
7 2 -6 136.47 4.88
-7 -2 6 127.04 4.55
7 2 -6 120.61 4.79
-7 -2 6 136.6 4.92
-7 -2 5 0.24 0.48
7 2 -5 0.1 0.63
-7 -2 5 -0.16 0.49
7 2 -5 -0.48 0.69
-7 -2 5 -0.57 0.65
7 2 -5 0.87 0.63
7 2 -4 183.09 5.89
-7 -2 4 185.64 5.61
-7 -2 4 193.34 6.47
7 2 -4 189.67 6.03
-7 -2 4 183.29 5.73
-7 -2 3 8.89 1
7 2 -3 8.26 0.99
-7 -2 3 10.21 0.92
7 2 -3 11.52 1.12
-7 -2 3 6.68 1.11
-7 -2 2 79.75 3.21
7 2 -2 76.63 3.21
7 2 -2 77.42 3.52
-7 -2 2 75.35 3.67
7 2 -2 83.72 3.03
7 2 -1 13.16 1.25
-7 -2 1 13.09 1.29
7 2 -1 11.2 1.35
-7 -2 1 12.67 1.56
7 2 -1 13.14 0.94
-7 -2 1 11.36 1.42
7 2 0 2.41 0.77
-7 -2 0 2.24 0.82
7 2 0 2.97 0.91
7 2 0 1.81 0.59
-7 -2 0 2.22 0.8
-7 -2 0 1.7 0.86
-7 -2 -1 790.49 20.2
-7 -2 -1 760.7 20.34
7 2 1 768.93 19.71
-7 -2 -2 3.07 1.04
-7 -2 -2 1.22 0.92
-7 -2 -3 85.13 4.58
-7 -2 -4 5.02 1.38
-7 -2 -5 6.68 1.61
-7 -2 -6 25.7 2.77
-7 -2 -7 0.24 1.17
-7 -3 11 61.09 3.46
-7 -3 10 82.54 3.97
-7 -3 9 7.27 1.21
7 3 -9 6.78 1.15
7 3 -8 325.54 9.39
-7 -3 8 320.77 9.43
-7 -3 8 313.49 9.14
-7 -3 7 6.7 0.99
7 3 -7 6.66 1.03
-7 -3 7 6.84 1.01
-7 -3 6 6.35 0.88
7 3 -6 7.03 1.05
-7 -3 6 7.59 1.09
7 3 -5 47.2 2.22
-7 -3 5 44.55 2.14
-7 -3 5 40.48 2.51
7 3 -5 44.9 2.48
7 3 -4 63.04 2.62
-7 -3 4 67.73 2.61
-7 -3 4 62.74 3.26
7 3 -4 67.04 2.95
-7 -3 4 66.57 2.55
7 3 -3 135.67 4.45
7 3 -3 141.14 4.97
-7 -3 3 138.41 4.25
-7 -3 3 142.29 5.41
7 3 -3 137.53 4.54
-7 -3 3 142.7 4.42
-7 -3 2 52.68 2.38
7 3 -2 57.21 2.46
7 3 -2 58.32 2.88
-7 -3 2 59.15 3.23
-7 -3 2 51.84 2.98
-7 -3 1 31.51 1.87
-7 -3 1 33.16 2.32
7 3 -1 31.65 2.17
-7 -3 1 32.41 2.43
-7 -3 0 42.98 2.75
-7 -3 -1 80.38 3.95
-7 -3 -1 74.59 4.13
-7 -3 -2 28.16 2.53
-7 -3 -2 32.09 2.45
-7 -3 -3 4.14 1.24
-7 -3 -3 3.45 1.31
-7 -3 -4 23.7 2.45
-7 -3 -5 17.84 2.29
-7 -3 -6 53.65 4.03
-7 -4 11 2.89 1.03
-7 -4 10 112.35 4.79
-7 -4 9 83.31 4.35
-7 -4 9 77.87 3.71
-7 -4 8 66.62 3.82
-7 -4 8 63.66 3.1
-7 -4 8 61.31 3.04
-7 -4 7 196.9 6.4
-7 -4 7 211.8 6.81
-7 -4 6 123.73 5.33
-7 -4 6 120.38 4.24
7 4 -6 123.01 4.79
-7 -4 6 122.58 4.84
-7 -4 5 32.81 2.51
-7 -4 5 39.49 1.91
7 4 -5 35.17 2.15
-7 -4 5 38.12 2.46
-7 -4 4 9.49 0.86
-7 -4 4 10.22 1.35
7 4 -3 35.92 2.12
-7 -4 3 34.88 1.56
-7 -4 3 33.04 2.42
7 4 -2 17.38 1.54
-7 -4 2 12.89 1.54
-7 -4 2 15.55 1.72
-7 -4 1 -0.15 0.73
-7 -4 1 -0.52 0.74
-7 -4 0 34.59 2.44
-7 -4 -1 24.56 2.12
-7 -4 -1 21.79 2.2
-7 -4 -2 86.81 4.64
-7 -4 -2 84.66 4.23
-7 -4 -3 10.11 1.73
-7 -4 -3 11.53 1.72
-7 -4 -4 2.09 1.2
-7 -4 -5 6.67 1.65
-7 -5 11 202.69 7.86
-7 -5 11 191.24 7.11
-7 -5 10 26.93 2.21
-7 -5 10 32.78 2.71
-7 -5 9 34.2 2.37
-7 -5 9 35.62 2.28
-7 -5 9 35.2 2.78
-7 -5 8 190.09 6.37
-7 -5 8 190.63 6.56
-7 -5 8 186.92 7.33
-7 -5 7 -0.1 0.67
-7 -5 7 -0.13 0.76
-7 -5 6 251.3 7.21
-7 -5 6 241.91 8.07
-7 -5 6 243.68 8.53
-7 -5 5 -0.62 0.74
-7 -5 5 0.32 0.42
-7 -5 5 -0.42 0.69
-7 -5 4 8.46 1.34
-7 -5 4 8.84 0.76
7 5 -4 10.87 1.12
-7 -5 4 9.06 1.33
-7 -5 3 26.68 2.15
7 5 -3 25.84 1.79
-7 -5 3 25.49 2.14
7 5 -2 24.6 1.81
-7 -5 2 26.92 2.25
-7 -5 2 25.59 2.07
-7 -5 1 53.42 3.02
-7 -5 0 58.78 3.29
-7 -5 0 57.35 3.53
-7 -5 -1 0.89 0.89
-7 -5 -1 0.86 0.87
-7 -5 -2 1.08 1.07
-7 -5 -2 -0.38 1.08
-7 -5 -3 14.89 1.89
-7 -5 -3 14.24 2.01
-7 -5 -4 13.21 2.01
-7 -6 11 0.62 1.07
-7 -6 11 0.16 0.88
-7 -6 10 12.88 1.84
-7 -6 10 11.89 1.61
-7 -6 9 23.52 1.97
-7 -6 9 24.26 1.99
-7 -6 9 29.41 2.56
-7 -6 8 17.1 1.62
-7 -6 8 16.13 1.72
-7 -6 7 7.15 1.35
-7 -6 7 5.1 0.94
-7 -6 7 5.68 1.19
-7 -6 6 3.67 1.08
-7 -6 6 2.56 0.66
-7 -6 6 2.4 1.01
7 6 -5 28.97 1.77
-7 -6 5 34.14 2.52
-7 -6 5 31.62 2.51
-7 -6 4 5.64 1.14
-7 -6 4 4.6 1.09
-7 -6 3 24.99 2.23
-7 -6 3 19.7 1.91
-7 -6 2 5.16 1.1
-7 -6 2 6.87 1.28
-7 -6 1 18.17 1.85
-7 -6 0 4.67 1.25
-7 -6 0 7.4 1.51
-7 -6 -1 169.45 6.42
-7 -6 -1 170.01 6.98
-7 -6 -2 3.89 1.18
-7 -6 -2 3.36 1.35
-7 -6 -3 0.67 1.16
-7 -6 -3 -0.21 1.06
-7 -6 -4 11.4 1.83
-7 -7 11 76.14 4.1
-7 -7 10 25.63 2.22
-7 -7 10 26.09 2.62
-7 -7 9 0.53 0.77
-7 -7 9 0.92 0.89
-7 -7 8 214.96 7.01
-7 -7 8 211 8.08
-7 -7 7 5.7 1.29
-7 -7 7 5.09 1.27
-7 -7 6 4.74 1.23
-7 -7 6 6.09 1.26
-7 -7 5 39.58 2.89
-7 -7 5 38.41 2.81
-7 -7 4 3.8 1.16
-7 -7 4 4.55 1.17
-7 -7 3 15.21 1.71
-7 -7 3 12.88 1.84
-7 -7 2 37.35 2.59
-7 -7 2 37.92 2.52
-7 -7 1 3.44 1.08
-7 -7 1 4.64 1.26
-7 -7 0 155.97 6.01
-7 -7 0 166.21 6.86
-7 -7 -1 6.3 1.4
-7 -7 -1 4.58 1.39
-7 -7 -2 18.99 2.05
-7 -8 11 1.52 1.07
-7 -8 10 34.59 2.56
-7 -8 9 0.21 1.02
-7 -8 9 0.17 0.87
-7 -8 8 121.4 5.56
-7 -8 8 118.16 5.77
-7 -8 7 349.58 11.35
-7 -8 7 346.3 11.48
-7 -8 6 72.08 4.15
-7 -8 6 65.1 3.93
-7 -8 5 0.35 1.01
-7 -8 5 2.48 1.19
-7 -8 4 64.27 3.91
-7 -8 4 55.59 3.43
-7 -8 3 0.31 0.91
-7 -8 3 -0.2 0.93
-7 -8 2 100.21 4.56
-7 -8 1 46.75 3.36
-7 -9 10 4.71 1.29
-7 -9 9 15.19 2.07
-7 -9 8 35.02 2.96
-7 -9 8 33.68 3.06
-7 -9 7 69.58 4.26
-7 -9 7 57.09 3.89
-7 -9 6 50.94 3.65
-7 -9 6 52.29 3.53
-7 -9 5 61.94 4.02
-7 -9 5 57.84 3.72
-7 -9 4 27.49 2.7
-7 -9 4 29.05 2.5
-7 -9 3 28.92 2.48
-7 -10 6 3.89 1.43
-7 -10 5 40.42 3.16
-7 -10 4 64.29 3.88
8 -10 0 43.92 3.38
8 -10 1 286.39 10.39
8 -10 2 3.96 1.52
8 -9 -2 4.08 1.36
8 -9 -1 23.15 2.41
8 -9 0 30.24 2.72
8 -9 1 5.37 1.49
8 -9 2 44.11 3.45
8 -9 3 25.24 2.77
8 -8 -4 42.73 3.21
8 -8 -3 7.64 1.47
8 -8 -2 9.62 2.29
8 -8 -2 12.07 1.79
8 -8 -1 -0.18 0.98
8 -8 -1 0.77 1.01
8 -8 0 1.72 1.2
8 -8 1 35.59 3.05
8 -8 1 38.09 3.02
8 -8 2 81.26 4.7
8 -8 2 80.81 4.52
-8 8 -3 -0.28 0.89
8 -8 3 0.22 1.16
8 -8 3 1.21 1.13
-8 8 -4 122.98 5.17
8 -7 -6 3.64 1.23
8 -7 -5 13.59 1.82
8 -7 -4 1.06 1.37
8 -7 -4 1.03 0.9
8 -7 -3 2.68 1.39
8 -7 -3 3.9 1.16
8 -7 -2 0.53 1.31
8 -7 -2 0.51 0.79
8 -7 -1 8.22 1.75
8 -7 -1 13.85 1.82
8 -7 -1 11.86 1.68
8 -7 0 113.46 5.87
8 -7 0 116.84 5.48
8 -7 1 5.61 1.49
8 -7 1 5.89 1.47
8 -7 1 6.38 1.37
-8 7 -2 9.12 1.41
8 -7 2 6.16 1.5
8 -7 2 8.72 1.71
8 -7 2 8.3 1.5
8 -7 3 86.99 5.03
8 -7 3 83.21 4.85
8 -7 3 79.71 4.42
-8 7 -3 90.16 4.24
-8 7 -4 4.02 1.25
8 -7 4 6.16 1.55
8 -7 4 4.32 1.34
8 -7 5 136.54 6.72
-8 7 -5 136.81 5.75
-8 7 -6 29.41 2.57
8 -7 7 26.71 2.82
8 -6 -7 7.76 1.43
8 -6 -6 7.32 1.86
8 -6 -6 8.79 1.45
8 -6 -5 85.56 5.15
8 -6 -5 82.65 4.16
8 -6 -4 47.48 3.78
8 -6 -4 42.26 2.86
8 -6 -3 33.38 3.25
8 -6 -3 36.81 2.63
8 -6 -2 3.17 1.29
8 -6 -2 4.6 1.14
8 -6 -1 17.77 1.97
8 -6 -1 15.09 2.12
8 -6 0 70.83 4.41
8 -6 0 78.78 4.24
8 -6 0 68.9 3.78
8 -6 1 158.05 6.91
8 -6 1 163.01 6.75
8 -6 1 152.03 6.17
-8 6 -1 157.29 5.98
8 -6 2 0.43 1.04
8 -6 2 -0.2 0.99
-8 6 -2 0.56 0.85
8 -6 2 0.16 0.86
8 -6 3 2.62 1.16
8 -6 3 4.51 1.42
8 -6 3 5.38 1.29
-8 6 -3 6 1.55
-8 6 -3 5.27 1.28
-8 6 -4 81.83 4.14
8 -6 4 75.84 4.18
-8 6 -4 82.71 4.86
-8 6 -5 1.32 1.17
8 -6 5 1.44 1.12
8 -6 6 85.63 4.7
-8 6 -6 80.42 4.38
8 -5 -7 22.05 2.71
8 -5 -6 3.96 1.56
8 -5 -5 14.76 2.12
8 -5 -4 16.6 2.34
8 -5 -3 54.18 3.94
8 -5 -2 108.01 5.69
8 -5 -1 3.96 1.18
8 -5 -1 4.18 1.3
8 -5 -1 3.61 0.99
-8 5 1 4.68 1.23
8 -5 0 214.38 8.11
8 -5 0 212.04 7.82
8 -5 0 198.92 7.12
-8 5 0 205.45 7.88
8 -5 1 12.93 1.82
8 -5 1 8.01 1.48
-8 5 -1 11.62 1.54
8 -5 1 12.13 1.49
-8 5 -1 12.72 1.85
8 -5 2 19.07 2.19
8 -5 2 11.07 1.84
8 -5 2 14.33 1.65
-8 5 -2 16.13 1.79
-8 5 -2 14.7 1.96
8 -5 3 33.64 2.87
-8 5 -3 32.71 2.51
8 -5 3 27.13 2.3
-8 5 -3 30.5 2.81
8 -5 4 16.95 2.12
8 -5 4 11.73 1.66
-8 5 -4 13.29 1.77
8 -5 5 66.62 4.32
8 -5 5 58.61 3.55
-8 5 -5 60.48 4.23
8 -5 6 24.41 2.65
-8 5 -6 22.8 2.32
-8 5 -6 21.77 2.67
8 -4 -8 98.18 5.43
8 -4 -7 72.45 4.49
-8 4 7 68.82 3.89
8 -4 -6 45.08 3.46
-8 4 6 37.52 2.71
8 -4 -5 25.55 2.61
8 -4 -4 159.51 6.96
-8 4 4 162.57 6.07
8 -4 -3 18.25 2.34
-8 4 3 19.04 1.94
8 -4 -2 362.31 11.92
-8 4 2 347.58 11.04
8 -4 -1 145.07 6.28
-8 4 1 142.31 6.01
-8 4 0 -0.56 0.88
8 -4 0 -0.18 0.98
8 -4 0 -0.13 0.63
-8 4 0 0.18 0.94
8 -4 1 133.49 5.9
8 -4 1 128.76 5.1
-8 4 -1 131.62 5.96
-8 4 -1 129.2 5.35
-8 4 -2 -0.73 0.85
8 -4 2 0.19 0.89
8 -4 2 0.66 0.7
-8 4 -2 0.2 0.93
8 -4 3 150.77 6.49
-8 4 -3 150.88 6.02
8 -4 3 144.63 5.64
-8 4 -3 143.13 6.64
8 -4 4 60.97 3.97
8 -4 4 57.69 3.31
-8 4 -4 66.43 3.78
-8 4 -5 23.02 2.33
8 -4 5 25.26 2.55
8 -4 5 24.29 2.13
-8 4 -5 16.47 2.29
-8 4 -6 3.76 1.34
-8 4 -6 1.72 1.32
8 -3 -9 0.23 1.27
8 -3 -8 27.31 2.77
-8 3 8 22.03 2.16
8 -3 -7 9.4 1.77
-8 3 7 12.95 1.68
8 -3 -6 23.28 2.41
-8 3 6 26.3 2.18
8 -3 -5 28.12 2.63
-8 3 5 22.3 2.03
-8 3 5 28.86 2.1
8 -3 -4 208.53 8.06
-8 3 4 200.85 7.07
8 -3 -3 168.71 7.09
-8 3 3 170.73 6.49
8 -3 -2 5.84 1.34
-8 3 2 5.37 1.25
8 -3 -1 0.31 0.76
8 -3 -1 0.17 0.77
-8 3 1 -0.17 0.76
8 -3 0 9.08 1.46
8 -3 0 10.76 1.58
-8 3 0 10.61 1.47
-8 3 0 9.21 1.5
8 -3 1 0.52 0.86
8 -3 1 0.53 0.81
8 -3 1 0.72 0.63
-8 3 -1 0.39 0.87
-8 3 -1 0.43 0.88
8 -3 2 145.98 6.26
-8 3 -2 160.09 6.07
8 -3 2 153.51 6.47
8 -3 2 141.34 5.46
-8 3 -2 148.21 6.6
8 -3 3 0.96 0.93
8 -3 3 2.13 0.85
-8 3 -3 1.27 1.03
8 -3 4 40.9 3.14
8 -3 4 38.96 2.58
-8 3 -4 36.67 3.19
-8 3 -4 38.77 2.88
-8 3 -5 168.62 6.8
8 -3 5 166.01 7.1
8 -3 5 164.76 6.13
-8 3 -5 161.05 7.37
-8 3 -6 21.68 2.69
8 -2 -10 33.59 3.11
8 -2 -9 102.77 5.35
-8 2 9 102.74 4.82
8 -2 -8 5.33 1.43
-8 2 8 9.33 1.46
8 -2 -7 17.87 2.16
-8 2 7 16.83 1.78
8 -2 -6 1.45 1.1
-8 2 6 1.37 0.78
8 -2 -5 90.41 4.6
-8 2 5 80.39 3.85
-8 2 5 87.43 3.96
8 -2 -4 640.86 18.34
-8 2 4 654.16 17.61
8 -2 -3 150.03 6.33
-8 2 3 149.6 5.96
8 -2 -2 1.6 0.78
-8 2 2 0.98 0.87
-8 2 1 2.56 1
8 -2 -1 2.26 0.88
8 -2 -1 2.94 0.99
-8 2 1 3.63 1.16
8 -2 0 6.8 1.32
8 -2 0 8.03 1.36
-8 2 0 8.15 1.34
-8 2 0 5.5 1.29
-8 2 -1 1.32 0.87
8 -2 1 1.96 0.89
8 -2 1 1.39 0.98
-8 2 -1 2.91 1.02
8 -2 2 4.49 1.16
8 -2 2 3.71 1.22
-8 2 -2 5.09 1.13
8 -2 2 5.39 0.99
-8 2 -2 4.5 1.26
8 -2 3 52.85 3.46
8 -2 3 54.82 2.9
-8 2 -3 55.73 3.41
8 -2 4 124.52 5.81
8 -2 4 132.34 5.07
-8 2 -4 144.39 6.62
-8 2 -4 130.97 5.76
-8 2 -5 9.25 1.68
-8 2 -5 14.29 2.16
-8 2 -6 12.74 2.24
8 -1 -10 28.17 2.76
8 -1 -9 41.45 3.22
-8 1 9 52.74 3.13
8 -1 -8 0.36 1
-8 1 8 0.29 0.74
8 -1 -7 65.67 3.81
-8 1 7 60.95 3.31
8 -1 -6 96.3 4.65
-8 1 6 87.05 3.96
-8 1 6 86.67 3.89
8 -1 -5 2.32 1.16
-8 1 5 2.03 0.82
-8 1 5 2.53 0.91
8 -1 -4 2.01 1.13
-8 1 4 2.13 0.81
-8 1 4 2.16 1
8 -1 -3 372.17 11.31
-8 1 3 355.99 11.17
8 -1 -2 1.4 0.8
8 -1 -2 0.99 0.69
-8 1 2 1.8 0.96
8 -1 -1 7.02 0.84
8 -1 -1 5.9 1.15
8 -1 -1 4.15 1.02
-8 1 1 7.29 1.3
-8 1 1 7.29 1.36
8 -1 0 0.32 0.82
8 -1 0 0.15 0.67
-8 1 0 0.29 0.72
-8 1 0 -0.55 0.82
-8 1 -1 5.09 1.21
8 -1 1 6.47 1.16
8 -1 1 3.75 1.16
-8 1 -1 7.6 1.48
8 -1 2 95.54 4.7
-8 1 -2 108.45 4.88
8 -1 3 40.63 2.96
8 -1 3 46.19 2.51
-8 1 -3 42.1 3.35
-8 1 -3 44.41 3.06
-8 1 -4 38.88 2.96
-8 1 -4 41.79 3.4
-8 1 -5 378.04 12.94
-8 1 -6 109.85 5.96
8 0 -11 3.86 1.45
8 0 -10 17.14 2.14
-8 0 10 17.81 1.89
8 0 -9 -0.18 0.91
-8 0 9 2.14 0.91
8 0 -8 69.62 3.94
-8 0 8 71.19 3.56
8 0 -7 14.29 1.74
-8 0 7 15.15 1.57
8 0 -6 184.07 6.88
-8 0 6 185.71 6.29
-8 0 6 181.09 6.42
8 0 -5 50.97 3.2
-8 0 5 50.69 2.69
-8 0 5 50.29 3
8 0 -4 114.92 4.96
-8 0 4 115.31 4.38
-8 0 4 112.77 4.91
8 0 -3 12.01 1.26
-8 0 3 14.2 1.54
8 0 -3 15.42 1.61
-8 0 3 11.91 1.61
8 0 -2 5.18 0.83
-8 0 2 4.49 1.03
8 0 -2 5.58 1.06
8 0 -2 3.86 0.92
-8 0 2 5.02 1.21
8 0 -1 8.27 1.38
8 0 -1 7.57 1.16
-8 0 1 8.06 1.41
8 0 0 23.94 2
8 0 0 22.74 2.07
-8 0 0 21.79 2.22
8 0 1 0.88 0.72
8 0 1 0.67 0.84
-8 0 -1 -0.19 0.8
8 0 2 19.3 1.95
8 0 3 56.21 2.76
-8 0 -3 58.24 3.92
-8 0 -4 123.66 6.2
-8 0 -5 2.91 1.35
-8 0 -6 133.67 6.78
8 1 -10 15.64 1.95
-8 -1 10 17.87 1.82
8 1 -9 1.6 1.06
-8 -1 9 2.04 0.86
8 1 -8 19.48 1.96
-8 -1 8 18.57 1.71
8 1 -7 57.55 3.25
-8 -1 7 54.8 2.93
-8 -1 7 52.2 2.88
8 1 -6 48.41 2.95
-8 -1 6 50.7 2.67
-8 -1 6 48.15 2.81
8 1 -5 50.96 2.98
-8 -1 5 48.71 2.55
-8 -1 5 48.4 2.92
8 1 -4 142.94 5.32
-8 -1 4 144.5 4.95
-8 -1 4 140.76 5.65
-8 -1 4 139.88 5.05
8 1 -3 441.86 12.46
-8 -1 3 458.96 13.26
8 1 -3 461.02 12.13
-8 -1 3 438.71 12.27
-8 -1 2 4.31 1
-8 -1 2 2.92 0.92
8 1 -2 4.67 1.01
8 1 -2 4.23 0.97
-8 -1 2 6.1 1.2
-8 -1 1 69.93 3.37
8 1 -1 70.37 3.39
8 1 -1 75.05 3.76
-8 -1 1 71.26 3.94
-8 -1 1 69.76 3.72
-8 -1 0 18.29 1.88
8 1 0 18.62 1.73
8 1 0 17.08 1.85
-8 -1 0 18.74 2.06
8 1 1 61.63 3.28
-8 -1 -1 58.13 3.46
-8 -1 -2 156.12 6.26
-8 -1 -2 156.83 6.8
-8 -1 -3 5.7 1.57
-8 -1 -3 8.31 1.58
-8 -1 -4 57.78 3.67
-8 -1 -4 53.26 3.95
-8 -1 -5 56.13 4.1
-8 -2 10 17.94 1.82
-8 -2 9 0.39 0.69
-8 -2 8 43.89 2.59
8 2 -7 26.2 2.07
-8 -2 7 21.97 1.73
-8 -2 7 25.97 1.99
8 2 -6 0.88 0.81
-8 -2 6 1.96 0.7
-8 -2 6 2.22 0.82
8 2 -5 14.98 1.44
-8 -2 5 17.01 1.41
-8 -2 5 14.68 1.68
8 2 -4 24.6 1.76
-8 -2 4 22.87 1.58
-8 -2 4 23.29 2.1
8 2 -3 24.76 1.76
8 2 -3 24.75 2.01
-8 -2 3 27.84 2.28
-8 -2 2 2.79 1.04
8 2 -2 5.54 1.09
8 2 -2 4.98 0.86
-8 -2 2 5.88 1.24
8 2 -1 6.82 1.22
8 2 -1 5.45 0.93
-8 -2 1 7.37 1.37
-8 -2 1 5 1.22
-8 -2 0 103.01 4.8
8 2 0 108.82 4.41
8 2 0 108 4.85
-8 -2 0 118.16 5.35
-8 -2 -1 102.71 4.78
-8 -2 -2 59.74 3.59
-8 -2 -2 60.06 3.9
-8 -2 -3 12.68 1.84
-8 -2 -3 9.87 1.83
-8 -2 -4 27.26 2.56
-8 -2 -4 29.35 2.97
-8 -3 10 33.57 2.45
-8 -3 9 2.16 0.95
-8 -3 8 138.96 5.16
-8 -3 7 10.34 1.2
-8 -3 7 9.38 1.35
-8 -3 6 104.22 3.94
-8 -3 6 102.91 4.51
-8 -3 5 152.91 5.06
-8 -3 5 162.24 6.08
-8 -3 4 0.44 0.48
-8 -3 4 0.3 0.71
8 3 -3 22.11 1.85
-8 -3 3 24.03 2.2
8 3 -2 -0.13 0.7
-8 -3 2 -0.15 0.85
-8 -3 2 -0.84 0.83
8 3 -1 93.92 4.37
-8 -3 1 101.87 4.92
-8 -3 1 99.22 4.56
-8 -3 0 17.25 1.87
-8 -3 -1 40.72 2.86
-8 -3 -1 36.89 3.01
-8 -3 -2 9.92 1.61
-8 -3 -2 11.76 1.93
-8 -3 -3 32.99 3.01
-8 -3 -3 38.77 2.97
-8 -3 -4 21.61 2.35
-8 -3 -4 21.55 2.59
-8 -4 11 0.76 0.93
-8 -4 10 10.29 1.42
-8 -4 9 0.25 0.66
-8 -4 8 20.23 1.68
-8 -4 8 17.07 1.7
-8 -4 7 424.71 11.69
-8 -4 7 435.42 12.44
-8 -4 6 3.9 0.77
-8 -4 6 3.92 1.03
-8 -4 5 67.15 2.8
-8 -4 5 75.17 3.82
8 4 -4 20.97 1.72
-8 -4 4 19.07 1.95
8 4 -3 63.37 3.23
-8 -4 3 64.6 3.64
8 4 -2 81.61 3.82
-8 -4 2 79.55 4.23
-8 -4 2 83.9 4.16
-8 -4 1 5.25 1.18
-8 -4 1 5.21 1.27
-8 -4 0 8.19 1.42
-8 -4 -1 160.46 6.44
-8 -4 -1 162.62 6.99
-8 -4 -2 12.98 1.86
-8 -4 -2 18.18 2.31
-8 -4 -3 8.72 1.64
-8 -4 -3 9.13 1.91
-8 -5 11 13.25 1.63
-8 -5 10 3.42 1.02
-8 -5 9 77.88 3.64
-8 -5 8 91.51 3.88
-8 -5 8 97.25 4.34
-8 -5 7 123.11 4.43
-8 -5 7 120.5 5.13
-8 -5 6 0.6 0.75
8 5 -5 9.54 1.21
-8 -5 5 8.81 1.43
8 5 -4 1.33 0.76
-8 -5 4 1.8 0.92
-8 -5 3 145.24 6.08
-8 -5 2 155.02 6.39
-8 -5 2 145.85 5.92
-8 -5 1 55.04 3.59
-8 -5 1 60.48 3.43
-8 -5 0 17.13 1.96
-8 -5 0 19.45 2.23
-8 -5 -1 3.92 1.32
-8 -5 -1 4.66 1.37
-8 -5 -2 9.88 1.93
-8 -5 -2 6.91 1.45
-8 -6 11 10.2 1.58
-8 -6 10 48.35 2.89
-8 -6 9 1.33 0.83
-8 -6 8 0.81 0.94
-8 -6 8 0.75 0.75
-8 -6 7 15.92 2
-8 -6 6 1.68 1.14
-8 -6 6 1.63 1
-8 -6 5 8.92 1.56
-8 -6 5 7.44 1.45
-8 -6 4 49.66 3.28
-8 -6 3 8.02 1.52
-8 -6 2 75.95 4.26
-8 -6 2 74.82 3.91
-8 -6 1 28.22 2.34
-8 -6 0 7.79 1.63
-8 -6 0 7.87 1.48
-8 -6 -1 14.35 1.91
-8 -6 -2 8.21 1.61
-8 -7 11 78.85 4
-8 -7 9 55.56 3.36
-8 -7 8 127.46 5.57
-8 -7 8 129.99 6.12
-8 -7 7 3.4 1.33
-8 -7 7 5.71 1.32
-8 -7 6 1.92 1.05
-8 -7 5 33.42 2.79
-8 -7 5 36.58 2.88
-8 -7 4 39.02 2.94
-8 -7 4 40.66 3.07
-8 -7 3 83.69 4.57
-8 -7 2 1.35 0.97
-8 -7 2 2.42 1.19
-8 -7 1 42.09 2.9
-8 -7 0 4.74 1.34
-8 -8 9 8.57 1.57
-8 -8 8 8.87 1.65
-8 -8 7 1.65 1.11
-8 -8 7 0.38 1.02
-8 -8 6 2.78 1.28
-8 -8 6 3.9 1.28
-8 -8 5 47.08 3.44
-8 -8 5 50.24 3.41
-8 -8 4 -0.36 0.87
-8 -8 4 -0.2 0.95
-8 -9 5 40.75 3.19
-8 -9 4 60.77 3.86
9 -7 -2 0.8 1.07
9 -7 -2 0.55 1.39
9 -7 -1 34.88 3.32
9 -7 -1 28.91 2.76
9 -7 0 71.74 4.73
9 -7 0 77.46 4.59
9 -7 0 67.83 4.06
9 -7 1 6.97 1.67
9 -7 1 9.29 1.83
9 -7 1 8.47 1.54
9 -7 2 62.23 4.39
9 -7 2 64.71 4.35
9 -7 2 57.74 3.81
-9 7 -2 66.41 3.75
9 -7 3 42.28 3.26
-9 7 -3 44.83 3.1
-9 7 -4 1.02 1.1
9 -6 -4 43.19 3.89
9 -6 -4 44.29 3.07
9 -6 -3 67.78 4.76
9 -6 -3 63.47 3.7
9 -6 -2 9.8 1.69
9 -6 -2 11.52 2.13
9 -6 -2 11.48 1.6
9 -6 -1 77.72 4.84
9 -6 -1 75.87 4.47
9 -6 -1 76.58 4.11
9 -6 0 11.9 1.98
9 -6 0 13.19 1.78
9 -6 1 134.05 6.51
9 -6 1 132.95 6.36
9 -6 1 130.15 5.72
9 -6 2 50.61 3.86
9 -6 2 49.86 3.78
9 -6 2 49.23 3.32
-9 6 -2 56.66 4.01
-9 6 -2 51.52 3.25
9 -6 3 9.65 1.93
9 -6 3 4.6 1.31
-9 6 -3 9.74 1.66
-9 6 -3 11.55 2.03
-9 6 -4 24.82 2.42
9 -6 4 26.2 2.58
9 -5 -6 7.66 1.94
9 -5 -5 0.76 1.37
9 -5 -4 23.45 2.84
9 -5 -3 83.5 5.05
9 -5 -3 76.33 3.99
9 -5 -2 11.34 1.86
9 -5 -2 10.67 1.96
-9 5 2 13.16 1.94
9 -5 -1 237.6 9.13
9 -5 -1 242.57 8.85
9 -5 -1 227.75 8.1
-9 5 1 251.17 9.01
9 -5 0 219.61 8.52
9 -5 0 210.17 8.27
9 -5 0 207.72 7.57
-9 5 0 218.63 8.46
-9 5 -1 18.68 2.02
9 -5 1 14.66 2.11
9 -5 1 15.7 2.17
9 -5 1 15.68 1.84
-9 5 -1 15.18 2.22
9 -5 2 9.81 1.8
9 -5 2 5.88 1.76
-9 5 -2 10.96 1.67
9 -5 2 9.14 1.55
-9 5 -2 12.51 2.02
-9 5 -3 28.22 2.52
9 -5 3 29.57 2.88
9 -5 3 28.62 2.43
-9 5 -3 28.42 2.95
-9 5 -4 15.69 2.01
9 -5 4 12.54 2.05
9 -5 4 14.13 1.88
9 -5 5 38.94 2.96
9 -4 -6 4.03 1.46
9 -4 -5 11.47 2.04
9 -4 -4 64 4.35
-9 4 4 66.13 3.66
9 -4 -3 225.52 8.84
-9 4 3 208.21 7.83
9 -4 -2 125.24 5.9
-9 4 2 108.48 5.27
9 -4 -1 1.61 1.12
-9 4 1 0.39 0.94
-9 4 0 6.34 1.4
9 -4 0 8 1.64
9 -4 0 7.38 1.26
-9 4 0 4.76 1.4
9 -4 1 278.96 10.07
9 -4 1 285.19 9.18
-9 4 -1 278.11 10.21
-9 4 -1 285.6 9.53
-9 4 -2 33.19 2.68
9 -4 2 25.19 2.68
9 -4 2 33.4 2.49
-9 4 -2 35.68 3.15
-9 4 -3 18.85 2.13
9 -4 3 14.35 2.02
9 -4 3 13.35 1.67
-9 4 -3 15.44 2.23
9 -4 4 -0.23 0.97
-9 4 -4 -0.19 0.98
9 -4 4 0.16 0.89
9 -3 -8 83.37 4.98
9 -3 -7 5.79 1.65
-9 3 7 4.59 1.21
9 -3 -6 4.87 1.61
9 -3 -5 0.45 1.24
9 -3 -4 74.5 4.58
-9 3 4 74.87 3.95
9 -3 -3 9.97 1.81
9 -3 -2 5.41 1.32
9 -3 -2 4.76 1.31
-9 3 2 5.44 1.47
9 -3 -1 66.87 4.03
9 -3 -1 71.38 4.1
-9 3 1 73.63 4.27
9 -3 0 42.85 3.18
9 -3 0 45.74 3.32
-9 3 0 41.66 3.31
-9 3 0 47.44 3.16
9 -3 1 2.33 1.04
9 -3 1 3.68 1.32
9 -3 1 1.91 0.84
-9 3 -1 3.17 1.18
-9 3 -1 3.56 1.39
-9 3 -2 7.05 1.47
9 -3 2 6.84 1.56
9 -3 2 8.44 1.73
9 -3 2 8.64 1.34
-9 3 -2 9.59 1.83
9 -3 3 0.21 0.94
-9 3 -3 0.36 0.97
9 -3 4 12.51 1.96
9 -3 4 13.12 1.66
-9 3 -4 13.78 2.19
-9 3 -4 15.93 2.09
9 -2 -9 2.44 1.59
9 -2 -8 10.85 1.97
-9 2 8 13.93 1.81
9 -2 -7 69.65 4.36
-9 2 7 72.72 3.88
9 -2 -6 1.44 1.21
-9 2 6 0.6 0.82
9 -2 -5 108.01 5.47
-9 2 5 106.43 4.83
9 -2 -4 50.27 3.5
-9 2 4 47.89 3.17
9 -2 -3 115.91 5.5
-9 2 3 126.07 5.62
9 -2 -2 89.62 4.52
9 -2 -2 87.18 4.46
-9 2 2 82.07 4.56
-9 2 1 4.11 1.25
9 -2 -1 3.39 1.1
9 -2 -1 3.5 1.1
-9 2 1 4.19 1.32
9 -2 0 2.28 1.12
9 -2 0 3.72 1.09
-9 2 0 4.31 1.29
-9 2 0 2.94 1.13
-9 2 -1 79.51 4.2
9 -2 1 75.44 4.23
9 -2 1 85.79 4.68
-9 2 -1 71.89 4.48
-9 2 -2 2.63 1.17
9 -2 2 2.73 1.12
9 -2 2 1.92 0.84
-9 2 -2 3.26 1.27
9 -2 3 65.27 4.06
-9 2 -3 73.14 4.16
9 -2 3 66.98 3.44
9 -2 4 30.39 2.81
-9 2 -4 32.13 2.83
-9 2 -4 37.18 3.37
9 -1 -10 7.76 1.75
9 -1 -9 25.82 2.66
9 -1 -8 1.57 1.19
-9 1 8 1.41 0.95
9 -1 -7 43.42 3.2
-9 1 7 39.93 2.76
9 -1 -6 33.9 2.98
-9 1 6 41.33 2.67
9 -1 -5 0.95 1.12
-9 1 5 2.62 0.89
-9 1 5 2.06 0.95
9 -1 -4 129.01 5.69
-9 1 4 128.46 5.6
9 -1 -3 0.64 0.88
-9 1 3 -0.18 0.92
9 -1 -2 6.95 1.36
9 -1 -2 7.84 1.33
-9 1 2 9.36 1.62
9 -1 -1 58.52 3.48
9 -1 -1 58.28 3.59
-9 1 1 54.89 3.73
-9 1 1 55.47 3.44
9 -1 0 65.95 3.7
-9 1 0 58.04 3.92
-9 1 0 61.46 3.65
-9 1 -1 3.43 1.21
9 -1 1 3.33 1.05
9 -1 1 3.15 1.21
-9 1 -1 4.25 1.36
9 -1 2 93.75 4.78
-9 1 -2 94.26 4.79
-9 1 -2 88.96 5.24
9 -1 3 27.37 2.56
-9 1 -3 31.83 2.74
9 -1 3 31.09 2.17
-9 1 -3 27.63 2.89
-9 1 -4 56.77 4.27
-9 0 9 3.13 1.14
9 0 -8 38.89 3.07
-9 0 8 42.98 2.79
9 0 -7 5.9 1.44
-9 0 7 5.92 1.19
9 0 -6 2.5 1.22
-9 0 6 2.58 0.9
-9 0 6 4.26 1.12
9 0 -5 20.53 2.16
-9 0 5 18.31 1.69
-9 0 5 18.4 1.99
9 0 -4 252.69 8.7
-9 0 4 266.78 9.11
9 0 -3 446.92 13.05
9 0 -3 458.38 13.27
-9 0 3 435.81 13.58
9 0 -2 27.32 2.3
9 0 -2 33.23 2.63
-9 0 2 36.9 2.91
9 0 -1 4.32 1.27
9 0 -1 6.98 1.28
-9 0 1 7.49 1.52
9 0 0 40.53 2.78
9 0 0 41.6 3.06
-9 0 0 38.82 3.19
9 0 1 47.62 3.14
-9 0 -1 56.09 3.89
9 0 2 -0.51 0.83
-9 0 -3 177.16 7.89
-9 -1 9 29.07 2.31
-9 -1 8 -0.14 0.76
-9 -1 7 37.23 2.48
9 1 -6 10.58 1.6
-9 -1 6 9.56 1.27
-9 -1 6 9.3 1.51
9 1 -5 1.11 0.84
-9 -1 5 0.33 0.65
-9 -1 5 0.66 0.95
9 1 -4 2.32 0.8
-9 -1 4 1.21 1.06
9 1 -3 208.36 7.18
9 1 -3 224.81 7.75
-9 -1 3 213.71 8
9 1 -2 156.16 5.89
9 1 -2 160.64 6.36
-9 -1 2 159.22 6.48
-9 -1 2 171.62 6.89
9 1 -1 72.96 3.62
9 1 -1 69.3 3.95
-9 -1 1 66.77 4.17
-9 -1 1 70.58 3.94
9 1 0 4.49 1.34
9 1 0 6.59 1.2
-9 -1 0 4.95 1.32
-9 -1 0 8.55 1.65
-9 -1 -1 205.4 7.71
-9 -1 -1 198.04 8.23
-9 -1 -2 117.41 5.48
-9 -1 -2 110.39 5.96
-9 -1 -3 -0.19 1.04
-9 -1 -3 -0.51 1.4
-9 -2 9 1.25 0.86
-9 -2 8 125.51 5.03
-9 -2 7 8.34 1.26
-9 -2 7 5.81 1.24
-9 -2 6 14.55 1.45
-9 -2 6 15.07 1.82
-9 -2 5 19.3 1.6
-9 -2 5 20.16 2.09
9 2 -4 0.86 0.87
-9 -2 4 -0.35 1.02
-9 -2 3 44.82 3.18
-9 -2 2 4.91 1.31
9 2 -2 4.74 1.17
-9 -2 2 5.58 1.4
9 2 -1 32.09 2.53
-9 -2 1 34.74 2.9
-9 -2 1 29.7 2.54
-9 -2 0 131.33 5.72
-9 -2 0 130.16 6.21
-9 -2 -1 8.2 1.57
-9 -2 -2 8.94 1.67
-9 -2 -2 6.24 1.72
-9 -3 10 18.31 1.86
-9 -3 9 58.23 3.17
-9 -3 8 34.57 2.31
-9 -3 7 37.91 2.35
-9 -3 7 39.53 2.78
-9 -3 6 103.9 4.07
-9 -3 6 102.83 4.84
-9 -3 5 12.61 1.71
9 3 -4 7.38 1.29
-9 -3 4 7.69 1.47
9 3 -3 59.14 3.35
-9 -3 3 58.49 3.75
9 3 -2 80.53 4.13
-9 -3 2 88 4.75
-9 -3 2 83.73 4.41
-9 -3 1 64.45 4.05
-9 -3 1 65.72 3.84
-9 -3 0 0.22 1.04
-9 -3 0 0.17 0.92
-9 -3 -1 103.04 5.04
-9 -3 -2 49.42 3.4
-9 -4 10 4.33 1.14
-9 -4 9 4.18 1.05
-9 -4 8 195.1 6.56
-9 -4 7 2.73 1
-9 -4 6 62.82 3.65
9 4 -5 1.32 0.81
-9 -4 5 -0.35 0.87
9 4 -4 2.33 0.98
-9 -4 4 0.18 0.93
9 4 -3 48.07 3
-9 -4 3 55.07 3.62
-9 -4 2 3.43 1.15
9 4 -2 3.47 1.09
-9 -4 2 2.87 1.21
-9 -4 1 22.22 2.22
-9 -4 1 22.72 2.43
-9 -4 0 121.02 5.5
-9 -4 -1 57.51 3.71
-9 -5 10 11.26 1.5
-9 -5 8 17.21 1.92
-9 -5 7 25.69 2.34
-9 -5 6 4.31 1.23
-9 -5 5 -0.18 0.9
-9 -5 4 6.77 1.48
-9 -5 3 0.59 0.9
-9 -5 2 53.36 3.67
-9 -5 2 44.87 3.16
-9 -5 1 35.26 3.08
-9 -5 1 34.98 2.77
-9 -5 0 0.35 1.04
-9 -6 5 5.32 1.42
-9 -6 4 0.59 0.92
-9 -6 3 32.13 2.85
-9 -6 2 11.18 1.76
-9 -6 1 19.83 2.22
-9 -6 0 109.21 5.26
-9 -7 8 7.12 1.55
-9 -7 7 36.58 2.96
-9 -7 6 8.63 1.66
10 -5 -3 8.65 1.96
10 -5 -2 9.11 1.95
-10 5 2 7.93 1.67
10 -5 -1 28.72 2.92
-10 5 1 28.42 2.78
10 -5 0 12.4 2.09
-10 5 0 14.42 2.19
10 -5 1 25 2.82
-10 5 -1 28.26 2.6
10 -4 -5 22.92 2.83
10 -4 -4 30.31 3.18
10 -4 -3 113.3 5.91
-10 4 3 104.82 5.34
10 -4 -2 2.08 1.15
10 -4 -2 0.67 1.15
10 -4 -1 6.74 1.68
10 -4 -1 5.82 1.49
10 -4 -1 7.03 1.3
-10 4 1 6.4 1.58
10 -4 0 32.83 3.06
10 -4 0 32.05 3.02
10 -4 0 29 2.46
-10 4 0 35.54 3.19
10 -4 1 8.64 1.72
-10 4 -1 7.34 1.61
10 -4 1 8.86 1.49
-10 4 -1 8.05 1.8
10 -4 2 13.75 2.11
10 -4 2 16.78 1.97
10 -4 3 36.08 2.84
10 -3 -6 33.38 3.37
10 -3 -5 1.22 1.44
10 -3 -4 54.78 3.96
-10 3 4 59.22 3.71
10 -3 -3 34.78 3.01
10 -3 -3 34.79 2.91
-10 3 3 34.81 2.96
10 -3 -2 1.62 1.21
10 -3 -2 3.51 1.25
-10 3 2 1.71 1.13
10 -3 -1 29.52 2.8
10 -3 -1 33.12 2.95
-10 3 1 34.55 3.13
-10 3 0 11.84 1.89
10 -3 0 10.07 1.79
10 -3 0 10.3 1.95
10 -3 0 9.6 1.47
-10 3 0 14.5 2.23
10 -3 1 58.54 4.04
10 -3 1 63.37 4.27
10 -3 1 67.13 3.6
-10 3 -1 60.85 4.33
-10 3 -1 61.42 3.91
10 -3 2 4.84 1.22
10 -3 3 3.69 1.4
10 -3 3 3.99 1.16
10 -2 -8 28.15 3.01
10 -2 -7 25.23 2.83
10 -2 -6 59.71 4.28
10 -2 -5 67.27 4.32
10 -2 -4 2.22 1.04
-10 2 4 2.52 1.24
10 -2 -3 57.05 3.68
10 -2 -3 56.52 3.67
-10 2 3 54.03 3.74
10 -2 -2 31 2.75
10 -2 -2 34.22 2.89
-10 2 2 25.73 2.65
10 -2 -1 5.44 1.52
10 -2 -1 5.98 1.42
-10 2 1 3.87 1.44
10 -2 0 23.85 2.51
10 -2 0 24.28 2.57
-10 2 0 26.52 2.58
-10 2 0 27.97 2.93
10 -2 1 68.29 4.19
10 -2 1 66.29 4.37
10 -2 1 70.39 3.74
-10 2 -1 72.92 4.8
-10 2 -1 69.76 4.17
10 -2 2 114.07 5.56
10 -2 2 91.14 4.38
10 -2 3 23.04 2.51
-10 1 7 82 4.2
10 -1 -6 4.04 1.48
10 -1 -5 18.62 2.27
-10 1 5 14.73 2
10 -1 -4 139.19 5.98
-10 1 4 128.05 6
10 -1 -3 8.38 1.53
10 -1 -3 7.07 1.49
-10 1 3 8.95 1.76
10 -1 -2 1.94 1.16
10 -1 -2 -0.18 1.05
-10 1 2 0.44 1.18
10 -1 -1 56.13 3.53
10 -1 -1 56.84 3.83
-10 1 1 52.84 3.58
-10 1 1 50.04 3.81
10 -1 0 -0.43 1.22
10 -1 0 -0.19 0.99
-10 1 0 0.76 1.08
-10 1 0 0.48 1.18
10 -1 1 14.09 1.91
-10 1 -1 14.56 2.02
-10 1 -1 15.73 2.3
10 -1 2 47.83 2.94
-10 0 8 2.08 0.97
-10 0 7 5.44 1.28
-10 0 6 25.1 2.14
-10 0 5 156.11 6.64
10 0 -4 30.26 2.65
-10 0 4 31.2 2.86
10 0 -3 316.36 10.43
-10 0 3 299.4 10.74
10 0 -2 0.19 1.17
-10 0 2 1.34 1.22
-10 0 1 6.55 1.78
10 0 0 37.56 3.12
-10 0 0 37.13 3.36
-10 -1 8 16.24 1.83
-10 -1 7 49.68 3
-10 -1 6 4.05 1.08
-10 -1 6 3.12 1.23
-10 -1 5 9.88 1.75
10 1 -4 133.31 5.78
-10 -1 4 134.42 6.19
10 1 -3 0.18 1.04
-10 -1 3 1.71 1.3
10 1 -2 0.19 1.04
-10 -1 2 0.67 1.22
-10 -1 1 17.83 2.21
10 1 -1 15.7 2.11
-10 -1 1 22.35 2.57
-10 -1 0 9.88 1.82
-10 -1 0 6.93 1.74
-10 -2 9 21.15 2.05
-10 -2 8 36.67 2.58
-10 -2 7 0.91 0.84
-10 -2 6 96.9 4.94
10 2 -5 107.53 5.01
-10 -2 5 111.89 5.45
10 2 -4 38.89 2.94
-10 -2 4 44.51 3.35
10 2 -3 280.58 9.68
-10 -2 3 287.07 10.26
10 2 -2 8.49 1.58
-10 -2 2 7.85 1.78
10 2 -1 5.96 1.53
-10 -2 1 5.6 1.54
-10 -2 1 4.48 1.45
-10 -3 6 -0.38 1.02
10 3 -5 46.32 3.11
-10 -3 5 48.19 3.48
10 3 -4 14.71 1.88
-10 -3 4 14.75 2.05
10 3 -3 102.36 5.03
-10 -3 3 116.48 5.76
10 3 -2 98.23 4.94
-10 -3 2 104.33 5.56
-10 -4 7 127.8 5.82
-10 -4 6 52.52 3.61
-10 -4 5 12.55 1.96
-10 -4 4 4.73 1.5
-10 -4 3 36.77 3.23
-10 -5 7 60.05 3.94
-10 -5 6 13.22 2.05
-11 4 3 -0.22 1.16
11 -3 -4 8.71 1.88
11 -3 -3 60.79 4.2
-11 3 3 64.61 4.26
11 -3 -1 26.26 2.76
-11 2 4 1.31 1.21
11 -2 -3 46.76 3.52
-11 2 3 43.55 3.58
11 -2 -2 9.4 1.8
11 -2 -1 1.69 1.19
11 -2 0 84.79 4.87
11 -2 1 50.34 3.75
-11 1 4 33.74 3.11
-11 1 3 5.18 1.56
-11 0 5 7.82 1.67
-11 0 4 65.94 4.39
-11 0 3 82.9 5.07
-11 -1 5 52.41 3.85
-11 -1 4 91.3 5.27
11 1 -3 85.81 4.84
11 2 -5 6.27 1.6
-11 -2 5 5.22 1.57
11 2 -4 12.54 2.03
11 2 -3 256.3 9.44
11 2 -2 22.95 2.64
