#------------------------------------------------------------------------------
#$Date: 2019-11-11 17:31:08 +0200 (Mon, 11 Nov 2019) $
#$Revision: 226731 $
#$URL: file:///home/coder/svn-repositories/cod/cif/4/03/52/4035265.cif $
#------------------------------------------------------------------------------
#
# This file is available in the Crystallography Open Database (COD),
# http://www.crystallography.net/
#
# All data on this site have been placed in the public domain by the
# contributors.
#
data_4035265
loop_
_publ_author_name
'Qiu, Yun'
'Dlugosch, Michael'
'Liu, Xin'
'Khan, Faiyaz'
'Ward, Jas S.'
'Lan, Ping'
'Banwell, Martin G.'
_publ_section_title
;
 Reductive Cyclization of o-Nitroarylated-\a,\b-unsaturated Aldehydes and
 Ketones with TiCl<sub>3</sub>/HCl or Fe/HCl Leading to
 1,2,3,9-Tetrahydro-4 H-carbazol-4-ones and Related Heterocycles.
;
_journal_issue                   19
_journal_name_full               'The Journal of organic chemistry'
_journal_page_first              12023
_journal_page_last               12033
_journal_paper_doi               10.1021/acs.joc.8b01940
_journal_volume                  83
_journal_year                    2018
_chemical_formula_moiety         'C12 H13 N O'
_chemical_formula_sum            'C12 H13 N O'
_chemical_formula_weight         187.23
_space_group_crystal_system      monoclinic
_space_group_IT_number           4
_space_group_name_Hall           'P 2yb'
_space_group_name_H-M_alt        'P 1 21 1'
_atom_sites_solution_hydrogens   mixed
_atom_sites_solution_primary     dual
_audit_creation_date             2018-05-30
_audit_creation_method
;
Olex2 1.2
(compiled 2017.01.04 svn.r3372 for OlexSys, GUI svn.r5292)
;
_cell_angle_alpha                90
_cell_angle_beta                 99.725(10)
_cell_angle_gamma                90
_cell_formula_units_Z            2
_cell_length_a                   7.0538(7)
_cell_length_b                   8.4543(7)
_cell_length_c                   8.3005(10)
_cell_measurement_reflns_used    1402
_cell_measurement_temperature    150.01(10)
_cell_measurement_theta_max      28.7700
_cell_measurement_theta_min      4.1190
_cell_volume                     487.89(9)
_computing_cell_refinement       'CrysAlisPro 1.171.39.46 (Rigaku OD, 2018)'
_computing_data_collection       'CrysAlisPro 1.171.39.46 (Rigaku OD, 2018)'
_computing_data_reduction        'CrysAlisPro 1.171.39.46 (Rigaku OD, 2018)'
_computing_molecular_graphics    'Olex2 (Dolomanov et al., 2009)'
_computing_publication_material  'Olex2 (Dolomanov et al., 2009)'
_computing_structure_refinement  'ShelXL (Sheldrick, 2015)'
_computing_structure_solution    'ShelXT (Sheldrick, 2015)'
_diffrn_ambient_environment      N~2~
_diffrn_ambient_temperature      150.01(10)
_diffrn_detector                 'CCD plate'
_diffrn_detector_area_resol_mean 10.3744
_diffrn_detector_type            Atlas
_diffrn_measured_fraction_theta_full 0.998
_diffrn_measured_fraction_theta_max 0.998
_diffrn_measurement_details
;
List of Runs (angles in degrees, time in seconds):

  # Type    Start    End  Width  t~exp~   \w     \q     \k     \f   Frames
--------------------------------------------------------------------------
  1  \w    -78.00   9.00   1.00    4.00    --  -11.22 -57.00  30.00   87
  2  \w    -37.00  59.00   1.00    4.00    --  -11.22  57.00-180.00   96
  3  \w    -15.00  69.00   1.00    4.00    --   11.38  57.00 -30.00   84
;
_diffrn_measurement_device       'four-circle diffractometer'
_diffrn_measurement_device_type  'New Xcalibur, Atlas'
_diffrn_measurement_method       '\w scans'
_diffrn_orient_matrix_type
'CrysAlisPro convention (1999,Acta A55,543-557)'
_diffrn_orient_matrix_UB_11      -0.0166585000
_diffrn_orient_matrix_UB_12      -0.0080901000
_diffrn_orient_matrix_UB_13      -0.0862985000
_diffrn_orient_matrix_UB_21      0.0937677000
_diffrn_orient_matrix_UB_22      0.0291076000
_diffrn_orient_matrix_UB_23      -0.0024798000
_diffrn_orient_matrix_UB_31      0.0365760000
_diffrn_orient_matrix_UB_32      -0.0782758000
_diffrn_orient_matrix_UB_33      0.0079313000
_diffrn_radiation_monochromator  graphite
_diffrn_radiation_probe          x-ray
_diffrn_radiation_type           MoK\a
_diffrn_radiation_wavelength     0.71073
_diffrn_reflns_av_R_equivalents  0.0247
_diffrn_reflns_av_unetI/netI     0.0434
_diffrn_reflns_Laue_measured_fraction_full 0.998
_diffrn_reflns_Laue_measured_fraction_max 0.998
_diffrn_reflns_limit_h_max       8
_diffrn_reflns_limit_h_min       -8
_diffrn_reflns_limit_k_max       10
_diffrn_reflns_limit_k_min       -9
_diffrn_reflns_limit_l_max       10
_diffrn_reflns_limit_l_min       -7
_diffrn_reflns_number            3526
_diffrn_reflns_point_group_measured_fraction_full 0.939
_diffrn_reflns_point_group_measured_fraction_max 0.929
_diffrn_reflns_theta_full        25.242
_diffrn_reflns_theta_max         26.372
_diffrn_reflns_theta_min         3.465
_diffrn_source                   'fine-focus sealed X-ray tube'
_diffrn_source_type              'Enhance (Mo) X-ray Source'
_diffrn_standards_number         0
_exptl_absorpt_coefficient_mu    0.081
_exptl_absorpt_correction_T_max  1.00000
_exptl_absorpt_correction_T_min  0.98614
_exptl_absorpt_correction_type   multi-scan
_exptl_absorpt_process_details
;
CrysAlisPro 1.171.39.46 (Rigaku Oxford Diffraction, 2018)
Empirical absorption correction using spherical harmonics,
 implemented in SCALE3 ABSPACK scaling algorithm.
;
_exptl_crystal_colour            yellow
_exptl_crystal_colour_primary    yellow
_exptl_crystal_density_diffrn    1.275
_exptl_crystal_description       block
_exptl_crystal_F_000             200
_exptl_crystal_size_max          0.517
_exptl_crystal_size_mid          0.287
_exptl_crystal_size_min          0.233
_refine_diff_density_max         0.155
_refine_diff_density_min         -0.181
_refine_diff_density_rms         0.038
_refine_ls_abs_structure_details
;
 Flack x determined using 642 quotients [(I+)-(I-)]/[(I+)+(I-)]
 (Parsons, Flack and Wagner, Acta Cryst. B69 (2013) 249-259).
;
_refine_ls_extinction_method     none
_refine_ls_goodness_of_fit_ref   1.093
_refine_ls_hydrogen_treatment    mixed
_refine_ls_matrix_type           full
_refine_ls_number_parameters     133
_refine_ls_number_reflns         1859
_refine_ls_number_restraints     1
_refine_ls_restrained_S_all      1.093
_refine_ls_R_factor_all          0.0471
_refine_ls_R_factor_gt           0.0380
_refine_ls_shift/su_max          0.000
_refine_ls_shift/su_mean         0.000
_refine_ls_structure_factor_coef Fsqd
_refine_ls_weighting_details
'w=1/[\s^2^(Fo^2^)+(0.0322P)^2^+0.0182P] where P=(Fo^2^+2Fc^2^)/3'
_refine_ls_weighting_scheme      calc
_refine_ls_wR_factor_gt          0.0747
_refine_ls_wR_factor_ref         0.0806
_reflns_Friedel_coverage         0.739
_reflns_Friedel_fraction_full    0.872
_reflns_Friedel_fraction_max     0.849
_reflns_number_gt                1663
_reflns_number_total             1859
_reflns_threshold_expression     'I > 2\s(I)'
_iucr_refine_instructions_details
;
TITL med-1163f2_scale_a.res in P2(1)
REM Old TITL MED-1163F2_scale in P2(1)/m
REM SHELXT solution in P2(1)
REM R1 0.122, Rweak 0.059, Alpha 0.004, Orientation as input
REM Flack x = -0.578 ( 0.989 ) from Parsons' quotients
REM Formula found by SHELXT: C3 O
CELL 0.71073 7.0538 8.4543 8.3005 90 99.725 90
ZERR 2 0.0007 0.0007 0.001 0 0.01 0
LATT -1
SYMM -X,0.5+Y,-Z
SFAC C H N O
UNIT 24 26 2 2
 
L.S. 10
PLAN  20
BOND $H
list 4
fmap 2
acta
SHEL 25 0.8
REM <olex2.extras>
REM <HklSrc "%.\\MED-1163F2_scale.hkl">
REM </olex2.extras>
 
WGHT    0.032200    0.018200
FVAR       1.70128
C1    1    0.169107    0.624578    0.310272    11.00000    0.02462    0.02652 =
         0.02104    0.00140    0.00026   -0.00304
AFIX  23
H1A   2    0.223913    0.725446    0.286608    11.00000   -1.20000
H1B   2    0.059301    0.604279    0.225444    11.00000   -1.20000
AFIX   0
C2    1    0.318101    0.495471    0.305605    11.00000    0.03799    0.03115 =
         0.02139    0.00003    0.00740    0.00599
AFIX  23
H2A   2    0.258305    0.392612    0.310144    11.00000   -1.20000
H2B   2    0.368313    0.502187    0.203998    11.00000   -1.20000
AFIX   0
C3    1    0.481714    0.513237    0.449207    11.00000    0.02939    0.03939 =
         0.02419    0.00503    0.00905    0.01037
AFIX  23
H3A   2    0.568735    0.424152    0.451173    11.00000   -1.20000
H3B   2    0.553275    0.608847    0.435389    11.00000   -1.20000
AFIX   0
C4    1    0.408225    0.521129    0.608891    11.00000    0.02241    0.01601 =
         0.01860    0.00065    0.00318   -0.00260
C5    1    0.230221    0.574908    0.614728    11.00000    0.02509    0.02401 =
         0.01765    0.00097    0.00516   -0.00104
AFIX  43
H5    2    0.186824    0.573605    0.714471    11.00000   -1.20000
AFIX   0
C6    1    0.101963    0.635301    0.471311    11.00000    0.02132    0.02066 =
         0.02742    0.00225    0.00106   -0.00242
O7    4   -0.051584    0.698520    0.484076    11.00000    0.02429    0.04400 =
         0.03240    0.00873    0.00531    0.01000
C8    1    0.541000    0.471743    0.758891    11.00000    0.01857    0.01802 =
         0.02100   -0.00191    0.00680    0.00323
C9    1    0.730109    0.527392    0.785662    11.00000    0.02355    0.02032 =
         0.02310   -0.00055    0.00882   -0.00006
AFIX  43
H9    2    0.770201    0.593400    0.708318    11.00000   -1.20000
AFIX   0
C10   1    0.859283    0.487141    0.923806    11.00000    0.02079    0.02312 =
         0.02716   -0.00618    0.00320   -0.00295
AFIX  43
H10   2    0.983798    0.527316    0.940293    11.00000   -1.20000
AFIX   0
C11   1    0.800967    0.386102    1.037559    11.00000    0.02672    0.02446 =
         0.02144   -0.00183   -0.00152    0.00099
AFIX  43
H11   2    0.886549    0.358350    1.131182    11.00000   -1.20000
AFIX   0
C12   1    0.616181    0.326648    1.012105    11.00000    0.02871    0.02392 =
         0.02176    0.00252    0.00825    0.00137
AFIX  43
H12   2    0.579427    0.258208    1.088965    11.00000   -1.20000
AFIX   0
C13   1    0.482912    0.366621    0.873859    11.00000    0.01998    0.02070 =
         0.02202   -0.00109    0.00565    0.00136
N14   3    0.300335    0.303619    0.853957    11.00000    0.02251    0.03210 =
         0.02916    0.01152    0.00124   -0.00584
H14A  2    0.289987    0.223972    0.909294    11.00000   -1.20000
H14B  2    0.227908    0.299890    0.751361    11.00000   -1.20000
HKLF 4
 
REM  med-1163f2_scale_a.res in P2(1)
REM R1 =  0.0380 for    1663 Fo > 4sig(Fo)  and  0.0471 for all    1859 data
REM    133 parameters refined using      1 restraints
 
END  
     
WGHT      0.0322      0.0182 

REM Highest difference peak  0.155,  deepest hole -0.181,  1-sigma level  0.038
Q1    1   0.4758  0.4986  0.6888  11.00000  0.05    0.15
Q2    1   0.0667  0.6611  0.1993  11.00000  0.05    0.15
Q3    1   0.6024  0.5366  0.7871  11.00000  0.05    0.14
Q4    1   0.5588  0.2086  0.8176  11.00000  0.05    0.14
Q5    1   0.6368  0.4635  0.7506  11.00000  0.05    0.14
Q6    1   0.4979  0.4341  0.8253  11.00000  0.05    0.13
Q7    1   0.2892  0.4748  0.5963  11.00000  0.05    0.13
Q8    1   0.5252  0.3957  0.9667  11.00000  0.05    0.12
Q9    1   0.4462  0.4903  0.5357  11.00000  0.05    0.12
Q10   1   0.5669  0.3134  0.9167  11.00000  0.05    0.12
Q11   1   0.0217  0.7594  0.1165  11.00000  0.05    0.12
Q12   1   0.2353  0.3899  0.9514  11.00000  0.05    0.12
Q13   1   0.3443  0.4020  0.1851  11.00000  0.05    0.11
Q14   1   0.2159  0.3808  0.0889  11.00000  0.05    0.11
Q15   1   0.5395  0.5356  0.1906  11.00000  0.05    0.11
Q16   1   0.2598  0.2407  0.3541  11.00000  0.05    0.11
Q17   1   0.3055  0.7828  0.3423  11.00000  0.05    0.11
Q18   1   0.6246  0.4856  0.4563  11.00000  0.05    0.11
Q19   1   0.4294  0.3159  0.8489  11.00000  0.05    0.11
Q20   1   0.9979  0.4893  0.9166  11.00000  0.05    0.11

  REM The information below was added by Olex2.
  REM
  REM R1 = 0.0380 for 1663 Fo > 4sig(Fo) and 0.0471 for all 3831 data
  REM n/a parameters refined using n/a restraints
  REM Highest difference peak 0.15, deepest hole -0.18
  REM Mean Shift 0, Max Shift 0.000.

  REM +++ Tabular Listing of Refinement Information +++
  REM R1_all = 0.0471
  REM R1_gt = 0.0380
  REM wR_ref = 0.0806
  REM GOOF = 1.093
  REM Shift_max = 0.000
  REM Shift_mean = 0
  REM Reflections_all = 3831
  REM Reflections_gt = 1663
  REM Parameters = n/a
  REM Hole = -0.18
  REM Peak = 0.15
  REM Flack = 0.5(10)

  
;
_cod_data_source_file            jo8b01940_si_008.cif
_cod_data_source_block           MED-1163F2_scale
_cod_database_code               4035265
_shelxl_version_number           2014/6
_shelx_space_group_comment
;
The symmetry employed for this shelxl refinement is uniquely defined
by the following loop, which should always be used as a source of
symmetry information in preference to the above space-group names.
They are only intended as comments.
;
_reflns_odcompleteness_completeness 99.72
_reflns_odcompleteness_iscentric 1
_reflns_odcompleteness_theta     26.32
_olex2_refinement_description
;
1. Fixed Uiso
 At 1.2 times of:
  All C(H) groups, All C(H,H) groups, All N(H,H) groups
2.a Secondary CH2 refined with riding coordinates:
 C1(H1A,H1B), C2(H2A,H2B), C3(H3A,H3B)
2.b Aromatic/amide H refined with riding coordinates:
 C5(H5), C9(H9), C10(H10), C11(H11), C12(H12)
;
_ins_header
;
TITL MED-1163F2_scale in P2(1)/m 
REM P2(1)/m (#11 in standard setting)
CELL 0.71073   7.053846   8.454304   8.300489  90.0000  99.7251  90.0000
ZERR    2.00   0.000659   0.000729   0.001003   0.0000   0.0097   0.0000
LATT  1
SYMM -x, y+1/2,-z 
SFAC C H O
UNIT 24.00 24.00 4.00
TREF
HKLF 4
END
;
_olex2_submission_special_instructions 'No special instructions were received'
_oxdiff_exptl_absorpt_empirical_details
;
Empirical correction (ABSPACK) includes:
- Absorption correction using spherical harmonics
- Frame scaling
;
_oxdiff_exptl_absorpt_empirical_full_max 1.068
_oxdiff_exptl_absorpt_empirical_full_min 0.961
loop_
_space_group_symop_operation_xyz
'x, y, z'
'-x, y+1/2, -z'
loop_
_atom_site_label
_atom_site_type_symbol
_atom_site_fract_x
_atom_site_fract_y
_atom_site_fract_z
_atom_site_U_iso_or_equiv
_atom_site_adp_type
_atom_site_occupancy
_atom_site_site_symmetry_order
_atom_site_calc_flag
_atom_site_refinement_flags_posn
C1 C 0.1691(3) 0.6246(3) 0.3103(3) 0.0245(6) Uani 1 1 d .
H1A H 0.2239 0.7254 0.2866 0.029 Uiso 1 1 calc R
H1B H 0.0593 0.6043 0.2254 0.029 Uiso 1 1 calc R
C2 C 0.3181(4) 0.4955(3) 0.3056(3) 0.0299(6) Uani 1 1 d .
H2A H 0.2583 0.3926 0.3101 0.036 Uiso 1 1 calc R
H2B H 0.3683 0.5022 0.2040 0.036 Uiso 1 1 calc R
C3 C 0.4817(4) 0.5132(3) 0.4492(3) 0.0305(7) Uani 1 1 d .
H3A H 0.5687 0.4242 0.4512 0.037 Uiso 1 1 calc R
H3B H 0.5533 0.6088 0.4354 0.037 Uiso 1 1 calc R
C4 C 0.4082(3) 0.5211(2) 0.6089(3) 0.0190(6) Uani 1 1 d .
C5 C 0.2302(3) 0.5749(3) 0.6147(3) 0.0221(6) Uani 1 1 d .
H5 H 0.1868 0.5736 0.7145 0.026 Uiso 1 1 calc R
C6 C 0.1020(3) 0.6353(3) 0.4713(3) 0.0235(6) Uani 1 1 d .
O7 O -0.0516(2) 0.6985(2) 0.4841(2) 0.0335(5) Uani 1 1 d .
C8 C 0.5410(3) 0.4717(3) 0.7589(3) 0.0188(5) Uani 1 1 d .
C9 C 0.7301(4) 0.5274(3) 0.7857(3) 0.0218(6) Uani 1 1 d .
H9 H 0.7702 0.5934 0.7083 0.026 Uiso 1 1 calc R
C10 C 0.8593(3) 0.4871(3) 0.9238(3) 0.0238(6) Uani 1 1 d .
H10 H 0.9838 0.5273 0.9403 0.029 Uiso 1 1 calc R
C11 C 0.8010(4) 0.3861(3) 1.0376(3) 0.0249(6) Uani 1 1 d .
H11 H 0.8865 0.3584 1.1312 0.030 Uiso 1 1 calc R
C12 C 0.6162(3) 0.3266(3) 1.0121(3) 0.0243(6) Uani 1 1 d .
H12 H 0.5794 0.2582 1.0890 0.029 Uiso 1 1 calc R
C13 C 0.4829(3) 0.3666(3) 0.8739(3) 0.0207(6) Uani 1 1 d .
N14 N 0.3003(3) 0.3036(3) 0.8540(3) 0.0283(6) Uani 1 1 d .
H14A H 0.290(4) 0.224(3) 0.909(4) 0.034 Uiso 1 1 d R
H14B H 0.228(4) 0.300(3) 0.751(4) 0.034 Uiso 1 1 d R
loop_
_atom_site_aniso_label
_atom_site_aniso_U_11
_atom_site_aniso_U_22
_atom_site_aniso_U_33
_atom_site_aniso_U_23
_atom_site_aniso_U_13
_atom_site_aniso_U_12
C1 0.0246(14) 0.0265(13) 0.0210(15) 0.0014(11) 0.0003(11) -0.0030(11)
C2 0.0380(15) 0.0312(14) 0.0214(15) 0.0000(12) 0.0074(12) 0.0060(13)
C3 0.0294(14) 0.0394(16) 0.0242(16) 0.0050(12) 0.0090(12) 0.0104(12)
C4 0.0224(13) 0.0160(12) 0.0186(15) 0.0006(9) 0.0032(11) -0.0026(10)
C5 0.0251(14) 0.0240(12) 0.0177(14) 0.0010(10) 0.0052(11) -0.0010(10)
C6 0.0213(12) 0.0207(12) 0.0274(15) 0.0023(10) 0.0011(11) -0.0024(10)
O7 0.0243(10) 0.0440(11) 0.0324(12) 0.0087(9) 0.0053(9) 0.0100(9)
C8 0.0186(12) 0.0180(12) 0.0210(14) -0.0019(11) 0.0068(10) 0.0032(10)
C9 0.0235(13) 0.0203(13) 0.0231(15) -0.0006(10) 0.0088(11) -0.0001(10)
C10 0.0208(12) 0.0231(13) 0.0272(15) -0.0062(11) 0.0032(11) -0.0029(11)
C11 0.0267(14) 0.0245(13) 0.0214(15) -0.0018(11) -0.0015(11) 0.0010(11)
C12 0.0287(14) 0.0239(13) 0.0218(15) 0.0025(11) 0.0082(12) 0.0014(11)
C13 0.0200(12) 0.0207(13) 0.0220(15) -0.0011(11) 0.0056(11) 0.0014(10)
N14 0.0225(12) 0.0321(13) 0.0292(15) 0.0115(11) 0.0012(10) -0.0058(10)
loop_
_atom_type_symbol
_atom_type_description
_atom_type_scat_dispersion_real
_atom_type_scat_dispersion_imag
_atom_type_scat_source
C C 0.0033 0.0016 'International Tables Vol C Tables 4.2.6.8 and 6.1.1.4'
H H 0.0000 0.0000 'International Tables Vol C Tables 4.2.6.8 and 6.1.1.4'
N N 0.0061 0.0033 'International Tables Vol C Tables 4.2.6.8 and 6.1.1.4'
O O 0.0106 0.0060 'International Tables Vol C Tables 4.2.6.8 and 6.1.1.4'
loop_
_exptl_crystal_face_index_h
_exptl_crystal_face_index_k
_exptl_crystal_face_index_l
_exptl_crystal_face_perp_dist
-9 0 -2 0.0869
10 0 0 0.1314
2 -1 11 0.1264
4 -5 -10 0.1063
4 -11 -2 0.2045
-1 9 -7 0.1850
0 7 9 0.1393
0 -10 -7 0.1643
9 3 -7 0.1675
-1 -12 1 0.2440
-7 8 5 0.1782
-6 -1 11 0.1764
7 3 -10 0.1586
-4 -3 -9 0.0986
loop_
_geom_angle_atom_site_label_1
_geom_angle_atom_site_label_2
_geom_angle_atom_site_label_3
_geom_angle
H1A C1 H1B 107.8
C2 C1 H1A 109.0
C2 C1 H1B 109.0
C6 C1 H1A 109.0
C6 C1 H1B 109.0
C6 C1 C2 113.0(2)
C1 C2 H2A 109.6
C1 C2 H2B 109.6
H2A C2 H2B 108.1
C3 C2 C1 110.2(2)
C3 C2 H2A 109.6
C3 C2 H2B 109.6
C2 C3 H3A 109.3
C2 C3 H3B 109.3
H3A C3 H3B 108.0
C4 C3 C2 111.5(2)
C4 C3 H3A 109.3
C4 C3 H3B 109.3
C5 C4 C3 120.7(2)
C5 C4 C8 121.7(2)
C8 C4 C3 117.6(2)
C4 C5 H5 118.6
C4 C5 C6 122.9(2)
C6 C5 H5 118.6
C5 C6 C1 117.5(2)
O7 C6 C1 121.4(2)
O7 C6 C5 121.0(2)
C9 C8 C4 119.3(2)
C9 C8 C13 118.8(2)
C13 C8 C4 121.9(2)
C8 C9 H9 119.1
C10 C9 C8 121.8(2)
C10 C9 H9 119.1
C9 C10 H10 120.4
C9 C10 C11 119.2(2)
C11 C10 H10 120.4
C10 C11 H11 119.9
C12 C11 C10 120.1(2)
C12 C11 H11 119.9
C11 C12 H12 119.2
C11 C12 C13 121.7(2)
C13 C12 H12 119.2
C12 C13 C8 118.4(2)
N14 C13 C8 122.2(2)
N14 C13 C12 119.4(2)
C13 N14 H14A 114.7(19)
C13 N14 H14B 119.2(17)
H14A N14 H14B 114(3)
loop_
_geom_bond_atom_site_label_1
_geom_bond_atom_site_label_2
_geom_bond_distance
C1 H1A 0.9700
C1 H1B 0.9700
C1 C2 1.520(3)
C1 C6 1.494(4)
C2 H2A 0.9700
C2 H2B 0.9700
C2 C3 1.520(4)
C3 H3A 0.9700
C3 H3B 0.9700
C3 C4 1.504(4)
C4 C5 1.344(3)
C4 C8 1.486(3)
C5 H5 0.9300
C5 C6 1.460(3)
C6 O7 1.228(3)
C8 C9 1.396(3)
C8 C13 1.414(3)
C9 H9 0.9300
C9 C10 1.381(4)
C10 H10 0.9300
C10 C11 1.386(3)
C11 H11 0.9300
C11 C12 1.380(3)
C12 H12 0.9300
C12 C13 1.397(3)
C13 N14 1.378(3)
N14 H14A 0.83(3)
N14 H14B 0.92(3)
loop_
_refln_index_h
_refln_index_k
_refln_index_l
_refln_F_squared_meas
_refln_F_squared_sigma
0 0 -2 659.13 14.34
0 0 2 692.83 14.69
0 0 -3 96.52 6.99
0 0 3 103.33 7.51
0 0 -4 253.69 13.03
0 0 4 258.86 13.02
0 0 5 104.5 9.76
0 0 -5 109.62 9.85
0 0 -6 26.5 6.24
0 0 6 25.21 5.77
0 0 -6 26.72 5.87
0 0 7 6.4 4.36
0 0 8 26.94 7.39
0 0 9 -8.91 5.04
0 0 10 20.93 8.95
0 1 1 2103.97 18.47
0 -1 -1 2154.09 21.21
0 1 1 2141.65 21.2
0 -1 1 2103.38 19.32
0 1 -1 2083.76 19.25
0 -1 -2 1182.15 19.41
0 -1 -2 1240.73 21.12
0 1 2 1198.4 20.73
0 1 -2 1181.49 19.97
0 -1 2 1228.35 20.24
0 1 2 1170.84 18.68
0 -1 -3 16 3.75
0 -1 -3 15.39 3.27
0 -1 3 14.08 3.74
0 1 3 16.91 3.67
0 1 -3 10.62 2.91
0 -1 -4 332.21 15.47
0 -1 -4 324.7 14.83
0 1 4 335.53 14.63
0 -1 4 323.81 14.74
0 1 -4 332.99 14.77
0 -1 5 176.05 12.53
0 -1 -5 174.03 12.28
0 -1 -5 178.63 12.85
0 1 -5 154.13 11.64
0 1 5 183.27 12.42
0 1 6 1375.31 36.84
0 -1 -6 1384.58 38.95
0 -1 -6 1393.08 37.92
0 -1 6 1372.67 37.62
0 -1 7 1233.82 39.16
0 1 7 1226.79 38.18
0 1 8 64.92 10.49
0 -1 8 59.2 10.59
0 1 9 13.91 7.37
0 -1 9 10.75 5.96
0 1 10 19.91 7.27
0 -1 10 13.32 7
0 2 0 3415.59 19.51
0 2 0 3545.96 30.51
0 -2 0 3420.01 19.47
0 2 0 3496.37 19.62
0 2 -1 8945.32 44.08
0 -2 1 8969.81 44.01
0 2 1 9027.32 53.02
0 -2 -1 9098.75 52.47
0 -2 -1 8915.42 40.77
0 2 1 8870.77 40.75
0 -2 -2 979.04 20.18
0 2 -2 969.37 18.74
0 -2 2 982.61 19.16
0 -2 -2 959.03 17.8
0 2 2 936.02 17.66
0 2 2 956.66 20.36
0 -2 -3 554.12 16.52
0 -2 -3 571.08 18.17
0 2 3 577.11 16.25
0 -2 3 596.89 17.92
0 2 3 578.69 18.35
0 2 -3 549.18 17.06
0 2 4 81.07 7.46
0 -2 -4 96.85 8.22
0 -2 -4 80.65 8.14
0 2 -4 95.42 8.37
0 -2 4 97.91 8.63
0 -2 -5 252.81 14.81
0 2 -5 236.1 14.24
0 -2 -5 268.23 15.84
0 -2 5 262.69 15.24
0 2 5 250.93 14.25
0 -2 -6 616.29 25.39
0 2 6 594.1 24.16
0 -2 6 568.72 24.94
0 2 7 192.33 15.27
0 -2 7 197.82 16.38
0 2 8 86.23 11.96
0 -2 8 131.59 14.92
0 -2 9 20.22 7.57
0 2 9 24.51 7.5
0 2 10 39.93 10.05
0 -2 10 74.46 12.35
0 3 0 0.32 0.95
0 3 0 -0.23 1.05
0 3 0 2.4 2.52
0 -3 -1 491.48 10.45
0 -3 1 466.41 11.13
0 3 -1 486.48 11.33
0 -3 -1 454 13.96
0 3 1 467.46 10.29
0 3 1 470.52 14.56
0 3 2 152.07 9.26
0 -3 -2 146.98 8.98
0 3 -2 142.75 7.79
0 -3 2 154.07 8.1
0 -3 -2 143.44 7.27
0 3 2 130.3 7.07
0 -3 -3 136.62 8.52
0 3 -3 132.35 8.81
0 -3 -3 125.62 9.13
0 -3 3 121.84 8.72
0 3 3 120.74 9.43
0 3 3 124.74 8.21
0 3 -4 29.36 5.18
0 -3 4 35.42 5.64
0 -3 -4 28.51 5.05
0 -3 -4 30.55 4.86
0 3 4 28.09 5.81
0 3 4 29.02 4.91
0 -3 -5 699.34 26.09
0 3 -5 659.12 23.74
0 -3 5 637 24.42
0 -3 -5 654.15 23.74
0 3 5 623.61 22.23
0 3 6 684.65 25.98
0 -3 6 732.78 28.67
0 3 7 0.92 4
0 -3 7 4.19 4.66
0 -3 8 108.54 13.55
0 3 8 99.98 12.53
0 3 9 -7.05 5.16
0 -3 9 4.41 5.84
0 3 10 31.21 9.39
0 4 0 587.74 11.27
0 4 0 538.85 17.4
0 4 0 546.74 10.81
0 4 1 376.99 9.87
0 -4 -1 374.76 14.6
0 -4 1 357.81 10.61
0 4 -1 389.96 15.2
0 4 1 373.21 14.88
0 4 -1 371.05 10.72
0 4 1 369.7 8.88
0 -4 -1 362.47 9.58
0 -4 2 328.12 12.31
0 4 2 313.18 14.5
0 4 -2 301.81 11.62
0 -4 -2 301.66 13.92
0 -4 -2 316.14 10.96
0 4 2 300.97 10.71
0 4 3 139.07 10.61
0 4 3 124.41 8.18
0 -4 -3 138 8.58
0 -4 -3 134.37 10.08
0 -4 3 158.66 9.95
0 4 -3 129.87 9.05
0 4 4 415.53 19.9
0 4 4 434.77 16.31
0 4 -4 448.1 18.67
0 -4 4 434.8 18.23
0 -4 -4 441.24 17.54
0 -4 -4 425.13 19.44
0 -4 -5 373.8 19.79
0 -4 5 454.89 20.71
0 4 -5 409.42 19.87
0 4 5 396.25 20.98
0 4 5 394.31 17.64
0 -4 -5 415.68 19.21
0 4 6 177.67 13.53
0 -4 6 187.33 15.21
0 -4 7 182.8 16.14
0 4 7 174.89 14.51
0 -4 8 42.64 8.96
0 4 8 41.97 7.85
0 4 9 -5.42 5.01
0 -4 9 -4.41 2.79
0 4 10 1.68 4.37
0 5 0 -3.05 3.08
0 5 0 -0.2 1.12
0 5 0 -0.44 1.1
0 -5 1 427.44 12.33
0 5 -1 430.99 17.65
0 -5 -1 450.96 17.95
0 5 1 434.86 17.8
0 5 1 423.67 11.06
0 5 1 435.94 10.1
0 5 -1 438.77 12.47
0 5 2 369.8 17.24
0 -5 -2 403.54 17.68
0 5 2 391.12 12.59
0 -5 2 395.81 14.08
0 -5 -2 383.94 12.42
0 5 -2 402.64 14.02
0 -5 3 70.62 7.17
0 5 3 61.63 6.13
0 5 3 53.82 7.73
0 -5 -3 75.29 8.32
0 -5 -3 58.96 5.82
0 5 -3 57.57 6.13
0 -5 -4 51.37 7.31
0 -5 4 62.84 7.57
0 5 -4 53.51 6.98
0 5 4 51.52 8.15
0 5 4 54.98 6.28
0 -5 -4 59.96 6.92
0 5 5 122.5 12.66
0 5 -5 110.48 10.91
0 5 5 115.08 9.93
0 -5 -5 111.48 10.21
0 -5 5 119.49 11.39
0 5 6 166.13 12.87
0 5 6 139.14 14.38
0 -5 6 143.78 13.61
0 -5 7 14.39 6.28
0 5 7 17.23 5.18
0 5 8 7.69 4.49
0 -5 8 11.32 6.15
0 -5 9 0.95 4.88
0 5 9 0.9 1.96
0 5 10 -15.26 7.01
0 6 0 1010.94 29.41
0 6 0 1000.53 16.84
0 6 0 1019.84 17
0 6 1 15.15 2.48
0 6 1 14.32 2.09
0 6 -1 7.59 2.25
0 6 -1 12.84 4.56
0 6 -1 13.08 2.62
0 6 1 13.1 4.27
0 -6 1 12.83 2.96
0 6 2 164.03 12.81
0 6 2 176.99 8.76
0 -6 2 195.25 10.4
0 -6 -2 181.48 8.73
0 6 2 185.04 7.65
0 -6 -2 198.2 13.63
0 6 -2 175.87 13.19
0 6 -2 174.97 9.83
0 6 -3 36.46 5.41
0 6 3 48.2 5.46
0 -6 3 54.23 6.52
0 -6 -3 39.33 6.49
0 6 3 45.39 7.59
0 -6 -3 47.56 5.44
0 6 4 51.27 5.91
0 -6 4 72 8.36
0 6 -4 58.9 7.37
0 -6 -4 71.68 7.57
0 6 4 71.95 9.7
0 6 5 77.5 10.82
0 -6 -5 63.36 7.83
0 6 -5 60.86 7.97
0 6 5 62.86 7.26
0 -6 5 67.99 8.91
0 -6 6 2.77 3.51
0 6 6 10.19 5.57
0 6 6 2.3 2.32
0 -6 7 22.17 7.03
0 6 7 32.41 6.89
0 6 8 19.76 6.82
0 -6 8 15.49 6.22
0 -6 9 29.15 9.17
0 6 9 55.51 9.92
0 7 0 -0.04 1.17
0 7 0 -0.86 0.95
0 7 0 0.19 3.79
0 7 -1 29.24 3.58
0 7 1 26.98 3.15
0 7 1 25.9 6.24
0 7 -1 25.55 6.47
0 7 -1 26.17 3.42
0 7 1 27.07 2.74
0 7 -2 228.14 15.91
0 7 2 228.99 8.01
0 -7 2 239.71 11.9
0 7 2 239.34 9.95
0 7 2 231.92 16.26
0 7 -2 244.82 11.83
0 7 -3 7.38 2.12
0 7 3 4.91 4.51
0 7 3 11.63 2.6
0 -7 -3 11.16 3.13
0 -7 3 9.53 3.33
0 7 3 5.73 2.15
0 7 -4 5.43 2.35
0 7 4 2.43 3.96
0 -7 4 -4.3 2.96
0 -7 -4 -2.64 2.07
0 7 4 0.26 2.01
0 7 5 39.77 5.9
0 7 5 57.62 9.98
0 -7 5 57.92 8.68
0 -7 -5 52.27 7.45
0 -7 6 34.83 7.7
0 7 6 24.22 7.4
0 7 6 35.98 5.88
0 7 7 144.6 12.97
0 -7 7 128.89 14.57
0 -7 8 14.3 6.01
0 8 0 223.83 7.34
0 8 0 221.45 7.4
0 8 0 227.74 16.96
0 8 1 19.86 2.61
0 8 -1 30.43 7.19
0 8 1 19.79 1.73
0 8 -1 22.32 3.28
0 8 -1 22.22 3
0 8 1 19.14 6.14
0 8 2 9.98 4.97
0 8 -2 0.83 3.13
0 8 -2 5.99 2.08
0 -8 2 0.72 1.72
0 8 -2 5.85 2.38
0 8 2 3.03 1.04
0 8 2 2.44 1
0 8 3 23.51 7.11
0 -8 3 32.23 5.6
0 8 -3 38.95 8.33
0 8 3 32.23 3.47
0 8 4 12.86 6.42
0 -8 4 6.92 3.57
0 -8 5 132.83 12.73
0 8 5 119.86 14.69
0 8 6 24.98 7.96
0 -8 6 17.03 6.33
0 -8 7 -7.06 3.91
0 8 7 -5.74 4.06
0 -8 8 97.19 13.35
0 9 0 5.87 4.26
0 9 -1 21.15 7.11
0 9 1 31.15 7.7
0 9 2 36.76 8.49
0 9 -2 60.28 10.12
0 9 3 6.36 4.19
0 9 -3 13.24 6.05
0 9 4 22.17 6.31
0 9 -4 41.78 9.09
0 9 5 21.18 6.51
0 9 -5 28.02 8.58
0 9 6 24.8 8.29
0 10 0 62.05 11.31
0 10 -1 46.51 9.01
0 10 1 33.01 8.9
0 10 2 7.39 5.71
0 10 -2 22.61 6.99
0 10 3 12.27 5.91
0 10 -3 -5.12 4.73
0 10 -4 17.86 6.56
0 10 4 19.02 6.48
0 10 5 5.83 4.08
0 11 0 -13.2 5.59
0 11 1 20.81 8.62
0 11 -1 15.22 7.12
0 11 2 -6.64 6.25
0 11 -2 5.59 4.01
-1 0 10 20.29 7.91
-1 0 9 703.05 34.34
-1 0 8 599.14 29.05
-1 0 7 66.58 9.59
1 0 -6 4.18 3.37
-1 0 6 0.82 2.49
-1 0 5 159.99 11.79
1 0 -5 153.11 11.47
-1 0 4 1142.53 26.9
1 0 -4 1139.51 27.53
-1 0 3 3058.41 38.67
1 0 -3 3088.07 38.79
1 0 -2 218.38 8.74
-1 0 2 232.01 9.25
-1 0 1 1.69 1.8
1 0 -1 0.08 1.56
1 0 1 1606.49 19.04
-1 0 -1 1520.76 19.37
-1 0 -1 1534.35 18.91
1 0 1 1529.95 19.4
1 0 2 1424.78 23.3
-1 0 -2 1472.14 23.97
-1 0 -2 1445.58 23.23
-1 0 -3 1385.49 28.09
1 0 3 1407.75 27.12
-1 0 -3 1410.06 27.34
1 0 4 9.44 4.26
-1 0 -4 5.73 3.05
-1 0 -4 4.57 2.87
-1 0 -5 1009.85 29.51
1 0 5 995.93 29.5
-1 0 -5 1015.28 30.89
1 0 6 471.48 22.63
1 0 7 543.09 26.79
1 0 8 79.87 11.37
1 0 9 47.18 10.56
1 0 10 -2.04 5.45
-1 1 10 84.02 13.84
-1 -1 10 71.35 12.83
-1 1 9 219.96 19.2
-1 -1 9 227.91 20.02
-1 -1 8 9.86 4.99
-1 1 8 14.37 6.27
-1 -1 7 589.94 26.87
-1 1 7 607.13 27.15
1 -1 -6 15.13 4.36
1 -1 -6 21.01 5.28
-1 1 6 15.33 5.61
-1 -1 6 15.38 5.03
1 1 -6 17 5.3
-1 -1 5 55.05 7.19
1 1 -5 57.84 7.42
-1 1 5 57.85 7.63
1 -1 -5 68.13 8.04
1 -1 -5 59.96 7.33
1 1 -4 455.15 17.21
1 -1 -4 424.13 16.48
-1 1 4 432.17 17.14
-1 -1 4 452.05 17.25
1 -1 -4 420.61 16.96
-1 -1 3 1950.67 29.76
1 1 -3 1957.61 30.65
-1 1 3 1981.02 31.56
1 -1 -3 1937.86 29.45
1 -1 -3 1919.34 31.47
1 -1 -2 2190.82 28.53
-1 1 2 2178.62 29.09
1 1 -2 2221.39 26.54
1 -1 -2 2234.32 25.14
-1 -1 2 2180.12 26.2
1 -1 -1 6544.44 41.85
1 -1 -1 6754.06 28.54
-1 -1 1 6759.29 34.64
-1 1 1 6668.24 41.88
1 1 -1 6668.75 34.59
-1 -1 0 505.6 7.76
1 1 0 548.12 11.04
-1 1 0 503.67 10.88
-1 -1 0 510.42 10.74
1 -1 0 518.08 11.12
-1 -1 -1 1063.05 14.46
-1 1 -1 1137.42 18.4
1 -1 1 1123.04 18.5
-1 -1 -1 1093.56 18.2
1 1 1 1115.95 14.77
1 1 1 1113.42 18.61
1 -1 2 287.12 11.17
-1 -1 -2 279.71 11.33
-1 -1 -2 273.69 9.57
1 1 2 278.21 11.65
-1 1 -2 283.59 11.04
1 1 2 269.27 9.64
1 1 3 1112.05 23.29
-1 1 -3 1080.6 24.7
-1 -1 -3 1112.96 23.3
-1 -1 -3 1104.88 25.83
1 -1 3 1142.48 25.53
-1 -1 -4 878.13 24.11
1 1 4 910.86 24.52
-1 1 -4 916.11 26.03
-1 -1 -4 927.54 26.99
1 -1 4 939.58 26.17
-1 1 -5 481.42 21.14
1 -1 5 482.82 21.04
1 1 5 463.7 19.75
-1 -1 -5 480.41 20.39
-1 -1 -5 507.11 22.18
1 1 6 80.9 9.68
1 -1 6 76.07 9.9
1 -1 7 83.85 11.63
1 1 7 80.29 10.89
1 -1 8 55.29 10.24
1 1 8 38.89 8.4
1 -1 9 -1.51 4.36
1 1 9 8.25 5.67
1 1 10 59.49 12.07
-1 -2 10 105.4 15.54
-1 2 10 116.91 15.6
-1 2 9 59.97 10.86
-1 -2 9 84.45 13.01
-1 2 8 174.94 16.4
-1 -2 8 163.25 16.11
-1 2 7 421.15 22.47
-1 -2 7 433.98 23.14
1 2 -6 36.15 6.69
-1 2 6 33.75 6.91
1 -2 -6 43.28 7.26
-1 -2 6 25.55 6.12
1 -2 -6 37.6 6.95
1 2 -5 81.83 8.48
-1 -2 5 81.74 8.67
1 -2 -5 76.8 8.69
-1 2 5 89.04 9.04
1 -2 -5 82.62 8.65
1 -2 -4 520.17 19.09
1 -2 -4 476.73 17.89
-1 -2 4 512.87 18.49
-1 2 4 486.66 18.47
1 2 -4 484.14 17.79
1 2 -3 347.87 12.89
1 -2 -3 337.9 13.67
-1 -2 3 363.12 13.58
-1 2 3 345.14 13.9
1 -2 -3 349.3 12.99
1 -2 -2 2299.13 30.24
1 2 -2 2280.39 26.41
-1 -2 2 2330.34 27.9
1 -2 -2 2308.48 27.42
-1 2 2 2321.94 30.77
-1 2 2 2341.7 28.19
1 -2 -1 9678.08 55.79
1 -2 -1 9880.31 45.17
-1 2 1 9841.68 55.53
-1 2 1 9999 45.83
-1 -2 1 9929.32 37.45
1 2 -1 9854.09 38.84
1 -2 0 4506.11 35.91
-1 -2 0 4521.32 39.52
1 2 0 4553.63 40.05
-1 2 0 4356.88 28.86
-1 2 0 4406.68 35.32
-1 -2 -1 1264.61 22.55
1 2 1 1232.56 22.65
-1 -2 -1 1204.8 13.24
1 -2 1 1253.68 21.37
1 2 1 1263.36 13.61
-1 2 -1 1201.61 20.58
1 -2 2 1090.07 22.65
-1 -2 -2 1068.4 23.63
-1 -2 -2 1065.45 17.87
1 2 2 1086.57 24.09
1 2 2 1069.4 18.03
-1 2 -2 1123.7 23.03
1 -2 3 880.44 23.1
-1 2 -3 862.33 22.99
1 2 3 848.77 19.9
-1 -2 -3 827.66 20.04
1 2 3 827.28 24.02
-1 -2 -3 839.87 23.57
1 -2 4 369.19 16.89
1 2 4 363.72 15.28
-1 -2 -4 375.09 17.69
-1 -2 -4 368.82 15.79
1 2 4 378.33 18.04
-1 2 -4 392 17.48
1 -2 5 291.82 16.82
-1 -2 -5 272.97 15.48
-1 2 -5 275.92 16.26
1 2 5 308.88 16.18
-1 -2 -5 284.84 16.97
1 2 6 300.08 17.64
1 -2 6 284.58 18.24
1 2 7 109.43 12.19
1 -2 7 129.98 13.89
1 -2 8 12.99 6.63
1 2 8 28.52 7.91
1 2 9 1.9 5.41
1 -2 9 1.58 5.01
1 2 10 46.5 10.39
-1 -3 10 2.88 3.72
-1 3 10 -1.71 4.96
-1 3 9 8.69 5.78
-1 -3 9 24.55 7.42
-1 -3 8 40.81 8.58
-1 3 8 32.24 7.76
-1 -3 7 366.14 21.67
-1 3 7 379.83 21.52
-1 3 6 355.88 19.23
1 -3 -6 327.85 19.04
-1 -3 6 336.66 18.95
1 3 -6 354.59 19.33
1 3 -5 131.62 10.73
-1 -3 5 117.34 10.3
-1 3 5 117.02 10.43
1 -3 -5 126.56 10.93
1 -3 -5 114.92 10.32
-1 -3 4 56.12 6.62
1 3 -4 65.97 6.92
-1 3 4 58.62 7.04
1 -3 -4 54.8 6.51
1 -3 -4 71.07 7.4
1 -3 -3 2350.44 36.69
-1 -3 3 2523.29 35.66
1 -3 -3 2289.62 35.28
-1 3 3 2454.01 37.31
-1 3 3 2267.68 36.26
1 3 -3 2358.54 33.35
1 -3 -2 1444.66 24.36
1 -3 -2 1447.18 25.45
1 3 -2 1423.2 20.83
-1 -3 2 1407.38 21.94
-1 3 2 1446.23 25.53
-1 3 2 1417.64 24.73
1 -3 -1 9.82 2.27
1 3 -1 12.18 1.52
1 -3 -1 12.98 2.65
-1 -3 1 13.31 1.91
-1 3 1 10.89 2.55
1 3 -1 14.9 3.62
-1 3 1 11.29 2.83
1 -3 0 1629.73 23.85
-1 -3 0 1695.31 28.68
-1 3 0 1597.81 23.38
-1 3 0 1671.16 23.11
-1 3 0 1584.7 23.4
1 3 0 1648.45 28.45
-1 3 -1 615.05 15.87
1 -3 1 622 16.22
-1 -3 -1 631.01 18.31
-1 -3 -1 585.09 9.59
1 3 1 606.12 18.34
1 3 1 606.46 7.6
1 -3 2 125.3 8.55
1 3 2 110.23 8.85
-1 3 -2 104.14 7.59
1 3 2 107.7 5.59
-1 -3 -2 118.27 8.73
-1 -3 -2 116.98 6.33
1 3 3 12.96 3.02
1 3 3 12.21 4.8
1 -3 3 18.42 4.47
-1 -3 -3 14.67 3.26
-1 3 -3 15.45 3.66
-1 -3 -3 12.31 3.45
1 3 4 54.73 7.75
-1 -3 -4 48 6.12
1 -3 4 50.99 6.94
-1 -3 -4 63.57 7.92
1 3 4 54.77 6.27
-1 3 -4 59.26 7.24
1 -3 5 18.03 5.55
-1 -3 -5 14.05 4.54
1 3 5 16.69 5.5
-1 -3 -5 24.57 5.34
1 3 5 24.03 4.99
-1 3 -5 16.98 4.22
1 3 6 635.1 25.11
1 -3 6 680.32 28.29
1 3 7 50.33 8.7
1 -3 7 67.74 10.54
1 3 8 104.26 12.86
1 -3 8 76.37 11.89
1 3 9 163.46 17.31
1 -3 9 180.61 18.19
1 3 10 57.76 11.26
-1 4 10 29.4 8.68
-1 4 9 10.83 5.83
-1 -4 9 -1.52 4.54
-1 4 8 135.65 14.54
-1 -4 8 139.44 15.3
-1 4 7 18.21 6.16
-1 -4 7 14.9 6.06
-1 -4 6 239.53 16.56
-1 4 6 220.82 15.39
1 4 -5 159.51 11.73
-1 -4 5 147.93 11.81
-1 4 5 127.07 11.26
1 -4 -5 129.64 11.24
1 -4 -5 147.09 11.88
1 4 -4 20.35 4.04
1 -4 -4 20.38 4.34
-1 4 4 19.47 4.72
-1 -4 4 22.29 4.76
1 -4 -4 24.88 4.64
-1 4 4 25.62 5.06
-1 4 3 27.01 4.94
-1 -4 3 29.9 4.58
1 -4 -3 28.88 4.82
-1 4 3 24.78 4.61
1 -4 -3 25.66 4.53
1 4 -3 21.56 3.53
-1 4 2 1091.96 24.54
1 4 -2 1114.97 18.44
1 -4 -2 1087.49 23.82
-1 -4 2 1128.51 20.36
1 -4 -2 1083.82 23.43
-1 4 2 1125.46 23.68
-1 4 1 1427.11 23.64
-1 4 1 1540.99 25.43
1 4 -1 1461.83 13.3
1 -4 -1 1471.28 26
1 4 -1 1481.24 30.92
-1 4 1 1468.73 26.34
-1 -4 1 1442.24 16.58
-1 4 0 1253.6 22.55
1 4 0 1240.82 27.95
-1 4 0 1263.1 23.99
-1 4 0 1232.16 22.34
1 4 1 694.96 21.84
-1 -4 -1 672.68 21.27
-1 -4 -1 717.58 9.67
1 -4 1 714.52 18.39
-1 4 -1 693.69 18.07
-1 -4 -2 779.79 15.87
1 4 2 811.6 24.81
-1 -4 -2 800.5 24.34
1 -4 2 829.96 21.98
-1 4 -2 778.33 21.31
1 4 2 768.07 13.34
1 -4 3 386.75 16.96
-1 -4 -3 393.12 13.97
1 4 3 373.8 18.37
1 4 3 385.53 12.63
-1 -4 -3 396.97 18.43
-1 4 -3 377.66 16.51
-1 4 -4 313.92 16.65
1 -4 4 272.56 15.85
-1 -4 -4 289.3 17.16
1 4 4 292.44 13.12
-1 -4 -4 277.5 13.85
1 4 4 296.71 17.69
1 4 5 241.65 13.9
1 -4 5 236.18 16.04
1 4 5 222.67 16.75
-1 -4 -5 217.34 13.88
1 4 6 119.82 11.42
1 -4 6 115.72 12.42
1 4 7 40.77 7.73
1 -4 7 37.46 8.48
1 -4 8 42.28 8.99
1 4 8 31.52 7.43
1 4 9 10.7 6
1 -4 9 12.23 5.75
1 4 10 12.29 6.56
-1 5 10 14.23 6.13
-1 -5 9 66.16 11.65
-1 5 9 52.49 10.68
-1 5 8 15.47 6.17
-1 -5 8 12.77 5.19
-1 5 7 359.19 21.08
-1 -5 7 354.35 22.02
-1 -5 6 80.47 9.98
-1 5 6 89.94 9.98
1 -5 -5 157.01 12.45
1 -5 -5 141.45 12.27
-1 5 5 153.07 12.48
-1 -5 5 161.66 12.57
-1 5 5 151.95 13.11
1 5 -5 151.97 11.56
1 -5 -4 315.52 16.63
1 5 -4 311.1 14.55
-1 -5 4 309.81 15.47
-1 5 4 306.63 17.21
1 -5 -4 329.72 16.25
-1 5 4 314.48 15.93
-1 5 3 128.91 9.51
-1 -5 3 131.1 8.77
1 5 -3 134.52 8.17
1 -5 -3 127.65 9.82
1 -5 -3 141.25 9.73
-1 5 3 124.22 10.48
-1 5 2 79.84 7.72
-1 5 2 94.28 7.47
1 5 -2 98.88 5.58
1 -5 -2 85.64 6.98
-1 -5 2 81.13 5.84
1 -5 -2 94.24 7.88
-1 5 1 80.13 7.33
1 5 -1 80.87 8.49
-1 -5 1 74.77 3.98
-1 5 1 86.29 6.61
-1 5 1 90.14 6.35
1 5 0 62.87 7.57
-1 5 0 67.02 6.69
-1 5 0 66.91 5.64
-1 5 0 68.25 5.88
1 -5 1 61.22 6.12
1 5 1 69.78 7.94
-1 5 -1 64.03 6.87
-1 -5 -1 65.22 7.62
-1 5 -1 67.79 6.14
-1 -5 -2 164.08 7.07
-1 5 -2 161.32 10.33
1 5 2 174.22 12.9
1 5 2 159.25 5.32
1 -5 2 167.55 10.63
-1 -5 -2 172.14 12.43
-1 -5 -3 106.54 7.31
-1 -5 -3 112.24 10.58
-1 5 -3 119.52 9.78
1 5 3 106.34 10.94
1 -5 3 116.25 9.84
1 5 3 100.01 6.24
-1 -5 -4 307.48 14.57
1 -5 4 310.93 17.31
1 5 4 276.26 18.2
1 5 4 326.14 13.47
-1 5 -4 326.93 17.44
1 5 5 98.88 12.12
-1 -5 -5 90.69 9.16
1 5 5 86.04 8.23
1 -5 5 101.34 11.3
1 5 6 117.67 11.15
1 5 6 109.48 13.29
1 -5 6 120.78 13.26
1 5 7 51.16 8.2
1 -5 7 51.05 10.05
1 -5 8 94.31 13.51
1 5 8 72.13 10.74
1 5 9 76.4 11.91
1 -5 9 79.35 13.99
1 5 10 33.55 9.29
-1 6 10 -0.63 3.49
-1 6 9 57.11 10.19
-1 -6 9 62.62 10.79
-1 -6 8 47.05 9.18
-1 6 8 47.37 8.82
-1 -6 7 84.65 11.29
-1 6 7 88.78 10.96
-1 6 6 11.79 6.1
-1 6 6 18.71 5.95
-1 -6 6 18.17 6.14
-1 6 5 29.36 6.96
-1 -6 5 24.28 5.53
1 -6 -5 23.92 5.84
-1 6 5 22.52 5.81
1 6 -5 25.1 5.51
1 -6 -4 15.26 4.36
-1 6 4 7.04 4.25
1 6 -4 14.91 3.66
-1 -6 4 14.35 3.61
1 -6 -4 8.54 3.29
-1 6 4 10.03 3.99
-1 6 3 120.11 10.98
1 -6 -3 130.49 10.92
-1 6 3 119.8 9.52
1 6 -3 134.52 8.21
1 -6 -3 140.22 9.98
-1 -6 3 127.7 8.89
1 -6 -2 95.76 8.54
-1 6 2 99.34 9.45
-1 -6 2 95.06 6.33
-1 6 2 95.67 7.93
1 6 -2 88.65 9.96
-1 6 2 81.53 6.68
1 6 -2 91.9 5.32
-1 -6 1 95.53 4.32
-1 6 1 101.83 7.56
-1 6 1 89.4 8.8
1 6 -1 98.61 10.25
-1 6 1 96.55 6.98
-1 6 0 199.86 10.43
-1 6 0 189.23 9.89
1 6 0 202.53 14.21
-1 6 0 199.27 12.7
1 -6 1 104.78 8.12
-1 6 -1 95.55 9.21
-1 -6 -1 111.11 10.67
-1 6 -1 103.96 7.89
-1 6 -1 105.65 7.94
1 6 1 90.99 9.88
1 6 2 175.29 13.99
-1 6 -2 178.23 11.4
1 -6 2 175.1 11.43
-1 -6 -2 175.16 6.77
1 6 3 113.9 12.08
-1 6 -3 130.1 10.65
1 6 3 120 6.14
1 -6 3 133.33 10.9
-1 -6 -3 115 7.3
1 6 4 530.37 16.45
1 6 4 488.05 25.57
-1 -6 -4 502.52 18.21
-1 6 -4 497.09 22.26
1 -6 4 507.96 22.8
1 6 5 216.76 18.48
-1 -6 -5 218.85 13.95
1 -6 5 218.18 16.25
1 6 5 207.98 12.27
1 6 6 10.84 3.81
1 -6 6 7.97 5.17
1 6 6 11.76 5.62
1 -6 7 46.17 9.78
1 6 7 45.37 7.82
1 6 8 15.15 5.6
1 -6 8 29.08 8.45
-1 -7 9 -8.26 5.94
-1 -7 8 10.27 5.26
-1 7 8 43.11 8.8
-1 -7 7 73.24 10.33
-1 7 7 53.53 8.64
-1 7 6 103.94 10.66
-1 -7 6 82.71 10.67
-1 7 6 100.32 12.77
-1 -7 5 51.97 7.5
-1 7 5 61.64 8.22
1 7 -5 53.76 7.14
-1 7 5 58.76 9.7
1 -7 -5 61.7 8.4
-1 7 4 63.66 9.51
1 7 -4 68.22 6.93
-1 -7 4 64.69 7.65
-1 7 4 58.89 7.76
1 -7 -4 56.52 7.36
1 7 -3 22.49 6.55
-1 7 3 21.26 5.79
-1 -7 3 25.34 4.41
-1 7 3 19.7 3.64
1 -7 -3 22.14 4.36
-1 7 3 22.65 4.94
1 7 -3 26.4 3.85
-1 7 2 15.34 4.81
-1 7 2 19.97 4.15
1 7 -2 19.05 5.32
-1 7 2 16.2 3.53
-1 -7 2 15.7 2.99
1 7 -2 19.13 2.38
1 7 -2 15.41 2.16
1 7 -1 255.08 17.37
-1 7 1 213.48 14.45
-1 7 1 243.59 11.95
-1 7 1 228.49 10.91
-1 7 0 97.97 9.88
1 7 0 106.39 11.6
-1 7 0 97.76 7.81
-1 7 0 105.48 7.59
-1 7 -1 47.42 5.77
1 7 1 33.2 7.41
-1 7 -1 45.36 7.48
-1 7 -1 45.54 5.68
1 -7 2 35.58 5.79
-1 7 -2 29.32 6.31
-1 7 -2 37.58 5.49
1 7 2 34.9 7.88
-1 7 -3 193.47 13.24
1 7 3 177.63 15.99
1 7 3 167.8 4.89
-1 -7 -3 201.59 9.19
1 -7 3 205.13 13.96
1 7 3 167.54 4.79
1 7 4 19.48 6.96
1 7 4 12.86 2.73
1 -7 4 23.12 6.05
-1 -7 -4 19.33 3.77
1 7 5 143.57 15.78
1 7 5 159.44 10.21
1 -7 5 144.24 13.77
1 -7 6 18.83 5.85
1 7 6 18.02 7
1 7 6 21.16 4.61
1 7 7 -3.21 4.54
1 -7 7 10.6 5.31
1 -7 8 49.56 10.22
-1 -8 8 29 7.48
-1 -8 7 7.31 5.05
-1 -8 6 14.82 5.47
-1 8 6 30.96 8.21
-1 8 5 10.13 3.36
-1 -8 5 8.32 3.63
-1 8 5 3.58 4.27
-1 8 4 31.81 7.8
-1 -8 4 36.99 5.9
1 8 -4 28.03 7.7
-1 8 4 28.24 5.72
-1 -8 3 36.92 5.31
-1 8 3 34.88 7.37
1 8 -3 47.6 9.32
-1 8 3 37.34 6.02
-1 8 2 32.73 4.51
-1 8 2 20.6 6.12
1 8 -2 27.78 7.37
-1 8 2 30.71 5.29
-1 8 1 436.76 15.99
1 8 -1 400.25 23.27
-1 8 1 399.81 14.52
-1 8 1 422.59 22.04
-1 8 0 8.85 2.9
-1 8 0 6.17 4.38
1 8 0 4.84 4.17
-1 8 0 2.27 1.58
-1 8 -1 62.67 8.95
1 8 1 45.47 8.37
-1 8 -1 72.69 7.16
-1 8 -1 67.07 6.84
1 8 2 29.19 7.73
-1 8 -2 32.35 5.21
1 -8 2 33.8 5.85
-1 8 -2 33.41 7.16
-1 8 -2 28.4 5.2
-1 8 -3 32.72 5.76
1 -8 3 31.83 6.25
1 8 3 32.67 8.43
-1 8 -3 23.5 6.45
1 8 4 103.7 13.7
1 -8 4 116.79 11.83
1 -8 5 10.01 4.65
1 8 5 4.98 5.17
1 8 6 101.91 15
1 -8 6 61.06 10.03
1 -8 7 19.47 7.28
-1 9 6 7.28 5.14
1 9 -5 8.15 4.24
-1 9 5 12.99 6.81
1 9 -4 4.48 5.74
-1 9 4 17.14 6.12
-1 9 3 31.81 7.88
1 9 -3 42.79 9.37
-1 9 2 94.26 12.01
1 9 -2 117.3 14.19
-1 9 1 11.25 5.74
1 9 -1 17.81 6.22
1 9 0 14.17 5.93
-1 9 0 29.46 4.39
-1 9 0 25.58 7.05
-1 9 -1 8.96 3.36
-1 9 -1 14.45 5.59
1 9 1 4.71 4.48
1 9 2 23.21 7.97
-1 9 -2 28.05 7.17
-1 9 -2 32.8 5.56
1 9 3 7.25 4.77
-1 9 -3 12.04 5.36
1 -9 3 2.28 3.17
1 9 4 13.61 6.7
-1 9 -4 5.38 4.82
1 -9 4 6.89 4.54
1 -9 5 96.98 12.1
1 9 5 82.88 13.6
1 -9 6 56.38 10.03
-1 10 5 38.86 9.45
-1 10 4 15.24 5.09
1 10 -4 29.53 9.06
-1 10 3 40.31 8.77
1 10 -3 38.29 9.55
-1 10 2 82.35 11.87
1 10 -2 105.28 14.12
1 10 -1 21.1 7.18
-1 10 1 10.87 5.77
-1 10 0 6.69 4.47
1 10 0 -4.21 4.01
1 10 1 59.78 10.95
-1 10 -1 34.47 8
1 10 2 22.51 8.37
-1 10 -2 25.23 7.14
1 10 3 6.98 5.86
-1 10 -3 12.94 5.17
-1 10 -4 20.62 6.6
1 10 4 16.52 8.75
-1 11 4 3.26 4.89
-1 11 3 1.16 4.34
-1 11 2 36.16 9.02
-1 11 1 8.07 5.14
-1 11 0 0.72 4.18
-1 11 -1 31.37 7.45
-1 11 -2 38.98 8.71
-1 11 -3 49.35 10.58
-2 0 10 106.13 15
-2 0 9 38.84 9.04
-2 0 8 147.39 15.09
-2 0 7 -5.16 4.18
2 0 -6 90.27 10.2
-2 0 6 72.61 9.12
-2 0 5 223.31 14.02
2 0 -5 269.98 15.37
-2 0 4 364.18 16.29
2 0 -4 379.69 16.52
-2 0 3 70.88 6.92
2 0 -3 62.59 6.37
-2 0 2 2544.42 33.43
2 0 -2 2370.64 32.4
2 0 -1 460.85 13
-2 0 1 456.25 13.11
-2 0 0 54.66 4.65
2 0 0 57.32 5.07
-2 0 0 50.41 3.32
2 0 0 54.89 3.59
-2 0 -1 1722.64 23.63
-2 0 -1 1758.11 26.64
2 0 1 1782.64 23.84
2 0 1 1813.04 27
2 0 2 984.33 22.17
-2 0 -2 928.15 21.48
-2 0 -2 922.26 20.8
-2 0 -3 3771.54 48.64
2 0 3 3771.36 49.37
-2 0 -3 3619.95 48.36
-2 0 -4 73.65 7.99
-2 0 -4 82.84 8.77
2 0 4 73.74 8
2 0 5 5.03 4.08
-2 0 -5 6.52 2.99
-2 0 -5 4.25 2.95
2 0 6 -4.72 4.4
2 0 7 -2.3 4.53
2 0 8 25.83 7.23
2 0 9 43.78 9.21
-2 -1 10 13.99 6.54
-2 1 10 21.62 8.55
-2 1 9 115.84 14.51
-2 -1 9 121.33 14.7
-2 1 8 153.43 15.42
-2 -1 8 170.83 15.89
-2 1 7 2.87 4.46
-2 -1 7 7.28 4.87
-2 -1 6 17.44 5.5
2 -1 -6 13.41 3.92
-2 1 6 16.67 5.11
2 1 -6 19.29 5.38
-2 -1 5 357.33 17.09
2 -1 -5 362.99 18.23
-2 1 5 330.51 17.53
2 1 -5 381.28 18.2
2 -1 -4 2612.72 43.98
-2 -1 4 2635.97 42.08
-2 1 4 2642.89 44.2
2 1 -4 2598.84 42.39
2 -1 -3 556.37 18.3
-2 -1 3 598.82 17.88
2 1 -3 554.09 17.19
-2 1 3 597.54 18.98
2 1 -2 89.52 6.15
-2 1 2 91.76 7.14
2 -1 -2 93.88 7.12
-2 -1 2 91.51 6.43
2 -1 -1 65.64 5.48
2 1 -1 64.64 4.86
2 1 -1 69.07 4.87
-2 1 1 62.13 5.76
-2 -1 1 60.57 4.88
-2 -1 0 484.13 11.92
2 -1 0 461.81 13.84
2 1 0 498.99 12.68
-2 -1 0 494.33 12.59
-2 1 0 471.34 13.89
-2 1 -1 188.25 7.23
2 1 1 185.32 9.04
2 -1 1 177.6 9.46
-2 -1 -1 191.06 8.96
-2 -1 -1 191.15 8.31
-2 1 -1 200 9.65
2 1 1 179.05 8.02
-2 -1 -2 888.91 21.75
2 1 2 892.52 20.18
-2 1 -2 939.13 20.42
2 1 2 954.72 22.84
2 -1 2 932.57 22.8
-2 -1 -2 912.47 20.21
-2 1 -2 921.3 22.55
-2 1 -3 76.91 7.27
2 1 3 68.31 7.34
2 1 3 71.24 6.91
-2 -1 -3 61.41 6.98
-2 -1 -3 72 6.96
-2 1 -3 67.24 7.2
2 -1 3 73.79 7.7
-2 -1 -4 327.03 15.64
-2 1 -4 336.46 16.73
2 1 4 313.52 15.46
2 -1 4 291 15.79
-2 -1 -4 317.4 16.8
-2 1 -4 297.15 15.62
2 -1 5 66.47 8.74
-2 -1 -5 49.41 7.55
-2 1 -5 56 8.05
-2 1 -5 73.35 8.92
2 1 5 52.97 7.43
-2 -1 -5 58.23 7.73
2 -1 6 61.32 9.19
2 1 6 53.26 8.45
2 1 7 12.27 5.51
2 -1 7 17.58 7.03
2 1 8 91.14 12.5
2 -1 8 99.83 13.42
2 -1 9 67.91 11.59
2 1 9 58.49 10.96
-2 2 10 397.86 27.79
-2 -2 10 407.92 28.47
-2 2 9 32.97 8.37
-2 -2 9 24.85 8.05
-2 -2 8 52.22 8.97
-2 2 8 44.4 9.6
-2 -2 7 20.49 5.9
-2 2 7 28.66 7.03
-2 2 6 18.28 5.56
2 2 -6 28.89 6.14
-2 -2 6 28.16 6.36
2 -2 -6 21.52 5.1
-2 -2 5 58.16 7.9
2 -2 -5 57.75 7
-2 2 5 60.17 7.92
2 -2 -5 59.15 7.75
2 2 -5 61.09 7.52
2 -2 -4 452.3 18.79
2 -2 -4 417.42 15.71
-2 2 4 440.76 18.65
2 2 -4 418 16.75
-2 -2 4 415.23 16.23
2 -2 -3 427.94 16.78
2 -2 -3 456.5 13.7
2 2 -3 425.01 14.77
-2 2 3 425.62 16.83
-2 -2 3 453.05 15.24
2 2 -2 196.36 8.5
-2 2 2 223.7 11.24
2 -2 -2 213.59 10.95
-2 -2 2 224.14 9.11
2 -2 -2 210.94 7.17
2 -2 -1 144.11 3.78
2 2 -1 130.93 8.03
-2 -2 1 145.97 6.35
2 -2 -1 132.33 8.03
2 2 -1 146.25 6.2
-2 2 1 136.78 8.67
-2 2 1 150.37 3.97
2 2 0 20.01 3.9
-2 -2 0 20.25 2.55
-2 2 0 16.59 3.32
-2 -2 0 19.75 3.58
2 -2 0 18.29 3.82
-2 -2 0 17.34 2.38
2 2 1 480.92 15.89
-2 -2 -1 462.15 15.74
-2 2 -1 467.96 15.81
-2 -2 -1 461.66 11.46
2 2 1 465.6 11.56
2 -2 1 491.8 16.28
2 2 2 1356.09 29.28
2 -2 2 1403.52 29.91
-2 -2 -2 1389.07 29.41
-2 -2 -2 1343.46 22.99
-2 2 -2 1370.69 29.01
2 2 2 1396.95 23.46
2 2 3 575.12 21.36
-2 -2 -3 549.96 20.31
-2 -2 -3 532.82 16.88
-2 2 -3 553.08 20.33
2 2 3 570.91 17.57
2 -2 3 567.59 20.62
-2 -2 -4 124.19 10.81
2 2 4 101.98 8.72
2 2 4 97.23 9.96
-2 -2 -4 116.62 9.19
-2 2 -4 118.79 10.63
2 -2 4 116.8 10.77
-2 -2 -5 55.37 7.46
2 -2 5 59.3 8.64
2 2 5 48.33 7.35
2 2 6 174.85 14.11
2 -2 6 174.21 15.18
2 2 7 210.05 16.56
2 -2 7 233.95 18.83
2 -2 8 13.8 6.72
2 2 8 20.42 6.02
2 -2 9 46.62 10.57
2 2 9 50.66 10.13
-2 3 10 216.27 20.84
-2 -3 10 149.42 17.95
-2 -3 9 47.18 9.6
-2 3 9 53.46 9.74
-2 3 8 110.26 13.17
-2 -3 8 114.45 13.58
-2 -3 7 27.5 6.42
-2 3 7 22.8 6.61
2 -3 -6 13.08 4.03
2 3 -6 9.8 4.28
-2 3 6 11.04 5.36
-2 -3 6 14.5 4.78
2 -3 -5 92.72 9.78
2 -3 -5 93.69 8.89
2 3 -5 88.92 8.65
-2 3 5 95.89 10.15
-2 -3 5 77.86 8.55
2 -3 -4 163.55 11.78
2 -3 -4 158.69 10.05
-2 3 4 169.18 12.06
-2 -3 4 172.04 11
2 3 -4 168.48 10.62
2 3 -3 1120.22 23.29
2 -3 -3 1134.25 22.6
-2 3 3 1154.74 28.21
2 -3 -3 1184.7 28.68
2 3 -2 304.9 10.09
2 -3 -2 299.93 9.68
2 -3 -2 310.09 13.86
-2 3 2 319.45 13.92
-2 -3 2 319.26 10.21
-2 3 2 313.35 10.26
-2 3 1 1107.11 23.91
2 3 -1 1064.67 25.19
2 3 -1 1030.02 14.08
-2 3 1 1105.27 24.72
-2 -3 1 1114.54 14.71
-2 3 1 1071.33 15.8
2 -3 0 1220.84 25.37
-2 -3 0 1244.09 26.87
-2 3 0 1185.29 16.97
2 3 0 1267.51 27.17
-2 -3 0 1200.31 13.91
-2 3 0 1265.24 25.98
-2 -3 0 1180.44 13.89
-2 3 0 1244.35 25.37
2 3 1 606.11 11.36
2 3 1 593.49 19.77
-2 -3 -1 611.05 19.61
-2 -3 -1 580.38 11.11
-2 3 -1 585.04 18.38
2 -3 1 641.21 19.34
-2 -3 -2 364.3 16.27
2 3 2 360.64 16.62
-2 -3 -2 328.63 10.6
-2 3 -2 362.58 15.61
2 3 2 344.87 10.87
2 -3 2 334.9 15.37
2 3 3 303.2 16.52
-2 -3 -3 295.43 12.14
-2 3 -3 312.64 15.87
2 3 3 292.57 12.13
2 -3 3 305.94 15.9
-2 -3 -3 308.1 16.3
-2 -3 -4 22.63 4.51
2 3 4 31.45 6.78
-2 -3 -4 21.89 5.36
2 3 4 18.52 4.23
2 -3 4 16.63 5.08
-2 3 -4 20.59 4.96
2 -3 5 30.47 6.67
2 3 5 37.63 6.14
-2 -3 -5 41.87 6.71
2 3 5 26.16 7.08
2 3 6 105.69 11.08
2 -3 6 109.48 12.65
2 3 7 45.95 8.44
2 -3 7 32.73 8.51
2 3 8 18.35 6.9
2 -3 8 13.55 7.34
2 -3 9 54.99 11.87
2 3 9 33.77 8.16
-2 4 10 96.63 14.44
-2 4 9 90.52 12.97
-2 -4 9 78.23 12.39
-2 -4 8 18.33 6.89
-2 4 8 23.81 6.35
-2 4 7 146.08 14.31
-2 -4 7 150.28 14.18
2 4 -6 122.89 11.39
2 -4 -6 109.11 10.59
-2 4 6 96.85 11.38
-2 -4 6 120.81 11.78
2 -4 -5 8.67 4.07
2 4 -5 14.4 4.02
-2 -4 5 12.81 4.25
2 -4 -5 18.79 4.5
-2 4 5 14.31 5
2 -4 -4 160.94 10.59
2 4 -4 154.82 10.23
-2 -4 4 166.57 10.89
-2 4 4 151.57 11.81
2 -4 -4 154.44 11.71
2 4 -3 1124.55 22.82
2 -4 -3 1172.97 29.59
-2 4 3 1148.53 25.53
2 -4 -3 1086.86 23.87
-2 -4 3 1184.47 24.81
-2 4 3 1143.79 29.1
2 4 -2 639.09 13.66
-2 4 2 698.35 21.39
2 4 -2 707.92 23.56
-2 4 2 695.82 17.61
-2 -4 2 664.7 15.41
2 -4 -2 675.82 20.83
2 -4 -2 679.13 16.85
-2 4 1 824.06 21.78
-2 4 1 811.81 22.46
-2 4 1 791.83 17.26
-2 -4 1 845.47 12.54
2 4 -1 818.68 24.63
2 4 0 692.23 22.62
-2 4 0 663.66 15.92
-2 4 0 671.46 20.09
-2 4 0 662.43 19.99
2 4 1 25.4 5.3
-2 -4 -1 25.47 2.29
-2 -4 -1 29.68 5.4
2 -4 1 20.34 4.37
-2 4 -1 28.28 4.68
-2 -4 -2 11.09 2.47
-2 4 -2 18.36 4.34
2 4 2 15.54 5.11
2 4 2 12.8 2.2
2 -4 2 19.91 4.67
-2 -4 -2 17.22 4.38
-2 -4 -3 131.91 11.53
2 4 3 122.98 11.5
-2 -4 -3 124.63 8.41
-2 4 -3 139.19 11.09
2 4 3 135.27 7.92
2 -4 3 122.2 10.59
2 -4 4 22.66 5.85
2 4 4 27.89 4.71
2 4 4 18 5.9
-2 4 -4 21.92 5.71
-2 -4 -4 17.91 4.12
2 4 5 41.22 6.36
2 -4 5 31.97 6.7
-2 -4 -5 32.42 5.6
2 4 5 42.1 8.78
2 4 6 278.97 16.95
2 4 6 237.88 19.49
2 -4 6 269.04 19.62
2 -4 7 48.29 10.1
2 4 7 64.87 9.25
2 4 8 155.23 15.12
2 -4 8 181.49 18.94
2 4 9 11.61 5.06
-2 5 10 56.56 11.65
-2 -5 9 22.74 6.96
-2 5 9 15.65 5.74
-2 5 8 52.29 9.8
-2 -5 8 44.64 8.96
-2 -5 7 88.89 11.41
-2 5 7 82.89 11.27
-2 -5 6 48.73 7.83
-2 5 6 59.34 9.45
2 -5 -5 90.59 9.49
2 5 -5 106.97 9.61
-2 5 5 116.3 11.82
-2 -5 5 99.65 9.61
-2 5 4 242.85 14.34
2 -5 -4 262.52 14.08
2 5 -4 283.05 13.41
-2 5 4 252.96 15.41
-2 -5 4 260.98 13.8
2 -5 -4 271.29 15.87
2 5 -3 265.47 10.89
2 -5 -3 267.75 13
-2 5 3 278.17 15.08
-2 -5 3 290.63 12.36
-2 5 3 268.27 13.67
2 -5 -3 263.49 14.63
-2 5 2 421.16 16.75
-2 5 2 439.03 17.95
2 5 -2 402.39 19.35
-2 5 2 422.54 15.61
2 -5 -2 412.31 17.1
-2 -5 2 411.99 11.81
2 -5 -2 411.53 14.98
2 5 -2 428.07 9.93
-2 5 1 223.75 10.97
-2 -5 1 199.65 4.64
-2 5 1 234.72 12.84
-2 5 1 224.86 11.99
2 5 -1 215.42 14.24
2 5 0 677.79 24.63
-2 5 0 663.73 18.6
-2 5 0 693.74 21.51
-2 5 0 716.83 21.78
2 5 1 928.48 29.83
-2 5 -1 937.51 23.49
2 -5 1 937.09 25.92
-2 -5 -1 951.41 29.5
-2 5 -1 901.55 25.35
-2 -5 -2 230.95 8.31
2 5 2 211.22 15.12
2 5 2 228.54 5.74
-2 5 -2 237.81 13.93
2 -5 2 229.39 13.98
-2 -5 -2 251.99 16
2 5 3 207.44 15.65
-2 -5 -3 218.17 10.48
-2 5 -3 201.89 13.85
2 5 3 213.43 9
2 -5 3 212.97 14.45
2 -5 4 10.69 4.48
2 5 4 10.23 3.38
2 5 4 12.87 6.04
-2 -5 -4 18.06 4.18
2 5 5 281.2 20.89
2 -5 5 291.64 19.44
-2 -5 -5 268.92 15.82
2 5 5 273.43 14.29
2 5 6 69.5 8.5
2 5 6 63.72 11.45
2 -5 6 58.7 10.15
2 -5 7 124.84 14.66
2 5 7 103.32 11.37
2 5 8 28.05 6.65
2 -5 8 19.22 8.03
2 5 9 67.68 10.88
-2 -6 9 -0.44 4.5
-2 6 9 8.51 3.9
-2 -6 8 57.42 9.88
-2 6 8 66.22 10.8
-2 -6 7 15.96 5.65
-2 6 7 22.85 6.33
-2 6 6 184.22 16.02
-2 -6 6 197.9 15.18
2 6 -5 264.8 14.71
-2 6 5 286.27 17.8
2 -6 -5 248.9 16.08
-2 6 5 280.88 18.11
-2 -6 5 295.84 16.65
-2 6 4 178.74 13.31
2 6 -4 167.8 10.21
2 -6 -4 168.95 12.21
-2 6 4 149.03 12.66
-2 -6 4 187.45 11.88
2 -6 -4 157.35 12.55
-2 6 3 373.04 17.13
-2 6 3 383.94 18.51
-2 6 3 371.12 17.45
2 -6 -3 381.32 16.93
2 6 -3 379.62 21.32
2 -6 -3 373.6 17.79
-2 -6 3 382.26 13.98
2 6 -3 379.39 12.17
-2 6 2 174.2 11.85
2 6 -2 174.25 14.19
-2 6 2 156.44 10.74
-2 6 2 168.28 11.13
-2 -6 2 160.78 7.03
-2 6 1 191.49 11.46
2 6 -1 206.19 15.11
-2 6 1 211.68 12.17
-2 6 1 222.81 13.05
2 6 0 149.7 13.16
-2 6 0 148.89 10.1
-2 6 0 146.33 10.78
-2 6 0 142.9 10.25
2 -6 1 76.63 8.25
2 6 1 81.56 10.18
-2 6 -1 80.67 8.07
-2 6 -1 76.68 8.01
-2 6 -1 86.17 8.22
2 -6 2 98.56 9.93
2 6 2 117.44 12.43
-2 6 -2 142.45 11.35
-2 -6 -2 123.14 4.58
2 6 3 112.75 12.7
-2 -6 -3 127.68 7.52
-2 6 -3 124.65 11.38
2 6 3 128.78 5.45
2 -6 3 120.76 11.41
-2 -6 -4 72.98 7.08
2 6 4 69.51 10.79
2 -6 4 57.26 9.23
2 6 4 69.63 5.94
2 6 5 80.25 12.64
2 6 5 69.83 7.26
2 -6 5 95.42 11.79
-2 -6 -5 67.16 8.13
2 -6 6 84.86 12.38
2 6 6 106.11 9.77
2 6 6 69.3 12
2 6 7 355.67 20.01
2 -6 7 407.85 26.77
2 6 7 342.55 26.74
2 -6 8 9.39 7.47
-2 -7 9 41.55 9.55
-2 7 8 75.47 11.56
-2 -7 8 92.12 12.52
-2 -7 7 16.95 5.71
-2 7 7 35.14 8.35
-2 7 7 27.89 7.53
-2 -7 6 56.41 8.07
-2 7 6 54.01 9.35
-2 7 5 185.64 15.34
-2 7 5 226.3 16.73
-2 -7 5 212.28 14.16
2 7 -4 178.36 16.53
-2 7 4 161.87 13.21
-2 7 4 166.04 13.56
2 -7 -4 152.35 12.6
2 7 -4 166.7 9.85
-2 -7 4 175.92 11.24
2 -7 -4 157.94 12.87
2 7 -3 42.46 3.67
-2 7 3 41.07 6.95
-2 -7 3 31.89 4.07
2 7 -3 40.97 8.32
2 -7 -3 42.59 6.37
-2 7 3 35.21 5.5
-2 7 3 23.04 5.38
-2 -7 2 4.61 1.45
-2 7 2 0.66 2.64
-2 7 2 6.26 2.94
2 7 -2 6.99 4.58
-2 7 2 6.86 3.63
-2 7 1 36.04 5.97
-2 7 1 43.28 5.96
-2 7 1 31.33 5.79
2 7 -1 33.9 7.42
2 7 0 198.56 16.35
-2 7 0 185.63 12.69
-2 7 0 187.79 12.16
-2 7 0 197.29 12.75
2 7 1 320.52 20.78
-2 7 -1 305.54 16.69
-2 7 -1 326.37 16.72
-2 7 -1 320.23 16.41
2 -7 2 111.09 10.84
-2 7 -2 109.2 10.59
2 7 2 98.92 12.24
-2 7 -2 96.78 9.9
2 7 3 434.6 25.76
-2 -7 -3 438.68 11.59
2 -7 3 414.64 21.46
2 7 4 135.99 15.48
2 -7 4 147.44 14.02
2 -7 5 39.79 8.32
2 7 5 31.65 8.04
2 -7 6 85.32 12.08
2 7 6 83.97 14.07
2 7 7 28.8 9.89
2 -7 7 15.12 5.91
-2 -8 7 1.46 2.12
-2 8 6 36.07 8.55
-2 -8 6 34.92 6.87
-2 8 6 27.7 7.49
-2 8 5 35.01 7.81
-2 -8 5 32.78 5.77
-2 8 5 45.45 8.14
2 8 -5 57.01 10.62
-2 8 4 269.51 18.54
2 8 -4 327.57 23.61
-2 8 4 314.81 18.76
-2 -8 4 279.65 13.79
-2 -8 3 37.53 4.14
-2 8 3 47.34 7.19
-2 8 3 28.51 6.58
-2 8 3 41.4 5.81
2 8 -3 41.5 8.89
-2 8 2 18.65 5.15
2 8 -2 15.05 5.91
-2 8 2 16.89 4.04
-2 8 2 13.3 4.1
-2 8 1 14.02 4.13
-2 8 1 14.94 3.54
-2 8 1 21.07 5.43
2 8 -1 11.64 5.94
-2 8 0 49.91 7.2
-2 8 0 47.56 6.42
2 8 0 47.08 9.35
-2 8 0 48.81 7.63
2 8 1 91.14 12.24
-2 8 -1 124.04 11.62
-2 8 -1 103.01 10
-2 8 -1 116.24 10.33
2 -8 2 170.08 13.46
2 8 2 160.52 16.36
-2 8 -2 146.74 13.23
-2 8 -2 167.73 13.06
2 -8 3 189.28 15.22
2 8 3 188.44 18.4
-2 8 -3 175.31 14.81
2 8 4 77.16 12.75
2 -8 4 74.65 10.19
2 8 5 8.54 6.4
2 -8 5 -2.77 3.77
2 -8 6 -5.54 4.83
2 8 6 -4.24 5.38
2 -8 7 51.33 10.5
-2 9 6 60.01 11.47
-2 9 5 105.62 13.36
2 9 -5 116.09 15.81
-2 9 4 142.31 14.89
2 9 -4 157.72 17.43
-2 9 4 148.36 12.85
-2 9 3 25.6 5.66
-2 9 3 6.87 4.09
2 9 -3 19.52 7.02
-2 9 2 62.12 8
2 9 -2 80.62 12.72
-2 9 2 65.11 9.13
-2 9 1 52.01 8.77
2 9 -1 41.18 9.52
-2 9 1 58.35 7.62
-2 9 0 126.87 10.75
-2 9 0 103.63 11.43
2 9 0 93.68 13.21
-2 9 -1 132.44 13.09
2 9 1 154.57 17.03
-2 9 -1 157.74 12.58
-2 9 -2 279.45 19.41
2 9 2 294.48 23.3
-2 9 -2 299.94 17.86
2 9 3 55.03 10.72
-2 9 -3 48.74 8.93
2 -9 3 54.11 8.78
-2 9 -3 51.29 8.28
2 9 4 51.21 11.33
2 -9 4 51.09 9.09
2 -9 5 16.54 5.23
2 -9 6 12.98 6.18
-2 10 4 5.62 5.55
-2 10 3 44.76 8.59
2 10 -3 44.78 10.14
2 10 -2 45.31 10.78
-2 10 2 32.37 7.53
-2 10 1 28.82 7.95
2 10 -1 19.41 8.46
-2 10 0 12.19 5.52
2 10 0 4.91 6.53
-2 10 -1 143.39 14.55
2 10 1 126.14 17.04
-2 10 -2 269.48 19.92
2 10 2 238.33 22.53
-2 10 -3 6.39 4.65
-2 10 -4 17.6 6.78
-2 10 -5 18.16 7.53
-3 0 10 15.84 7.01
-3 0 9 -13.3 6.24
-3 0 8 11.95 5.25
-3 0 7 6.28 4.6
-3 0 6 254.24 17.35
3 0 -5 150.83 12.14
-3 0 5 132.28 11.65
-3 0 4 18.94 4.91
3 0 -4 19.21 4.38
3 0 -3 1.85 2.24
-3 0 3 -0.98 2.81
-3 0 2 11.52 3.87
3 0 -2 13.15 3.58
-3 0 1 0.41 2.97
3 0 -1 0.82 1.34
3 0 0 561.86 12.84
-3 0 0 512.42 12.05
-3 0 0 548.13 17.12
3 0 1 4.48 2.66
-3 0 -1 3 2.31
-3 0 -1 3.41 2.05
3 0 1 9.26 3.77
3 0 2 140.99 9.14
-3 0 -2 133.58 8.75
-3 0 -2 158.41 10.48
3 0 2 147.1 10.26
-3 0 -3 150.34 10.6
-3 0 -3 169.77 11.92
3 0 3 172.13 12.03
3 0 4 4.94 3.98
-3 0 -4 12.71 4.29
-3 0 -4 4.97 3.06
3 0 5 3.07 3.8
3 0 6 160.79 14.82
3 0 7 2.61 4.55
3 0 8 15.49 6.85
3 0 9 61.69 11.43
-3 1 10 11.1 5.48
-3 -1 10 5.07 5.94
-3 1 9 5.11 4.95
-3 -1 9 15.23 6.25
-3 -1 8 16.98 7.34
-3 1 8 14.04 5.88
-3 -1 7 80.44 10.65
-3 1 7 92.83 11.63
-3 1 6 3.97 3.35
-3 -1 6 2.17 3.24
3 -1 -5 164.58 12.87
3 1 -5 173.16 12.91
-3 1 5 172.52 13.53
-3 -1 5 185.2 13.33
3 1 -4 189.68 12.15
-3 1 4 206.73 13.5
-3 -1 4 204.96 12.89
3 -1 -4 191.32 12.81
-3 -1 3 31.78 5.44
3 -1 -3 32.98 5.5
3 1 -3 28.71 4.72
-3 1 3 32.08 5.65
-3 1 2 253.29 13.24
-3 -1 2 257.07 12.02
3 -1 -2 284.27 13.6
3 1 -2 271.31 12.28
-3 1 1 795.48 21.78
3 1 -1 776.8 17.44
-3 -1 1 789.35 19.8
-3 1 0 86.6 3.88
-3 -1 0 87.5 6.2
-3 -1 0 86.3 6.81
3 1 0 78.97 6.16
-3 1 0 85.97 7.43
-3 -1 0 88.89 6.72
3 -1 1 207.88 11.84
3 1 1 211.61 10.68
-3 -1 -1 196.65 10.1
-3 1 -1 199.54 8.27
3 1 1 185.51 10.02
-3 -1 -1 188.63 9.96
-3 1 -1 218.23 12.03
3 1 2 102.81 8.47
-3 -1 -2 115.65 8.73
-3 -1 -2 90.62 7.65
-3 1 -2 105.93 9.1
-3 1 -2 103.57 7.35
3 1 2 104.45 8.3
3 -1 2 91.54 8.69
3 1 3 174.36 11.95
-3 -1 -3 180.19 12.02
-3 -1 -3 196.51 12.09
-3 1 -3 203.72 13.15
3 1 3 193.87 12.08
-3 1 -3 194.07 11.71
3 -1 3 186.88 12.94
-3 1 -4 111.35 10.2
-3 -1 -4 95.36 9.9
3 1 4 115.95 10.45
-3 -1 -4 109.99 9.97
-3 1 -4 139.31 11.95
3 -1 4 111.67 11.08
-3 1 -5 36.88 6.73
3 1 5 23.6 6.01
3 -1 5 30.56 6.96
3 1 6 15.85 6.38
3 -1 6 18.18 6.54
3 1 7 123.63 13.91
3 -1 7 136.79 14.9
3 1 8 4.86 5.5
3 -1 8 25.97 7.77
3 1 9 56.49 11.8
3 -1 9 34.83 10.26
-3 -2 10 88.08 14.29
-3 2 10 56.82 11.79
-3 2 9 24.84 9.06
-3 -2 9 30.63 8.24
-3 -2 8 46.85 8.83
-3 2 8 56.55 9.93
-3 2 7 44.87 8.93
-3 -2 7 51 9.06
-3 2 6 80.57 10.73
3 -2 -6 71.89 8.23
-3 -2 6 81.96 9.71
3 -2 -5 166.79 13.25
3 2 -5 155.43 12.1
-3 2 5 157.51 13.21
3 -2 -5 143.36 10.27
-3 -2 5 162.76 12.29
-3 -2 4 5.04 3.42
-3 2 4 3.88 3.54
3 2 -4 4.84 2.76
3 -2 -4 5.02 2.2
3 -2 -4 5.67 2.71
3 -2 -3 423.42 12.03
-3 -2 3 460.41 16.53
-3 2 3 434.96 18.52
3 -2 -3 438.46 18.84
3 2 -3 431.21 16.15
-3 -2 2 445.85 14.72
3 -2 -2 437.53 7.61
3 -2 -2 474.05 18.14
3 2 -2 452.23 15.05
-3 2 2 462.9 18.07
-3 2 1 208.02 11.97
3 2 -1 195.34 10.54
-3 2 1 219.37 12.54
-3 -2 1 203.44 9.38
3 2 0 771.09 20.71
-3 -2 0 742.14 20.3
-3 2 0 799.79 23.14
-3 -2 0 772.72 17.89
-3 -2 0 756.31 17.62
-3 2 0 794.02 22.7
3 -2 1 256.44 13.66
3 2 1 243.11 10.64
-3 2 -1 252.17 8.99
3 2 1 249.95 12.68
-3 -2 -1 264.31 12.8
-3 -2 -1 262.73 10.96
-3 2 -1 276.63 14.02
-3 2 -2 560.75 16.56
3 2 2 557.83 20.6
-3 -2 -2 541.56 19.76
-3 -2 -2 548.05 17.17
-3 2 -2 627.59 22.15
3 2 2 575.75 17.79
3 -2 2 557.9 21.11
3 2 3 258.96 15.65
-3 2 -3 272.17 13.6
-3 -2 -3 281.08 15.66
-3 -2 -3 253.87 13.32
-3 2 -3 283.48 16.01
3 2 3 271.97 13.78
3 -2 3 276.01 16.09
-3 -2 -4 80.02 9.27
3 -2 4 66.52 8.82
3 2 4 66.22 8.94
-3 2 -4 68.58 8.08
-3 -2 -4 69.25 7.78
3 2 4 71.53 8.14
3 -2 5 79.09 10.32
-3 2 -5 83.97 9.93
-3 -2 -5 79.3 9.22
3 2 5 77.9 9.54
3 2 6 20.26 6.22
3 -2 6 21.36 6.87
3 2 7 10.28 5.08
3 -2 7 32.4 7.86
3 2 8 26.73 7.07
3 -2 8 33.88 9.08
3 2 9 12.18 6.65
-3 3 10 45.53 11.14
-3 -3 10 43.53 10.85
-3 3 9 46.86 10.8
-3 -3 9 49.57 10.72
-3 -3 8 22.64 6.9
-3 3 8 33.01 8.59
-3 -3 7 19.3 6.38
-3 3 7 17.66 6.99
3 -3 -6 151.04 11.94
-3 -3 6 163.47 13.7
-3 3 6 179.21 15.23
3 3 -5 278.66 15.72
3 -3 -5 276.17 14.01
-3 3 5 287.75 18.05
-3 -3 5 277.55 15.42
3 3 -4 468.58 18.39
3 -3 -4 418.98 14.86
-3 3 4 468.93 21.17
-3 -3 4 464.82 17.94
3 -3 -4 478.25 21.33
-3 3 3 129.92 10.7
3 -3 -3 127.21 6.75
-3 -3 3 126.88 8.58
3 -3 -3 138.99 11.1
3 3 -3 131.53 8.8
-3 -3 2 25.42 3.81
3 -3 -2 19.11 2.03
-3 3 2 21.62 5.1
3 3 -2 20.11 4.57
3 -3 -2 26.09 4.84
3 3 -2 18.99 3.14
-3 3 1 509.6 19.34
-3 -3 1 487.59 13.12
3 3 -1 479.8 18.18
-3 3 1 513.92 19.59
3 3 0 297.92 14.55
-3 3 0 304.14 7
-3 -3 0 298.41 14.34
-3 3 0 304.11 15.13
-3 -3 0 304.52 10.42
-3 -3 0 292.09 10.12
-3 3 0 330.73 15.58
3 -3 1 887.63 26.12
3 3 1 822.72 17.78
-3 -3 -1 844.73 25.09
-3 -3 -1 817.09 17.72
-3 3 -1 924.74 26.5
3 3 1 852.61 25.5
3 3 2 109.67 10.45
-3 -3 -2 95.06 9.02
-3 -3 -2 92.84 6.8
-3 3 -2 107.13 9.79
3 3 2 96.56 7
3 -3 2 96.71 9.51
3 3 3 193.37 14.44
-3 -3 -3 202.43 14.26
-3 -3 -3 198.51 11.05
-3 3 -3 222.45 14.71
3 3 3 197.03 11.25
3 -3 3 221.38 14.95
3 3 4 473.72 23.76
-3 -3 -4 463.5 18.78
3 3 4 457.07 18.92
3 -3 4 466.57 23.28
-3 -3 -5 60.75 8.02
3 3 5 58.92 9.53
3 -3 5 64.01 9.93
3 3 5 76.4 9.15
3 3 6 109.85 11.6
3 -3 6 118.05 13.74
3 3 7 39.04 7.93
3 -3 7 43.06 9.9
3 3 8 34.71 7.8
3 -3 8 37.01 9.41
3 3 9 35.48 8.49
-3 4 9 15.71 7.3
-3 -4 9 19.53 6.36
-3 -4 8 0.22 2.96
-3 4 8 7.73 5.46
-3 -4 7 14.3 5.9
-3 4 7 3.28 4.84
3 -4 -6 76.36 8.6
-3 4 6 91.81 11.65
-3 -4 6 86.27 10.12
3 4 -5 89.7 8.99
-3 4 5 96.86 11.02
3 -4 -5 95.15 8.57
-3 -4 5 86.16 9.26
3 -4 -4 11.4 3.54
-3 -4 4 5.36 2.9
3 -4 -4 6.89 2.71
3 4 -4 5.72 2.96
-3 4 4 5.37 4.86
-3 4 3 80.3 9.11
3 -4 -3 81.73 5.85
-3 -4 3 89.09 6.87
3 -4 -3 92.85 9.46
3 4 -3 72.65 6.25
-3 4 2 100.35 9.3
3 4 -2 106.16 10.05
-3 -4 2 107.01 6.31
-3 4 2 107.75 5.81
3 -4 -2 109.91 9.75
3 4 -2 112.65 6.52
-3 4 2 105.65 9.89
-3 4 1 344.69 16.38
-3 -4 1 302.93 9.84
-3 4 1 331.77 8.92
-3 -4 1 348.21 9.53
3 4 -1 303.66 16.11
-3 4 1 335.33 16.65
3 4 0 452.39 19.64
-3 4 0 434.76 11.16
-3 -4 0 469.33 19.81
-3 4 0 427.75 18.79
-3 -4 0 435.14 10.5
-3 -4 0 455.84 10.72
-3 4 0 445.38 18.74
3 -4 1 390.58 18.63
-3 -4 -1 406.04 19.02
3 4 1 368.35 18.45
-3 -4 -1 382.63 10.55
-3 4 -1 397.2 18.25
3 4 2 256.7 10.2
-3 -4 -2 264.61 16.06
3 4 2 231.7 15.49
-3 -4 -2 242.17 9.77
-3 4 -2 270.69 15.84
3 -4 2 245 15.44
3 4 3 68 9.45
3 -4 3 71.93 9.21
-3 -4 -3 60.18 5.95
3 4 3 73.42 6.5
3 4 4 50.1 9.23
3 -4 4 51.82 8.63
-3 -4 -4 53.32 6.52
3 4 4 58.82 6.81
3 4 5 142.9 15.39
-3 -4 -5 180.01 13.57
3 4 5 183 13.29
3 -4 5 182.56 16.4
3 4 6 287.53 22.09
3 4 6 306.13 18.34
3 -4 6 317.36 22.22
3 4 7 64.64 10.02
3 -4 7 72.27 11.88
3 4 8 3.42 3.71
3 -4 8 3.18 4.07
3 4 9 -3.22 4.49
-3 5 9 -0.58 3.92
-3 -5 9 24.21 7.74
-3 -5 8 19.21 5.84
-3 5 8 18.53 7.31
-3 5 7 87.51 12.32
-3 -5 7 110.74 12.46
3 -5 -6 90.28 9.59
-3 -5 6 90.43 10.14
-3 5 6 88.58 11.73
3 5 -5 111.89 9.85
3 -5 -5 104.38 9.29
-3 5 5 123.32 12.47
-3 -5 5 136.6 11.47
3 5 -4 914.86 24.11
-3 5 4 991.51 32.8
3 -5 -4 913.57 24.02
-3 -5 4 1017.02 27.08
-3 5 3 122.18 8.46
-3 5 3 127.7 11.78
3 -5 -3 133.64 8.26
3 5 -3 137.84 12.88
-3 -5 3 140 8.98
3 -5 -3 140.76 11.91
3 5 -3 140.51 8.18
-3 5 2 92.11 9.62
-3 5 2 87.22 8.98
-3 5 2 103.24 6.8
3 5 -2 96.95 10.43
-3 -5 2 109.89 6.62
-3 5 1 196.81 8.83
3 5 -1 212.91 14.85
-3 -5 1 215.13 6.76
-3 5 1 225.07 14.25
-3 5 1 215.05 13.49
-3 -5 1 199.48 6.61
3 5 0 150.8 12.81
-3 5 0 150.32 8.03
-3 5 0 156.04 12.01
-3 5 0 157.61 11.73
3 5 1 55.13 8.17
-3 5 -1 48.54 6.95
-3 -5 -1 47.03 3.26
3 -5 1 51.02 7.52
-3 -5 -1 52.5 3.44
3 -5 2 284.64 17.22
3 5 2 262.85 17.7
-3 -5 -2 278.38 10.36
-3 5 -2 272.53 16.42
-3 -5 -3 2.59 2.49
3 5 3 -2.01 4.26
3 5 3 5.01 2.07
3 -5 3 2.44 2.88
3 5 4 15.79 6.25
3 5 4 25.33 4.32
3 -5 4 22.39 6.13
-3 -5 -4 26.04 4.84
3 5 5 439.53 27.17
-3 -5 -5 411.97 19.84
3 5 5 424.84 18.58
3 -5 5 410.94 24.65
3 5 6 156.68 17.32
3 5 6 175.02 13.73
3 -5 6 146.46 16.24
3 5 7 21.97 6.36
3 -5 7 28.85 7.98
3 5 8 -0.84 2.46
-3 6 9 21.82 6.4
-3 -6 9 16.22 6.6
-3 -6 8 23.39 7.11
-3 6 8 12.95 5.37
-3 -6 7 68.48 10.4
-3 6 7 67.13 11.19
-3 6 6 5.42 5.06
-3 -6 6 -0.79 3.26
3 6 -6 -4.4 2.41
3 6 -5 71.24 7.84
3 -6 -5 70.68 8.31
-3 6 5 69.7 10.01
-3 -6 5 98.93 9.9
3 6 -4 428.66 15.78
-3 6 4 408.64 18.08
-3 6 4 434.31 22.65
3 -6 -4 390.55 16.92
3 6 -4 458.88 25.12
-3 -6 4 450.85 17.75
-3 -6 3 38.28 4.61
-3 6 3 34.15 5.27
3 6 -3 30.6 7.56
3 -6 -3 44.3 5.54
-3 6 3 28.37 5.61
-3 6 3 35.7 6.83
3 6 -3 30.1 3.53
-3 6 2 67.84 6.65
-3 6 2 68.13 8.75
3 6 -2 71.76 10.2
-3 -6 2 63.58 4.46
-3 6 2 75.64 8.76
-3 6 1 580.2 18.07
3 6 -1 587.42 26.5
-3 6 1 607.19 24.32
-3 6 1 593.57 23.22
-3 6 0 18.2 4.23
3 6 0 16.17 6.23
-3 6 0 17.54 3.72
-3 6 0 16.54 5.54
-3 6 -1 20.87 5.26
3 6 1 14.47 6.1
-3 6 -1 18.26 4.37
3 -6 1 17.18 5.17
-3 6 -1 27.9 6.13
3 -6 2 108.49 11.68
-3 -6 -2 105.69 5.04
3 6 2 86.43 11.27
3 6 3 132.85 6.07
-3 -6 -3 136.69 8.19
3 6 3 129.67 14.47
3 -6 3 118.21 12.28
3 6 4 1.28 4.35
-3 -6 -4 4.01 2.65
3 6 4 -0.01 1.6
3 -6 4 -2.47 3.42
3 6 5 4.5 5.37
3 6 5 1.43 2.07
3 -6 5 -0.28 4.34
3 6 6 200.62 20.61
3 -6 6 204.87 18.93
3 6 7 106.02 16.07
3 -6 7 94.05 14.3
-3 7 9 18.14 7.29
-3 -7 9 28.29 7.42
-3 -7 8 11.47 5.51
-3 7 8 19.52 5.82
-3 -7 7 6.69 4.3
-3 7 7 12.12 6.44
-3 7 6 50.76 9.94
-3 -7 6 53.63 8.2
3 7 -5 517.18 29.24
-3 7 5 484.12 25.36
-3 -7 5 522.31 21.58
-3 7 4 50.85 8.25
-3 -7 4 55.96 6.28
-3 7 4 64.66 8.24
3 -7 -4 47.62 6.45
3 7 -4 56.8 9.86
-3 7 3 60.67 7.23
3 7 -3 49.89 9.63
-3 -7 3 73.12 5.68
-3 7 3 67.26 9.28
-3 7 2 35.56 5.27
-3 7 2 43.6 7.07
-3 7 2 33.84 6.06
3 7 -2 33.74 7.68
-3 7 1 379.94 16.4
3 7 -1 355.56 22.32
-3 7 1 387.76 19.57
-3 7 1 386.99 20.13
3 7 0 487.7 26.29
-3 7 0 464.01 18.38
-3 7 0 490.53 22.65
-3 7 0 468.33 21.57
-3 7 -1 78.41 8.13
3 7 1 81.16 11.7
-3 7 -1 77.85 9.37
3 -7 2 302.18 18.92
3 7 2 314.66 22.2
-3 7 -2 318.29 16.95
3 7 3 75.84 11.98
3 -7 3 55.26 9.19
3 7 4 6.11 5.84
3 -7 4 12.01 5.35
3 7 5 -4.95 5.35
3 -7 5 -2.49 2.99
3 7 6 116.41 16.65
3 -7 6 145.99 16.52
3 -7 7 20.63 8.25
-3 8 8 49.07 10
-3 8 7 71.59 11.71
3 8 -6 181.06 18.89
-3 8 6 173.79 16.92
-3 8 5 196.52 15.28
3 8 -5 202.78 19.57
-3 8 5 228.63 18.16
-3 8 4 8.35 4.44
-3 8 4 -1.5 3.87
3 8 -4 3.01 5.48
-3 8 3 18.05 5.06
3 8 -3 20.78 7.81
-3 8 3 17.91 5.67
-3 8 2 67.42 8.35
3 8 -2 63.43 10.51
-3 8 2 57.07 8.56
-3 8 1 103.89 11.35
-3 8 1 107.5 9.87
3 8 -1 112.85 14.15
3 8 0 232.74 19.76
-3 8 0 252.07 15.22
-3 8 0 243.24 16.91
3 8 1 126.45 15.17
-3 8 -1 125.55 11.11
-3 8 -1 146.94 13.73
3 8 2 194.3 18.77
-3 8 -2 210.84 14.95
-3 8 -2 211.59 16.24
3 8 3 8.65 6.55
-3 8 -3 14.59 4.47
3 -8 3 27.19 7.55
3 8 4 44.76 9.98
3 -8 4 51.87 9.33
3 8 5 25.22 9.19
3 -8 5 21.39 7.25
3 -8 6 9.27 6.72
-3 9 5 60.82 10.12
-3 9 4 2.14 3.77
3 9 -4 4.59 5.63
-3 9 3 20.16 5.44
-3 9 3 20.46 5.21
3 9 -3 15.12 6.75
-3 9 2 -0.9 2.81
3 9 -2 8.99 4.96
-3 9 2 12.89 4.79
-3 9 1 -4.12 3.69
3 9 -1 -6.08 5.82
-3 9 0 187.71 14.5
-3 9 0 224.44 16.52
3 9 0 223.48 20.62
-3 9 -1 495.09 23.3
3 9 1 486.76 30.66
-3 9 -1 541.35 25.79
3 9 2 43.49 9.96
-3 9 -2 37.09 7.29
-3 9 -2 31.88 7
3 9 3 27.26 8.51
-3 9 -3 23.01 6.07
3 -9 3 17.88 5.91
-3 9 -3 30.39 7.24
-3 9 -4 22.05 6.12
3 -9 4 25 7.34
3 -9 5 2.04 5.04
3 10 -1 -6.46 7.37
3 10 0 61.04 13.12
-4 0 9 -0.81 5.33
-4 0 8 92.53 12.82
-4 0 7 0.38 4.56
-4 0 6 62.21 9.67
-4 0 5 12.64 4.18
4 0 -4 5.8 3.05
-4 0 4 3.09 3.29
-4 0 3 109.88 10.05
4 0 -3 106.83 9.9
4 0 -2 693.02 15.65
4 0 -2 721.84 23.28
-4 0 2 741.79 24.12
-4 0 1 51.72 6.48
4 0 -1 49.83 4.47
-4 0 1 53.92 7.06
-4 0 0 136.67 7.23
4 0 0 156.49 8.09
-4 0 0 147.55 10.87
-4 0 0 160.77 11.06
4 0 1 17.51 3.59
-4 0 -1 14.5 4.17
-4 0 -1 15.94 3.17
4 0 1 11.77 4.18
4 0 2 11.08 3.83
-4 0 -2 17.47 4.84
-4 0 -2 17.47 3.6
4 0 2 12.25 4.13
-4 0 -3 401.04 18.04
-4 0 -3 432.16 20.19
4 0 3 391.18 19.62
-4 0 -4 48.08 7.32
4 0 4 51.3 8.42
4 0 5 1.02 4.34
4 0 6 225.07 18.13
4 0 7 8.24 4.64
4 0 8 7.75 5.34
-4 -1 9 25.23 8.59
-4 1 9 14.4 6.78
-4 1 8 25.88 7.84
-4 -1 8 29.2 7.8
-4 1 7 8.16 5.62
-4 -1 7 -1.68 3.97
-4 -1 6 22.45 6.14
-4 1 6 25.07 6.67
-4 1 5 190.8 15.28
-4 -1 5 175.03 13.83
4 1 -5 205.54 14.69
4 -1 -4 54.84 7.69
-4 -1 4 47.19 7.34
4 1 -4 56.6 7.5
-4 1 4 51.24 7.86
-4 1 3 128.52 11.03
-4 -1 3 95.83 9.11
4 -1 -3 99.76 9.72
4 1 -3 119.24 10.1
-4 -1 2 430.32 17.44
4 -1 -2 414.69 9.11
4 1 -2 423.33 14.56
4 -1 -2 425.16 18.74
4 1 -2 422.39 17.15
-4 1 2 431.57 19.22
-4 1 1 1215.44 30.81
-4 -1 1 1180.22 28.11
4 -1 -1 1123.35 13.3
4 1 -1 1100 23.16
-4 1 1 1174.94 30.71
-4 -1 1 1163.67 27.9
-4 1 0 901.59 14.72
-4 -1 0 871.25 21.47
-4 1 0 951.88 27.34
-4 -1 0 920.19 24.74
4 1 0 923.61 22.04
-4 -1 0 886.5 24.56
-4 1 0 939.83 27.2
-4 -1 -1 12.97 3.58
-4 1 -1 8.1 3.24
-4 1 -1 12.01 2.54
-4 -1 -1 7.38 2.78
4 -1 1 13.53 4.11
4 1 1 11.01 3.9
4 1 1 10.43 3.3
4 1 2 58.73 7.03
-4 1 -2 53.17 5.8
-4 -1 -2 64.11 7.12
4 -1 2 56.77 7.72
4 1 2 53.28 7.06
-4 -1 -2 54.26 6.98
-4 1 -2 70.23 8.26
4 1 3 219.09 14.5
-4 1 -3 217.93 12.95
-4 -1 -3 243.94 14.79
-4 -1 -3 216.16 13.96
-4 1 -3 219.7 15.01
4 1 3 207.21 13.88
4 -1 3 226.94 15.46
-4 -1 -4 166.08 13.2
-4 1 -4 156.84 12.53
-4 -1 -4 187.55 14.19
4 1 4 192.1 14.48
4 -1 4 211.5 15.98
4 1 5 0.31 3.69
4 -1 5 3.34 4.18
4 1 6 73.47 10.92
4 -1 6 79.49 11.98
4 1 7 14.79 6.51
4 -1 7 9.37 5.35
4 1 8 14.41 5.74
4 -1 8 9.74 6.78
-4 -2 9 40.34 9.39
-4 2 9 33.76 9.62
-4 2 8 45.14 9.97
-4 -2 8 48 9.63
4 -2 -7 162.43 13.47
-4 2 7 188.46 17.1
-4 -2 7 183.01 15.63
4 -2 -6 -0.76 2.22
-4 2 6 11.74 6.2
-4 -2 6 9.8 4.71
-4 2 5 103.73 11.86
4 -2 -5 82.67 7.48
-4 -2 5 79.99 9.62
4 2 -5 99.76 10.15
-4 2 4 180.29 14.16
-4 -2 4 195.11 13.14
4 -2 -4 173.22 8.96
4 -2 -4 200.36 14.78
4 2 -4 167.14 12.12
-4 2 3 92.69 10.05
4 -2 -3 94.83 4.97
-4 -2 3 100.76 8.89
4 -2 -3 97.78 9.8
4 2 -3 92.54 8.56
-4 -2 2 115.09 8.89
-4 2 2 118.35 10.33
4 2 -2 106.38 8.63
4 -2 -2 114.06 10.16
4 2 -2 112.01 8.65
-4 2 2 119.63 10.91
-4 2 1 84.76 8.69
-4 -2 1 90.23 7.72
4 2 -1 77.77 7.47
-4 2 1 98.9 9.78
-4 -2 1 85.23 7.58
4 2 0 60.48 6.95
-4 -2 0 59.68 6.54
-4 2 0 41.25 6.37
-4 2 0 47.27 7.21
-4 -2 0 56.74 6.31
-4 -2 0 55.5 6.23
4 -2 1 212.65 14.06
4 2 1 232.07 12.38
-4 2 -1 198.22 8.12
4 2 1 219.04 13.01
-4 -2 -1 218.54 12.65
-4 -2 -1 239.76 12.45
-4 2 -1 229.01 14.58
-4 -2 -2 10.19 3.56
-4 2 -2 13.69 4.04
-4 2 -2 8.83 2.82
4 2 2 8.19 3.98
-4 -2 -2 5.71 3.29
4 -2 2 9.68 4.23
4 2 2 9.43 3.92
4 2 3 99.69 10.77
-4 2 -3 93.34 8.55
-4 -2 -3 120.54 11.13
-4 -2 -3 94.64 9.29
4 2 3 107.63 9.75
4 -2 3 90.1 10.58
4 2 4 275.79 18.58
-4 2 -4 303.19 17.05
-4 -2 -4 318.52 17.65
4 2 4 330.77 18.2
4 -2 4 332.76 20.66
4 2 5 459.7 23.38
4 -2 5 502.7 26.79
4 2 6 6.41 4.38
4 -2 6 9.62 5.39
4 2 7 31.68 7.86
4 -2 7 15.77 6.69
4 2 8 24.21 6.98
4 -2 8 8.04 5.68
-4 -3 9 -0.27 3.8
-4 3 9 -4.79 5.97
-4 -3 8 30.76 7.52
-4 3 8 25.74 8.58
-4 3 7 50.27 9.25
-4 -3 7 38.6 8.06
4 -3 -7 37.77 6.52
4 -3 -6 221.34 13.45
-4 3 6 220.14 18.05
-4 -3 6 235.95 16.33
4 -3 -5 338.49 14.56
-4 3 5 361.91 21.41
-4 -3 5 374.76 19.01
4 3 -5 346.05 18.38
4 3 -4 54.22 6.91
4 -3 -4 59.04 5.11
-4 3 4 58.61 8.99
-4 -3 4 58.43 7.12
-4 3 3 619.17 24.93
4 -3 -3 577.51 10.22
-4 -3 3 641.72 20.92
4 3 -3 616.4 23.03
4 -3 -3 632.97 25.12
4 3 -3 621.8 20.66
-4 3 2 108.31 10.4
-4 -3 2 104.71 8.09
4 3 -2 112.32 9.83
-4 3 2 115.02 11.26
-4 3 1 145.83 11.75
-4 -3 1 136.72 8.88
4 3 -1 129.28 10.45
-4 3 1 152.78 12.47
-4 -3 1 141.53 9
4 3 0 41.45 6.54
-4 3 0 28.15 5.73
-4 -3 0 35.16 5.69
-4 3 0 37.02 6.59
-4 -3 0 31.36 4.65
-4 -3 0 40.32 4.86
4 -3 1 72.14 8.92
-4 3 -1 64.94 4.8
4 3 1 74.78 8.55
-4 -3 -1 61.28 7.61
-4 -3 -1 71.18 6.61
-4 3 -1 71 8.71
4 -3 2 157.04 13.52
4 3 2 171.47 10.77
-4 -3 -2 172.36 10.79
-4 -3 -2 149.85 12.09
4 3 2 153.33 12.82
-4 3 -2 164.85 9.58
-4 3 -3 777.1 23.97
4 3 3 736.47 29.15
-4 -3 -3 811.91 24.82
4 -3 3 817.98 30.76
4 3 3 811.42 24.96
4 3 4 84.41 11.22
-4 3 -4 84.18 9.24
4 -3 4 85.1 11.33
-4 -3 -4 74.97 8.57
4 3 4 89.77 9.52
4 3 5 234.05 18.9
4 3 5 244 16.51
4 -3 5 275.25 20.47
4 3 6 56.67 9.23
4 -3 6 34.32 8.18
4 3 7 2.48 3.62
4 -3 7 4.67 5.59
4 3 8 5.81 4.9
4 3 9 19.26 9.17
-4 4 9 16.2 8.15
-4 -4 9 17.18 6.15
-4 -4 8 49.55 8.88
-4 4 8 50.28 10.27
-4 -4 7 82.09 11.51
-4 4 7 68.77 11.44
-4 -4 6 17.15 5.47
4 -4 -6 16.36 4.02
-4 4 6 11.25 5.74
4 -4 -5 113.04 8.51
-4 4 5 104.9 12.5
-4 -4 5 120.15 10.67
4 4 -5 120.8 10.73
-4 4 4 783.2 30.36
4 -4 -4 726.27 17.34
4 4 -4 753.47 24.11
-4 4 3 313.14 18.91
4 -4 -3 298.43 7.96
-4 -4 3 314.97 14.04
4 4 -3 321.86 18.29
4 4 -3 314.6 13.96
-4 4 2 342.83 18.66
-4 -4 2 339.91 13.17
4 4 -2 335.58 18.21
-4 4 2 352.98 19.33
-4 -4 1 108.7 7.24
4 4 -1 112.27 10.87
-4 4 1 126.54 12.04
-4 4 1 112.3 10.51
-4 -4 1 107.89 7.38
-4 -4 0 26.64 3.91
-4 4 0 29.45 2.21
-4 4 0 26.94 2.03
-4 -4 0 31.99 4
-4 4 0 37.67 6.48
4 4 0 25.77 5.88
-4 -4 0 30.71 5.89
-4 4 0 29.84 6.5
4 -4 1 274.72 17.46
4 4 1 229.81 15.81
-4 -4 -1 267.77 16.4
-4 -4 -1 241.68 11.42
-4 -4 -1 249.77 10.97
4 -4 2 145.96 13.4
4 4 2 154.42 9.56
4 4 2 136.31 13.16
-4 -4 -2 141.6 9.12
-4 -4 -3 29.48 4.89
4 4 3 26 6.81
4 -4 3 34.43 7.96
4 4 3 30.74 4.9
-4 4 -4 112.25 10.53
4 4 4 126.29 14.4
-4 -4 -4 117.1 10.49
4 4 4 120.66 10.13
4 -4 4 126.89 14.07
4 4 5 126.97 15.18
-4 -4 -5 150.72 12.73
4 4 5 154.03 12.92
4 -4 5 129.62 14.87
4 4 6 114.84 14.8
4 -4 6 115.47 14.72
4 4 6 115.41 12.08
4 4 7 2.11 3.05
4 -4 7 -0.22 4.99
4 4 8 31.45 8.02
-4 -5 9 1.48 3.74
-4 -5 8 20.78 6.18
-4 5 8 4.93 4.66
-4 -5 7 85.65 11.28
-4 5 7 98.83 13.57
4 -5 -6 140.5 10.99
-4 5 6 142.6 15.24
-4 -5 6 144.33 13.27
4 -5 -5 110.09 8.63
-4 5 5 128.84 13.89
-4 -5 5 117.79 11.02
4 5 -5 127.15 10.72
4 -5 -4 72.66 5.78
4 5 -4 71.79 10.29
-4 -5 4 85.32 8.6
-4 5 4 66.56 9.79
4 5 -4 64.16 7.07
-4 5 3 163.07 14.14
4 5 -3 158.12 14.18
-4 -5 3 169.84 9.33
4 5 -3 170.89 9.69
4 5 -2 268.16 18.01
-4 -5 2 302.94 11.03
-4 5 2 304.11 18.59
-4 5 1 112.38 4.5
4 5 -1 100.94 11.18
-4 -5 1 112.78 6.12
-4 5 1 102.44 11.18
-4 -5 1 98.25 6.27
-4 -5 0 99.52 5.83
4 5 0 96.48 11.05
-4 5 0 104.9 5.52
-4 5 0 93.79 10.63
-4 -5 0 109.71 6.03
4 -5 1 129.14 12.23
4 5 1 132.47 13.23
-4 5 -1 151.38 8.2
-4 5 -1 131.76 12.51
-4 -5 -1 144.93 7.17
-4 -5 -1 153.59 8.01
4 -5 2 625.43 27.79
4 5 2 564.67 27.45
-4 -5 -2 593.68 16.16
4 -5 3 339.64 21.67
4 5 3 358.14 14.46
4 5 3 333.52 22.23
-4 -5 -3 317.11 13.58
4 5 4 53.02 10.36
4 -5 4 64.85 11.25
-4 -5 -4 74.46 8.17
4 5 4 63.69 7.36
4 5 5 20.28 7.98
4 5 5 20.2 5.25
4 -5 5 36.05 9.29
4 5 6 7.19 7.66
4 5 6 11.26 4.62
4 -5 6 6.95 5.48
4 -5 7 68.41 12.07
-4 -6 9 31.26 8.09
-4 -6 8 19.88 6.46
-4 6 8 22.44 8.56
-4 6 7 50.9 10.26
-4 -6 7 46.15 8.61
-4 -6 6 76.66 9.6
-4 6 6 71.11 10.99
-4 6 5 80.02 11.42
4 6 -5 105.26 13.2
-4 -6 5 98.43 9.97
4 -6 -4 57.94 5.92
4 6 -4 60.03 10.36
-4 -6 4 74.74 7.65
-4 6 4 56.61 9.73
4 6 -4 57.65 5.98
-4 6 3 282.98 19.22
4 6 -3 235.51 18.31
-4 -6 3 279.35 12.53
-4 -6 2 300.07 10.86
-4 6 2 298.25 10.56
4 6 -2 273.36 19.34
-4 -6 2 299.8 10.63
-4 6 2 272.91 18.49
-4 6 1 203.89 8.65
4 6 -1 193.05 16.29
-4 -6 1 193.26 5.9
-4 -6 1 188.81 5.92
-4 6 1 210.53 16.41
4 6 0 278.28 19.84
-4 6 0 306.67 11.48
-4 -6 -1 157.16 4.87
4 6 1 185.79 16.45
-4 6 -1 182.16 9.96
-4 -6 -1 155.6 4.8
-4 6 -1 178.3 15.24
-4 -6 -2 23.86 3.29
4 6 2 13.08 5.92
4 -6 2 15.87 6.04
-4 -6 -2 13.19 2.55
4 6 3 36.26 9.01
4 -6 3 46.54 8.91
4 6 4 5.09 5.54
4 -6 4 1.23 3.59
4 6 5 10.39 5.83
4 -6 5 5.65 5.06
4 6 6 9.58 6.07
4 -6 6 7.48 6.65
-4 7 8 88.69 14.76
-4 7 7 6.82 5.83
-4 -7 7 2.87 3.58
-4 -7 6 73.77 9.64
4 7 -6 40.9 9.79
-4 7 6 56.73 10.63
-4 -7 5 28.1 5.69
-4 7 5 24.04 6.68
4 7 -5 27.77 8
4 7 -4 64.54 11
-4 -7 4 58.32 6.52
-4 7 4 50.28 9.13
-4 7 3 40.3 5.24
4 7 -3 40.95 8.88
-4 7 3 41.05 7.97
-4 -7 3 52.69 5
-4 7 2 137.37 13.98
-4 7 2 146.32 8.87
4 7 -2 157.53 15.91
-4 7 1 5.32 4.76
-4 7 1 18.22 3.43
4 7 -1 3.72 4.46
-4 7 0 105.74 7.83
4 7 0 120.96 14.22
-4 7 0 101.41 11.96
4 7 1 54.2 9.87
-4 7 -1 53.07 6.22
-4 7 -1 53.66 9.27
4 7 2 14.39 6.35
-4 7 -2 19.14 4.5
4 -7 2 19.17 6.46
-4 7 -2 24.83 7.13
4 -7 3 155.82 16.01
4 7 3 177.75 18.78
4 7 4 62.79 11.9
4 -7 4 42.02 9.47
4 7 5 4.24 8.32
4 -7 5 12.98 5.03
4 -7 6 37.48 10.44
-4 8 7 57.97 11.86
-4 8 6 31.8 8.72
-4 8 5 79.65 11.24
4 8 -5 73.18 12.51
-4 8 4 12.91 5.22
4 8 -4 23.23 7.06
4 8 -3 11.24 5.53
-4 8 3 9.58 4.59
-4 8 2 17.46 6.01
4 8 -2 28.82 8.14
4 8 -1 233.15 20.43
-4 8 1 241.88 18.26
-4 8 0 12.57 5.56
4 8 0 4.53 6.7
4 8 1 24.38 8.36
-4 8 -1 32.52 5.25
-4 8 -1 20.8 7.26
4 8 2 7.02 5.81
-4 8 -2 22.14 5.2
-4 8 -2 11.34 5.52
4 8 3 22.67 8.58
4 -8 3 26.98 7.94
-4 8 -3 19.35 6.78
4 8 4 29.1 8.63
4 -8 4 39.93 9.23
4 -8 5 25.7 7.43
-4 9 6 37.6 8.91
-4 9 5 21.13 7.34
-4 9 4 -0.72 1.36
4 9 -3 143.17 17.67
-4 9 3 115.08 13.42
-4 9 2 114.39 12.98
4 9 -2 125.36 15.58
-4 9 1 0.31 3.4
4 9 -1 5.27 4.85
-4 9 0 2.73 3.04
4 9 0 1.38 3.63
-4 9 -1 13.99 5.67
4 9 1 20.34 7.63
4 9 2 -11.03 6.75
-4 9 -2 10.57 5.2
-4 9 -3 51.41 10.97
4 -9 4 14.51 7.19
-4 9 -4 16.14 6.03
-5 0 9 23.89 8.26
-5 0 8 5.53 5.95
-5 0 7 17.33 6.72
-5 0 6 51.99 9.43
-5 0 5 659.29 28.52
-5 0 4 72.75 10.15
-5 0 3 177.82 13.76
5 0 -3 152.36 8.72
5 0 -3 163.19 12.9
-5 0 2 194.7 13.84
5 0 -2 192.74 9
-5 0 2 192.63 14.2
-5 0 1 -0.26 3.44
5 0 -1 1.23 1.77
-5 0 1 -1.21 2.6
5 0 0 95.76 7.02
-5 0 0 98.96 7
-5 0 0 82.16 9.46
-5 0 0 105.39 10.06
5 0 1 63.36 6.64
-5 0 -1 60.5 8
-5 0 -1 48.72 5.68
5 0 1 40.99 7.46
-5 0 -2 3.38 2.37
5 0 2 0.97 3.91
-5 0 -3 1714.72 39.02
5 0 3 1736.41 44.82
5 0 4 97.51 12.21
5 0 5 46.75 8.92
5 0 6 58.17 10.48
5 0 7 4.73 4.61
-5 1 9 109.09 15.32
-5 -1 9 122.75 15.85
-5 1 8 11.42 7.29
-5 -1 8 -1.41 3.15
-5 -1 7 7.1 5.44
-5 1 7 3.22 4.46
-5 1 6 180.11 16.51
-5 -1 6 162.17 15.27
-5 1 5 83.86 11.12
-5 -1 5 89.01 10.71
-5 1 4 738.97 29.36
-5 -1 4 713.26 27.53
5 1 -4 704.43 27.46
-5 -1 3 495.63 22
5 -1 -3 462.63 12.05
5 1 -3 462.7 16.98
5 1 -3 489.11 21.53
-5 1 2 28.98 6.74
5 -1 -2 27.55 2.62
-5 -1 2 35.98 6.69
5 1 -2 33.36 4.89
-5 1 2 32.1 6.24
-5 -1 2 38.35 6.14
-5 1 1 207.98 14.55
-5 -1 1 218.37 14.03
5 1 -1 197.03 10.94
5 -1 -1 201.39 6.7
-5 1 1 194.93 14.43
-5 -1 1 183.48 13.07
5 1 0 213.02 11.79
-5 1 0 226.18 8.38
-5 -1 0 196.41 11.02
-5 1 0 216.25 14.99
-5 -1 0 213.61 14.05
-5 -1 0 248.7 14.92
-5 1 0 230.95 15.23
5 1 1 53.31 6.82
-5 1 -1 58.67 5.16
-5 -1 -1 51.44 6.1
-5 -1 -1 47.87 7.07
5 -1 1 43.42 7.67
5 -1 2 1545.14 41.51
5 1 2 1536.75 38.91
5 1 2 1487.3 36.4
-5 1 -2 1472.82 30.72
-5 -1 -2 1527.81 35.49
-5 -1 -2 1581.44 39.32
5 1 3 74.34 9.54
-5 1 -3 79.24 8.48
-5 -1 -3 76.9 9.18
5 -1 3 86.59 11.05
5 1 3 81.62 10.28
-5 1 -4 44.58 7.06
5 1 4 49.06 8.7
5 -1 4 58.94 9.92
5 1 5 32.81 7.48
5 -1 5 29.99 8.05
5 1 6 26.62 6.32
5 -1 6 25.36 7.66
5 1 7 15.64 6.32
5 -1 7 19.12 7.27
5 1 8 20.09 7.02
-5 -2 9 25.38 9.82
-5 2 9 12.12 8.32
-5 2 8 11.69 6.16
-5 -2 8 5.69 4.87
5 -2 -7 -6.83 4.07
-5 2 7 6.2 5.97
-5 -2 7 7.6 4.84
-5 -2 6 16.51 5.78
-5 2 6 6.27 4.87
5 -2 -6 11.88 3.83
5 -2 -5 198.82 10.82
-5 2 5 208.13 16.91
-5 -2 5 208.84 15.79
5 -2 -4 1275.43 21.45
-5 -2 4 1316.01 36.26
5 2 -4 1247.18 35.51
-5 2 3 226.52 16.48
-5 -2 3 216.82 14.42
5 2 -3 218.89 13.24
5 2 -3 223 14.16
-5 2 2 38.66 7.35
-5 -2 2 49.88 7.02
5 2 -2 41.16 6.11
-5 -2 2 43.01 6.39
-5 -2 1 23.94 5.18
5 2 -1 17.43 4.26
-5 -2 1 23.62 4.61
-5 2 1 20.97 6.11
5 2 0 7.19 3.62
-5 -2 0 4.98 2.67
-5 -2 0 2.74 2.67
-5 2 0 0.39 4.32
-5 -2 0 5.66 3.27
-5 -2 -1 32.86 5.75
5 2 1 33.55 6.46
-5 2 -1 29.45 3.57
-5 -2 -1 33.83 5.88
5 -2 1 31.42 7.14
5 -2 2 710.83 29.21
5 2 2 658.26 24.63
5 2 2 649.56 25.77
-5 2 -2 642.56 19.11
-5 -2 -2 651.4 24.69
-5 -2 -2 700.51 25.2
-5 -2 -3 39.66 6.91
5 2 3 47.84 8.21
-5 2 -3 43.71 6.12
5 -2 3 35.41 8.02
5 2 3 50.49 7.85
5 2 4 240.53 18.03
-5 2 -4 216.67 14.9
5 -2 4 227.71 18.59
5 2 4 228.67 16.5
5 2 5 15.04 5.72
5 -2 5 11.78 5.51
5 2 6 7.52 4.52
5 -2 6 4.44 5.72
5 2 7 34.57 8.88
5 -2 7 44.03 10
5 2 8 149.39 17.39
-5 -3 9 17.16 7.28
-5 3 9 10.52 6.04
-5 -3 8 97.19 13.06
-5 3 8 114.39 15.66
-5 -3 7 35.15 7.6
-5 3 7 33.67 9.16
-5 3 6 17.06 7.12
5 -3 -6 17.56 3.82
-5 -3 6 11.21 5.55
5 -3 -5 360.17 13.24
-5 3 5 402.31 24.15
-5 -3 5 381.94 20.43
-5 -3 4 -1.52 2.9
5 -3 -4 1.83 1.08
5 3 -4 6.69 3.88
-5 3 4 2.68 5.02
5 3 -4 4.5 2.58
-5 3 3 134.12 13.14
-5 -3 3 140.02 11.27
5 3 -3 124.23 11.43
5 3 -3 126.45 10.37
-5 -3 2 217.08 13.29
-5 -3 2 255.52 14.33
5 3 -2 247.52 15.1
-5 3 2 213.11 16.45
-5 -3 1 43.4 6.14
5 3 -1 34.86 6.36
-5 -3 1 34.13 5.45
-5 3 1 34.19 7.1
-5 -3 0 5.78 2.79
5 3 0 12.38 4.81
-5 -3 0 10.02 3.89
-5 3 0 9.29 5.18
-5 -3 0 6.77 3.79
5 -3 1 523.62 25.25
5 3 1 534.9 23.57
-5 3 -1 543.43 12.39
-5 -3 -1 563.74 23.42
-5 -3 -1 548.37 20.97
-5 -3 -1 544.11 20.52
5 -3 2 344.6 21.32
5 3 2 323.4 16.64
5 3 2 284.65 18.29
-5 3 -2 320.86 13.09
-5 -3 -2 307.84 16.09
5 -3 3 240.11 18.66
5 3 3 246.97 15.49
5 3 3 229.73 17.7
-5 3 -3 209.28 12.65
-5 -3 -3 241.06 15.18
5 3 4 42.26 8.86
-5 3 -4 70.8 8.2
5 -3 4 56.21 9.75
5 3 4 61.03 8.82
5 3 5 4.45 4.87
5 3 5 13.73 4.68
5 -3 5 16.09 6.13
5 3 6 32.67 7.05
5 -3 6 20.55 7.02
5 3 7 11.22 5.72
5 3 8 267.55 22.63
-5 -4 9 16.7 6.5
-5 -4 8 75.9 11.79
-5 4 8 71.33 12.82
-5 -4 7 40.8 8.34
-5 4 7 29.15 9.02
-5 -4 6 21.69 5.73
-5 4 6 43.69 9.4
5 4 -5 64.93 8.78
5 -4 -5 67.66 5.5
-5 -4 5 75.25 9.17
-5 4 5 85.45 11.82
-5 4 4 265.48 19.5
5 4 -4 271.23 18.12
-5 -4 4 277.58 15.63
5 4 -4 251.96 15.13
-5 4 3 446.43 24.13
5 4 -3 432.31 22.38
-5 -4 3 444.91 18.41
-5 -4 2 77.03 7.66
-5 -4 2 97.22 8.42
5 4 -2 80.46 9.87
-5 4 2 87.52 11.27
-5 4 1 53.25 9.27
-5 -4 1 53.93 6.23
5 4 -1 44.3 7.59
-5 -4 1 49.73 6.06
-5 -4 0 43.48 5.83
-5 -4 0 41.09 5.28
5 4 0 51.49 8.36
-5 4 0 45.28 8.98
-5 4 -1 190.95 7.02
5 4 1 186.3 15.19
-5 4 -1 194.5 16.25
-5 -4 -1 188.76 11.89
-5 -4 -1 189 11.56
-5 -4 -2 38.15 5.89
-5 4 -2 44.02 5.19
5 4 2 32.74 7.46
5 -4 2 36.19 8.58
5 4 3 86.92 8.84
-5 4 -3 77.83 7.92
5 4 3 82.65 11.67
5 -4 3 67.18 10.98
-5 -4 -3 83.03 8.67
-5 -4 -4 -0.78 2.3
5 4 4 12.71 6.52
-5 4 -4 13.91 4.17
5 -4 4 0.97 5.81
5 4 4 8.65 4.14
5 4 5 3.94 5.15
5 -4 5 -4.78 5.36
5 4 5 -1.51 3.03
5 4 6 -5.81 4.7
5 -4 6 0.72 3.88
5 4 7 53.27 10.29
-5 -5 9 33.28 8.65
-5 -5 8 63.56 10.62
-5 5 8 58.62 12.18
-5 -5 7 44.51 8.07
-5 5 7 54.08 11.06
-5 -5 6 32.88 6.83
-5 5 6 44.76 9.18
-5 -5 5 8.29 3.55
5 5 -5 14.45 5.87
-5 5 5 5.75 5.44
5 5 -5 -1.73 2.11
-5 -5 4 3.06 3.25
5 5 -4 -3.76 5.44
-5 5 4 9.19 5.53
5 5 -4 -2.61 1.98
-5 5 3 114.8 13.2
5 5 -3 96.45 11.4
-5 -5 3 124.05 9.28
-5 -5 2 89.83 7.86
-5 5 2 98.03 12.29
5 5 -2 100.7 11.55
-5 -5 2 99.62 7.67
-5 -5 1 61.2 6.06
5 5 -1 46.21 8.24
-5 -5 1 58.66 5.86
5 5 0 92.71 11.73
-5 -5 0 91.4 7.11
-5 5 0 87.87 11.5
-5 -5 0 103.73 7.81
-5 -5 -1 33.72 4.64
-5 5 -1 30.44 3.28
5 5 1 40.59 8.4
-5 5 -1 26.94 2.93
-5 5 -1 39.99 8.5
-5 -5 -1 35.14 5
5 -5 2 168.95 16.25
-5 5 -2 160.48 9.54
5 5 2 147.13 15.13
-5 -5 -2 157.3 10.79
-5 -5 -2 144.82 9.58
5 5 3 18.37 7.51
5 -5 3 19.05 6.35
5 5 4 85.48 9.09
5 5 4 74.85 12.34
5 -5 4 97.58 13.85
5 5 5 13.59 6.32
5 -5 5 10.4 6.59
5 5 5 19.58 5.04
5 5 6 10.72 8.15
5 -5 6 12.19 7.53
-5 -6 9 9.67 5.2
-5 -6 8 -6.43 4.29
-5 -6 7 9.83 4.38
-5 6 7 8.57 6.93
-5 -6 6 36.79 7.35
-5 6 6 47.15 10
5 6 -6 46.38 10.19
5 6 -5 102.21 13.83
-5 -6 5 85.34 9.64
-5 6 5 88.9 12.56
-5 -6 4 53.44 6.8
5 6 -4 64.98 10.81
-5 6 4 35.56 8.52
-5 6 3 15.18 6.13
5 6 -3 16.52 7.08
-5 -6 2 31.85 3.73
-5 6 2 23.35 7.74
-5 6 1 26.63 7.61
5 6 -1 28.65 7.26
-5 -6 1 14.12 2.57
-5 -6 0 134.61 6.58
5 6 0 140.71 15.22
-5 6 0 152.87 15.51
-5 -6 -1 8.37 2.44
5 6 1 13.38 5.66
-5 6 -1 10.35 2.22
5 6 2 51.07 10.23
-5 6 -2 46.52 5.59
5 -6 2 35.73 9.09
-5 6 -2 53.53 10.05
-5 -6 -2 49.82 5.33
5 6 3 43.1 10.07
5 -6 3 56.52 9.92
5 6 4 51.3 10.52
5 -6 4 41.89 9.63
5 6 5 39.16 10.44
5 -6 5 28.03 7.94
-5 7 7 23.4 7.24
-5 7 6 51.87 10.23
5 7 -6 44.54 10.91
-5 7 5 27.01 8.21
5 7 -5 12.62 5.7
5 7 -4 54.72 10.85
-5 7 4 39.31 9.29
5 7 -3 66.3 11.55
-5 7 3 82.94 12.24
-5 7 2 115.25 13.82
5 7 -2 114.88 14.2
-5 7 1 9.06 6.27
5 7 -1 11.45 5.13
-5 7 0 4.31 4.98
5 7 0 3.53 5.2
5 7 1 18.66 6.52
-5 7 -1 19.08 7
5 7 2 165.5 17.86
-5 7 -2 178.69 17.26
5 7 3 52.36 12.11
5 -7 3 54.43 10.12
5 7 4 28.25 8.92
5 -7 4 18.68 7.21
-5 8 6 16.33 6.87
-5 8 5 17.5 6.59
5 8 -4 146.64 17.48
-5 8 4 129.77 15.33
5 8 -3 54.15 10.72
-5 8 3 79.48 12.63
-5 8 2 32.7 7.24
5 8 -2 50.29 10.28
-5 8 1 2.95 2.39
5 8 -1 -4.57 5.3
-5 8 0 4.69 3
5 8 0 3.33 4.7
5 8 1 25.04 8.73
-5 8 -1 28.36 7.87
5 8 2 10.08 5.96
-5 8 -2 7.17 4.12
-5 8 -3 0.14 5.22
5 -8 4 38.57 9.2
-5 9 5 29.11 7.43
-5 9 4 28.15 7.6
-5 9 3 33.79 8.26
-5 9 2 -11.2 5.78
-5 9 1 18.34 7.07
-5 9 0 1.9 4.06
-5 9 -1 -5.22 4.77
-5 9 -2 27.39 7.85
-5 9 -3 49.04 10.98
-6 0 8 27.09 7.99
-6 0 7 51.09 10.38
-6 0 6 75.69 11.82
-6 0 5 1545.89 46.97
6 0 -4 14.04 3.38
-6 0 4 13.12 5.75
-6 0 3 -6.98 4.54
6 0 -3 0.75 1.67
-6 0 2 27.13 6.36
6 0 -2 24.4 3.83
-6 0 1 3.28 3.61
6 0 -1 3.67 2.01
6 0 0 -0.11 1.84
-6 0 0 1.19 4.17
6 0 1 403.46 16.99
-6 0 -1 419.89 16.75
-6 0 -1 415.16 22.91
6 0 2 198.97 16.5
-6 0 -2 190.05 12.47
-6 0 -3 49.19 7.59
6 0 3 47.13 9.51
6 0 4 1.93 3.73
6 0 5 23.92 8.03
6 0 6 120.75 15.9
-6 -1 9 8.41 6.82
-6 1 8 1.1 6.04
-6 -1 8 -4.07 5.87
-6 1 7 286.57 22.86
-6 -1 7 280.93 21.64
-6 1 6 346.54 23.93
-6 -1 6 350.72 23.11
-6 1 5 296.63 21.28
-6 -1 5 282.15 20.17
-6 1 4 154.56 15.42
-6 -1 4 146.74 14.16
6 -1 -4 126.65 7.47
6 1 -4 123.07 9.92
6 -1 -3 55.13 4.2
-6 1 3 49.39 8.65
-6 -1 3 46.52 8.47
6 1 -3 47.09 5.96
-6 1 2 23.06 7.55
-6 -1 2 27.61 6.65
6 -1 -2 23.07 2.44
6 1 -2 23.81 4.72
6 1 -1 162.52 10.75
-6 1 1 183.7 15.89
-6 -1 1 179.04 14.42
6 1 0 37.27 5.77
-6 1 0 35.18 7.7
-6 -1 0 38.89 7.87
6 1 1 611 23.03
-6 1 -1 643.91 18.36
-6 -1 -1 643.05 22.64
-6 1 -1 582.39 27.45
-6 -1 -1 611.31 26.63
6 -1 2 596.92 28.81
6 1 2 655.14 28.36
6 1 2 611.19 24.85
-6 1 -2 609.17 20.48
-6 -1 -2 597.97 23.55
-6 1 -3 42.41 6.89
6 -1 3 36.16 8.8
6 1 3 48.77 9.18
6 -1 4 31.35 8.47
6 1 4 21.13 7.17
6 -1 5 21.09 7.53
6 1 5 14.73 5.73
6 -1 6 24.44 8.53
6 1 6 18.39 6.18
6 1 7 86.17 13.76
-6 -2 9 22.37 7.24
-6 -2 8 50.56 10.58
-6 2 8 45.64 10.28
-6 -2 7 132.81 15.02
-6 2 7 111.52 15.19
-6 2 6 95.1 13.16
-6 -2 6 122.52 13.76
-6 2 5 227.48 18.91
-6 -2 5 243.76 17.99
6 2 -5 238.65 16.05
-6 2 4 264.1 19.91
6 -2 -4 261.86 6.58
-6 -2 4 293.87 18.91
6 -2 -4 252.72 6.38
6 2 -4 269.66 15.93
-6 2 3 8.54 5.12
6 2 -3 14.08 4.63
-6 -2 3 13.2 4.85
-6 2 2 26.09 7.57
-6 -2 2 28.69 6.56
6 2 -2 37.03 6.22
6 2 -1 209.47 13.71
-6 2 1 227.92 18
-6 -2 1 230.02 15.99
-6 -2 1 248.44 15.89
6 2 0 102.65 10.3
-6 2 0 97.96 12.43
-6 -2 0 90.97 10.43
-6 -2 0 126.09 11.67
6 2 1 280.11 16.95
-6 2 -1 267.16 9.95
-6 -2 -1 257.45 15.76
-6 2 -1 286.74 20.06
-6 -2 -1 263.4 17.23
6 -2 2 155.13 15.55
6 2 2 122.88 12.26
-6 2 -2 124.19 8.78
6 -2 3 138.88 15.43
6 2 3 155.3 14.37
6 2 3 145.26 14.2
-6 2 -3 150.66 11.33
6 -2 4 73.59 11.82
6 2 4 89.61 11.38
6 -2 5 102.49 14.19
6 2 5 118.2 13.89
6 -2 6 61.6 11.98
6 2 6 40.6 9.61
6 2 7 18.46 7.12
-6 -3 8 135.31 15.62
-6 3 8 132.2 17.39
-6 3 7 17.73 6.95
-6 -3 7 16.05 6.15
-6 -3 6 28.19 7.66
-6 3 6 29.17 8.13
-6 -3 5 17.63 6.46
6 3 -5 17.51 5.39
-6 3 5 22.15 7.44
-6 3 4 295.2 21.64
-6 -3 4 277.1 17.75
6 3 -4 284.86 17.87
-6 3 3 140.78 14.58
-6 -3 3 137.76 12.33
6 3 -3 157.73 13.2
-6 -3 2 167.46 13.07
-6 -3 2 201.34 14.04
6 3 -2 176.85 13.74
-6 3 2 178.24 16.65
6 3 -1 113.11 11.16
-6 3 1 122.71 13.97
-6 -3 1 124.06 11.32
-6 -3 1 100.3 9.99
6 3 0 557.55 24.62
-6 3 0 585.33 29.45
-6 -3 0 591.16 24.35
-6 -3 0 528.01 22.52
6 3 1 276.02 18.43
-6 3 -1 251.95 6.96
-6 3 -1 283.34 20.67
-6 -3 -1 276.79 16.92
-6 -3 -1 267.12 16.51
6 3 2 5.29 4.3
6 -3 2 12.11 6.26
6 3 3 10.33 5.47
6 -3 3 16.3 6.18
6 3 3 21.23 5.52
6 3 4 35.95 8.29
6 -3 4 25.65 8.05
6 3 4 19.72 5.9
6 -3 5 -1.96 5.55
6 3 5 16.15 4.76
6 3 6 -8.31 5.87
6 3 7 29.54 8.1
-6 -4 8 18.68 7.01
-6 -4 7 65.79 10.24
-6 4 7 79.33 13.53
-6 4 6 36.39 9.66
6 4 -6 37.02 9.01
-6 -4 6 27.97 7.12
6 4 -5 94.64 11.76
-6 -4 5 83.74 10.5
-6 4 5 87.89 12.89
-6 -4 4 41 7.04
6 4 -4 53.07 8.93
-6 4 4 38.8 9.45
-6 -4 3 54.69 7.76
-6 4 3 67.48 10.77
6 4 -3 57.6 9.2
-6 -4 3 39.3 6.7
-6 -4 2 111.87 10.69
-6 -4 2 119.59 10.58
6 4 -2 108.09 12.07
-6 4 2 124.5 14.35
-6 -4 1 188.4 12.87
6 4 -1 162.71 14.57
-6 4 1 184.75 17.58
-6 -4 1 158.97 11.98
-6 -4 0 6.05 3.77
-6 -4 0 10.62 3.25
6 4 0 12.65 5.51
-6 4 0 4.93 6.3
-6 -4 -1 44.94 6.69
6 4 1 39.46 8.14
-6 4 -1 44.29 9.34
-6 -4 -1 49.08 7.69
6 4 2 66.3 10.81
6 -4 2 74.49 11.6
-6 -4 -2 64.24 8.28
6 4 3 74.99 12.15
6 -4 3 79.61 12.04
6 4 4 24.52 7.44
6 -4 4 18.76 6.79
6 4 4 20.8 5.4
6 4 5 60 11.79
6 -4 5 65.53 12.59
6 4 5 63.6 9.84
-6 -5 8 3.78 3.48
-6 -5 7 37.04 8.41
-6 5 7 59.24 11.88
6 5 -7 59.87 10.35
-6 5 6 80.51 12.87
6 5 -6 75.53 11.81
-6 -5 6 77.17 10.07
-6 -5 5 21.2 5.64
6 5 -5 16.78 5.96
-6 5 5 15.99 7.02
-6 -5 4 82.37 9.02
6 5 -4 72.6 11.13
-6 5 4 72.96 11.64
-6 5 3 45.24 9.76
-6 -5 3 66.53 7.54
6 5 -3 37.69 8.59
-6 -5 2 5.13 3.26
-6 5 2 10.07 6.37
6 5 -2 11.93 5.98
-6 -5 1 199.72 12.2
6 5 -1 164.49 15.73
-6 5 1 177.02 17.53
-6 -5 0 21.29 4.49
6 5 0 10.71 6.11
-6 5 0 14.58 7.44
6 5 1 140.83 14.76
-6 5 -1 143.06 15.86
-6 -5 -1 146.64 11.36
6 5 2 58.9 9.91
-6 5 -2 70.1 11.25
-6 -5 -2 80.08 8.63
6 5 3 1.77 4.19
6 -5 3 5.46 6.22
6 5 4 111.78 15.08
6 -5 4 87.17 13.73
6 5 5 37.46 10.83
-6 -6 6 16.95 5.45
-6 6 6 16.52 5.89
6 6 -6 14.56 5.99
-6 6 5 153.86 17.42
6 6 -5 166.74 17.7
-6 -6 5 170.51 13.97
6 6 -4 34.16 9.21
-6 6 4 40.24 10.23
-6 6 3 71.17 11.58
6 6 -3 74.27 11.81
-6 6 2 57.6 11.14
6 6 -2 51.82 10.4
-6 6 1 6.54 5.86
6 6 -1 13.44 6.16
6 6 0 13.98 5.95
-6 6 0 3.76 5.28
6 6 1 20.15 6.8
-6 6 -1 12.98 5.83
6 6 2 44.05 9.59
-6 6 -2 58.1 11.41
6 6 3 10.54 6.37
6 -6 3 6.69 5.68
6 6 4 4.5 6.16
6 7 -5 -4.25 4.8
-6 7 5 3.56 3.82
6 7 -4 0.03 3.51
-6 7 4 -10.55 5.76
-6 7 3 1.51 3.33
6 7 -3 9.83 4.83
-6 7 2 11.02 6.54
6 7 -2 9.11 7.48
-6 7 1 7.61 6.21
6 7 -1 10.66 6.73
-6 7 0 -12.62 6.58
6 7 0 -2.67 4.56
6 7 1 29.18 8.3
-6 7 -1 41.23 8.76
6 7 2 34.19 9.41
-6 7 -2 27.38 8.34
-6 7 -3 62.34 12.07
-6 8 4 14.89 5.16
-6 8 3 -2.89 4.87
-6 8 2 10.59 5.67
6 8 -2 13.2 7.68
-6 8 1 4.99 4.56
6 8 -1 5.61 5.81
-6 8 0 78.28 12.62
-6 8 -1 16.99 6.66
-6 8 -2 -12.47 6.43
-6 9 2 17.32 7.32
-6 9 1 23.12 8.49
-7 0 8 7.32 7.41
-7 0 7 82.14 13.63
-7 0 6 2.19 3.92
7 0 -5 -2.02 2.1
-7 0 5 8.73 5.48
7 0 -4 1.66 1.72
-7 0 4 3.75 3.91
-7 0 3 16.16 6.31
7 0 -3 13.49 3.31
7 0 -2 661.39 18.55
-7 0 2 735.38 32.51
7 0 -1 150.93 9.41
-7 0 1 143.57 15.12
7 0 0 2.98 2.38
-7 0 0 0.03 6.56
-7 0 -1 -0.57 5.22
-7 0 -2 7.1 4.51
7 0 3 22.1 7.08
7 0 4 67.99 11.68
7 0 5 1.11 4.58
-7 -1 8 370.07 27.76
-7 1 7 119.12 15.93
-7 -1 7 124.83 15.7
-7 1 6 195.4 19.36
-7 -1 6 204.58 18.98
7 1 -6 175.03 13.63
-7 -1 5 21.6 7.6
7 1 -5 26.43 5.32
-7 1 5 31.06 8.67
7 1 -4 18.78 4.52
-7 1 4 18.31 7.13
-7 -1 4 17.75 6.49
7 1 -3 82.45 8.13
-7 1 3 73.24 11.28
-7 -1 3 80.39 11.13
7 1 -2 133.15 10.1
-7 1 2 139.13 15.63
-7 -1 2 125.42 13.78
-7 1 1 92.02 13.1
7 1 -1 98.9 9.16
-7 -1 1 113.32 13.07
7 1 0 91.53 9.21
-7 -1 0 112.25 13.36
-7 1 0 98.02 13.25
7 1 1 19.77 4.85
-7 -1 -1 23.44 5.09
-7 1 -1 15.33 6.21
-7 -1 -1 16.2 6.73
7 1 2 129.65 12.21
-7 1 -2 116.21 14.3
-7 -1 -2 112.03 13.99
7 -1 3 64.6 11.25
7 1 3 96.83 12.61
7 -1 4 6.66 5.9
7 1 4 2.44 4.32
7 -1 5 198.51 20.19
7 1 5 174.98 18.4
-7 -2 8 22.27 8.78
-7 2 7 93.09 14.48
7 2 -7 99.57 11.72
-7 -2 7 86.21 13.51
-7 2 6 55.08 11.1
-7 -2 6 76.67 11.87
7 2 -6 72.89 9.82
-7 -2 5 57.7 9.23
7 2 -5 48.16 8.28
-7 2 5 65.11 11.42
7 2 -4 50.7 7.46
-7 2 4 43.62 9.59
-7 -2 4 43.94 8.84
7 2 -3 101.65 10.43
-7 2 3 89.16 12.37
-7 -2 3 70.8 10.23
-7 2 2 41.19 9.5
-7 -2 2 35.7 8.27
7 2 -2 36.88 6.66
7 2 -1 228.64 14.98
-7 2 1 273.52 21.4
-7 -2 1 252.55 18.65
-7 -2 0 30.91 7.69
7 2 0 29.13 5.97
-7 2 0 32.74 8.79
7 2 1 54.72 8.95
-7 2 -1 70.72 11.81
-7 -2 -1 56.31 9.31
7 2 2 58.14 9.26
-7 2 -2 48.29 10.26
-7 -2 -2 33.89 8.28
7 2 3 10.92 5.03
7 -2 3 0.71 4.31
7 -2 4 67.34 12.13
7 2 4 56.65 10.72
7 2 5 65.6 11.7
7 2 6 3.96 5.58
-7 -3 8 175.09 18.61
7 3 -7 110.93 13.75
-7 -3 7 90.53 13.25
-7 3 6 13.4 7.15
7 3 -6 23.17 6.02
-7 -3 6 15.24 6.87
-7 -3 5 20.77 6.32
7 3 -5 38.01 7.58
-7 3 5 36.13 9.42
-7 -3 4 54.52 8.99
7 3 -4 50.68 8.36
-7 3 4 64.5 11.86
-7 3 3 26.01 7.89
7 3 -3 21.33 5.57
-7 -3 3 11.91 5.32
-7 3 2 40.93 8.95
-7 -3 2 40.01 7.09
7 3 -2 44.96 7.68
-7 3 1 36.62 9.28
-7 -3 1 27.05 6.29
7 3 -1 26.41 6.83
-7 -3 0 23.03 6.04
7 3 0 24.79 5.97
-7 3 0 12.7 6.1
7 3 1 176.21 15.49
-7 3 -1 205.37 19.38
-7 -3 -1 196.7 15.81
7 3 2 70.31 10.74
-7 3 -2 64.24 11.44
-7 -3 -2 66.98 10.41
7 3 3 46.17 9.42
7 -3 3 52.01 10.43
7 -3 4 161.73 18.43
7 3 4 166.33 16.26
7 3 4 147.91 16.75
7 3 5 51.77 10.29
-7 -4 8 5.84 4.9
7 4 -8 18.51 7.61
-7 -4 7 19.14 7.43
7 4 -7 19.97 7.02
-7 4 6 94.82 14.9
-7 -4 6 116.76 13.66
7 4 -6 70.85 11.2
7 4 -5 57.71 10.31
-7 -4 5 65.6 10.06
-7 4 5 66.59 12.26
-7 -4 4 37.41 7.25
7 4 -4 36.01 7.9
-7 4 4 57.88 10.91
-7 4 3 20.26 7.77
7 4 -3 33.27 7.65
-7 -4 3 36.35 7.3
-7 4 2 48.55 11.23
7 4 -2 30.86 7.59
-7 -4 2 47.34 7.68
-7 -4 1 164.89 13.68
7 4 -1 114.48 12.87
-7 4 1 143.67 17.23
7 4 0 139.15 14.24
-7 4 0 137 16.5
-7 -4 0 157.68 13.45
7 4 1 17.33 6.17
-7 4 -1 21.54 7.46
-7 -4 -1 20.91 5.9
7 4 2 25.69 8.14
-7 4 -2 46.43 10.78
-7 -4 -2 39.87 8.07
7 -4 3 179.11 19.22
7 4 3 176.96 18.62
-7 -4 -3 186.33 16.23
7 4 4 9.73 5.61
-7 -5 8 8.46 4.5
7 5 -7 22.53 6.73
7 5 -6 3.74 4.03
7 5 -5 -0.65 4.75
-7 5 5 12.39 6.51
7 5 -4 35.25 8.36
-7 5 4 52.16 11.35
-7 -5 4 58.06 8.42
-7 5 3 164.77 18.6
7 5 -3 153.11 15.81
-7 -5 3 166.92 13.28
-7 5 2 26.61 8.73
7 5 -2 18.94 6.65
-7 -5 2 21.42 5.5
-7 -5 1 200.87 13.94
7 5 -1 179.31 17.07
-7 5 1 193.03 19.64
7 5 0 32.04 8.17
-7 5 0 24.8 8.61
7 5 1 24.11 7.31
-7 5 -1 10.52 6.88
7 5 2 4.8 4.58
-7 5 -2 11.87 6.74
7 5 3 13.18 6.13
7 6 -5 53.32 11.27
7 6 -4 15.6 6.42
-7 6 4 4.56 5.52
-7 6 3 77.89 13.45
7 6 -3 52.13 10.57
-7 6 2 65.34 12.94
7 6 -2 63.32 11.26
-7 6 1 96.99 15.12
7 6 -1 68.33 11.87
-7 6 0 103.19 14.8
7 6 0 93.49 13.92
7 6 1 8.61 4.9
-7 6 -1 -4.33 5.77
7 6 2 12.56 6.84
7 7 -3 101.18 14.37
-7 7 2 178.62 19.56
7 7 -2 163.39 18.61
-7 7 1 1.36 4.04
7 7 -1 -5.1 5.98
7 7 0 28 8.72
-8 0 6 0.26 4.41
-8 0 5 7.78 6.22
-8 0 4 29.93 9.2
-8 0 3 11.28 6.11
-8 0 2 107.79 14.24
-8 0 1 15.15 6.44
-8 0 0 9.41 6.1
-8 0 -1 8.72 6.5
-8 0 -2 3.44 5.28
-8 0 -3 -2.96 6.29
-8 -1 7 22.98 8.57
-8 1 6 -3.83 4.89
-8 -1 6 6.58 5.91
-8 1 5 6.64 6.03
-8 -1 5 13.03 6.79
-8 1 4 81.25 13.4
-8 -1 4 67.15 11.35
-8 1 3 69.14 12.03
-8 -1 3 86.93 12.25
-8 1 2 31.18 8.18
-8 -1 2 26.03 7.86
-8 1 1 95.66 13.84
-8 -1 1 105.44 14.03
-8 -1 0 42.75 9.25
-8 1 0 47.57 10.03
-8 1 -1 20 6.98
-8 -1 -1 20.84 7.33
-8 1 -2 62.93 12.68
-8 -1 -2 72.85 12.72
-8 1 -3 43.59 12.09
-8 -1 -3 46.37 11.27
-8 -2 7 18.93 8.04
-8 -2 6 -9.87 5.98
-8 -2 5 6.81 4.27
-8 2 5 10.77 5.48
-8 2 4 9.05 6.27
-8 -2 4 -1.2 4.05
-8 2 3 85.61 13.9
-8 -2 3 91.45 12.91
-8 -2 2 161.54 15.94
8 2 -2 121.25 11.49
-8 2 2 133.35 16.8
-8 -2 1 2.85 4.74
8 2 -1 10 4
-8 -2 0 31.34 7.59
8 2 0 29.59 6.35
-8 2 0 18.9 7.97
8 2 1 18.42 5.91
-8 2 -1 16.89 7.03
-8 -2 -1 18.74 6.53
8 2 2 13.19 4.92
-8 2 -2 6.97 6.31
-8 -2 -2 11.74 6.46
-8 -2 -3 91.86 13.73
-8 -3 7 3.91 4.77
-8 -3 6 28.13 7.98
-8 -3 5 46.36 9.55
8 3 -4 28.89 6.41
-8 3 4 28.56 8.98
-8 -3 4 47.34 9.88
8 3 -3 38.21 8.06
-8 -3 3 31.56 7.68
-8 3 2 44.89 11.36
8 3 -2 57.39 9.47
-8 -3 2 73.08 11
-8 3 1 14.97 7.8
-8 -3 1 1.3 3.68
8 3 -1 11.24 4.72
-8 -3 0 -0.68 3.45
8 3 0 0.03 3.29
-8 3 0 0.04 4.07
8 3 1 34.76 7.87
-8 3 -1 20.38 8.48
-8 -3 -1 38.92 7.8
8 3 2 2.53 5.17
-8 -3 -2 19.17 6.9
8 3 3 -0.61 1.34
-8 -3 -3 14.29 6.06
-8 -3 -4 7.72 5.92
8 4 -5 41.23 8.91
-8 -4 5 26.08 7.4
-8 -4 4 16.67 5.99
8 4 -4 21.16 6.63
-8 4 3 -0.88 4.07
8 4 -3 6.73 5.54
-8 -4 3 15.78 5.56
-8 4 2 29.81 8.53
8 4 -2 40.45 8.77
-8 -4 2 47.44 8.97
-8 4 1 8.25 5.64
-8 -4 1 12.09 4.68
8 4 -1 18.32 5.9
-8 4 0 46.24 10.12
-8 -4 0 46.35 8.98
8 4 0 38.59 8.37
-8 -4 -1 86.35 11.6
8 4 1 63.43 11.39
8 4 2 24.75 7.25
8 4 3 34.21 8.84
8 5 -6 19.23 6.34
8 5 -5 39.89 9.08
8 5 -4 45.11 9.69
8 5 -3 27.43 7.89
8 5 -2 61.45 11.17
8 5 -1 27.32 8.29
8 5 0 32.92 9.3
8 5 1 18.52 6.83
8 5 2 17.55 6.98
8 6 -4 96.54 14.49
8 6 -3 28.28 8.38
8 6 -2 106.75 15.07
8 6 -1 16.89 7.59
8 6 0 7.26 6.17
-9 0 4 19.19 7.88
-9 0 3 28.62 9.3
-9 0 2 -5.45 5.6
-9 0 1 8.71 6.88
-9 0 0 45.74 10.72
-9 -1 4 -11.64 4.91
-9 -1 3 -5.51 5.33
-9 1 2 8.64 6.16
-9 -1 2 8.66 5.43
-9 1 1 17.67 8.43
-9 -1 1 6.09 4.5
-9 -1 0 19.88 8.14
-9 -1 -1 11.11 6.14
-9 -2 5 24.75 8.93
-9 -2 4 26.04 8.29
-9 -2 3 26.03 7.7
-9 -2 2 26.28 7.97
-9 -2 1 3.62 4.83
-9 -2 0 -1.87 5.18
-9 -2 -1 26.43 9.12
-9 -2 -2 21.69 8.46
-9 -3 5 13.1 7.25
-9 -3 4 24.95 7.18
-9 -3 3 6.01 4.17
-9 -3 2 42.09 9.08
-9 -3 1 28.06 8.01
-9 -3 0 49.01 10.44
-9 -3 -1 10.49 4.94
loop_
_exptl_oxdiff_crystal_face_indexfrac_h
_exptl_oxdiff_crystal_face_indexfrac_k
_exptl_oxdiff_crystal_face_indexfrac_l
_exptl_oxdiff_crystal_face_x
_exptl_oxdiff_crystal_face_y
_exptl_oxdiff_crystal_face_z
-8.9946 -0.0048 -1.9982 0.3223 -0.8386 -0.3445
9.9939 0.0054 -0.0007 -0.1665 0.9373 0.3651
1.9997 -0.9982 10.9932 -0.9739 0.1312 0.2385
3.9989 -4.9919 -9.9957 0.8364 0.2545 0.4577
4.0015 -10.9855 -2.0018 0.1950 0.0604 0.9904
-1.0031 8.9896 -6.9936 0.5475 0.1850 -0.7958
-0.0021 6.9919 8.9965 -0.8329 0.1810 -0.4760
0.0033 -9.9886 -6.9984 0.6847 -0.2731 0.7265
8.9930 3.0018 -6.9958 0.4296 0.9480 0.0385
-0.9949 -11.9872 0.9965 0.0276 -0.4447 0.9098
-6.9984 7.9871 4.9996 -0.3795 -0.4361 -0.8415
-5.9954 -1.0025 10.9938 -0.8408 -0.6186 -0.0536
6.9941 3.0008 -9.9939 0.7217 0.7679 -0.0583
-3.9969 -2.9985 -8.9953 0.8671 -0.4398 0.0172
loop_
_hkl_oxdiff_h
_hkl_oxdiff_k
_hkl_oxdiff_l
_hkl_oxdiff_f2
_hkl_oxdiff_sig
_hkl_oxdiff_ba
0 0 -2 59629.2 1296.90 1
0 0 2 62678.0 1329.01 2
0 0 -3 8731.39 632.479 1
0 0 3 9347.49 679.032 2
0 0 -4 22950.3 1178.40 1
0 0 4 23417.8 1178.17 2
0 0 5 9454.10 882.530 2
0 0 -5 9916.71 891.340 1
0 0 -6 2397.45 564.243 3
0 0 6 2280.30 521.613 2
0 0 -6 2417.59 530.710 1
0 0 7 579.380 394.671 2
0 0 8 2437.23 668.324 2
0 0 9 -805.898 456.395 2
0 0 10 1893.69 809.636 2
0 1 1 190338. 1671.34 1
0 -1 -1 194872. 1918.64 3
0 1 1 193747. 1917.67 3
0 -1 1 190285. 1747.96 2
0 1 -1 188510. 1741.87 2
0 -1 -2 106945. 1756.34 1
0 -1 -2 112244. 1910.32 3
0 1 2 108415. 1875.42 3
0 1 -2 106885. 1806.41 2
0 -1 2 111124. 1830.76 2
0 1 2 105921. 1689.92 2
0 -1 -3 1447.03 339.588 3
0 -1 -3 1392.64 295.400 1
0 -1 3 1273.36 338.094 2
0 1 3 1529.89 332.214 2
0 1 -3 960.655 263.245 2
0 -1 -4 30053.6 1399.78 3
0 -1 -4 29374.1 1341.95 1
0 1 4 30354.0 1323.19 2
0 -1 4 29294.0 1333.59 2
0 1 -4 30124.2 1335.95 1
0 -1 5 15926.5 1133.59 2
0 -1 -5 15743.5 1110.99 1
0 -1 -5 16160.1 1162.52 3
0 1 -5 13943.2 1052.92 1
0 1 5 16579.5 1123.18 2
0 1 6 124419. 3333.16 2
0 -1 -6 125258. 3523.23 3
0 -1 -6 126027. 3430.66 1
0 -1 6 124180. 3403.76 2
0 -1 7 111619. 3543.01 2
0 1 7 110983. 3454.39 2
0 1 8 5872.88 948.973 2
0 -1 8 5355.34 957.991 2
0 1 9 1258.55 667.133 2
0 -1 9 972.426 539.195 2
0 1 10 1801.21 657.821 2
0 -1 10 1205.14 633.199 2
0 2 0 308995. 1764.64 2
0 2 0 320789. 2760.47 3
0 -2 0 309395. 1761.20 2
0 2 0 316303. 1774.61 1
0 2 -1 809249. 3987.97 2
0 -2 1 811464. 3981.51 2
0 2 1 816667. 4796.75 3
0 -2 -1 823129. 4746.99 3
0 -2 -1 806544. 3688.30 1
0 2 1 802504. 3686.45 1
0 -2 -2 88569.6 1825.35 3
0 2 -2 87695.6 1694.92 2
0 -2 2 88892.6 1733.73 2
0 -2 -2 86759.5 1610.65 1
0 2 2 84678.5 1597.99 1
0 2 2 86544.9 1841.55 3
0 -2 -3 50129.3 1494.42 1
0 -2 -3 51663.0 1644.10 3
0 2 3 52209.1 1470.32 2
0 -2 3 53998.6 1621.09 2
0 2 3 52352.1 1660.40 3
0 2 -3 49682.6 1543.41 2
0 2 4 7334.10 675.072 2
0 -2 -4 8761.83 743.954 1
0 -2 -4 7295.65 736.692 3
0 2 -4 8632.50 756.996 2
0 -2 4 8857.82 780.928 2
0 -2 -5 22870.3 1340.16 1
0 2 -5 21359.5 1288.21 1
0 -2 -5 24265.4 1432.91 3
0 -2 5 23764.4 1378.39 2
0 2 5 22700.5 1288.82 2
0 -2 -6 55753.6 2297.03 1
0 2 6 53746.0 2185.46 2
0 -2 6 51450.2 2256.62 2
0 2 7 17399.5 1381.30 2
0 -2 7 17895.6 1481.91 2
0 2 8 7801.31 1082.26 2
0 -2 8 11904.7 1350.07 2
0 -2 9 1829.23 685.275 2
0 2 9 2217.25 678.068 2
0 2 10 3611.91 909.449 2
0 -2 10 6735.77 1117.18 2
0 3 0 29.2610 85.5341 2
0 3 0 -21.0262 94.9918 1
0 3 0 216.681 227.895 3
0 -3 -1 44462.7 945.375 1
0 -3 1 42194.4 1007.01 2
0 3 -1 44009.8 1025.40 2
0 -3 -1 41071.7 1262.46 3
0 3 1 42289.4 931.093 1
0 3 1 42566.5 1316.76 3
0 3 2 13757.4 837.838 3
0 -3 -2 13297.1 812.122 3
0 3 -2 12914.3 704.559 2
0 -3 2 13937.9 732.528 2
0 -3 -2 12976.8 657.304 1
0 3 2 11787.6 639.403 1
0 -3 -3 12359.6 770.940 1
0 3 -3 11972.8 796.931 2
0 -3 -3 11364.2 825.865 3
0 -3 3 11022.5 788.417 2
0 3 3 10923.2 853.263 3
0 3 3 11284.3 743.010 1
0 3 -4 2656.01 468.442 2
0 -3 4 3204.52 509.919 2
0 -3 -4 2579.23 457.238 3
0 -3 -4 2763.65 439.746 1
0 3 4 2540.89 525.534 3
0 3 4 2625.39 444.495 2
0 -3 -5 63266.4 2360.69 3
0 3 -5 59627.7 2147.79 1
0 -3 5 57627.2 2209.17 2
0 -3 -5 59178.8 2148.10 1
0 3 5 56415.5 2011.44 2
0 3 6 61937.4 2350.07 2
0 -3 6 66291.6 2593.76 2
0 3 7 83.4073 362.005 2
0 -3 7 378.789 421.811 2
0 -3 8 9819.19 1225.96 2
0 3 8 9044.44 1133.64 2
0 3 9 -637.711 466.588 2
0 -3 9 399.166 528.273 2
0 3 10 2823.64 849.656 2
0 4 0 53170.7 1019.92 1
0 4 0 48747.3 1573.95 3
0 4 0 49461.1 977.820 2
0 4 1 34105.0 892.503 1
0 -4 -1 33903.4 1320.99 3
0 -4 1 32369.6 960.147 2
0 4 -1 35278.6 1375.41 3
0 4 1 33763.1 1345.88 3
0 4 -1 33567.5 969.471 2
0 4 1 33445.5 803.206 2
0 -4 -1 32791.6 866.247 1
0 -4 2 29683.8 1113.91 2
0 4 2 28332.5 1311.47 3
0 4 -2 27303.8 1051.36 2
0 -4 -2 27290.4 1259.48 3
0 -4 -2 28599.9 991.437 1
0 4 2 27227.8 968.830 1
0 4 3 12580.9 959.842 3
0 4 3 11254.6 739.573 1
0 -4 -3 12484.0 776.080 1
0 -4 -3 12155.7 911.469 3
0 -4 3 14353.3 900.548 2
0 4 -3 11748.9 818.542 2
0 4 4 37591.3 1800.36 3
0 4 4 39332.4 1475.19 2
0 4 -4 40537.5 1689.28 2
0 -4 4 39334.7 1649.48 2
0 -4 -4 39917.1 1586.48 1
0 -4 -4 38459.9 1758.82 3
0 -4 -5 33816.1 1790.10 3
0 -4 5 41151.9 1873.20 2
0 4 -5 37038.6 1797.54 2
0 4 5 35847.6 1898.28 3
0 4 5 35671.8 1595.87 2
0 -4 -5 37605.2 1738.00 1
0 4 6 16073.3 1224.23 2
0 -4 6 16946.6 1376.06 2
0 -4 7 16537.0 1460.52 2
0 4 7 15822.0 1312.92 2
0 -4 8 3857.84 810.484 2
0 4 8 3797.21 710.174 2
0 4 9 -490.063 453.354 2
0 -4 9 -398.857 252.070 2
0 4 10 152.334 395.732 2
0 5 0 -275.905 278.849 3
0 5 0 -18.0915 101.655 1
0 5 0 -39.6448 99.7326 2
0 -5 1 38668.7 1115.51 2
0 5 -1 38990.1 1596.38 3
0 -5 -1 40796.6 1624.15 3
0 5 1 39340.3 1610.32 3
0 5 1 38327.6 1000.86 1
0 5 1 39437.7 914.032 2
0 5 -1 39694.1 1127.73 2
0 5 2 33454.5 1559.25 3
0 -5 -2 36507.1 1599.43 3
0 5 2 35383.1 1139.25 1
0 -5 2 35807.3 1274.19 2
0 -5 -2 34733.7 1123.38 1
0 5 -2 36425.4 1268.61 2
0 -5 3 6388.55 648.244 2
0 5 3 5575.03 554.658 1
0 5 3 4868.79 699.308 3
0 -5 -3 6811.33 752.974 3
0 -5 -3 5333.51 526.684 1
0 5 -3 5207.94 554.303 2
0 -5 -4 4647.22 661.546 3
0 -5 4 5684.69 684.700 2
0 5 -4 4840.55 631.465 2
0 5 4 4660.67 737.616 3
0 5 4 4973.86 567.925 2
0 -5 -4 5424.21 625.672 1
0 5 5 11081.7 1145.30 3
0 5 -5 9994.83 987.175 2
0 5 5 10410.9 898.473 2
0 -5 -5 10084.9 923.513 1
0 -5 5 10810.2 1030.54 2
0 5 6 15028.8 1164.24 2
0 5 6 12587.8 1300.93 3
0 -5 6 13007.5 1231.68 2
0 -5 7 1302.09 568.102 2
0 5 7 1559.10 468.572 2
0 5 8 695.520 405.794 2
0 -5 8 1024.46 556.550 2
0 -5 9 85.6410 441.272 2
0 5 9 81.1222 177.449 2
0 5 10 -1380.79 633.930 2
0 6 0 91456.2 2660.34 3
0 6 0 90514.5 1523.22 2
0 6 0 92261.4 1537.87 1
0 6 1 1370.46 224.563 1
0 6 1 1295.23 188.654 2
0 6 -1 686.232 203.341 1
0 6 -1 1161.80 412.672 3
0 6 -1 1183.60 236.970 2
0 6 1 1185.55 386.128 3
0 -6 1 1160.28 267.509 2
0 6 2 14839.3 1159.26 3
0 6 2 16011.3 792.928 1
0 -6 2 17663.3 940.981 2
0 -6 -2 16418.2 789.531 1
0 6 2 16739.7 692.359 2
0 -6 -2 17930.4 1233.20 3
0 6 -2 15910.4 1193.65 3
0 6 -2 15828.9 888.867 2
0 6 -3 3298.45 489.596 2
0 6 3 4360.15 493.818 1
0 -6 3 4905.56 590.237 2
0 -6 -3 3557.66 587.152 3
0 6 3 4106.59 686.724 3
0 -6 -3 4302.80 492.319 1
0 6 4 4638.65 534.808 2
0 -6 4 6513.39 756.599 2
0 6 -4 5328.84 666.714 2
0 -6 -4 6485.05 684.585 1
0 6 4 6508.98 877.268 3
0 6 5 7010.91 978.822 3
0 -6 -5 5731.84 708.200 1
0 6 -5 5506.20 720.804 1
0 6 5 5687.14 656.638 2
0 -6 5 6151.00 806.390 2
0 -6 6 250.850 317.485 2
0 6 6 921.469 503.624 3
0 6 6 207.635 209.872 2
0 -6 7 2005.69 636.074 2
0 6 7 2932.28 623.084 2
0 6 8 1787.45 616.740 2
0 -6 8 1401.77 562.412 2
0 -6 9 2637.40 829.212 2
0 6 9 5021.51 897.098 2
0 7 0 -3.35165 105.502 2
0 7 0 -77.3640 86.3441 1
0 7 0 17.1805 342.450 3
0 7 -1 2645.02 323.506 1
0 7 1 2441.12 285.252 1
0 7 1 2343.32 564.178 3
0 7 -1 2311.64 585.767 3
0 7 -1 2367.31 309.248 2
0 7 1 2448.72 247.626 2
0 7 -2 20638.8 1439.43 3
0 7 2 20715.8 724.927 2
0 -7 2 21685.3 1076.28 2
0 7 2 21652.5 900.154 1
0 7 2 20980.8 1471.43 3
0 7 -2 22148.3 1070.00 2
0 7 -3 667.533 191.858 2
0 7 3 444.199 407.704 3
0 7 3 1052.16 235.028 2
0 -7 -3 1009.33 283.560 1
0 -7 3 862.577 301.418 2
0 7 3 518.745 194.758 2
0 7 -4 491.104 212.509 2
0 7 4 220.040 358.267 3
0 -7 4 -389.153 267.404 2
0 -7 -4 -239.147 187.178 1
0 7 4 23.9691 181.694 2
0 7 5 3597.64 533.585 2
0 7 5 5212.24 903.291 3
0 -7 5 5239.60 785.402 2
0 -7 -5 4728.62 673.852 1
0 -7 6 3150.79 696.317 2
0 7 6 2191.51 669.826 3
0 7 6 3255.22 532.048 2
0 7 7 13081.8 1173.19 2
0 -7 7 11660.6 1318.18 2
0 -7 8 1293.87 543.794 2
0 8 0 20248.9 664.302 1
0 8 0 20033.3 669.119 2
0 8 0 20602.9 1534.56 3
0 8 1 1796.31 236.563 1
0 8 -1 2753.03 650.871 3
0 8 1 1789.96 156.676 2
0 8 -1 2019.50 296.493 2
0 8 -1 2010.50 271.536 1
0 8 1 1731.09 555.180 3
0 8 2 903.004 449.609 3
0 8 -2 74.6622 283.526 3
0 8 -2 541.914 188.004 1
0 -8 2 64.9298 155.308 2
0 8 -2 528.978 215.319 2
0 8 2 274.294 93.7942 2
0 8 2 220.288 90.3968 2
0 8 3 2127.04 642.864 3
0 -8 3 2916.04 506.206 2
0 8 -3 3523.50 753.191 3
0 8 3 2915.67 313.532 2
0 8 4 1163.14 580.718 3
0 -8 4 626.111 323.001 2
0 -8 5 12016.6 1151.53 2
0 8 5 10843.5 1329.39 3
0 8 6 2259.58 720.190 3
0 -8 6 1540.99 573.090 2
0 -8 7 -638.968 353.589 2
0 8 7 -519.056 367.744 3
0 -8 8 8792.32 1207.89 2
0 9 0 530.676 385.682 3
0 9 -1 1913.51 643.590 3
0 9 1 2817.66 696.612 3
0 9 2 3325.38 767.964 3
0 9 -2 5453.13 915.398 3
0 9 3 575.355 379.420 3
0 9 -3 1197.34 547.527 3
0 9 4 2005.24 570.593 3
0 9 -4 3780.05 822.008 3
0 9 5 1915.80 588.639 3
0 9 -5 2534.88 776.237 3
0 9 6 2243.33 750.177 3
0 10 0 5613.38 1022.96 3
0 10 -1 4207.98 815.355 3
0 10 1 2986.53 804.898 3
0 10 2 668.314 516.826 3
0 10 -2 2045.39 632.009 3
0 10 3 1109.77 534.812 3
0 10 -3 -463.146 428.301 3
0 10 -4 1615.37 593.457 3
0 10 4 1721.10 586.594 3
0 10 5 527.252 368.660 3
0 11 0 -1193.87 506.012 3
0 11 1 1882.67 779.843 3
0 11 -1 1377.07 644.030 3
0 11 2 -600.680 565.280 3
0 11 -2 505.791 362.836 3
-1 0 10 1835.98 715.303 2
-1 0 9 63602.4 3106.80 2
-1 0 8 54201.9 2627.84 2
-1 0 7 6023.29 867.419 2
1 0 -6 377.819 305.118 1
-1 0 6 74.2529 224.863 2
-1 0 5 14473.6 1066.73 2
1 0 -5 13851.3 1037.62 1
-1 0 4 103360. 2433.86 1
1 0 -4 103087. 2490.72 1
-1 0 3 276683. 3498.32 1
1 0 -3 279366. 3509.30 1
1 0 -2 19756.4 790.877 1
-1 0 2 20988.8 836.614 1
-1 0 1 152.689 163.196 1
1 0 -1 6.82794 141.277 1
1 0 1 145333. 1722.61 3
-1 0 -1 137577. 1752.51 2
-1 0 -1 138807. 1710.80 3
1 0 1 138409. 1755.26 2
1 0 2 128894. 2107.81 2
-1 0 -2 133179. 2168.09 3
-1 0 -2 130776. 2101.12 2
-1 0 -3 125340. 2540.80 3
1 0 3 127354. 2453.87 2
-1 0 -3 127563. 2473.20 2
1 0 4 854.051 385.421 2
-1 0 -4 518.766 276.364 2
-1 0 -4 413.502 259.618 3
-1 0 -5 91357.4 2669.32 2
1 0 5 90098.2 2668.35 2
-1 0 -5 91848.7 2794.60 3
1 0 6 42653.1 2047.67 2
1 0 7 49131.3 2423.60 2
1 0 8 7225.43 1029.02 2
1 0 9 4268.50 955.156 2
1 0 10 -184.615 493.109 2
-1 1 10 7600.67 1251.98 2
-1 -1 10 6454.86 1160.95 2
-1 1 9 19898.8 1737.28 2
-1 -1 9 20618.1 1811.44 2
-1 -1 8 892.369 451.005 2
-1 1 8 1300.25 567.104 2
-1 -1 7 53369.6 2431.01 2
-1 1 7 54924.5 2456.52 2
1 -1 -6 1368.50 394.648 3
1 -1 -6 1900.31 477.469 1
-1 1 6 1386.49 507.127 2
-1 -1 6 1391.65 454.737 2
1 1 -6 1537.92 479.263 1
-1 -1 5 4980.03 650.339 2
1 1 -5 5232.47 670.814 1
-1 1 5 5233.31 690.150 2
1 -1 -5 6163.57 727.571 1
1 -1 -5 5424.67 662.843 3
1 1 -4 41175.3 1557.30 1
1 -1 -4 38369.3 1490.90 3
-1 1 4 39096.8 1550.47 1
-1 -1 4 40894.8 1560.24 2
1 -1 -4 38051.0 1533.88 1
-1 -1 3 176470. 2692.30 1
1 1 -3 177097. 2772.64 1
-1 1 3 179215. 2854.98 1
1 -1 -3 175311. 2664.32 3
1 -1 -3 173635. 2846.53 1
1 -1 -2 198195. 2580.97 1
-1 1 2 197091. 2631.78 1
1 1 -2 200961. 2401.33 1
1 -1 -2 202130. 2274.71 3
-1 -1 2 197227. 2370.00 1
1 -1 -1 592050. 3786.36 1
1 -1 -1 611014. 2581.87 3
-1 -1 1 611487. 3133.31 1
-1 1 1 603250. 3788.42 1
1 1 -1 603296. 3129.01 1
-1 -1 0 45739.5 702.385 2
1 1 0 49586.0 998.600 3
-1 1 0 45565.3 984.429 2
-1 -1 0 46175.4 971.597 3
1 -1 0 46868.6 1006.29 2
-1 -1 -1 96169.6 1308.49 2
-1 1 -1 102898. 1664.47 2
1 -1 1 101597. 1673.82 2
-1 -1 -1 98930.5 1646.24 3
1 1 1 100956. 1336.47 2
1 1 1 100727. 1683.71 3
1 -1 2 25974.9 1010.76 2
-1 -1 -2 25304.0 1024.84 3
-1 -1 -2 24760.0 865.719 2
1 1 2 25168.4 1053.56 3
-1 1 -2 25654.9 998.317 2
1 1 2 24359.7 872.223 2
1 1 3 100603. 2107.12 2
-1 1 -3 97757.6 2234.87 2
-1 -1 -3 100685. 2108.03 2
-1 -1 -3 99953.9 2336.35 3
1 -1 3 103356. 2309.43 2
-1 -1 -4 79441.0 2181.58 2
1 1 4 82401.9 2218.34 2
-1 1 -4 82876.9 2354.58 2
-1 -1 -4 83911.1 2442.02 3
1 -1 4 85000.1 2367.46 2
-1 1 -5 43551.8 1912.87 2
1 -1 5 43679.2 1903.32 2
1 1 5 41949.1 1786.76 2
-1 -1 -5 43460.4 1844.60 1
-1 -1 -5 45876.1 2006.09 3
1 1 6 7318.57 876.068 2
1 -1 6 6881.83 895.825 2
1 -1 7 7585.16 1051.92 2
1 1 7 7263.52 985.213 2
1 -1 8 5001.82 926.380 2
1 1 8 3517.90 759.917 2
1 -1 9 -136.165 394.528 2
1 1 9 746.654 512.763 2
1 1 10 5382.10 1091.48 2
-1 -2 10 9534.70 1405.94 2
-1 2 10 10576.5 1411.57 2
-1 2 9 5425.39 982.690 2
-1 -2 9 7639.48 1176.61 2
-1 2 8 15826.1 1483.74 2
-1 -2 8 14768.9 1457.68 2
-1 2 7 38100.0 2032.53 2
-1 -2 7 39260.8 2093.16 2
1 2 -6 3270.63 605.588 1
-1 2 6 3052.96 625.084 2
1 -2 -6 3915.14 656.422 3
-1 -2 6 2311.71 553.803 2
1 -2 -6 3401.60 629.174 1
1 2 -5 7402.61 766.767 1
-1 -2 5 7394.53 784.622 2
1 -2 -5 6948.14 785.712 1
-1 2 5 8054.83 817.719 1
1 -2 -5 7474.58 782.246 3
1 -2 -4 47058.0 1726.89 1
1 -2 -4 43127.5 1618.89 3
-1 -2 4 46397.2 1672.76 2
-1 2 4 44026.6 1671.09 1
1 2 -4 43798.5 1609.42 1
1 2 -3 31470.1 1166.44 1
1 -2 -3 30568.9 1236.96 1
-1 -2 3 32850.1 1228.60 2
-1 2 3 31223.7 1257.42 1
1 -2 -3 31600.0 1175.25 3
1 -2 -2 207993. 2735.55 1
1 2 -2 206298. 2389.33 1
-1 -2 2 210817. 2524.32 2
1 -2 -2 208839. 2480.66 3
-1 2 2 210057. 2783.24 1
-1 2 2 211845. 2549.84 3
1 -2 -1 875539. 5047.29 1
1 -2 -1 893834. 4086.16 3
-1 2 1 890339. 5023.79 1
-1 2 1 904571. 4145.66 3
-1 -2 1 898267. 3387.69 1
1 2 -1 891462. 3513.96 1
1 -2 0 407650. 3248.99 2
-1 -2 0 409026. 3575.05 3
1 2 0 411949. 3623.11 3
-1 2 0 394150. 2611.15 3
-1 2 0 398655. 3195.40 2
-1 -2 -1 114404. 2040.26 3
1 2 1 111505. 2049.42 3
-1 -2 -1 108994. 1198.04 2
1 -2 1 113416. 1933.15 2
1 2 1 114291. 1230.96 2
-1 2 -1 108705. 1861.60 2
1 -2 2 98614.7 2049.33 2
-1 -2 -2 96653.7 2137.71 3
-1 -2 -2 96387.6 1617.01 2
1 2 2 98297.4 2179.49 3
1 2 2 96744.8 1631.25 2
-1 2 -2 101657. 2083.47 2
1 -2 3 79649.9 2090.03 2
-1 2 -3 78011.6 2080.00 2
1 2 3 76785.3 1799.96 2
-1 -2 -3 74874.9 1812.83 1
1 2 3 74841.0 2172.91 3
-1 -2 -3 75979.6 2132.42 3
1 -2 4 33399.6 1527.92 2
1 2 4 32904.3 1382.75 2
-1 -2 -4 33932.5 1600.65 3
-1 -2 -4 33365.9 1428.32 1
1 2 4 34226.4 1631.58 3
-1 2 -4 35462.9 1581.04 2
1 -2 5 26399.4 1521.75 2
-1 -2 -5 24694.9 1400.10 1
-1 2 -5 24961.8 1471.37 2
1 2 5 27943.6 1464.10 2
-1 -2 -5 25768.7 1535.38 3
1 2 6 27147.3 1596.19 2
1 -2 6 25744.7 1649.82 2
1 2 7 9900.15 1103.10 2
1 -2 7 11758.5 1256.68 2
1 -2 8 1175.53 599.789 2
1 2 8 2579.94 715.511 2
1 2 9 172.253 489.849 2
1 -2 9 142.582 453.279 2
1 2 10 4206.83 939.704 2
-1 -3 10 260.792 336.686 2
-1 3 10 -154.934 448.391 2
-1 3 9 786.031 522.750 2
-1 -3 9 2221.31 671.457 2
-1 -3 8 3691.80 776.417 2
-1 3 8 2916.66 702.362 2
-1 -3 7 33123.0 1960.32 2
-1 3 7 34362.2 1946.41 2
-1 3 6 32194.9 1739.85 2
1 -3 -6 29659.0 1722.77 3
-1 -3 6 30456.3 1714.62 2
1 3 -6 32078.6 1748.33 1
1 3 -5 11907.5 970.932 1
-1 -3 5 10615.1 931.593 2
-1 3 5 10585.9 943.326 1
1 -3 -5 11449.1 989.229 1
1 -3 -5 10396.4 933.353 3
-1 -3 4 5077.00 599.023 2
1 3 -4 5967.67 626.086 1
-1 3 4 5303.08 636.700 1
1 -3 -4 4957.28 588.911 3
1 -3 -4 6429.37 669.607 1
1 -3 -3 212635. 3318.79 1
-1 -3 3 228272. 3226.41 2
1 -3 -3 207133. 3191.94 3
-1 3 3 222005. 3375.21 1
-1 3 3 205148. 3280.72 3
1 3 -3 213368. 3016.64 1
1 -3 -2 130693. 2203.59 3
1 -3 -2 130921. 2301.96 1
1 3 -2 128751. 1883.97 1
-1 -3 2 127320. 1984.73 2
-1 3 2 130835. 2309.33 1
-1 3 2 128248. 2237.07 3
1 -3 -1 888.619 205.689 3
1 3 -1 1102.32 137.385 1
1 -3 -1 1174.60 239.903 1
-1 -3 1 1204.02 172.659 2
-1 3 1 985.157 230.782 3
1 3 -1 1347.93 327.611 3
-1 3 1 1021.48 255.842 1
1 -3 0 147435. 2157.52 2
-1 -3 0 153368. 2594.27 3
-1 3 0 144548. 2115.31 2
-1 3 0 151183. 2090.70 3
-1 3 0 143362. 2116.63 1
1 3 0 149129. 2573.79 3
-1 3 -1 55641.5 1436.05 2
1 -3 1 56270.0 1467.70 2
-1 -3 -1 57085.4 1656.06 3
-1 -3 -1 52930.7 867.728 1
1 3 1 54833.3 1659.20 3
1 3 1 54864.5 687.786 2
1 -3 2 11335.1 773.848 2
1 3 2 9971.77 800.490 3
-1 3 -2 9420.94 686.406 2
1 3 2 9743.13 505.489 2
-1 -3 -2 10699.0 789.523 3
-1 -3 -2 10582.4 572.517 1
1 3 3 1172.17 272.973 2
1 3 3 1104.57 434.071 3
1 -3 3 1666.13 404.562 2
-1 -3 -3 1327.48 294.778 1
-1 3 -3 1397.59 330.976 2
-1 -3 -3 1114.09 311.751 3
1 3 4 4950.79 700.915 3
-1 -3 -4 4342.27 554.014 1
1 -3 4 4613.06 628.203 2
-1 -3 -4 5751.01 716.237 3
1 3 4 4954.44 567.111 2
-1 3 -4 5361.29 654.704 2
1 -3 5 1630.80 502.076 2
-1 -3 -5 1271.24 411.037 3
1 3 5 1509.53 497.920 3
-1 -3 -5 2222.92 482.978 1
1 3 5 2174.04 451.585 2
-1 3 -5 1536.20 381.711 2
1 3 6 57454.6 2271.31 2
1 -3 6 61546.3 2559.71 2
1 3 7 4553.34 787.338 2
1 -3 7 6128.53 953.892 2
1 3 8 9431.73 1163.24 2
1 -3 8 6909.25 1075.81 2
1 3 9 14787.9 1566.41 2
1 -3 9 16339.3 1645.66 2
1 3 10 5225.51 1018.57 2
-1 4 10 2660.11 784.826 2
-1 4 9 979.629 527.669 2
-1 -4 9 -137.701 410.390 2
-1 4 8 12271.8 1315.00 2
-1 -4 8 12614.8 1384.42 2
-1 4 7 1647.01 557.390 2
-1 -4 7 1347.89 547.880 2
-1 -4 6 21669.2 1498.07 2
-1 4 6 19976.8 1392.70 2
1 4 -5 14430.5 1061.14 1
-1 -4 5 13382.8 1068.84 2
-1 4 5 11495.2 1018.99 1
1 -4 -5 11727.9 1017.29 3
1 -4 -5 13306.6 1075.03 1
1 4 -4 1840.71 365.049 1
1 -4 -4 1843.52 392.432 3
-1 4 4 1761.63 426.763 3
-1 -4 4 2016.30 430.641 2
1 -4 -4 2250.41 419.341 1
-1 4 4 2318.10 457.773 1
-1 4 3 2443.12 446.565 3
-1 -4 3 2705.18 413.939 2
1 -4 -3 2612.81 435.606 3
-1 4 3 2241.40 416.711 1
1 -4 -3 2321.52 410.006 1
1 4 -3 1950.04 319.104 1
-1 4 2 98785.0 2219.63 3
1 4 -2 100867. 1667.76 1
1 -4 -2 98381.4 2154.46 3
-1 -4 2 102092. 1841.90 2
1 -4 -2 98048.8 2119.91 1
-1 4 2 101816. 2141.81 1
-1 4 1 129105. 2138.83 2
-1 4 1 139407. 2300.85 1
1 4 -1 132246. 1203.51 1
1 -4 -1 133101. 2352.34 3
1 4 -1 134002. 2797.02 3
-1 4 1 132870. 2382.51 3
-1 -4 1 130474. 1500.20 2
-1 4 0 113408. 2039.77 1
1 4 0 112252. 2528.44 3
-1 4 0 114268. 2170.71 3
-1 4 0 111469. 2020.93 2
1 4 1 62870.1 1975.89 3
-1 -4 -1 60854.6 1924.29 3
-1 -4 -1 64916.8 874.851 1
1 -4 1 64640.2 1663.70 2
-1 4 -1 62755.1 1634.30 2
-1 -4 -2 70544.5 1436.12 1
1 4 2 73422.3 2244.46 3
-1 -4 -2 72418.2 2202.16 3
1 -4 2 75083.7 1988.13 2
-1 4 -2 70412.8 1927.41 2
1 4 2 69484.1 1206.87 2
1 -4 3 34987.5 1533.86 2
-1 -4 -3 35564.2 1263.99 1
1 4 3 33816.0 1661.85 3
1 4 3 34877.1 1142.45 2
-1 -4 -3 35912.2 1667.35 3
-1 4 -3 34165.7 1493.90 2
-1 4 -4 28398.7 1505.97 2
1 -4 4 24657.3 1433.58 2
-1 -4 -4 26171.5 1552.18 3
1 4 4 26455.6 1186.67 2
-1 -4 -4 25104.7 1253.05 1
1 4 4 26842.6 1600.04 3
1 4 5 21861.5 1257.53 2
1 -4 5 21366.1 1451.46 2
1 4 5 20144.4 1515.06 3
-1 -4 -5 19662.3 1255.74 1
1 4 6 10839.5 1033.34 2
1 -4 6 10468.5 1124.00 2
1 4 7 3687.92 699.646 2
1 -4 7 3388.42 766.897 2
1 -4 8 3824.70 813.684 2
1 4 8 2851.93 672.018 2
1 4 9 967.603 543.003 2
1 -4 9 1106.75 519.814 2
1 4 10 1112.22 593.482 2
-1 5 10 1287.53 554.326 2
-1 -5 9 5985.68 1054.37 2
-1 5 9 4748.97 966.289 2
-1 5 8 1399.73 557.829 2
-1 -5 8 1155.26 469.116 2
-1 5 7 32494.8 1906.86 2
-1 -5 7 32056.4 1991.85 2
-1 -5 6 7279.55 902.908 2
-1 5 6 8136.15 903.042 2
1 -5 -5 14204.2 1126.00 1
1 -5 -5 12796.7 1110.12 3
-1 5 5 13847.3 1128.85 1
-1 -5 5 14624.4 1136.83 2
-1 5 5 13746.6 1185.75 3
1 5 -5 13748.5 1045.61 1
1 -5 -4 28543.8 1504.76 3
1 5 -4 28144.2 1316.49 1
-1 -5 4 28027.3 1399.71 2
-1 5 4 27739.4 1557.34 3
1 -5 -4 29828.9 1469.94 1
-1 5 4 28450.2 1441.51 1
-1 5 3 11662.4 860.444 1
-1 -5 3 11860.2 793.700 2
1 5 -3 12169.8 738.846 1
1 -5 -3 11548.3 888.189 3
1 -5 -3 12778.0 880.367 1
-1 5 3 11237.3 947.933 3
-1 5 2 7223.17 698.705 3
-1 5 2 8529.03 675.427 1
1 5 -2 8945.27 504.537 1
1 -5 -2 7747.15 631.340 1
-1 -5 2 7339.79 527.873 2
1 -5 -2 8525.54 712.862 3
-1 5 1 7249.41 662.684 3
1 5 -1 7316.11 768.376 3
-1 -5 1 6764.18 360.031 2
-1 5 1 7806.33 597.596 1
-1 5 1 8154.81 574.633 2
1 5 0 5687.37 684.988 3
-1 5 0 6062.66 605.130 3
-1 5 0 6052.79 510.241 2
-1 5 0 6174.26 531.996 1
1 -5 1 5538.15 553.262 2
1 5 1 6312.85 718.087 3
-1 5 -1 5792.67 621.926 3
-1 -5 -1 5900.59 688.929 3
-1 5 -1 6132.75 555.292 2
-1 -5 -2 14843.4 639.303 1
-1 5 -2 14594.3 934.211 2
1 5 2 15760.9 1167.22 3
1 5 2 14406.8 481.395 2
1 -5 2 15157.5 961.784 2
-1 -5 -2 15573.0 1124.61 3
-1 -5 -3 9638.26 661.313 1
-1 -5 -3 10154.1 956.842 3
-1 5 -3 10812.1 885.052 2
1 5 3 9620.30 989.599 3
1 -5 3 10516.4 889.800 2
1 5 3 9047.78 564.960 2
-1 -5 -4 27816.1 1318.21 1
1 -5 4 28128.5 1566.26 2
1 5 4 24992.6 1646.18 3
1 5 4 29504.6 1218.21 2
-1 5 -4 29576.3 1578.01 2
1 5 5 8945.48 1096.22 3
-1 -5 -5 8204.56 828.239 1
1 5 5 7783.84 744.707 2
1 -5 5 9167.72 1022.34 2
1 5 6 10644.8 1008.38 2
1 5 6 9903.79 1202.68 3
1 -5 6 10926.1 1199.75 2
1 5 7 4628.17 741.843 2
1 -5 7 4618.66 909.220 2
1 -5 8 8532.11 1222.40 2
1 5 8 6525.75 971.938 2
1 5 9 6911.24 1077.61 2
1 -5 9 7178.29 1265.72 2
1 5 10 3035.14 840.752 2
-1 6 10 -56.7360 315.824 2
-1 6 9 5166.46 921.601 2
-1 -6 9 5665.23 975.828 2
-1 -6 8 4256.26 830.472 2
-1 6 8 4285.12 797.917 2
-1 -6 7 7658.25 1021.24 2
-1 6 7 8031.48 991.680 2
-1 6 6 1066.43 551.749 3
-1 6 6 1692.53 538.132 2
-1 -6 6 1643.57 555.682 2
-1 6 5 2655.92 629.997 3
-1 -6 5 2196.60 500.637 2
1 -6 -5 2163.88 528.386 1
-1 6 5 2037.65 526.053 1
1 6 -5 2270.90 498.356 1
1 -6 -4 1380.54 394.744 1
-1 6 4 636.725 384.791 3
1 6 -4 1348.53 331.272 1
-1 -6 4 1297.97 326.928 2
1 -6 -4 772.724 297.275 3
-1 6 4 907.698 361.403 1
-1 6 3 10866.2 993.062 3
1 -6 -3 11804.8 987.493 3
-1 6 3 10838.2 860.861 1
1 6 -3 12169.5 742.439 1
1 -6 -3 12685.6 902.635 1
-1 -6 3 11552.7 804.665 2
1 -6 -2 8663.18 772.973 3
-1 6 2 8986.76 855.229 3
-1 -6 2 8599.49 573.056 2
-1 6 2 8655.06 717.674 1
1 6 -2 8020.02 900.693 3
-1 6 2 7375.90 604.332 2
1 6 -2 8313.79 480.967 1
-1 -6 1 8641.92 390.827 2
-1 6 1 9212.00 683.631 1
-1 6 1 8087.41 796.267 3
1 6 -1 8921.08 927.650 3
-1 6 1 8734.61 631.353 2
-1 6 0 18080.3 943.373 1
-1 6 0 17118.6 894.814 2
1 6 0 18322.0 1285.19 3
-1 6 0 18027.1 1149.28 3
1 -6 1 9479.37 734.773 2
-1 6 -1 8644.04 833.457 3
-1 -6 -1 10051.8 965.361 3
-1 6 -1 9404.72 713.526 1
-1 6 -1 9558.14 718.725 2
1 6 1 8231.72 894.221 3
1 6 2 15857.8 1265.46 3
-1 6 -2 16124.1 1031.58 2
1 -6 2 15840.9 1034.42 2
-1 -6 -2 15845.9 612.008 1
1 6 3 10303.7 1092.82 3
-1 6 -3 11769.7 963.322 2
1 6 3 10856.2 555.604 2
1 -6 3 12061.5 986.016 2
-1 -6 -3 10403.4 660.508 1
1 6 4 47980.5 1488.09 2
1 6 4 44151.6 2312.91 3
-1 -6 -4 45461.0 1647.70 1
-1 6 -4 44969.8 2013.86 2
1 -6 4 45952.9 2062.63 2
1 6 5 19609.2 1672.02 3
-1 -6 -5 19798.4 1261.95 1
1 -6 5 19738.2 1469.83 2
1 6 5 18815.0 1110.16 2
1 6 6 980.438 344.309 2
1 -6 6 721.018 467.690 2
1 6 6 1064.17 508.680 3
1 -6 7 4176.74 884.527 2
1 6 7 4104.36 707.490 2
1 6 8 1370.56 506.534 2
1 -6 8 2631.03 764.638 2
-1 -7 9 -747.449 537.403 2
-1 -7 8 928.861 475.434 2
-1 7 8 3899.67 796.389 2
-1 -7 7 6625.47 934.739 2
-1 7 7 4842.87 781.346 2
-1 7 6 9402.88 964.803 2
-1 -7 6 7482.18 965.644 2
-1 7 6 9075.25 1155.58 3
-1 -7 5 4701.73 678.117 2
-1 7 5 5576.51 743.465 1
1 7 -5 4863.84 646.333 1
-1 7 5 5315.63 877.528 3
1 -7 -5 5582.02 759.598 1
-1 7 4 5759.13 860.283 3
1 7 -4 6171.35 627.117 1
-1 -7 4 5852.67 692.332 2
-1 7 4 5327.74 702.418 1
1 -7 -4 5112.93 665.402 1
1 7 -3 2034.36 592.312 3
-1 7 3 1923.28 524.114 3
-1 -7 3 2292.53 398.683 2
-1 7 3 1782.58 329.604 2
1 -7 -3 2002.84 394.760 1
-1 7 3 2049.17 447.242 1
1 7 -3 2388.47 348.021 1
-1 7 2 1387.60 435.080 3
-1 7 2 1806.20 375.313 1
1 7 -2 1723.19 481.681 3
-1 7 2 1465.36 319.306 2
-1 -7 2 1420.75 270.536 2
1 7 -2 1730.84 215.162 1
1 7 -2 1393.79 195.539 1
1 7 -1 23076.1 1571.25 3
-1 7 1 19313.1 1307.46 3
-1 7 1 22037.0 1081.43 1
-1 7 1 20670.8 986.936 2
-1 7 0 8863.25 893.535 3
1 7 0 9624.30 1049.76 3
-1 7 0 8844.20 706.870 1
-1 7 0 9542.22 686.415 2
-1 7 -1 4289.83 521.580 2
1 7 1 3003.44 670.442 3
-1 7 -1 4103.53 676.995 3
-1 7 -1 4120.07 513.418 1
1 -7 2 3218.52 523.417 2
-1 7 -2 2652.17 571.160 3
-1 7 -2 3399.31 496.847 2
1 7 2 3157.66 713.221 3
-1 7 -3 17502.6 1197.47 2
1 7 3 16069.2 1446.64 3
1 7 3 15180.6 442.537 2
-1 -7 -3 18237.0 831.713 1
1 -7 3 18557.7 1262.91 2
1 7 3 15156.7 433.611 2
1 7 4 1761.89 629.765 3
1 7 4 1163.54 246.960 2
1 -7 4 2091.20 546.954 2
-1 -7 -4 1748.41 340.746 1
1 7 5 12988.2 1427.58 3
1 7 5 14424.3 923.253 2
1 -7 5 13048.9 1245.30 2
1 -7 6 1703.52 529.113 2
1 7 6 1629.98 632.848 3
1 7 6 1913.85 417.095 2
1 7 7 -290.461 410.604 3
1 -7 7 959.317 480.550 2
1 -7 8 4483.26 924.930 2
-1 -8 8 2623.32 676.898 2
-1 -8 7 661.127 456.765 2
-1 -8 6 1341.08 494.498 2
-1 8 6 2800.67 742.586 3
-1 8 5 916.308 304.224 2
-1 -8 5 752.865 328.437 2
-1 8 5 323.605 386.507 3
-1 8 4 2877.74 705.924 3
-1 -8 4 3346.71 533.453 2
1 8 -4 2536.01 696.196 3
-1 8 4 2555.02 517.151 1
-1 -8 3 3340.14 480.377 2
-1 8 3 3155.62 666.625 3
1 8 -3 4306.45 843.124 3
-1 8 3 3377.92 544.466 1
-1 8 2 2961.14 408.435 2
-1 8 2 1863.77 553.526 3
1 8 -2 2513.26 666.501 3
-1 8 2 2778.43 478.683 1
-1 8 1 39512.2 1446.45 1
1 8 -1 36209.1 2104.92 3
-1 8 1 36169.2 1313.84 2
-1 8 1 38230.0 1993.77 3
-1 8 0 800.459 262.227 1
-1 8 0 557.840 396.532 3
1 8 0 437.431 377.242 3
-1 8 0 205.228 143.277 2
-1 8 -1 5669.71 809.277 3
1 8 1 4113.38 757.268 3
-1 8 -1 6575.82 647.757 1
-1 8 -1 6067.40 619.102 2
1 8 2 2640.94 699.503 3
-1 8 -2 2926.56 471.052 2
1 -8 2 3058.00 529.144 2
-1 8 -2 3022.34 648.111 3
-1 8 -2 2569.56 470.644 1
-1 8 -3 2960.27 520.634 2
1 -8 3 2879.69 565.513 2
1 8 3 2955.18 762.238 3
-1 8 -3 2125.76 583.427 3
1 8 4 9381.75 1238.94 3
1 -8 4 10565.9 1069.84 2
1 -8 5 905.883 420.671 2
1 8 5 450.799 467.682 3
1 8 6 9219.26 1356.68 3
1 -8 6 5523.55 907.663 2
1 -8 7 1761.71 658.530 2
-1 9 6 658.508 464.919 3
1 9 -5 737.646 383.168 3
-1 9 5 1175.18 615.972 3
1 9 -4 405.651 519.076 3
-1 9 4 1550.96 553.630 3
-1 9 3 2877.81 712.451 3
1 9 -3 3870.80 847.952 3
-1 9 2 8527.64 1086.05 3
1 9 -2 10612.1 1283.38 3
-1 9 1 1017.91 519.341 3
1 9 -1 1610.93 562.667 3
1 9 0 1282.27 536.241 3
-1 9 0 2665.43 397.263 1
-1 9 0 2314.35 637.547 3
-1 9 -1 810.154 303.779 1
-1 9 -1 1306.98 505.482 3
1 9 1 426.514 405.370 3
1 9 2 2099.83 721.390 3
-1 9 -2 2537.92 648.954 3
-1 9 -2 2967.06 503.439 1
1 9 3 656.126 431.377 3
-1 9 -3 1089.59 485.180 3
1 -9 3 206.108 286.515 2
1 9 4 1231.23 606.246 3
-1 9 -4 486.909 436.006 3
1 -9 4 623.281 410.910 2
1 -9 5 8773.36 1094.41 2
1 9 5 7498.16 1230.07 3
1 -9 6 5100.14 907.430 2
-1 10 5 3515.67 854.482 3
-1 10 4 1378.73 460.266 3
1 10 -4 2671.37 819.765 3
-1 10 3 3646.48 793.221 3
1 10 -3 3463.92 863.885 3
-1 10 2 7449.94 1073.46 3
1 10 -2 9523.93 1277.27 3
1 10 -1 1908.72 649.735 3
-1 10 1 983.748 522.263 3
-1 10 0 604.987 404.355 3
1 10 0 -380.788 363.137 3
1 10 1 5408.38 990.976 3
-1 10 -1 3118.61 723.592 3
1 10 2 2036.00 757.090 3
-1 10 -2 2282.78 646.143 3
1 10 3 631.885 530.162 3
-1 10 -3 1170.36 468.137 3
-1 10 -4 1865.71 597.246 3
1 10 4 1494.65 791.664 3
-1 11 4 294.596 442.228 3
-1 11 3 104.750 392.441 3
-1 11 2 3270.93 816.273 3
-1 11 1 730.465 464.986 3
-1 11 0 65.1183 378.430 3
-1 11 -1 2838.09 674.293 3
-1 11 -2 3526.37 788.132 3
-1 11 -3 4464.32 956.737 3
-2 0 10 9600.95 1356.58 2
-2 0 9 3513.96 817.834 2
-2 0 8 13334.2 1365.26 2
-2 0 7 -467.184 378.302 2
2 0 -6 8166.69 922.894 1
-2 0 6 6568.74 824.606 1
-2 0 5 20201.6 1268.02 1
2 0 -5 24423.8 1390.26 1
-2 0 4 32945.8 1474.08 1
2 0 -4 34349.0 1494.69 1
-2 0 3 6412.30 625.622 1
2 0 -3 5662.35 576.101 1
-2 0 2 230184. 3024.12 1
2 0 -2 214463. 2930.97 1
2 0 -1 41691.4 1176.38 1
-2 0 1 41275.4 1186.01 1
-2 0 0 4944.72 421.102 2
2 0 0 5185.42 458.957 2
-2 0 0 4560.28 300.163 3
2 0 0 4965.98 324.528 3
-2 0 -1 155841. 2137.62 3
-2 0 -1 159049. 2410.08 2
2 0 1 161269. 2156.74 3
2 0 1 164019. 2442.81 2
2 0 2 89048.2 2005.54 2
-2 0 -2 83965.9 1942.98 2
-2 0 -2 83432.9 1881.96 3
-2 0 -3 341197. 4400.57 2
2 0 3 341180. 4466.40 2
-2 0 -3 327483. 4375.29 3
-2 0 -4 6662.73 722.917 2
-2 0 -4 7494.15 793.022 3
2 0 4 6670.71 723.661 2
2 0 5 455.098 369.419 2
-2 0 -5 589.436 270.244 3
-2 0 -5 384.244 266.442 2
2 0 6 -427.278 398.458 2
2 0 7 -208.306 409.809 2
2 0 8 2336.50 654.451 2
2 0 9 3960.32 832.774 2
-2 -1 10 1265.93 591.714 2
-2 1 10 1956.31 773.505 2
-2 1 9 10479.6 1312.76 2
-2 -1 9 10976.5 1329.66 2
-2 1 8 13880.1 1395.27 2
-2 -1 8 15454.5 1437.28 2
-2 1 7 259.496 403.628 2
-2 -1 7 658.238 440.157 2
-2 -1 6 1577.35 497.466 2
2 -1 -6 1212.96 354.427 3
-2 1 6 1508.19 462.621 1
2 1 -6 1744.91 486.540 1
-2 -1 5 32326.5 1545.76 1
2 -1 -5 32838.0 1648.97 1
-2 1 5 29900.4 1586.08 1
2 1 -5 34493.0 1646.62 1
2 -1 -4 236363. 3978.56 1
-2 -1 4 238466. 3806.49 1
-2 1 4 239092. 3998.74 1
2 1 -4 235107. 3834.77 1
2 -1 -3 50332.6 1655.94 1
-2 -1 3 54172.6 1617.62 1
2 1 -3 50126.8 1555.21 1
-2 1 3 54057.4 1717.43 1
2 1 -2 8098.60 555.940 1
-2 1 2 8300.93 645.516 1
2 -1 -2 8493.00 644.464 1
-2 -1 2 8278.96 582.076 1
2 -1 -1 5938.62 495.844 1
2 1 -1 5848.14 439.869 3
2 1 -1 6248.30 440.338 1
-2 1 1 5620.35 521.183 1
-2 -1 1 5479.89 441.256 1
-2 -1 0 43797.3 1078.07 2
2 -1 0 41778.5 1251.86 2
2 1 0 45141.7 1146.75 3
-2 -1 0 44720.5 1138.86 3
-2 1 0 42640.6 1256.69 2
-2 1 -1 17029.9 654.158 3
2 1 1 16765.1 818.010 3
2 -1 1 16067.0 855.961 2
-2 -1 -1 17284.9 810.252 3
-2 -1 -1 17292.9 751.426 2
-2 1 -1 18093.3 873.183 2
2 1 1 16198.4 725.099 2
-2 -1 -2 80416.5 1967.55 3
2 1 2 80743.0 1825.47 2
-2 1 -2 84959.5 1847.11 3
2 1 2 86369.5 2066.04 3
2 -1 2 84366.3 2062.91 2
-2 -1 -2 82547.2 1828.52 2
-2 1 -2 83346.5 2039.87 2
-2 1 -3 6957.66 657.521 3
2 1 3 6179.91 663.857 3
2 1 3 6445.08 625.041 2
-2 -1 -3 5555.51 631.079 3
-2 -1 -3 6513.57 629.203 2
-2 1 -3 6082.71 651.357 2
2 -1 3 6675.22 696.534 2
-2 -1 -4 29585.0 1414.67 2
-2 1 -4 30438.1 1513.11 2
2 1 4 28363.2 1398.97 2
2 -1 4 26326.1 1428.72 2
-2 -1 -4 28713.8 1520.24 3
-2 1 -4 26882.4 1413.10 3
2 -1 5 6012.95 791.017 2
-2 -1 -5 4469.86 682.814 3
-2 1 -5 5065.69 728.034 3
-2 1 -5 6635.82 806.857 2
2 1 5 4792.43 671.712 2
-2 -1 -5 5268.24 699.348 2
2 -1 6 5547.16 831.018 2
2 1 6 4818.38 764.183 2
2 1 7 1109.91 498.479 2
2 -1 7 1590.08 636.011 2
2 1 8 8244.90 1130.68 2
2 -1 8 9031.42 1214.25 2
2 -1 9 6143.89 1048.80 2
2 1 9 5291.50 991.796 2
-2 2 10 35992.9 2514.38 2
-2 -2 10 36902.9 2575.53 2
-2 2 9 2982.93 756.857 2
-2 -2 9 2247.93 728.319 2
-2 -2 8 4723.70 811.188 2
-2 2 8 4016.34 868.092 2
-2 -2 7 1853.86 534.066 2
-2 2 7 2593.06 635.860 1
-2 2 6 1653.52 502.995 1
2 2 -6 2613.22 555.679 1
-2 -2 6 2547.22 575.409 2
2 -2 -6 1946.41 461.748 3
-2 -2 5 5261.81 714.377 2
2 -2 -5 5224.17 633.385 3
-2 2 5 5443.63 716.656 1
2 -2 -5 5350.93 700.816 1
2 2 -5 5526.81 680.017 1
2 -2 -4 40917.6 1699.74 1
2 -2 -4 37762.3 1421.64 3
-2 2 4 39873.5 1687.23 1
2 2 -4 37815.2 1514.90 1
-2 -2 4 37564.1 1467.85 1
2 -2 -3 38713.9 1517.70 1
2 -2 -3 41297.6 1239.16 3
2 2 -3 38448.7 1335.75 1
-2 2 3 38503.8 1522.11 1
-2 -2 3 40985.8 1378.55 1
2 2 -2 17763.5 768.932 1
-2 2 2 20237.0 1016.57 1
2 -2 -2 19323.1 990.662 1
-2 -2 2 20277.1 824.076 1
2 -2 -2 19082.9 648.678 3
2 -2 -1 13037.1 341.753 3
2 2 -1 11844.8 726.590 3
-2 -2 1 13204.9 574.191 1
2 -2 -1 11971.5 726.826 1
2 2 -1 13230.9 561.003 1
-2 2 1 12373.9 784.683 1
-2 2 1 13603.3 359.177 3
2 2 0 1810.64 353.173 3
-2 -2 0 1831.75 230.673 2
-2 2 0 1501.28 300.202 2
-2 -2 0 1787.05 323.937 3
2 -2 0 1654.77 345.566 2
-2 -2 0 1568.89 215.199 1
2 2 1 43507.4 1437.75 3
-2 -2 -1 41809.3 1424.09 3
-2 2 -1 42334.1 1430.25 2
-2 -2 -1 41765.0 1036.52 2
2 2 1 42120.9 1045.51 2
2 -2 1 44491.0 1472.59 2
2 2 2 122680. 2648.84 3
2 -2 2 126971. 2705.79 2
-2 -2 -2 125664. 2661.05 3
-2 -2 -2 121538. 2080.02 2
-2 2 -2 124001. 2624.13 2
2 2 2 126377. 2121.92 2
2 2 3 52028.9 1932.62 3
-2 -2 -3 49752.8 1837.29 3
-2 -2 -3 48202.3 1527.22 2
-2 2 -3 50034.6 1839.43 2
2 2 3 51648.4 1589.39 2
2 -2 3 51347.8 1865.20 2
-2 -2 -4 11234.9 978.318 3
2 2 4 9225.39 788.990 2
2 2 4 8795.84 900.712 3
-2 -2 -4 10550.2 831.816 2
-2 2 -4 10746.3 961.867 2
2 -2 4 10566.0 974.693 2
-2 -2 -5 5009.24 675.115 2
2 -2 5 5364.25 781.618 2
2 2 5 4371.92 664.864 2
2 2 6 15818.0 1276.77 2
2 -2 6 15760.0 1373.46 2
2 2 7 19002.4 1497.80 2
2 -2 7 21164.3 1703.49 2
2 -2 8 1248.59 607.828 2
2 2 8 1847.11 544.552 2
2 -2 9 4217.57 955.919 2
2 2 9 4582.62 916.338 2
-2 3 10 19564.8 1885.46 2
-2 -3 10 13517.6 1623.48 2
-2 -3 9 4267.80 868.554 2
-2 3 9 4836.29 881.301 2
-2 3 8 9975.25 1191.84 2
-2 -3 8 10353.8 1228.79 2
-2 -3 7 2487.65 580.620 2
-2 3 7 2062.69 597.930 1
2 -3 -6 1183.62 364.561 3
2 3 -6 886.420 387.587 1
-2 3 6 998.972 484.699 1
-2 -3 6 1311.36 432.797 2
2 -3 -5 8388.29 885.083 1
2 -3 -5 8475.37 804.536 3
2 3 -5 8044.14 782.841 1
-2 3 5 8675.06 917.893 1
-2 -3 5 7043.84 773.509 2
2 -3 -4 14795.4 1065.58 1
2 -3 -4 14356.2 908.968 3
-2 3 4 15305.2 1090.79 1
-2 -3 4 15564.0 995.139 2
2 3 -4 15241.6 960.931 1
2 3 -3 101342. 2107.25 1
2 -3 -3 102611. 2044.34 3
-2 3 3 104465. 2552.28 1
2 -3 -3 107175. 2594.21 1
2 3 -2 27583.0 913.209 1
2 -3 -2 27133.8 875.640 3
2 -3 -2 28052.8 1253.75 1
-2 3 2 28899.6 1259.66 1
-2 -3 2 28882.3 923.321 1
-2 3 2 28347.6 927.772 3
-2 3 1 100156. 2163.41 2
2 3 -1 96316.3 2279.08 3
2 3 -1 93181.7 1273.88 1
-2 3 1 99989.8 2236.28 1
-2 -3 1 100828. 1330.96 1
-2 3 1 96918.9 1429.19 3
2 -3 0 110445. 2295.14 2
-2 -3 0 112548. 2430.58 3
-2 3 0 107229. 1535.19 3
2 3 0 114667. 2457.96 3
-2 -3 0 108587. 1258.41 1
-2 3 0 114461. 2350.62 1
-2 -3 0 106790. 1256.36 2
-2 3 0 112572. 2294.76 2
2 3 1 54832.4 1027.46 2
2 3 1 53690.5 1788.50 3
-2 -3 -1 55279.6 1774.09 3
-2 -3 -1 52504.6 1004.65 2
-2 3 -1 52926.1 1662.49 2
2 -3 1 58007.6 1749.69 2
-2 -3 -2 32956.7 1471.49 3
2 3 2 32625.8 1503.98 3
-2 -3 -2 29730.3 959.267 2
-2 3 -2 32801.4 1411.90 2
2 3 2 31199.2 983.398 2
2 -3 2 30296.9 1390.77 2
2 3 3 27429.6 1494.84 3
-2 -3 -3 26726.1 1098.69 2
-2 3 -3 28283.2 1435.34 2
2 3 3 26467.9 1096.99 2
2 -3 3 27677.6 1438.00 2
-2 -3 -3 27872.3 1474.71 3
-2 -3 -4 2047.37 408.137 1
2 3 4 2845.38 613.277 3
-2 -3 -4 1980.40 484.983 3
2 3 4 1675.25 382.558 2
2 -3 4 1504.78 459.860 2
-2 3 -4 1862.93 449.143 2
2 -3 5 2756.68 603.790 2
2 3 5 3403.89 555.605 2
-2 -3 -5 3787.74 606.786 1
2 3 5 2366.48 640.524 3
2 3 6 9561.18 1002.32 2
2 -3 6 9903.95 1144.00 2
2 3 7 4156.61 763.631 2
2 -3 7 2960.78 769.727 2
2 3 8 1659.67 623.930 2
2 -3 8 1225.71 663.684 2
2 -3 9 4975.05 1073.61 2
2 3 9 3054.81 738.433 2
-2 4 10 8741.93 1306.58 2
-2 4 9 8188.84 1173.26 2
-2 -4 9 7076.77 1121.23 2
-2 -4 8 1657.97 623.165 2
-2 4 8 2153.74 574.611 2
-2 4 7 13215.5 1294.74 1
-2 -4 7 13595.6 1282.93 2
2 4 -6 11117.7 1030.22 1
2 -4 -6 9870.41 957.654 3
-2 4 6 8761.24 1029.13 1
-2 -4 6 10929.6 1065.53 2
2 -4 -5 784.758 368.192 1
2 4 -5 1302.44 363.966 1
-2 -4 5 1158.83 384.469 2
2 -4 -5 1699.54 406.783 3
-2 4 5 1295.01 452.452 1
2 -4 -4 14559.8 958.282 3
2 4 -4 14005.6 925.591 1
-2 -4 4 15068.7 984.973 2
-2 4 4 13711.7 1067.98 1
2 -4 -4 13971.2 1059.69 1
2 4 -3 101734. 2064.19 1
2 -4 -3 106114. 2676.62 1
-2 4 3 103903. 2309.57 3
2 -4 -3 98323.8 2159.45 3
-2 -4 3 107154. 2244.52 2
-2 4 3 103474. 2632.72 1
2 4 -2 57815.6 1235.46 1
-2 4 2 63177.1 1935.36 1
2 4 -2 64042.4 2131.47 3
-2 4 2 62948.6 1593.49 3
-2 -4 2 60132.9 1393.83 2
2 -4 -2 61138.7 1884.08 1
2 -4 -2 61438.1 1524.65 3
-2 4 1 74549.1 1970.76 2
-2 4 1 73441.3 2031.94 1
-2 4 1 71634.0 1561.11 3
-2 -4 1 76486.0 1134.58 2
2 4 -1 74062.5 2228.33 3
2 4 0 62623.1 2046.02 3
-2 4 0 60039.0 1440.41 3
-2 4 0 60744.4 1817.54 2
-2 4 0 59927.7 1808.83 1
2 4 1 2298.17 479.351 3
-2 -4 -1 2304.21 206.727 1
-2 -4 -1 2684.74 488.644 3
2 -4 1 1839.80 394.893 2
-2 4 -1 2558.57 423.003 2
-2 -4 -2 1003.61 223.863 1
-2 4 -2 1661.25 392.617 2
2 4 2 1405.54 461.869 3
2 4 2 1157.62 199.460 2
2 -4 2 1801.47 422.626 2
-2 -4 -2 1558.22 395.843 3
-2 -4 -3 11933.0 1043.26 3
2 4 3 11125.9 1040.41 3
-2 -4 -3 11274.7 760.839 1
-2 4 -3 12591.9 1003.69 2
2 4 3 12237.8 716.384 2
2 -4 3 11054.6 958.431 2
2 -4 4 2049.80 529.435 2
2 4 4 2523.44 425.653 2
2 4 4 1628.82 533.659 3
-2 4 -4 1982.94 516.286 2
-2 -4 -4 1620.13 372.407 1
2 4 5 3729.46 575.363 2
2 -4 5 2892.32 605.759 2
-2 -4 -5 2933.11 506.661 1
2 4 5 3808.43 794.112 3
2 4 6 25237.0 1532.97 2
2 4 6 21520.1 1763.31 3
2 -4 6 24339.3 1774.56 2
2 -4 7 4368.67 913.772 2
2 4 7 5868.87 836.861 2
2 4 8 14042.8 1367.94 2
2 -4 8 16418.8 1713.25 2
2 4 9 1050.76 457.404 2
-2 5 10 5116.88 1054.28 2
-2 -5 9 2057.15 629.862 2
-2 5 9 1416.22 519.609 2
-2 5 8 4730.41 886.768 2
-2 -5 8 4038.65 810.613 2
-2 -5 7 8041.91 1032.59 2
-2 5 7 7499.03 1019.77 1
-2 -5 6 4408.72 708.485 2
-2 5 6 5367.95 855.305 1
2 -5 -5 8195.37 858.243 3
2 5 -5 9677.14 869.591 1
-2 5 5 10521.0 1069.00 1
-2 -5 5 9014.58 869.677 2
-2 5 4 21969.4 1297.68 3
2 -5 -4 23749.6 1273.89 3
2 5 -4 25606.0 1213.57 1
-2 5 4 22884.3 1394.45 1
-2 -5 4 23609.7 1247.99 2
2 -5 -4 24543.0 1435.32 1
2 5 -3 24015.6 985.160 1
2 -5 -3 24222.4 1176.21 3
-2 5 3 25165.4 1364.39 1
-2 -5 3 26292.6 1117.98 2
-2 5 3 24269.2 1237.04 3
2 -5 -3 23837.1 1323.11 1
-2 5 2 38100.3 1515.34 2
-2 5 2 39717.7 1623.64 1
2 5 -2 36402.4 1750.70 3
-2 5 2 38225.6 1412.02 3
2 -5 -2 37300.3 1547.25 1
-2 -5 2 37271.3 1068.08 2
2 -5 -2 37229.7 1355.55 3
2 5 -2 38725.8 898.601 1
-2 5 1 20241.8 991.964 3
-2 -5 1 18061.5 420.024 2
-2 5 1 21234.1 1161.87 1
-2 5 1 20341.8 1084.39 2
2 5 -1 19488.5 1288.04 3
2 5 0 61317.0 2228.63 3
-2 5 0 60045.2 1682.22 3
-2 5 0 62760.0 1945.60 2
-2 5 0 64849.0 1970.64 1
2 5 1 83995.6 2698.95 3
-2 5 -1 84812.6 2125.43 3
2 -5 1 84775.2 2345.03 2
-2 -5 -1 86070.6 2669.10 3
-2 5 -1 81560.1 2293.01 2
-2 -5 -2 20893.1 751.540 1
2 5 2 19108.6 1367.84 3
2 5 2 20675.4 519.040 2
-2 5 -2 21513.7 1259.97 2
2 -5 2 20752.1 1264.31 2
-2 -5 -2 22796.8 1447.54 3
2 5 3 18766.2 1415.35 3
-2 -5 -3 19737.2 947.733 1
-2 5 -3 18264.4 1253.25 2
2 5 3 19307.8 814.238 2
2 -5 3 19266.3 1307.47 2
2 -5 4 967.176 405.532 2
2 5 4 925.910 305.580 2
2 5 4 1164.14 546.054 3
-2 -5 -4 1634.01 377.900 1
2 5 5 25439.2 1889.90 3
2 -5 5 26383.3 1758.26 2
-2 -5 -5 24328.4 1431.07 1
2 5 5 24735.8 1292.65 2
2 5 6 6287.40 768.811 2
2 5 6 5764.78 1036.16 3
2 -5 6 5310.40 917.816 2
2 -5 7 11294.0 1326.57 2
2 5 7 9346.59 1028.64 2
2 5 8 2537.29 601.458 2
2 -5 8 1738.79 726.268 2
2 5 9 6122.80 984.355 2
-2 -6 9 -39.9127 406.773 2
-2 6 9 769.544 352.451 2
-2 -6 8 5194.72 893.808 2
-2 6 8 5990.81 976.757 2
-2 -6 7 1443.49 511.297 2
-2 6 7 2066.82 572.527 1
-2 6 6 16666.0 1449.25 1
-2 -6 6 17903.3 1373.65 2
2 6 -5 23955.2 1330.79 1
-2 6 5 25897.6 1610.21 3
2 -6 -5 22517.1 1454.75 3
-2 6 5 25409.9 1638.48 1
-2 -6 5 26763.5 1506.60 2
-2 6 4 16170.0 1203.88 3
2 6 -4 15180.4 923.996 1
2 -6 -4 15284.4 1104.24 3
-2 6 4 13482.6 1145.43 1
-2 -6 4 16958.1 1075.12 2
2 -6 -4 14234.5 1135.35 1
-2 6 3 33747.2 1549.49 2
-2 6 3 34733.7 1674.59 1
-2 6 3 33573.9 1578.60 3
2 -6 -3 34496.1 1531.21 3
2 6 -3 34343.2 1928.29 3
2 -6 -3 33798.2 1609.36 1
-2 -6 3 34581.8 1264.94 2
2 6 -3 34321.7 1101.25 1
-2 6 2 15758.9 1072.39 1
2 6 -2 15763.7 1283.32 3
-2 6 2 14152.9 971.496 2
-2 6 2 15223.8 1007.09 3
-2 -6 2 14545.2 636.267 2
-2 6 1 17323.3 1036.84 3
2 6 -1 18652.9 1366.60 3
-2 6 1 19149.5 1100.99 2
-2 6 1 20156.7 1180.44 1
2 6 0 13542.8 1190.09 3
-2 6 0 13469.7 913.500 3
-2 6 0 13238.3 975.547 1
-2 6 0 12927.5 927.633 2
2 -6 1 6932.30 746.626 2
2 6 1 7378.20 921.109 3
-2 6 -1 7298.07 729.862 3
-2 6 -1 6937.32 724.444 1
-2 6 -1 7795.37 743.520 2
2 -6 2 8916.59 897.879 2
2 6 2 10624.5 1124.86 3
-2 6 -2 12887.0 1027.06 2
-2 -6 -2 11139.8 414.266 1
2 6 3 10200.0 1148.97 3
-2 -6 -3 11550.9 680.667 1
-2 6 -3 11276.5 1029.39 2
2 6 3 11650.2 492.960 2
2 -6 3 10924.7 1032.63 2
-2 -6 -4 6601.78 640.560 1
2 6 4 6288.44 976.413 3
2 -6 4 5180.43 834.983 2
2 6 4 6298.92 537.006 2
2 6 5 7259.95 1143.86 3
2 6 5 6317.67 657.166 2
2 -6 5 8631.83 1066.16 2
-2 -6 -5 6075.77 735.491 1
2 -6 6 7677.34 1119.63 2
2 6 6 9599.07 883.970 2
2 6 6 6269.40 1085.35 3
2 6 7 32176.1 1810.64 2
2 -6 7 36897.0 2421.95 2
2 6 7 30989.4 2419.12 3
2 -6 8 849.824 676.078 2
-2 -7 9 3759.01 863.782 2
-2 7 8 6827.46 1045.66 2
-2 -7 8 8333.32 1132.33 2
-2 -7 7 1533.51 516.925 2
-2 7 7 3179.21 755.305 2
-2 7 7 2522.99 681.551 1
-2 -7 6 5102.86 730.055 2
-2 7 6 4885.89 845.942 1
-2 7 5 16793.7 1387.47 3
-2 7 5 20472.7 1513.54 1
-2 -7 5 19204.6 1281.22 2
2 7 -4 16135.7 1495.34 3
-2 7 4 14643.5 1194.93 1
-2 7 4 15021.4 1226.51 3
2 -7 -4 13782.4 1140.03 1
2 7 -4 15081.0 891.467 1
-2 -7 4 15914.7 1016.58 2
2 -7 -4 14288.4 1164.71 3
2 7 -3 3840.93 332.363 1
-2 7 3 3715.47 628.434 1
-2 -7 3 2885.04 367.986 2
2 7 -3 3706.54 752.414 3
2 -7 -3 3853.16 576.427 3
-2 7 3 3185.57 497.620 2
-2 7 3 2084.01 486.417 3
-2 -7 2 417.167 131.150 2
-2 7 2 59.7449 239.232 3
-2 7 2 566.342 265.526 2
2 7 -2 632.100 414.025 3
-2 7 2 620.199 327.943 1
-2 7 1 3260.52 540.030 1
-2 7 1 3915.31 538.891 2
-2 7 1 2834.23 524.083 3
2 7 -1 3066.65 671.399 3
2 7 0 17963.2 1478.78 3
-2 7 0 16793.3 1148.21 3
-2 7 0 16988.3 1100.00 2
-2 7 0 17848.5 1153.75 1
2 7 1 28996.0 1880.12 3
-2 7 -1 27641.0 1509.85 3
-2 7 -1 29525.4 1512.46 1
-2 7 -1 28969.7 1484.93 2
2 -7 2 10050.0 980.938 2
-2 7 -2 9878.57 957.751 3
2 7 2 8948.51 1107.37 3
-2 7 -2 8755.11 895.806 2
2 7 3 39316.2 2330.23 3
-2 -7 -3 39685.8 1048.13 1
2 -7 3 37511.1 1941.51 2
2 7 4 12302.7 1400.14 3
2 -7 4 13338.5 1267.89 2
2 -7 5 3599.54 753.012 2
2 7 5 2862.84 727.555 3
2 -7 6 7718.28 1093.20 2
2 7 6 7596.25 1273.04 3
2 7 7 2605.27 894.662 3
2 -7 7 1368.11 534.219 2
-2 -8 7 131.891 191.757 2
-2 8 6 3263.49 773.830 3
-2 -8 6 3159.17 621.081 2
-2 8 6 2506.20 677.625 1
-2 8 5 3167.08 706.110 3
-2 -8 5 2965.48 522.200 2
-2 8 5 4111.86 736.730 1
2 8 -5 5157.16 961.116 3
-2 8 4 24381.1 1677.25 3
2 8 -4 29634.1 2136.01 3
-2 8 4 28479.6 1697.06 1
-2 -8 4 25298.9 1247.38 2
-2 -8 3 3394.79 374.553 2
-2 8 3 4282.86 650.865 1
-2 8 3 2579.13 594.932 3
-2 8 3 3745.12 525.954 2
2 8 -3 3754.35 804.578 3
-2 8 2 1687.41 465.822 3
2 8 -2 1361.48 534.757 3
-2 8 2 1528.01 365.410 2
-2 8 2 1203.16 370.539 1
-2 8 1 1268.42 373.543 1
-2 8 1 1351.75 320.192 2
-2 8 1 1906.03 490.977 3
2 8 -1 1052.63 537.418 3
-2 8 0 4515.09 651.622 1
-2 8 0 4302.94 580.685 2
2 8 0 4259.20 846.185 3
-2 8 0 4415.93 690.497 3
2 8 1 8245.23 1107.41 3
-2 8 -1 11221.3 1051.06 3
-2 8 -1 9318.61 904.957 2
-2 8 -1 10515.5 934.830 1
2 -8 2 15386.9 1217.60 2
2 8 2 14521.6 1480.42 3
-2 8 -2 13275.3 1196.99 3
-2 8 -2 15173.5 1181.18 1
2 -8 3 17123.0 1376.65 2
2 8 3 17047.2 1664.27 3
-2 8 -3 15859.4 1339.36 3
2 8 4 6980.09 1153.84 3
2 -8 4 6753.49 921.669 2
2 8 5 772.861 578.957 3
2 -8 5 -250.414 341.420 2
2 -8 6 -501.518 437.373 2
2 8 6 -383.962 486.984 3
2 -8 7 4643.64 950.250 2
-2 9 6 5428.57 1037.50 3
-2 9 5 9554.79 1208.56 3
2 9 -5 10502.3 1430.15 3
-2 9 4 12874.6 1346.92 3
2 9 -4 14268.7 1576.49 3
-2 9 4 13421.8 1162.27 1
-2 9 3 2315.85 512.076 1
-2 9 3 621.362 369.978 3
2 9 -3 1765.87 634.662 3
-2 9 2 5619.61 723.360 1
2 9 -2 7293.27 1151.06 3
-2 9 2 5890.41 825.610 3
-2 9 1 4705.18 793.011 3
2 9 -1 3725.43 861.643 3
-2 9 1 5279.04 689.108 1
-2 9 0 11477.3 972.264 1
-2 9 0 9375.00 1034.05 3
2 9 0 8475.20 1195.00 3
-2 9 -1 11981.0 1184.54 3
2 9 1 13983.3 1540.81 3
-2 9 -1 14270.2 1138.44 1
-2 9 -2 25280.8 1756.29 3
2 9 2 26640.3 2107.90 3
-2 9 -2 27134.2 1616.02 1
2 9 3 4978.15 969.785 3
-2 9 -3 4409.45 808.227 3
2 -9 3 4895.32 794.578 2
-2 9 -3 4640.03 748.823 1
2 9 4 4632.95 1024.95 3
2 -9 4 4621.64 822.486 2
2 -9 5 1496.59 472.913 2
2 -9 6 1174.03 559.300 2
-2 10 4 508.318 501.729 3
-2 10 3 4049.59 776.788 3
2 10 -3 4051.42 917.667 3
2 10 -2 4099.14 974.867 3
-2 10 2 2928.68 680.924 3
-2 10 1 2607.08 719.142 3
2 10 -1 1756.30 765.132 3
-2 10 0 1102.53 499.687 3
2 10 0 444.043 591.118 3
-2 10 -1 12971.5 1316.71 3
2 10 1 11411.1 1541.84 3
-2 10 -2 24379.0 1801.72 3
2 10 2 21560.7 2038.64 3
-2 10 -3 577.863 420.616 3
-2 10 -4 1591.79 613.224 3
-2 10 -5 1642.98 681.265 3
-3 0 10 1432.88 633.752 2
-3 0 9 -1202.89 564.666 2
-3 0 8 1081.52 475.115 2
-3 0 7 568.367 416.052 1
-3 0 6 22999.8 1569.66 1
3 0 -5 13644.6 1097.94 1
-3 0 5 11967.1 1053.83 1
-3 0 4 1713.18 444.473 1
3 0 -4 1738.19 395.847 1
3 0 -3 167.462 202.776 1
-3 0 3 -88.5956 254.653 1
-3 0 2 1042.56 350.524 1
3 0 -2 1189.83 324.176 1
-3 0 1 36.8841 268.806 1
3 0 -1 74.2189 121.078 3
3 0 0 50828.9 1161.28 3
-3 0 0 46356.5 1090.48 3
-3 0 0 49587.4 1548.96 2
3 0 1 405.421 240.346 3
-3 0 -1 270.984 208.932 2
-3 0 -1 308.742 185.009 3
3 0 1 837.982 340.915 2
3 0 2 12755.0 826.745 3
-3 0 -2 12084.7 791.629 3
-3 0 -2 14330.3 947.727 2
3 0 2 13308.0 928.065 2
-3 0 -3 13601.0 959.140 3
-3 0 -3 15358.4 1078.56 2
3 0 3 15572.3 1088.25 2
3 0 4 446.816 359.849 2
-3 0 -4 1149.60 388.516 2
-3 0 -4 449.888 276.593 3
3 0 5 277.747 343.631 2
3 0 6 14545.9 1340.67 2
3 0 7 236.393 411.207 2
3 0 8 1400.95 620.121 2
3 0 9 5580.96 1033.73 2
-3 1 10 1004.50 495.471 2
-3 -1 10 458.844 536.944 2
-3 1 9 462.515 447.520 2
-3 -1 9 1377.64 564.981 2
-3 -1 8 1536.02 664.446 2
-3 1 8 1270.20 532.042 1
-3 -1 7 7277.52 963.419 1
-3 1 7 8397.66 1052.45 1
-3 1 6 358.903 303.318 1
-3 -1 6 196.295 293.464 1
3 -1 -5 14889.2 1164.39 1
3 1 -5 15665.0 1168.25 1
-3 1 5 15607.1 1223.96 1
-3 -1 5 16754.2 1205.55 1
3 1 -4 17159.2 1099.29 1
-3 1 4 18702.2 1221.52 1
-3 -1 4 18541.5 1166.36 1
3 -1 -4 17308.0 1158.86 1
-3 -1 3 2875.38 491.871 1
3 -1 -3 2983.35 497.801 1
3 1 -3 2597.69 426.907 1
-3 1 3 2901.90 510.859 1
-3 1 2 22913.8 1197.90 1
-3 -1 2 23255.9 1087.74 1
3 -1 -2 25716.5 1230.56 1
3 1 -2 24544.3 1111.07 1
-3 1 1 71963.9 1970.16 2
3 1 -1 70274.0 1577.75 3
-3 -1 1 71409.5 1791.16 1
-3 1 0 7834.70 350.713 3
-3 -1 0 7916.16 561.169 3
-3 -1 0 7807.10 616.428 1
3 1 0 7144.19 557.278 3
-3 1 0 7777.22 672.416 2
-3 -1 0 8041.96 607.626 2
3 -1 1 18806.5 1070.72 2
3 1 1 19143.7 966.453 2
-3 -1 -1 17790.1 914.153 3
-3 1 -1 18051.6 747.733 3
3 1 1 16782.0 906.070 3
-3 -1 -1 17064.4 901.476 2
-3 1 -1 19742.1 1088.60 2
3 1 2 9300.88 766.357 3
-3 -1 -2 10462.6 789.920 3
-3 -1 -2 8198.48 692.469 2
-3 1 -2 9583.41 823.085 2
-3 1 -2 9370.00 664.789 3
3 1 2 9448.88 750.494 2
3 -1 2 8281.39 785.836 2
3 1 3 15773.4 1080.80 3
-3 -1 -3 16301.3 1087.12 3
-3 -1 -3 17777.8 1093.36 2
-3 1 -3 18429.8 1189.35 2
3 1 3 17538.3 1092.96 2
-3 1 -3 17556.8 1059.69 3
3 -1 3 16906.3 1170.74 2
-3 1 -4 10073.5 923.179 3
-3 -1 -4 8627.27 895.906 3
3 1 4 10489.8 945.551 2
-3 -1 -4 9950.33 902.087 2
-3 1 -4 12602.8 1080.93 2
3 -1 4 10102.4 1002.00 2
-3 1 -5 3335.95 608.952 3
3 1 5 2135.27 543.549 2
3 -1 5 2764.38 629.577 2
3 1 6 1433.88 576.813 2
3 -1 6 1644.73 591.700 2
3 1 7 11184.2 1258.21 2
3 -1 7 12375.0 1347.76 2
3 1 8 439.278 497.725 2
3 -1 8 2349.37 703.256 2
3 1 9 5110.74 1067.17 2
3 -1 9 3150.76 928.631 2
-3 -2 10 7967.95 1292.45 2
-3 2 10 5140.59 1066.38 2
-3 2 9 2247.62 819.797 2
-3 -2 9 2770.75 745.062 2
-3 -2 8 4238.00 798.788 2
-3 2 8 5116.20 898.137 1
-3 2 7 4058.92 807.596 1
-3 -2 7 4613.33 819.865 2
-3 2 6 7289.15 970.712 1
3 -2 -6 6503.98 744.977 3
-3 -2 6 7414.19 878.054 1
3 -2 -5 15089.1 1198.90 1
3 2 -5 14060.9 1094.24 1
-3 2 5 14249.2 1194.72 1
3 -2 -5 12969.0 928.878 3
-3 -2 5 14724.2 1111.40 1
-3 -2 4 455.915 309.690 1
-3 2 4 351.036 320.254 1
3 2 -4 437.551 249.646 1
3 -2 -4 454.401 198.844 3
3 -2 -4 512.635 245.271 1
3 -2 -3 38305.3 1087.92 3
-3 -2 3 41651.1 1495.60 1
-3 2 3 39349.0 1675.40 1
3 -2 -3 39666.0 1704.63 1
3 2 -3 39010.3 1460.79 1
-3 -2 2 40333.9 1331.81 1
3 -2 -2 39582.0 688.587 3
3 -2 -2 42885.1 1641.44 1
3 2 -2 40911.7 1361.19 1
-3 2 2 41876.9 1634.55 1
-3 2 1 18819.1 1082.70 2
3 2 -1 17672.0 953.350 3
-3 2 1 19845.5 1134.49 1
-3 -2 1 18404.3 848.846 1
3 2 0 69757.5 1874.00 3
-3 -2 0 67138.7 1836.49 3
-3 2 0 72354.2 2093.31 1
-3 -2 0 69905.3 1618.04 1
-3 -2 0 68420.1 1593.83 2
-3 2 0 71832.1 2053.38 2
3 -2 1 23199.0 1235.63 2
3 2 1 21992.9 962.662 2
-3 2 -1 22812.8 813.047 3
3 2 1 22611.9 1147.50 3
-3 -2 -1 23911.0 1158.11 3
-3 -2 -1 23768.0 991.615 2
-3 2 -1 25026.0 1268.13 2
-3 2 -2 50728.5 1498.48 3
3 2 2 50464.4 1864.00 3
-3 -2 -2 48992.7 1787.53 3
-3 -2 -2 49579.6 1553.04 2
-3 2 -2 56775.4 2004.16 2
3 2 2 52086.2 1609.45 2
3 -2 2 50471.5 1909.52 2
3 2 3 23427.1 1416.09 3
-3 2 -3 24622.6 1230.69 3
-3 -2 -3 25428.0 1416.39 3
-3 -2 -3 22966.6 1204.76 2
-3 2 -3 25645.2 1448.22 2
3 2 3 24604.3 1246.87 2
3 -2 3 24969.9 1455.70 2
-3 -2 -4 7238.94 838.947 3
3 -2 4 6017.47 797.938 2
3 2 4 5990.59 809.063 3
-3 2 -4 6204.60 731.099 3
-3 -2 -4 6265.08 703.986 2
3 2 4 6471.05 736.712 2
3 -2 5 7155.26 933.490 2
-3 2 -5 7596.02 898.763 3
-3 -2 -5 7173.84 833.692 2
3 2 5 7047.45 863.036 2
3 2 6 1832.90 563.112 2
3 -2 6 1932.19 621.475 2
3 2 7 930.038 459.890 2
3 -2 7 2930.90 710.838 2
3 2 8 2417.97 639.318 2
3 -2 8 3064.95 821.128 2
3 2 9 1101.76 601.501 2
-3 3 10 4118.96 1008.20 2
-3 -3 10 3937.89 981.299 2
-3 3 9 4238.85 977.426 2
-3 -3 9 4484.83 969.629 2
-3 -3 8 2048.17 624.280 2
-3 3 8 2986.41 776.971 1
-3 -3 7 1746.06 576.722 2
-3 3 7 1597.95 632.026 1
3 -3 -6 13664.4 1079.74 3
-3 -3 6 14788.8 1238.97 2
-3 3 6 16212.5 1377.84 1
3 3 -5 25209.1 1421.81 1
3 -3 -5 24983.7 1267.00 3
-3 3 5 26031.9 1632.83 1
-3 -3 5 25108.7 1394.80 1
3 3 -4 42390.7 1663.95 1
3 -3 -4 37903.1 1344.14 3
-3 3 4 42422.5 1914.87 1
-3 -3 4 42050.8 1623.34 1
3 -3 -4 43265.3 1929.62 1
-3 3 3 11753.4 968.214 1
3 -3 -3 11508.6 610.622 3
-3 -3 3 11478.4 775.855 1
3 -3 -3 12573.5 1004.55 1
3 3 -3 11899.2 796.302 1
-3 -3 2 2299.37 345.003 1
3 -3 -2 1728.96 183.734 3
-3 3 2 1956.03 461.281 1
3 3 -2 1818.89 413.554 3
3 -3 -2 2360.36 437.968 1
3 3 -2 1717.57 283.987 1
-3 3 1 46101.3 1749.23 2
-3 -3 1 44110.7 1186.55 1
3 3 -1 43405.9 1644.77 3
-3 3 1 46492.8 1772.48 1
3 3 0 26951.4 1316.40 3
-3 3 0 27514.1 633.542 3
-3 -3 0 26996.0 1297.60 3
-3 3 0 27511.3 1369.18 1
-3 -3 0 27549.1 942.842 1
-3 -3 0 26424.7 915.383 2
-3 3 0 29919.5 1409.71 2
3 -3 1 80300.8 2362.98 2
3 3 1 74428.2 1608.69 2
-3 -3 -1 76419.7 2270.15 3
-3 -3 -1 73919.4 1602.87 2
-3 3 -1 83657.4 2397.10 2
3 3 1 77132.1 2306.86 3
3 3 2 9921.27 944.924 3
-3 -3 -2 8599.61 816.266 3
-3 -3 -2 8399.25 615.223 2
-3 3 -2 9691.31 885.354 2
3 3 2 8735.12 633.656 2
3 -3 2 8749.15 860.077 2
3 3 3 17493.3 1306.50 3
-3 -3 -3 18313.5 1289.61 3
-3 -3 -3 17958.4 999.390 2
-3 3 -3 20124.2 1330.44 2
3 3 3 17824.4 1018.14 2
3 -3 3 20027.8 1352.31 2
3 3 4 42855.7 2149.76 3
-3 -3 -4 41931.1 1698.68 2
3 3 4 41349.2 1711.90 2
3 -3 4 42208.7 2106.44 2
-3 -3 -5 5495.95 725.990 2
3 3 5 5330.09 862.175 3
3 -3 5 5790.32 898.534 2
3 3 5 6911.42 828.207 2
3 3 6 9937.72 1049.43 2
3 -3 6 10679.2 1242.99 2
3 3 7 3531.87 717.512 2
3 -3 7 3895.86 895.539 2
3 3 8 3139.96 705.771 2
3 -3 8 3348.19 851.436 2
3 3 9 3209.58 767.718 2
-3 4 9 1420.85 660.604 2
-3 -4 9 1767.24 575.728 2
-3 -4 8 20.2299 268.074 2
-3 4 8 699.513 493.664 1
-3 -4 7 1293.29 533.888 2
-3 4 7 296.417 437.992 1
3 -4 -6 6908.13 777.929 3
-3 4 6 8305.34 1053.56 1
-3 -4 6 7804.66 915.453 2
3 4 -5 8114.69 813.418 1
-3 4 5 8762.92 997.247 1
3 -4 -5 8608.03 775.636 3
-3 -4 5 7794.74 837.973 2
3 -4 -4 1031.69 320.563 1
-3 -4 4 485.197 262.208 2
3 -4 -4 622.869 244.898 3
3 4 -4 517.049 267.435 1
-3 4 4 485.654 439.843 1
-3 4 3 7264.88 824.400 1
3 -4 -3 7393.46 529.626 3
-3 -4 3 8059.28 621.488 1
3 -4 -3 8400.06 855.805 1
3 4 -3 6572.44 565.425 1
-3 4 2 9078.26 841.586 2
3 4 -2 9603.54 909.168 3
-3 -4 2 9681.23 570.664 1
-3 4 2 9747.84 525.502 3
3 -4 -2 9942.80 881.959 1
3 4 -2 10190.6 589.833 1
-3 4 2 9557.52 894.394 1
-3 4 1 31182.8 1481.40 2
-3 -4 1 27404.5 890.084 2
-3 4 1 30013.6 807.290 3
-3 -4 1 31501.1 862.279 1
3 4 -1 27471.2 1457.22 3
-3 4 1 30335.6 1506.33 1
3 4 0 40926.4 1777.00 3
-3 4 0 39331.4 1009.31 3
-3 -4 0 42458.2 1792.52 3
-3 4 0 38697.1 1700.21 1
-3 -4 0 39365.7 950.036 2
-3 -4 0 41238.0 969.701 1
-3 4 0 40291.7 1695.17 2
3 -4 1 35334.4 1685.64 2
-3 -4 -1 36733.0 1720.30 3
3 4 1 33323.5 1668.67 3
-3 -4 -1 34615.3 954.711 2
-3 4 -1 35933.4 1650.72 2
3 4 2 23222.7 922.619 2
-3 -4 -2 23938.4 1453.13 3
3 4 2 20960.8 1401.51 3
-3 -4 -2 21908.1 883.921 2
-3 4 -2 24488.1 1432.97 2
3 -4 2 22164.1 1396.95 2
3 4 3 6151.79 854.695 3
3 -4 3 6507.16 833.424 2
-3 -4 -3 5443.90 538.654 2
3 4 3 6641.60 587.687 2
3 4 4 4532.37 834.897 3
3 -4 4 4688.22 781.160 2
-3 -4 -4 4823.90 590.245 2
3 4 4 5321.53 616.158 2
3 4 5 12927.5 1392.21 3
-3 -4 -5 16285.1 1227.35 1
3 4 5 16555.5 1202.32 2
3 -4 5 16515.6 1483.96 2
3 4 6 26011.5 1998.41 3
3 4 6 27694.7 1659.46 2
3 -4 6 28710.5 2010.12 2
3 4 7 5847.97 906.051 2
3 -4 7 6537.81 1074.45 2
3 4 8 309.597 335.481 2
3 -4 8 287.252 367.960 2
3 4 9 -291.683 406.575 2
-3 5 9 -52.3839 354.720 2
-3 -5 9 2189.87 699.990 2
-3 -5 8 1737.49 528.075 2
-3 5 8 1676.28 661.575 1
-3 5 7 7916.89 1114.59 1
-3 -5 7 10018.4 1127.35 2
3 -5 -6 8167.05 867.929 3
-3 -5 6 8181.30 917.759 2
-3 5 6 8013.85 1060.95 1
3 5 -5 10122.5 891.021 1
3 -5 -5 9442.55 840.281 3
-3 5 5 11156.6 1128.39 1
-3 -5 5 12358.0 1037.45 2
3 5 -4 82764.1 2181.48 1
-3 5 4 89698.5 2967.57 1
3 -5 -4 82646.8 2173.42 3
-3 -5 4 92006.3 2450.23 2
-3 5 3 11053.0 765.193 3
-3 5 3 11552.4 1065.40 1
3 -5 -3 12090.2 746.804 3
3 5 -3 12469.9 1165.24 3
-3 -5 3 12665.0 812.136 2
3 -5 -3 12733.8 1077.41 1
3 5 -3 12711.4 739.635 1
-3 5 2 8332.75 870.154 1
-3 5 2 7890.02 812.496 2
-3 5 2 9339.37 615.360 3
3 5 -2 8770.78 943.306 3
-3 -5 2 9941.59 598.514 2
-3 5 1 17804.8 798.621 3
3 5 -1 19260.9 1343.20 3
-3 -5 1 19462.1 611.935 2
-3 5 1 20361.2 1289.03 1
-3 5 1 19454.9 1220.79 2
-3 -5 1 18046.2 598.264 2
3 5 0 13641.9 1158.88 3
-3 5 0 13599.2 726.893 3
-3 5 0 14115.9 1086.42 1
-3 5 0 14258.7 1060.85 2
3 5 1 4987.25 738.704 3
-3 5 -1 4391.51 628.872 2
-3 -5 -1 4254.49 294.674 1
3 -5 1 4615.83 680.294 2
-3 -5 -1 4749.78 311.483 1
3 -5 2 25750.7 1557.52 2
3 5 2 23779.3 1601.69 3
-3 -5 -2 25183.9 936.923 1
-3 5 -2 24654.6 1485.47 2
-3 -5 -3 234.181 225.686 1
3 5 3 -181.856 385.466 3
3 5 3 452.947 187.632 2
3 -5 3 220.980 260.772 2
3 5 4 1428.29 565.580 3
3 5 4 2291.80 390.981 2
3 -5 4 2025.14 554.648 2
-3 -5 -4 2355.83 438.094 1
3 5 5 39762.2 2458.07 3
-3 -5 -5 37269.1 1794.59 1
3 5 5 38433.5 1680.58 2
3 -5 5 37176.3 2229.91 2
3 5 6 14174.3 1566.64 3
3 5 6 15833.8 1241.67 2
3 -5 6 13249.5 1469.45 2
3 5 7 1987.31 575.788 2
3 -5 7 2609.73 721.672 2
3 5 8 -75.9964 222.312 2
-3 6 9 1973.58 578.972 2
-3 -6 9 1467.44 597.213 2
-3 -6 8 2115.90 642.869 2
-3 6 8 1171.76 486.246 1
-3 -6 7 6195.45 940.777 2
-3 6 7 6072.82 1012.10 1
-3 6 6 490.451 457.858 1
-3 -6 6 -71.8709 295.370 2
3 6 -6 -398.141 217.918 1
3 6 -5 6444.72 709.033 1
3 -6 -5 6393.86 751.814 3
-3 6 5 6305.37 905.680 1
-3 -6 5 8950.02 895.668 2
3 6 -4 38779.6 1427.42 1
-3 6 4 36968.2 1635.26 3
-3 6 4 39290.1 2049.23 1
3 -6 -4 35331.8 1530.88 3
3 6 -4 41513.3 2272.28 3
-3 -6 4 40787.1 1605.40 2
-3 -6 3 3462.81 416.763 2
-3 6 3 3089.71 476.545 3
3 6 -3 2768.11 683.813 3
3 -6 -3 4007.57 501.551 3
-3 6 3 2566.69 507.152 2
-3 6 3 3229.78 617.586 1
3 6 -3 2722.95 319.256 1
-3 6 2 6136.91 601.647 3
-3 6 2 6163.24 791.313 1
3 6 -2 6491.45 922.705 3
-3 -6 2 5752.25 403.296 2
-3 6 2 6842.71 792.272 2
-3 6 1 52488.2 1634.71 3
3 6 -1 53141.5 2397.16 3
-3 6 1 54930.4 2200.58 1
-3 6 1 53698.3 2100.57 2
-3 6 0 1646.14 382.544 2
3 6 0 1463.26 563.853 3
-3 6 0 1586.74 336.126 3
-3 6 0 1495.86 501.527 1
-3 6 -1 1888.08 476.044 2
3 6 1 1308.78 552.203 3
-3 6 -1 1652.08 395.111 3
3 -6 1 1554.58 467.892 2
-3 6 -1 2524.28 554.562 1
3 -6 2 9814.63 1057.04 2
-3 -6 -2 9561.31 455.567 1
3 6 2 7818.83 1019.34 3
3 6 3 12018.0 549.371 2
-3 -6 -3 12365.4 740.801 1
3 6 3 11730.4 1309.40 3
3 -6 3 10694.1 1110.63 2
3 6 4 115.538 393.621 3
-3 -6 -4 363.217 240.132 1
3 6 4 -0.83301 144.906 2
3 -6 4 -223.836 309.499 2
3 6 5 407.013 485.429 3
3 6 5 129.326 187.287 2
3 -6 5 -25.1945 392.498 2
3 6 6 18149.3 1864.61 3
3 -6 6 18533.9 1712.87 2
3 6 7 9591.36 1453.64 3
3 -6 7 8508.76 1293.84 2
-3 7 9 1641.14 659.368 2
-3 -7 9 2559.21 671.304 2
-3 -7 8 1037.67 498.252 2
-3 7 8 1765.48 526.216 1
-3 -7 7 605.253 389.372 2
-3 7 7 1096.72 582.248 1
-3 7 6 4592.09 899.184 1
-3 -7 6 4851.78 741.395 2
3 7 -5 46787.6 2645.62 3
-3 7 5 43796.1 2294.19 1
-3 -7 5 47251.4 1951.90 2
-3 7 4 4600.13 746.489 1
-3 -7 4 5062.71 567.941 2
-3 7 4 5849.12 745.700 3
3 -7 -4 4308.15 583.262 3
3 7 -4 5138.71 892.132 3
-3 7 3 5488.74 654.034 3
3 7 -3 4513.59 870.958 3
-3 -7 3 6614.77 513.958 2
-3 7 3 6084.96 839.120 1
-3 7 2 3216.68 476.832 3
-3 7 2 3944.43 639.462 1
-3 7 2 3061.55 548.520 2
3 7 -2 3052.01 694.352 3
-3 7 1 34371.8 1483.75 3
3 7 -1 32166.2 2019.63 3
-3 7 1 35079.1 1770.29 2
-3 7 1 35009.8 1820.89 1
3 7 0 44120.7 2377.95 3
-3 7 0 41977.2 1662.33 3
-3 7 0 44376.1 2048.76 1
-3 7 0 42368.0 1950.97 2
-3 7 -1 7093.22 735.081 3
3 7 1 7341.90 1058.22 3
-3 7 -1 7042.48 848.018 1
3 -7 2 27336.8 1711.21 2
3 7 2 28466.0 2008.13 3
-3 7 -2 28794.9 1533.39 3
3 7 3 6860.70 1083.72 3
3 -7 3 4999.21 831.089 2
3 7 4 553.075 528.361 3
3 -7 4 1086.77 483.600 2
3 7 5 -447.515 483.739 3
3 -7 5 -225.060 270.915 2
3 7 6 10531.3 1506.63 3
3 -7 6 13207.5 1494.61 2
3 -7 7 1866.49 746.688 2
-3 8 8 4439.52 904.601 1
-3 8 7 6476.09 1059.78 1
3 8 -6 16379.7 1709.20 3
-3 8 6 15722.4 1531.06 1
-3 8 5 17778.4 1382.09 3
3 8 -5 18344.6 1770.46 3
-3 8 5 20683.2 1642.93 1
-3 8 4 755.504 401.262 1
-3 8 4 -135.441 350.412 3
3 8 -4 272.065 495.419 3
-3 8 3 1633.26 457.545 3
3 8 -3 1879.60 706.737 3
-3 8 3 1620.12 512.601 1
-3 8 2 6099.00 755.273 3
3 8 -2 5738.32 950.597 3
-3 8 2 5163.11 774.184 1
-3 8 1 9398.22 1026.97 1
-3 8 1 9724.94 892.544 3
3 8 -1 10208.8 1280.46 3
3 8 0 21055.1 1787.39 3
-3 8 0 22803.5 1376.91 3
-3 8 0 22005.3 1529.74 1
3 8 1 11439.1 1372.27 3
-3 8 -1 11358.2 1005.30 3
-3 8 -1 13293.2 1241.82 1
3 8 2 17578.0 1698.22 3
-3 8 -2 19074.3 1352.05 3
-3 8 -2 19141.7 1469.16 1
3 8 3 782.949 592.682 3
-3 8 -3 1320.01 403.990 3
3 -8 3 2459.78 683.375 2
3 8 4 4049.45 903.042 3
3 -8 4 4692.58 844.292 2
3 8 5 2281.78 831.398 3
3 -8 5 1935.36 656.118 2
3 -8 6 838.931 607.870 2
-3 9 5 5502.43 915.825 1
-3 9 4 193.448 340.731 1
3 9 -4 415.521 509.679 3
-3 9 3 1824.03 492.502 1
-3 9 3 1850.63 470.887 3
3 9 -3 1367.73 610.296 3
-3 9 2 -81.3451 254.192 3
3 9 -2 813.069 449.003 3
-3 9 2 1165.94 433.084 1
-3 9 1 -372.938 333.672 1
3 9 -1 -549.611 526.602 3
-3 9 0 16981.1 1311.55 3
-3 9 0 20304.1 1494.32 1
3 9 0 20217.4 1865.08 3
-3 9 -1 44788.5 2107.45 3
3 9 1 44035.2 2773.89 3
-3 9 -1 48973.7 2333.11 1
3 9 2 3934.12 900.678 3
-3 9 -2 3355.73 659.445 3
-3 9 -2 2883.76 633.555 1
3 9 3 2466.09 770.031 3
-3 9 -3 2082.07 548.793 3
3 -9 3 1617.64 534.367 2
-3 9 -3 2749.09 654.563 1
-3 9 -4 1995.23 553.455 3
3 -9 4 2261.23 663.636 2
3 -9 5 184.164 456.095 2
3 10 -1 -583.981 666.534 3
3 10 0 5522.04 1187.15 3
-4 0 9 -73.4309 482.487 2
-4 0 8 8371.10 1159.66 1
-4 0 7 34.7681 412.825 1
-4 0 6 5627.76 875.089 1
-4 0 5 1143.90 378.480 1
4 0 -4 524.520 275.773 1
-4 0 4 279.722 297.199 1
-4 0 3 9940.86 909.491 1
4 0 -3 9664.72 895.224 1
4 0 -2 62695.0 1415.50 3
4 0 -2 65301.7 2105.72 1
-4 0 2 67107.0 2182.15 1
-4 0 1 4679.06 586.536 2
4 0 -1 4507.99 404.720 3
-4 0 1 4877.93 638.431 1
-4 0 0 12363.8 654.193 3
4 0 0 14156.6 731.876 3
-4 0 0 13348.3 983.236 1
-4 0 0 14544.6 1000.98 2
4 0 1 1583.64 324.572 3
-4 0 -1 1312.05 377.065 2
-4 0 -1 1442.42 286.586 3
4 0 1 1065.08 378.356 2
4 0 2 1002.45 346.656 3
-4 0 -2 1580.78 437.750 2
-4 0 -2 1580.41 325.473 3
4 0 2 1108.40 373.960 2
-4 0 -3 36280.9 1632.43 3
-4 0 -3 39095.6 1826.78 2
4 0 3 35388.1 1775.14 2
-4 0 -4 4349.19 662.248 3
4 0 4 4640.75 761.552 2
4 0 5 92.4386 392.906 2
4 0 6 20360.8 1640.08 2
4 0 7 745.442 419.996 2
4 0 8 701.419 483.362 2
-4 -1 9 2282.74 777.316 2
-4 1 9 1302.85 613.176 1
-4 1 8 2340.98 709.516 1
-4 -1 8 2641.24 705.916 1
-4 1 7 738.151 508.256 1
-4 -1 7 -152.118 359.465 1
-4 -1 6 2030.53 555.138 1
-4 1 6 2267.65 603.311 1
-4 1 5 17260.7 1382.62 1
-4 -1 5 15834.7 1251.44 1
4 1 -5 18594.0 1328.64 1
4 -1 -4 4961.57 695.563 1
-4 -1 4 4269.26 664.335 1
4 1 -4 5120.72 678.626 1
-4 1 4 4635.55 711.308 1
-4 1 3 11627.1 997.528 1
-4 -1 3 8669.07 823.770 1
4 -1 -3 9024.95 879.135 1
4 1 -3 10787.2 914.101 1
-4 -1 2 38929.6 1577.35 1
4 -1 -2 37515.6 823.780 3
4 1 -2 38296.9 1316.96 3
4 -1 -2 38462.7 1695.61 1
4 1 -2 38211.9 1551.19 1
-4 1 2 39042.6 1739.20 1
-4 1 1 109956. 2786.97 2
-4 -1 1 106770. 2543.01 2
4 -1 -1 101625. 1202.93 3
4 1 -1 99512.5 2095.53 3
-4 1 1 106292. 2778.29 1
-4 -1 1 105273. 2523.79 1
-4 1 0 81563.1 1331.78 3
-4 -1 0 78818.2 1942.63 3
-4 1 0 86113.3 2473.17 1
-4 -1 0 83246.2 2238.47 1
4 1 0 83555.1 1993.87 3
-4 -1 0 80198.5 2222.00 2
-4 1 0 85022.6 2460.93 2
-4 -1 -1 1173.65 323.972 2
-4 1 -1 732.691 292.687 2
-4 1 -1 1086.89 229.615 3
-4 -1 -1 668.010 251.367 3
4 -1 1 1224.33 371.383 2
4 1 1 996.099 353.170 2
4 1 1 943.874 298.670 3
4 1 2 5312.84 636.094 3
-4 1 -2 4810.38 524.862 3
-4 -1 -2 5799.60 644.191 3
4 -1 2 5135.55 698.464 2
4 1 2 4819.87 639.053 2
-4 -1 -2 4908.55 631.529 2
-4 1 -2 6353.76 747.151 2
4 1 3 19820.5 1311.79 3
-4 1 -3 19715.4 1171.18 3
-4 -1 -3 22068.5 1337.64 3
-4 -1 -3 19555.1 1262.50 2
-4 1 -3 19875.6 1358.13 2
4 1 3 18745.2 1256.01 2
4 -1 3 20530.8 1398.90 2
-4 -1 -4 15025.0 1194.36 3
-4 1 -4 14188.5 1133.43 3
-4 -1 -4 16967.1 1284.16 2
4 1 4 17378.3 1309.80 2
4 -1 4 19133.2 1445.96 2
4 1 5 28.0745 334.032 2
4 -1 5 301.998 378.545 2
4 1 6 6646.53 987.591 2
4 -1 6 7191.09 1083.89 2
4 1 7 1337.64 589.311 2
4 -1 7 847.929 483.958 2
4 1 8 1303.85 519.652 2
4 -1 8 881.502 613.747 2
-4 -2 9 3649.07 849.657 2
-4 2 9 3054.54 870.042 1
-4 2 8 4083.70 902.102 1
-4 -2 8 4342.14 871.375 2
4 -2 -7 14694.6 1218.66 3
-4 2 7 17049.3 1546.53 1
-4 -2 7 16556.0 1413.86 1
4 -2 -6 -69.1092 201.053 3
-4 2 6 1061.74 560.788 1
-4 -2 6 886.144 426.082 1
-4 2 5 9384.20 1072.72 1
4 -2 -5 7478.72 676.717 3
-4 -2 5 7236.36 869.888 1
4 2 -5 9025.22 917.999 1
-4 2 4 16309.7 1280.92 1
-4 -2 4 17651.0 1189.07 1
4 -2 -4 15670.4 810.776 3
4 -2 -4 18125.8 1336.89 1
4 2 -4 15120.3 1096.75 1
-4 2 3 8384.93 908.963 1
4 -2 -3 8579.28 449.777 3
-4 -2 3 9115.08 804.298 1
4 -2 -3 8845.78 886.853 1
4 2 -3 8372.18 774.643 1
-4 -2 2 10411.7 804.163 1
-4 2 2 10706.5 934.747 2
4 2 -2 9623.81 781.091 3
4 -2 -2 10318.5 919.471 1
4 2 -2 10133.0 782.594 1
-4 2 2 10822.6 987.220 1
-4 2 1 7668.14 786.524 2
-4 -2 1 8162.92 698.175 2
4 2 -1 7035.39 675.657 3
-4 2 1 8946.67 885.148 1
-4 -2 1 7710.47 685.779 1
4 2 0 5471.30 628.825 3
-4 -2 0 5398.88 591.371 3
-4 2 0 3731.62 575.860 2
-4 2 0 4276.48 651.974 1
-4 -2 0 5133.11 570.633 1
-4 -2 0 5020.52 563.347 2
4 -2 1 19237.3 1272.37 2
4 2 1 20994.6 1119.58 2
-4 2 -1 17932.5 734.940 3
4 2 1 19816.0 1176.63 3
-4 -2 -1 19770.7 1144.19 3
-4 -2 -1 21690.6 1126.33 2
-4 2 -1 20717.6 1318.92 2
-4 -2 -2 922.197 322.306 2
-4 2 -2 1238.39 365.162 2
-4 2 -2 798.690 255.324 3
4 2 2 741.005 360.061 3
-4 -2 -2 516.954 297.948 3
4 -2 2 876.152 382.825 2
4 2 2 853.308 354.933 2
4 2 3 9018.32 974.329 3
-4 2 -3 8444.34 773.841 3
-4 -2 -3 10904.5 1006.98 3
-4 -2 -3 8561.39 840.558 2
4 2 3 9736.49 882.460 2
4 -2 3 8151.41 957.454 2
4 2 4 24949.3 1680.82 3
-4 2 -4 27428.3 1542.06 3
-4 -2 -4 28815.5 1596.50 2
4 2 4 29923.1 1646.80 2
4 -2 4 30103.1 1868.86 2
4 2 5 41587.1 2115.47 2
4 -2 5 45477.6 2423.49 2
4 2 6 580.000 396.315 2
4 -2 6 870.158 487.223 2
4 2 7 2866.04 711.492 2
4 -2 7 1426.38 605.230 2
4 2 8 2190.48 631.181 2
4 -2 8 727.783 514.035 2
-4 -3 9 -24.0285 344.142 2
-4 3 9 -432.900 540.125 1
-4 -3 8 2782.82 680.286 2
-4 3 8 2328.75 775.875 1
-4 3 7 4547.98 836.877 1
-4 -3 7 3492.42 728.897 2
4 -3 -7 3416.73 589.708 3
4 -3 -6 20023.6 1216.39 3
-4 3 6 19915.1 1633.07 1
-4 -3 6 21345.2 1476.87 1
4 -3 -5 30622.3 1317.53 3
-4 3 5 32740.4 1937.24 1
-4 -3 5 33903.0 1720.17 1
4 3 -5 31306.1 1662.92 1
4 3 -4 4905.22 625.465 1
4 -3 -4 5341.38 462.042 3
-4 3 4 5302.53 813.572 1
-4 -3 4 5285.65 644.570 1
-4 3 3 56014.0 2254.87 1
4 -3 -3 52245.4 924.480 3
-4 -3 3 58053.8 1892.11 1
4 3 -3 55763.6 2083.80 3
4 -3 -3 57262.1 2272.24 1
4 3 -3 56251.6 1868.78 1
-4 3 2 9798.02 940.736 2
-4 -3 2 9472.33 731.802 1
4 3 -2 10161.1 889.322 3
-4 3 2 10405.1 1019.08 1
-4 3 1 13192.5 1063.09 2
-4 -3 1 12368.5 803.784 2
4 3 -1 11695.7 945.461 3
-4 3 1 13821.8 1128.34 1
-4 -3 1 12803.4 814.346 1
4 3 0 3749.43 591.239 3
-4 3 0 2546.42 518.571 2
-4 -3 0 3180.79 515.089 3
-4 3 0 3349.25 596.537 1
-4 -3 0 2837.19 420.694 1
-4 -3 0 3647.86 439.785 2
4 -3 1 6525.91 806.739 2
-4 3 -1 5874.42 434.320 3
4 3 1 6765.46 773.504 3
-4 -3 -1 5543.92 688.459 3
-4 -3 -1 6439.43 598.148 2
-4 3 -1 6422.69 787.724 2
4 -3 2 14207.2 1223.33 2
4 3 2 15512.1 974.382 2
-4 -3 -2 15592.7 976.105 2
-4 -3 -2 13555.9 1094.17 3
4 3 2 13871.1 1159.99 3
-4 3 -2 14913.4 866.510 3
-4 3 -3 70301.1 2168.26 3
4 3 3 66625.8 2637.15 3
-4 -3 -3 73450.4 2245.55 2
4 -3 3 73999.1 2782.76 2
4 3 3 73406.4 2257.90 2
4 3 4 7635.84 1015.31 3
-4 3 -4 7615.78 835.853 3
4 -3 4 7698.55 1025.10 2
-4 -3 -4 6782.33 775.063 2
4 3 4 8120.77 860.950 2
4 3 5 21173.2 1710.23 3
4 3 5 22073.4 1493.46 2
4 -3 5 24900.5 1851.77 2
4 3 6 5127.03 835.421 2
4 -3 6 3104.54 739.696 2
4 3 7 223.995 327.038 2
4 -3 7 422.035 505.674 2
4 3 8 525.269 443.719 2
4 3 9 1742.37 829.584 2
-4 4 9 1465.64 737.061 1
-4 -4 9 1553.82 556.483 2
-4 -4 8 4482.86 802.940 2
-4 4 8 4549.06 929.053 1
-4 -4 7 7426.06 1041.53 2
-4 4 7 6221.16 1034.69 1
-4 -4 6 1551.88 495.192 2
4 -4 -6 1480.06 363.871 3
-4 4 6 1017.97 519.550 1
4 -4 -5 10225.9 769.422 3
-4 4 5 9490.34 1130.49 1
-4 -4 5 10869.8 965.000 1
4 4 -5 10928.0 970.526 1
-4 4 4 70853.2 2746.73 1
4 -4 -4 65703.0 1568.42 3
4 4 -4 68163.1 2180.74 1
-4 4 3 28328.7 1710.66 1
4 -4 -3 26997.5 720.531 3
-4 -4 3 28494.4 1270.00 1
4 4 -3 29117.6 1654.28 3
4 4 -3 28460.2 1263.05 1
-4 4 2 31014.9 1688.20 2
-4 -4 2 30750.5 1191.32 1
4 4 -2 30359.0 1647.46 3
-4 4 2 31933.1 1748.88 1
-4 -4 1 9833.31 655.287 1
4 4 -1 10156.3 983.643 3
-4 4 1 11447.8 1089.61 1
-4 4 1 10159.6 950.559 2
-4 -4 1 9760.56 667.383 2
-4 -4 0 2409.61 353.471 1
-4 4 0 2664.67 199.530 3
-4 4 0 2437.35 183.882 3
-4 -4 0 2894.38 361.874 2
-4 4 0 3408.20 586.299 2
4 4 0 2331.76 531.984 3
-4 -4 0 2778.09 532.754 3
-4 4 0 2699.75 588.040 1
4 -4 1 24852.7 1579.28 2
4 4 1 20789.7 1430.23 3
-4 -4 -1 24224.3 1483.41 3
-4 -4 -1 21864.3 1033.05 1
-4 -4 -1 22595.3 991.985 2
4 -4 2 13204.6 1212.07 2
4 4 2 13969.6 864.965 2
4 4 2 12331.2 1190.62 3
-4 -4 -2 12809.7 824.660 2
-4 -4 -3 2666.52 442.211 2
4 4 3 2352.30 615.734 3
4 -4 3 3114.88 720.126 2
4 4 3 2780.58 443.714 2
-4 4 -4 10154.5 952.782 3
4 4 4 11424.9 1303.02 3
-4 -4 -4 10593.3 948.681 2
4 4 4 10916.0 916.663 2
4 -4 4 11479.6 1272.47 2
4 4 5 11486.1 1372.86 3
-4 -4 -5 13634.9 1152.03 2
4 4 5 13934.1 1169.03 2
4 -4 5 11726.5 1345.11 2
4 4 6 10389.2 1339.00 3
4 -4 6 10446.2 1331.25 2
4 4 6 10440.6 1092.96 2
4 4 7 191.311 275.553 2
4 -4 7 -19.5837 451.863 2
4 4 8 2844.83 725.592 2
-4 -5 9 133.506 338.156 2
-4 -5 8 1880.21 559.135 2
-4 5 8 445.618 421.582 1
-4 -5 7 7748.73 1020.87 2
-4 5 7 8940.83 1228.01 1
4 -5 -6 12710.1 994.184 3
-4 5 6 12900.7 1378.45 1
-4 -5 6 13056.7 1200.34 2
4 -5 -5 9959.03 781.082 3
-4 5 5 11655.6 1256.38 1
-4 -5 5 10656.2 996.764 2
4 5 -5 11502.5 969.651 1
4 -5 -4 6573.70 523.236 3
4 5 -4 6494.81 930.466 3
-4 -5 4 7718.59 777.723 2
-4 5 4 6021.13 886.053 1
4 5 -4 5803.92 639.673 1
-4 5 3 14752.5 1279.18 1
4 5 -3 14304.6 1282.41 3
-4 -5 3 15364.8 844.431 1
4 5 -3 15459.7 876.273 1
4 5 -2 24259.6 1629.04 3
-4 -5 2 27405.5 997.544 1
-4 5 2 27511.6 1681.73 1
-4 5 1 10167.0 406.701 3
4 5 -1 9131.90 1011.22 3
-4 -5 1 10203.1 554.082 1
-4 5 1 9267.57 1011.44 1
-4 -5 1 8888.24 567.428 2
-4 -5 0 9003.41 527.688 1
4 5 0 8728.18 999.920 3
-4 5 0 9490.24 499.336 3
-4 5 0 8484.81 961.927 1
-4 -5 0 9924.94 545.841 2
4 -5 1 11683.2 1106.60 2
4 5 1 11984.5 1197.13 3
-4 5 -1 13694.5 741.569 3
-4 5 -1 11919.7 1132.00 1
-4 -5 -1 13111.6 648.903 2
-4 -5 -1 13895.0 725.034 1
4 -5 2 56579.8 2514.16 2
4 5 2 51083.6 2482.85 3
-4 -5 -2 53708.3 1462.13 2
4 -5 3 30726.2 1960.73 2
4 5 3 32399.6 1307.94 2
4 5 3 30172.0 2010.67 3
-4 -5 -3 28688.0 1228.37 2
4 5 4 4796.55 936.912 3
4 -5 4 5866.48 1017.84 2
-4 -5 -4 6735.88 739.161 1
4 5 4 5761.52 666.189 2
4 5 5 1834.45 721.942 3
4 5 5 1826.98 474.848 2
4 -5 5 3260.91 840.759 2
4 5 6 650.484 693.296 3
4 5 6 1018.59 417.509 2
4 -5 6 628.755 495.756 2
4 -5 7 6189.18 1091.61 2
-4 -6 9 2827.69 731.700 2
-4 -6 8 1798.75 584.454 2
-4 6 8 2029.71 774.528 1
-4 6 7 4604.30 928.181 1
-4 -6 7 4174.80 779.261 2
-4 -6 6 6934.87 868.893 2
-4 6 6 6433.27 993.891 1
-4 6 5 7239.46 1032.83 1
4 6 -5 9522.42 1193.99 3
-4 -6 5 8904.60 902.174 2
4 -6 -4 5241.95 535.950 3
4 6 -4 5430.25 937.244 3
-4 -6 4 6761.69 692.436 2
-4 6 4 5121.40 880.230 1
4 6 -4 5215.63 540.762 1
-4 6 3 25600.3 1739.21 1
4 6 -3 21305.5 1656.84 3
-4 -6 3 25271.9 1133.46 2
-4 -6 2 27146.2 982.480 2
-4 6 2 26981.2 955.281 3
4 6 -2 24730.2 1749.75 3
-4 -6 2 27121.6 961.870 2
-4 6 2 24688.9 1672.35 1
-4 6 1 18444.7 782.191 3
4 6 -1 17464.4 1473.95 3
-4 -6 1 17483.4 534.024 2
-4 -6 1 17080.6 535.931 2
-4 6 1 19045.5 1484.84 1
4 6 0 25175.2 1794.65 3
-4 6 0 27743.0 1038.10 3
-4 -6 -1 14217.3 440.366 1
4 6 1 16807.9 1488.33 3
-4 6 -1 16479.4 901.124 3
-4 -6 -1 14076.2 434.174 1
-4 6 -1 16129.9 1378.26 1
-4 -6 -2 2158.83 297.757 1
4 6 2 1183.45 535.815 3
4 -6 2 1435.41 546.309 2
-4 -6 -2 1193.33 230.853 1
4 6 3 3280.62 814.745 3
4 -6 3 4210.28 806.340 2
4 6 4 460.439 500.941 3
4 -6 4 111.464 324.990 2
4 6 5 939.831 527.406 3
4 -6 5 510.767 457.827 2
4 6 6 866.460 548.904 3
4 -6 6 676.312 602.014 2
-4 7 8 8023.19 1335.50 1
-4 7 7 616.671 527.035 1
-4 -7 7 260.014 324.252 2
-4 -7 6 6673.29 872.289 2
4 7 -6 3699.79 885.693 3
-4 7 6 5132.37 961.801 1
-4 -7 5 2541.75 514.662 2
-4 7 5 2174.48 604.537 1
4 7 -5 2512.41 723.851 3
4 7 -4 5839.04 995.363 3
-4 -7 4 5275.63 589.717 2
-4 7 4 4548.21 825.611 1
-4 7 3 3645.63 473.797 3
4 7 -3 3705.02 803.697 3
-4 7 3 3713.19 720.738 1
-4 -7 3 4766.24 452.003 2
-4 7 2 12427.6 1264.76 1
-4 7 2 13236.6 802.879 3
4 7 -2 14251.1 1438.88 3
-4 7 1 481.235 431.011 1
-4 7 1 1648.16 310.375 3
4 7 -1 336.741 403.404 3
-4 7 0 9565.50 708.298 3
4 7 0 10942.4 1286.66 3
-4 7 0 9174.04 1082.04 1
4 7 1 4903.15 893.315 3
-4 7 -1 4800.89 562.454 3
-4 7 -1 4854.76 838.754 1
4 7 2 1301.87 574.011 3
-4 7 -2 1731.47 406.838 3
4 -7 2 1734.10 584.081 2
-4 7 -2 2246.49 644.945 1
4 -7 3 14096.6 1447.93 2
4 7 3 16080.6 1698.71 3
4 7 4 5679.97 1076.63 3
4 -7 4 3801.21 856.822 2
4 7 5 383.820 752.893 3
4 -7 5 1174.01 454.810 2
4 -7 6 3390.72 944.796 2
-4 8 7 5244.15 1072.73 1
-4 8 6 2876.77 788.595 1
-4 8 5 7205.37 1016.59 1
4 8 -5 6620.08 1131.95 3
-4 8 4 1167.50 472.539 1
4 8 -4 2101.75 638.780 3
4 8 -3 1017.14 499.835 3
-4 8 3 866.452 414.943 1
-4 8 2 1579.68 543.657 1
4 8 -2 2607.29 736.447 3
4 8 -1 21092.6 1848.36 3
-4 8 1 21882.4 1651.84 1
-4 8 0 1136.82 503.348 1
4 8 0 410.257 605.776 3
4 8 1 2205.72 756.155 3
-4 8 -1 2941.79 474.990 3
-4 8 -1 1881.79 656.474 1
4 8 2 635.298 525.175 3
-4 8 -2 2003.14 470.429 3
-4 8 -2 1026.07 499.752 1
4 8 3 2050.94 776.401 3
4 -8 3 2441.19 718.163 2
-4 8 -3 1750.50 613.786 1
4 8 4 2632.33 780.305 3
4 -8 4 3612.67 835.310 2
4 -8 5 2324.85 672.055 2
-4 9 6 3401.68 806.161 1
-4 9 5 1911.52 663.643 1
-4 9 4 -64.7202 122.605 1
4 9 -3 12951.6 1598.94 3
-4 9 3 10410.5 1214.21 1
-4 9 2 10348.4 1174.24 1
4 9 -2 11340.9 1409.10 3
-4 9 1 28.4254 307.162 1
4 9 -1 477.075 439.000 3
-4 9 0 246.934 274.942 1
4 9 0 124.563 328.530 3
-4 9 -1 1265.95 512.588 1
4 9 1 1839.80 690.036 3
4 9 2 -998.084 610.584 3
-4 9 -2 956.627 470.120 1
-4 9 -3 4651.22 992.337 1
4 -9 4 1312.86 650.313 2
-4 9 -4 1460.04 545.493 1
-5 0 9 2161.48 747.641 1
-5 0 8 500.305 538.000 1
-5 0 7 1567.83 607.498 1
-5 0 6 4703.52 852.859 1
-5 0 5 59643.8 2579.92 1
-5 0 4 6581.22 918.047 1
-5 0 3 16086.3 1245.10 1
5 0 -3 13783.1 788.717 3
5 0 -3 14763.5 1167.20 1
-5 0 2 17614.0 1252.41 2
5 0 -2 17436.4 814.260 3
-5 0 2 17426.5 1284.73 1
-5 0 1 -23.5932 310.972 1
5 0 -1 111.511 159.909 3
-5 0 1 -109.649 235.152 2
5 0 0 8662.65 634.740 3
-5 0 0 8952.91 633.319 3
-5 0 0 7432.92 856.245 1
-5 0 0 9533.94 909.870 2
5 0 1 5732.38 601.115 3
-5 0 -1 5473.03 723.377 2
-5 0 -1 4407.36 513.567 3
5 0 1 3708.12 674.784 2
-5 0 -2 305.747 214.091 3
5 0 2 87.5147 353.448 2
-5 0 -3 155124. 3529.56 3
5 0 3 157086. 4054.86 2
5 0 4 8821.41 1104.21 2
5 0 5 4229.49 807.243 2
5 0 6 5262.34 947.971 2
5 0 7 427.744 416.710 2
-5 1 9 9868.92 1385.70 1
-5 -1 9 11105.1 1433.62 1
-5 1 8 1032.89 659.339 1
-5 -1 8 -127.288 284.779 1
-5 -1 7 642.030 492.535 1
-5 1 7 291.404 403.555 1
-5 1 6 16294.2 1493.88 1
-5 -1 6 14670.7 1381.25 1
-5 1 5 7586.29 1006.18 1
-5 -1 5 8052.77 968.760 1
-5 1 4 66852.1 2656.21 1
-5 -1 4 64525.8 2490.58 1
5 1 -4 63726.8 2483.86 1
-5 -1 3 44837.6 1990.18 1
5 -1 -3 41852.5 1089.84 3
5 1 -3 41859.1 1535.85 3
5 1 -3 44247.9 1947.99 1
-5 1 2 2621.44 609.993 1
5 -1 -2 2492.70 237.282 3
-5 -1 2 3254.75 605.111 1
5 1 -2 3018.38 442.006 3
-5 1 2 2904.00 564.702 2
-5 -1 2 3469.37 555.690 2
-5 1 1 18815.1 1316.43 2
-5 -1 1 19755.4 1269.11 2
5 1 -1 17824.2 989.930 3
5 -1 -1 18218.6 606.162 3
-5 1 1 17634.4 1305.63 1
-5 -1 1 16599.1 1182.35 1
5 1 0 19271.2 1066.91 3
-5 1 0 20462.0 757.876 3
-5 -1 0 17768.7 997.037 3
-5 1 0 19563.1 1356.50 1
-5 -1 0 19324.5 1270.93 1
-5 -1 0 22499.2 1349.88 2
-5 1 0 20892.8 1377.87 2
5 1 1 4822.75 617.117 3
-5 1 -1 5307.58 466.468 3
-5 -1 -1 4653.86 551.718 3
-5 -1 -1 4330.39 639.238 2
5 -1 1 3928.26 693.609 2
5 -1 2 139783. 3755.32 2
5 1 2 139024. 3519.67 2
5 1 2 134550. 3292.98 3
-5 1 -2 133240. 2779.52 3
-5 -1 -2 138215. 3210.83 3
-5 -1 -2 143067. 3557.11 2
5 1 3 6725.65 862.604 3
-5 1 -3 7168.38 766.918 3
-5 -1 -3 6957.26 830.872 3
5 -1 3 7833.86 999.926 2
5 1 3 7384.12 929.657 2
-5 1 -4 4032.88 638.854 3
5 1 4 4438.54 787.354 2
5 -1 4 5332.18 897.693 2
5 1 5 2968.04 676.970 2
5 -1 5 2712.72 728.516 2
5 1 6 2407.95 571.461 2
5 -1 6 2294.02 692.796 2
5 1 7 1414.94 571.706 2
5 -1 7 1729.28 658.026 2
5 1 8 1817.52 635.300 2
-5 -2 9 2295.86 888.633 2
-5 2 9 1096.32 752.843 1
-5 2 8 1057.98 556.947 1
-5 -2 8 515.103 440.708 1
5 -2 -7 -618.224 368.633 3
-5 2 7 560.609 539.788 1
-5 -2 7 687.243 438.044 1
-5 -2 6 1493.81 522.603 1
-5 2 6 567.527 440.346 1
5 -2 -6 1074.74 346.756 3
5 -2 -5 17986.2 979.069 3
-5 2 5 18828.3 1530.16 1
-5 -2 5 18893.1 1428.61 1
5 -2 -4 115383. 1940.05 3
-5 -2 4 119054. 3280.36 1
5 2 -4 112828. 3212.82 1
-5 2 3 20492.2 1490.53 1
-5 -2 3 19615.3 1304.62 1
5 2 -3 19802.3 1197.70 3
5 2 -3 20174.4 1280.96 1
-5 2 2 3496.98 664.785 1
-5 -2 2 4512.72 634.914 1
5 2 -2 3723.82 552.310 3
-5 -2 2 3891.29 578.370 2
-5 -2 1 2165.95 468.853 1
5 2 -1 1576.79 385.804 3
-5 -2 1 2136.51 416.630 2
-5 2 1 1897.18 552.351 1
5 2 0 650.265 327.920 3
-5 -2 0 450.594 241.564 2
-5 -2 0 247.520 241.171 3
-5 2 0 35.6153 390.394 1
-5 -2 0 512.357 296.200 1
-5 -2 -1 2972.61 520.215 2
5 2 1 3034.96 584.412 3
-5 2 -1 2664.14 322.532 3
-5 -2 -1 3060.82 531.667 3
5 -2 1 2842.52 645.658 2
5 -2 2 64305.6 2642.77 2
5 2 2 59550.5 2228.51 2
5 2 2 58762.9 2331.35 3
-5 2 -2 58130.1 1729.10 3
-5 -2 -2 58929.8 2233.77 3
-5 -2 -2 63372.8 2279.96 2
-5 -2 -3 3587.76 625.245 2
5 2 3 4327.99 742.383 3
-5 2 -3 3954.38 553.978 3
5 -2 3 3203.83 725.495 2
5 2 3 4567.92 710.500 2
5 2 4 21759.4 1631.45 3
-5 2 -4 19601.4 1348.21 3
5 -2 4 20600.2 1682.11 2
5 2 4 20686.5 1492.65 2
5 2 5 1360.55 517.208 2
5 -2 5 1065.71 498.470 2
5 2 6 680.742 408.455 2
5 -2 6 401.581 517.324 2
5 2 7 3127.17 803.051 2
5 -2 7 3983.65 904.375 2
5 2 8 13514.9 1572.78 2
-5 -3 9 1552.35 658.525 2
-5 3 9 951.466 546.762 1
-5 -3 8 8792.30 1181.62 2
-5 3 8 10348.0 1417.14 1
-5 -3 7 3180.29 687.642 1
-5 3 7 3046.21 828.521 1
-5 3 6 1543.45 643.867 1
5 -3 -6 1588.35 345.495 3
-5 -3 6 1014.12 502.342 1
5 -3 -5 32583.5 1197.47 3
-5 3 5 36395.1 2185.08 1
-5 -3 5 34552.4 1848.22 1
-5 -3 4 -137.078 262.336 1
5 -3 -4 165.562 97.8636 3
5 3 -4 604.838 350.970 3
-5 3 4 242.044 454.406 1
5 3 -4 407.001 233.324 1
-5 3 3 12133.1 1188.28 1
-5 -3 3 12666.7 1019.53 1
5 3 -3 11238.9 1033.72 3
5 3 -3 11439.8 937.961 1
-5 -3 2 19638.8 1202.13 2
-5 -3 2 23116.1 1296.01 1
5 3 -2 22392.3 1366.08 3
-5 3 2 19278.8 1488.62 1
-5 -3 1 3926.41 555.858 1
5 3 -1 3153.76 575.690 3
-5 -3 1 3087.33 492.726 2
-5 3 1 3092.98 642.336 1
-5 -3 0 523.313 252.460 2
5 3 0 1119.60 434.825 3
-5 -3 0 906.605 351.696 3
-5 3 0 840.230 468.551 1
-5 -3 0 612.598 342.995 1
5 -3 1 47370.2 2284.29 2
5 3 1 48390.4 2132.66 3
-5 3 -1 49162.3 1121.03 3
-5 -3 -1 50999.4 2119.07 3
-5 -3 -1 49608.6 1897.17 1
-5 -3 -1 49223.1 1856.54 2
5 -3 2 31175.0 1928.68 2
5 3 2 29257.1 1505.21 2
5 3 2 25751.2 1654.93 3
-5 3 -2 29027.1 1184.28 3
-5 -3 -2 27848.7 1455.30 2
5 -3 3 21721.8 1688.31 2
5 3 3 22342.1 1401.76 2
5 3 3 20783.1 1601.53 3
-5 3 -3 18932.6 1144.61 3
-5 -3 -3 21808.0 1373.30 2
5 3 4 3823.50 801.919 3
-5 3 -4 6404.73 741.652 3
5 -3 4 5085.15 881.972 2
5 3 4 5521.22 797.780 2
5 3 5 402.724 440.388 3
5 3 5 1242.27 423.731 2
5 -3 5 1455.16 554.150 2
5 3 6 2955.45 637.593 2
5 -3 6 1859.27 635.491 2
5 3 7 1015.37 517.910 2
5 3 8 24204.0 2046.88 2
-5 -4 9 1511.11 587.708 2
-5 -4 8 6866.64 1066.37 2
-5 4 8 6453.18 1159.91 1
-5 -4 7 3691.10 754.771 2
-5 4 7 2637.33 816.412 1
-5 -4 6 1962.54 518.316 1
-5 4 6 3952.21 850.018 1
5 4 -5 5873.61 793.919 1
5 -4 -5 6120.53 497.889 3
-5 -4 5 6807.55 829.539 1
-5 4 5 7730.32 1069.26 1
-5 4 4 24016.6 1764.42 1
5 4 -4 24537.0 1639.39 3
-5 -4 4 25111.9 1414.27 1
5 4 -4 22794.0 1368.75 1
-5 4 3 40386.6 2182.94 1
5 4 -3 39109.1 2024.73 3
-5 -4 3 40249.7 1665.45 1
-5 -4 2 6968.22 693.171 2
-5 -4 2 8795.11 761.676 1
5 4 -2 7279.15 893.234 3
-5 4 2 7917.46 1019.86 1
-5 4 1 4817.77 839.034 1
-5 -4 1 4878.43 563.985 1
5 4 -1 4007.83 686.426 3
-5 -4 1 4498.83 548.597 2
-5 -4 0 3933.07 527.643 1
-5 -4 0 3717.16 478.086 2
5 4 0 4658.16 756.174 3
-5 4 0 4096.44 812.474 1
-5 4 -1 17274.9 634.668 3
5 4 1 16853.5 1374.36 3
-5 4 -1 17595.6 1470.45 1
-5 -4 -1 17076.4 1075.56 1
-5 -4 -1 17098.3 1045.93 2
-5 -4 -2 3451.14 532.590 2
-5 4 -2 3982.50 469.152 3
5 4 2 2961.71 674.598 3
5 -4 2 3273.86 776.529 2
5 4 3 7862.89 799.852 2
-5 4 -3 7040.78 716.833 3
5 4 3 7477.44 1055.43 3
5 -4 3 6077.37 993.249 2
-5 -4 -3 7511.77 784.734 2
-5 -4 -4 -70.7385 207.653 2
5 4 4 1149.68 590.284 3
-5 4 -4 1258.37 376.971 3
5 -4 4 88.0324 525.211 2
5 4 4 782.472 374.311 2
5 4 5 356.796 465.908 3
5 -4 5 -432.595 485.327 2
5 4 5 -137.046 274.191 2
5 4 6 -525.602 425.095 2
5 -4 6 64.7727 351.441 2
5 4 7 4819.15 930.864 2
-5 -5 9 3010.77 782.969 2
-5 -5 8 5749.93 960.611 2
-5 5 8 5303.48 1102.16 1
-5 -5 7 4026.57 729.657 2
-5 5 7 4892.54 1000.54 1
-5 -5 6 2974.42 617.582 2
-5 5 6 4048.99 830.576 1
-5 -5 5 750.295 321.334 1
5 5 -5 1307.05 530.822 3
-5 5 5 520.565 491.834 1
5 5 -5 -156.520 190.462 1
-5 -5 4 277.023 293.922 1
5 5 -4 -339.912 491.806 3
-5 5 4 830.961 500.725 1
5 5 -4 -236.338 178.687 1
-5 5 3 10385.7 1193.96 1
5 5 -3 8725.68 1031.51 3
-5 -5 3 11222.5 839.868 1
-5 -5 2 8126.80 710.930 2
-5 5 2 8868.62 1111.44 1
5 5 -2 9110.15 1044.77 3
-5 -5 2 9012.58 694.293 1
-5 -5 1 5536.23 548.159 1
5 5 -1 4180.26 745.207 3
-5 -5 1 5306.32 529.846 2
5 5 0 8387.51 1061.36 3
-5 -5 0 8268.62 642.970 2
-5 5 0 7949.23 1040.28 1
-5 -5 0 9384.41 706.751 1
-5 -5 -1 3050.14 419.907 2
-5 5 -1 2753.71 296.307 3
5 5 1 3672.04 760.262 3
-5 5 -1 2436.98 264.879 3
-5 5 -1 3617.77 768.967 1
-5 -5 -1 3179.02 452.769 1
5 -5 2 15284.6 1470.46 2
-5 5 -2 14518.2 862.962 3
5 5 2 13309.9 1368.39 3
-5 -5 -2 14230.1 976.352 1
-5 -5 -2 13101.7 866.477 2
5 5 3 1661.89 679.648 3
5 -5 3 1723.65 574.180 2
5 5 4 7732.82 822.007 2
5 5 4 6771.52 1116.45 3
5 -5 4 8827.84 1252.94 2
5 5 5 1229.32 571.323 3
5 -5 5 940.969 595.743 2
5 5 5 1771.42 455.893 2
5 5 6 969.434 737.556 3
5 -5 6 1103.22 681.094 2
-5 -6 9 874.865 470.294 2
-5 -6 8 -581.717 387.730 2
-5 -6 7 889.623 396.149 2
-5 6 7 775.697 626.857 1
-5 -6 6 3328.16 665.012 2
-5 6 6 4265.82 904.628 1
5 6 -6 4195.40 921.426 3
5 6 -5 9246.23 1251.16 3
-5 -6 5 7719.95 872.153 2
-5 6 5 8042.16 1135.85 1
-5 -6 4 4834.44 615.262 2
5 6 -4 5878.54 978.004 3
-5 6 4 3216.78 770.790 1
-5 6 3 1373.57 554.476 1
5 6 -3 1494.55 640.886 3
-5 -6 2 2881.66 337.094 1
-5 6 2 2112.05 700.570 1
-5 6 1 2408.72 688.689 1
5 6 -1 2591.79 656.352 3
-5 -6 1 1277.62 232.643 1
-5 -6 0 12177.9 595.302 1
5 6 0 12729.1 1377.29 3
-5 6 0 13829.2 1403.30 1
-5 -6 -1 757.006 220.725 1
5 6 1 1210.48 511.956 3
-5 6 -1 936.688 201.096 3
5 6 2 4619.99 925.780 3
-5 6 -2 4208.28 506.109 3
5 -6 2 3232.30 822.386 2
-5 6 -2 4842.66 909.251 1
-5 -6 -2 4507.22 481.841 1
5 6 3 3898.77 910.555 3
5 -6 3 5112.90 897.010 2
5 6 4 4641.26 951.995 3
5 -6 4 3789.21 871.123 2
5 6 5 3542.92 944.778 3
5 -6 5 2535.34 718.123 2
-5 7 7 2116.84 654.571 1
-5 7 6 4692.17 925.803 1
5 7 -6 4029.38 987.348 3
-5 7 5 2443.37 743.067 1
5 7 -5 1141.96 515.785 3
5 7 -4 4950.10 981.617 3
-5 7 4 3556.25 840.205 1
5 7 -3 5997.79 1045.20 3
-5 7 3 7503.49 1107.41 1
-5 7 2 10425.8 1250.01 1
5 7 -2 10392.6 1284.61 3
-5 7 1 819.875 566.789 1
5 7 -1 1036.19 464.257 3
-5 7 0 389.969 450.835 1
5 7 0 319.661 470.372 3
5 7 1 1687.65 589.603 3
-5 7 -1 1726.29 633.399 1
5 7 2 14972.6 1615.97 3
-5 7 -2 16165.0 1561.31 1
5 7 3 4736.39 1095.30 3
5 -7 3 4924.52 915.207 2
5 7 4 2555.48 807.299 3
5 -7 4 1690.28 652.352 2
-5 8 6 1477.30 621.322 1
-5 8 5 1582.75 595.934 1
5 8 -4 13266.0 1580.90 3
-5 8 4 11739.7 1386.41 1
5 8 -3 4898.99 970.201 3
-5 8 3 7190.51 1142.54 1
-5 8 2 2958.43 654.675 1
5 8 -2 4549.37 929.766 3
-5 8 1 266.654 215.962 1
5 8 -1 -413.242 479.213 3
-5 8 0 424.601 271.305 1
5 8 0 301.577 425.258 3
5 8 1 2265.58 789.760 3
-5 8 -1 2565.44 711.853 1
5 8 2 912.200 539.370 3
-5 8 -2 648.812 372.467 1
-5 8 -3 12.3150 472.683 1
5 -8 4 3489.32 832.209 2
-5 9 5 2633.79 672.493 1
-5 9 4 2546.70 687.931 1
-5 9 3 3056.50 746.981 1
-5 9 2 -1013.10 523.055 1
-5 9 1 1659.04 639.181 1
-5 9 0 172.161 367.503 1
-5 9 -1 -472.597 431.702 1
-5 9 -2 2477.98 709.742 1
-5 9 -3 4436.67 993.139 1
-6 0 8 2450.74 722.468 1
-6 0 7 4621.94 939.110 1
-6 0 6 6847.10 1069.66 1
-6 0 5 139851. 4249.42 1
6 0 -4 1270.16 305.348 3
-6 0 4 1186.66 520.352 1
-6 0 3 -631.865 411.050 1
6 0 -3 67.4476 150.983 3
-6 0 2 2454.12 575.723 1
6 0 -2 2207.76 346.057 3
-6 0 1 296.464 326.250 1
6 0 -1 331.603 181.546 3
6 0 0 -9.81192 166.454 3
-6 0 0 107.216 377.141 1
6 0 1 36499.8 1537.03 3
-6 0 -1 37985.4 1515.31 3
-6 0 -1 37557.6 2072.89 1
6 0 2 17999.8 1492.25 2
-6 0 -2 17192.8 1128.30 3
-6 0 -3 4450.11 686.317 3
6 0 3 4263.89 859.999 2
6 0 4 174.558 337.087 2
6 0 5 2164.09 726.315 2
6 0 6 10923.4 1438.34 2
-6 -1 9 760.991 616.599 1
-6 1 8 99.7889 546.243 1
-6 -1 8 -368.369 530.974 1
-6 1 7 25925.1 2068.37 1
-6 -1 7 25414.7 1957.71 1
-6 1 6 31350.5 2164.68 1
-6 -1 6 31727.9 2090.60 1
-6 1 5 26834.9 1924.91 1
-6 -1 5 25525.0 1824.99 1
-6 1 4 13982.1 1394.83 1
-6 -1 4 13274.9 1281.29 1
6 -1 -4 11457.1 675.557 3
6 1 -4 11133.4 897.476 3
6 -1 -3 4986.96 379.556 3
-6 1 3 4468.07 782.084 1
-6 -1 3 4208.59 766.309 1
6 1 -3 4260.11 539.441 3
-6 1 2 2086.49 683.187 1
-6 -1 2 2497.47 601.635 1
6 -1 -2 2086.62 220.710 3
6 1 -2 2153.60 426.628 3
6 1 -1 14702.4 972.117 3
-6 1 1 16618.6 1437.25 1
-6 -1 1 16197.2 1304.41 1
6 1 0 3371.32 522.261 3
-6 1 0 3182.40 696.604 1
-6 -1 0 3518.59 712.163 1
6 1 1 55274.9 2083.85 3
-6 1 -1 58252.0 1661.29 3
-6 -1 -1 58174.4 2048.35 3
-6 1 -1 52686.9 2483.23 1
-6 -1 -1 55302.8 2408.92 1
6 -1 2 54001.3 2605.93 2
6 1 2 59267.8 2565.35 2
6 1 2 55292.0 2247.72 3
-6 1 -2 55108.9 1852.82 3
-6 -1 -2 54096.4 2130.22 3
-6 1 -3 3836.44 622.999 3
6 -1 3 3271.22 796.375 2
6 1 3 4411.83 830.131 2
6 -1 4 2835.73 766.132 2
6 1 4 1911.68 649.017 2
6 -1 5 1907.63 681.493 2
6 1 5 1332.67 518.100 2
6 -1 6 2210.76 771.282 2
6 1 6 1663.35 558.947 2
6 1 7 7795.42 1245.07 2
-6 -2 9 2023.54 654.529 1
-6 -2 8 4573.82 957.099 1
-6 2 8 4129.15 930.396 1
-6 -2 7 12014.7 1358.43 1
-6 2 7 10088.5 1374.38 1
-6 2 6 8603.18 1190.14 1
-6 -2 6 11084.0 1245.10 1
-6 2 5 20579.1 1710.55 1
-6 -2 5 22052.2 1627.42 1
6 2 -5 21589.4 1451.78 3
-6 2 4 23892.2 1801.23 1
6 -2 -4 23689.4 595.268 3
-6 -2 4 26584.9 1710.58 1
6 -2 -4 22862.7 577.030 3
6 2 -4 24394.8 1441.52 3
-6 2 3 772.701 463.396 1
6 2 -3 1273.94 419.200 3
-6 -2 3 1194.19 438.550 1
-6 2 2 2360.03 684.774 1
-6 -2 2 2595.35 593.749 1
6 2 -2 3350.21 562.888 3
6 2 -1 18949.9 1240.43 3
-6 2 1 20619.2 1628.00 1
-6 -2 1 20808.9 1446.64 1
-6 -2 1 22475.1 1437.52 2
6 2 0 9285.97 931.740 3
-6 2 0 8861.64 1124.38 1
-6 -2 0 8229.83 943.767 1
-6 -2 0 11407.2 1055.50 2
6 2 1 25340.7 1533.41 3
-6 2 -1 24169.1 900.441 3
-6 -2 -1 23290.6 1425.45 3
-6 2 -1 25940.2 1814.67 1
-6 -2 -1 23828.4 1558.91 1
6 -2 2 14033.7 1407.18 2
6 2 2 11116.3 1108.72 3
-6 2 -2 11235.3 794.284 3
6 -2 3 12564.2 1395.60 2
6 2 3 14049.4 1299.94 2
6 2 3 13140.8 1284.42 3
-6 2 -3 13629.8 1025.14 3
6 -2 4 6657.63 1068.91 2
6 2 4 8106.60 1029.59 2
6 -2 5 9272.11 1283.49 2
6 2 5 10693.1 1256.56 2
6 -2 6 5572.96 1083.57 2
6 2 6 3672.57 869.074 2
6 2 7 1670.23 644.393 2
-6 -3 8 12240.7 1413.18 1
-6 3 8 11959.2 1572.89 1
-6 3 7 1603.66 628.395 1
-6 -3 7 1451.87 556.167 1
-6 -3 6 2549.83 692.660 1
-6 3 6 2639.04 735.925 1
-6 -3 5 1594.63 584.748 1
6 3 -5 1584.22 487.512 3
-6 3 5 2003.63 673.381 1
-6 3 4 26706.0 1958.03 1
-6 -3 4 25068.0 1605.49 1
6 3 -4 25770.6 1617.00 3
-6 3 3 12735.5 1318.88 1
-6 -3 3 12462.3 1115.43 1
6 3 -3 14269.0 1194.35 3
-6 -3 2 15149.2 1182.83 2
-6 -3 2 18214.6 1269.97 1
6 3 -2 15998.5 1243.24 3
-6 3 2 16124.5 1506.10 1
6 3 -1 10232.4 1009.99 3
-6 3 1 11101.5 1263.50 1
-6 -3 1 11223.3 1024.28 1
-6 -3 1 9073.79 903.469 2
6 3 0 50439.6 2227.40 3
-6 3 0 52952.5 2663.97 1
-6 -3 0 53479.7 2202.76 1
-6 -3 0 47766.6 2037.59 2
6 3 1 24970.6 1666.86 3
-6 3 -1 22793.2 629.254 3
-6 3 -1 25632.9 1869.59 1
-6 -3 -1 25040.1 1531.01 1
-6 -3 -1 24165.3 1493.70 2
6 3 2 478.665 388.802 3
6 -3 2 1095.33 566.456 2
6 3 3 934.617 494.984 3
6 -3 3 1474.95 558.698 2
6 3 3 1920.96 499.265 2
6 3 4 3252.01 750.165 3
6 -3 4 2320.72 728.234 2
6 3 4 1784.14 533.671 2
6 -3 5 -177.123 501.877 2
6 3 5 1461.07 430.582 2
6 3 6 -751.341 530.864 2
6 3 7 2671.97 732.708 2
-6 -4 8 1690.29 633.727 2
-6 -4 7 5952.19 926.171 1
-6 4 7 7177.09 1224.43 1
-6 4 6 3292.14 874.114 1
6 4 -6 3349.36 814.924 3
-6 -4 6 2530.66 643.903 1
6 4 -5 8561.85 1064.03 3
-6 -4 5 7575.33 949.887 1
-6 4 5 7951.13 1165.89 1
-6 -4 4 3708.72 636.835 1
6 4 -4 4801.49 808.162 3
-6 4 4 3510.03 855.334 1
-6 -4 3 4948.00 702.190 1
-6 4 3 6104.49 974.136 1
6 4 -3 5210.75 832.478 3
-6 -4 3 3555.19 606.279 2
-6 -4 2 10120.6 966.635 2
-6 -4 2 10819.0 956.878 1
6 4 -2 9778.40 1091.84 3
-6 4 2 11263.2 1298.38 1
-6 -4 1 17043.4 1164.67 1
6 4 -1 14719.3 1317.68 3
-6 4 1 16713.5 1590.83 1
-6 -4 1 14381.3 1083.71 2
-6 -4 0 547.651 341.129 1
-6 -4 0 960.725 294.327 2
6 4 0 1144.80 498.192 3
-6 4 0 446.432 569.896 1
-6 -4 -1 4065.48 605.114 2
6 4 1 3569.99 736.679 3
-6 4 -1 4006.61 845.379 1
-6 -4 -1 4440.42 695.716 1
6 4 2 5997.97 977.620 3
6 -4 2 6738.44 1049.32 2
-6 -4 -2 5811.85 749.199 1
6 4 3 6784.06 1099.47 3
6 -4 3 7202.21 1089.07 2
6 4 4 2218.34 672.657 3
6 -4 4 1697.18 613.864 2
6 4 4 1881.30 488.455 2
6 4 5 5427.56 1066.56 3
6 -4 5 5928.13 1139.16 2
6 4 5 5753.92 889.765 2
-6 -5 8 341.662 314.954 2
-6 -5 7 3351.07 760.742 2
-6 5 7 5359.19 1075.02 1
6 5 -7 5416.13 936.313 3
-6 5 6 7283.42 1164.15 1
6 5 -6 6833.31 1067.98 3
-6 -5 6 6981.56 911.183 1
-6 -5 5 1917.68 509.875 1
6 5 -5 1518.00 538.905 3
-6 5 5 1446.20 635.429 1
-6 -5 4 7451.87 815.904 1
6 5 -4 6567.80 1006.63 3
-6 5 4 6600.03 1053.13 1
-6 5 3 4092.99 883.043 1
-6 -5 3 6018.83 681.701 1
6 5 -3 3409.27 777.537 3
-6 -5 2 463.840 294.769 1
-6 5 2 910.728 576.493 1
6 5 -2 1078.92 540.632 3
-6 -5 1 18068.3 1103.65 1
6 5 -1 14881.0 1422.97 3
-6 5 1 16014.6 1585.92 1
-6 -5 0 1925.78 406.414 1
6 5 0 968.562 553.004 3
-6 5 0 1319.12 673.493 1
6 5 1 12739.9 1335.62 3
-6 5 -1 12942.1 1435.18 1
-6 -5 -1 13266.0 1027.98 1
6 5 2 5328.53 896.745 3
-6 5 -2 6341.23 1017.83 1
-6 -5 -2 7244.69 781.146 1
6 5 3 160.038 378.739 3
6 -5 3 493.744 562.672 2
6 5 4 10112.1 1364.35 3
6 -5 4 7885.69 1242.36 2
6 5 5 3388.55 979.932 3
-6 -6 6 1533.74 492.819 2
-6 6 6 1494.95 533.259 1
6 6 -6 1317.37 541.533 3
-6 6 5 13919.5 1576.23 1
6 6 -5 15084.1 1600.90 3
-6 -6 5 15425.4 1263.79 2
6 6 -4 3090.13 833.075 3
-6 6 4 3640.37 925.547 1
-6 6 3 6438.18 1047.21 1
6 6 -3 6719.20 1068.14 3
-6 6 2 5210.67 1008.14 1
6 6 -2 4687.53 941.164 3
-6 6 1 591.418 530.301 1
6 6 -1 1215.46 557.221 3
6 6 0 1264.57 538.298 3
-6 6 0 340.060 477.661 1
6 6 1 1823.27 615.019 3
-6 6 -1 1174.44 527.074 1
6 6 2 3984.80 867.534 3
-6 6 -2 5256.06 1032.53 1
6 6 3 953.667 576.712 3
6 -6 3 605.185 513.446 2
6 6 4 407.233 557.703 3
6 7 -5 -384.234 434.280 3
-6 7 5 321.826 345.345 1
6 7 -4 3.12530 317.438 3
-6 7 4 -954.501 520.758 1
-6 7 3 136.983 300.833 1
6 7 -3 889.492 436.815 3
-6 7 2 996.999 591.432 1
6 7 -2 824.443 676.452 3
-6 7 1 688.558 561.362 1
6 7 -1 964.316 609.071 3
-6 7 0 -1142.09 595.221 1
6 7 0 -241.283 412.296 3
6 7 1 2639.54 751.013 3
-6 7 -1 3729.89 792.079 1
6 7 2 3092.83 851.578 3
-6 7 -2 2477.00 754.142 1
-6 7 -3 5639.85 1091.75 1
-6 8 4 1347.13 466.449 1
-6 8 3 -261.700 440.553 1
-6 8 2 957.849 512.641 1
6 8 -2 1193.96 695.192 3
-6 8 1 450.979 412.434 1
6 8 -1 507.217 525.914 3
-6 8 0 7081.84 1141.49 1
-6 8 -1 1536.66 602.815 1
-6 8 -2 -1127.90 581.868 1
-6 9 2 1566.98 662.078 1
-6 9 1 2091.16 768.318 1
-7 0 8 661.885 670.737 1
-7 0 7 7430.95 1233.03 1
-7 0 6 197.721 355.069 1
7 0 -5 -182.334 189.859 3
-7 0 5 789.918 496.086 1
7 0 -4 150.341 155.855 3
-7 0 4 339.630 353.736 1
-7 0 3 1461.54 570.492 1
7 0 -3 1219.99 299.761 3
7 0 -2 59833.5 1678.37 3
-7 0 2 66527.3 2941.38 1
7 0 -1 13653.9 851.141 3
-7 0 1 12987.9 1367.78 1
7 0 0 269.798 215.639 3
-7 0 0 2.41434 593.615 1
-7 0 -1 -51.5317 472.528 1
-7 0 -2 642.456 407.741 1
7 0 3 1999.42 640.580 2
7 0 4 6151.21 1056.57 2
7 0 5 100.412 414.604 2
-7 -1 8 33478.4 2511.51 1
-7 1 7 10775.9 1441.27 1
-7 -1 7 11293.1 1419.90 1
-7 1 6 17676.7 1751.25 1
-7 -1 6 18508.0 1716.98 1
7 1 -6 15834.2 1233.41 3
-7 -1 5 1954.50 687.960 1
7 1 -5 2390.73 481.122 3
-7 1 5 2809.57 784.077 1
7 1 -4 1698.77 409.216 3
-7 1 4 1656.20 644.688 1
-7 -1 4 1605.73 587.486 1
7 1 -3 7458.95 735.263 3
-7 1 3 6626.15 1020.67 1
-7 -1 3 7272.49 1006.52 1
7 1 -2 12045.7 913.418 3
-7 1 2 12586.7 1414.36 1
-7 -1 2 11345.9 1246.77 1
-7 1 1 8324.76 1184.91 1
7 1 -1 8946.81 828.318 3
-7 -1 1 10251.7 1182.26 1
7 1 0 8280.72 832.894 3
-7 -1 0 10155.1 1208.50 1
-7 1 0 8867.06 1199.01 1
7 1 1 1788.78 439.141 3
-7 -1 -1 2120.79 460.725 3
-7 1 -1 1387.06 562.239 1
-7 -1 -1 1465.52 608.719 1
7 1 2 11728.8 1104.45 3
-7 1 -2 10513.2 1293.24 1
-7 -1 -2 10135.0 1265.70 1
7 -1 3 5844.35 1017.82 2
7 1 3 8760.09 1140.59 2
7 -1 4 602.100 533.320 2
7 1 4 220.353 391.120 2
7 -1 5 17958.5 1826.47 2
7 1 5 15829.4 1665.02 2
-7 -2 8 2014.42 794.688 1
-7 2 7 8421.91 1310.22 1
7 2 -7 9007.31 1060.40 3
-7 -2 7 7798.82 1221.83 1
-7 2 6 4982.55 1004.45 1
-7 -2 6 6936.30 1073.53 1
7 2 -6 6594.22 888.504 3
-7 -2 5 5220.11 834.764 1
7 2 -5 4356.60 748.691 3
-7 2 5 5890.65 1033.48 1
7 2 -4 4586.88 675.263 3
-7 2 4 3946.21 868.018 1
-7 -2 4 3974.84 799.570 1
7 2 -3 9195.92 943.307 3
-7 2 3 8066.19 1119.07 1
-7 -2 3 6405.08 925.647 1
-7 2 2 3726.46 859.216 1
-7 -2 2 3229.30 748.238 1
7 2 -2 3336.06 602.838 3
7 2 -1 20683.9 1355.60 3
-7 2 1 24743.9 1935.90 1
-7 -2 1 22846.9 1686.82 1
-7 -2 0 2795.88 695.775 1
7 2 0 2634.89 539.748 3
-7 2 0 2961.81 795.337 1
7 2 1 4950.42 809.951 3
-7 2 -1 6398.20 1068.37 1
-7 -2 -1 5094.29 841.865 1
7 2 2 5259.85 838.129 3
-7 2 -2 4368.79 928.264 1
-7 -2 -2 3066.12 749.158 1
7 2 3 987.789 454.865 3
7 -2 3 63.8053 389.879 2
7 -2 4 6091.79 1097.52 2
7 2 4 5124.97 970.192 2
7 2 5 5934.67 1058.17 2
7 2 6 357.967 505.124 2
-7 -3 8 15839.5 1683.93 1
7 3 -7 10035.6 1243.89 3
-7 -3 7 8189.75 1199.09 1
-7 3 6 1212.48 647.126 1
7 3 -6 2096.49 545.031 3
-7 -3 6 1378.61 621.767 1
-7 -3 5 1879.14 571.531 1
7 3 -5 3438.97 686.108 3
-7 3 5 3268.21 852.474 1
-7 -3 4 4931.93 813.447 1
7 3 -4 4584.85 756.495 3
-7 3 4 5834.96 1072.60 1
-7 3 3 2352.87 713.990 1
7 3 -3 1929.40 503.733 3
-7 -3 3 1077.08 480.839 1
-7 3 2 3703.13 810.068 1
-7 -3 2 3619.26 641.468 1
7 3 -2 4067.07 694.720 3
-7 3 1 3312.79 839.908 1
-7 -3 1 2446.68 568.997 1
7 3 -1 2389.34 618.174 3
-7 -3 0 2083.52 546.732 1
7 3 0 2242.72 540.287 3
-7 3 0 1149.30 551.870 1
7 3 1 15940.7 1401.59 3
-7 3 -1 18579.4 1752.84 1
-7 -3 -1 17794.3 1430.53 1
7 3 2 6361.03 971.805 3
-7 3 -2 5811.54 1034.50 1
-7 -3 -2 6059.83 941.836 1
7 3 3 4176.75 852.470 3
7 -3 3 4705.42 943.303 2
7 -3 4 14631.0 1667.26 2
7 3 4 15047.3 1471.09 2
7 3 4 13381.3 1515.69 3
7 3 5 4683.32 930.612 2
-7 -4 8 528.714 443.274 1
7 4 -8 1674.60 688.879 3
-7 -4 7 1731.15 672.375 1
7 4 -7 1806.58 634.668 3
-7 4 6 8577.71 1347.65 1
-7 -4 6 10562.4 1235.37 1
7 4 -6 6409.87 1013.18 3
7 4 -5 5220.86 932.597 3
-7 -4 5 5934.59 909.891 1
-7 4 5 6024.16 1109.21 1
-7 -4 4 3383.98 655.905 1
7 4 -4 3257.56 714.841 3
-7 4 4 5236.06 987.263 1
-7 4 3 1832.45 703.034 1
7 4 -3 3010.05 692.286 3
-7 -4 3 3288.52 660.653 1
-7 4 2 4392.26 1015.61 1
7 4 -2 2792.04 686.428 3
-7 -4 2 4282.28 694.491 1
-7 -4 1 14916.9 1237.16 1
7 4 -1 10356.7 1164.26 3
-7 4 1 12997.3 1558.64 1
7 4 0 12588.7 1287.87 3
-7 4 0 12393.8 1492.91 1
-7 -4 0 14264.7 1217.08 1
7 4 1 1567.76 558.126 3
-7 4 -1 1948.94 674.813 1
-7 -4 -1 1891.64 533.727 1
7 4 2 2324.13 736.108 3
-7 4 -2 4200.73 975.256 1
-7 -4 -2 3607.33 729.991 1
7 -4 3 16203.1 1738.34 2
7 4 3 16009.2 1684.34 3
-7 -4 -3 16856.7 1467.95 1
7 4 4 879.798 507.939 3
-7 -5 8 765.019 406.782 2
7 5 -7 2038.07 608.870 3
7 5 -6 338.521 365.023 3
7 5 -5 -58.5179 429.593 3
-7 5 5 1121.10 588.622 1
7 5 -4 3188.87 756.382 3
-7 5 4 4718.61 1027.06 1
-7 -5 4 5252.25 761.462 1
-7 5 3 14905.8 1682.97 1
7 5 -3 13851.2 1430.31 3
-7 -5 3 15100.7 1201.41 1
-7 5 2 2406.93 789.990 1
7 5 -2 1713.00 601.784 3
-7 -5 2 1937.69 497.842 1
-7 -5 1 18171.7 1261.27 1
7 5 -1 16221.8 1544.37 3
-7 5 1 17462.5 1777.05 1
7 5 0 2898.09 738.795 3
-7 5 0 2243.68 778.781 1
7 5 1 2180.79 661.372 3
-7 5 -1 951.358 622.536 1
7 5 2 434.187 414.475 3
-7 5 -2 1074.22 609.779 1
7 5 3 1192.69 554.739 3
7 6 -5 4823.96 1019.86 3
7 6 -4 1411.01 580.615 3
-7 6 4 412.455 499.648 1
-7 6 3 7046.29 1217.03 1
7 6 -3 4716.41 956.365 3
-7 6 2 5911.18 1170.98 1
7 6 -2 5728.38 1018.63 3
-7 6 1 8774.51 1367.61 1
7 6 -1 6181.47 1073.60 3
-7 6 0 9335.25 1338.63 1
7 6 0 8458.02 1259.44 3
7 6 1 778.813 442.901 3
-7 6 -1 -391.483 522.007 1
7 6 2 1135.91 619.186 3
7 7 -3 9153.29 1299.93 3
-7 7 2 16159.5 1769.50 1
7 7 -2 14781.7 1683.75 3
-7 7 1 122.982 365.777 1
7 7 -1 -461.772 540.904 3
7 7 0 2533.19 788.927 3
-8 0 6 23.1583 399.139 1
-8 0 5 703.541 563.119 1
-8 0 4 2707.49 832.131 1
-8 0 3 1020.50 552.640 1
-8 0 2 9751.20 1288.35 1
-8 0 1 1370.39 582.538 1
-8 0 0 851.362 552.142 1
-8 0 -1 788.580 588.196 1
-8 0 -2 311.001 478.008 1
-8 0 -3 -267.866 568.880 1
-8 -1 7 2078.65 774.910 1
-8 1 6 -346.866 442.481 1
-8 -1 6 595.331 534.807 1
-8 1 5 600.248 545.245 1
-8 -1 5 1178.37 614.618 1
-8 1 4 7350.71 1211.88 1
-8 -1 4 6074.78 1027.05 1
-8 1 3 6255.16 1088.56 1
-8 -1 3 7863.89 1107.92 1
-8 1 2 2820.73 739.842 1
-8 -1 2 2354.97 710.755 1
-8 1 1 8654.21 1252.08 1
-8 -1 1 9538.94 1269.02 1
-8 -1 0 3867.51 836.788 1
-8 1 0 4303.76 907.112 1
-8 1 -1 1809.58 631.173 1
-8 -1 -1 1884.97 662.666 1
-8 1 -2 5692.87 1147.43 1
-8 -1 -2 6590.63 1150.33 1
-8 1 -3 3943.24 1093.46 1
-8 -1 -3 4194.89 1019.25 1
-8 -2 7 1712.86 727.520 1
-8 -2 6 -893.124 540.757 1
-8 -2 5 616.396 386.720 1
-8 2 5 973.972 495.440 1
-8 2 4 818.516 566.815 1
-8 -2 4 -108.526 366.712 1
-8 2 3 7744.47 1257.41 1
-8 -2 3 8273.21 1167.78 1
-8 -2 2 14613.9 1442.46 1
8 2 -2 10969.0 1039.66 3
-8 2 2 12063.9 1519.38 1
-8 -2 1 258.273 428.671 1
8 2 -1 904.564 361.614 3
-8 -2 0 2835.57 686.755 1
8 2 0 2676.57 574.369 3
-8 2 0 1710.09 720.615 1
8 2 1 1666.39 534.883 3
-8 2 -1 1527.88 635.784 1
-8 -2 -1 1695.50 590.503 1
8 2 2 1193.67 445.122 3
-8 2 -2 630.356 570.991 1
-8 -2 -2 1062.09 584.025 1
-8 -2 -3 8309.84 1242.06 1
-8 -3 7 353.922 431.130 1
-8 -3 6 2544.99 722.007 1
-8 -3 5 4193.70 864.310 1
8 3 -4 2613.44 579.862 3
-8 3 4 2583.28 812.044 1
-8 -3 4 4282.28 893.471 1
8 3 -3 3456.35 728.758 3
-8 -3 3 2855.21 694.657 1
-8 3 2 4060.82 1027.28 1
8 3 -2 5191.88 856.857 3
-8 -3 2 6611.02 994.874 1
-8 3 1 1354.27 705.792 1
-8 -3 1 117.716 332.952 1
8 3 -1 1016.51 426.622 3
-8 -3 0 -61.8168 311.797 1
8 3 0 2.28006 297.606 3
-8 3 0 3.37892 368.018 1
8 3 1 3144.38 711.669 3
-8 3 -1 1844.12 767.189 1
-8 -3 -1 3520.83 705.484 1
8 3 2 229.054 467.496 3
-8 -3 -2 1734.44 624.656 1
8 3 3 -54.9501 121.317 3
-8 -3 -3 1292.46 548.474 1
-8 -3 -4 698.262 535.417 1
8 4 -5 3730.06 806.125 3
-8 -4 5 2359.44 669.691 1
-8 -4 4 1507.74 541.870 1
8 4 -4 1914.29 599.954 3
-8 4 3 -79.9947 368.099 1
8 4 -3 608.539 501.121 3
-8 -4 3 1427.87 503.297 1
-8 4 2 2697.01 771.746 1
8 4 -2 3659.59 793.186 3
-8 -4 2 4291.98 811.729 1
-8 4 1 746.109 510.255 1
-8 -4 1 1093.77 423.097 1
8 4 -1 1657.26 533.954 3
-8 4 0 4183.02 915.793 1
-8 -4 0 4193.22 812.694 1
8 4 0 3491.07 757.372 3
-8 -4 -1 7811.30 1049.17 1
8 4 1 5738.08 1030.68 3
8 4 2 2239.18 655.868 3
8 4 3 3094.94 799.759 3
8 5 -6 1739.59 573.911 3
8 5 -5 3608.53 821.795 3
8 5 -4 4080.51 876.688 3
8 5 -3 2481.53 713.635 3
8 5 -2 5559.15 1010.23 3
8 5 -1 2471.18 750.281 3
8 5 0 2978.49 841.629 3
8 5 1 1675.12 618.131 3
8 5 2 1587.29 631.148 3
8 6 -4 8733.75 1310.99 3
8 6 -3 2558.17 758.389 3
8 6 -2 9657.66 1363.58 3
8 6 -1 1527.87 686.357 3
8 6 0 657.061 557.923 3
-9 0 4 1735.93 713.175 1
-9 0 3 2589.42 841.222 1
-9 0 2 -493.440 506.293 1
-9 0 1 787.985 622.819 1
-9 0 0 4137.53 969.543 1
-9 -1 4 -1053.45 444.628 1
-9 -1 3 -498.782 482.462 1
-9 1 2 781.393 557.215 1
-9 -1 2 783.771 491.055 1
-9 1 1 1598.34 762.885 1
-9 -1 1 550.544 407.261 1
-9 -1 0 1798.49 736.085 1
-9 -1 -1 1004.88 555.693 1
-9 -2 5 2239.00 808.180 1
-9 -2 4 2355.38 750.019 1
-9 -2 3 2354.99 697.041 1
-9 -2 2 2377.05 721.063 1
-9 -2 1 327.832 436.997 1
-9 -2 0 -168.788 468.587 1
-9 -2 -1 2390.77 824.954 1
-9 -2 -2 1961.95 765.537 1
-9 -3 5 1185.45 655.938 1
-9 -3 4 2256.82 649.756 1
-9 -3 3 544.125 377.586 1
-9 -3 2 3807.27 821.753 1
-9 -3 1 2538.84 724.682 1
-9 -3 0 4433.97 944.454 1
-9 -3 -1 949.351 446.850 1
