#------------------------------------------------------------------------------
#$Date: 2019-11-11 20:07:52 +0200 (Mon, 11 Nov 2019) $
#$Revision: 227210 $
#$URL: file:///home/coder/svn-repositories/cod/cif/4/03/57/4035769.cif $
#------------------------------------------------------------------------------
#
# This file is available in the Crystallography Open Database (COD),
# http://www.crystallography.net/
#
# All data on this site have been placed in the public domain by the
# contributors.
#
data_4035769
loop_
_publ_author_name
'Banerji, Biswadip'
'Chatterjee, Satadru'
'Chandrasekhar, Kadaiahgari'
'Ghosh, Saswati'
'Mukherjee, Kaustuv'
'Mandal, Chitra'
_publ_section_title
;
 Detection of Lysosome by a Fluorescent Heterocycle: Development of Fused
 Pyrido-Imidazo-Indole Framework via Cu-Catalyzed Tandem N-Arylation.
;
_journal_issue                   21
_journal_name_full               'The Journal of organic chemistry'
_journal_page_first              13011
_journal_page_last               13018
_journal_paper_doi               10.1021/acs.joc.8b01513
_journal_volume                  83
_journal_year                    2018
_chemical_formula_moiety         'C19 H12 N4'
_chemical_formula_sum            'C19 H12 N4'
_chemical_formula_weight         296.33
_space_group_crystal_system      triclinic
_space_group_IT_number           2
_space_group_name_Hall           '-P 1'
_space_group_name_H-M_alt        'P -1'
_atom_sites_solution_hydrogens   geom
_atom_sites_solution_primary     iterative
_audit_creation_date             2018-04-24
_audit_creation_method
;
Olex2 1.2
(compiled 2017.08.10 svn.r3458 for OlexSys, GUI svn.r5488)
;
_cell_angle_alpha                72.751(4)
_cell_angle_beta                 75.543(5)
_cell_angle_gamma                79.079(5)
_cell_formula_units_Z            2
_cell_length_a                   7.640(3)
_cell_length_b                   8.930(4)
_cell_length_c                   11.458(5)
_cell_measurement_reflns_used    5068
_cell_measurement_temperature    296(2)
_cell_measurement_theta_max      25.354
_cell_measurement_theta_min      2.407
_cell_volume                     717.3(5)
_computing_cell_refinement       'SAINT v8.34A (Bruker, 2013)'
_computing_data_reduction        'SAINT v8.34A (Bruker, 2013)'
_computing_molecular_graphics    'Olex2 (Dolomanov et al., 2009)'
_computing_publication_material  'Olex2 (Dolomanov et al., 2009)'
_computing_structure_refinement  'ShelXL (Sheldrick, 2015)'
_computing_structure_solution    'olex2.solve (Bourhis et al., 2015)'
_diffrn_ambient_temperature      296.15
_diffrn_measured_fraction_theta_full 0.999
_diffrn_measured_fraction_theta_max 0.985
_diffrn_measurement_device_type  'Bruker APEX-II CCD'
_diffrn_measurement_method       '\f and \w scans'
_diffrn_radiation_type           MoK\a
_diffrn_radiation_wavelength     0.71073
_diffrn_reflns_av_R_equivalents  0.0602
_diffrn_reflns_av_unetI/netI     0.0338
_diffrn_reflns_Laue_measured_fraction_full 0.999
_diffrn_reflns_Laue_measured_fraction_max 0.985
_diffrn_reflns_limit_h_max       9
_diffrn_reflns_limit_h_min       -9
_diffrn_reflns_limit_k_max       11
_diffrn_reflns_limit_k_min       -11
_diffrn_reflns_limit_l_max       14
_diffrn_reflns_limit_l_min       -14
_diffrn_reflns_number            17212
_diffrn_reflns_point_group_measured_fraction_full 0.999
_diffrn_reflns_point_group_measured_fraction_max 0.985
_diffrn_reflns_theta_full        25.242
_diffrn_reflns_theta_max         26.831
_diffrn_reflns_theta_min         2.407
_diffrn_standards_number         0
_exptl_absorpt_coefficient_mu    0.085
_exptl_absorpt_correction_T_max  0.7455
_exptl_absorpt_correction_T_min  0.5000
_exptl_absorpt_correction_type   multi-scan
_exptl_absorpt_process_details
'SADABS-2014/5 (Bruker,2014/5) was used for absorption correction. wR2(int) was 0.1655 before and 0.0735 after correction. The Ratio of minimum to maximum transmission is 0.6707. The \l/2 correction factor is 0.00150.'
_exptl_crystal_colour            'clear light colourless'
_exptl_crystal_colour_lustre     clear
_exptl_crystal_colour_modifier   light
_exptl_crystal_colour_primary    colourless
_exptl_crystal_density_diffrn    1.372
_exptl_crystal_description       plate
_exptl_crystal_F_000             308
_exptl_crystal_size_max          0.64
_exptl_crystal_size_mid          0.12
_exptl_crystal_size_min          0.11
_refine_diff_density_max         0.205
_refine_diff_density_min         -0.205
_refine_diff_density_rms         0.061
_refine_ls_extinction_coef       0.033(9)
_refine_ls_extinction_expression Fc^*^=kFc[1+0.001xFc^2^\l^3^/sin(2\q)]^-1/4^
_refine_ls_extinction_method     SHELXL
_refine_ls_goodness_of_fit_ref   1.026
_refine_ls_hydrogen_treatment    constr
_refine_ls_matrix_type           full
_refine_ls_number_parameters     209
_refine_ls_number_reflns         3049
_refine_ls_number_restraints     0
_refine_ls_restrained_S_all      1.026
_refine_ls_R_factor_all          0.0767
_refine_ls_R_factor_gt           0.0588
_refine_ls_shift/su_max          0.000
_refine_ls_shift/su_mean         0.000
_refine_ls_structure_factor_coef Fsqd
_refine_ls_weighting_details
'w=1/[\s^2^(Fo^2^)+(0.1164P)^2^+0.0165P] where P=(Fo^2^+2Fc^2^)/3'
_refine_ls_weighting_scheme      calc
_refine_ls_wR_factor_gt          0.1583
_refine_ls_wR_factor_ref         0.1796
_reflns_Friedel_coverage         0.000
_reflns_number_gt                2122
_reflns_number_total             3049
_reflns_threshold_expression     'I > 2\s(I)'
_cod_data_source_file            jo8b01513_si_003.cif
_cod_data_source_block           bbsc_pba_0m_a
_cod_original_cell_volume        717.2(5)
_cod_database_code               4035769
_shelxl_version_number           2014/6
_shelx_space_group_comment
;
The symmetry employed for this shelxl refinement is uniquely defined
by the following loop, which should always be used as a source of
symmetry information in preference to the above space-group names.
They are only intended as comments.
;
_olex2_refinement_description
;
1. Fixed Uiso
 At 1.2 times of:
  All C(H) groups
2.a Aromatic/amide H refined with riding coordinates:
 C24(H00A), C25(H00D), C11(H00E), C27(H00F), C29(H00G), C26(H00H), C15(H00I),
 C12(H00J), C21(H00K), C13(H00L), C23(H00M), C22(H00N)
;
_shelx_res_file
;
TITL BBSC_PBA_0m_a.res in P-1
REM Old TITL BBSC_PBA_0m in P-1
REM SHELXT solution in P-1
REM R1 0.165, Rweak 0.005, Alpha 0.044, Orientation as input
REM Formula found by SHELXT: C20 N3
CELL 0.71073 7.64 8.9296 11.4577 72.751 75.543 79.079
ZERR 2 0.003 0.0036 0.0046 0.004 0.005 0.005
LATT 1
SFAC C H N
UNIT 38 24 8

L.S. 20
PLAN  10
TEMP 23
BOND $H
LIST 6
fmap 2
acta
REM <olex2.extras>
REM <HklSrc "%.\\BBSC_PBA_0m_a.hkl">
REM </olex2.extras>

WGHT    0.116400    0.016500
EXTI    0.032558
FVAR       0.90881
N001  3    0.660437    0.380254    0.612021    11.00000    0.06447    0.05639 =
         0.06651   -0.02024   -0.01665   -0.00171
N002  3    0.822234    0.772502    0.530687    11.00000    0.07229    0.06217 =
         0.06820   -0.01773   -0.01410   -0.00729
N003  3    0.760233    0.399705    0.405987    11.00000    0.07176    0.06951 =
         0.07216   -0.02783   -0.01717   -0.00143
C004  1    0.727780    0.525180    0.557992    11.00000    0.06002    0.05626 =
         0.06458   -0.01819   -0.01518   -0.00209
C005  1    0.668335    0.660589    0.734391    11.00000    0.08764    0.05205 =
         0.06135   -0.01405   -0.01701   -0.00913
C006  1    0.883199    0.781427    0.405970    11.00000    0.06071    0.06605 =
         0.06976   -0.01701   -0.01300   -0.00375
C007  1    0.743000    0.649994    0.604503    11.00000    0.06690    0.05873 =
         0.06474   -0.01729   -0.01681   -0.00508
C008  1    0.788166    0.530520    0.432379    11.00000    0.05950    0.06353 =
         0.06651   -0.02309   -0.01657    0.00086
C009  1    0.868012    0.664469    0.350536    11.00000    0.05923    0.06911 =
         0.06557   -0.01688   -0.01249   -0.00012
C00A  1    0.588737    0.306128    0.732902    11.00000    0.07523    0.06132 =
         0.06711   -0.01663   -0.01528   -0.00468
AFIX  43
H00A  2    0.578526    0.353420    0.796910    11.00000   -1.20000
AFIX   0
C00B  1    0.683766    0.310239    0.515333    11.00000    0.06356    0.06402 =
         0.07435   -0.02900   -0.01923    0.00195
N00C  3    0.522893    0.710834    0.969080    11.00000    0.18032    0.09329 =
         0.06862   -0.02902   -0.00737   -0.03997
C00D  1    0.533243    0.163608    0.757585    11.00000    0.08251    0.06026 =
         0.08361   -0.01364   -0.01866   -0.00793
AFIX  43
H00D  2    0.482455    0.112786    0.839204    11.00000   -1.20000
AFIX   0
C00E  1    0.929130    0.686405    0.221693    11.00000    0.07763    0.08526 =
         0.07080   -0.02314   -0.01239   -0.00266
AFIX  43
H00E  2    0.919559    0.609764    0.184359    11.00000   -1.20000
AFIX   0
C00F  1    0.625839    0.161407    0.543549    11.00000    0.07907    0.06345 =
         0.09232   -0.03255   -0.02357   -0.00121
AFIX  43
H00F  2    0.639069    0.111527    0.480651    11.00000   -1.20000
AFIX   0
C00G  1    0.485935    0.654579    0.787590    11.00000    0.09632    0.06607 =
         0.06807   -0.02090   -0.01131   -0.01072
AFIX  43
H00G  2    0.408293    0.632203    0.745776    11.00000   -1.20000
AFIX   0
C00H  1    0.551123    0.091212    0.661904    11.00000    0.08334    0.05861 =
         0.09846   -0.02215   -0.02457   -0.00656
AFIX  43
H00H  2    0.510803   -0.006768    0.680387    11.00000   -1.20000
AFIX   0
C00I  1    0.961862    0.917029    0.330312    11.00000    0.07778    0.07384 =
         0.08044   -0.01479   -0.01071   -0.01176
AFIX  43
H00I  2    0.974845    0.994392    0.365787    11.00000   -1.20000
AFIX   0
C00J  1    1.002620    0.820130    0.151099    11.00000    0.09044    0.10177 =
         0.06909   -0.01318   -0.00371   -0.00959
AFIX  43
H00J  2    1.042427    0.834624    0.065347    11.00000   -1.20000
AFIX   0
C00K  1    0.776925    0.691098    0.801610    11.00000    0.11409    0.07675 =
         0.07249   -0.01504   -0.02970   -0.02488
AFIX  43
H00K  2    0.900549    0.696773    0.769009    11.00000   -1.20000
AFIX   0
C00L  1    1.018942    0.935177    0.205406    11.00000    0.09113    0.08671 =
         0.07921   -0.01135   -0.00620   -0.01627
AFIX  43
H00L  2    1.069602    1.025819    0.155634    11.00000   -1.20000
AFIX   0
C00M  1    0.421089    0.682099    0.902961    11.00000    0.12669    0.08315 =
         0.07653   -0.02915    0.00318   -0.01741
AFIX  43
H00M  2    0.297209    0.680374    0.936746    11.00000   -1.20000
AFIX   0
C00N  1    0.699045    0.713071    0.918096    11.00000    0.16814    0.09383 =
         0.07285   -0.02013   -0.03325   -0.04384
AFIX  43
H00N  2    0.774252    0.730569    0.964004    11.00000   -1.20000
AFIX   0
HKLF 4

REM  BBSC_PBA_0m_a.res in P-1
REM R1 =  0.0588 for    2122 Fo > 4sig(Fo)  and  0.0767 for all    3049 data
REM    209 parameters refined using      0 restraints

END

WGHT      0.1166      0.0165

REM Highest difference peak  0.205,  deepest hole -0.205,  1-sigma level  0.061
Q1    1   0.8364  0.8925  0.3502  11.00000  0.05    0.21
Q2    1   0.4439  0.1526  0.8795  11.00000  0.05    0.19
Q3    1   0.1925  0.7151  0.9108  11.00000  0.05    0.19
Q4    1   0.6780  0.1077  0.6568  11.00000  0.05    0.19
Q5    1   0.8809  0.5869  0.3974  11.00000  0.05    0.18
Q6    1   0.2245  0.6661  0.7089  11.00000  0.05    0.18
Q7    1   0.4975  0.2501  0.7547  11.00000  0.05    0.18
Q8    1   0.6910  0.6191  0.5943  11.00000  0.05    0.17
Q9    1   0.7749  0.6218  0.3776  11.00000  0.05    0.17
Q10   1   0.1893  0.6897  0.7734  11.00000  0.05    0.16
;
_shelx_res_checksum              57490
_shelx_hkl_file
;
  -2   0   0    9.80    1.00
  -2   0   0   10.50    0.90
  -2   0   0   11.60    0.80
  -2   0   0   10.00    0.90
  -2   0   0    9.80    0.90
  -2   0   0    9.70    0.90
   2   0   0   11.30    1.60
  -3   0   0   16.20    1.40
  -3   0   0   16.80    1.40
  -3   0   0   18.50    1.60
  -3   0   0   19.90    1.50
  -3   0   0   19.80    1.50
  -3   0   0   20.90    1.40
   3   0   0   16.50    2.10
  -4   0   0  118.09    7.50
  -4   0   0  108.79    7.30
  -4   0   0  122.59    7.30
  -4   0   0  115.79    7.40
  -4   0   0  118.39    7.40
  -4   0   0  124.99    7.40
   4   0   0  100.59    8.20
   4   0   0  120.49    8.10
  -5   0   0   -0.20    0.30
  -5   0   0    0.10    0.40
  -5   0   0    0.30    0.40
  -5   0   0    0.20    0.30
  -5   0   0    0.00    0.40
  -5   0   0    0.70    0.60
   5   0   0   -0.20    1.10
   5   0   0    0.20    1.10
   5   0   0    0.20    0.70
  -6   0   0    0.70    0.50
  -6   0   0    1.00    0.50
  -6   0   0    1.90    0.50
  -6   0   0    0.60    0.50
  -6   0   0    1.60    0.70
  -6   0   0    1.50    0.70
   6   0   0    1.60    1.40
   6   0   0    1.90    1.20
  -7   0   0   -0.30    0.50
  -7   0   0    0.20    0.40
  -7   0   0    0.30    0.40
  -7   0   0    0.10    0.40
   7   0   0   -0.10    1.00
  -8   0   0    0.50    0.50
  -8   0   0    1.10    0.60
  -8   0   0    0.90    0.50
   8   0   0    0.30    1.30
  -9   0   0    0.70    0.40
  -9   0   0    1.80    0.60
   9   0   0    1.20    1.50
   9  -1   0    0.30    1.60
  -9   1   0    0.10    0.40
  -9   1   0    0.30    0.50
   8  -1   0   -0.20    1.10
  -8   1   0    0.00    0.50
  -8   1   0   -0.10    0.40
  -8   1   0   -0.30    0.40
   7  -1   0   -0.30    1.00
  -7   1   0    0.00    0.40
  -7   1   0   -0.50    0.50
  -7   1   0    0.20    0.50
   6  -1   0    5.90    1.80
  -6   1   0    5.90    1.00
  -6   1   0    5.70    0.90
  -6   1   0    5.70    0.80
  -6   1   0    4.40    0.80
   5  -1   0    3.70    1.30
   5  -1   0    2.20    1.30
  -5   1   0    4.20    0.60
  -5   1   0    4.20    0.70
  -5   1   0    5.30    0.90
  -5   1   0    4.50    0.80
   4  -1   0    9.40    1.60
   4  -1   0    7.60    1.70
   4  -1   0   10.50    1.90
  -4   1   0    9.50    0.80
  -4   1   0    8.50    1.00
  -4   1   0   10.30    1.20
  -4   1   0    9.40    1.10
  -4   1   0    9.70    1.00
   3  -1   0   47.90    3.80
   3  -1   0   52.99    3.20
   3  -1   0   38.30    3.80
   3  -1   0   54.19    3.60
  -3   1   0   47.50    3.20
  -3   1   0   48.00    3.20
  -3   1   0   50.79    3.40
  -3   1   0   49.00    3.30
  -3   1   0   47.50    3.10
   2  -1   0 7002.40  454.35
  -2   1   0 8566.24  454.15
  -2   1   0 8202.58  453.85
  -2   1   0 6594.94  454.15
  -2   1   0 7497.95  454.35
   1  -1   0 1179.78   83.09
   1  -1   0 1437.36   82.99
  -1   1   0 1305.17   82.99
  -1   1   0 1538.15   83.09
  -1   1   0 1448.85   82.99
  -1   1   0 1265.67   82.99
  -1   1   0 1512.75   83.09
   0  -1   0  539.55   29.40
   0   1   0  429.66   29.50
  -1  -1   0    1.30    0.20
  -1  -1   0    1.60    0.20
  -1  -1   0    1.30    0.20
  -1  -1   0    1.20    0.30
   1   1   0    1.10    0.40
  -2  -1   0    9.90    0.80
  -2  -1   0   10.10    0.80
  -2  -1   0    9.70    0.80
  -2  -1   0    9.10    0.80
  -2  -1   0   10.00    0.90
  -2  -1   0   10.20    1.00
   2   1   0    9.60    0.80
  -3  -1   0  218.98   13.10
  -3  -1   0  209.38   13.00
  -3  -1   0  215.38   13.00
  -3  -1   0  220.68   13.10
  -3  -1   0  201.68   13.20
  -3  -1   0  214.28   13.10
  -4  -1   0   43.50    3.00
  -4  -1   0   43.40    2.90
  -4  -1   0   42.30    3.00
  -4  -1   0   43.50    2.90
  -4  -1   0   42.20    3.20
  -4  -1   0   42.20    2.90
  -5  -1   0   44.70    3.10
  -5  -1   0   47.10    3.10
  -5  -1   0   47.50    3.00
  -5  -1   0   43.10    3.10
  -5  -1   0   45.30    3.30
  -5  -1   0   44.80    3.00
   5   1   0   38.40    4.20
   5   1   0   45.40    3.50
   5   1   0   38.80    3.90
   5   1   0   48.10    4.30
  -6  -1   0   16.80    1.50
  -6  -1   0   18.90    1.80
  -6  -1   0   18.10    1.60
  -6  -1   0   17.20    1.50
  -6  -1   0   16.90    1.60
  -6  -1   0   16.10    1.40
   6   1   0   23.10    3.50
   6   1   0   18.50    3.10
   6   1   0   16.00    2.50
   6   1   0   19.80    2.10
  -7  -1   0   10.90    1.30
  -7  -1   0    9.50    1.10
  -7  -1   0   10.30    1.30
  -7  -1   0    9.50    1.10
  -7  -1   0    9.40    1.10
  -7  -1   0   11.30    1.50
   7   1   0    8.90    1.10
   7   1   0   10.20    2.30
   7   1   0   11.80    3.20
  -8  -1   0    0.70    0.60
  -8  -1   0    1.10    0.40
  -8  -1   0    1.40    0.50
  -8  -1   0    1.10    0.50
  -8  -1   0    0.30    1.00
   8   1   0    1.20    1.50
  -9  -1   0   -0.50    0.50
  -9  -1   0    0.40    0.40
   8  -2   0   -0.20    1.00
  -8   2   0    0.00    0.40
  -8   2   0   -0.80    0.50
   7  -2   0    0.30    1.00
  -7   2   0    0.40    0.50
  -7   2   0    0.00    0.40
  -7   2   0    0.40    0.40
   6  -2   0    0.60    1.10
  -6   2   0   -0.20    0.40
  -6   2   0   -0.60    0.40
  -6   2   0    0.20    0.40
   5  -2   0   -0.90    0.90
   5  -2   0    0.30    0.80
  -5   2   0    0.50    0.50
  -5   2   0    0.10    0.40
  -5   2   0    0.30    0.50
  -5   2   0    0.50    0.30
   4  -2   0   92.29    7.50
   4  -2   0   94.09    7.00
   4  -2   0  110.09    6.40
  -4   2   0   98.79    6.40
  -4   2   0  108.09    6.70
  -4   2   0   99.79    6.50
  -4   2   0   98.89    6.20
   3  -2   0   13.90    2.00
   3  -2   0   17.20    1.80
   3  -2   0   17.40    1.40
  -3   2   0   16.80    1.40
  -3   2   0   18.60    1.20
  -3   2   0   16.40    1.40
  -3   2   0   20.00    1.60
  -3   2   0   18.40    1.40
  -3   2   0   17.80    1.20
   2  -2   0   83.49    6.40
   2  -2   0   99.99    5.80
   2  -2   0   83.39    6.00
  -2   2   0   85.69    5.60
  -2   2   0   97.99    5.90
  -2   2   0   90.59    5.70
  -2   2   0  101.69    5.90
  -2   2   0   94.09    5.70
   1  -2   0   22.10    1.60
   1  -2   0   19.80    1.90
  -1   2   0   24.60    1.60
  -1   2   0   20.20    1.50
  -1   2   0   23.80    1.80
  -1   2   0   22.60    1.60
   0  -2   0 3571.34  206.28
   0   2   0 2965.70  206.08
   0   2   0 3656.93  206.28
   0   2   0 3678.83  206.28
   0   2   0 3329.37  206.08
  -1  -2   0  723.23   40.80
  -1  -2   0  701.83   40.90
  -1  -2   0  655.43   40.80
  -1  -2   0  666.73   40.80
  -1  -2   0  650.03   40.90
   1   2   0  661.73   41.10
   1   2   0  656.03   40.70
   1   2   0  714.63   40.90
  -2  -2   0    7.80    0.80
  -2  -2   0    9.50    1.10
  -2  -2   0    8.50    0.70
  -2  -2   0    8.80    0.80
   2   2   0    7.80    0.70
   2   2   0    7.50    1.10
   2   2   0    8.00    0.70
  -3  -2   0   70.09    4.30
  -3  -2   0   67.19    4.40
  -3  -2   0   68.99    4.30
  -3  -2   0   66.09    4.40
  -3  -2   0   70.29    4.30
  -3  -2   0   61.19    4.50
   3   2   0   69.79    4.30
   3   2   0   65.99    4.70
  -4  -2   0   92.99    6.10
  -4  -2   0   98.99    6.10
  -4  -2   0  101.99    6.30
  -4  -2   0   95.59    6.10
  -4  -2   0   96.79    6.10
   4   2   0   93.69    6.50
   4   2   0   91.29    6.00
  -5  -2   0   40.80    2.90
  -5  -2   0   42.50    3.00
  -5  -2   0   42.60    3.00
  -5  -2   0   41.30    2.90
  -5  -2   0   43.60    2.90
  -5  -2   0   37.20    3.20
   5   2   0   46.70    4.50
   5   2   0   40.20    2.80
   5   2   0   44.40    3.50
  -6  -2   0   17.00    1.50
  -6  -2   0   17.30    1.50
  -6  -2   0   16.70    1.50
  -6  -2   0   17.30    1.90
  -6  -2   0   16.80    1.50
  -6  -2   0   17.80    1.60
   6   2   0   22.00    3.50
   6   2   0   15.00    3.10
   6   2   0   14.30    2.50
   6   2   0   20.80    2.20
   6   2   0   16.40    1.40
  -7  -2   0    1.70    0.50
  -7  -2   0    2.60    0.60
  -7  -2   0    2.40    0.60
  -7  -2   0    2.80    0.60
  -7  -2   0    3.00    0.70
  -7  -2   0    3.40    1.00
   7   2   0    1.80    1.30
   7   2   0    1.80    1.80
   7   2   0    1.50    2.00
   7   2   0    3.80    1.30
  -8  -2   0    0.00    0.40
  -8  -2   0   -0.50    0.30
  -8  -2   0   -0.60    0.30
  -8  -2   0   -0.50    0.40
  -8  -2   0    0.50    0.50
  -8  -2   0    0.30    0.80
   8  -3   0    1.10    1.70
  -8   3   0   -0.10    0.50
  -8   3   0    0.50    0.60
   7  -3   0    0.00    1.30
  -7   3   0    0.60    0.50
  -7   3   0   -0.20    0.50
  -7   3   0    0.50    0.40
   6  -3   0    0.20    1.10
  -6   3   0   -0.30    0.40
  -6   3   0    0.50    0.60
  -6   3   0    0.40    0.40
   5  -3   0    9.50    2.10
  -5   3   0   10.70    1.40
  -5   3   0   10.80    1.30
  -5   3   0   11.10    1.20
   4  -3   0    0.60    0.80
   4  -3   0    1.20    0.50
   4  -3   0    0.60    0.70
  -4   3   0    0.50    0.20
  -4   3   0    0.40    0.50
  -4   3   0    0.70    0.40
  -4   3   0    0.20    0.50
   3  -3   0    7.20    1.20
   3  -3   0    7.70    1.70
   3  -3   0    8.10    0.90
  -3   3   0    6.30    0.60
  -3   3   0    7.70    0.90
  -3   3   0    8.20    1.00
  -3   3   0    7.20    1.00
  -3   3   0    7.10    1.00
  -3   3   0    6.30    0.60
   2  -3   0   19.00    2.20
   2  -3   0   26.40    1.90
   2  -3   0   22.00    1.60
  -2   3   0   20.40    1.90
  -2   3   0   19.70    1.60
  -2   3   0   20.10    1.60
  -2   3   0   19.60    1.60
  -2   3   0   21.20    1.70
  -2   3   0   17.50    1.50
  -2   3   0   19.00    1.40
   1  -3   0  778.72   49.70
  -1   3   0  822.52   49.20
  -1   3   0  830.12   49.30
  -1   3   0  779.82   49.20
  -1   3   0  872.91   49.30
  -1   3   0  820.02   49.40
   0  -3   0 1224.38   87.29
   0  -3   0 1267.97   87.19
   0  -3   0 1541.95   87.09
   0  -3   0 1511.35   87.29
   0   3   0 1413.56   87.09
   0   3   0 1488.05   87.19
   0   3   0 1526.35   87.39
   0   3   0 1467.75   87.09
   0   3   0 1632.94   87.49
  -1  -3   0   16.10    1.50
  -1  -3   0   16.00    1.20
  -1  -3   0   15.90    1.10
  -1  -3   0   14.20    1.20
  -1  -3   0   14.80    1.30
   1   3   0   19.10    1.70
   1   3   0   19.60    1.20
   1   3   0   16.60    1.40
  -2  -3   0    0.60    0.30
  -2  -3   0    1.10    0.30
  -2  -3   0    1.00    0.20
  -2  -3   0    1.00    0.40
  -2  -3   0    0.70    0.30
   2   3   0    1.20    0.40
   2   3   0    0.30    0.60
   2   3   0    1.50    0.30
  -3  -3   0   38.30    2.90
  -3  -3   0   39.60    2.70
  -3  -3   0   40.50    2.50
  -3  -3   0   39.70    2.70
   3   3   0   40.60    2.60
   3   3   0   36.60    3.10
   3   3   0   40.60    2.60
  -4  -3   0   34.40    2.50
  -4  -3   0   36.20    2.50
  -4  -3   0   32.70    2.70
  -4  -3   0   36.60    2.30
   4   3   0   30.30    2.90
   4   3   0   33.90    2.30
  -5  -3   0   53.89    3.90
  -5  -3   0   55.59    3.80
  -5  -3   0   55.39    3.50
  -5  -3   0   55.59    3.60
  -5  -3   0   52.69    3.60
  -5  -3   0   52.89    3.60
   5   3   0   53.89    4.20
   5   3   0   50.79    3.50
  -6  -3   0    3.60    0.60
  -6  -3   0    4.00    0.80
  -6  -3   0    4.00    0.70
  -6  -3   0    4.20    0.80
  -6  -3   0    4.40    0.70
   6   3   0    4.40    1.20
   6   3   0    5.60    2.30
  -7  -3   0    0.10    0.40
  -7  -3   0   -0.10    0.50
  -7  -3   0    0.50    0.50
  -7  -3   0    0.30    0.40
  -7  -3   0    0.70    0.80
   7   3   0   -0.30    1.90
   7   3   0   -0.80    0.90
  -8  -3   0    5.90    0.80
  -8  -3   0    6.10    1.30
  -8  -3   0    2.60    0.60
  -8  -3   0    5.10    0.90
   8   3   0    7.70    3.00
   8   3   0    6.30    2.70
  -9  -3   0    0.80    1.00
   8  -4   0   -0.40    1.10
  -8   4   0    0.80    0.60
  -8   4   0    0.60    0.60
   7  -4   0    1.00    1.40
  -7   4   0    0.40    0.50
  -7   4   0    0.70    0.60
  -7   4   0    0.00    0.40
   6  -4   0    0.30    1.00
  -6   4   0    0.00    0.50
  -6   4   0    1.20    0.60
  -6   4   0    0.20    0.50
   5  -4   0    2.40    1.30
  -5   4   0    2.10    0.80
  -5   4   0    3.10    0.70
  -5   4   0    2.30    0.60
   4  -4   0   19.40    1.90
   4  -4   0   17.90    2.50
   4  -4   0   19.90    1.60
  -4   4   0   19.60    1.80
  -4   4   0   16.60    1.60
  -4   4   0   19.10    1.60
  -4   4   0   19.10    1.90
   3  -4   0   61.79    3.80
   3  -4   0   60.29    5.00
  -3   4   0   55.89    4.00
  -3   4   0   58.99    3.80
  -3   4   0   50.69    3.60
  -3   4   0   55.29    3.80
  -3   4   0   56.69    4.10
   2  -4   0    0.80    0.60
   2  -4   0    0.40    0.40
   2  -4   0    0.60    0.60
  -2   4   0    0.30    0.40
  -2   4   0    0.70    0.40
  -2   4   0    0.90    0.70
  -2   4   0    0.50    0.50
  -2   4   0    0.10    0.40
  -2   4   0    0.40    0.40
   1  -4   0  266.57   13.90
   1  -4   0  231.88   14.10
   1  -4   0  226.98   14.60
  -1   4   0  210.18   14.30
  -1   4   0  224.58   14.00
  -1   4   0  237.08   14.20
  -1   4   0  222.98   14.00
  -1   4   0  209.18   14.20
   0  -4   0  231.48   14.20
   0  -4   0  247.98   14.50
   0  -4   0  206.28   14.40
   0   4   0  219.88   14.20
   0   4   0  247.18   14.60
   0   4   0  231.18   14.10
   0   4   0  230.28   14.20
   0   4   0  255.47   14.60
  -1  -4   0   48.30    3.30
  -1  -4   0   48.80    3.20
  -1  -4   0   50.69    3.40
  -1  -4   0   54.69    3.70
  -1  -4   0   54.29    3.40
   1   4   0   53.69    3.60
   1   4   0   49.70    3.30
   1   4   0   49.40    3.80
  -2  -4   0  112.79    7.00
  -2  -4   0  112.59    6.90
  -2  -4   0  116.79    7.10
  -2  -4   0  106.29    7.10
   2   4   0  110.69    6.80
   2   4   0  108.09    7.50
   2   4   0  113.39    7.20
  -3  -4   0   25.70    2.10
  -3  -4   0   24.80    2.00
  -3  -4   0   27.30    1.90
  -3  -4   0   26.40    1.90
  -3  -4   0   24.50    1.60
   3   4   0   26.80    2.50
   3   4   0   26.40    2.00
   3   4   0   26.30    1.70
  -4  -4   0   46.40    3.50
  -4  -4   0   48.70    3.40
  -4  -4   0   49.90    3.30
   4   4   0   47.90    3.90
   4   4   0   49.30    3.10
  -5  -4   0    0.10    0.40
  -5  -4   0   -0.30    0.60
  -5  -4   0    0.30    0.40
   5   4   0    0.10    0.70
  -6  -4   0    6.60    0.90
  -6  -4   0    7.60    1.40
  -6  -4   0    5.80    1.00
   6   4   0    6.40    1.60
   6   4   0    7.60    2.80
  -7  -4   0    4.30    0.70
  -7  -4   0    3.60    1.20
  -7  -4   0    3.00    0.70
   7   4   0    6.50    2.70
   7   4   0    3.10    1.30
  -8  -4   0    0.30    0.40
  -8  -4   0   -0.80    0.90
  -8  -4   0    0.30    0.50
   8   4   0   -0.30    2.30
   8   4   0   -0.80    1.00
   8   4   0   -0.50    2.00
  -9  -4   0    3.90    0.70
   7  -5   0   -0.50    1.20
  -7   5   0    0.00    0.40
  -7   5   0    0.20    0.40
  -7   5   0   -0.30    0.60
   6  -5   0    5.60    2.00
  -6   5   0    7.00    1.00
  -6   5   0    3.80    1.00
  -6   5   0    2.10    0.70
   5  -5   0    0.20    1.00
   5  -5   0    0.00    0.50
  -5   5   0   -0.20    0.40
  -5   5   0   -0.50    0.40
  -5   5   0   -0.30    0.50
   4  -5   0   21.80    1.90
   4  -5   0   23.70    3.00
  -4   5   0   22.90    2.20
  -4   5   0   19.90    1.90
  -4   5   0   21.90    1.80
  -4   5   0   20.00    1.80
   3  -5   0    0.50    0.70
   3  -5   0    0.50    0.80
   3  -5   0    0.00    0.50
  -3   5   0   -0.10    0.50
  -3   5   0    0.60    0.70
  -3   5   0    0.10    0.40
  -3   5   0    0.20    0.40
   2  -5   0   63.29    4.10
   2  -5   0   66.39    5.00
  -2   5   0   63.89    4.00
  -2   5   0   55.69    4.40
  -2   5   0   57.69    4.00
  -2   5   0   55.09    4.10
  -2   5   0   57.39    4.00
  -2   5   0   59.09    4.20
   1  -5   0  197.78   12.20
   1  -5   0  228.88   12.00
   1  -5   0  209.08   12.70
  -1   5   0  193.48   12.00
  -1   5   0  176.48   12.40
  -1   5   0  188.28   12.20
  -1   5   0  181.98   12.30
  -1   5   0  183.58   12.10
   0  -5   0  231.98   15.10
   0  -5   0  249.38   15.00
   0  -5   0  256.07   15.40
   0  -5   0  242.48   15.30
   0   5   0  236.78   15.10
   0   5   0  251.27   14.90
   0   5   0  233.88   15.00
   0   5   0  266.47   15.60
   0   5   0  252.87   15.50
  -1  -5   0    0.10    0.20
  -1  -5   0    0.10    0.40
  -1  -5   0    0.10    0.30
  -1  -5   0   -0.10    0.50
  -1  -5   0    0.10    0.20
   1   5   0    0.00    0.70
   1   5   0    0.00    0.30
   1   5   0    0.50    0.60
  -2  -5   0    0.70    0.40
  -2  -5   0    1.30    0.30
  -2  -5   0    1.40    0.40
  -2  -5   0    1.30    0.30
   2   5   0    1.20    0.90
   2   5   0    1.20    0.60
   2   5   0    1.40    0.40
  -3  -5   0   15.70    1.50
  -3  -5   0   17.80    1.40
  -3  -5   0   16.90    1.60
  -3  -5   0   16.20    1.20
   3   5   0   18.70    1.60
   3   5   0   20.20    1.20
   3   5   0   13.30    1.90
  -4  -5   0    0.20    0.30
  -4  -5   0   -0.20    0.50
   4   5   0   -0.20    0.60
   4   5   0    0.80    0.80
  -5  -5   0    0.50    0.60
  -5  -5   0    1.20    0.50
  -5  -5   0    0.30    0.40
   5   5   0    0.50    0.90
  -6  -5   0    1.90    0.90
  -6  -5   0    3.10    0.70
  -6  -5   0    3.30    0.80
   6   5   0    4.40    2.50
   6   5   0    1.80    1.00
  -7  -5   0    5.00    0.90
  -7  -5   0    5.50    1.30
  -7  -5   0    5.60    0.90
   7   5   0    6.40    1.50
   7   5   0    7.60    3.80
  -8  -5   0    6.30    0.80
  -8  -5   0    6.30    1.30
  -8  -5   0    4.80    0.90
   8   5   0    7.20    2.80
   8   5   0    3.10    1.30
   7  -6   0    0.50    1.30
  -7   6   0    0.10    0.40
  -7   6   0   -0.70    0.50
   6  -6   0    2.00    1.40
  -6   6   0    1.10    0.70
  -6   6   0    0.50    0.50
  -6   6   0    1.90    0.60
   5  -6   0   11.10    1.30
   5  -6   0   15.40    2.80
  -5   6   0    7.30    1.30
  -5   6   0   10.30    1.20
  -5   6   0   10.40    1.30
   4  -6   0    5.80    1.80
   4  -6   0    6.10    0.90
  -4   6   0    4.80    0.90
  -4   6   0    6.10    0.90
  -4   6   0    3.90    1.00
  -4   6   0    3.50    1.10
   3  -6   0   35.90    2.60
   3  -6   0   38.50    3.70
  -3   6   0   32.60    3.00
  -3   6   0   33.70    2.50
  -3   6   0   31.90    2.50
  -3   6   0   32.50    2.70
   2  -6   0    0.80    0.70
   2  -6   0    0.50    0.50
   2  -6   0    0.20    0.30
   2  -6   0    0.40    0.70
  -2   6   0   -0.80    0.50
  -2   6   0    0.20    0.60
  -2   6   0    0.60    0.50
  -2   6   0    1.60    0.50
  -2   6   0    0.50    0.50
  -2   6   0   -0.30    0.80
   1  -6   0   96.79    6.50
   1  -6   0   98.89    5.80
   1  -6   0  103.39    6.20
   1  -6   0   93.99    6.00
  -1   6   0   80.39    6.30
  -1   6   0   82.39    6.20
  -1   6   0   85.59    5.90
  -1   6   0   84.99    6.00
  -1   6   0   87.19    5.80
   0  -6   0  140.39    9.60
   0  -6   0  155.78    9.50
   0  -6   0  161.48    9.90
   0  -6   0  153.88    9.80
   0   6   0  162.38   10.10
   0   6   0  146.59    9.50
   0   6   0  150.48    9.60
   0   6   0  156.48   10.00
  -1  -6   0   19.70    1.50
  -1  -6   0   16.80    1.30
  -1  -6   0   18.50    1.60
  -1  -6   0   20.20    1.50
  -1  -6   0   18.10    1.80
   1   6   0   19.80    1.90
   1   6   0   19.20    1.50
   1   6   0   16.50    1.40
   1   6   0   12.70    2.10
  -2  -6   0    3.70    0.50
  -2  -6   0    2.80    0.50
  -2  -6   0    2.50    0.60
  -2  -6   0    3.10    0.60
   2   6   0    2.70    0.90
   2   6   0    2.70    0.50
   2   6   0    2.40    1.00
  -3  -6   0   14.40    1.50
  -3  -6   0   15.20    1.30
  -3  -6   0   15.40    1.20
   3   6   0   16.30    1.60
   3   6   0   17.60    2.20
  -4  -6   0    2.20    0.60
  -4  -6   0    3.10    0.80
   4   6   0    1.80    1.00
   4   6   0    2.60    0.90
  -5  -6   0   -0.30    0.60
  -5  -6   0    0.00    0.40
   5   6   0    0.70    0.90
  -6  -6   0    2.10    0.60
  -6  -6   0    0.70    0.70
   6   6   0    2.60    2.50
   6   6   0    2.60    1.20
  -7  -6   0    0.60    0.90
  -7  -6   0    0.10    0.50
   7   6   0    2.00    1.20
   7   6   0    0.00    1.70
   8   6   0   -1.70    2.20
   8   6   0    1.20    1.10
   6  -7   0    0.60    1.30
  -6   7   0    0.10    0.50
  -6   7   0    1.00    0.70
  -6   7   0    0.30    0.50
   5  -7   0    3.70    0.80
   5  -7   0    4.10    1.70
  -5   7   0    2.10    0.60
  -5   7   0    2.00    0.80
  -5   7   0    2.80    0.70
   4  -7   0   -0.30    0.50
   4  -7   0    0.10    0.90
  -4   7   0    0.60    0.50
  -4   7   0    0.10    0.50
  -4   7   0    0.70    1.10
  -4   7   0    0.20    0.70
   3  -7   0   10.20    2.00
   3  -7   0   11.90    1.20
  -3   7   0   10.10    1.20
  -3   7   0   10.30    1.60
  -3   7   0    9.00    1.30
  -3   7   0   11.60    1.30
   2  -7   0   10.00    1.00
   2  -7   0    9.70    1.20
   2  -7   0   10.80    1.30
   2  -7   0   10.00    1.80
  -2   7   0    8.40    1.10
  -2   7   0    6.50    1.50
  -2   7   0    7.00    1.10
  -2   7   0    8.50    1.30
   1  -7   0    1.50    0.80
   1  -7   0    1.50    0.50
   1  -7   0    1.10    0.60
   1  -7   0    1.00    0.70
  -1   7   0    1.40    0.60
  -1   7   0    0.30    0.90
  -1   7   0    1.30    0.90
  -1   7   0    0.40    0.50
   0  -7   0   35.50    2.80
   0  -7   0   32.90    2.70
   0  -7   0   37.70    3.00
   0  -7   0   33.50    2.60
   0   7   0   37.50    3.20
   0   7   0   34.60    2.60
   0   7   0   36.40    2.70
   0   7   0   36.30    3.20
   0   7   0   41.40    4.00
  -1  -7   0   96.79    6.40
  -1  -7   0   99.89    6.20
  -1  -7   0  105.69    6.40
  -1  -7   0   95.69    6.70
   1   7   0  102.49    6.40
   1   7   0   97.79    7.10
   1   7   0  105.49    6.30
   1   7   0   91.99    6.80
  -2  -7   0    1.70    0.50
  -2  -7   0    2.10    0.50
  -2  -7   0    2.40    0.70
   2   7   0    1.50    1.00
   2   7   0    3.00    0.60
   2   7   0    2.20    0.90
  -3  -7   0   25.10    2.10
  -3  -7   0   24.60    1.70
  -3  -7   0   22.50    1.80
   3   7   0   26.60    2.30
   3   7   0   18.50    2.50
  -4  -7   0    2.80    0.80
  -4  -7   0    2.20    0.60
   4   7   0    3.30    1.20
   4   7   0    3.40    1.00
  -5  -7   0   -0.30    0.40
  -5  -7   0   -0.20    0.60
   5   7   0    0.40    1.00
   5   7   0    0.00    1.70
  -6  -7   0    1.30    0.80
  -6  -7   0    1.50    0.60
   6   7   0    2.30    2.30
   6   7   0    2.10    1.10
  -7  -7   0   -0.30    0.50
  -7  -7   0    0.90    0.80
   7   7   0    1.30    2.40
   7   7   0   -0.20    0.90
   5  -8   0    0.20    0.60
   5  -8   0    0.80    1.20
  -5   8   0   -0.10    0.60
  -5   8   0    0.20    0.50
   4  -8   0    0.00    1.00
   4  -8   0    0.40    0.60
  -4   8   0   -0.20    0.50
  -4   8   0   -0.50    0.70
   3  -8   0    1.10    1.00
   3  -8   0    0.20    0.50
  -3   8   0    0.00    0.90
  -3   8   0    0.90    0.60
  -3   8   0    0.40    0.70
   2  -8   0   23.70    2.60
   2  -8   0   23.50    1.80
  -2   8   0   14.30    2.10
  -2   8   0   20.30    1.90
  -2   8   0   16.60    1.90
  -2   8   0   18.30    1.70
   1  -8   0   70.69    5.10
   1  -8   0   66.59    4.70
   1  -8   0   68.49    4.40
   1  -8   0   70.39    4.60
  -1   8   0   61.69    4.90
  -1   8   0   63.59    4.40
  -1   8   0   62.49    4.60
   0  -8   0   27.20    2.10
   0  -8   0   25.30    2.00
   0  -8   0   21.90    2.30
   0   8   0   23.70    2.60
   0   8   0   25.80    2.00
   0   8   0   26.20    2.10
   0   8   0   23.80    2.50
  -1  -8   0   49.10    3.90
  -1  -8   0   55.39    3.60
  -1  -8   0   50.89    3.70
  -1  -8   0   54.49    3.50
   1   8   0   59.69    5.50
   1   8   0   50.19    4.10
   1   8   0   50.69    3.50
   1   8   0   50.29    4.30
  -2  -8   0    2.10    0.70
  -2  -8   0    1.80    0.50
  -2  -8   0    1.80    0.40
   2   8   0    1.00    1.00
   2   8   0    3.00    1.90
   2   8   0    0.00    0.80
  -3  -8   0    4.40    0.90
  -3  -8   0    6.40    0.80
  -3  -8   0    7.60    1.00
   3   8   0    7.00    1.60
   3   8   0    6.50    1.30
   3   8   0    7.50    2.50
  -4  -8   0    0.00    0.40
  -4  -8   0   -0.50    0.60
   4   8   0    0.50    0.80
   4   8   0   -0.20    0.90
   4   8   0   -1.90    1.60
  -5  -8   0    2.30    0.60
  -5  -8   0    2.70    0.80
   5   8   0    6.30    2.70
   5   8   0    1.40    1.10
  -6  -8   0    0.10    0.40
  -6  -8   0    0.20    0.70
   6   8   0    2.10    2.30
   6   8   0    1.20    1.10
   7   8   0   -0.40    0.90
   7   8   0    2.30    2.30
   4  -9   0    0.90    1.20
  -4   9   0    2.50    0.70
  -4   9   0    2.50    0.90
   3  -9   0    9.60    1.20
   3  -9   0   14.50    2.40
  -3   9   0    9.60    1.40
  -3   9   0   13.70    1.40
  -3   9   0    6.20    1.50
   2  -9   0    7.10    1.60
   2  -9   0    5.00    0.90
  -2   9   0    7.10    1.10
  -2   9   0    3.30    0.90
  -2   9   0    2.80    1.10
   1  -9   0   17.20    1.60
   1  -9   0   15.80    1.80
  -1   9   0   17.00    1.60
  -1   9   0   18.10    1.80
   0  -9   0    1.10    0.40
   0  -9   0    0.90    0.50
   0  -9   0    1.20    0.70
   0  -9   0    1.60    0.60
   0   9   0    2.40    1.10
   0   9   0    0.60    0.90
   0   9   0    0.60    0.50
  -1  -9   0    2.00    0.50
  -1  -9   0    1.80    0.70
  -1  -9   0    2.60    0.60
   1   9   0    1.00    0.80
   1   9   0    3.20    1.20
  -2  -9   0    0.20    0.30
  -2  -9   0    0.20    0.40
  -2  -9   0    0.80    0.70
   2   9   0    0.40    0.80
   2   9   0    0.30    1.90
   2   9   0   -0.30    0.90
  -3  -9   0    0.10    0.40
  -3  -9   0    0.20    0.60
   3   9   0    1.20    1.10
   3   9   0    1.40    1.20
   3   9   0    0.40    2.00
  -4  -9   0   -0.50    0.60
  -4  -9   0    0.50    0.40
   4   9   0    0.40    1.00
   4   9   0   -0.70    0.90
   4   9   0    1.60    2.10
  -5  -9   0    1.80    0.80
  -5  -9   0    0.90    0.50
   5   9   0    2.10    1.20
   5   9   0    4.30    2.90
   6   9   0    1.20    2.80
   6   9   0   -1.30    0.90
   2 -10   0    0.40    0.50
  -2  10   0   -0.40    0.70
  -2  10   0    0.20    0.70
   1 -10   0    0.30    0.50
  -1  10   0    0.60    0.70
  -1  10   0    0.40    0.90
  -1  10   0    0.10    0.60
   0 -10   0    0.10    0.30
   0 -10   0    0.00    0.70
   0 -10   0    0.40    0.50
   0  10   0   -0.50    0.80
  -1 -10   0    0.90    0.40
  -1 -10   0    0.90    0.50
  -1 -10   0    0.70    0.70
   1  10   0    1.20    1.10
   1  10   0    0.30    0.80
  -2 -10   0    0.30    0.40
  -2 -10   0    0.50    0.60
  -2 -10   0    0.20    0.40
   2  10   0    1.10    1.00
   2  10   0   -0.40    0.70
  -3 -10   0    1.10    0.70
  -3 -10   0    1.50    0.50
   3  10   0    1.60    1.20
   3  10   0    2.00    2.40
   3  10   0    0.80    1.10
  -4 -10   0    0.40    0.40
   4  10   0    0.30    1.20
   4  10   0   -0.60    1.00
   4  10   0   -0.40    2.20
   3  10  -1    6.80    3.00
   3  10  -1    1.00    0.90
   3  10  -1   -0.30    1.00
  -3 -10   1    2.50    0.70
  -3 -10   1    3.40    0.60
   2  10  -1    1.30    1.10
   2  10  -1    0.50    0.70
  -2 -10   1    0.00    0.30
  -2 -10   1    0.10    0.60
  -2 -10   1    0.00    0.40
   1  10  -1    0.10    0.90
  -1 -10   1    0.10    0.40
  -1 -10   1   -0.30    0.40
  -1 -10   1    0.40    0.60
   0  10  -1    2.70    1.00
   0 -10   1    2.90    0.70
   0 -10   1    2.50    0.50
   0 -10   1    2.90    0.80
   0 -10   1    2.50    0.70
  -1  10  -1   -0.60    0.80
  -1  10  -1   -0.30    0.50
   1 -10   1    0.60    0.70
   1 -10   1    0.40    0.50
   5   9  -1    0.80    0.90
   5   9  -1    4.20    3.00
  -5  -9   1    0.80    0.50
  -5  -9   1    0.90    0.60
   4   9  -1    0.70    1.00
   4   9  -1   -0.20    1.20
   4   9  -1    0.90    2.20
  -4  -9   1    0.10    0.40
  -4  -9   1    0.20    0.60
   3   9  -1    1.70    1.00
   3   9  -1    0.80    0.90
  -3  -9   1    1.20    0.70
  -3  -9   1    2.40    0.50
   2   9  -1    0.40    0.80
   2   9  -1    2.50    1.20
  -2  -9   1    1.90    0.50
  -2  -9   1    2.50    0.50
  -2  -9   1    1.60    0.70
   1   9  -1   -0.10    0.80
   1   9  -1    1.90    1.10
  -1  -9   1    0.60    0.60
  -1  -9   1    0.90    0.50
  -1  -9   1    0.70    0.60
  -1  -9   1    1.30    0.40
   0   9  -1    1.30    0.60
   0   9  -1   -0.30    0.70
   0   9  -1    0.50    0.70
   0  -9   1    0.30    0.70
   0  -9   1    1.10    0.50
   0  -9   1    0.30    0.50
   0  -9   1    1.00    0.40
  -1   9  -1   14.20    2.20
  -1   9  -1   20.70    1.90
  -1   9  -1   17.90    1.70
   1  -9   1   17.50    1.90
   1  -9   1   21.10    1.80
   1  -9   1   20.60    1.70
  -2   9  -1    4.50    0.90
  -2   9  -1    4.60    1.00
  -2   9  -1    7.80    1.10
  -2   9  -1    3.30    1.00
   2  -9   1    5.60    0.90
  -3   9  -1   35.70    2.60
  -3   9  -1   27.60    3.00
  -3   9  -1   26.50    2.50
   3  -9   1   31.80    2.50
   6   8  -1    3.40    2.80
   6   8  -1    0.90    1.00
  -6  -8   1    1.30    0.70
   5   8  -1    1.50    1.10
  -5  -8   1    0.90    0.70
  -5  -8   1    1.30    0.50
   4   8  -1   -0.40    1.00
  -4  -8   1   -0.40    0.30
  -4  -8   1   -0.30    0.60
   3   8  -1    0.80    0.90
   3   8  -1    0.50    0.90
  -3  -8   1    0.30    0.40
  -3  -8   1    0.50    0.60
   2   8  -1    1.00    1.00
   2   8  -1    0.30    0.80
  -2  -8   1    0.30    0.30
  -2  -8   1    0.20    0.30
  -2  -8   1    0.30    0.50
   1   8  -1   11.40    1.90
   1   8  -1    8.40    1.50
   1   8  -1   11.60    1.10
   1   8  -1   12.50    1.30
  -1  -8   1   11.60    1.40
  -1  -8   1   13.10    1.20
  -1  -8   1    9.70    1.20
  -1  -8   1   12.60    1.00
   0   8  -1   12.40    1.30
   0   8  -1   10.10    1.80
   0   8  -1   18.10    2.30
   0   8  -1   12.90    1.50
   0  -8   1   12.00    1.50
   0  -8   1   13.40    1.40
   0  -8   1   12.70    1.70
  -1   8  -1   87.49    6.00
  -1   8  -1   89.49    6.20
   1  -8   1   98.99    6.00
   1  -8   1   93.69    6.30
   1  -8   1   97.19    6.20
  -2   8  -1    0.20    0.90
  -2   8  -1    0.10    0.60
  -2   8  -1    0.60    0.70
  -2   8  -1    0.50    0.60
   2  -8   1    0.90    0.60
   2  -8   1    0.20    0.40
   2  -8   1    0.70    0.80
   2  -8   1    0.40    0.60
  -3   8  -1    4.50    0.90
  -3   8  -1    7.00    1.10
  -3   8  -1    4.00    1.00
  -3   8  -1    3.50    1.20
   3  -8   1    6.10    1.70
   3  -8   1    5.30    0.90
  -4   8  -1    5.00    1.00
  -4   8  -1    3.70    1.40
  -4   8  -1    6.40    1.00
   4  -8   1    4.80    1.80
   4  -8   1    5.60    1.00
  -5   8  -1   -0.30    0.50
  -5   8  -1   -0.80    0.60
   5  -8   1   -0.20    1.10
   5  -8   1    0.90    0.60
   7   7  -1    0.40    1.00
   7   7  -1    0.60    2.80
  -7  -7   1    0.40    0.80
   6   7  -1    0.10    1.00
  -6  -7   1    0.80    0.70
  -6  -7   1   -0.10    0.50
   5   7  -1    0.60    1.00
  -5  -7   1    0.10    0.60
  -5  -7   1    0.20    0.40
   4   7  -1    1.80    1.10
  -4  -7   1    0.60    0.40
  -4  -7   1    1.30    0.70
   3   7  -1   -0.10    0.90
   3   7  -1   -0.10    0.70
  -3  -7   1    0.40    0.50
  -3  -7   1    0.50    0.30
   2   7  -1    8.80    1.70
   2   7  -1    8.70    0.90
   2   7  -1    9.10    1.40
  -2  -7   1    6.80    1.10
  -2  -7   1    6.90    1.00
  -2  -7   1    7.90    0.80
  -2  -7   1    7.40    0.80
   1   7  -1    0.10    0.50
   1   7  -1    0.80    0.90
   1   7  -1    0.10    0.80
   1   7  -1    0.10    0.40
  -1  -7   1    0.20    0.40
  -1  -7   1    0.30    0.30
  -1  -7   1   -0.30    0.60
  -1  -7   1   -0.10    0.40
   0   7  -1   45.70    3.70
   0   7  -1   49.20    3.30
   0   7  -1   45.00    3.80
   0   7  -1   47.20    3.20
   0  -7   1   45.40    3.20
   0  -7   1   48.50    3.40
   0  -7   1   46.90    3.60
  -1   7  -1   13.30    1.80
  -1   7  -1   14.60    1.40
  -1   7  -1   13.70    1.50
  -1   7  -1   11.70    1.70
   1  -7   1   13.80    1.80
   1  -7   1   18.00    1.70
   1  -7   1   16.20    1.30
   1  -7   1   15.30    1.40
  -2   7  -1   16.00    2.10
  -2   7  -1   15.50    1.70
  -2   7  -1   16.60    1.60
  -2   7  -1   18.20    1.80
   2  -7   1   17.20    1.70
   2  -7   1   19.20    1.50
   2  -7   1   19.80    2.40
   2  -7   1   19.70    1.80
  -3   7  -1    0.80    0.90
  -3   7  -1   -0.10    0.60
  -3   7  -1    0.30    0.60
  -3   7  -1    0.10    0.60
   3  -7   1    0.70    0.60
   3  -7   1    0.40    0.40
   3  -7   1    0.00    0.80
   3  -7   1    0.90    0.70
  -4   7  -1    6.70    1.00
  -4   7  -1    4.90    0.80
  -4   7  -1    4.30    1.20
  -4   7  -1    5.40    1.00
   4  -7   1    6.20    1.90
   4  -7   1    4.90    0.90
  -5   7  -1    8.80    1.10
  -5   7  -1    6.90    1.00
  -5   7  -1    8.10    1.30
   5  -7   1   11.40    2.60
   5  -7   1    8.00    1.20
  -6   7  -1    0.70    0.50
  -6   7  -1    0.20    0.70
  -6   7  -1   -0.20    0.50
   6  -7   1    0.10    1.20
   8   6  -1    1.70    2.30
   8   6  -1    0.40    1.00
   7   6  -1    1.00    1.10
   7   6  -1   -1.00    2.20
  -7  -6   1    0.90    0.90
  -7  -6   1   -0.10    0.40
   6   6  -1    2.70    1.20
  -6  -6   1    1.50    0.80
  -6  -6   1    1.70    0.60
  -6  -6   1    2.00    0.60
   5   6  -1    3.90    1.30
  -5  -6   1    3.60    0.70
  -5  -6   1    2.50    0.70
  -5  -6   1    3.10    0.90
   4   6  -1    3.50    1.20
  -4  -6   1    2.40    0.60
  -4  -6   1    4.70    0.90
   3   6  -1   34.30    3.20
   3   6  -1   31.70    2.20
   3   6  -1   33.60    2.60
  -3  -6   1   32.00    2.10
  -3  -6   1   32.40    2.30
  -3  -6   1   32.10    2.50
   2   6  -1   12.50    1.90
   2   6  -1   13.20    1.60
   2   6  -1   12.90    1.10
  -2  -6   1   10.10    1.30
  -2  -6   1   12.30    1.20
  -2  -6   1   11.10    1.00
  -2  -6   1   13.40    1.10
   1   6  -1   11.30    1.70
   1   6  -1   13.80    1.20
   1   6  -1   13.90    1.70
  -1  -6   1   12.50    1.00
  -1  -6   1   12.90    1.20
  -1  -6   1   13.60    1.20
  -1  -6   1   13.30    1.40
   0   6  -1    0.60    0.80
   0   6  -1    0.90    0.40
   0   6  -1    0.00    0.60
   0   6  -1   -0.10    0.50
   0  -6   1    0.40    0.40
   0  -6   1    0.30    0.60
   0  -6   1    0.40    0.40
   0  -6   1    0.40    0.50
  -1   6  -1   31.70    2.50
  -1   6  -1   31.20    2.80
  -1   6  -1   32.20    2.90
  -1   6  -1   32.00    2.60
   1  -6   1   33.20    2.60
   1  -6   1   40.60    2.80
   1  -6   1   36.20    3.00
   1  -6   1   36.60    2.40
  -2   6  -1   28.30    2.10
  -2   6  -1   26.60    2.30
  -2   6  -1   26.10    2.20
  -2   6  -1   27.00    2.60
   2  -6   1   32.40    3.10
   2  -6   1   33.40    2.10
   2  -6   1   29.20    2.30
  -3   6  -1   20.30    1.80
  -3   6  -1   21.90    1.80
  -3   6  -1   20.00    1.90
  -3   6  -1   17.80    2.20
  -3   6  -1   21.10    1.70
   3  -6   1   21.90    1.90
   3  -6   1   24.80    2.90
  -4   6  -1    0.40    0.50
  -4   6  -1    0.40    0.80
  -4   6  -1   -0.10    0.40
  -4   6  -1    0.40    0.60
   4  -6   1    0.00    0.50
   4  -6   1    0.10    0.90
  -5   6  -1    2.60    0.60
  -5   6  -1    4.90    1.00
  -5   6  -1    1.80    0.60
   5  -6   1    2.10    0.70
   5  -6   1    2.20    1.40
  -6   6  -1    0.20    0.50
  -6   6  -1    0.10    0.40
  -6   6  -1   -0.90    0.40
   6  -6   1   -0.50    0.90
   8   5  -1    0.20    1.10
   8   5  -1    1.90    2.50
  -8  -5   1    0.80    0.50
  -8  -5   1    1.70    1.00
   7   5  -1   15.00    3.50
   7   5  -1   13.70    2.20
  -7  -5   1   13.80    1.30
  -7  -5   1   11.50    1.60
   6   5  -1    6.80    1.60
  -6  -5   1    8.90    1.10
  -6  -5   1    8.90    1.40
  -6  -5   1    8.20    1.10
   5   5  -1   15.10    2.10
  -5  -5   1   16.50    1.50
  -5  -5   1   16.70    1.90
  -5  -5   1   17.90    1.60
   4   5  -1    1.30    0.40
   4   5  -1    0.90    0.90
  -4  -5   1    2.10    0.70
  -4  -5   1    0.10    0.40
  -4  -5   1    2.20    0.50
   3   5  -1   19.60    2.40
   3   5  -1   20.70    1.40
   3   5  -1   18.10    1.70
  -3  -5   1   19.70    1.60
  -3  -5   1   19.90    1.40
  -3  -5   1   19.70    1.60
  -3  -5   1   18.30    1.70
   2   5  -1   27.10    1.90
   2   5  -1   26.40    2.60
   2   5  -1   28.40    2.30
  -2  -5   1   27.70    1.90
  -2  -5   1   29.10    2.10
  -2  -5   1   27.00    1.90
  -2  -5   1   23.60    2.20
   1   5  -1   22.50    1.60
   1   5  -1   20.10    1.90
   1   5  -1   19.40    2.20
  -1  -5   1   19.50    1.70
  -1  -5   1   21.30    1.70
  -1  -5   1   22.10    2.00
  -1  -5   1   22.10    1.60
  -1  -5   1   21.30    1.50
   0   5  -1  104.39    6.40
   0   5  -1  109.29    6.90
   0   5  -1  102.59    6.30
   0   5  -1  108.29    6.80
   0   5  -1  103.79    6.50
   0  -5   1  102.99    6.40
   0  -5   1  109.59    6.70
   0  -5   1   90.09    6.50
   0  -5   1   91.19    6.60
  -1   5  -1   -0.40    0.30
  -1   5  -1   -0.20    0.40
  -1   5  -1    0.60    0.60
  -1   5  -1    0.60    0.60
  -1   5  -1   -0.60    0.30
   1  -5   1    0.40    0.30
   1  -5   1    0.20    0.50
   1  -5   1   -0.10    0.40
   1  -5   1   -0.50    0.50
  -2   5  -1    1.10    0.50
  -2   5  -1    0.70    0.60
  -2   5  -1    0.10    0.40
  -2   5  -1    1.10    0.60
  -2   5  -1    0.70    0.80
   2  -5   1    0.30    0.60
   2  -5   1    2.10    0.80
   2  -5   1    0.80    0.50
  -3   5  -1   -0.60    0.70
  -3   5  -1    0.20    0.50
  -3   5  -1    0.10    0.50
  -3   5  -1   -0.10    0.50
  -3   5  -1   -0.10    0.40
   3  -5   1    0.20    0.70
   3  -5   1    0.40    0.70
   3  -5   1    0.10    0.50
  -4   5  -1   13.10    1.40
  -4   5  -1   13.80    1.60
  -4   5  -1   12.50    1.70
  -4   5  -1   13.40    1.30
   4  -5   1   17.30    1.70
   4  -5   1   11.10    2.30
   4  -5   1   12.40    1.30
  -5   5  -1    3.00    0.90
  -5   5  -1    2.60    0.70
  -5   5  -1    3.80    0.70
   5  -5   1    2.10    1.30
   5  -5   1    2.20    0.70
  -6   5  -1    5.10    0.80
  -6   5  -1    4.10    1.00
  -6   5  -1    5.40    1.00
   6  -5   1    6.00    2.10
  -7   5  -1    0.00    0.50
  -7   5  -1   -0.30    0.50
   7  -5   1    0.10    1.30
   8   4  -1    8.80    1.90
   8   4  -1   14.60    3.60
  -8  -4   1    8.70    1.00
  -8  -4   1    9.40    1.50
   7   4  -1   23.40    4.20
   7   4  -1   21.10    2.80
  -7  -4   1   21.50    2.30
  -7  -4   1   20.60    1.90
  -7  -4   1   18.90    1.80
   6   4  -1   18.00    2.30
  -6  -4   1   15.10    1.80
  -6  -4   1   15.80    1.50
  -6  -4   1   14.20    1.40
   5   4  -1    2.80    1.10
   5   4  -1    1.70    0.40
  -5  -4   1    1.50    0.70
  -5  -4   1    1.20    0.50
  -5  -4   1    0.80    0.50
   4   4  -1    3.80    0.50
   4   4  -1    5.70    1.20
  -4  -4   1    4.60    0.70
  -4  -4   1    4.40    0.90
  -4  -4   1    5.40    0.80
   3   4  -1   33.60    2.40
   3   4  -1   32.30    2.90
   3   4  -1   35.70    2.30
  -3  -4   1   35.90    2.40
  -3  -4   1   32.20    2.50
  -3  -4   1   35.70    2.50
   2   4  -1    3.10    1.00
   2   4  -1    5.00    0.50
   2   4  -1    4.80    0.80
  -2  -4   1    4.20    0.60
  -2  -4   1    3.90    0.50
  -2  -4   1    4.10    0.80
  -2  -4   1    5.00    0.60
  -2  -4   1    4.00    0.70
  -2  -4   1    4.20    0.60
   1   4  -1  829.42   51.39
   1   4  -1  855.41   51.09
   1   4  -1  916.91   50.69
   1   4  -1  804.32   50.79
  -1  -4   1  879.71   50.89
  -1  -4   1  819.52   50.89
  -1  -4   1  792.32   50.79
  -1  -4   1  860.81   50.79
   0   4  -1   87.59    5.50
   0   4  -1   93.19    6.00
   0   4  -1   85.49    5.60
   0   4  -1   94.69    5.90
   0  -4   1   87.99    5.50
   0  -4   1   75.29    5.70
   0  -4   1  102.49    5.90
  -1   4  -1   71.39    4.60
  -1   4  -1   72.49    4.70
  -1   4  -1   75.39    4.80
  -1   4  -1   71.69    4.90
  -1   4  -1   71.69    4.90
   1  -4   1   74.89    5.30
   1  -4   1   72.69    4.70
  -2   4  -1   74.99    5.00
  -2   4  -1   78.59    4.80
  -2   4  -1   71.49    4.70
  -2   4  -1   71.39    4.70
  -2   4  -1   76.79    4.90
  -2   4  -1   68.89    4.80
   2  -4   1   72.99    4.80
   2  -4   1   70.99    5.60
  -3   4  -1    5.00    0.80
  -3   4  -1    6.10    1.00
  -3   4  -1    4.80    0.70
  -3   4  -1    5.30    0.90
  -3   4  -1    4.10    0.70
   3  -4   1    5.50    1.50
   3  -4   1    4.70    1.00
   3  -4   1    8.10    0.90
  -4   4  -1    7.30    1.00
  -4   4  -1    5.90    1.10
  -4   4  -1    7.90    1.20
  -4   4  -1    7.20    0.90
   4  -4   1    4.80    1.50
   4  -4   1    8.50    1.10
   4  -4   1    6.00    1.30
  -5   4  -1   15.20    1.40
  -5   4  -1   10.40    1.20
  -5   4  -1   10.70    1.50
   5  -4   1   11.00    2.50
   5  -4   1   11.80    1.30
  -6   4  -1   -0.30    0.40
  -6   4  -1   -0.10    0.50
  -6   4  -1   -0.50    0.40
   6  -4   1   -0.30    1.00
  -7   4  -1   -0.40    0.50
  -7   4  -1    0.00    0.50
  -7   4  -1    0.20    0.50
   7  -4   1    0.20    1.20
  -8   4  -1   -0.20    0.60
  -8   4  -1    0.10    0.40
   8  -4   1    1.20    1.80
  -9  -3   1    2.80    0.60
   8   3  -1    5.70    2.80
   8   3  -1    3.30    1.40
  -8  -3   1    2.20    0.50
  -8  -3   1    1.90    0.60
  -8  -3   1    3.40    1.10
   7   3  -1   -1.10    0.80
   7   3  -1    1.60    2.20
  -7  -3   1    1.50    0.50
  -7  -3   1    1.70    0.60
  -7  -3   1    1.80    0.90
  -7  -3   1    0.40    0.40
  -7  -3   1    1.30    0.60
   6   3  -1    3.40    0.60
   6   3  -1    4.50    1.30
  -6  -3   1    3.40    0.70
  -6  -3   1    2.80    0.70
  -6  -3   1    3.50    0.70
  -6  -3   1    4.10    0.80
  -6  -3   1    2.90    0.60
  -6  -3   1    2.90    0.90
   5   3  -1    1.00    0.40
   5   3  -1    0.00    0.70
  -5  -3   1    0.60    0.40
  -5  -3   1    0.80    0.40
  -5  -3   1    0.80    0.50
  -5  -3   1    1.30    0.70
  -5  -3   1    1.20    0.50
   4   3  -1   17.40    2.10
   4   3  -1   17.90    1.40
  -4  -3   1   17.70    1.50
  -4  -3   1   17.20    1.70
  -4  -3   1   18.20    1.30
  -4  -3   1   17.70    1.50
  -4  -3   1   17.90    1.50
   3   3  -1  559.24   32.60
   3   3  -1  526.05   33.20
   3   3  -1  537.15   32.60
  -3  -3   1  547.45   32.70
  -3  -3   1  516.95   32.80
  -3  -3   1  556.84   32.80
   2   3  -1  291.87   18.10
   2   3  -1  295.07   17.70
   2   3  -1  317.17   17.60
  -2  -3   1  294.97   17.80
  -2  -3   1  300.57   17.70
  -2  -3   1  263.67   17.60
  -2  -3   1  304.87   17.70
  -2  -3   1  272.67   17.90
  -2  -3   1  277.27   17.50
   1   3  -1   34.10    2.80
   1   3  -1   34.40    2.50
  -1  -3   1   36.80    2.40
  -1  -3   1   34.60    2.30
  -1  -3   1   37.60    2.30
  -1  -3   1   33.50    2.40
  -1  -3   1   35.00    2.40
   0   3  -1    2.80    0.70
   0   3  -1    2.40    0.40
   0   3  -1    2.30    0.40
   0   3  -1    2.80    0.60
   0  -3   1    3.10    0.60
   0  -3   1    2.00    0.50
   0  -3   1    2.40    0.50
   0  -3   1    2.90    0.40
  -1   3  -1  146.79    9.30
  -1   3  -1  156.08    9.20
  -1   3  -1  161.78    9.10
  -1   3  -1  151.88    9.20
   1  -3   1  138.99    9.60
   1  -3   1  129.99    9.20
  -2   3  -1   21.50    1.70
  -2   3  -1   24.00    1.90
  -2   3  -1   24.20    1.70
  -2   3  -1   23.60    1.70
  -2   3  -1   23.60    1.90
  -2   3  -1   21.70    1.70
   2  -3   1   20.20    2.30
   2  -3   1   24.90    2.10
   2  -3   1   21.90    1.80
  -3   3  -1    0.90    0.20
  -3   3  -1    0.50    0.50
  -3   3  -1    0.70    0.20
  -3   3  -1    0.90    0.40
  -3   3  -1    0.60    0.40
  -3   3  -1    1.30    0.60
  -3   3  -1    0.50    0.60
   3  -3   1    0.40    0.50
   3  -3   1    0.40    0.70
   3  -3   1   -0.60    0.60
  -4   3  -1   65.69    4.40
  -4   3  -1   70.79    4.40
  -4   3  -1   62.99    4.30
  -4   3  -1   62.39    4.20
   4  -3   1   58.29    4.80
   4  -3   1   58.09    5.40
   4  -3   1   67.59    4.30
  -5   3  -1    0.30    0.40
  -5   3  -1    0.00    0.60
  -5   3  -1    0.70    0.60
   5  -3   1   -0.50    0.70
   5  -3   1    0.50    0.90
  -6   3  -1   46.80    3.30
  -6   3  -1   39.20    3.10
  -6   3  -1   42.70    3.10
   6  -3   1   45.40    4.80
  -7   3  -1    0.40    0.60
  -7   3  -1    2.00    0.70
   7  -3   1    1.20    1.50
  -8   3  -1    0.10    0.50
  -8   3  -1   -0.40    0.50
   8  -3   1   -0.30    1.30
  -8  -2   1    2.50    0.60
  -8  -2   1    1.80    0.50
  -8  -2   1    2.40    0.70
  -8  -2   1    2.00    0.60
   7   2  -1    3.90    0.70
   7   2  -1    3.10    1.30
   7   2  -1    4.40    2.40
  -7  -2   1    3.10    0.80
  -7  -2   1    5.00    0.80
  -7  -2   1    3.10    0.70
  -7  -2   1    2.50    0.60
  -7  -2   1    3.30    1.00
  -7  -2   1    3.50    0.70
   6   2  -1   -0.10    0.80
   6   2  -1   -0.10    0.30
  -6  -2   1    0.00    0.50
  -6  -2   1   -0.20    0.60
  -6  -2   1    0.00    0.30
  -6  -2   1   -0.10    0.40
  -6  -2   1    0.00    0.40
  -6  -2   1    0.10    0.30
   5   2  -1   14.40    1.20
   5   2  -1   12.00    1.70
   5   2  -1   11.20    1.90
  -5  -2   1   12.30    1.20
  -5  -2   1   12.50    1.10
  -5  -2   1   14.00    1.30
  -5  -2   1   13.60    1.30
  -5  -2   1   14.70    1.60
  -5  -2   1   13.20    1.20
   4   2  -1  366.06   22.30
  -4  -2   1  370.06   22.30
  -4  -2   1  341.37   22.50
  -4  -2   1  380.36   22.40
  -4  -2   1  369.66   22.40
  -4  -2   1  373.06   22.40
  -4  -2   1  369.86   22.40
   3   2  -1    1.10    0.20
   3   2  -1    1.40    0.40
  -3  -2   1    1.60    0.40
  -3  -2   1    1.90    0.50
  -3  -2   1    1.50    0.60
  -3  -2   1    1.10    0.40
  -3  -2   1    1.40    0.40
  -3  -2   1    1.70    0.40
   2   2  -1    0.20    0.20
   2   2  -1    0.00    0.20
   2   2  -1   -0.40    0.40
  -2  -2   1   -0.10    0.20
  -2  -2   1    0.10    0.10
  -2  -2   1    0.00    0.30
  -2  -2   1   -0.20    0.30
  -2  -2   1   -0.10    0.30
   1   2  -1  360.36   22.40
   1   2  -1  374.06   22.50
   1   2  -1  352.86   22.70
  -1  -2   1  371.86   22.50
  -1  -2   1  378.56   22.40
  -1  -2   1  396.86   22.40
  -1  -2   1  365.06   22.50
   0   2  -1 3707.93  228.08
   0   2  -1 4229.68  228.18
   0   2  -1 3581.64  227.88
   0   2  -1 3788.62  227.98
   0  -2   1 4126.59  227.98
   0  -2   1 3312.77  228.38
   0  -2   1 3872.01  227.88
  -1   2  -1  783.62   45.20
  -1   2  -1  761.42   45.30
  -1   2  -1  748.63   45.20
  -1   2  -1  753.82   45.30
  -1   2  -1  760.32   45.20
   1  -2   1  814.12   45.30
   1  -2   1  639.04   45.40
  -2   2  -1  510.55   34.20
  -2   2  -1  567.74   34.30
  -2   2  -1  592.54   34.60
  -2   2  -1  606.94   34.50
  -2   2  -1  613.24   34.60
  -2   2  -1  562.14   34.50
  -2   2  -1  556.04   34.40
   2  -2   1  634.74   34.60
   2  -2   1  496.05   34.80
  -3   2  -1   23.60    1.80
  -3   2  -1   21.30    1.70
  -3   2  -1   20.90    1.40
  -3   2  -1   20.10    1.50
  -3   2  -1   21.80    1.70
   3  -2   1   20.40    2.10
   3  -2   1   17.30    2.20
   3  -2   1   18.80    1.50
   3  -2   1   23.40    1.70
  -4   2  -1 1250.67   73.29
  -4   2  -1 1224.28   72.99
  -4   2  -1 1369.76   73.19
  -4   2  -1 1295.27   73.39
  -4   2  -1 1146.59   73.09
   4  -2   1 1123.99   73.89
   4  -2   1 1031.60   74.29
   4  -2   1 1281.67   73.19
  -5   2  -1   -0.10    0.50
  -5   2  -1    0.40    0.60
  -5   2  -1   -0.20    0.40
   5  -2   1   -0.10    0.80
   5  -2   1    0.60    1.10
  -6   2  -1   13.90    1.60
  -6   2  -1   12.30    1.30
  -6   2  -1   13.60    1.60
   6  -2   1   12.70    2.60
  -7   2  -1    0.90    0.40
  -7   2  -1    1.00    0.60
  -7   2  -1    0.90    0.60
   7  -2   1    1.40    1.40
  -8   2  -1   -0.60    0.40
  -8   2  -1    0.20    0.40
   8  -2   1    0.80    1.40
  -9  -1   1    0.50    0.40
  -9  -1   1    0.00    0.50
   8   1  -1    0.50    0.50
  -8  -1   1    0.70    0.50
  -8  -1   1    0.70    0.40
  -8  -1   1    1.10    0.50
  -8  -1   1    0.80    0.60
   7   1  -1    5.60    0.80
   7   1  -1    6.20    1.40
   7   1  -1    5.80    1.70
  -7  -1   1    5.10    0.80
  -7  -1   1    4.90    0.80
  -7  -1   1    4.60    0.90
  -7  -1   1    5.30    0.80
  -7  -1   1    4.80    1.10
  -7  -1   1    5.00    0.90
   6   1  -1   10.60    2.60
   6   1  -1   10.00    1.10
   6   1  -1   10.00    2.10
   6   1  -1   11.10    2.60
  -6  -1   1   13.40    1.60
  -6  -1   1    9.00    1.10
  -6  -1   1    9.80    1.30
  -6  -1   1   10.60    1.20
  -6  -1   1   10.10    1.20
  -6  -1   1   10.10    1.10
   5   1  -1    3.40    0.60
   5   1  -1    3.50    1.20
  -5  -1   1    4.10    0.70
  -5  -1   1    3.60    0.70
  -5  -1   1    4.90    1.00
  -5  -1   1    3.60    0.70
  -5  -1   1    4.80    0.70
  -5  -1   1    3.90    0.70
   4   1  -1    0.50    0.60
   4   1  -1    0.20    0.30
  -4  -1   1   -0.20    0.30
  -4  -1   1    0.10    0.40
  -4  -1   1    0.30    0.30
  -4  -1   1   -0.10    0.30
  -4  -1   1    0.60    0.40
  -4  -1   1    0.40    0.50
   3   1  -1   97.29    6.00
  -3  -1   1   98.49    6.00
  -3  -1   1   90.39    5.90
  -3  -1   1   91.19    6.10
  -3  -1   1   95.09    6.00
  -3  -1   1   95.49    5.90
   2   1  -1  376.86   21.70
  -2  -1   1  356.96   21.70
  -2  -1   1  369.06   21.70
  -2  -1   1  346.27   21.70
  -2  -1   1  346.57   21.60
  -2  -1   1  345.27   21.70
  -2  -1   1  367.66   21.70
   1   1  -1  304.57   18.20
   1   1  -1  311.27   18.20
  -1  -1   1  274.47   18.20
  -1  -1   1  292.77   18.30
  -1  -1   1  304.67   18.30
  -1  -1   1  314.57   18.20
  -1  -1   1  309.67   18.30
   0   1  -1    0.20    0.10
   0   1  -1    0.20    0.20
   0  -1   1    0.50    0.30
   0  -1   1    0.80    0.30
   0  -1   1    0.40    0.20
   0  -1   1    1.30    0.20
  -1   1  -1    4.60    0.50
  -1   1  -1    4.90    0.60
  -1   1  -1    4.60    0.50
  -1   1  -1    5.00    0.60
   1  -1   1    4.60    0.70
   1  -1   1    3.60    0.80
  -2   1  -1 8978.50  550.34
  -2   1  -1 9045.09  550.34
  -2   1  -1 9483.95  550.84
  -2   1  -1 9574.34  550.04
  -2   1  -1 9336.47  550.44
   2  -1   1 9999.00  550.74
   2  -1   1 7910.11  551.34
   2  -1   1 9095.59  550.54
  -3   1  -1   81.49    5.20
  -3   1  -1   79.79    5.10
  -3   1  -1   77.49    5.20
  -3   1  -1   85.09    5.10
  -3   1  -1   81.89    5.30
  -3   1  -1   84.69    5.40
   3  -1   1   81.49    6.00
   3  -1   1   82.09    5.30
   3  -1   1   86.59    5.60
  -4   1  -1  888.01   52.19
  -4   1  -1  926.91   52.49
  -4   1  -1  848.82   52.39
  -4   1  -1  907.81   52.49
  -4   1  -1  827.72   52.29
   4  -1   1  880.21   52.39
   4  -1   1  798.02   53.19
   4  -1   1  870.31   52.89
  -5   1  -1   29.90    2.20
  -5   1  -1   29.00    2.20
  -5   1  -1   30.50    2.30
  -5   1  -1   31.80    2.00
  -5   1  -1   26.20    2.00
   5  -1   1   22.70    3.00
   5  -1   1   27.10    3.20
  -6   1  -1    3.50    0.80
  -6   1  -1    2.80    0.60
  -6   1  -1    2.40    0.70
   6  -1   1    3.10    1.40
   6  -1   1    0.80    1.30
  -7   1  -1    0.00    0.40
  -7   1  -1    0.40    0.40
  -7   1  -1    0.60    0.50
   7  -1   1    0.10    1.20
  -8   1  -1    0.10    0.50
  -8   1  -1    0.40    0.60
   8  -1   1   -0.60    1.10
  -9   1  -1    0.00    0.50
  -9   1  -1    0.90    0.60
   9  -1   1    0.70    1.80
  -9   0   1    0.00    0.40
  -9   0   1    0.50    0.50
   8   0  -1    0.30    0.40
   8   0  -1   -0.70    0.80
  -8   0   1   -0.10    0.40
  -8   0   1   -0.10    0.30
  -8   0   1    0.70    0.50
   7   0  -1    4.70    1.60
  -7   0   1    5.90    0.90
  -7   0   1    6.30    0.80
  -7   0   1    3.80    0.70
  -7   0   1    5.80    1.00
  -7   0   1    5.90    0.80
   6   0  -1   -0.40    0.70
  -6   0   1    0.60    0.60
  -6   0   1    0.30    0.50
  -6   0   1    0.00    0.40
  -6   0   1    0.20    0.40
  -6   0   1    0.10    0.30
  -6   0   1    0.80    0.50
   5   0  -1    0.20    1.20
   5   0  -1    0.80    0.80
  -5   0   1    0.40    0.40
  -5   0   1    0.60    0.40
  -5   0   1    0.80    0.50
  -5   0   1    0.50    0.60
  -5   0   1    0.60    0.40
  -5   0   1    0.40    0.40
   4   0  -1   10.10    2.10
   4   0  -1    9.60    1.70
  -4   0   1    9.80    1.20
  -4   0   1   11.80    1.10
  -4   0   1   10.10    1.00
  -4   0   1    9.70    1.20
  -4   0   1   10.50    1.20
  -3   0   1   42.90    2.80
  -3   0   1   43.60    2.80
  -3   0   1   43.40    2.90
  -3   0   1   42.20    2.90
  -3   0   1   42.30    2.80
  -3   0   1   39.40    2.80
   2   0  -1   24.10    2.30
  -2   0   1   31.00    2.10
  -2   0   1   31.00    2.00
  -2   0   1   29.30    1.90
  -2   0   1   28.30    2.00
  -2   0   1   30.40    2.00
  -2   0   1   29.90    2.00
   1   0  -1  138.69    7.80
  -1   0   1  137.09    7.80
  -1   0   1  103.69    7.80
  -1   0   1  122.59    7.80
  -1   0   1  134.69    7.70
  -1   0  -1  860.41   52.39
  -1   0  -1  874.71   52.39
  -1   0  -1  874.51   52.39
   1   0   1  838.82   52.79
  -2   0  -1 7633.24  430.46
  -2   0  -1 7576.24  430.46
  -2   0  -1 7452.25  430.16
  -2   0  -1 7718.63  430.86
  -2   0  -1 7106.99  430.26
  -2   0  -1 6750.72  430.96
   2   0   1 6275.37  430.46
   2   0   1 7372.76  430.36
   2   0   1 6711.63  430.56
  -3   0  -1   22.10    1.90
  -3   0  -1   21.60    1.80
  -3   0  -1   23.70    1.60
  -3   0  -1   25.40    1.80
  -3   0  -1   22.80    1.80
  -3   0  -1   23.40    1.60
   3   0   1   19.40    2.50
   3   0   1   23.20    1.70
   3   0   1   23.20    2.30
  -4   0  -1   67.49    4.50
  -4   0  -1   66.59    4.30
  -4   0  -1   64.29    4.40
  -4   0  -1   67.29    4.50
  -4   0  -1   66.29    4.20
  -4   0  -1   71.09    4.50
   4   0   1   64.79    5.10
   4   0   1   61.59    5.40
   4   0   1   66.09    4.40
  -5   0  -1   -0.40    0.40
  -5   0  -1    0.00    0.20
  -5   0  -1    0.00    0.30
  -5   0  -1    0.20    0.40
  -5   0  -1   -0.40    0.30
  -5   0  -1   -0.10    0.50
   5   0   1   -0.70    1.00
   5   0   1    0.00    1.00
   5   0   1    0.00    0.50
   5   0   1   -0.10    0.80
  -6   0  -1    1.40    0.60
  -6   0  -1    1.80    0.60
  -6   0  -1    1.60    0.60
  -6   0  -1    0.70    0.40
  -6   0  -1    1.60    0.50
   6   0   1    0.50    1.30
   6   0   1    2.20    1.30
  -7   0  -1    3.10    0.60
  -7   0  -1    2.30    0.60
  -7   0  -1    2.20    0.70
  -7   0  -1    3.80    0.90
   7   0   1    3.40    1.80
   7   0   1    2.90    1.70
  -8   0  -1   -0.10    0.50
  -8   0  -1    0.10    0.40
  -8   0  -1    0.50    0.50
   8   0   1    0.60    1.40
  -9   0  -1    0.00    0.50
  -9   0  -1    0.30    0.50
   9   0   1    0.80    1.70
   9  -1  -1    0.30    0.50
   8  -1  -1    2.40    1.60
  -8   1   1    1.80    0.60
  -8   1   1    1.60    0.50
  -8   1   1    2.10    0.70
   7  -1  -1    7.00    2.00
  -7   1   1    6.00    0.90
  -7   1   1    4.90    0.80
  -7   1   1    5.20    1.00
   6  -1  -1    0.10    0.90
  -6   1   1    0.10    0.40
  -6   1   1    0.00    0.40
  -6   1   1   -0.40    0.50
  -6   1   1   -0.30    0.30
   5  -1  -1    7.50    1.80
   5  -1  -1    7.30    1.70
  -5   1   1    8.00    1.20
  -5   1   1    7.50    0.90
  -5   1   1    8.00    0.90
  -5   1   1    7.00    1.00
   4  -1  -1   -0.10    0.80
   4  -1  -1   -0.30    0.60
  -4   1   1   -0.10    0.40
  -4   1   1    0.50    0.40
  -4   1   1    0.20    0.40
  -4   1   1    0.30    0.30
  -4   1   1    0.20    0.50
   3  -1  -1  117.39    6.90
   3  -1  -1   95.69    7.70
   3  -1  -1  105.19    7.50
  -3   1   1  120.59    7.20
  -3   1   1  121.89    7.10
  -3   1   1  107.89    7.00
  -3   1   1  112.19    7.00
  -3   1   1  115.89    7.00
   2  -1  -1  187.98   13.30
   2  -1  -1  201.78   13.00
   2  -1  -1  216.58   12.70
  -2   1   1  195.38   12.80
  -2   1   1  209.28   12.80
  -2   1   1  224.78   12.90
  -2   1   1  217.28   12.80
  -2   1   1  226.38   12.80
   1  -1  -1  773.72   51.79
   1  -1  -1  874.21   51.39
  -1   1   1  815.02   51.59
  -1   1   1  844.42   51.49
  -1   1   1  935.41   51.59
  -1   1   1  887.71   51.49
  -1   1   1  872.71   51.49
   0   1   1 1537.15   90.79
   0   1   1 1492.95   90.89
  -1  -1  -1  729.33   45.50
  -1  -1  -1  765.12   45.40
  -1  -1  -1  739.83   45.40
   1   1   1  780.72   45.50
   1   1   1  763.62   45.80
  -2  -1  -1  880.11   51.69
  -2  -1  -1  801.52   51.89
  -2  -1  -1  874.21   51.79
  -2  -1  -1  898.31   51.79
  -2  -1  -1  901.31   51.69
  -2  -1  -1  878.41   51.69
   2   1   1  834.02   51.89
   2   1   1  818.12   52.29
  -3  -1  -1   36.30    2.40
  -3  -1  -1   37.40    2.50
  -3  -1  -1   33.30    2.60
  -3  -1  -1   39.60    2.50
  -3  -1  -1   35.60    2.50
  -3  -1  -1   37.90    2.40
   3   1   1   28.10    3.30
   3   1   1   37.30    3.20
   3   1   1   35.00    2.60
  -4  -1  -1    0.40    0.30
  -4  -1  -1   -0.20    0.50
  -4  -1  -1    0.20    0.30
  -4  -1  -1   -0.10    0.30
  -4  -1  -1   -0.30    0.30
  -4  -1  -1    0.00    0.20
   4   1   1   -0.10    0.40
   4   1   1    0.50    1.00
   4   1   1   -0.20    1.00
  -5  -1  -1   12.50    1.30
  -5  -1  -1   12.10    1.10
  -5  -1  -1   11.20    1.20
  -5  -1  -1   13.60    1.60
  -5  -1  -1   12.90    1.10
  -5  -1  -1   14.80    1.30
   5   1   1   13.10    2.50
   5   1   1   13.90    2.70
   5   1   1   14.40    1.60
  -6  -1  -1    1.60    0.60
  -6  -1  -1    2.40    0.90
  -6  -1  -1    1.20    0.40
  -6  -1  -1    1.80    0.60
  -6  -1  -1    1.40    0.40
  -6  -1  -1    1.30    0.60
   6   1   1    1.00    0.80
   6   1   1    0.90    1.40
   6   1   1    1.30    1.50
  -7  -1  -1    0.00    0.50
  -7  -1  -1    0.20    0.40
  -7  -1  -1   -0.10    0.50
  -7  -1  -1    0.30    0.70
  -7  -1  -1    0.20    0.40
  -7  -1  -1    0.40    0.40
   7   1   1   -0.20    1.00
   7   1   1    0.40    1.50
  -8  -1  -1    9.40    1.30
  -8  -1  -1    8.80    1.10
  -8  -1  -1   10.50    1.30
  -8  -1  -1   16.40    1.90
   8   1   1    9.90    2.60
  -9  -1  -1    1.10    0.50
  -9  -1  -1    1.00    0.50
   9   1   1    0.90    1.60
   8  -2  -1    2.80    1.60
  -8   2   1    2.70    0.80
  -8   2   1    2.00    0.60
  -8   2   1    1.40    0.60
   7  -2  -1    1.40    1.40
  -7   2   1    2.20    0.70
  -7   2   1    1.40    0.60
  -7   2   1    1.40    0.60
   6  -2  -1   -0.30    0.90
  -6   2   1    0.70    0.60
  -6   2   1    0.90    0.50
  -6   2   1    0.40    0.50
   5  -2  -1    0.50    0.90
  -5   2   1    0.00    0.30
  -5   2   1   -0.20    0.30
  -5   2   1    0.20    0.50
  -5   2   1   -0.10    0.40
   4  -2  -1    0.50    0.80
   4  -2  -1    0.50    0.70
   4  -2  -1    0.30    0.30
  -4   2   1    0.00    0.40
  -4   2   1    0.10    0.20
  -4   2   1    0.40    0.50
  -4   2   1   -0.30    0.40
   3  -2  -1   76.49    4.50
   3  -2  -1   59.09    5.10
   3  -2  -1   61.39    4.60
   3  -2  -1   72.99    4.30
  -3   2   1   68.69    4.30
  -3   2   1   71.59    4.60
  -3   2   1   63.29    4.20
  -3   2   1   61.89    4.20
  -3   2   1   67.69    4.40
  -3   2   1   68.19    4.40
   2  -2  -1  113.39    6.80
   2  -2  -1  102.29    7.50
   2  -2  -1  108.49    7.00
  -2   2   1  105.49    6.80
  -2   2   1  112.79    6.90
  -2   2   1  117.29    7.10
  -2   2   1  112.89    6.90
  -2   2   1  111.89    7.10
  -2   2   1  112.39    6.90
   1  -2  -1  155.08   10.80
   1  -2  -1  168.88   11.20
  -1   2   1  181.58   11.10
  -1   2   1  187.68   10.90
  -1   2   1  176.38   10.80
  -1   2   1  184.88   10.90
  -1   2   1  188.78   10.80
   0  -2  -1  901.41   55.19
   0  -2  -1  912.11   55.29
   0   2   1 1006.00   55.49
   0   2   1  934.31   55.59
   0   2   1  902.21   55.19
   0   2   1  900.21   55.19
   0   2   1  883.21   55.09
  -1  -2  -1  368.86   23.30
  -1  -2  -1  391.76   23.40
  -1  -2  -1  388.66   23.40
  -1  -2  -1  405.76   23.30
   1   2   1  394.56   23.60
   1   2   1  386.86   23.50
   1   2   1  368.56   23.90
  -2  -2  -1   19.50    1.30
  -2  -2  -1   18.10    1.50
  -2  -2  -1   16.80    1.10
  -2  -2  -1   15.80    1.40
  -2  -2  -1   17.60    1.20
  -2  -2  -1   18.10    1.20
   2   2   1   13.90    1.90
   2   2   1   13.50    1.60
   2   2   1   15.20    1.30
   2   2   1   18.00    1.10
  -3  -2  -1  254.87   14.70
  -3  -2  -1  224.38   14.90
  -3  -2  -1  248.08   14.60
  -3  -2  -1  238.08   14.80
  -3  -2  -1  237.68   14.70
  -3  -2  -1  241.78   14.60
   3   2   1  251.67   14.60
   3   2   1  225.38   15.60
   3   2   1  237.38   15.00
  -4  -2  -1   56.89    3.60
  -4  -2  -1   54.49    3.50
  -4  -2  -1   54.69    3.60
  -4  -2  -1   51.09    3.80
  -4  -2  -1   55.59    3.70
  -4  -2  -1   53.39    3.60
   4   2   1   49.60    3.90
   4   2   1   54.19    3.50
   4   2   1   53.49    4.70
  -5  -2  -1    0.50    0.40
  -5  -2  -1   -0.10    0.60
  -5  -2  -1   -0.10    0.30
  -5  -2  -1    0.40    0.30
  -5  -2  -1    0.50    0.40
  -5  -2  -1   -0.20    0.40
   5   2   1   -0.30    0.60
   5   2   1   -0.10    0.30
   5   2   1    1.00    1.20
  -6  -2  -1   71.49    4.80
  -6  -2  -1   69.89    4.50
  -6  -2  -1   72.49    4.60
  -6  -2  -1   72.99    4.70
  -6  -2  -1   62.29    4.60
  -6  -2  -1   71.79    4.90
   6   2   1   68.29    6.30
   6   2   1   76.29    5.20
   6   2   1   71.39    6.20
   6   2   1   64.99    4.50
  -7  -2  -1   17.60    1.50
  -7  -2  -1   17.30    1.50
  -7  -2  -1   24.30    2.10
  -7  -2  -1   16.70    1.60
  -7  -2  -1   13.30    1.50
  -7  -2  -1   20.60    1.70
   7   2   1   20.80    3.60
   7   2   1   18.30    2.90
   7   2   1   21.20    3.60
  -8  -2  -1    0.40    0.50
  -8  -2  -1   -0.50    0.80
  -8  -2  -1    0.20    0.40
   8   2   1    0.00    1.60
   8   2   1    0.10    1.10
  -9  -2  -1    0.00    0.40
  -9  -2  -1    1.20    1.10
   8  -3  -1    2.20    1.60
  -8   3   1    1.60    0.50
  -8   3   1    2.80    0.70
  -8   3   1    1.50    0.60
   7  -3  -1    4.40    1.80
  -7   3   1    1.80    0.60
  -7   3   1    3.40    0.80
  -7   3   1    3.00    0.70
   6  -3  -1    5.40    1.80
  -6   3   1    5.50    0.80
  -6   3   1    4.40    0.90
  -6   3   1    4.60    0.90
   5  -3  -1    0.20    0.80
  -5   3   1    0.10    0.40
  -5   3   1    0.10    0.40
  -5   3   1    0.10    0.50
   4  -3  -1    0.50    0.80
   4  -3  -1    0.10    0.40
  -4   3   1    0.90    0.40
  -4   3   1    1.20    0.60
  -4   3   1    1.20    0.50
  -4   3   1    0.20    0.20
   3  -3  -1   74.59    5.80
   3  -3  -1   78.69    4.70
   3  -3  -1   77.79    5.00
  -3   3   1   68.29    4.90
  -3   3   1   70.19    4.60
  -3   3   1   75.09    4.80
  -3   3   1   76.89    4.90
  -3   3   1   63.39    4.50
  -3   3   1   75.29    4.80
   2  -3  -1   11.00    1.00
   2  -3  -1   10.20    1.50
  -2   3   1   11.40    1.00
  -2   3   1   10.70    1.00
  -2   3   1    9.00    0.80
  -2   3   1   10.70    1.10
  -2   3   1    8.50    1.20
  -2   3   1    9.70    1.00
   1  -3  -1   33.60    2.30
   1  -3  -1   37.10    2.80
  -1   3   1   37.20    2.50
  -1   3   1   33.20    2.50
  -1   3   1   35.80    2.70
  -1   3   1   34.20    2.50
  -1   3   1   35.40    2.30
   0  -3  -1  964.50   61.99
   0  -3  -1  994.50   61.99
   0  -3  -1 1033.60   61.79
   0   3   1 1064.69   61.69
   0   3   1 1001.30   62.29
   0   3   1  986.70   61.79
   0   3   1 1033.40   61.79
   0   3   1 1152.58   62.19
  -1  -3  -1  721.03   40.60
  -1  -3  -1  668.83   40.60
  -1  -3  -1  671.83   40.50
  -1  -3  -1  651.43   40.50
   1   3   1  697.33   40.70
   1   3   1  668.23   40.90
   1   3   1  616.44   41.20
   1   3   1  681.73   40.40
  -2  -3  -1  196.68   11.60
  -2  -3  -1  199.48   11.80
  -2  -3  -1  197.48   12.00
   2   3   1  186.18   11.80
   2   3   1  193.78   11.60
   2   3   1  183.08   12.20
   2   3   1  183.58   12.70
  -3  -3  -1    0.80    0.50
  -3  -3  -1    0.40    0.30
  -3  -3  -1    0.50    0.30
  -3  -3  -1    0.80    0.40
   3   3   1    0.90    0.90
   3   3   1    0.20    0.20
   3   3   1    0.70    0.40
   3   3   1    0.50    0.60
  -4  -3  -1   30.80    2.30
  -4  -3  -1   32.50    2.10
  -4  -3  -1   27.80    2.10
  -4  -3  -1   30.90    2.10
   4   3   1   31.30    3.50
   4   3   1   30.10    2.70
   4   3   1   28.90    2.00
   4   3   1   25.60    2.00
  -5  -3  -1  150.88    9.50
  -5  -3  -1  148.89    9.50
  -5  -3  -1  152.88    9.80
  -5  -3  -1  153.98    9.70
  -5  -3  -1  160.38    9.50
  -5  -3  -1  153.88    9.50
   5   3   1  157.78   11.20
   5   3   1  150.68    9.40
   5   3   1  145.89   10.10
  -6  -3  -1    1.60    0.50
  -6  -3  -1    3.40    0.70
  -6  -3  -1    2.40    0.90
  -6  -3  -1    2.50    0.60
  -6  -3  -1    2.20    0.50
  -6  -3  -1    1.90    0.60
   6   3   1    0.70    1.60
   6   3   1    2.00    1.00
  -7  -3  -1    0.40    0.50
  -7  -3  -1    0.50    0.40
  -7  -3  -1    0.70    0.40
  -7  -3  -1    0.70    0.80
  -7  -3  -1   -0.30    0.40
   7   3   1    0.40    0.90
   7   3   1   -0.90    1.40
   7   3   1    1.00    1.80
  -8  -3  -1    0.10    0.40
  -8  -3  -1   -0.30    0.90
  -8  -3  -1    0.10    0.40
   8   3   1    0.70    1.90
   8   3   1   -1.10    2.00
  -9  -3  -1   -0.70    1.00
  -9  -3  -1    0.50    0.50
   8  -4  -1    0.20    1.40
  -8   4   1    0.50    0.40
  -8   4   1    0.20    0.50
  -8   4   1    0.20    0.50
   7  -4  -1    1.50    1.50
  -7   4   1    0.90    0.60
  -7   4   1    0.90    0.50
   6  -4  -1   12.30    2.60
  -6   4   1    8.80    1.30
  -6   4   1    9.50    1.20
  -6   4   1    9.50    1.20
   5  -4  -1    2.40    1.30
  -5   4   1    1.80    0.70
  -5   4   1    1.20    0.60
  -5   4   1    2.80    0.70
   4  -4  -1    6.10    1.70
   4  -4  -1    9.20    0.90
  -4   4   1    7.80    0.70
  -4   4   1    8.40    1.20
  -4   4   1   10.40    1.10
  -4   4   1    9.20    1.00
   3  -4  -1   16.70    2.20
   3  -4  -1   19.40    1.40
  -3   4   1   12.50    1.10
  -3   4   1   14.90    1.70
  -3   4   1   15.10    1.30
  -3   4   1   16.10    1.60
  -3   4   1   16.60    1.40
  -3   4   1   14.20    1.20
   2  -4  -1  187.28   10.90
   2  -4  -1  188.78   11.80
  -2   4   1  164.98   10.90
  -2   4   1  166.48   10.90
  -2   4   1  178.38   10.90
  -2   4   1  164.18   11.20
  -2   4   1  178.78   11.00
   1  -4  -1   31.80    2.60
   1  -4  -1   30.70    2.10
  -1   4   1   29.70    2.20
  -1   4   1   28.50    2.20
  -1   4   1   29.50    2.10
  -1   4   1   26.90    2.50
  -1   4   1   26.60    2.30
  -1   4   1   29.80    2.00
  -1   4   1   27.20    2.40
   0  -4  -1    7.00    1.00
   0  -4  -1    6.70    0.70
   0  -4  -1    7.00    0.80
   0  -4  -1    5.10    0.70
   0   4   1    6.10    1.10
   0   4   1    9.00    1.30
   0   4   1    5.80    0.70
   0   4   1    5.50    0.70
   0   4   1    8.80    1.50
   0   4   1    6.70    0.60
  -1  -4  -1   14.30    1.10
  -1  -4  -1   14.30    1.30
  -1  -4  -1   16.10    1.20
  -1  -4  -1   13.90    1.10
   1   4   1   13.60    1.10
   1   4   1   13.70    2.10
   1   4   1   14.40    1.10
   1   4   1   14.40    1.80
   1   4   1   14.10    1.60
  -2  -4  -1   14.00    1.30
  -2  -4  -1   12.70    1.00
  -2  -4  -1   14.20    1.10
  -2  -4  -1   11.20    1.30
   2   4   1   13.40    1.70
   2   4   1   14.20    1.00
   2   4   1   14.20    1.40
   2   4   1   12.30    2.20
  -3  -4  -1  286.27   17.10
  -3  -4  -1  269.47   17.10
  -3  -4  -1  287.47   17.40
  -3  -4  -1  271.97   17.60
  -3  -4  -1  286.87   17.50
   3   4   1  295.87   17.40
   3   4   1  294.57   17.10
   3   4   1  287.87   17.90
   3   4   1  275.87   18.70
  -4  -4  -1    5.20    0.60
  -4  -4  -1    4.80    0.80
  -4  -4  -1    4.70    0.90
   4   4   1    4.40    0.50
   4   4   1    6.90    2.00
   4   4   1    6.10    1.30
   4   4   1    4.80    0.80
  -5  -4  -1    0.30    0.40
  -5  -4  -1    0.20    0.70
  -5  -4  -1    0.40    0.50
   5   4   1    0.20    0.80
   5   4   1    1.10    1.40
  -6  -4  -1    1.40    0.50
  -6  -4  -1    1.90    0.60
  -6  -4  -1    0.80    0.80
   6   4   1    0.70    1.60
   6   4   1    3.10    1.20
  -7  -4  -1    0.40    0.40
  -7  -4  -1    0.40    0.90
  -7  -4  -1   -0.30    0.40
   7   4   1   -1.70    1.70
   7   4   1    0.00    0.80
  -8  -4  -1    0.60    0.40
  -8  -4  -1    0.00    0.40
  -8  -4  -1    0.90    1.00
   8   4   1    0.40    1.80
   8   4   1    0.90    1.10
   8   4   1    0.30    2.30
  -9  -4  -1    1.20    0.60
  -9  -4  -1    1.30    1.10
   9   4   1    0.60    2.60
   7  -5  -1    1.80    1.50
  -7   5   1    0.90    0.50
  -7   5   1    1.10    0.60
  -7   5   1    0.90    0.50
   6  -5  -1    0.30    1.10
  -6   5   1   -0.10    0.60
  -6   5   1    0.40    0.50
  -6   5   1    0.10    0.50
   5  -5  -1    0.60    1.10
  -5   5   1   -0.20    0.40
  -5   5   1   -0.10    0.30
  -5   5   1   -0.10    0.60
   4  -5  -1   49.80    3.30
  -4   5   1   46.60    3.50
  -4   5   1   45.20    3.30
  -4   5   1   46.30    3.30
   3  -5  -1   53.19    4.40
   3  -5  -1   55.09    3.20
  -3   5   1   45.10    3.20
  -3   5   1   42.20    3.10
  -3   5   1   37.40    2.90
  -3   5   1   42.70    3.30
  -3   5   1   43.30    3.60
  -3   5   1   46.00    3.10
   2  -5  -1   14.50    1.30
   2  -5  -1   12.00    1.20
   2  -5  -1   12.80    0.90
   2  -5  -1    9.00    1.70
  -2   5   1    9.20    1.10
  -2   5   1    8.60    1.30
  -2   5   1    8.20    1.40
  -2   5   1   10.30    1.30
  -2   5   1    9.70    1.00
   1  -5  -1   79.29    4.50
   1  -5  -1   68.99    4.70
   1  -5  -1   80.79    5.20
  -1   5   1   65.19    5.10
  -1   5   1   72.09    4.70
  -1   5   1   66.69    4.90
  -1   5   1   69.69    4.50
  -1   5   1   69.09    4.60
  -1   5   1   59.89    5.00
   0  -5  -1   35.30    2.50
   0  -5  -1   34.80    2.60
   0  -5  -1   36.20    2.80
   0  -5  -1   37.50    2.80
   0   5   1   37.60    3.30
   0   5   1   37.50    2.40
   0   5   1   37.90    3.10
   0   5   1   36.40    2.50
   0   5   1   37.90    2.60
   0   5   1   41.40    3.10
  -1  -5  -1  282.57   17.20
  -1  -5  -1  285.87   17.40
  -1  -5  -1  270.57   17.30
  -1  -5  -1  306.07   17.40
   1   5   1  269.67   18.40
   1   5   1  281.17   17.30
   1   5   1  283.77   17.20
   1   5   1  278.47   17.90
   1   5   1  293.07   17.80
  -2  -5  -1    4.60    0.50
  -2  -5  -1    4.10    0.60
  -2  -5  -1    3.70    0.50
  -2  -5  -1    4.90    0.80
   2   5   1    4.60    0.50
   2   5   1    5.80    1.00
   2   5   1    3.80    1.10
   2   5   1    3.80    1.50
  -3  -5  -1    1.80    0.60
  -3  -5  -1    2.40    0.60
  -3  -5  -1    3.10    0.60
  -3  -5  -1    2.50    0.40
   3   5   1    2.70    0.90
   3   5   1    2.70    0.40
   3   5   1    3.20    0.80
   3   5   1    3.30    1.60
  -4  -5  -1    4.10    0.70
  -4  -5  -1    5.70    1.00
   4   5   1    4.80    1.20
   4   5   1    3.80    2.00
   4   5   1    7.30    1.00
  -5  -5  -1   -0.20    0.40
  -5  -5  -1    0.20    0.60
   5   5   1    0.30    0.80
   5   5   1    0.60    1.70
  -6  -5  -1    2.00    0.70
  -6  -5  -1    2.90    1.10
   6   5   1    2.90    2.20
   6   5   1    2.50    1.20
  -7  -5  -1    0.20    0.80
  -7  -5  -1   -0.20    0.50
   7   5   1   -1.00    2.00
   7   5   1    0.30    1.00
  -8  -5  -1    1.20    1.00
  -8  -5  -1    1.20    0.60
   8   5   1    1.80    1.20
   8   5   1    2.50    2.30
   6  -6  -1    2.00    1.30
  -6   6   1    5.00    0.80
  -6   6   1    6.60    1.10
  -6   6   1    4.50    0.80
   5  -6  -1    6.50    2.00
   5  -6  -1    5.50    1.10
  -5   6   1    3.90    0.80
  -5   6   1    3.20    0.90
  -5   6   1    3.20    0.70
   4  -6  -1    1.70    0.60
   4  -6  -1    1.40    1.10
  -4   6   1    1.20    0.60
  -4   6   1    1.60    0.60
  -4   6   1    0.40    0.70
   3  -6  -1   34.60    3.50
   3  -6  -1   35.20    2.50
  -3   6   1   30.80    2.90
  -3   6   1   31.20    2.60
  -3   6   1   31.90    2.50
  -3   6   1   29.30    2.30
   2  -6  -1    4.90    0.60
   2  -6  -1    3.80    1.10
   2  -6  -1    4.40    0.80
   2  -6  -1    4.70    1.00
  -2   6   1    2.30    0.90
  -2   6   1    1.90    1.00
  -2   6   1    4.50    0.80
  -2   6   1    3.30    0.70
  -2   6   1    3.90    0.80
   1  -6  -1   62.49    4.50
   1  -6  -1   66.79    4.20
   1  -6  -1   64.39    3.90
   1  -6  -1   60.19    4.00
  -1   6   1   55.69    4.50
  -1   6   1   57.69    3.80
  -1   6   1   54.19    4.00
  -1   6   1   55.69    4.10
  -1   6   1   51.89    4.30
   0  -6  -1    0.30    0.30
   0  -6  -1    0.60    0.40
   0  -6  -1    0.60    0.50
   0  -6  -1    0.20    0.60
   0   6   1    0.30    0.70
   0   6   1   -0.60    0.30
   0   6   1   -0.40    1.00
   0   6   1    0.90    0.50
   0   6   1    0.30    0.80
  -1  -6  -1    7.10    0.80
  -1  -6  -1    5.50    0.60
  -1  -6  -1    7.10    0.80
  -1  -6  -1    6.10    0.90
   1   6   1    3.30    1.00
   1   6   1    7.40    1.90
   1   6   1    5.90    1.20
   1   6   1    5.10    0.80
   1   6   1    5.20    0.70
  -2  -6  -1   56.59    3.80
  -2  -6  -1   57.49    4.00
  -2  -6  -1   58.39    3.80
  -2  -6  -1   57.89    4.00
   2   6   1   56.79    5.20
   2   6   1   61.09    3.70
   2   6   1   60.49    4.50
   2   6   1   57.59    4.30
  -3  -6  -1   26.80    2.30
  -3  -6  -1   30.70    2.00
  -3  -6  -1   27.50    2.10
  -3  -6  -1   29.40    2.40
   3   6   1   28.70    2.80
   3   6   1   29.20    2.50
   3   6   1   33.00    3.80
  -4  -6  -1    1.40    0.70
  -4  -6  -1    1.10    0.50
   4   6   1    0.50    1.50
   4   6   1    1.00    0.80
   4   6   1    0.90    0.90
  -5  -6  -1    0.00    0.40
  -5  -6  -1    0.30    0.60
   5   6   1   -0.40    1.50
   5   6   1    0.30    0.80
  -6  -6  -1    0.50    0.80
  -6  -6  -1    2.20    0.70
   6   6   1    0.00    0.80
   6   6   1    1.00    1.80
  -7  -6  -1    2.10    0.70
  -7  -6  -1    1.30    1.00
   7   6   1    1.10    1.00
   7   6   1   -0.60    1.90
  -8  -6  -1    1.20    1.00
  -8  -6  -1    0.50    0.50
   8   6   1    0.30    2.10
   8   6   1    0.50    1.10
   6  -7  -1    0.40    1.30
  -6   7   1    0.60    0.60
  -6   7   1    0.80    0.50
  -6   7   1    0.20    0.50
   5  -7  -1    3.40    1.70
   5  -7  -1    1.70    0.70
  -5   7   1    2.50    0.90
  -5   7   1    1.10    0.60
  -5   7   1    2.20    0.60
   4  -7  -1   -0.30    0.50
   4  -7  -1   -0.20    0.90
  -4   7   1    0.10    0.50
  -4   7   1    1.30    0.70
  -4   7   1    0.00    0.40
   3  -7  -1    0.10    0.50
   3  -7  -1    0.70    1.00
  -3   7   1    0.90    0.60
  -3   7   1    0.20    0.40
  -3   7   1    0.20    0.50
  -3   7   1    0.70    0.90
   2  -7  -1    3.70    1.20
   2  -7  -1    3.90    0.70
  -2   7   1    2.50    1.10
  -2   7   1    3.80    0.80
  -2   7   1    2.30    0.80
   1  -7  -1    0.50    0.60
   1  -7  -1   -0.50    0.40
   1  -7  -1   -0.30    0.60
   1  -7  -1    0.00    0.40
  -1   7   1    1.70    1.00
  -1   7   1   -0.70    0.50
  -1   7   1   -0.10    0.70
  -1   7   1   -0.20    0.50
   0  -7  -1   62.19    4.30
   0  -7  -1   61.49    4.50
   0  -7  -1   60.39    4.20
   0  -7  -1   59.39    4.50
   0   7   1   60.29    4.30
   0   7   1   67.29    4.80
   0   7   1   64.09    4.20
   0   7   1   69.99    4.90
   0   7   1   87.69    7.50
  -1  -7  -1   71.79    4.50
  -1  -7  -1   69.69    4.40
  -1  -7  -1   61.69    4.40
  -1  -7  -1   63.29    4.20
   1   7   1   59.69    4.90
   1   7   1   69.09    5.00
   1   7   1   61.69    4.30
   1   7   1   71.19    5.90
   1   7   1   59.89    4.20
  -2  -7  -1    7.00    0.80
  -2  -7  -1    7.00    1.00
  -2  -7  -1    7.70    0.90
  -2  -7  -1    6.60    1.00
   2   7   1    6.70    1.40
   2   7   1    8.00    2.40
   2   7   1    6.10    1.40
  -3  -7  -1   59.39    3.70
  -3  -7  -1   57.09    4.10
  -3  -7  -1   53.89    3.80
   3   7   1   60.29    5.80
   3   7   1   62.09    4.30
   3   7   1   53.49    4.50
  -4  -7  -1    1.80    0.50
  -4  -7  -1    3.30    0.80
   4   7   1    4.60    2.20
   4   7   1    2.40    1.10
   4   7   1    2.20    1.00
  -5  -7  -1    1.80    0.60
  -5  -7  -1    1.80    0.80
   5   7   1    6.70    2.70
   5   7   1    1.10    1.10
  -6  -7  -1    0.90    0.80
  -6  -7  -1    0.30    0.50
   6   7   1    0.20    0.90
   6   7   1    0.30    1.90
  -7  -7  -1    0.60    0.90
  -7  -7  -1    0.30    0.50
   7   7   1    0.90    1.10
   7   7   1   -0.40    2.00
   8   7   1    0.00    2.40
   8   7   1   -0.30    1.10
   5  -8  -1    2.70    1.60
   5  -8  -1    1.20    0.60
  -5   8   1    1.90    0.80
  -5   8   1    1.80    0.60
   4  -8  -1    2.10    1.40
   4  -8  -1    1.10    0.60
  -4   8   1    0.30    0.60
  -4   8   1    1.60    0.70
   3  -8  -1    0.50    0.70
   3  -8  -1   -0.50    0.70
  -3   8   1   -0.10    0.80
  -3   8   1    0.10    0.70
  -3   8   1   -0.50    0.50
   2  -8  -1    9.10    1.80
   2  -8  -1    6.50    1.00
  -2   8   1    4.70    1.00
  -2   8   1    2.70    1.20
  -2   8   1    5.40    1.00
   1  -8  -1   13.30    1.30
   1  -8  -1   10.90    1.60
   1  -8  -1   12.60    1.50
  -1   8   1   11.60    1.70
  -1   8   1   12.00    1.50
  -1   8   1    9.40    1.50
  -1   8   1   12.60    1.30
  -1   8   1   13.60    1.40
   0  -8  -1    2.80    0.70
   0  -8  -1    3.70    1.00
   0  -8  -1    3.30    0.80
   0  -8  -1    2.80    0.70
   0   8   1    3.80    0.80
   0   8   1    3.60    1.20
   0   8   1    2.20    0.70
   0   8   1    1.30    1.00
  -1  -8  -1  130.19    8.20
  -1  -8  -1  122.39    7.90
  -1  -8  -1  133.39    8.10
   1   8   1  120.09    8.60
   1   8   1  122.89    8.70
   1   8   1  134.19    9.70
  -2  -8  -1    0.70    0.40
  -2  -8  -1    1.90    0.50
  -2  -8  -1    1.20    0.60
   2   8   1    0.50    0.90
   2   8   1   -0.20    0.70
   2   8   1    1.00    1.70
  -3  -8  -1    6.00    1.00
  -3  -8  -1    5.90    0.80
  -3  -8  -1    5.70    0.70
   3   8   1    1.00    1.00
   3   8   1    6.70    1.40
   3   8   1   10.10    2.70
  -4  -8  -1    2.60    0.60
  -4  -8  -1    2.70    0.90
   4   8   1    2.20    1.10
   4   8   1    2.90    2.20
   4   8   1    1.90    1.00
  -5  -8  -1    1.30    0.50
  -5  -8  -1    1.30    0.80
   5   8   1    0.40    2.00
   5   8   1   -0.40    0.90
  -6  -8  -1    1.20    0.50
  -6  -8  -1    0.70    0.80
   6   8   1    3.10    2.50
   6   8   1    0.80    1.00
  -7  -8  -1    0.00    0.50
  -7  -8  -1    0.20    0.80
   7   8   1   -0.30    2.40
   7   8   1    0.40    1.00
   4  -9  -1   -0.30    0.50
   4  -9  -1   -0.10    0.80
  -4   9   1    0.30    0.70
  -4   9   1   -0.90    0.50
   3  -9  -1    1.80    0.60
   3  -9  -1    0.60    0.90
  -3   9   1    3.00    0.80
  -3   9   1    1.30    1.00
  -3   9   1    1.10    0.80
   2  -9  -1    2.80    1.10
   2  -9  -1    6.50    1.00
  -2   9   1    4.80    1.00
  -2   9   1    2.00    1.10
  -2   9   1    5.60    1.00
   1  -9  -1   27.80    2.20
   1  -9  -1   27.80    2.70
  -1   9   1   29.40    3.00
  -1   9   1   26.80    2.40
   0  -9  -1   17.80    1.40
   0  -9  -1   17.60    1.70
   0  -9  -1   18.30    1.60
   0   9   1   14.50    2.00
   0   9   1   18.00    2.30
  -1  -9  -1    3.40    0.70
  -1  -9  -1    2.90    0.50
  -1  -9  -1    3.40    0.90
   1   9   1    1.60    1.00
   1   9   1    5.00    1.30
  -2  -9  -1    4.50    0.70
  -2  -9  -1    4.00    0.70
  -2  -9  -1    3.70    0.90
   2   9   1    7.70    2.50
   2   9   1    4.00    1.20
   2   9   1    3.50    1.20
  -3  -9  -1    0.30    0.40
  -3  -9  -1   -0.60    0.60
   3   9   1    1.50    1.90
   3   9   1   -0.10    1.00
   3   9   1    0.50    0.90
  -4  -9  -1    1.60    0.80
  -4  -9  -1    1.90    0.50
   4   9   1    1.60    1.20
   4   9   1    2.00    1.10
   4   9   1    1.00    2.00
  -5  -9  -1    4.30    1.00
  -5  -9  -1    4.70    0.80
   5   9   1    8.50    2.80
   5   9   1    2.00    1.10
  -6  -9  -1    2.60    0.70
  -6  -9  -1    1.10    0.70
   6   9   1    5.90    3.10
   6   9   1    1.40    1.10
   2 -10  -1    1.20    1.30
   2 -10  -1    0.60    0.50
  -2  10   1    0.60    1.00
  -2  10   1    2.10    0.80
   1 -10  -1   -0.10    0.40
  -1  10   1   -0.70    0.70
  -1  10   1    0.20    0.80
   0 -10  -1    1.80    0.60
   0 -10  -1    2.40    0.50
   0  10   1    2.70    1.10
  -1 -10  -1    4.10    0.60
  -1 -10  -1    3.40    0.90
  -1 -10  -1    4.00    0.70
   1  10   1    0.10    0.90
   1  10   1    1.40    1.20
  -2 -10  -1    0.70    0.40
  -2 -10  -1    1.40    0.80
  -2 -10  -1    1.20    0.40
   2  10   1    0.00    0.70
   2  10   1    1.20    0.90
  -3 -10  -1    0.00    0.40
  -3 -10  -1    0.50    0.70
   3  10   1   -0.80    2.00
   3  10   1   -0.90    0.90
   3  10   1    0.20    1.00
  -4 -10  -1    0.70    0.70
  -4 -10  -1    0.70    0.40
   4  10   1   -1.20    1.90
   4  10   1    0.20    1.10
   4  10   1    1.90    1.20
   5  10   1    8.10    3.20
   1  11   1    0.80    1.30
   2  10  -2    0.40    1.20
  -2 -10   2    0.40    0.60
  -2 -10   2    0.10    0.40
   1  10  -2    1.60    0.90
  -1 -10   2    2.30    0.60
  -1 -10   2    2.20    0.70
  -1 -10   2    2.10    0.50
  -1 -10   2    1.50    0.60
   0  10  -2   -0.40    0.70
   0 -10   2   -0.10    0.40
   0 -10   2    0.30    0.60
   0 -10   2    0.20    0.50
   0 -10   2    0.00    0.40
  -1  10  -2    1.20    0.60
   1 -10   2    1.70    0.60
   4   9  -2   -0.80    1.00
  -4  -9   2    0.30    0.60
  -4  -9   2   -0.10    0.40
   3   9  -2    0.50    0.90
   3   9  -2    0.70    1.00
  -3  -9   2    1.70    0.70
  -3  -9   2    2.00    0.50
   2   9  -2   -0.30    0.90
   2   9  -2    0.60    0.80
  -2  -9   2    0.30    0.50
  -2  -9   2    0.30    0.40
  -2  -9   2    0.50    0.40
   1   9  -2    0.20    0.80
   1   9  -2   -0.50    0.90
  -1  -9   2    0.00    0.40
  -1  -9   2    0.40    0.50
  -1  -9   2    0.40    0.60
  -1  -9   2    0.30    0.30
   0   9  -2    2.80    0.70
   0   9  -2    3.80    0.90
   0  -9   2    3.20    0.90
   0  -9   2    3.20    0.60
   0  -9   2    3.80    0.70
   0  -9   2    3.50    0.70
  -1   9  -2    7.50    1.00
  -1   9  -2    8.80    1.20
  -1   9  -2    4.90    1.20
   1  -9   2   10.10    1.10
   1  -9   2    9.80    1.10
   1  -9   2    9.20    1.20
  -2   9  -2    1.00    0.60
  -2   9  -2    0.30    0.70
  -2   9  -2    1.10    0.70
  -2   9  -2    0.00    0.60
   2  -9   2    0.00    0.60
   2  -9   2    0.80    0.50
   2  -9   2    0.50    0.60
  -3   9  -2    4.70    1.30
  -3   9  -2   11.10    1.20
  -3   9  -2   12.00    1.30
  -3   9  -2    9.20    1.30
   3  -9   2   10.20    1.20
   6   8  -2    0.00    1.00
  -6  -8   2    0.70    0.70
   5   8  -2    0.80    1.00
  -5  -8   2    0.20    0.60
   4   8  -2    1.90    1.20
  -4  -8   2    1.30    0.70
  -4  -8   2    1.70    0.50
   3   8  -2    1.00    0.80
   3   8  -2    2.70    1.20
  -3  -8   2    1.20    0.40
  -3  -8   2    0.30    0.50
   2   8  -2    1.50    0.90
   2   8  -2    1.00    1.00
  -2  -8   2    0.50    0.50
  -2  -8   2    1.00    0.40
  -2  -8   2    0.60    0.40
  -2  -8   2    0.40    0.60
   1   8  -2    0.10    0.70
   1   8  -2    0.00    0.50
   1   8  -2   -0.10    0.90
   1   8  -2    0.80    0.50
  -1  -8   2   -0.10    0.30
  -1  -8   2   -0.20    0.40
  -1  -8   2    0.10    0.60
  -1  -8   2   -0.30    0.40
   0   8  -2    1.90    0.70
   0   8  -2    3.80    1.30
   0   8  -2    2.60    0.70
   0   8  -2    2.60    0.60
   0  -8   2    2.30    0.60
   0  -8   2    3.50    0.70
   0  -8   2    3.00    0.90
  -1   8  -2   -0.20    0.60
  -1   8  -2    0.30    0.60
  -1   8  -2    0.10    0.50
   1  -8   2    0.70    0.60
   1  -8   2    0.80    0.60
   1  -8   2    0.30    0.40
  -2   8  -2    3.60    0.90
  -2   8  -2    2.90    1.00
  -2   8  -2    4.10    0.80
   2  -8   2    5.20    0.90
   2  -8   2    5.80    1.10
   2  -8   2    4.80    0.70
  -3   8  -2    8.60    1.10
  -3   8  -2    3.60    1.20
  -3   8  -2    7.30    1.10
  -3   8  -2    5.90    1.10
   3  -8   2    8.50    1.30
   3  -8   2    4.80    1.60
   3  -8   2    6.00    1.00
  -4   8  -2    3.90    1.20
  -4   8  -2    3.90    0.80
  -4   8  -2    3.60    0.90
   4  -8   2    1.20    1.10
   4  -8   2    3.70    0.80
  -5   8  -2    0.10    0.50
   7   7  -2   -0.50    1.00
   6   7  -2    0.90    1.10
  -6  -7   2    0.10    0.70
   5   7  -2    1.50    1.00
  -5  -7   2    0.00    0.60
   4   7  -2    1.80    1.00
  -4  -7   2    0.20    0.60
  -4  -7   2    0.60    0.40
   3   7  -2    8.20    1.30
   3   7  -2   10.50    1.80
  -3  -7   2    6.60    1.00
  -3  -7   2    8.40    0.90
   2   7  -2    3.60    0.60
   2   7  -2    1.90    1.00
   2   7  -2    4.00    1.10
  -2  -7   2    3.50    0.60
  -2  -7   2    3.00    0.50
  -2  -7   2    1.90    0.60
  -2  -7   2    2.60    0.80
   1   7  -2    2.20    0.90
   1   7  -2    1.50    1.00
   1   7  -2    2.60    0.60
  -1  -7   2    2.50    0.60
  -1  -7   2    2.60    0.60
  -1  -7   2    3.00    0.50
  -1  -7   2    2.20    0.70
   0   7  -2    3.70    0.70
   0   7  -2    4.20    0.80
   0   7  -2    3.70    1.20
   0   7  -2    3.00    0.90
   0  -7   2    3.60    0.80
   0  -7   2    2.80    0.60
   0  -7   2    3.90    1.00
  -1   7  -2   24.20    2.00
  -1   7  -2   24.30    2.10
  -1   7  -2   22.70    2.30
   1  -7   2   26.00    1.90
   1  -7   2   30.80    2.30
   1  -7   2   24.40    2.10
  -2   7  -2    5.50    0.90
  -2   7  -2    5.50    1.20
  -2   7  -2    5.40    1.00
   2  -7   2    7.10    1.10
   2  -7   2    5.00    0.70
   2  -7   2    4.50    0.90
   2  -7   2    6.10    1.50
  -3   7  -2    0.90    0.60
  -3   7  -2    0.90    0.60
  -3   7  -2    0.90    0.70
  -3   7  -2    1.00    0.90
   3  -7   2    1.60    1.00
   3  -7   2    1.10    0.40
   3  -7   2    1.90    0.70
   3  -7   2    1.60    0.80
  -4   7  -2    2.20    1.00
  -4   7  -2    1.20    0.60
  -4   7  -2    3.00    0.70
  -4   7  -2    1.20    0.80
   4  -7   2    0.80    1.10
   4  -7   2    2.80    0.80
  -5   7  -2    1.50    0.60
  -5   7  -2    1.60    0.70
  -5   7  -2    0.00    0.60
   5  -7   2    2.10    1.50
   5  -7   2    1.60    0.70
  -6   7  -2    0.50    0.70
  -6   7  -2    0.30    0.50
   6  -7   2    0.70    1.20
   7   6  -2    0.40    1.00
  -7  -6   2   -0.20    0.80
  -7  -6   2    0.70    0.40
   6   6  -2    2.70    1.30
  -6  -6   2    1.80    0.60
  -6  -6   2    1.70    0.80
   5   6  -2    4.80    1.30
  -5  -6   2    6.20    0.90
  -5  -6   2    6.60    0.90
  -5  -6   2    7.20    1.20
   4   6  -2   36.80    3.30
  -4  -6   2   31.70    2.60
  -4  -6   2   33.50    2.40
  -4  -6   2   35.20    2.50
   3   6  -2   29.00    1.90
   3   6  -2   27.80    2.30
   3   6  -2   30.20    2.80
  -3  -6   2   27.60    2.00
  -3  -6   2   24.90    2.20
   2   6  -2    0.40    0.40
   2   6  -2    1.40    0.70
   2   6  -2    1.00    0.90
  -2  -6   2    0.50    0.50
  -2  -6   2    0.30    0.40
  -2  -6   2    0.50    0.30
  -2  -6   2    0.50    0.30
   1   6  -2   -0.10    0.80
   1   6  -2   -0.50    0.40
   1   6  -2    0.40    0.60
  -1  -6   2   -0.40    0.20
  -1  -6   2    0.30    0.50
  -1  -6   2   -0.30    0.30
  -1  -6   2   -0.20    0.30
   0   6  -2   66.19    4.60
   0   6  -2   66.39    4.40
   0   6  -2   63.49    4.20
   0   6  -2   71.49    4.90
   0  -6   2   61.49    4.20
   0  -6   2   64.29    4.50
   0  -6   2   62.49    4.40
  -1   6  -2   20.90    2.10
  -1   6  -2   22.20    1.80
  -1   6  -2   20.80    1.90
  -1   6  -2   20.10    2.20
   1  -6   2   30.50    2.20
   1  -6   2   22.80    2.30
   1  -6   2   25.90    1.80
   1  -6   2   21.20    1.90
  -2   6  -2    1.80    0.70
  -2   6  -2    1.80    0.60
  -2   6  -2    2.40    1.00
  -2   6  -2    1.50    0.60
   2  -6   2    1.60    0.90
   2  -6   2    1.50    0.60
   2  -6   2    2.50    0.90
  -3   6  -2   18.30    1.70
  -3   6  -2   18.70    2.00
  -3   6  -2   19.80    1.70
  -3   6  -2   20.10    1.90
  -3   6  -2   19.00    1.60
   3  -6   2   18.00    2.50
   3  -6   2   20.20    1.70
  -4   6  -2    1.10    0.60
  -4   6  -2    0.60    0.80
  -4   6  -2   -0.10    0.40
  -4   6  -2    0.10    0.50
  -4   6  -2    0.40    0.50
   4  -6   2   -0.30    0.70
   4  -6   2    1.20    1.10
   4  -6   2    0.10    0.60
  -5   6  -2    1.40    0.60
  -5   6  -2    0.30    0.60
  -5   6  -2    0.70    0.50
   5  -6   2    2.10    1.40
   5  -6   2    0.70    0.60
  -6   6  -2    0.00    0.60
  -6   6  -2    0.40    0.50
  -6   6  -2    1.20    0.60
   6  -6   2    0.30    1.20
   8   5  -2    0.90    1.10
   8   5  -2   -0.50    2.60
  -8  -5   2   -0.70    0.40
  -8  -5   2    0.60    0.90
   7   5  -2    6.70    1.60
  -7  -5   2    4.90    1.10
  -7  -5   2    5.50    0.80
   6   5  -2   28.10    3.00
  -6  -5   2   30.00    2.60
  -6  -5   2   30.30    2.30
  -5  -5   2   56.69    3.60
  -5  -5   2   52.39    3.50
  -5  -5   2   44.60    3.60
   4   5  -2    9.70    1.70
   4   5  -2    9.00    0.80
  -4  -5   2    7.20    1.10
  -4  -5   2   11.70    1.00
  -4  -5   2    8.60    0.90
   3   5  -2    7.50    1.40
   3   5  -2    7.60    0.70
   3   5  -2    7.30    1.00
  -3  -5   2    9.70    1.00
  -3  -5   2    6.00    0.90
  -3  -5   2    8.00    0.80
  -3  -5   2    7.10    0.70
   2   5  -2   -0.30    0.70
   2   5  -2    0.50    0.30
   2   5  -2    0.40    0.50
  -2  -5   2    0.20    0.40
  -2  -5   2    0.30    0.30
  -2  -5   2    0.40    0.30
  -2  -5   2    0.60    0.40
  -2  -5   2    0.40    0.40
   1   5  -2    1.80    0.70
   1   5  -2    1.90    0.50
   1   5  -2    1.50    0.90
  -1  -5   2    3.00    0.60
  -1  -5   2    3.00    0.60
  -1  -5   2    1.80    0.30
  -1  -5   2    2.60    0.80
   0   5  -2   22.70    2.10
   0   5  -2   21.10    1.80
   0   5  -2   19.70    1.50
   0   5  -2   19.80    1.50
   0  -5   2   16.90    1.70
   0  -5   2   18.00    1.60
   0  -5   2   21.40    1.50
   0  -5   2   23.20    1.90
  -1   5  -2  263.37   17.30
  -1   5  -2  272.97   17.00
  -1   5  -2  286.87   17.10
  -1   5  -2  256.37   17.30
  -1   5  -2  282.47   17.00
   1  -5   2  290.67   17.70
   1  -5   2  290.67   17.20
  -2   5  -2    4.60    0.70
  -2   5  -2    3.90    0.70
  -2   5  -2    4.80    0.90
  -2   5  -2    5.40    1.00
   2  -5   2    3.30    0.80
   2  -5   2    4.50    1.30
   2  -5   2    6.80    1.10
  -3   5  -2   12.10    1.30
  -3   5  -2   15.60    1.60
  -3   5  -2   11.20    1.20
  -3   5  -2   12.10    1.30
  -3   5  -2    9.70    1.50
   3  -5   2   13.20    1.40
   3  -5   2   10.00    2.10
  -4   5  -2   19.30    1.70
  -4   5  -2   16.80    2.10
  -4   5  -2   18.30    1.70
  -4   5  -2   20.10    1.80
  -4   5  -2   16.80    1.80
   4  -5   2   20.30    1.80
   4  -5   2   23.70    2.20
   4  -5   2   21.40    2.90
  -5   5  -2    5.80    0.90
  -5   5  -2    2.80    0.80
  -5   5  -2    5.90    0.80
   5  -5   2    5.10    0.90
   5  -5   2    6.20    1.90
  -6   5  -2    0.60    0.70
  -6   5  -2    0.10    0.50
  -6   5  -2    0.30    0.40
   6  -5   2    0.30    1.10
  -7   5  -2    0.70    0.60
  -7   5  -2    0.00    0.50
   7  -5   2    1.30    1.60
   8   4  -2   10.60    3.60
   8   4  -2    7.50    1.80
  -8  -4   2    7.10    0.90
  -8  -4   2    7.60    1.30
   7   4  -2   12.10    2.00
  -7  -4   2    9.30    1.40
  -7  -4   2   11.00    1.20
   6   4  -2    1.00    1.00
  -6  -4   2    0.10    0.70
  -6  -4   2    0.90    0.50
   5   4  -2    5.10    0.70
   5   4  -2    6.10    1.40
  -5  -4   2    6.50    1.10
  -5  -4   2    6.00    0.80
  -5  -4   2    7.00    0.90
   4   4  -2   98.49    5.90
   4   4  -2   85.99    6.60
  -4  -4   2   90.29    6.20
  -4  -4   2   96.09    6.10
  -4  -4   2   97.29    6.10
   3   4  -2   51.39    3.20
   3   4  -2   49.20    3.30
   3   4  -2   52.89    3.90
  -3  -4   2   49.50    3.30
  -3  -4   2   45.90    3.40
  -3  -4   2   49.70    3.10
  -3  -4   2   51.69    3.40
   2   4  -2   26.00    2.00
   2   4  -2   26.90    2.50
   2   4  -2   28.60    1.90
  -2  -4   2   29.30    2.00
  -2  -4   2   26.70    1.80
  -2  -4   2   27.30    2.20
  -2  -4   2   27.70    1.90
  -2  -4   2   24.60    2.00
   1   4  -2   87.39    5.30
   1   4  -2   89.09    6.00
   1   4  -2   84.99    5.40
   1   4  -2   88.39    5.70
  -1  -4   2   88.49    5.50
  -1  -4   2   89.79    5.40
  -1  -4   2   86.29    5.60
  -1  -4   2   88.79    5.50
  -1  -4   2   77.79    5.70
   0   4  -2  877.41   55.89
   0   4  -2  986.40   56.39
   0   4  -2  923.51   56.19
   0   4  -2  913.11   55.89
   0  -4   2  963.50   55.89
   0  -4   2  798.22   55.99
   0  -4   2 1049.40   56.29
  -1   4  -2  297.47   19.70
  -1   4  -2  301.87   19.70
  -1   4  -2  342.07   19.60
  -1   4  -2  327.37   19.50
  -1   4  -2  326.17   19.50
   1  -4   2  316.47   20.10
   1  -4   2  331.97   19.70
  -2   4  -2   18.00    1.70
  -2   4  -2   16.90    1.50
  -2   4  -2   18.40    1.60
  -2   4  -2   17.10    1.60
  -2   4  -2   19.60    1.50
   2  -4   2   18.30    2.20
   2  -4   2   21.20    1.70
  -3   4  -2   23.90    2.10
  -3   4  -2   28.70    2.30
  -3   4  -2   28.10    2.10
  -3   4  -2   28.80    2.40
  -3   4  -2   27.80    2.10
   3  -4   2   31.90    2.30
   3  -4   2   25.50    3.00
   3  -4   2   32.20    2.70
  -4   4  -2    0.20    0.60
  -4   4  -2   -0.10    0.70
  -4   4  -2    0.50    0.60
  -4   4  -2    1.00    0.50
  -4   4  -2   -0.20    0.40
   4  -4   2    0.70    0.60
   4  -4   2    0.40    0.70
   4  -4   2    0.00    0.80
  -5   4  -2    1.60    0.50
  -5   4  -2    0.80    0.60
  -5   4  -2    0.60    0.60
   5  -4   2    0.80    0.60
   5  -4   2    1.30    1.10
   5  -4   2    0.60    0.80
  -6   4  -2    7.60    1.20
  -6   4  -2    6.40    1.00
  -6   4  -2    9.20    1.30
   6  -4   2   10.00    2.50
  -7   4  -2    0.00    0.60
  -7   4  -2    0.90    0.60
   7  -4   2    0.80    1.30
  -8   4  -2    2.00    0.80
  -8   4  -2    2.50    0.80
   8  -4   2    2.40    1.70
   8   3  -2   -0.10    1.10
   8   3  -2    1.40    2.80
  -8  -3   2    0.20    0.40
  -8  -3   2    0.20    0.40
   7   3  -2    0.30    1.00
  -7  -3   2    0.20    0.40
  -7  -3   2    0.10    0.70
  -7  -3   2   -0.20    0.40
   6   3  -2   14.20    1.30
   6   3  -2   19.50    2.40
  -6  -3   2   14.10    1.70
  -6  -3   2   15.10    1.30
  -6  -3   2   15.70    1.40
  -6  -3   2   17.80    1.60
   5   3  -2   14.40    1.90
   5   3  -2   12.50    1.10
  -5  -3   2   11.80    1.30
  -5  -3   2   13.60    1.60
  -5  -3   2   14.10    1.20
  -5  -3   2   13.20    1.30
   4   3  -2    1.20    0.40
   4   3  -2    2.00    0.90
  -4  -3   2    2.00    0.60
  -4  -3   2    1.50    0.50
  -4  -3   2    0.40    0.60
  -4  -3   2    2.10    0.50
   3   3  -2    1.20    0.40
   3   3  -2    1.60    0.80
   3   3  -2    1.50    0.40
  -3  -3   2    1.70    0.40
  -3  -3   2    1.50    0.50
  -3  -3   2    1.40    0.50
   2   3  -2  339.47   20.30
   2   3  -2  344.67   20.20
   2   3  -2  333.57   20.80
  -2  -3   2  325.57   20.20
  -2  -3   2  345.87   20.30
  -2  -3   2  314.17   20.40
  -2  -3   2  336.97   20.40
   1   3  -2   11.00    0.90
   1   3  -2   11.00    1.10
   1   3  -2   11.80    1.60
  -1  -3   2   10.70    1.20
  -1  -3   2   11.20    1.00
  -1  -3   2   11.20    1.00
  -1  -3   2   11.10    0.80
  -1  -3   2   12.00    1.00
   0   3  -2  639.14   35.50
   0   3  -2  597.74   35.30
   0   3  -2  552.34   35.10
   0   3  -2  564.14   35.10
   0  -3   2  539.55   35.10
   0  -3   2  607.14   35.10
  -1   3  -2   72.79    4.50
  -1   3  -2   73.29    4.70
  -1   3  -2   70.59    4.70
  -1   3  -2   76.09    4.50
   1  -3   2   63.89    5.00
   1  -3   2   65.49    4.60
  -2   3  -2   15.80    1.30
  -2   3  -2   18.00    1.40
  -2   3  -2   16.70    1.30
  -2   3  -2   16.90    1.50
  -2   3  -2   15.60    1.30
   2  -3   2   17.80    1.50
   2  -3   2   13.50    1.80
  -3   3  -2    3.60    0.80
  -3   3  -2    3.50    0.80
  -3   3  -2    3.50    0.70
  -3   3  -2    3.50    0.60
  -3   3  -2    3.70    0.70
   3  -3   2    3.30    1.10
   3  -3   2    5.00    0.90
   3  -3   2    2.10    1.00
   3  -3   2    5.20    0.60
  -4   3  -2   17.50    1.50
  -4   3  -2   18.50    1.60
  -4   3  -2   17.90    1.60
  -4   3  -2   17.80    1.70
  -4   3  -2   19.50    1.70
   4  -3   2   21.10    1.70
   4  -3   2   16.00    2.40
   4  -3   2   16.50    2.40
  -5   3  -2    8.20    1.20
  -5   3  -2    7.80    0.90
  -5   3  -2    6.90    1.10
   5  -3   2    6.40    1.80
   5  -3   2    9.20    1.90
   5  -3   2    6.70    1.00
  -6   3  -2   20.80    1.90
  -6   3  -2   20.80    1.70
  -6   3  -2   19.00    2.00
   6  -3   2   24.00    3.50
   6  -3   2   24.10    3.40
  -7   3  -2    2.00    0.70
  -7   3  -2    1.40    0.70
   7  -3   2    1.10    1.40
  -8   3  -2   15.30    1.60
  -8   3  -2   11.30    1.50
   8  -3   2   11.10    2.90
   8   2  -2    3.40    1.90
  -8  -2   2    1.90    0.60
  -8  -2   2    2.50    0.60
  -8  -2   2    2.80    0.70
   7   2  -2    3.10    1.20
   7   2  -2    2.80    0.60
  -7  -2   2    2.90    0.60
  -7  -2   2    4.20    1.00
  -7  -2   2    2.80    0.60
  -7  -2   2    3.80    0.70
  -7  -2   2    3.50    0.80
   6   2  -2    6.80    1.50
   6   2  -2    7.40    0.90
  -6  -2   2    6.50    1.00
  -6  -2   2    5.80    0.80
  -6  -2   2    6.40    0.90
  -6  -2   2    8.60    1.10
  -6  -2   2    7.80    1.30
  -6  -2   2    7.40    1.10
   5   2  -2    2.20    0.50
  -5  -2   2    3.40    0.90
  -5  -2   2    3.00    0.60
  -5  -2   2    3.00    0.60
  -5  -2   2    2.60    0.60
  -5  -2   2    3.60    0.70
   4   2  -2    0.40    0.60
   4   2  -2    0.70    0.40
  -4  -2   2    0.10    0.40
  -4  -2   2    1.30    0.60
  -4  -2   2    0.60    0.50
  -4  -2   2    1.40    0.50
  -4  -2   2    1.30    0.50
   3   2  -2   -0.30    0.20
   3   2  -2    0.10    0.30
   3   2  -2   -0.20    0.40
  -3  -2   2   -0.50    0.30
  -3  -2   2    0.10    0.40
  -3  -2   2    0.20    0.30
  -3  -2   2    0.10    0.40
   2   2  -2  300.07   18.10
   2   2  -2  293.87   18.10
  -2  -2   2  278.17   18.00
  -2  -2   2  309.67   18.20
  -2  -2   2  310.97   18.30
  -2  -2   2  309.77   18.20
  -2  -2   2  297.47   18.20
  -2  -2   2  297.97   18.40
   1   2  -2   70.99    4.60
   1   2  -2   70.99    4.60
  -1  -2   2   77.59    4.50
  -1  -2   2   70.59    4.70
  -1  -2   2   74.89    4.70
  -1  -2   2   74.09    4.60
   0   2  -2  109.39    6.10
   0   2  -2  108.69    6.10
   0   2  -2   96.39    6.20
   0  -2   2  106.69    6.10
   0  -2   2   80.99    6.30
   0  -2   2   94.69    6.30
  -1   2  -2  142.09    8.90
  -1   2  -2  145.89    8.80
  -1   2  -2  133.09    8.80
  -1   2  -2  141.19    8.90
   1  -2   2  137.09    9.00
   1  -2   2  159.98    9.30
  -2   2  -2    5.00    0.60
  -2   2  -2    4.50    0.70
  -2   2  -2    5.50    0.70
  -2   2  -2    5.80    0.70
   2  -2   2    8.00    1.30
   2  -2   2    6.80    0.70
   2  -2   2    5.10    0.80
   2  -2   2    3.70    1.00
  -3   2  -2    4.90    0.80
  -3   2  -2    4.90    0.80
  -3   2  -2    4.60    0.60
  -3   2  -2    5.80    0.80
  -3   2  -2    5.30    0.80
   3  -2   2    3.70    1.20
   3  -2   2    4.60    0.80
   3  -2   2    2.70    1.00
   3  -2   2    3.70    0.70
  -4   2  -2  161.38   10.70
  -4   2  -2  181.68   10.90
  -4   2  -2  168.28   10.80
  -4   2  -2  176.48   11.00
   4  -2   2  179.78   11.60
   4  -2   2  179.08   10.90
   4  -2   2  173.08   11.70
  -5   2  -2    5.30    0.70
  -5   2  -2    5.90    1.00
  -5   2  -2    6.50    1.00
   5  -2   2    7.40    1.90
   5  -2   2    4.20    1.50
  -6   2  -2  264.37   15.90
  -6   2  -2  255.67   15.70
  -6   2  -2  217.98   15.90
   6  -2   2  271.87   17.10
   6  -2   2  275.87   17.90
  -7   2  -2    0.10    0.50
  -7   2  -2    0.30    0.50
   7  -2   2   -0.40    1.20
  -8   2  -2    0.00    0.50
  -8   2  -2    0.00    0.60
   8  -2   2    0.70    1.60
   8   1  -2    0.50    0.50
  -8  -1   2   -0.40    0.30
  -8  -1   2    0.00    0.30
  -8  -1   2    0.30    0.50
  -8  -1   2    0.10    0.40
   7   1  -2    0.10    0.40
  -7  -1   2   -0.50    0.40
  -7  -1   2    0.00    0.40
  -7  -1   2    0.50    0.30
  -7  -1   2   -0.20    0.50
   6   1  -2   10.10    2.00
   6   1  -2    9.30    1.10
  -6  -1   2    8.30    1.20
  -6  -1   2   10.20    1.20
  -6  -1   2    8.90    1.20
  -6  -1   2   11.30    1.50
  -6  -1   2   10.00    1.10
  -6  -1   2    8.50    1.20
   5   1  -2   41.00    3.70
   5   1  -2   41.90    3.00
  -5  -1   2   47.00    3.00
  -5  -1   2   44.50    2.90
  -5  -1   2   44.10    3.00
  -5  -1   2   41.60    3.20
  -5  -1   2   46.60    3.10
  -5  -1   2   39.00    2.90
   4   1  -2   11.00    1.10
   4   1  -2   10.70    1.50
  -4  -1   2   10.60    1.10
  -4  -1   2   10.20    1.30
  -4  -1   2   11.20    1.10
  -4  -1   2   13.00    1.00
  -4  -1   2   10.30    1.00
  -4  -1   2   11.30    1.10
   3   1  -2   18.00    1.90
   3   1  -2   23.60    1.70
  -3  -1   2   22.90    1.70
  -3  -1   2   21.70    1.80
  -3  -1   2   22.20    1.70
  -3  -1   2   24.10    1.70
  -3  -1   2   24.10    1.60
  -3  -1   2   21.40    1.60
   2   1  -2    4.30    0.70
   2   1  -2    6.20    0.70
   2   1  -2    5.50    0.50
  -2  -1   2    5.80    0.70
  -2  -1   2    6.90    0.80
  -2  -1   2    5.30    0.70
  -2  -1   2    6.80    0.70
  -2  -1   2    6.40    0.60
   1   1  -2  242.28   15.70
   1   1  -2  274.57   15.80
  -1  -1   2  272.87   15.70
  -1  -1   2  267.77   15.80
  -1  -1   2  228.98   15.80
  -1  -1   2  300.57   15.80
  -1  -1   2  238.28   15.80
   0   1  -2  131.89    8.10
   0   1  -2  131.09    8.10
   0  -1   2  135.79    8.10
   0  -1   2  131.09    8.30
  -1   1  -2  855.41   49.99
  -1   1  -2  850.01   49.99
  -1   1  -2  832.12   49.99
   1  -1   2  872.91   50.19
   1  -1   2  816.42   50.19
   1  -1   2  761.32   50.49
  -2   1  -2  139.69    8.80
  -2   1  -2  145.59    8.80
  -2   1  -2  145.69    8.90
  -2   1  -2  153.38    8.90
  -2   1  -2  150.08    8.90
   2  -1   2  131.39    9.50
   2  -1   2  134.19    9.10
   2  -1   2  147.29    9.10
  -3   1  -2   59.39    3.50
  -3   1  -2   49.70    3.50
  -3   1  -2   52.29    3.60
  -3   1  -2   58.59    3.50
  -3   1  -2   53.49    3.70
   3  -1   2   51.69    3.70
   3  -1   2   50.69    4.40
   3  -1   2   50.99    3.90
  -4   1  -2 2522.55  153.98
  -4   1  -2 2608.64  154.28
  -4   1  -2 2584.14  153.88
  -4   1  -2 2632.14  154.18
  -4   1  -2 2805.52  154.28
   4  -1   2 2650.83  154.28
   4  -1   2 2448.75  155.18
   4  -1   2 2288.47  153.88
   4  -1   2 2572.84  154.58
  -5   1  -2    0.80    0.50
  -5   1  -2    1.80    0.70
  -5   1  -2    0.80    0.40
  -5   1  -2    0.90    0.40
   5  -1   2   -0.60    1.00
   5  -1   2    1.50    1.00
  -6   1  -2   -0.90    0.40
  -6   1  -2    0.00    0.30
  -6   1  -2    0.30    0.50
   6  -1   2    0.30    1.20
   6  -1   2    0.50    1.00
  -7   1  -2    3.40    0.80
  -7   1  -2    0.90    0.60
   7  -1   2    1.40    1.50
   7  -1   2    3.60    1.70
  -8   1  -2   -0.30    0.50
  -8   1  -2    0.30    0.60
   8  -1   2    0.70    1.60
  -9   1  -2    0.70    0.50
  -9   1  -2   -0.20    0.50
   9  -1   2   -1.20    1.60
   8   0  -2   -0.20    0.40
  -8   0   2    0.60    0.40
  -8   0   2   -0.60    0.40
  -8   0   2   -0.50    0.40
   7   0  -2    0.80    1.00
   7   0  -2    1.40    0.50
  -7   0   2    1.10    0.40
  -7   0   2    2.00    0.50
  -7   0   2    1.80    0.60
  -7   0   2    2.60    0.70
   6   0  -2    2.50    0.70
   6   0  -2    3.50    1.30
  -6   0   2    3.40    0.70
  -6   0   2    3.90    0.70
  -6   0   2    3.40    0.60
  -6   0   2    3.90    0.80
  -6   0   2    4.30    0.70
   5   0  -2    0.10    0.40
   5   0  -2   -0.40    1.20
   5   0  -2    0.70    0.80
  -5   0   2    0.30    0.30
  -5   0   2    0.10    0.50
  -5   0   2    0.70    0.60
  -5   0   2    0.40    0.50
  -5   0   2    0.80    0.40
  -5   0   2    0.80    0.40
   4   0  -2    6.20    1.40
   4   0  -2    5.90    0.80
  -4   0   2    5.90    0.90
  -4   0   2    6.60    0.80
  -4   0   2    5.90    0.80
  -4   0   2    6.50    0.80
   3   0  -2   21.90    1.60
   3   0  -2   18.20    1.90
  -3   0   2   21.20    1.60
  -3   0   2   20.60    1.50
  -3   0   2   18.80    1.50
  -3   0   2   21.60    1.70
  -3   0   2   22.80    1.70
  -3   0   2   21.60    1.60
   2   0  -2   22.70    2.00
   2   0  -2   27.50    1.70
   2   0  -2   29.40    1.90
  -2   0   2   25.40    1.90
  -2   0   2   27.10    1.80
  -2   0   2   28.40    1.80
  -2   0   2   24.50    1.70
  -2   0   2   27.80    1.90
   1   0  -2   19.90    1.60
   1   0  -2   23.90    1.50
   1   0  -2   26.20    1.70
  -1   0   2   25.90    1.60
  -1   0   2   24.60    1.60
  -1   0   2   26.70    1.60
  -1   0   2   24.10    1.70
  -1   0   2   21.40    1.60
   0   0  -2   29.00    2.00
   0   0  -2   34.90    2.00
   0   0  -2   31.00    2.10
   0   0   2   34.60    2.00
   0   0   2   33.20    2.00
   0   0   2   23.50    2.20
  -1   0  -2   86.89    5.00
  -1   0  -2   83.29    5.00
   1   0   2   75.49    5.50
   1   0   2   77.39    5.20
  -2   0  -2 8299.27  432.86
  -2   0  -2 7749.92  432.56
  -2   0  -2 8183.58  432.66
  -2   0  -2 7249.17  432.96
  -2   0  -2 7913.11  432.76
  -2   0  -2 6959.30  432.86
   2   0   2 6090.49  432.96
   2   0   2 6315.07  432.46
   2   0   2 6206.08  432.66
  -3   0  -2   12.90    1.20
  -3   0  -2   12.10    0.90
  -3   0  -2   12.00    1.20
  -3   0  -2   12.30    1.10
  -3   0  -2   11.60    0.90
   3   0   2   12.70    1.90
   3   0   2   15.40    2.40
   3   0   2   12.50    1.10
  -4   0  -2    6.60    0.90
  -4   0  -2    7.40    0.70
  -4   0  -2    7.20    0.80
  -4   0  -2    7.90    1.00
  -4   0  -2    7.40    1.00
   4   0   2    7.80    1.70
   4   0   2    9.00    2.00
   4   0   2    8.40    1.10
   4   0   2    7.30    0.90
  -5   0  -2    2.10    0.60
  -5   0  -2    2.90    0.70
  -5   0  -2    1.80    0.40
  -5   0  -2    1.60    0.40
  -5   0  -2    1.90    0.60
   5   0   2    2.80    1.00
   5   0   2    1.50    1.20
   5   0   2    0.60    1.10
  -6   0  -2    1.80    0.60
  -6   0  -2    0.70    0.40
  -6   0  -2    1.60    0.60
  -6   0  -2    0.90    0.60
   6   0   2    0.40    1.30
  -7   0  -2    3.60    0.80
  -7   0  -2    2.10    0.70
  -7   0  -2    1.80    0.70
   7   0   2    3.10    1.60
   7   0   2    0.90    1.50
  -8   0  -2   -0.10    0.50
  -8   0  -2   -0.60    0.40
  -8   0  -2    0.10    0.60
   8   0   2   -0.10    1.30
  -9   0  -2    0.80    0.60
  -9   0  -2    0.90    0.50
   9   0   2    0.30    1.40
   8  -1  -2    1.60    0.60
   8  -1  -2    2.80    1.50
  -8   1   2    1.10    0.40
  -8   1   2    2.00    0.70
  -8   1   2    2.20    0.60
   7  -1  -2    0.10    0.90
  -7   1   2   -0.40    0.40
  -7   1   2   -0.10    0.40
  -7   1   2    0.90    0.50
  -7   1   2   -0.20    0.30
   6  -1  -2    9.40    2.00
  -6   1   2    7.40    1.00
  -6   1   2    9.70    1.30
  -6   1   2    9.70    1.10
  -6   1   2    7.40    0.90
   5  -1  -2   31.00    3.20
  -5   1   2   32.30    2.50
  -5   1   2   31.10    2.40
  -5   1   2   32.70    2.30
  -5   1   2   32.30    2.30
  -5   1   2   31.30    2.50
   4  -1  -2    6.30    1.40
   4  -1  -2    5.00    1.30
  -4   1   2    5.90    0.70
  -4   1   2    4.50    0.70
   3  -1  -2   75.19    5.50
   3  -1  -2   71.49    5.70
  -3   1   2   80.89    5.10
  -3   1   2   83.39    5.20
  -3   1   2   84.89    5.20
  -3   1   2   88.89    5.30
   2  -1  -2   26.70    2.40
   2  -1  -2   29.80    1.90
   2  -1  -2   29.00    2.40
  -2   1   2   30.10    2.10
  -2   1   2   27.60    2.00
  -2   1   2   29.50    2.00
  -2   1   2   29.30    2.00
  -2   1   2   30.50    2.00
  -2   1   2   28.70    2.10
   1  -1  -2   91.39    5.40
   1  -1  -2   83.69    5.70
  -1   1   2   90.59    5.50
  -1   1   2   87.29    5.70
  -1   1   2   93.99    5.50
  -1   1   2   86.29    5.50
  -1   1   2   86.19    5.50
  -1   1   2   87.49    5.60
   0  -1  -2 2440.56  132.69
   0  -1  -2 2221.78  132.89
   0   1   2 2163.28  132.59
   0   1   2 2350.96  132.69
   0   1   2 2018.70  132.69
   0   1   2 1888.41  132.89
   0   1   2 2402.96  132.69
  -1  -1  -2  594.74   33.30
  -1  -1  -2  573.04   33.60
  -1  -1  -2  523.65   33.40
  -1  -1  -2  528.55   33.40
   1   1   2  530.95   33.90
   1   1   2  552.34   33.50
   1   1   2  583.74   33.60
   1   1   2  552.14   33.90
  -2  -1  -2    0.80    0.30
  -2  -1  -2    0.80    0.40
  -2  -1  -2    0.90    0.30
  -2  -1  -2    0.70    0.20
  -2  -1  -2    0.10    0.40
  -2  -1  -2    0.60    0.20
   2   1   2    0.80    0.90
   2   1   2    0.40    0.40
   2   1   2    0.60    0.70
  -3  -1  -2   46.80    2.90
  -3  -1  -2   47.60    3.10
  -3  -1  -2   48.10    3.10
  -3  -1  -2   47.20    3.20
  -3  -1  -2   44.60    3.20
   3   1   2   48.50    3.20
   3   1   2   43.60    4.10
   3   1   2   41.40    3.80
  -4  -1  -2   13.00    1.10
  -4  -1  -2   16.60    1.70
  -4  -1  -2   12.90    1.30
  -4  -1  -2   14.00    1.30
  -4  -1  -2   13.40    1.30
  -4  -1  -2   14.90    1.10
   4   1   2   13.90    1.40
   4   1   2   11.90    2.10
   4   1   2   16.10    2.80
  -5  -1  -2    0.40    0.30
  -5  -1  -2   -0.50    0.50
  -5  -1  -2    0.30    0.40
  -5  -1  -2    0.30    0.30
  -5  -1  -2   -0.20    0.40
  -5  -1  -2    0.30    0.40
   5   1   2   -0.50    1.00
   5   1   2   -0.40    0.60
   5   1   2    0.40    1.20
  -6  -1  -2    2.70    0.70
  -6  -1  -2    3.40    0.80
  -6  -1  -2    3.30    0.50
  -6  -1  -2    2.60    0.50
  -6  -1  -2    2.60    0.70
  -6  -1  -2    3.50    1.00
   6   1   2    3.70    1.80
   6   1   2    1.60    1.60
  -7  -1  -2    8.60    1.30
  -7  -1  -2   12.10    1.70
  -7  -1  -2    8.60    1.20
  -7  -1  -2    8.30    1.20
   7   1   2    5.30    2.10
  -8  -1  -2    5.10    0.90
  -8  -1  -2    6.80    1.00
  -8  -1  -2    6.70    1.00
   8   1   2    7.40    2.40
   8   1   2    5.70    2.20
  -9  -1  -2    3.00    0.70
  -9  -1  -2    1.60    0.60
   9   1   2    3.20    2.00
   8  -2  -2    0.40    1.10
  -8   2   2    1.20    0.50
  -8   2   2    0.60    0.50
  -8   2   2    1.40    0.60
   7  -2  -2    8.20    2.10
  -7   2   2    7.30    1.00
  -7   2   2    5.40    0.90
  -7   2   2    8.00    1.20
   6  -2  -2    9.90    2.20
  -6   2   2   13.70    1.20
  -6   2   2   15.00    1.30
  -6   2   2   17.00    1.60
  -6   2   2   16.20    1.40
   5  -2  -2    3.50    1.30
  -5   2   2    4.60    0.60
  -5   2   2    5.10    1.00
  -5   2   2    4.50    0.80
  -5   2   2    3.80    0.70
   4  -2  -2    0.90    0.40
   4  -2  -2    1.00    0.80
  -4   2   2    0.40    0.30
  -4   2   2    1.30    0.50
  -4   2   2    0.80    0.50
  -4   2   2    0.40    0.40
   3  -2  -2    0.60    0.30
   3  -2  -2    0.60    0.50
   3  -2  -2    0.40    0.50
  -3   2   2    0.30    0.40
  -3   2   2    0.10    0.20
  -3   2   2    0.10    0.40
  -3   2   2    0.20    0.40
  -3   2   2    0.20    0.30
  -3   2   2    0.70    0.40
   2  -2  -2   49.50    3.80
   2  -2  -2   51.99    3.20
  -2   2   2   49.70    3.50
  -2   2   2   44.60    3.20
  -2   2   2   47.90    3.30
  -2   2   2   49.99    3.30
  -2   2   2   49.40    3.40
  -2   2   2   55.29    3.20
   1  -2  -2   29.50    2.30
   1  -2  -2   28.60    2.00
  -1   2   2   29.90    2.10
  -1   2   2   31.40    2.10
  -1   2   2   30.00    2.20
  -1   2   2   29.60    2.50
  -1   2   2   31.40    2.00
  -1   2   2   31.00    2.10
  -1   2   2   31.10    2.10
   0   2   2   21.10    1.50
   0   2   2   22.80    1.70
   0   2   2   18.30    1.40
   0   2   2   20.00    1.90
   0   2   2   24.90    1.90
  -1  -2  -2  228.28   13.80
  -1  -2  -2  241.58   13.60
  -1  -2  -2  212.58   13.70
  -1  -2  -2  195.58   13.60
   1   2   2  237.68   13.90
   1   2   2  242.08   13.90
   1   2   2  217.58   14.30
  -2  -2  -2   13.30    1.30
  -2  -2  -2   12.70    1.30
  -2  -2  -2   14.20    1.10
  -2  -2  -2   13.00    0.90
  -2  -2  -2   13.70    1.00
   2   2   2   12.20    1.90
   2   2   2   12.50    1.30
   2   2   2   13.00    1.30
  -3  -2  -2    7.30    0.70
  -3  -2  -2    7.20    1.00
  -3  -2  -2    7.30    0.70
  -3  -2  -2    7.00    0.90
   3   2   2    7.40    1.10
   3   2   2    8.20    0.90
   3   2   2    6.40    1.60
  -4  -2  -2   16.80    1.80
  -4  -2  -2   16.90    1.40
  -4  -2  -2   17.80    1.30
  -4  -2  -2   17.10    1.40
  -4  -2  -2   17.30    1.60
  -4  -2  -2   17.90    1.40
   4   2   2   18.80    1.50
   4   2   2   20.90    3.00
   4   2   2    9.70    2.40
   4   2   2   15.20    1.80
  -5  -2  -2    1.80    0.40
  -5  -2  -2    2.50    0.70
  -5  -2  -2    1.70    0.40
  -5  -2  -2    1.50    0.80
  -5  -2  -2    3.00    0.60
  -5  -2  -2    2.30    0.60
   5   2   2    2.60    0.90
   5   2   2    1.70    1.50
   5   2   2    1.30    1.40
  -6  -2  -2    1.20    0.40
  -6  -2  -2    2.30    0.90
  -6  -2  -2    2.80    0.70
  -6  -2  -2    1.80    0.60
  -6  -2  -2    0.60    0.50
  -6  -2  -2    2.30    0.50
   6   2   2    1.30    0.80
   6   2   2    2.10    1.60
   6   2   2    0.50    1.50
  -7  -2  -2   28.80    2.10
  -7  -2  -2   30.10    2.40
  -7  -2  -2   26.40    2.20
  -7  -2  -2   31.40    2.70
  -7  -2  -2   27.10    2.20
   7   2   2   33.80    4.50
   7   2   2   27.20    4.40
  -8  -2  -2    3.70    0.90
  -8  -2  -2    3.50    1.20
  -8  -2  -2    2.00    0.60
   8   2   2    0.80    1.70
   8   2   2    0.90    1.40
  -9  -2  -2    0.80    0.50
  -9  -2  -2    3.20    1.20
  -9  -2  -2    1.50    0.50
   9   2   2    2.30    1.80
   8  -3  -2    2.20    1.50
  -8   3   2    2.60    0.60
  -8   3   2    2.60    0.70
  -8   3   2    1.30    0.50
   7  -3  -2    1.10    1.10
  -7   3   2    1.80    0.60
  -7   3   2    1.90    0.60
  -7   3   2    2.10    0.70
   6  -3  -2    8.80    2.10
  -6   3   2    7.60    1.00
  -6   3   2    7.80    1.20
  -6   3   2    6.60    1.00
   5  -3  -2    4.90    1.60
  -5   3   2    8.50    1.00
  -5   3   2    7.50    0.80
  -5   3   2    6.80    0.90
  -5   3   2    8.00    1.10
   4  -3  -2   46.80    3.00
   4  -3  -2   48.60    4.30
  -4   3   2   39.20    2.90
  -4   3   2   45.80    3.20
  -4   3   2   44.80    3.10
  -4   3   2   43.60    3.30
   3  -3  -2   19.10    2.30
   3  -3  -2   20.20    1.40
  -3   3   2   20.50    1.60
  -3   3   2   19.70    1.50
  -3   3   2   16.90    1.40
  -3   3   2   19.70    1.80
  -3   3   2   19.10    1.50
  -3   3   2   20.40    1.70
   2  -3  -2    2.70    0.50
   2  -3  -2    2.00    0.70
  -2   3   2    1.80    0.50
  -2   3   2    1.30    0.50
  -2   3   2    2.90    0.90
  -2   3   2    2.20    0.60
  -2   3   2    2.70    0.50
  -2   3   2    1.70    0.50
   1  -3  -2  137.79    9.30
   1  -3  -2  162.28    9.80
   1  -3  -2  174.38    9.40
  -1   3   2  140.69    9.50
  -1   3   2  144.89    9.30
  -1   3   2  145.89    9.50
  -1   3   2  154.48    9.40
  -1   3   2  149.09    9.40
  -1   3   2  153.28    9.80
   0  -3  -2  361.16   25.30
   0  -3  -2  448.06   25.50
   0   3   2  476.95   25.80
   0   3   2  428.66   25.60
   0   3   2  409.66   25.30
   0   3   2  411.76   25.80
   0   3   2  399.76   25.30
  -1  -3  -2    0.40    0.40
  -1  -3  -2    0.20    0.20
  -1  -3  -2    0.30    0.20
  -1  -3  -2    0.00    0.20
   1   3   2   -0.20    0.50
   1   3   2    0.10    0.70
   1   3   2    0.40    0.20
   1   3   2    0.20    0.60
  -2  -3  -2  110.19    7.20
  -2  -3  -2  117.29    7.00
  -2  -3  -2  115.59    7.40
  -2  -3  -2  112.99    7.10
  -2  -3  -2  110.39    7.00
   2   3   2  110.89    8.00
   2   3   2  114.89    7.50
   2   3   2  119.89    7.30
  -3  -3  -2    8.50    1.10
  -3  -3  -2    8.50    0.60
  -3  -3  -2    9.70    0.80
  -3  -3  -2    7.80    0.90
  -3  -3  -2    9.90    1.30
   3   3   2    7.10    1.70
   3   3   2    8.20    0.60
   3   3   2    9.60    1.10
   3   3   2    9.00    1.40
  -4  -3  -2   78.59    4.90
  -4  -3  -2   68.59    4.50
  -4  -3  -2   74.69    4.60
   4   3   2   65.69    5.20
   4   3   2   74.29    4.80
   4   3   2   70.69    4.40
   4   3   2   65.59    5.90
  -5  -3  -2   77.89    5.20
  -5  -3  -2   78.99    5.00
  -5  -3  -2   76.39    5.40
  -5  -3  -2   82.09    5.10
   5   3   2   77.49    5.60
   5   3   2   74.89    6.50
  -6  -3  -2    0.30    0.50
  -6  -3  -2   -0.30    0.40
  -6  -3  -2   -0.40    0.30
  -6  -3  -2    0.20    0.30
  -6  -3  -2    0.30    0.70
  -6  -3  -2    0.00    0.40
   6   3   2   -0.10    1.40
   6   3   2   -0.70    1.20
   6   3   2    0.30    0.80
  -7  -3  -2   12.70    1.40
  -7  -3  -2   16.70    2.10
  -7  -3  -2   14.20    1.70
   7   3   2   17.20    3.70
   7   3   2   16.20    3.30
   7   3   2   14.80    2.10
  -8  -3  -2    2.60    1.10
  -8  -3  -2    0.80    0.50
   8   3   2    1.10    1.80
   8   3   2   -0.60    1.90
  -9  -3  -2   -0.40    0.40
  -9  -3  -2    0.00    1.00
   9   3   2   -0.30    1.60
   7  -4  -2    3.30    1.60
  -7   4   2    4.00    0.80
  -7   4   2    4.80    0.80
  -7   4   2    1.70    0.70
   6  -4  -2    5.30    1.90
  -6   4   2    4.80    0.80
  -6   4   2    3.40    0.70
  -6   4   2    1.90    0.70
   5  -4  -2    4.50    1.60
  -5   4   2    6.50    1.10
  -5   4   2    7.00    1.00
  -5   4   2    7.80    1.00
   4  -4  -2   10.00    1.00
   4  -4  -2    9.60    2.00
  -4   4   2    7.00    0.80
  -4   4   2    9.90    1.10
  -4   4   2   10.60    1.00
  -4   4   2    9.20    1.30
  -4   4   2    7.50    0.90
   3  -4  -2    3.10    1.10
   3  -4  -2    1.80    0.50
  -3   4   2    1.70    0.70
  -3   4   2    4.00    0.70
  -3   4   2    1.80    0.50
  -3   4   2    2.20    0.60
  -3   4   2    2.40    0.40
  -3   4   2    3.80    1.10
   2  -4  -2  260.07   15.90
   2  -4  -2  254.47   15.00
  -2   4   2  249.38   15.10
  -2   4   2  240.78   15.00
  -2   4   2  240.98   15.10
  -2   4   2  223.08   14.90
  -2   4   2  231.78   15.30
  -2   4   2  251.77   15.00
   1  -4  -2   23.00    1.60
   1  -4  -2   16.80    1.40
   1  -4  -2   20.80    1.90
  -1   4   2   18.20    1.40
  -1   4   2   19.00    2.10
  -1   4   2   16.10    1.80
  -1   4   2   16.30    1.70
  -1   4   2   17.90    1.50
  -1   4   2   16.90    1.50
   0  -4  -2    0.10    0.30
   0  -4  -2   -0.10    0.30
   0  -4  -2   -0.10    0.20
   0   4   2    0.60    0.70
   0   4   2   -0.80    0.50
   0   4   2   -0.60    0.70
   0   4   2    0.10    0.30
  -1  -4  -2   34.80    2.30
  -1  -4  -2   37.00    2.50
  -1  -4  -2   33.70    2.50
  -1  -4  -2   35.30    2.40
   1   4   2   36.40    2.80
   1   4   2   36.60    2.30
   1   4   2   33.00    3.20
   1   4   2   34.80    2.30
   1   4   2   36.90    2.90
  -2  -4  -2  276.17   17.30
  -2  -4  -2  273.97   17.50
  -2  -4  -2  286.07   17.20
  -2  -4  -2  282.27   17.60
  -2  -4  -2  287.37   17.40
   2   4   2  286.97   17.70
   2   4   2  292.37   17.20
   2   4   2  296.97   17.90
   2   4   2  284.57   18.50
  -3  -4  -2  205.98   12.70
  -3  -4  -2  213.58   13.00
  -3  -4  -2  201.28   13.10
  -3  -4  -2  211.38   13.30
  -3  -4  -2  206.28   12.70
   3   4   2  209.48   12.60
   3   4   2  216.68   13.10
   3   4   2  209.18   14.20
   3   4   2  217.08   13.40
  -4  -4  -2    2.70    0.60
  -4  -4  -2    2.50    0.50
   4   4   2    3.90    1.10
   4   4   2    2.60    1.50
   4   4   2    2.10    0.80
  -5  -4  -2    7.00    1.30
  -5  -4  -2    6.80    1.00
  -5  -4  -2    7.40    0.90
   5   4   2    7.70    2.30
   5   4   2    5.80    1.40
  -6  -4  -2    4.80    0.90
  -6  -4  -2    6.90    1.40
   6   4   2    3.70    1.30
   6   4   2    4.00    2.10
  -7  -4  -2   -0.20    0.80
  -7  -4  -2    0.20    0.50
   7   4   2    0.30    1.70
   7   4   2   -0.70    0.80
   7   4   2   -1.10    1.70
  -8  -4  -2   -0.30    0.40
  -8  -4  -2    0.10    0.90
   8   4   2   -0.60    1.80
   8   4   2    2.40    2.10
  -9  -4  -2    1.80    1.10
  -9  -4  -2    0.20    0.50
   9   4   2   -1.60    1.80
   9   4   2    0.20    2.40
   7  -5  -2    1.70    1.50
  -7   5   2    0.40    0.50
  -7   5   2    0.30    0.40
  -7   5   2    0.70    0.60
   6  -5  -2    1.10    1.20
  -6   5   2    0.20    0.50
  -6   5   2    0.10    0.50
  -6   5   2    0.90    0.60
   5  -5  -2    2.70    1.30
  -5   5   2    5.60    1.00
  -5   5   2    4.80    0.80
  -5   5   2    3.80    0.80
   4  -5  -2   33.70    2.30
   4  -5  -2   36.90    3.70
  -4   5   2   28.50    2.50
  -4   5   2   29.60    2.30
  -4   5   2   28.00    2.40
   3  -5  -2    2.40    1.10
   3  -5  -2    1.50    0.50
  -3   5   2    0.30    0.60
  -3   5   2    0.80    0.80
  -3   5   2    1.40    0.40
  -3   5   2    2.00    0.50
  -3   5   2    1.40    0.50
  -3   5   2    0.90    0.50
   2  -5  -2    3.50    0.60
   2  -5  -2    5.20    0.80
   2  -5  -2    3.90    1.10
  -2   5   2    3.40    0.60
  -2   5   2    4.00    0.80
  -2   5   2    4.70    0.70
  -2   5   2    2.80    1.00
  -2   5   2    5.10    0.80
  -2   5   2    3.70    0.80
   1  -5  -2  227.98   12.70
   1  -5  -2  212.28   12.50
  -1   5   2  185.78   12.80
  -1   5   2  199.88   12.40
  -1   5   2  194.28   12.80
  -1   5   2  194.58   13.00
  -1   5   2  191.18   12.50
  -1   5   2  208.58   12.60
   0  -5  -2   61.69    3.90
   0  -5  -2   43.00    3.60
   0  -5  -2   52.59    3.50
   0   5   2   59.19    4.30
   0   5   2   56.29    4.40
   0   5   2   50.59    3.60
   0   5   2   55.39    4.10
  -1  -5  -2   95.99    6.00
  -1  -5  -2   89.79    6.00
  -1  -5  -2   90.59    5.90
  -1  -5  -2  104.79    6.10
   1   5   2   94.39    5.90
   1   5   2   86.69    6.90
   1   5   2   94.09    6.50
   1   5   2   91.39    6.40
   1   5   2   92.59    5.90
  -2  -5  -2    5.60    0.80
  -2  -5  -2    6.20    0.70
  -2  -5  -2    5.50    0.90
  -2  -5  -2    5.20    0.60
   2   5   2    6.00    0.60
   2   5   2    5.40    1.50
   2   5   2    4.50    1.20
   2   5   2    4.60    0.60
   2   5   2    4.50    1.00
  -3  -5  -2    4.60    0.50
  -3  -5  -2    4.90    0.90
  -3  -5  -2    4.30    0.90
  -3  -5  -2    4.40    0.70
   3   5   2    3.90    1.10
   3   5   2    4.20    1.70
   3   5   2    5.70    1.10
  -4  -5  -2   52.49    4.10
  -4  -5  -2   57.79    4.10
  -4  -5  -2   54.59    3.80
   4   5   2   59.49    4.40
   4   5   2   58.69    4.00
   4   5   2   61.39    5.50
  -5  -5  -2   16.30    1.60
  -5  -5  -2   18.90    2.10
   5   5   2   13.10    2.10
   5   5   2   19.00    3.30
  -6  -5  -2    3.40    0.80
  -6  -5  -2    4.40    1.20
   6   5   2    1.50    1.10
   6   5   2    4.20    2.40
  -7  -5  -2    2.20    1.10
  -7  -5  -2    2.10    0.70
   7   5   2    0.60    2.10
   7   5   2    1.40    1.10
  -8  -5  -2    0.10    1.00
  -8  -5  -2    0.10    0.50
   8   5   2   -0.10    1.90
   8   5   2    0.10    1.90
   8   5   2   -0.20    1.00
  -9  -5  -2    0.50    0.50
  -9  -5  -2   -0.10    0.90
   9   5   2   -0.40    2.00
   9   5   2    1.20    1.90
   6  -6  -2    2.50    1.40
  -6   6   2    1.80    0.60
  -6   6   2    2.10    0.70
  -6   6   2    4.10    0.70
   5  -6  -2    0.10    1.00
  -5   6   2    0.20    0.40
  -5   6   2   -0.10    0.40
  -5   6   2   -0.40    0.60
   4  -6  -2    2.30    1.20
   4  -6  -2    5.40    0.80
  -4   6   2    5.00    1.00
  -4   6   2    5.30    0.90
  -4   6   2    4.30    0.70
   3  -6  -2   29.80    3.10
   3  -6  -2   29.00    2.10
  -3   6   2   22.80    1.90
  -3   6   2   22.70    2.20
  -3   6   2   23.30    2.50
  -3   6   2   29.90    2.00
  -3   6   2   27.30    2.60
  -3   6   2   28.10    2.20
   2  -6  -2    8.70    1.60
   2  -6  -2    7.30    1.00
  -2   6   2    6.50    0.90
  -2   6   2    9.00    1.10
  -2   6   2    6.80    1.40
  -2   6   2    6.80    1.10
  -2   6   2    7.40    1.10
   1  -6  -2    7.20    1.30
   1  -6  -2    6.40    1.10
   1  -6  -2    6.10    0.90
   1  -6  -2    6.30    0.80
  -1   6   2    3.90    0.80
  -1   6   2    6.50    1.00
  -1   6   2    4.80    1.20
  -1   6   2    5.80    1.10
  -1   6   2    5.60    0.70
   0  -6  -2   -0.10    0.40
   0  -6  -2    0.20    0.30
   0  -6  -2    0.20    0.40
   0   6   2    0.20    0.70
   0   6   2    0.00    0.40
   0   6   2    0.20    0.80
   0   6   2    0.30    0.90
  -1  -6  -2   30.30    2.10
  -1  -6  -2   27.40    2.00
  -1  -6  -2   24.70    2.10
  -1  -6  -2   25.20    1.80
   1   6   2   26.60    2.50
   1   6   2   25.40    2.50
   1   6   2   24.60    3.00
   1   6   2   24.90    1.90
   1   6   2   25.20    1.90
  -2  -6  -2  139.69    8.40
  -2  -6  -2  130.99    8.70
  -2  -6  -2  133.19    8.40
  -2  -6  -2  134.59    8.70
   2   6   2  133.89    9.20
   2   6   2  141.99   10.00
   2   6   2  140.39    8.40
   2   6   2  132.49    9.00
  -3  -6  -2    3.00    0.70
  -3  -6  -2    3.20    0.80
  -3  -6  -2    1.40    0.40
  -3  -6  -2    3.10    0.40
   3   6   2    2.30    1.00
   3   6   2    3.10    1.10
   3   6   2    4.20    1.80
  -4  -6  -2   52.49    4.10
  -4  -6  -2   57.99    4.10
  -4  -6  -2   57.29    3.90
   4   6   2   66.29    5.80
   4   6   2   54.59    4.50
   4   6   2   55.59    4.20
  -5  -6  -2   90.29    6.50
  -5  -6  -2   98.49    6.30
   5   6   2   87.59    6.80
   5   6   2  112.89    8.60
  -6  -6  -2    3.20    0.80
  -6  -6  -2    3.10    1.10
   6   6   2    2.10    1.10
   6   6   2    4.10    2.20
  -7  -6  -2    0.40    1.00
  -7  -6  -2    0.90    0.60
   7   6   2    1.30    1.10
   7   6   2    0.30    1.90
  -8  -6  -2    0.60    0.50
  -8  -6  -2    1.20    1.10
   8   6   2   -0.90    2.00
   8   6   2    1.00    1.20
   6  -7  -2    0.50    1.10
  -6   7   2    1.00    0.40
  -6   7   2    0.40    0.60
  -6   7   2    0.60    0.60
   5  -7  -2    1.20    0.80
   5  -7  -2    1.80    1.20
  -5   7   2    0.60    0.60
  -5   7   2    1.50    0.60
  -5   7   2    0.40    0.40
   4  -7  -2    1.40    0.60
   4  -7  -2    2.00    1.30
  -4   7   2    1.60    0.60
  -4   7   2    2.10    0.80
  -4   7   2    1.50    0.50
   3  -7  -2    2.60    0.70
   3  -7  -2    4.20    1.40
  -3   7   2    0.90    1.00
  -3   7   2    4.10    0.80
  -3   7   2    3.00    0.80
  -3   7   2    2.50    0.60
   2  -7  -2    2.70    0.70
   2  -7  -2    3.80    1.20
  -2   7   2    1.70    0.70
  -2   7   2    0.70    1.00
  -2   7   2    2.00    0.50
  -2   7   2    2.40    0.70
  -2   7   2    1.20    0.70
   1  -7  -2    0.80    0.50
   1  -7  -2    0.50    0.60
   1  -7  -2    0.20    0.60
  -1   7   2    0.00    0.50
  -1   7   2    0.60    1.00
  -1   7   2    1.00    0.80
  -1   7   2    0.70    0.60
   0  -7  -2    2.50    0.70
   0  -7  -2    2.20    0.50
   0  -7  -2    1.80    0.60
   0   7   2    2.00    0.70
   0   7   2    2.80    1.10
   0   7   2    2.60    1.00
  -1  -7  -2   17.80    1.70
  -1  -7  -2   19.80    1.60
  -1  -7  -2   19.40    1.70
  -1  -7  -2   16.30    1.40
   1   7   2   17.50    2.30
   1   7   2   16.60    2.20
   1   7   2   16.20    1.50
   1   7   2   19.50    3.00
  -2  -7  -2  119.69    7.20
  -2  -7  -2  115.99    7.40
  -2  -7  -2  112.49    7.40
  -2  -7  -2  107.09    7.10
   2   7   2  118.39    8.80
   2   7   2  117.89    7.80
   2   7   2  108.59    7.90
  -3  -7  -2  204.98   12.30
  -3  -7  -2  196.88   12.70
  -3  -7  -2  195.58   12.40
  -3  -7  -2  195.88   12.60
   3   7   2  189.28   12.90
   3   7   2  227.78   14.50
  -4  -7  -2   16.30    1.80
  -4  -7  -2   17.00    1.60
   4   7   2   14.90    2.30
   4   7   2   18.70    2.20
   4   7   2   21.80    3.60
  -5  -7  -2   59.89    4.60
  -5  -7  -2   62.39    4.40
   5   7   2   81.49    6.90
   5   7   2   61.49    5.10
  -6  -7  -2   15.40    2.00
  -6  -7  -2   16.90    1.70
   6   7   2   23.30    4.30
   6   7   2   18.40    2.50
  -7  -7  -2    0.80    0.60
  -7  -7  -2    0.30    0.90
   7   7   2   -0.90    0.80
   7   7   2   -0.10    1.90
  -8  -7  -2   -0.10    0.40
  -8  -7  -2   -0.40    0.80
   8   7   2    0.00    1.90
   8   7   2   -0.30    1.00
   5  -8  -2    3.70    1.60
   5  -8  -2    0.70    0.50
  -5   8   2    0.90    0.40
  -5   8   2   -0.20    0.50
  -5   8   2    1.50    0.80
   4  -8  -2   -0.30    0.50
   4  -8  -2    0.40    1.10
  -4   8   2   -0.70    0.50
  -4   8   2    0.20    0.70
   3  -8  -2    1.10    1.00
   3  -8  -2    0.60    0.60
  -3   8   2    1.10    0.70
  -3   8   2    2.00    0.80
  -3   8   2    0.20    0.90
   2  -8  -2    2.40    0.70
   2  -8  -2    4.20    1.20
  -2   8   2    3.10    0.80
  -2   8   2    3.00    1.20
  -2   8   2    1.70    0.70
   1  -8  -2    0.40    0.50
   1  -8  -2    1.80    0.80
  -1   8   2    1.10    1.00
  -1   8   2    0.70    0.80
  -1   8   2    0.40    0.60
  -1   8   2    0.90    0.60
   0  -8  -2   38.40    2.60
   0  -8  -2   43.30    3.20
   0  -8  -2   38.00    2.90
   0  -8  -2   36.00    2.90
   0   8   2   37.00    3.50
   0   8   2   41.00    3.40
  -1  -8  -2   86.39    5.40
  -1  -8  -2   72.89    5.00
  -1  -8  -2   82.09    5.10
  -1  -8  -2   74.19    5.20
   1   8   2   70.79    5.70
   1   8   2   79.39    6.60
   1   8   2   75.49    5.70
  -2  -8  -2   48.30    3.10
  -2  -8  -2   46.80    3.40
  -2  -8  -2   40.70    3.40
  -2  -8  -2   44.90    3.10
   2   8   2   44.70    3.90
   2   8   2   41.30    3.70
   2   8   2   48.10    4.90
  -3  -8  -2   43.40    3.40
  -3  -8  -2   40.80    3.00
  -3  -8  -2   45.10    2.90
   3   8   2   52.69    5.20
   3   8   2   41.30    3.70
  -4  -8  -2   -0.90    0.60
  -4  -8  -2   -0.10    0.30
   4   8   2   -0.20    1.80
   4   8   2   -0.40    0.90
   4   8   2   -0.40    0.90
  -5  -8  -2    3.80    0.90
  -5  -8  -2    4.00    0.80
   5   8   2    5.60    2.40
   5   8   2    3.30    1.30
  -6  -8  -2    0.60    0.50
   6   8   2    0.20    1.70
   6   8   2    0.40    1.00
  -7  -8  -2   -0.30    0.50
  -7  -8  -2    0.80    0.90
   7   8   2    0.90    0.90
   7   8   2   -0.10    2.00
   4  -9  -2    2.80    0.70
   4  -9  -2    3.00    1.30
  -4   9   2    3.90    0.90
  -4   9   2    3.40    0.80
   3  -9  -2    1.70    1.00
   3  -9  -2    2.70    0.70
  -3   9   2    2.10    0.70
  -3   9   2    1.70    0.80
  -3   9   2    0.90    1.00
   2  -9  -2    4.30    0.80
   2  -9  -2    8.20    1.70
  -2   9   2    6.00    1.00
  -2   9   2    3.60    0.90
  -2   9   2    3.40    1.20
   1  -9  -2   13.20    1.80
   1  -9  -2   10.10    1.30
  -1   9   2    9.00    1.70
  -1   9   2    9.30    2.20
  -1   9   2    9.70    1.40
   0  -9  -2    0.00    0.50
   0  -9  -2    0.70    0.60
   0  -9  -2    0.50    0.30
   0   9   2    0.50    0.80
   0   9   2    0.70    0.70
  -1  -9  -2    0.80    0.40
  -1  -9  -2    1.20    0.50
  -1  -9  -2    0.50    0.60
   1   9   2    0.00    0.80
   1   9   2    0.90    1.00
  -2  -9  -2    4.20    1.00
  -2  -9  -2    4.30    0.70
  -2  -9  -2    3.80    0.60
   2   9   2    6.00    2.30
   2   9   2    4.40    1.30
   2   9   2    3.40    1.20
  -3  -9  -2    0.50    0.70
  -3  -9  -2    0.30    0.30
  -3  -9  -2   -0.10    0.30
   3   9   2    1.80    1.10
   3   9   2   -0.60    1.50
   3   9   2   -0.70    1.00
  -4  -9  -2   -0.10    0.30
  -4  -9  -2   -0.50    0.60
   4   9   2    1.20    1.20
   4   9   2    0.70    0.90
   4   9   2    0.30    1.80
  -5  -9  -2    2.80    0.60
  -5  -9  -2    1.50    0.80
   5   9   2    3.90    2.40
   5   9   2    0.50    0.90
  -6  -9  -2    0.30    0.80
  -6  -9  -2    1.00    0.50
   6   9   2    1.70    2.40
   6   9   2    1.10    1.20
   2 -10  -2   -0.10    0.70
   2 -10  -2    0.70    0.50
  -2  10   2    0.70    0.70
  -2  10   2    0.30    0.90
   1 -10  -2    1.20    0.90
   1 -10  -2    2.10    0.60
  -1  10   2    2.40    1.10
  -1  10   2    3.60    0.90
   0 -10  -2    1.00    0.60
   0 -10  -2    0.80    0.40
   0  10   2    1.00    1.00
   0  10   2    2.70    0.90
   0  10   2    0.50    0.90
  -1 -10  -2    2.70    0.60
  -1 -10  -2    4.20    0.60
   1  10   2    3.60    1.20
   1  10   2    1.50    1.00
  -2 -10  -2    1.30    0.40
  -2 -10  -2    0.90    0.80
  -2 -10  -2    1.00    0.40
   2  10   2    0.00    0.80
   2  10   2    1.10    0.80
  -3 -10  -2    1.80    0.50
  -3 -10  -2    3.60    0.90
   3  10   2    3.80    2.30
   3  10   2    1.40    0.80
   3  10   2    2.00    1.10
  -4 -10  -2    1.30    0.50
  -4 -10  -2    1.00    0.80
   4  10   2    0.70    1.00
   4  10   2    0.10    0.80
   4  10   2    0.20    2.00
  -5 -10  -2    0.40    0.40
  -5 -10  -2    0.20    0.70
   5  10   2    0.00    0.90
   5  10   2    0.80    2.20
  -1 -11  -2    0.30    0.30
  -1 -11  -2   -0.10    0.40
   1  11   2    0.60    0.90
   1  11   2   -0.20    0.80
  -2 -11  -2    1.30    0.50
  -2 -11  -2    0.60    0.40
   2  11   2   -0.10    0.90
   2  11   2    0.60    0.80
   3  11   2    0.30    0.60
   4   9  -3    0.50    1.10
  -4  -9   3   -0.40    0.50
   3   9  -3    1.60    1.10
   3   9  -3    1.60    1.00
  -3  -9   3   -0.20    0.50
   2   9  -3    0.10    1.10
   2   9  -3    0.50    0.80
  -2  -9   3    0.90    0.60
  -2  -9   3    0.60    0.40
  -2  -9   3    0.20    0.50
   1   9  -3    0.50    0.70
   1   9  -3    0.20    0.40
   1   9  -3    0.10    0.70
  -1  -9   3    0.80    0.40
  -1  -9   3   -0.10    0.50
  -1  -9   3    0.30    0.50
  -1  -9   3    0.20    0.40
   0   9  -3   -0.10    0.50
   0   9  -3    0.30    0.70
   0   9  -3    0.50    0.70
   0  -9   3    1.00    0.50
   0  -9   3    1.20    0.70
   0  -9   3    0.80    0.60
   0  -9   3    0.30    0.40
  -1   9  -3    2.20    0.80
  -1   9  -3    1.90    0.70
  -1   9  -3    1.90    0.90
   1  -9   3    3.70    0.70
   1  -9   3    2.70    0.70
   1  -9   3    2.60    0.80
  -2   9  -3    1.30    0.70
  -2   9  -3    1.40    0.60
  -2   9  -3    1.00    0.70
   2  -9   3    1.60    0.60
   2  -9   3    1.70    0.70
   2  -9   3    2.20    0.60
  -3   9  -3    2.90    0.80
  -3   9  -3    2.20    0.70
  -3   9  -3    1.80    0.80
   5   8  -3    1.40    1.10
  -5  -8   3    0.30    0.60
   4   8  -3    3.40    1.30
  -4  -8   3    1.00    0.60
   3   8  -3   -0.10    0.80
   3   8  -3    1.40    1.10
  -3  -8   3    0.80    0.40
  -3  -8   3    0.00    0.50
   2   8  -3    0.00    0.40
   2   8  -3    0.40    0.90
   2   8  -3    0.80    0.80
  -2  -8   3    0.20    0.30
  -2  -8   3    0.30    0.60
  -2  -8   3    0.40    0.30
  -2  -8   3    0.00    0.50
   1   8  -3    0.20    0.60
   1   8  -3    1.00    1.00
   1   8  -3    0.00    0.60
   1   8  -3    0.70    0.50
  -1  -8   3    0.70    0.40
  -1  -8   3    0.50    0.60
  -1  -8   3    0.70    0.30
  -1  -8   3    0.60    0.50
   0   8  -3   13.40    1.40
   0   8  -3   12.80    1.70
   0   8  -3   15.70    1.60
   0  -8   3   14.60    1.60
   0  -8   3   15.20    1.40
   0  -8   3   14.00    1.40
  -1   8  -3    2.80    1.00
  -1   8  -3    5.10    1.00
  -1   8  -3    3.30    0.70
   1  -8   3    4.70    1.00
   1  -8   3    5.10    0.80
   1  -8   3    4.20    0.80
  -2   8  -3    1.50    0.70
  -2   8  -3    0.80    0.70
  -2   8  -3    1.00    0.60
   2  -8   3    1.40    0.50
   2  -8   3    0.20    0.60
   2  -8   3    1.10    0.70
  -3   8  -3    0.20    0.60
  -3   8  -3    0.20    0.70
  -3   8  -3    0.10    0.80
  -3   8  -3    0.10    0.50
   3  -8   3   -0.10    0.50
   3  -8   3    0.30    0.70
   3  -8   3    0.40    0.40
  -4   8  -3    0.10    0.70
  -4   8  -3    0.80    0.60
  -4   8  -3    0.20    0.50
  -4   8  -3    0.20    0.90
   4  -8   3    0.10    0.60
   6   7  -3    0.40    0.90
  -6  -7   3    0.30    0.70
  -6  -7   3   -0.20    0.40
   5   7  -3    0.10    0.90
  -5  -7   3    0.20    0.40
  -5  -7   3   -0.20    0.60
   4   7  -3    4.00    1.30
  -4  -7   3    2.90    0.70
   3   7  -3    1.00    0.40
   3   7  -3    1.30    1.00
   3   7  -3    0.90    0.80
  -3  -7   3    0.20    0.50
  -3  -7   3    1.30    0.40
   2   7  -3   24.90    2.70
   2   7  -3   30.00    2.50
   2   7  -3   32.90    2.10
  -2  -7   3   29.40    2.00
  -2  -7   3   31.70    2.00
  -2  -7   3   26.20    2.20
  -2  -7   3   23.90    2.30
   1   7  -3   20.30    2.20
   1   7  -3   19.10    2.50
   1   7  -3   18.80    1.60
  -1  -7   3   17.30    1.80
  -1  -7   3   20.20    1.50
  -1  -7   3   19.50    1.60
  -1  -7   3   18.10    1.60
   0   7  -3   -0.10    0.40
   0   7  -3    0.80    1.00
   0   7  -3    0.90    0.80
   0   7  -3    0.50    0.60
   0  -7   3    0.50    0.40
   0  -7   3    0.50    0.50
   0  -7   3    0.40    0.60
  -1   7  -3   -0.40    0.60
  -1   7  -3    0.30    0.50
  -1   7  -3    1.00    0.60
   1  -7   3    0.30    0.40
   1  -7   3    0.30    0.60
   1  -7   3    0.60    0.60
  -2   7  -3    0.50    0.70
  -2   7  -3   -0.10    0.50
  -2   7  -3   -0.20    0.50
   2  -7   3    0.00    0.40
   2  -7   3   -0.10    0.60
   2  -7   3    0.10    0.60
  -3   7  -3    0.20    0.60
  -3   7  -3    0.50    0.80
  -3   7  -3    2.00    0.70
  -3   7  -3    0.70    0.60
   3  -7   3    1.10    0.80
   3  -7   3    1.10    0.70
   3  -7   3    0.00    0.80
  -4   7  -3    0.80    0.60
  -4   7  -3    1.30    0.60
  -4   7  -3    1.50    0.90
  -4   7  -3    1.20    0.70
   4  -7   3    0.60    0.60
   4  -7   3    1.10    0.80
   4  -7   3    0.10    1.00
  -5   7  -3    0.50    0.60
  -5   7  -3   -0.20    0.60
   5  -7   3    0.10    0.60
   5  -7   3    0.00    1.00
   7   6  -3   -0.30    1.00
  -7  -6   3    0.60    0.80
  -7  -6   3    0.40    0.40
   6   6  -3   -0.90    0.90
  -6  -6   3   -0.30    0.40
  -6  -6   3   -0.40    0.70
   5   6  -3    2.30    1.10
  -5  -6   3    3.00    0.90
  -5  -6   3    1.30    0.50
   4   6  -3    5.10    1.40
   4   6  -3    5.00    0.60
  -4  -6   3    3.50    0.80
  -4  -6   3    5.00    0.80
   3   6  -3   19.40    2.40
   3   6  -3   20.30    1.80
   3   6  -3   21.60    1.50
  -3  -6   3   18.00    1.70
  -3  -6   3   19.90    1.60
  -3  -6   3   21.30    1.70
   2   6  -3   17.40    1.80
   2   6  -3   20.70    1.50
   2   6  -3   20.50    2.50
  -2  -6   3   16.20    1.70
  -2  -6   3   20.10    1.40
  -2  -6   3   15.00    1.50
  -2  -6   3   18.40    1.40
   1   6  -3   32.00    2.20
   1   6  -3   31.60    2.90
   1   6  -3   30.00    2.50
  -1  -6   3   34.70    2.30
  -1  -6   3   24.40    2.30
  -1  -6   3   31.20    2.00
  -1  -6   3   28.60    2.20
   0   6  -3   74.49    4.90
   0   6  -3   83.99    5.60
   0   6  -3   81.99    5.30
   0  -6   3   74.49    5.20
   0  -6   3   71.59    5.00
   0  -6   3   71.99    4.80
  -1   6  -3   26.60    2.20
  -1   6  -3   26.30    2.50
  -1   6  -3   28.40    2.30
   1  -6   3   31.80    2.10
   1  -6   3   34.00    2.60
   1  -6   3   27.80    2.30
  -2   6  -3   29.90    2.70
  -2   6  -3   32.80    2.40
  -2   6  -3   32.00    2.60
   2  -6   3   32.80    3.20
   2  -6   3   34.70    2.50
  -3   6  -3    3.40    0.80
  -3   6  -3    3.00    0.70
  -3   6  -3    3.90    1.10
  -3   6  -3    4.30    0.80
  -3   6  -3    2.90    0.80
   3  -6   3    4.30    1.10
   3  -6   3    3.20    1.30
   3  -6   3    3.10    0.90
  -4   6  -3    3.90    0.80
  -4   6  -3    1.70    1.00
  -4   6  -3    4.50    0.80
  -4   6  -3    2.60    0.80
  -4   6  -3    3.10    0.90
   4  -6   3    3.90    0.90
   4  -6   3    4.20    1.10
   4  -6   3    3.70    1.50
  -5   6  -3    7.80    1.00
  -5   6  -3    5.20    1.00
  -5   6  -3    2.80    0.80
   5  -6   3    5.20    1.00
   5  -6   3    8.70    2.30
  -6   6  -3   -0.30    0.60
  -6   6  -3    0.40    0.50
   6  -6   3    0.40    1.30
   7   5  -3   -0.20    1.00
  -7  -5   3    0.00    0.40
  -7  -5   3   -0.60    0.80
   6   5  -3    7.00    1.60
  -6  -5   3    6.00    0.80
  -6  -5   3    8.00    1.20
   5   5  -3   21.30    1.60
   5   5  -3   20.20    2.60
  -5  -5   3   22.70    1.80
  -5  -5   3   22.30    2.00
   4   5  -3   17.60    2.40
   4   5  -3   24.10    1.70
  -4  -5   3   24.60    1.80
  -4  -5   3   23.80    1.90
  -4  -5   3   23.90    2.00
   3   5  -3   56.69    4.40
   3   5  -3   59.99    3.70
   3   5  -3   62.59    3.90
  -3  -5   3   45.90    3.90
  -3  -5   3   55.49    3.90
  -3  -5   3   58.19    3.80
  -3  -5   3   60.19    3.70
   2   5  -3  116.09    6.90
   2   5  -3  103.89    7.40
   2   5  -3  118.19    6.70
  -2  -5   3   92.39    7.00
  -2  -5   3  108.79    6.80
  -2  -5   3  106.59    6.70
  -2  -5   3   99.79    6.80
  -2  -5   3  109.29    6.70
   1   5  -3   16.60    2.00
   1   5  -3   14.60    1.30
   1   5  -3   14.60    1.50
  -1  -5   3   16.20    1.30
  -1  -5   3   15.70    1.50
  -1  -5   3   15.80    1.20
  -1  -5   3   16.40    1.30
  -1  -5   3   17.90    1.40
   0   5  -3    4.30    0.90
   0   5  -3    4.90    0.70
   0   5  -3    5.60    1.20
   0  -5   3    4.50    0.60
   0  -5   3    4.60    0.80
   0  -5   3    4.70    0.90
  -1   5  -3   36.40    3.00
  -1   5  -3   37.50    2.60
  -1   5  -3   40.30    2.80
  -1   5  -3   34.60    2.90
  -1   5  -3   37.90    2.70
   1  -5   3   37.20    3.20
   1  -5   3   40.20    2.60
   1  -5   3   37.40    2.80
  -2   5  -3    6.50    1.10
  -2   5  -3    6.00    0.90
  -2   5  -3    8.00    1.10
  -2   5  -3    6.20    0.90
   2  -5   3    5.90    0.90
   2  -5   3   11.70    1.40
   2  -5   3    5.60    1.40
  -3   5  -3   28.30    2.20
  -3   5  -3   28.10    2.20
  -3   5  -3   30.40    2.30
  -3   5  -3   29.40    2.40
  -3   5  -3   28.80    2.40
   3  -5   3   32.70    2.40
   3  -5   3   29.70    3.30
  -4   5  -3    8.50    1.10
  -4   5  -3    8.90    1.30
  -4   5  -3    8.60    1.40
  -4   5  -3   10.40    1.30
  -4   5  -3   10.50    1.10
   4  -5   3   11.20    2.40
   4  -5   3   11.00    1.30
   4  -5   3    9.50    1.60
  -5   5  -3    0.70    0.60
  -5   5  -3    0.10    0.40
  -5   5  -3    0.40    0.60
  -5   5  -3    0.90    0.60
   5  -5   3    0.70    1.10
   5  -5   3    0.10    0.80
   5  -5   3    0.50    0.60
  -6   5  -3    1.70    0.70
  -6   5  -3    1.80    0.80
   6  -5   3    2.50    1.60
  -7   5  -3    1.80    0.80
  -7   5  -3    2.50    0.70
   7  -5   3    1.20    1.50
   8   4  -3    0.50    1.10
  -8  -4   3    0.00    0.40
   7   4  -3    0.90    1.10
  -7  -4   3    0.20    0.40
  -7  -4   3    1.10    0.80
   6   4  -3    7.80    1.70
   6   4  -3    5.80    0.90
  -6  -4   3    7.80    1.20
  -6  -4   3    5.00    0.80
   5   4  -3   13.50    2.20
   5   4  -3   15.30    1.20
  -5  -4   3   12.90    1.50
  -5  -4   3   15.30    1.70
   4   4  -3   19.80    1.40
   4   4  -3   20.00    2.10
  -4  -4   3   17.60    1.60
  -4  -4   3   20.00    1.60
  -4  -4   3   16.70    1.70
   3   4  -3    1.00    0.40
   3   4  -3    0.80    0.50
   3   4  -3   -0.60    0.70
  -3  -4   3    2.00    0.50
  -3  -4   3    1.30    0.40
  -3  -4   3    0.90    0.50
   2   4  -3   87.89    5.90
   2   4  -3   84.89    5.40
   2   4  -3   88.29    5.30
  -2  -4   3   76.59    5.30
  -2  -4   3   85.19    5.40
  -2  -4   3   74.89    5.50
  -2  -4   3   84.29    5.20
  -2  -4   3   86.69    5.20
   1   4  -3   26.00    1.80
   1   4  -3   25.30    2.00
   1   4  -3   23.80    2.30
   1   4  -3   24.80    1.70
  -1  -4   3   26.60    1.90
  -1  -4   3   26.50    1.90
  -1  -4   3   21.70    2.00
  -1  -4   3   25.60    1.70
  -1  -4   3   27.40    1.90
   0   4  -3   -0.40    0.40
   0   4  -3    0.10    0.30
   0   4  -3    0.40    0.30
   0   4  -3    0.70    0.70
   0  -4   3    0.00    0.30
   0  -4   3    0.00    0.30
   0  -4   3   -0.20    0.50
   0  -4   3   -0.30    0.40
   0  -4   3    0.10    0.30
  -1   4  -3   14.90    1.50
  -1   4  -3   14.90    1.70
  -1   4  -3   14.30    1.20
  -1   4  -3   13.40    1.20
   1  -4   3   17.90    1.70
   1  -4   3   14.20    1.70
   1  -4   3   12.60    1.40
  -2   4  -3  155.08    9.60
  -2   4  -3  144.09    9.80
  -2   4  -3  155.38    9.80
  -2   4  -3  161.18    9.80
  -2   4  -3  158.48    9.70
   2  -4   3  149.88   10.60
   2  -4   3  159.18    9.80
  -3   4  -3   15.50    1.40
  -3   4  -3   17.90    1.40
  -3   4  -3   17.20    1.50
  -3   4  -3   15.40    1.60
  -3   4  -3   16.80    1.60
   3  -4   3   14.80    1.60
   3  -4   3   15.20    2.20
   3  -4   3   17.70    2.00
  -4   4  -3    0.40    0.50
  -4   4  -3   -0.20    0.50
  -4   4  -3    0.00    0.40
  -4   4  -3    0.30    0.60
  -4   4  -3   -0.10    0.40
   4  -4   3    0.80    0.70
   4  -4   3    1.50    1.00
   4  -4   3    0.50    0.80
  -5   4  -3    0.40    0.50
  -5   4  -3   -0.40    0.40
  -5   4  -3   -0.30    0.50
  -5   4  -3    0.10    0.40
   5  -4   3   -0.30    0.60
   5  -4   3    0.20    0.90
   5  -4   3    0.10    0.90
  -6   4  -3    3.70    1.00
  -6   4  -3    2.90    0.80
   6  -4   3    4.30    1.40
   6  -4   3    8.00    2.30
  -7   4  -3   -0.30    0.50
  -7   4  -3   -0.20    0.50
   7  -4   3    0.40    1.30
  -8   4  -3   -0.30    0.50
  -8   4  -3    0.00    0.50
   8  -4   3    0.00    1.50
   8   3  -3   -0.10    1.10
  -8  -3   3    0.00    0.30
  -8  -3   3   -0.10    0.40
   7   3  -3    4.00    1.40
  -7  -3   3    6.30    1.20
  -7  -3   3    4.20    0.80
  -7  -3   3    4.70    0.80
   6   3  -3   21.70    1.70
   6   3  -3   25.70    2.60
  -6  -3   3   19.60    1.80
  -6  -3   3   21.90    1.80
  -6  -3   3   21.40    2.10
   5   3  -3    2.50    1.00
   5   3  -3    3.60    0.60
  -5  -3   3    3.60    0.90
  -5  -3   3    6.20    0.90
  -5  -3   3    4.00    0.70
   4   3  -3   10.30    1.00
  -4  -3   3   11.10    1.20
  -4  -3   3   10.40    1.10
  -4  -3   3   11.10    1.40
  -4  -3   3    9.40    1.10
   3   3  -3    0.30    0.30
   3   3  -3    0.10    0.30
  -3  -3   3    0.20    0.30
  -3  -3   3    0.20    0.40
  -3  -3   3    0.60    0.40
   2   3  -3   16.10    1.30
   2   3  -3   17.60    1.40
  -2  -3   3   16.20    1.30
  -2  -3   3   15.80    1.40
  -2  -3   3   18.70    1.50
  -2  -3   3   20.70    1.30
   1   3  -3   75.99    5.50
   1   3  -3   81.49    5.20
   1   3  -3   78.89    5.10
  -1  -3   3   89.99    5.40
  -1  -3   3   81.19    5.20
  -1  -3   3   77.79    5.00
  -1  -3   3   77.79    5.20
  -1  -3   3   82.49    5.10
   0   3  -3   51.19    3.70
   0   3  -3   56.69    3.50
   0   3  -3   58.59    3.60
   0   3  -3   58.99    3.90
   0  -3   3   57.09    3.50
   0  -3   3   49.00    3.70
   0  -3   3   53.39    3.50
  -1   3  -3  114.49    7.00
  -1   3  -3  110.39    6.80
  -1   3  -3  113.59    7.00
  -1   3  -3  113.29    6.80
   1  -3   3   96.39    7.30
   1  -3   3  103.79    7.00
  -2   3  -3    0.40    0.40
  -2   3  -3    0.70    0.50
  -2   3  -3    1.80    0.60
  -2   3  -3    0.90    0.40
   2  -3   3    1.80    0.70
   2  -3   3    1.50    0.80
   2  -3   3    1.30    0.50
   2  -3   3    0.90    0.70
  -3   3  -3    2.70    0.70
  -3   3  -3    3.30    0.60
  -3   3  -3    3.10    0.60
  -3   3  -3    3.40    0.70
  -3   3  -3    3.20    0.70
   3  -3   3    4.20    0.60
   3  -3   3    3.10    0.90
   3  -3   3    2.20    1.00
   3  -3   3    2.10    1.00
  -4   3  -3    0.70    0.40
  -4   3  -3    1.50    0.70
  -4   3  -3    0.70    0.50
  -4   3  -3    0.90    0.60
  -4   3  -3    0.80    0.50
   4  -3   3    1.50    0.80
   4  -3   3    0.70    0.90
   4  -3   3    1.10    1.10
  -5   3  -3    1.90    0.60
  -5   3  -3    1.20    0.50
  -5   3  -3    1.90    0.70
   5  -3   3    1.50    1.10
   5  -3   3    1.50    1.30
   5  -3   3    1.40    0.80
  -6   3  -3    2.20    0.70
  -6   3  -3    1.70    0.80
   6  -3   3    4.40    1.90
   6  -3   3    3.70    1.50
  -7   3  -3    2.00    0.80
  -7   3  -3    1.30    0.70
   7  -3   3    1.30    1.50
  -8   3  -3   42.50    3.20
  -8   3  -3   37.90    3.20
   8  -3   3   57.69    6.00
   8   2  -3    1.70    1.10
  -8  -2   3    2.10    0.70
  -8  -2   3    1.90    0.60
  -8  -2   3    2.30    0.60
   7   2  -3   15.80    2.20
   7   2  -3   10.30    1.10
  -7  -2   3   10.10    1.30
  -7  -2   3   10.20    1.10
  -7  -2   3   12.00    1.20
   6   2  -3   -0.20    0.40
  -6  -2   3    0.20    0.40
  -6  -2   3   -0.10    0.40
  -6  -2   3    0.00    0.40
  -6  -2   3   -0.10    0.70
   5   2  -3    3.80    0.60
  -5  -2   3    4.30    0.80
  -5  -2   3    4.50    0.80
  -5  -2   3    3.90    0.80
  -5  -2   3    3.90    0.80
   4   2  -3   30.00    2.10
  -4  -2   3   27.30    2.10
  -4  -2   3   29.10    2.20
  -4  -2   3   30.30    2.20
  -4  -2   3   27.50    2.30
   3   2  -3   56.89    3.50
   3   2  -3   50.99    3.30
  -3  -2   3   48.50    3.50
  -3  -2   3   52.79    3.40
  -3  -2   3   52.39    3.50
  -3  -2   3   52.49    3.50
   2   2  -3    2.60    0.40
   2   2  -3    3.00    0.50
  -2  -2   3    3.10    0.50
  -2  -2   3    3.60    0.60
  -2  -2   3    2.50    0.60
  -2  -2   3    2.60    0.40
  -2  -2   3    4.30    0.50
  -2  -2   3    3.90    0.60
   1   2  -3    7.50    0.80
   1   2  -3   12.00    0.80
  -1  -2   3    8.10    0.80
  -1  -2   3    7.90    0.80
  -1  -2   3    8.20    0.80
  -1  -2   3    9.20    0.60
   0   2  -3   16.30    1.30
   0   2  -3   17.00    1.20
   0  -2   3   14.70    1.40
   0  -2   3   13.00    1.50
   0  -2   3   16.90    1.20
   0  -2   3   20.20    1.60
  -1   2  -3    3.70    0.50
  -1   2  -3    2.80    0.60
  -1   2  -3    3.30    0.60
  -1   2  -3    4.00    0.50
   1  -2   3    3.80    0.40
   1  -2   3    3.10    0.80
   1  -2   3    4.10    0.70
   1  -2   3    3.40    0.80
  -2   2  -3  102.59    6.60
  -2   2  -3  103.79    6.50
  -2   2  -3  101.19    6.60
  -2   2  -3   94.89    6.60
   2  -2   3  101.79    7.30
   2  -2   3  118.09    6.70
   2  -2   3  104.09    6.90
  -3   2  -3   30.70    2.20
  -3   2  -3   29.10    2.10
  -3   2  -3   31.20    2.20
  -3   2  -3   28.90    2.00
  -3   2  -3   28.20    2.20
   3  -2   3   24.20    2.90
   3  -2   3   28.20    2.30
   3  -2   3   30.60    2.50
  -4   2  -3   11.60    1.20
  -4   2  -3   13.10    1.20
  -4   2  -3   14.20    1.40
  -4   2  -3   13.30    1.30
  -4   2  -3   12.20    1.00
   4  -2   3   12.00    1.50
   4  -2   3   12.70    1.50
   4  -2   3    8.40    1.90
   4  -2   3   11.50    2.00
  -5   2  -3    1.00    0.40
  -5   2  -3    2.00    0.60
  -5   2  -3    1.50    0.60
   5  -2   3    1.40    1.10
   5  -2   3    1.70    0.80
   5  -2   3    2.20    1.30
  -6   2  -3  306.17   20.70
  -6   2  -3  349.07   20.80
   6  -2   3  351.46   22.80
   6  -2   3  341.17   21.90
  -7   2  -3    0.80    0.60
  -7   2  -3    0.90    0.60
   7  -2   3    2.20    1.50
   7  -2   3    1.20    1.60
  -8   2  -3    5.80    1.10
  -8   2  -3   10.90    1.40
   8  -2   3   19.00    3.80
   8   1  -3    6.60    0.90
  -8  -1   3    8.00    1.10
  -8  -1   3    6.00    0.90
  -8  -1   3    6.80    0.90
   7   1  -3    0.40    0.40
  -7  -1   3    0.30    0.40
  -7  -1   3    0.00    0.50
  -7  -1   3    0.00    0.40
  -7  -1   3    0.10    0.40
   6   1  -3    0.20    0.40
  -6  -1   3    0.40    0.60
  -6  -1   3    0.80    0.40
  -6  -1   3    0.50    0.50
  -6  -1   3    0.80    0.40
   5   1  -3    1.60    0.50
  -5  -1   3    1.40    0.60
  -5  -1   3    1.90    0.60
  -5  -1   3    2.50    0.60
  -5  -1   3    1.70    0.70
  -5  -1   3    2.90    0.60
   4   1  -3    0.40    0.40
   4   1  -3   -0.20    0.50
  -4  -1   3    0.90    0.40
  -4  -1   3    1.60    0.60
  -4  -1   3    0.90    0.50
  -4  -1   3    0.30    0.30
  -4  -1   3   -0.10    0.40
   3   1  -3  198.08   11.40
   3   1  -3  165.68   11.60
   3   1  -3  177.48   11.20
  -3  -1   3  188.58   11.50
  -3  -1   3  179.58   11.50
  -3  -1   3  191.58   11.50
  -3  -1   3  187.38   11.30
  -3  -1   3  197.48   11.50
   2   1  -3  143.09    8.70
   2   1  -3  148.69    8.60
   2   1  -3  145.99    8.70
  -2  -1   3  141.19    8.80
  -2  -1   3  139.89    8.60
  -2  -1   3  135.99    8.70
  -2  -1   3  123.19    8.50
  -2  -1   3  144.19    8.80
  -2  -1   3  147.09    8.80
   1   1  -3   77.99    5.00
   1   1  -3   86.39    5.10
  -1  -1   3   91.29    5.00
  -1  -1   3   70.79    5.10
  -1  -1   3   76.59    5.10
  -1  -1   3   79.79    5.10
  -1  -1   3   84.69    5.00
   0   1  -3  275.07   15.90
   0  -1   3  274.07   16.20
   0  -1   3  257.57   15.80
   0  -1   3  278.37   16.10
   0  -1   3  215.98   16.10
  -1   1  -3  213.08   13.10
  -1   1  -3  211.28   13.10
  -1   1  -3  208.18   13.20
   1  -1   3  227.08   13.00
   1  -1   3  215.38   13.90
  -2   1  -3   26.90    1.90
  -2   1  -3   28.00    2.00
  -2   1  -3   28.00    1.90
  -2   1  -3   29.00    1.90
   2  -1   3   25.30    2.30
   2  -1   3   28.90    2.30
   2  -1   3   24.00    2.50
  -3   1  -3    6.30    0.80
  -3   1  -3    7.80    0.90
  -3   1  -3    6.40    0.90
  -3   1  -3    6.60    0.60
  -3   1  -3    6.00    0.70
   3  -1   3    5.30    1.10
   3  -1   3    5.10    1.20
   3  -1   3    6.10    1.60
  -4   1  -3  875.71   48.40
  -4   1  -3  847.62   48.50
  -4   1  -3  776.52   48.50
  -4   1  -3  762.22   48.20
  -4   1  -3  807.12   48.30
  -4   1  -3  809.02   48.40
   4  -1   3  759.02   48.90
   4  -1   3  755.92   49.60
   4  -1   3  817.32   48.70
  -5   1  -3    0.30    0.60
  -5   1  -3    0.40    0.50
  -5   1  -3    0.90    0.40
  -5   1  -3    0.70    0.30
   5  -1   3    0.20    0.70
   5  -1   3    0.90    1.20
   5  -1   3    0.50    1.10
  -6   1  -3  172.48   10.50
  -6   1  -3  161.48   10.50
   6  -1   3  160.88   12.20
  -7   1  -3    3.50    0.90
  -7   1  -3    2.70    0.80
   7  -1   3    2.90    1.70
   7  -1   3    1.50    1.40
  -8   1  -3    1.70    0.70
  -8   1  -3    0.70    0.60
   8  -1   3    0.00    1.40
  -9   1  -3    0.20    0.50
  -9   1  -3    0.70    0.60
   9  -1   3   -0.40    1.70
   8   0  -3    0.90    0.50
  -8   0   3    0.40    0.50
  -8   0   3    1.40    0.50
  -8   0   3    2.10    0.50
  -8   0   3    0.70    0.40
   7   0  -3    3.50    0.70
  -7   0   3    3.00    0.70
  -7   0   3    3.00    0.80
  -7   0   3    1.20    0.40
  -7   0   3    2.20    0.60
   6   0  -3    4.40    0.80
   6   0  -3    5.50    1.50
  -6   0   3    4.50    0.70
  -6   0   3    5.60    0.90
  -6   0   3    5.00    1.00
  -6   0   3    4.60    0.70
   5   0  -3   24.70    1.90
   5   0  -3   24.20    2.60
  -5   0   3   22.20    2.00
  -5   0   3   25.10    2.00
  -5   0   3   22.70    1.80
  -5   0   3   25.60    1.90
  -5   0   3   24.20    1.80
  -5   0   3   24.70    2.10
   4   0  -3   28.60    2.20
   4   0  -3   25.10    2.60
  -4   0   3   32.10    2.30
  -4   0   3   30.00    2.30
  -4   0   3   30.60    2.10
  -4   0   3   30.90    2.10
  -4   0   3   31.00    2.20
  -4   0   3   27.50    2.00
   3   0  -3   83.59    6.00
   3   0  -3   94.09    5.70
   3   0  -3   91.19    5.40
  -3   0   3   86.69    5.60
  -3   0   3   93.69    5.70
  -3   0   3   83.49    5.50
  -3   0   3   84.89    5.60
  -3   0   3   92.79    5.80
   2   0  -3    0.10    0.30
   2   0  -3    0.10    0.30
   2   0  -3   -0.20    0.20
  -2   0   3    0.40    0.30
  -2   0   3   -0.20    0.20
  -2   0   3    0.10    0.30
  -2   0   3   -0.40    0.30
  -2   0   3    0.20    0.30
  -2   0   3    0.00    0.30
  -2   0   3   -0.10    0.20
   1   0  -3  127.99    8.20
   1   0  -3  134.39    8.30
   1   0  -3  135.09    8.30
  -1   0   3  123.89    8.30
  -1   0   3  148.79    8.30
  -1   0   3  144.89    8.20
  -1   0   3  124.99    8.40
  -1   0   3  130.99    8.30
   0   0  -3  151.18    8.70
   0   0  -3  135.49    8.80
   0   0   3  141.99    9.10
   0   0   3  153.58    8.70
   0   0   3  125.99    9.00
   0   0   3  146.29    8.70
   0   0   3  140.69    8.70
  -1   0  -3  122.69    7.40
  -1   0  -3  118.39    7.30
   1   0   3  111.39    7.80
   1   0   3  129.19    7.30
   1   0   3  124.39    7.40
   1   0   3  114.29    7.90
   1   0   3  112.99    8.00
  -2   0  -3  227.88   13.50
  -2   0  -3  231.38   13.40
  -2   0  -3  230.18   13.50
  -2   0  -3  227.38   13.40
  -2   0  -3  224.78   13.50
   2   0   3  215.28   13.80
   2   0   3  195.18   14.00
   2   0   3  198.78   14.30
   2   0   3  226.88   13.40
  -3   0  -3    0.90    0.20
  -3   0  -3    1.20    0.40
  -3   0  -3    0.50    0.40
  -3   0  -3    0.50    0.30
  -3   0  -3    0.80    0.30
  -3   0  -3    0.30    0.30
   3   0   3    0.60    0.80
   3   0   3   -0.20    0.60
   3   0   3   -0.30    0.80
   3   0   3    1.10    0.40
  -4   0  -3  351.46   20.70
  -4   0  -3  351.36   20.60
  -4   0  -3  332.07   20.40
  -4   0  -3  319.17   20.60
   4   0   3  320.77   21.90
   4   0   3  329.87   21.40
   4   0   3  330.17   20.80
   4   0   3  355.96   20.50
  -5   0  -3    2.00    0.40
  -5   0  -3    1.60    0.60
  -5   0  -3    2.10    0.70
  -5   0  -3    2.30    0.70
   5   0   3    1.40    1.40
   5   0   3    2.50    1.30
  -6   0  -3    5.10    0.90
  -6   0  -3    3.50    0.80
  -6   0  -3    5.60    0.90
   6   0   3    3.50    1.70
  -7   0  -3    0.00    0.40
  -7   0  -3    0.00    0.50
  -7   0  -3    0.60    0.60
   7   0   3    0.40    1.30
   7   0   3   -0.20    1.10
  -8   0  -3    0.10    0.50
  -8   0  -3   -0.30    0.40
  -8   0  -3   -0.60    0.50
   8   0   3    0.10    1.50
   8   0   3    0.70    1.30
  -9   0  -3    0.30    0.50
   9   0   3   -0.10    1.50
   8  -1  -3   -0.10    0.40
  -8   1   3    0.00    0.40
  -8   1   3    0.00    0.50
  -8   1   3    0.40    0.50
   7  -1  -3    2.40    0.70
   7  -1  -3    3.30    1.40
  -7   1   3    3.30    0.60
  -7   1   3    2.60    0.60
  -7   1   3    4.30    0.80
  -7   1   3    4.90    0.90
   6  -1  -3   16.80    2.30
   6  -1  -3   11.90    1.40
  -6   1   3   13.10    1.20
  -6   1   3   12.40    1.20
  -6   1   3   13.70    1.50
  -6   1   3   13.50    1.60
   5  -1  -3   37.40    3.50
   5  -1  -3   33.70    2.60
  -5   1   3   38.50    2.50
  -5   1   3   32.80    2.50
  -5   1   3   33.80    2.70
  -5   1   3   33.90    2.60
   4  -1  -3   32.50    3.10
  -4   1   3   36.00    2.50
  -4   1   3   35.70    2.60
  -4   1   3   37.50    2.70
  -4   1   3   34.10    2.40
   3  -1  -3   16.80    1.10
   3  -1  -3   15.90    1.80
  -3   1   3   16.00    1.40
  -3   1   3   16.20    1.50
  -3   1   3   16.40    1.30
  -3   1   3   13.90    1.20
   2  -1  -3   15.20    1.10
   2  -1  -3   14.90    1.50
   2  -1  -3   13.00    1.20
  -2   1   3   13.20    1.20
  -2   1   3   15.10    1.30
  -2   1   3   15.80    1.20
  -2   1   3   15.20    1.30
  -2   1   3   15.00    1.30
   1  -1  -3   82.99    4.90
   1  -1  -3   70.39    4.80
  -1   1   3   85.09    5.00
  -1   1   3   80.69    4.90
  -1   1   3   77.79    5.20
  -1   1   3   69.19    4.90
  -1   1   3   78.49    4.90
  -1   1   3   75.69    4.90
   0  -1  -3  204.68   11.30
   0  -1  -3  210.58   11.50
   0  -1  -3  172.48   11.30
   0   1   3  173.98   11.30
   0   1   3  165.38   11.40
   0   1   3  166.68   11.50
   0   1   3  188.28   11.70
   0   1   3  204.58   11.30
  -1  -1  -3    0.40    0.20
  -1  -1  -3    0.40    0.20
  -1  -1  -3    0.50    0.30
  -1  -1  -3    0.40    0.30
   1   1   3    0.90    0.40
   1   1   3    0.30    0.70
   1   1   3    1.20    0.70
   1   1   3   -0.20    0.60
  -2  -1  -3   36.80    2.70
  -2  -1  -3   38.80    2.50
  -2  -1  -3   40.40    2.60
  -2  -1  -3   38.10    2.50
  -2  -1  -3   41.00    2.50
  -2  -1  -3   40.00    2.40
   2   1   3   38.20    2.70
   2   1   3   39.40    3.00
   2   1   3   37.30    3.30
   2   1   3   36.10    3.50
  -3  -1  -3    7.30    0.90
  -3  -1  -3    6.30    0.50
  -3  -1  -3    5.50    0.60
  -3  -1  -3    6.20    0.90
  -3  -1  -3    5.80    0.60
  -3  -1  -3    7.00    0.80
  -3  -1  -3    6.90    0.80
   3   1   3    6.90    1.80
   3   1   3    6.10    0.90
   3   1   3    4.80    1.30
   3   1   3    5.80    1.10
  -4  -1  -3   14.50    1.30
  -4  -1  -3   13.40    1.20
  -4  -1  -3   12.50    1.30
  -4  -1  -3   14.20    1.50
  -4  -1  -3   13.00    1.00
   4   1   3   13.30    2.30
   4   1   3   12.80    2.50
   4   1   3   13.90    1.40
  -5  -1  -3    6.70    1.20
  -5  -1  -3    8.20    1.10
  -5  -1  -3    6.50    0.90
  -5  -1  -3    5.80    0.70
  -5  -1  -3    3.90    0.80
   5   1   3    6.10    1.80
   5   1   3    6.40    1.00
   5   1   3    6.40    2.00
  -6  -1  -3    3.20    1.00
  -6  -1  -3    3.30    0.70
  -6  -1  -3    2.40    0.70
  -6  -1  -3    4.00    0.80
   6   1   3    1.30    1.50
   6   1   3    4.60    1.90
  -7  -1  -3   -0.10    0.40
  -7  -1  -3   -0.80    0.50
  -7  -1  -3    0.30    0.50
   7   1   3   -0.80    1.30
  -8  -1  -3   -0.20    0.50
  -8  -1  -3    0.70    0.60
  -8  -1  -3   -0.10    0.40
   8   1   3   -0.10    1.50
   8   1   3   -0.30    1.20
  -9  -1  -3    1.50    0.60
  -9  -1  -3    0.70    0.50
   9   1   3    1.60    1.70
   8  -2  -3    1.90    1.40
   8  -2  -3    1.10    0.50
  -8   2   3    0.20    0.50
  -8   2   3    0.90    0.40
  -8   2   3    0.30    0.50
   7  -2  -3    1.40    1.30
  -7   2   3    1.20    0.50
  -7   2   3    1.50    0.60
  -7   2   3    1.50    0.70
  -6   2   3   12.10    1.50
  -6   2   3   12.10    1.10
  -6   2   3   13.50    1.20
  -6   2   3   11.50    1.30
   5  -2  -3   20.30    2.50
  -5   2   3   19.70    1.60
  -5   2   3   19.00    1.70
  -5   2   3   18.50    1.50
  -5   2   3   20.00    1.80
   4  -2  -3   35.60    3.40
  -4   2   3   38.50    2.60
  -4   2   3   36.50    2.80
  -4   2   3   40.30    2.70
  -4   2   3   36.90    2.60
   3  -2  -3   75.19    5.40
   3  -2  -3   73.39    4.50
  -3   2   3   71.19    4.80
  -3   2   3   70.39    4.60
  -3   2   3   67.89    4.60
  -3   2   3   71.39    4.60
  -3   2   3   72.59    4.70
   2  -2  -3   77.89    5.50
   2  -2  -3   82.69    4.90
  -2   2   3   86.69    5.00
  -2   2   3   74.99    5.30
  -2   2   3   73.19    5.10
  -2   2   3   79.29    5.00
  -2   2   3   76.09    5.00
  -2   2   3   78.99    5.10
  -2   2   3   76.09    5.10
   1  -2  -3   32.90    2.30
   1  -2  -3   37.90    2.60
  -1   2   3   34.20    2.40
  -1   2   3   32.80    2.40
  -1   2   3   33.80    2.40
  -1   2   3   35.10    2.80
  -1   2   3   35.00    2.50
  -1   2   3   34.10    2.50
   0  -2  -3  315.47   19.10
   0   2   3  299.87   19.70
   0   2   3  312.87   19.20
   0   2   3  323.17   19.20
   0   2   3  336.57   19.40
   0   2   3  306.97   19.50
   0   2   3  332.67   19.70
  -1  -2  -3  127.39    8.00
  -1  -2  -3  135.09    7.60
  -1  -2  -3  117.49    7.70
  -1  -2  -3  118.99    7.70
  -1  -2  -3  129.79    7.70
   1   2   3  127.29    7.60
   1   2   3  117.99    8.40
   1   2   3  128.99    8.00
   1   2   3  121.19    8.40
  -2  -2  -3    6.00    0.50
  -2  -2  -3    6.20    0.80
  -2  -2  -3    4.90    0.50
  -2  -2  -3    7.30    0.80
  -2  -2  -3    5.30    0.90
   2   2   3    8.20    1.20
   2   2   3    5.70    0.90
   2   2   3    7.10    1.50
   2   2   3    7.20    1.50
  -3  -2  -3   31.50    2.20
  -3  -2  -3   34.00    2.10
  -3  -2  -3   31.30    2.30
  -3  -2  -3   32.20    2.00
  -3  -2  -3   31.20    2.40
   3   2   3   30.00    2.40
   3   2   3   33.20    2.60
   3   2   3   27.80    3.10
   3   2   3   24.50    3.20
  -4  -2  -3    9.50    1.40
  -4  -2  -3   10.20    1.00
  -4  -2  -3   10.30    0.90
  -4  -2  -3    9.50    1.20
   4   2   3    7.00    1.90
   4   2   3    7.50    1.90
   4   2   3   10.00    1.30
   4   2   3   10.60    1.30
  -5  -2  -3   29.00    1.90
  -5  -2  -3   29.70    2.10
  -5  -2  -3   27.90    2.30
  -5  -2  -3   27.80    2.50
  -5  -2  -3   26.90    2.20
   5   2   3   28.30    3.40
   5   2   3   24.60    3.90
   5   2   3   28.60    2.40
  -6  -2  -3   88.29    6.00
  -6  -2  -3   86.99    6.10
  -6  -2  -3   95.89    6.20
  -6  -2  -3  100.19    6.40
   6   2   3   85.19    7.90
   6   2   3   94.39    6.40
   6   2   3  102.09    7.70
  -7  -2  -3   17.10    2.10
  -7  -2  -3   15.60    1.60
   7   2   3   13.50    3.10
   7   2   3   14.90    3.20
  -8  -2  -3    0.30    0.40
  -8  -2  -3    1.70    1.10
  -8  -2  -3    0.50    0.60
   8   2   3    0.30    1.60
  -9  -2  -3    3.20    0.80
  -9  -2  -3    1.70    0.60
   9   2   3    1.70    1.90
   9   2   3    4.30    2.10
   8  -3  -3    0.40    1.40
  -8   3   3    0.50    0.60
  -8   3   3    0.30    0.40
  -8   3   3    0.50    0.50
   7  -3  -3    0.40    1.00
  -7   3   3    1.20    0.60
  -7   3   3    1.30    0.50
  -7   3   3    1.60    0.60
  -6   3   3   14.80    1.30
  -6   3   3   14.80    1.40
  -6   3   3   14.60    1.50
  -6   3   3   13.20    1.50
   5  -3  -3   31.60    3.40
  -5   3   3   25.50    2.00
  -5   3   3   28.20    2.30
  -5   3   3   28.90    2.40
  -5   3   3   30.00    2.20
   4  -3  -3   14.40    2.00
   4  -3  -3   13.70    1.30
  -4   3   3   11.20    1.10
  -4   3   3   13.10    1.40
  -4   3   3   13.50    1.30
  -4   3   3   11.60    1.40
   3  -3  -3    0.50    0.70
   3  -3  -3    0.40    0.30
  -3   3   3    0.40    0.50
  -3   3   3    1.10    0.50
  -3   3   3    1.00    0.40
  -3   3   3    0.80    0.50
  -3   3   3    0.60    0.70
  -3   3   3    1.40    0.30
   2  -3  -3  297.67   17.60
   2  -3  -3  317.07   18.40
  -2   3   3  293.17   17.50
  -2   3   3  276.37   18.00
  -2   3   3  289.97   17.60
  -2   3   3  271.27   17.60
  -2   3   3  291.07   17.70
  -2   3   3  271.17   17.70
  -2   3   3  290.47   17.70
   1  -3  -3  239.98   14.50
  -1   3   3  253.77   14.70
  -1   3   3  229.88   15.00
  -1   3   3  225.98   14.70
  -1   3   3  249.48   14.50
  -1   3   3  230.18   14.50
  -1   3   3  227.28   14.50
   0  -3  -3  356.66   25.00
   0  -3  -3  404.56   24.90
   0  -3  -3  429.56   25.20
   0   3   3  405.26   25.00
   0   3   3  415.76   25.00
   0   3   3  437.86   25.30
   0   3   3  399.66   25.60
   0   3   3  469.15   25.60
  -1  -3  -3  162.78   10.10
  -1  -3  -3  150.18    9.90
  -1  -3  -3  158.88    9.80
  -1  -3  -3  163.18    9.80
   1   3   3  153.98   10.70
   1   3   3  159.28   10.30
   1   3   3  172.88    9.80
  -2  -3  -3  338.27   20.90
  -2  -3  -3  356.46   20.70
  -2  -3  -3  337.97   20.70
  -2  -3  -3  351.16   21.30
  -2  -3  -3  335.97   21.00
   2   3   3  363.36   21.30
   2   3   3  319.37   21.80
   2   3   3  343.87   21.20
  -3  -3  -3   11.20    1.40
  -3  -3  -3    8.50    1.00
  -3  -3  -3    8.50    0.80
  -3  -3  -3    7.90    1.10
  -3  -3  -3    8.70    0.70
   3   3   3    6.80    1.20
   3   3   3    6.20    1.60
   3   3   3    9.80    1.30
  -4  -3  -3  135.39    8.30
  -4  -3  -3  128.39    8.50
  -4  -3  -3  134.19    8.10
  -4  -3  -3  131.49    8.40
   4   3   3  135.79    8.50
   4   3   3  130.79    9.70
   4   3   3  133.79    8.00
   4   3   3  123.79    8.60
  -5  -3  -3    1.90    0.60
  -5  -3  -3    1.10    0.50
  -5  -3  -3    1.90    0.50
  -5  -3  -3    1.70    0.70
   5   3   3    2.00    1.50
   5   3   3    2.40    0.90
   5   3   3    0.40    1.30
  -6  -3  -3    7.30    1.00
  -6  -3  -3    8.70    1.40
  -6  -3  -3    7.60    1.10
   6   3   3    5.90    1.30
   6   3   3    4.80    2.10
   6   3   3    7.30    2.30
  -7  -3  -3   13.10    1.80
  -7  -3  -3    9.30    1.30
  -7  -3  -3    6.70    1.10
   7   3   3    7.30    2.50
   7   3   3   10.70    3.00
  -8  -3  -3    0.10    0.40
  -8  -3  -3    0.50    0.50
  -8  -3  -3   -0.30    0.90
   8   3   3    0.90    1.90
   8   3   3    0.00    1.60
  -9  -3  -3    0.20    0.50
  -9  -3  -3   -0.30    1.10
   9   3   3    1.70    2.00
   7  -4  -3    0.30    1.00
  -7   4   3    0.60    0.50
  -7   4   3    0.60    0.50
  -7   4   3    0.90    0.50
   6  -4  -3    0.40    1.00
  -6   4   3    0.10    0.40
  -6   4   3   -0.40    0.40
  -6   4   3   -0.20    0.50
   5  -4  -3    4.90    1.60
  -5   4   3    5.70    1.00
  -5   4   3    6.20    1.00
  -5   4   3    6.80    0.90
  -5   4   3    5.10    0.70
   4  -4  -3   25.10    1.70
   4  -4  -3   19.60    2.60
  -4   4   3   21.20    1.80
  -4   4   3   20.40    1.70
  -4   4   3   19.60    1.60
  -4   4   3   22.70    1.70
  -4   4   3   25.00    2.00
   3  -4  -3   68.49    5.40
   3  -4  -3   74.89    4.40
  -3   4   3   70.79    4.60
  -3   4   3   62.59    4.40
  -3   4   3   65.89    4.50
  -3   4   3   69.39    4.50
  -3   4   3   69.69    4.70
  -3   4   3   67.79    4.90
   2  -4  -3   18.00    1.30
   2  -4  -3   20.10    2.00
  -2   4   3   15.60    1.30
  -2   4   3   13.70    1.30
  -2   4   3   17.10    1.50
  -2   4   3   14.40    1.20
  -2   4   3   19.00    2.20
  -2   4   3   14.40    1.40
  -2   4   3   15.00    1.50
   1  -4  -3    0.30    0.40
   1  -4  -3    0.60    0.30
  -1   4   3   -0.30    0.70
  -1   4   3    0.30    0.60
  -1   4   3    0.70    0.40
  -1   4   3    0.80    0.60
  -1   4   3    0.60    0.40
   0  -4  -3  481.25   28.10
   0  -4  -3  412.76   27.80
   0   4   3  466.35   28.50
   0   4   3  478.05   28.40
   0   4   3  458.05   27.90
   0   4   3  488.05   28.20
   0   4   3  436.76   27.80
  -1  -4  -3  387.46   22.80
  -1  -4  -3  406.86   23.10
  -1  -4  -3  382.46   22.80
  -1  -4  -3  360.36   22.90
   1   4   3  353.66   23.80
   1   4   3  373.56   22.70
   1   4   3  365.96   23.30
   1   4   3  379.26   23.30
  -2  -4  -3    0.10    0.20
  -2  -4  -3   -0.40    0.40
  -2  -4  -3   -0.30    0.20
   2   4   3    0.00    0.90
   2   4   3   -0.30    0.60
   2   4   3   -0.60    0.60
  -3  -4  -3    0.20    0.20
  -3  -4  -3    0.30    0.20
  -3  -4  -3    0.30    0.40
  -3  -4  -3    0.20    0.30
  -3  -4  -3    0.70    0.60
   3   4   3    0.40    0.70
   3   4   3   -0.10    0.70
   3   4   3    0.70    1.20
  -4  -4  -3    4.00    0.80
  -4  -4  -3    3.00    0.80
  -4  -4  -3    3.30    0.60
   4   4   3    1.90    1.00
   4   4   3    4.00    1.60
   4   4   3    3.50    1.00
  -5  -4  -3   35.30    2.60
  -5  -4  -3   33.20    2.80
  -5  -4  -3   27.30    2.30
   5   4   3   36.30    3.90
   5   4   3   39.30    3.00
  -6  -4  -3   33.10    2.70
  -6  -4  -3   37.00    3.10
   6   4   3   35.40    3.10
   6   4   3   33.50    4.30
   6   4   3   33.50    5.10
  -7  -4  -3   23.30    2.20
  -7  -4  -3   26.70    2.60
   7   4   3   24.80    2.70
   7   4   3   24.10    4.80
   7   4   3   26.90    4.40
  -8  -4  -3    3.00    0.80
  -8  -4  -3    4.30    1.30
   8   4   3    7.00    2.60
   8   4   3    4.00    2.30
  -9  -4  -3    1.30    0.60
  -9  -4  -3    0.60    1.10
   9   4   3   -0.20    1.90
   9   4   3    1.00    1.90
   7  -5  -3   -0.30    1.20
  -7   5   3   -0.30    0.30
  -7   5   3    0.30    0.50
  -7   5   3   -0.40    0.50
   6  -5  -3    0.30    0.90
  -6   5   3   -0.10    0.50
  -6   5   3    0.20    0.40
  -6   5   3    0.70    0.60
   5  -5  -3    2.10    1.20
  -5   5   3    6.00    0.80
  -5   5   3    6.50    1.10
  -5   5   3    4.20    0.80
   4  -5  -3    1.20    0.50
   4  -5  -3    1.10    0.90
  -4   5   3    1.80    0.60
  -4   5   3    0.60    0.50
  -4   5   3    1.00    0.60
  -4   5   3    2.00    0.50
  -4   5   3    0.70    0.30
   3  -5  -3    1.80    0.50
   3  -5  -3    1.40    0.90
  -3   5   3    1.60    0.70
  -3   5   3    2.10    0.60
  -3   5   3    2.70    0.50
  -3   5   3    2.00    0.50
  -3   5   3    2.30    0.60
   2  -5  -3  156.68    9.00
  -2   5   3  138.59    9.60
  -2   5   3  133.39    9.00
  -2   5   3  151.78    9.20
  -2   5   3  135.29    9.10
  -2   5   3  141.79    8.90
  -2   5   3  147.29    9.20
   1  -5  -3   32.30    2.20
  -1   5   3   25.40    2.60
  -1   5   3   29.30    2.90
  -1   5   3   30.50    2.30
  -1   5   3   30.60    2.50
  -1   5   3   31.90    2.30
   0  -5  -3   60.59    4.50
   0   5   3   75.19    5.20
   0   5   3   67.29    4.50
   0   5   3   73.29    5.00
   0   5   3   68.79    5.30
   0   5   3   81.49    4.70
  -1  -5  -3  135.19    8.00
  -1  -5  -3  118.99    8.00
  -1  -5  -3  141.79    8.20
  -1  -5  -3  126.99    7.90
   1   5   3  123.49    9.00
   1   5   3  123.89    7.90
   1   5   3  126.29    8.50
   1   5   3  122.99    8.50
  -2  -5  -3   29.90    2.00
  -2  -5  -3   27.10    2.20
  -2  -5  -3   29.10    2.10
  -2  -5  -3   26.80    2.30
   2   5   3   27.40    2.60
   2   5   3   28.90    2.60
   2   5   3   30.60    1.90
   2   5   3   32.30    3.40
  -3  -5  -3   60.59    3.70
  -3  -5  -3   57.69    4.30
  -3  -5  -3   59.19    4.10
  -3  -5  -3   58.29    3.90
   3   5   3   56.99    4.30
   3   5   3   57.39    4.50
   3   5   3   59.09    5.20
  -4  -5  -3   14.70    1.40
  -4  -5  -3   15.40    1.80
  -4  -5  -3   14.20    1.70
   4   5   3   15.40    2.10
   4   5   3   14.10    1.70
   4   5   3   14.90    2.80
  -5  -5  -3    0.60    0.80
  -5  -5  -3    0.50    0.50
   5   5   3   -0.20    0.90
   5   5   3    1.40    1.60
  -6  -5  -3  127.69    8.70
  -6  -5  -3  137.49    8.50
   6   5   3  116.99    8.90
   6   5   3  150.28   10.70
  -7  -5  -3    9.80    1.40
  -7  -5  -3   12.40    1.90
   7   5   3    9.90    1.80
   7   5   3   10.70    3.20
   7   5   3   13.00    3.20
  -8  -5  -3    0.50    1.00
  -8  -5  -3   -0.10    0.50
   8   5   3   -1.40    1.70
   8   5   3    0.90    1.80
  -9  -5  -3    3.20    0.80
  -9  -5  -3    1.50    1.20
   9   5   3    2.30    2.60
   9   5   3    2.80    2.30
   6  -6  -3   -0.30    0.90
  -6   6   3   -0.40    0.50
  -6   6   3   -0.30    0.60
  -6   6   3    0.50    0.40
   5  -6  -3    0.20    0.90
  -5   6   3    1.60    0.70
  -5   6   3    0.90    0.60
  -5   6   3    1.60    0.50
   4  -6  -3   12.80    1.20
   4  -6  -3    9.40    2.10
  -4   6   3    9.90    1.30
  -4   6   3   11.00    1.10
  -4   6   3   12.40    1.50
   3  -6  -3    8.60    1.00
   3  -6  -3    9.40    1.80
  -3   6   3    7.70    0.80
  -3   6   3    5.90    1.00
  -3   6   3    6.60    0.90
  -3   6   3    5.90    1.10
  -3   6   3    5.40    1.40
  -3   6   3    7.10    1.10
   2  -6  -3   33.40    2.30
  -2   6   3   27.70    2.50
  -2   6   3   29.90    2.20
  -2   6   3   27.30    3.10
  -2   6   3   27.00    2.20
  -2   6   3   27.60    2.30
  -2   6   3   32.30    2.50
   1  -6  -3    2.20    0.60
   1  -6  -3    4.00    1.00
  -1   6   3    2.00    0.60
  -1   6   3    1.40    0.80
  -1   6   3    1.20    1.00
  -1   6   3    2.80    0.70
   0  -6  -3    1.20    0.50
   0  -6  -3    1.20    0.40
   0  -6  -3    0.70    0.50
   0   6   3    0.80    0.50
   0   6   3    0.80    1.00
   0   6   3    0.30    0.60
   0   6   3    1.90    0.60
   0   6   3    2.00    0.90
  -1  -6  -3    2.50    0.60
  -1  -6  -3    2.10    0.40
  -1  -6  -3    1.80    0.50
  -1  -6  -3    1.80    0.60
   1   6   3    0.30    0.90
   1   6   3    2.00    0.50
   1   6   3    3.10    1.00
   1   6   3    1.50    1.30
  -2  -6  -3   16.90    1.40
  -2  -6  -3   19.00    1.70
  -2  -6  -3   19.90    1.70
  -2  -6  -3   19.60    1.50
   2   6   3   20.30    2.10
   2   6   3   18.60    2.90
   2   6   3   22.50    2.50
  -3  -6  -3   26.40    2.30
  -3  -6  -3   29.50    2.40
  -3  -6  -3   27.80    1.90
  -3  -6  -3   27.40    2.10
   3   6   3   28.40    2.60
   3   6   3   28.50    2.80
   3   6   3   27.10    3.40
  -4  -6  -3  102.99    6.80
  -4  -6  -3   95.59    7.20
  -4  -6  -3  110.29    7.10
   4   6   3  118.29    8.70
   4   6   3  110.89    7.20
   4   6   3  108.39    7.50
  -5  -6  -3  108.99    7.80
  -5  -6  -3  118.69    7.60
   5   6   3  117.09    8.20
   5   6   3  130.59    9.70
  -6  -6  -3    1.20    0.90
  -6  -6  -3   -0.10    0.50
   6   6   3   -0.70    1.60
   6   6   3   -0.10    0.90
  -7  -6  -3   47.50    3.50
  -7  -6  -3   40.00    3.10
   7   6   3   28.60    3.40
   7   6   3   43.60    5.10
  -8  -6  -3   -0.90    1.00
  -8  -6  -3    0.50    0.50
   8   6   3    1.50    2.20
   8   6   3   -0.50    1.00
   8   6   3    0.00    1.90
   6  -7  -3    0.00    0.90
  -6   7   3    0.10    0.50
  -6   7   3    0.10    0.40
  -6   7   3   -0.10    0.50
   5  -7  -3    1.80    1.30
  -5   7   3    0.60    0.60
  -5   7   3    1.50    0.50
  -5   7   3    1.30    0.70
   4  -7  -3   18.80    2.60
   4  -7  -3   14.60    1.40
  -4   7   3   11.00    1.50
  -4   7   3   12.50    1.20
  -4   7   3   12.00    1.50
   3  -7  -3   -0.10    0.40
   3  -7  -3    0.50    0.90
  -3   7   3   -0.40    0.40
  -3   7   3   -0.40    0.40
  -3   7   3    0.70    0.60
  -3   7   3   -0.40    1.00
   2  -7  -3   16.00    1.50
  -2   7   3   17.50    1.40
  -2   7   3   12.80    1.60
  -2   7   3   17.60    1.80
  -2   7   3   13.10    1.80
  -2   7   3   17.60    2.40
   1  -7  -3   21.10    1.80
  -1   7   3   19.70    2.10
  -1   7   3   20.70    1.90
  -1   7   3   17.50    1.70
  -1   7   3   20.20    2.60
   0  -7  -3    9.10    0.80
   0  -7  -3   10.00    1.20
   0  -7  -3    9.00    1.10
   0  -7  -3    7.20    1.10
   0   7   3    7.10    1.00
   0   7   3    8.00    1.60
   0   7   3    8.10    1.10
   0   7   3   10.40    1.70
  -1  -7  -3   -0.30    0.30
  -1  -7  -3   -0.10    0.50
  -1  -7  -3    0.10    0.20
  -1  -7  -3    0.20    0.30
   1   7   3    0.30    0.80
   1   7   3    0.60    1.20
   1   7   3   -0.10    0.80
  -2  -7  -3    1.30    0.40
  -2  -7  -3    0.80    0.60
  -2  -7  -3    0.40    0.40
  -2  -7  -3    1.40    0.40
   2   7   3    1.00    1.00
   2   7   3    1.30    1.00
   2   7   3    0.30    1.10
  -3  -7  -3   91.39    5.70
  -3  -7  -3   87.99    6.10
  -3  -7  -3   87.09    5.80
  -3  -7  -3   85.59    6.20
   3   7   3   97.69    7.70
   3   7   3  102.89    6.70
  -4  -7  -3   -0.50    0.40
  -4  -7  -3   -0.50    0.40
  -4  -7  -3    0.40    0.70
   4   7   3   -0.20    0.70
   4   7   3    1.30    1.60
   4   7   3    0.30    1.00
  -5  -7  -3   54.99    3.60
  -5  -7  -3   51.89    3.90
   5   7   3   57.59    5.70
   5   7   3   38.00    4.00
  -6  -7  -3   16.00    2.00
  -6  -7  -3   17.10    1.60
   6   7   3   19.80    3.80
   6   7   3   13.90    2.20
  -7  -7  -3    8.60    1.20
  -7  -7  -3    8.60    1.40
   7   7   3    7.60    1.60
   7   7   3    9.30    2.90
  -8  -7  -3    0.50    1.10
  -8  -7  -3    0.60    0.50
   8   7   3    0.40    1.10
   8   7   3    0.20    1.90
   5  -8  -3    0.20    0.90
  -5   8   3    0.10    0.50
  -5   8   3   -0.50    0.40
  -5   8   3    0.30    0.60
   4  -8  -3    2.30    0.60
   4  -8  -3    1.40    1.00
  -4   8   3    2.30    0.80
  -4   8   3    2.00    0.70
  -4   8   3    3.00    0.70
   3  -8  -3   19.90    2.70
   3  -8  -3   25.00    1.90
  -3   8   3   22.10    2.00
  -3   8   3   23.90    2.00
  -3   8   3   20.80    2.40
   2  -8  -3   36.20    2.50
  -2   8   3   30.90    3.10
  -2   8   3   35.50    2.60
  -2   8   3   29.20    2.70
  -2   8   3   25.40    2.40
   1  -8  -3   21.40    1.80
  -1   8   3   14.20    1.60
  -1   8   3   14.70    2.50
  -1   8   3   22.60    2.10
  -1   8   3   21.40    2.30
   0  -8  -3    3.00    0.80
   0  -8  -3    2.30    0.70
   0  -8  -3    2.60    0.50
   0   8   3    1.10    0.70
   0   8   3    2.00    1.20
   0   8   3    3.60    1.20
  -1  -8  -3    2.00    0.70
  -1  -8  -3    1.60    0.40
  -1  -8  -3    2.70    0.70
  -1  -8  -3    1.80    0.60
   1   8   3    0.90    1.00
   1   8   3    0.90    0.90
   1   8   3    0.30    1.30
  -2  -8  -3    1.10    0.40
  -2  -8  -3    2.70    0.50
  -2  -8  -3    2.40    0.80
  -2  -8  -3    2.80    0.70
   2   8   3    1.30    0.90
   2   8   3    1.20    1.10
   2   8   3    2.40    1.70
  -3  -8  -3   17.90    2.00
  -3  -8  -3   18.90    1.50
  -3  -8  -3   17.70    1.60
  -3  -8  -3   18.40    1.80
   3   8   3   20.30    2.60
   3   8   3   18.00    2.40
   3   8   3   23.90    3.80
  -4  -8  -3   21.10    2.10
  -4  -8  -3   17.00    1.60
   4   8   3   21.00    2.70
   4   8   3   22.00    3.80
  -5  -8  -3    3.00    1.00
  -5  -8  -3    1.80    0.60
   5   8   3    2.60    1.20
   5   8   3    3.10    2.20
  -6  -8  -3    0.30    0.50
  -6  -8  -3   -0.20    0.80
   6   8   3    1.00    1.70
   6   8   3   -0.60    1.00
  -7  -8  -3   -0.40    0.80
  -7  -8  -3   -0.30    0.50
   7   8   3    1.30    2.00
   7   8   3   -0.50    1.00
   4  -9  -3   19.00    2.80
  -4   9   3   10.60    1.40
   3  -9  -3    0.30    0.50
   3  -9  -3   -0.20    0.90
  -3   9   3    0.20    0.60
  -3   9   3    0.80    0.70
  -3   9   3    0.10    1.00
   2  -9  -3    9.60    1.20
  -2   9   3    9.40    1.20
  -2   9   3    8.40    1.60
   1  -9  -3    5.50    0.90
   1  -9  -3    7.30    1.40
  -1   9   3    5.10    1.00
  -1   9   3    4.90    1.20
  -1   9   3    5.20    1.50
   0  -9  -3    9.40    1.30
   0  -9  -3    7.40    1.00
   0  -9  -3    6.70    0.80
   0   9   3    5.10    1.00
   0   9   3    7.20    1.40
   0   9   3   10.20    1.80
  -1  -9  -3    2.50    0.70
  -1  -9  -3    2.40    0.50
  -1  -9  -3    1.20    0.50
   1   9   3    0.20    0.80
   1   9   3    0.80    0.90
  -2  -9  -3    0.10    0.70
  -2  -9  -3    0.20    0.30
  -2  -9  -3    0.40    0.30
   2   9   3   -0.20    1.50
   2   9   3    0.00    1.00
   2   9   3    0.50    0.80
  -3  -9  -3    5.90    0.70
  -3  -9  -3    6.60    1.20
  -3  -9  -3    4.50    0.70
   3   9   3    3.60    1.40
   3   9   3    7.60    2.40
   3   9   3    4.50    1.20
  -4  -9  -3    4.00    0.70
  -4  -9  -3    4.60    1.10
   4   9   3    6.00    2.30
   4   9   3    1.80    1.10
   4   9   3    5.00    1.40
  -5  -9  -3    3.70    1.00
  -5  -9  -3    3.20    0.70
   5   9   3    4.60    2.40
   5   9   3    5.60    1.50
  -6  -9  -3    0.00    0.40
  -6  -9  -3    0.80    0.90
   6   9   3    0.90    2.10
   6   9   3    0.40    0.90
   2 -10  -3    0.60    0.50
   2 -10  -3    0.90    0.90
  -2  10   3    0.80    0.70
  -2  10   3    0.80    1.00
   1 -10  -3    0.80    0.40
   1 -10  -3    1.80    0.60
   1 -10  -3    1.20    0.90
  -1  10   3    1.40    0.70
  -1  10   3    0.10    0.80
   0 -10  -3    0.40    0.50
   0 -10  -3    0.30    0.40
   0 -10  -3    0.70    0.50
   0  10   3    1.10    0.80
   0  10   3    0.70    1.00
   0  10   3   -0.10    0.80
  -1 -10  -3    0.60    0.40
  -1 -10  -3    1.40    0.50
   1  10   3    1.00    1.00
  -2 -10  -3   12.70    1.20
  -2 -10  -3   13.60    1.20
  -2 -10  -3   15.30    2.50
  -3 -10  -3    0.70    0.40
  -3 -10  -3    0.20    0.70
  -3 -10  -3    0.70    0.30
   3  10   3   -0.80    1.60
   3  10   3    0.50    1.20
   3  10   3    1.00    0.80
  -4 -10  -3    0.30    0.40
  -4 -10  -3    0.10    0.70
   4  10   3   -0.20    1.10
   4  10   3   -0.20    1.80
   4  10   3   -0.30    0.50
  -5 -10  -3   -0.10    0.70
  -5 -10  -3   -0.10    0.40
   5  10   3    0.50    2.00
   5  10   3    0.30    0.80
   0  11   3    1.90    0.80
   0  11   3    1.20    1.00
  -1 -11  -3    0.30    0.30
  -1 -11  -3    1.10    0.50
   1  11   3    0.00    0.70
   1  11   3   -0.10    1.00
   1  11   3    1.00    0.80
  -2 -11  -3    1.20    0.40
  -2 -11  -3    0.60    0.40
   2  11   3    0.60    1.00
   2  11   3    0.20    0.70
  -3 -11  -3    0.50    0.30
  -3 -11  -3    0.80    0.90
   3  11   3   -0.10    0.90
   3  11   3    0.10    0.50
   2   9  -4    1.10    0.80
   2   9  -4    0.60    1.00
  -2  -9   4    0.80    0.60
  -2  -9   4    0.70    0.60
   1   9  -4   -0.20    0.60
   1   9  -4   -0.10    0.40
   1   9  -4    0.00    0.60
  -1  -9   4    0.00    0.50
  -1  -9   4   -0.10    0.30
  -1  -9   4   -0.20    0.40
  -1  -9   4    0.00    0.50
   0   9  -4   -0.10    0.60
   0   9  -4   -0.40    0.50
   0   9  -4    0.00    0.60
   0  -9   4    0.30    0.50
   0  -9   4   -0.30    0.40
   0  -9   4    0.50    0.60
   0  -9   4    0.20    0.50
  -1   9  -4   -0.30    0.60
  -1   9  -4    0.10    0.70
  -1   9  -4    0.40    0.50
   1  -9   4   -0.30    0.50
   1  -9   4   -0.40    0.50
   1  -9   4   -0.20    0.40
  -2   9  -4    0.80    0.70
  -2   9  -4    0.50    0.50
   2  -9   4    0.90    0.50
   2  -9   4    1.60    0.70
   4   8  -4   -0.50    1.00
  -4  -8   4    0.70    0.60
   3   8  -4    0.10    1.00
   3   8  -4   -0.40    0.80
  -3  -8   4    0.10    0.50
   2   8  -4    0.30    1.10
   2   8  -4    0.40    0.50
   2   8  -4    0.10    0.80
  -2  -8   4    0.20    0.50
  -2  -8   4    0.10    0.40
   1   8  -4    0.10    0.40
   1   8  -4   -0.30    0.60
   1   8  -4   -0.60    0.90
  -1  -8   4    0.10    0.50
  -1  -8   4    0.10    0.30
  -1  -8   4    0.20    0.40
  -1  -8   4    0.00    0.50
   0   8  -4   -0.30    0.60
   0   8  -4    0.60    0.70
   0   8  -4    0.10    0.50
   0  -8   4    0.40    0.50
   0  -8   4    0.20    0.60
   0  -8   4   -0.20    0.40
  -1   8  -4    0.50    0.50
  -1   8  -4   -0.20    0.70
  -1   8  -4   -0.10    0.50
   1  -8   4   -0.30    0.40
   1  -8   4    0.30    0.60
   1  -8   4    0.80    0.60
  -2   8  -4    8.10    1.30
  -2   8  -4    8.80    1.10
   2  -8   4    9.60    1.10
   2  -8   4    7.30    1.20
   2  -8   4    7.80    1.30
  -3   8  -4    3.40    0.70
  -3   8  -4    0.70    0.80
  -3   8  -4    2.10    0.70
  -3   8  -4    2.70    0.80
   3  -8   4    2.90    0.90
   3  -8   4    2.70    0.50
   3  -8   4    2.80    0.70
  -4   8  -4    1.70    0.80
  -4   8  -4   -0.70    0.80
  -4   8  -4    0.90    0.60
  -4   8  -4    1.30    0.70
   4  -8   4    0.70    0.40
   4  -8   4    1.60    0.80
  -6  -7   4   -0.30    0.40
   5   7  -4    1.40    1.00
  -5  -7   4    0.80    0.70
  -5  -7   4    0.80    0.50
   4   7  -4    0.00    0.80
  -4  -7   4    0.20    0.40
  -4  -7   4    0.00    0.60
   3   7  -4    0.60    1.00
   3   7  -4   -0.10    0.30
   3   7  -4    0.20    0.70
  -3  -7   4   -0.10    0.40
  -3  -7   4    0.40    0.50
   2   7  -4    2.10    1.10
   2   7  -4    3.70    0.90
   2   7  -4    1.60    0.50
  -2  -7   4    2.30    0.50
  -2  -7   4    3.00    0.50
  -2  -7   4    1.20    0.70
  -2  -7   4    1.30    0.50
   1   7  -4    6.80    1.20
   1   7  -4    6.20    1.50
   1   7  -4    6.50    0.90
  -1  -7   4    5.60    1.10
  -1  -7   4    7.30    0.90
  -1  -7   4    7.40    1.00
  -1  -7   4    7.40    0.80
   0   7  -4   25.90    2.40
   0   7  -4   26.10    2.00
   0   7  -4   26.90    2.10
   0  -7   4   23.50    2.20
   0  -7   4   24.80    1.90
   0  -7   4   23.20    2.10
  -1   7  -4   15.90    1.60
  -1   7  -4    9.40    1.60
  -1   7  -4   14.80    1.50
   1  -7   4   17.80    1.60
   1  -7   4   18.10    1.80
   1  -7   4   16.30    1.40
  -2   7  -4    5.10    0.90
  -2   7  -4    2.00    0.80
  -2   7  -4    3.10    0.90
   2  -7   4    4.20    1.00
   2  -7   4    4.00    0.90
   2  -7   4    4.00    0.60
  -3   7  -4    1.80    0.90
  -3   7  -4   -0.10    0.60
  -3   7  -4    1.30    0.60
  -3   7  -4    0.30    0.50
   3  -7   4    1.00    0.60
   3  -7   4    0.10    0.70
  -4   7  -4   -0.70    0.80
  -4   7  -4    0.30    0.70
  -4   7  -4   -0.80    0.50
  -4   7  -4    0.40    0.60
   4  -7   4    0.20    0.60
   4  -7   4    0.00    1.00
   4  -7   4   -0.70    0.60
  -5   7  -4    0.30    0.60
  -5   7  -4    0.00    0.50
   5  -7   4   -0.40    0.60
   5  -7   4    0.60    1.20
   6   6  -4   -0.10    0.80
  -6  -6   4   -0.10    0.70
  -6  -6   4    0.40    0.40
   5   6  -4   -0.70    0.80
  -5  -6   4    0.30    0.60
  -5  -6   4   -0.30    0.40
   4   6  -4    0.00    0.90
   4   6  -4   -0.10    0.30
  -4  -6   4    0.30    0.50
  -4  -6   4    0.20    0.40
   3   6  -4   16.70    2.20
   3   6  -4   15.60    1.60
   3   6  -4   16.50    1.30
  -3  -6   4   15.70    1.50
  -3  -6   4   14.60    1.60
  -3  -6   4   16.90    1.50
   2   6  -4   34.90    2.20
   2   6  -4   35.70    3.10
   2   6  -4   29.70    2.40
  -2  -6   4   30.10    2.20
  -2  -6   4   31.90    2.10
  -2  -6   4   25.50    2.20
  -2  -6   4   26.70    2.40
  -2  -6   4   32.60    2.20
   1   6  -4   51.99    3.50
   1   6  -4   52.29    3.80
   1   6  -4   51.39    4.20
  -1  -6   4   53.09    3.60
  -1  -6   4   48.40    3.70
  -1  -6   4   52.69    3.50
  -1  -6   4   55.09    3.40
   0   6  -4   12.10    1.50
   0   6  -4   12.00    1.80
   0   6  -4   12.50    1.20
   0  -6   4    9.20    1.10
   0  -6   4    9.70    1.20
   0  -6   4   12.20    1.40
  -1   6  -4    2.40    0.70
  -1   6  -4    3.60    0.80
  -1   6  -4    2.10    0.80
   1  -6   4    2.60    0.90
   1  -6   4    1.90    0.50
   1  -6   4    0.80    0.60
  -2   6  -4    6.50    1.10
  -2   6  -4    5.40    1.10
  -2   6  -4    4.90    0.80
   2  -6   4   11.30    1.50
   2  -6   4    5.90    1.00
  -3   6  -4    2.30    0.90
  -3   6  -4    1.80    0.60
  -3   6  -4    2.40    0.80
  -3   6  -4    0.70    0.60
   3  -6   4    2.20    0.80
   3  -6   4    2.70    1.00
   3  -6   4    2.20    1.20
  -4   6  -4    0.50    0.50
  -4   6  -4    0.70    0.60
  -4   6  -4    1.00    0.60
  -4   6  -4    0.30    0.80
  -4   6  -4    1.60    0.60
   4  -6   4    2.30    1.40
   4  -6   4    1.90    0.70
   4  -6   4    1.40    0.90
  -5   6  -4    5.70    1.10
  -5   6  -4    7.20    1.00
  -5   6  -4    6.00    1.00
   5  -6   4   11.20    1.60
   5  -6   4    7.30    2.10
   5  -6   4    5.40    1.00
  -6   6  -4    0.30    0.60
  -6   6  -4    0.60    0.70
   6  -6   4    0.20    0.60
   6  -6   4   -0.50    1.40
   7   5  -4   -0.40    0.90
  -7  -5   4   -0.10    0.80
  -7  -5   4   -0.10    0.30
   6   5  -4    0.50    1.00
  -6  -5   4    0.40    0.70
  -6  -5   4    0.30    0.40
   5   5  -4    0.70    0.80
   5   5  -4    0.10    0.30
  -5  -5   4    0.00    0.60
  -5  -5   4    0.40    0.40
   4   5  -4   32.20    2.10
   4   5  -4   33.40    3.00
  -4  -5   4   27.60    2.40
  -4  -5   4   30.90    2.30
   3   5  -4   52.19    3.90
   3   5  -4   43.90    3.20
   3   5  -4   49.30    3.00
  -3  -5   4   38.80    3.20
  -3  -5   4   39.10    3.10
  -3  -5   4   45.40    3.10
   2   5  -4    8.20    0.90
   2   5  -4    8.10    1.10
   2   5  -4    7.20    1.50
  -2  -5   4    9.90    1.10
  -2  -5   4    8.00    0.80
  -2  -5   4    8.80    1.00
  -2  -5   4    8.90    0.90
  -2  -5   4    7.60    1.20
   1   5  -4    1.00    0.70
   1   5  -4    0.90    0.90
   1   5  -4    0.90    0.40
  -1  -5   4    0.40    0.50
  -1  -5   4    0.60    0.40
  -1  -5   4    1.10    0.50
  -1  -5   4    0.90    0.30
  -1  -5   4    0.80    0.40
   0   5  -4   47.90    3.40
   0   5  -4   46.60    3.10
   0   5  -4   52.89    3.80
   0  -5   4   39.80    3.20
   0  -5   4   41.40    3.00
   0  -5   4   49.70    3.50
  -1   5  -4    2.30    0.90
  -1   5  -4    4.70    1.10
  -1   5  -4    3.50    0.70
  -1   5  -4    2.60    0.60
   1  -5   4    3.50    0.90
   1  -5   4    1.70    0.40
   1  -5   4    2.70    0.80
  -2   5  -4   -0.20    0.50
  -2   5  -4    0.00    0.40
  -2   5  -4   -0.40    0.60
  -2   5  -4   -0.10    0.40
   2  -5   4    0.30    0.60
   2  -5   4   -0.40    0.60
   2  -5   4    0.60    0.70
  -3   5  -4   30.30    2.20
  -3   5  -4   29.80    2.40
  -3   5  -4   27.00    2.40
  -3   5  -4   26.70    2.20
   3  -5   4   27.80    3.20
   3  -5   4   28.80    2.30
  -4   5  -4   10.60    1.40
  -4   5  -4   11.10    1.20
  -4   5  -4    9.90    1.30
  -4   5  -4   12.60    1.40
  -4   5  -4   13.70    1.60
   4  -5   4   15.70    1.90
   4  -5   4   10.00    1.40
   4  -5   4   12.30    2.50
  -5   5  -4    1.40    0.70
  -5   5  -4    1.80    0.70
  -5   5  -4    0.50    0.60
   5  -5   4    1.80    1.40
   5  -5   4    0.40    0.60
   5  -5   4    1.20    1.00
  -6   5  -4    0.00    0.50
  -6   5  -4    0.40    0.60
   6  -5   4   -0.30    1.10
   6  -5   4    0.60    0.80
   6  -5   4    0.20    0.90
  -7   5  -4    0.80    0.60
  -7   5  -4    0.70    0.70
   7  -5   4    1.70    1.60
   7   4  -4   -0.50    1.00
  -7  -4   4    0.00    0.40
  -7  -4   4    0.50    0.80
   6   4  -4    0.50    0.40
   6   4  -4    0.50    1.00
  -6  -4   4    2.10    0.80
  -6  -4   4    0.80    0.50
   5   4  -4    1.50    0.90
   5   4  -4    1.60    0.40
  -5  -4   4    2.50    0.80
  -5  -4   4    1.60    0.60
   4   4  -4   11.20    0.90
   4   4  -4    7.90    1.40
  -4  -4   4    8.60    1.10
  -4  -4   4   12.10    1.20
   3   4  -4    2.00    1.00
   3   4  -4    1.70    0.50
   3   4  -4    1.60    0.40
  -3  -4   4    2.40    0.60
  -3  -4   4    1.60    0.60
  -3  -4   4    1.70    0.60
   2   4  -4   17.60    1.30
   2   4  -4   16.90    1.50
   2   4  -4   21.00    2.30
  -2  -4   4   19.40    1.30
  -2  -4   4   14.90    1.60
  -2  -4   4   15.80    1.40
  -2  -4   4   17.60    1.40
  -2  -4   4   17.70    1.50
   1   4  -4    9.60    0.80
   1   4  -4   10.00    1.20
   1   4  -4   10.40    0.90
   1   4  -4    8.70    1.40
  -1  -4   4    9.40    0.80
  -1  -4   4   10.50    1.00
  -1  -4   4    9.10    1.00
  -1  -4   4    8.50    0.90
  -1  -4   4    7.90    1.00
   0   4  -4   13.70    1.20
   0   4  -4   16.50    1.90
   0   4  -4   14.70    1.40
   0   4  -4   13.40    1.20
   0  -4   4   12.20    1.10
   0  -4   4   13.10    1.10
   0  -4   4   16.20    1.60
   0  -4   4   11.50    1.40
  -1   4  -4   11.50    1.10
  -1   4  -4   12.50    1.60
  -1   4  -4   10.20    1.30
  -1   4  -4   12.70    1.10
   1  -4   4   15.40    1.60
   1  -4   4   11.40    1.60
   1  -4   4   12.70    1.30
  -2   4  -4   50.69    3.60
  -2   4  -4   53.49    3.50
  -2   4  -4   47.70    3.50
  -2   4  -4   50.49    3.70
   2  -4   4   61.29    3.70
   2  -4   4   49.20    4.40
   2  -4   4   50.89    3.70
  -3   4  -4   22.10    1.90
  -3   4  -4   18.60    1.70
  -3   4  -4   23.30    1.80
  -3   4  -4   19.50    2.00
   3  -4   4   27.40    2.50
   3  -4   4   22.30    2.00
   3  -4   4   20.90    2.70
  -4   4  -4    0.30    0.60
  -4   4  -4    0.30    0.50
  -4   4  -4   -0.20    0.40
  -4   4  -4    1.00    0.60
  -4   4  -4   -0.10    0.30
   4  -4   4    0.10    0.90
   4  -4   4   -0.60    0.60
   4  -4   4   -0.40    0.80
  -5   4  -4    0.90    0.70
  -5   4  -4    1.60    0.60
  -5   4  -4    1.30    0.60
   5  -4   4    1.60    1.30
   5  -4   4    0.90    0.90
   5  -4   4    0.30    0.70
  -6   4  -4    1.50    0.70
  -6   4  -4    0.60    0.70
   6  -4   4    0.00    0.90
   6  -4   4    1.00    1.40
  -7   4  -4    0.50    0.60
  -7   4  -4    0.20    0.50
   7  -4   4    1.90    1.80
  -8  -3   4   -0.30    0.40
  -8  -3   4    0.10    0.40
   7   3  -4    0.10    0.90
   7   3  -4    0.10    0.40
  -7  -3   4    0.20    0.40
  -7  -3   4    0.10    0.40
   6   3  -4   12.20    1.90
   6   3  -4    8.00    1.00
  -6  -3   4    9.50    1.10
  -6  -3   4   10.00    1.20
  -6  -3   4   11.60    1.40
   5   3  -4   22.40    1.60
  -5  -3   4   19.90    1.70
  -5  -3   4   19.50    1.70
  -5  -3   4   16.50    1.80
   4   3  -4    0.70    0.40
  -4  -3   4    1.70    0.70
  -4  -3   4    0.30    0.40
  -4  -3   4    1.10    0.50
   3   3  -4   20.60    1.50
   3   3  -4   20.50    1.50
  -3  -3   4   20.70    1.60
  -3  -3   4   15.40    1.60
  -3  -3   4   21.10    1.50
  -3  -3   4   18.20    1.60
   2   3  -4   11.50    1.00
   2   3  -4   12.10    1.10
  -2  -3   4   12.10    0.90
  -2  -3   4    9.80    0.90
  -2  -3   4   11.00    1.20
  -2  -3   4    9.80    1.00
  -2  -3   4   12.70    1.10
   1   3  -4    0.30    0.40
   1   3  -4    0.20    0.30
  -1  -3   4    0.30    0.30
  -1  -3   4   -0.10    0.20
  -1  -3   4    0.30    0.30
  -1  -3   4   -0.30    0.30
  -1  -3   4    0.20    0.40
   0   3  -4   33.60    2.10
   0   3  -4   31.00    2.30
   0   3  -4   29.70    2.00
   0  -3   4   24.50    2.20
   0  -3   4   32.60    2.40
   0  -3   4   36.60    2.50
   0  -3   4   29.20    2.10
   0  -3   4   24.40    2.20
  -1   3  -4   84.79    5.10
  -1   3  -4   76.19    5.20
  -1   3  -4   83.49    5.30
  -1   3  -4   81.99    5.10
   1  -3   4   95.99    5.40
   1  -3   4   78.99    5.40
   1  -3   4   67.99    5.60
   1  -3   4   70.29    4.90
  -2   3  -4    9.90    1.20
  -2   3  -4    9.10    1.10
  -2   3  -4    9.70    1.10
  -2   3  -4    9.40    1.10
  -2   3  -4    9.10    1.00
   2  -3   4   10.40    1.10
   2  -3   4    7.10    1.50
   2  -3   4    8.10    1.50
   2  -3   4    8.60    1.30
  -3   3  -4    0.30    0.50
  -3   3  -4    0.60    0.40
  -3   3  -4    0.50    0.30
  -3   3  -4    1.00    0.50
   3  -3   4    0.00    0.80
   3  -3   4    1.10    0.80
   3  -3   4    0.00    0.70
   3  -3   4    0.60    0.50
  -4   3  -4    6.50    0.90
  -4   3  -4    5.00    0.80
  -4   3  -4    4.90    0.60
  -4   3  -4    4.60    0.90
  -4   3  -4    6.90    1.00
   4  -3   4    7.30    1.10
   4  -3   4    5.90    1.60
   4  -3   4    4.60    1.60
  -5   3  -4    2.30    0.60
  -5   3  -4    2.30    0.80
  -5   3  -4    1.20    0.60
   5  -3   4    0.80    1.20
   5  -3   4    2.20    0.90
   5  -3   4    3.70    1.50
  -6   3  -4    0.50    0.50
  -6   3  -4    1.30    0.70
   6  -3   4    1.40    1.10
   6  -3   4    1.00    1.40
  -7   3  -4    2.10    0.70
  -7   3  -4    2.70    0.90
   7  -3   4    2.00    1.70
   7  -3   4    2.50    1.40
  -8   3  -4    4.70    1.00
   8  -3   4   21.50    4.20
   8   2  -4    2.00    1.20
  -8  -2   4    0.60    0.50
  -8  -2   4    1.40    0.50
   7   2  -4   10.60    1.10
  -7  -2   4   10.20    1.20
  -7  -2   4   10.20    1.20
   6   2  -4    5.60    0.80
  -6  -2   4    5.30    0.90
  -6  -2   4    5.40    0.90
   5   2  -4    0.70    0.40
  -5  -2   4   -0.60    0.60
  -5  -2   4    1.50    0.50
  -5  -2   4    1.50    0.60
   4   2  -4    1.30    0.40
  -4  -2   4    3.50    0.80
  -4  -2   4    1.50    0.50
  -4  -2   4    1.70    0.60
   3   2  -4    0.50    0.30
   3   2  -4    0.70    0.40
  -3  -2   4    0.90    0.40
  -3  -2   4    1.00    0.40
  -3  -2   4    0.50    0.40
  -3  -2   4    0.60    0.30
   2   2  -4   33.70    2.30
   2   2  -4   35.40    2.30
  -2  -2   4   36.10    2.40
  -2  -2   4   35.70    2.20
  -2  -2   4   34.70    2.40
  -2  -2   4   33.60    2.30
  -2  -2   4   31.40    2.20
  -2  -2   4   27.50    2.40
   1   2  -4  306.37   19.80
   1   2  -4  324.17   19.70
  -1  -2   4  278.87   20.00
  -1  -2   4  321.67   19.90
  -1  -2   4  346.87   19.70
  -1  -2   4  328.47   19.80
  -1  -2   4  345.47   19.60
  -1  -2   4  348.97   20.00
   0   2  -4   87.39    5.80
   0   2  -4   97.89    5.70
   0  -2   4   91.99    5.70
   0  -2   4   87.39    5.90
  -1   2  -4   11.60    1.10
  -1   2  -4   11.00    1.00
  -1   2  -4   11.20    1.00
   1  -2   4   14.90    1.30
   1  -2   4   13.10    1.60
   1  -2   4   14.00    1.50
   1  -2   4   11.60    0.90
  -2   2  -4    1.20    0.50
  -2   2  -4    1.50    0.40
  -2   2  -4    0.90    0.40
  -2   2  -4    1.80    0.50
   2  -2   4    1.70    0.80
   2  -2   4    1.10    0.50
   2  -2   4    0.70    0.80
  -3   2  -4    0.20    0.40
  -3   2  -4    0.50    0.40
  -3   2  -4    0.40    0.30
  -3   2  -4    0.80    0.50
  -3   2  -4    0.50    0.50
   3  -2   4    0.20    0.60
   3  -2   4    0.90    0.90
   3  -2   4    0.30    0.60
  -4   2  -4   41.00    2.80
  -4   2  -4   43.10    3.10
  -4   2  -4   43.90    3.10
  -4   2  -4   45.50    3.00
   4  -2   4   44.20    3.40
   4  -2   4   41.30    3.30
   4  -2   4   45.80    4.10
  -5   2  -4    5.10    1.00
  -5   2  -4    4.90    0.90
  -5   2  -4    4.80    0.80
   5  -2   4    3.60    1.00
   5  -2   4    8.10    1.90
   5  -2   4    4.00    1.60
  -6   2  -4   58.99    4.10
  -6   2  -4   54.39    4.00
   6  -2   4   56.99    5.30
   6  -2   4   57.69    5.70
  -7   2  -4    0.70    0.60
  -7   2  -4    0.80    0.60
   7  -2   4   -0.50    1.20
   7  -2   4    1.00    1.60
  -8   2  -4   45.10    3.40
   8   1  -4    2.30    0.60
  -8  -1   4    3.00    0.60
  -8  -1   4    2.60    0.60
  -8  -1   4    2.70    0.80
   7   1  -4    8.10    1.00
  -7  -1   4    6.30    1.10
  -7  -1   4    8.50    1.10
  -7  -1   4    9.40    1.30
   6   1  -4   37.20    2.70
  -6  -1   4   34.80    2.70
  -6  -1   4   38.00    2.80
  -6  -1   4   42.90    3.00
   5   1  -4    2.20    0.60
  -5  -1   4    3.00    0.80
  -5  -1   4    0.50    0.70
  -5  -1   4    3.50    0.70
  -5  -1   4    3.60    0.70
   4   1  -4    9.70    1.10
  -4  -1   4   10.30    1.30
  -4  -1   4    9.60    1.20
  -4  -1   4   10.10    1.20
  -4  -1   4   10.70    1.20
   3   1  -4   78.89    5.00
   3   1  -4   88.99    5.20
   3   1  -4   80.79    5.10
  -3  -1   4   75.29    5.20
  -3  -1   4   74.29    5.10
  -3  -1   4   74.19    4.90
  -3  -1   4   79.09    5.20
   2   1  -4   44.40    2.80
   2   1  -4   45.10    2.90
  -2  -1   4   36.60    2.90
  -2  -1   4   44.50    2.90
  -2  -1   4   48.00    3.00
  -2  -1   4   45.70    3.00
  -2  -1   4   41.90    2.70
  -2  -1   4   43.20    2.80
   1   1  -4   25.40    1.80
   1   1  -4   26.90    1.90
  -1  -1   4   27.10    1.90
  -1  -1   4   28.00    1.90
  -1  -1   4   29.50    1.80
  -1  -1   4   22.30    2.00
  -1  -1   4   27.70    1.70
   0   1  -4   83.29    5.30
   0   1  -4   79.99    5.40
   0  -1   4   89.09    5.60
   0  -1   4   81.09    5.70
   0  -1   4   86.79    5.70
   0  -1   4   85.89    5.30
  -1   1  -4   13.30    1.20
  -1   1  -4   14.00    1.10
  -1   1  -4   16.00    1.20
   1  -1   4   16.60    1.10
   1  -1   4   15.90    1.90
   1  -1   4   11.60    1.40
   1  -1   4   10.70    1.70
  -2   1  -4   21.60    1.50
  -2   1  -4   19.80    1.50
  -2   1  -4   20.60    1.60
   2  -1   4   19.90    2.00
   2  -1   4   20.40    2.00
   2  -1   4   18.90    2.40
  -3   1  -4   92.09    5.50
  -3   1  -4   89.29    5.60
  -3   1  -4   85.89    5.60
  -3   1  -4   87.99    5.60
  -3   1  -4   88.09    5.40
   3  -1   4   91.49    6.10
   3  -1   4   81.49    6.60
   3  -1   4   80.89    6.10
  -4   1  -4   34.00    2.40
  -4   1  -4   30.20    2.10
  -4   1  -4   33.80    2.30
  -4   1  -4   33.30    2.30
  -4   1  -4   29.60    2.40
   4  -1   4   28.10    2.90
   4  -1   4   26.50    3.40
   4  -1   4   30.80    2.80
  -5   1  -4    3.20    0.60
  -5   1  -4    2.00    0.70
  -5   1  -4    2.50    0.70
   5  -1   4    3.10    1.60
   5  -1   4    2.80    1.00
   5  -1   4    2.00    1.20
  -6   1  -4  130.79    8.20
  -6   1  -4  123.49    8.20
   6  -1   4  124.49    9.70
  -7   1  -4    1.60    0.70
  -7   1  -4    2.00    0.70
   7  -1   4    0.90    1.40
   7  -1   4    1.70    1.70
  -8   1  -4    0.50    0.60
  -8   1  -4   -0.40    0.50
   8  -1   4    0.30    1.40
   8  -1   4    0.70    1.60
  -9   1  -4    0.40    0.50
  -9   1  -4   -0.30    0.50
   9  -1   4   -0.40    1.60
   8   0  -4   16.40    1.40
  -8   0   4   15.60    1.60
  -8   0   4   14.30    1.50
  -8   0   4   14.60    1.30
   7   0  -4    5.00    0.90
  -7   0   4    4.20    0.80
  -7   0   4    3.90    0.90
  -7   0   4    3.10    0.60
   6   0  -4    1.00    0.50
  -6   0   4    0.00    0.50
  -6   0   4    0.70    0.50
  -6   0   4    0.70    0.60
   5   0  -4   -0.10    0.40
  -5   0   4    0.20    0.50
  -5   0   4    0.50    0.60
  -5   0   4    0.70    0.40
   4   0  -4   13.50    1.60
   4   0  -4   12.10    1.30
  -4   0   4   13.60    1.30
  -4   0   4   11.80    1.30
  -4   0   4   12.70    1.20
   3   0  -4    1.30    0.40
   3   0  -4    1.00    0.30
   3   0  -4    1.30    0.60
  -3   0   4    0.60    0.40
  -3   0   4    0.90    0.30
  -3   0   4    2.10    0.60
  -3   0   4    1.50    0.40
   2   0  -4   69.89    4.30
   2   0  -4   63.29    4.10
   2   0  -4   67.09    4.20
  -2   0   4   56.69    4.30
  -2   0   4   64.29    4.30
  -2   0   4   65.79    4.30
  -2   0   4   68.59    4.20
  -2   0   4   65.69    4.20
  -2   0   4   65.69    4.20
  -2   0   4   62.69    4.10
   1   0  -4  514.95   33.60
   1   0  -4  563.34   33.70
   1   0  -4  530.15   33.70
  -1   0   4  514.25   34.00
  -1   0   4  519.45   33.70
  -1   0   4  566.24   33.80
  -1   0   4  636.64   33.80
  -1   0   4  582.74   33.90
  -1   0   4  590.14   33.50
   0   0  -4   13.70    1.10
   0   0  -4   14.30    1.20
   0   0  -4   13.80    1.10
   0   0   4   13.00    1.10
   0   0   4   13.30    1.40
   0   0   4   14.10    1.70
   0   0   4   15.50    1.10
  -1   0  -4  147.99    8.60
  -1   0  -4  134.59    8.70
  -1   0  -4  147.99    8.70
  -1   0  -4  131.79    9.00
   1   0   4  150.58    8.60
   1   0   4  145.19    8.70
   1   0   4  136.69    9.20
   1   0   4  134.09    9.40
  -2   0  -4   64.79    4.00
  -2   0  -4   60.39    4.00
  -2   0  -4   58.19    4.00
  -2   0  -4   68.99    3.90
   2   0   4   64.39    3.90
   2   0   4   66.99    3.90
   2   0   4   60.99    4.80
   2   0   4   53.19    4.30
  -3   0  -4   41.30    2.50
  -3   0  -4   40.40    2.80
  -3   0  -4   41.60    2.80
  -3   0  -4   41.70    2.70
  -3   0  -4   37.20    2.80
  -3   0  -4   42.30    2.70
   3   0   4   37.60    3.20
   3   0   4   42.40    2.60
   3   0   4   36.00    3.50
   3   0   4   45.30    4.10
  -4   0  -4    7.40    1.00
  -4   0  -4    7.60    1.10
  -4   0  -4    6.70    0.80
  -4   0  -4    8.30    1.10
  -4   0  -4    6.30    0.60
  -4   0  -4    5.20    0.80
   4   0   4    4.90    1.40
   4   0   4    5.20    1.80
   4   0   4    5.80    1.30
  -5   0  -4    6.20    1.10
  -5   0  -4    9.30    1.20
  -5   0  -4    9.50    1.10
   5   0   4    9.70    2.40
   5   0   4   10.30    2.10
   5   0   4    9.20    1.50
  -6   0  -4   18.30    1.70
  -6   0  -4   19.70    1.80
  -6   0  -4   20.20    1.80
   6   0   4   15.30    3.10
   6   0   4   20.10    3.10
  -7   0  -4    0.60    0.60
  -7   0  -4    0.30    0.50
  -7   0  -4    0.10    0.50
   7   0   4    0.00    1.40
  -8   0  -4    0.40    0.60
  -8   0  -4   -0.80    0.50
  -8   0  -4   -0.30    0.40
   8   0   4   -0.30    1.40
   8   0   4   -0.20    1.30
  -9   0  -4    0.20    0.60
   9   0   4   -0.80    1.40
   8  -1  -4    0.60    0.50
  -8   1   4    0.40    0.50
  -8   1   4    1.40    0.60
   7  -1  -4    0.40    0.50
  -7   1   4   -0.10    0.50
  -7   1   4    0.20    0.40
  -7   1   4   -0.80    0.50
   6  -1  -4    5.30    0.80
   6  -1  -4    1.90    1.00
  -6   1   4    4.40    0.70
  -6   1   4    6.10    0.90
  -6   1   4    4.50    0.90
   5  -1  -4    0.60    0.50
   5  -1  -4    0.60    0.70
  -5   1   4    0.00    0.60
  -5   1   4    0.40    0.40
  -5   1   4   -0.80    0.40
   4  -1  -4   12.70    1.40
   4  -1  -4   11.60    1.60
  -4   1   4   11.70    1.20
  -4   1   4   16.00    1.50
  -4   1   4   14.20    1.40
   3  -1  -4  214.58   13.10
   3  -1  -4  208.88   12.50
   3  -1  -4  202.18   12.70
  -3   1   4  209.88   12.70
  -3   1   4  199.58   12.80
  -3   1   4  193.78   12.60
   2  -1  -4  482.95   28.80
   2  -1  -4  476.95   29.00
   2  -1  -4  530.35   29.20
  -2   1   4  465.95   29.00
  -2   1   4  464.55   28.90
  -2   1   4  450.25   29.00
  -2   1   4  485.65   29.00
  -2   1   4  462.65   29.00
   1  -1  -4    3.30    0.50
   1  -1  -4    2.40    0.40
   1  -1  -4    2.50    0.50
  -1   1   4    2.60    0.50
  -1   1   4    3.30    0.40
  -1   1   4    2.80    0.50
  -1   1   4    2.90    0.50
  -1   1   4    2.40    0.60
  -1   1   4    1.70    0.70
  -1   1   4    2.90    0.50
   0  -1  -4   40.20    2.90
   0  -1  -4   45.20    2.80
   0  -1  -4   42.30    2.80
   0   1   4   43.70    2.80
   0   1   4   39.80    3.20
   0   1   4   45.70    2.90
   0   1   4   46.80    2.90
   0   1   4   43.70    3.40
   0   1   4   43.20    3.30
  -1  -1  -4   44.50    2.50
  -1  -1  -4   37.80    2.60
  -1  -1  -4   42.60    3.00
  -1  -1  -4   40.30    2.60
   1   1   4   40.90    2.70
   1   1   4   37.10    2.50
   1   1   4   40.90    3.30
   1   1   4   29.10    2.90
   1   1   4   42.00    2.60
  -2  -1  -4  297.57   17.70
  -2  -1  -4  298.77   17.80
  -2  -1  -4  301.07   17.60
  -2  -1  -4  281.87   18.20
  -2  -1  -4  303.27   17.70
   2   1   4  274.07   18.70
   2   1   4  292.87   18.30
   2   1   4  295.37   17.80
   2   1   4  276.07   18.50
  -3  -1  -4  101.99    6.10
  -3  -1  -4   99.19    6.30
  -3  -1  -4   98.89    6.10
  -3  -1  -4  103.89    6.00
  -3  -1  -4   98.89    6.20
   3   1   4   92.59    7.40
   3   1   4   89.09    7.00
   3   1   4   95.49    6.20
   3   1   4   90.19    6.60
  -4  -1  -4   48.00    3.20
  -4  -1  -4   46.20    2.90
  -4  -1  -4   51.59    3.10
  -4  -1  -4   46.80    3.20
  -4  -1  -4   47.40    3.30
   4   1   4   47.30    3.30
   4   1   4   38.70    4.10
   4   1   4   45.50    4.50
   4   1   4   44.20    3.60
  -5  -1  -4   52.69    3.50
  -5  -1  -4   53.99    3.40
  -5  -1  -4   40.90    3.40
   5   1   4   47.90    5.00
   5   1   4   49.90    4.60
  -6  -1  -4   -0.10    0.40
  -6  -1  -4   -0.10    0.50
  -6  -1  -4    1.90    0.60
   6   1   4   -0.30    1.30
   6   1   4   -0.70    1.20
  -7  -1  -4    0.40    0.50
  -7  -1  -4    0.50    0.60
  -7  -1  -4    0.30    0.50
   7   1   4   -0.10    1.30
  -8  -1  -4    4.50    0.90
  -8  -1  -4    2.50    0.70
   8   1   4    1.50    1.80
  -9  -1  -4   -0.30    0.40
  -9  -1  -4    0.00    0.50
   9   1   4    0.30    1.80
   9   1   4    0.60    1.70
   8  -2  -4   -0.20    0.40
  -8   2   4   -0.20    0.50
  -8   2   4    0.20    0.40
   7  -2  -4   -0.30    0.40
   7  -2  -4    0.40    0.90
  -7   2   4   -0.10    0.40
  -7   2   4    0.50    0.50
  -7   2   4    0.10    0.30
  -7   2   4   -1.00    0.50
   6  -2  -4   -0.10    0.80
   6  -2  -4   -0.20    0.40
  -6   2   4    0.20    0.50
  -6   2   4    0.10    0.30
  -6   2   4   -0.40    0.30
  -6   2   4    0.30    0.60
   5  -2  -4    4.20    1.20
   5  -2  -4    3.30    0.80
  -5   2   4    4.70    0.70
  -5   2   4    3.90    0.60
  -5   2   4    4.10    0.90
  -5   2   4    5.00    0.90
   4  -2  -4  182.18   12.50
  -4   2   4  183.28   11.70
  -4   2   4  192.68   11.80
  -4   2   4  187.48   11.70
  -4   2   4  199.48   11.90
   3  -2  -4    9.40    0.80
   3  -2  -4    8.20    1.20
  -3   2   4    8.10    1.10
  -3   2   4    8.60    1.00
  -3   2   4    7.00    0.80
  -3   2   4    6.80    0.80
   2  -2  -4   82.49    5.40
   2  -2  -4   79.59    4.80
   2  -2  -4   73.69    5.00
  -2   2   4   74.09    5.00
  -2   2   4   73.29    4.90
  -2   2   4   75.79    5.00
  -2   2   4   75.09    5.00
  -2   2   4   78.29    4.90
  -2   2   4   74.29    5.30
   1  -2  -4   45.20    3.10
   1  -2  -4   46.00    3.00
   1  -2  -4   42.20    3.20
  -1   2   4   49.10    3.20
  -1   2   4   45.90    3.60
  -1   2   4   47.90    3.10
  -1   2   4   49.00    3.30
  -1   2   4   48.40    3.10
  -1   2   4   46.60    3.10
   0  -2  -4  537.95   32.30
   0  -2  -4  532.35   32.00
   0  -2  -4  481.95   32.00
   0  -2  -4  508.65   32.10
   0   2   4  542.15   32.20
   0   2   4  521.55   32.50
   0   2   4  564.34   32.70
   0   2   4  544.25   32.10
   0   2   4  521.55   32.70
   0   2   4  560.74   32.30
   0   2   4  537.75   32.10
  -1  -2  -4  157.58   10.00
  -1  -2  -4  153.88    9.60
  -1  -2  -4  171.88    9.60
  -1  -2  -4  165.78    9.70
   1   2   4  146.89   10.20
   1   2   4  156.68   10.50
   1   2   4  164.98    9.90
   1   2   4  160.38    9.60
   1   2   4  132.99   10.30
  -2  -2  -4   29.30    1.80
  -2  -2  -4   28.40    2.50
  -2  -2  -4   29.20    1.90
  -2  -2  -4   26.30    2.00
  -2  -2  -4   28.80    2.00
  -2  -2  -4   30.70    2.20
   2   2   4   29.50    1.80
   2   2   4   31.60    2.60
   2   2   4   27.90    2.20
   2   2   4   28.80    2.90
   2   2   4   28.20    3.00
  -3  -2  -4  377.66   23.80
  -3  -2  -4  412.46   23.50
  -3  -2  -4  402.56   23.50
  -3  -2  -4  400.96   23.80
  -3  -2  -4  381.86   23.60
  -3  -2  -4  410.66   23.50
   3   2   4  378.66   24.10
   3   2   4  375.26   23.90
   3   2   4  375.56   25.10
   3   2   4  372.66   24.80
  -4  -2  -4  152.38    9.70
  -4  -2  -4  155.58    9.40
  -4  -2  -4  154.18    9.50
  -4  -2  -4  156.28    9.60
   4   2   4  144.69    9.70
   4   2   4  142.69   11.10
   4   2   4  154.78   10.80
  -5  -2  -4    0.60    0.40
  -5  -2  -4    0.60    0.40
  -5  -2  -4    0.80    0.60
  -5  -2  -4    0.70    0.50
   5   2   4    1.20    0.70
   5   2   4   -0.50    1.00
   5   2   4    0.80    1.30
  -6  -2  -4   -0.10    0.40
  -6  -2  -4    1.00    0.60
  -6  -2  -4   -0.10    0.60
  -6  -2  -4   -0.20    0.40
   6   2   4    1.50    1.50
   6   2   4   -0.50    1.20
  -7  -2  -4    4.40    0.90
  -7  -2  -4    6.80    1.40
  -7  -2  -4    3.20    0.80
   7   2   4    4.70    2.10
   7   2   4    2.70    1.90
  -8  -2  -4    1.90    0.70
  -8  -2  -4    3.60    0.90
   8   2   4    3.80    2.10
  -9  -2  -4    3.20    0.80
  -9  -2  -4    0.50    0.50
   9   2   4    1.80    1.90
   7  -3  -4    0.90    1.20
  -7   3   4    0.60    0.60
  -7   3   4    0.40    0.60
  -7   3   4    0.00    0.30
   6  -3  -4    2.60    1.20
  -6   3   4    3.70    0.60
  -6   3   4    3.90    0.70
  -6   3   4    3.50    0.90
  -6   3   4    4.30    0.80
   5  -3  -4   14.50    2.20
  -5   3   4   11.60    1.40
  -5   3   4   11.90    1.10
  -5   3   4   11.40    1.20
  -5   3   4   14.00    1.40
   4  -3  -4   41.90    3.60
  -4   3   4   38.70    2.80
  -4   3   4   36.20    2.80
  -4   3   4   36.60    2.60
  -4   3   4   37.10    2.70
   3  -3  -4   35.50    2.40
   3  -3  -4   40.50    3.30
  -3   3   4   31.60    2.40
  -3   3   4   35.50    2.70
  -3   3   4   33.60    2.60
  -3   3   4   33.80    2.90
  -3   3   4   37.40    2.50
  -3   3   4   33.50    2.60
   2  -3  -4   13.20    1.10
   2  -3  -4   14.70    1.60
  -2   3   4   12.20    1.10
  -2   3   4   11.90    1.20
  -2   3   4   12.40    1.10
  -2   3   4   10.50    1.20
  -2   3   4    8.60    1.70
  -2   3   4   13.30    1.30
   1  -3  -4    3.50    0.50
   1  -3  -4    4.90    0.80
  -1   3   4    3.10    0.60
  -1   3   4    3.80    1.10
  -1   3   4    3.40    0.90
  -1   3   4    4.10    0.80
  -1   3   4    3.80    0.70
  -1   3   4    2.10    0.50
   0  -3  -4  233.78   13.70
   0  -3  -4  225.18   13.30
   0  -3  -4  186.28   13.40
   0   3   4  222.38   14.10
   0   3   4  228.48   13.50
   0   3   4  229.58   13.70
   0   3   4  214.48   13.40
   0   3   4  230.88   14.00
   0   3   4  209.98   14.10
  -1  -3  -4   70.49    4.30
  -1  -3  -4   67.19    4.40
  -1  -3  -4   68.29    4.60
  -1  -3  -4   71.59    4.30
  -1  -3  -4   69.89    4.30
   1   3   4   66.69    4.30
   1   3   4   70.49    5.20
   1   3   4   60.49    5.20
   1   3   4   64.89    4.90
   1   3   4   69.19    4.20
   1   3   4   66.29    4.60
  -2  -3  -4 1114.19   64.99
  -2  -3  -4 1095.09   65.49
  -2  -3  -4 1091.69   65.09
  -2  -3  -4 1060.99   65.19
   2   3   4 1096.29   66.19
   2   3   4 1099.49   65.59
   2   3   4 1067.79   65.39
   2   3   4 1022.80   66.19
  -3  -3  -4   27.80    1.80
  -3  -3  -4   27.00    2.00
  -3  -3  -4   25.50    2.40
  -3  -3  -4   27.20    2.20
  -3  -3  -4   28.10    1.90
   3   3   4   25.60    3.00
   3   3   4   26.00    2.30
   3   3   4   27.80    3.30
   3   3   4   25.80    2.50
  -4  -3  -4    6.80    0.90
  -4  -3  -4    7.80    0.70
  -4  -3  -4    6.00    0.60
  -4  -3  -4    7.10    1.20
  -4  -3  -4    7.50    1.00
   4   3   4    5.10    1.30
   4   3   4    2.90    1.50
   4   3   4    5.00    1.10
   4   3   4    5.90    2.10
  -5  -3  -4   38.90    3.00
  -5  -3  -4   35.40    2.70
  -5  -3  -4   35.40    2.80
   5   3   4   37.90    3.10
   5   3   4   38.60    4.50
   5   3   4   37.90    4.10
  -6  -3  -4    0.70    0.50
  -6  -3  -4    1.90    0.90
  -6  -3  -4    1.70    0.60
   6   3   4    1.20    1.60
   6   3   4    1.10    1.50
   6   3   4    1.50    0.90
  -7  -3  -4    4.70    1.30
  -7  -3  -4    3.20    0.70
  -7  -3  -4    3.90    0.90
   7   3   4    4.20    2.20
   7   3   4    2.10    1.90
  -8  -3  -4    0.10    0.50
  -8  -3  -4    0.10    0.50
  -8  -3  -4    0.30    1.10
   8   3   4    0.90    1.80
   8   3   4    0.20    1.70
  -9  -3  -4   -0.50    0.50
  -9  -3  -4   -0.70    1.00
   9   3   4    0.30    1.90
   7  -4  -4    0.40    1.20
  -7   4   4    0.40    0.50
  -7   4   4   -0.80    0.40
  -7   4   4   -0.10    0.30
   6  -4  -4    0.60    1.00
  -6   4   4    1.20    0.60
  -6   4   4    0.70    0.60
  -6   4   4    0.60    0.50
   5  -4  -4    2.80    1.20
  -5   4   4    0.90    0.70
  -5   4   4    1.10    0.50
  -5   4   4    2.70    0.50
  -5   4   4    1.60    0.60
   4  -4  -4   -0.10    0.40
   4  -4  -4    0.10    0.70
  -4   4   4   -0.20    0.40
  -4   4   4   -0.60    0.40
  -4   4   4   -0.60    0.20
  -4   4   4   -0.40    0.30
  -4   4   4    0.20    0.40
   3  -4  -4   18.90    1.50
   3  -4  -4   22.70    2.30
  -3   4   4   18.90    1.70
  -3   4   4   16.10    1.60
  -3   4   4   16.20    1.50
  -3   4   4   17.50    1.40
  -3   4   4   15.30    2.10
  -3   4   4   18.00    1.60
   2  -4  -4   23.50    2.20
   2  -4  -4   17.90    1.50
  -2   4   4   17.50    1.50
  -2   4   4   18.90    1.70
  -2   4   4   17.00    1.50
  -2   4   4   21.50    1.70
  -2   4   4   16.10    1.60
  -2   4   4   18.80    2.30
   1  -4  -4    2.90    0.80
   1  -4  -4    1.40    0.40
  -1   4   4    1.70    0.80
  -1   4   4    2.30    0.60
  -1   4   4    1.50    0.50
  -1   4   4    2.50    0.70
  -1   4   4    1.30    0.40
   0  -4  -4  156.58   10.60
   0  -4  -4  148.59   10.30
   0  -4  -4  170.48   10.20
   0   4   4  190.98   11.10
   0   4   4  175.18   11.10
   0   4   4  173.88   10.40
   0   4   4  169.18   10.30
  -1  -4  -4   49.50    3.40
  -1  -4  -4   51.69    3.30
  -1  -4  -4   54.99    3.60
  -1  -4  -4   52.09    3.30
   1   4   4   50.79    3.20
   1   4   4   47.20    4.00
   1   4   4   50.49    3.40
   1   4   4   50.19    3.80
   1   4   4   48.40    4.30
  -2  -4  -4    2.60    0.70
  -2  -4  -4    2.20    0.60
  -2  -4  -4    2.60    0.40
  -2  -4  -4    3.00    0.50
   2   4   4    1.60    1.00
   2   4   4    2.50    1.30
   2   4   4    2.80    0.90
  -3  -4  -4  372.36   23.00
  -3  -4  -4  380.76   22.80
  -3  -4  -4  365.56   23.10
  -3  -4  -4  384.46   22.80
  -3  -4  -4  367.26   23.50
   3   4   4  378.46   23.40
   3   4   4  375.06   24.30
   3   4   4  392.06   23.40
  -4  -4  -4    0.70    0.20
  -4  -4  -4    1.30    0.70
  -4  -4  -4    0.80    0.50
  -4  -4  -4    0.90    0.40
  -4  -4  -4    0.90    0.50
   4   4   4    0.00    0.70
   4   4   4    0.10    0.80
   4   4   4    1.00    1.10
  -5  -4  -4   60.09    4.10
  -5  -4  -4   55.79    3.90
  -5  -4  -4   53.89    3.70
   5   4   4   48.30    5.60
   5   4   4   55.59    4.20
   5   4   4   52.49    5.30
  -6  -4  -4    4.80    0.80
  -6  -4  -4    6.00    1.00
  -6  -4  -4    6.10    1.30
   6   4   4    5.80    2.30
   6   4   4    6.80    1.30
   6   4   4    7.80    2.30
  -7  -4  -4   -0.20    0.80
  -7  -4  -4   -0.80    0.40
   7   4   4   -0.70    1.50
   7   4   4    0.70    1.70
   7   4   4   -0.50    1.20
  -8  -4  -4   22.10    2.40
  -8  -4  -4   14.40    1.60
   8   4   4   13.20    3.30
   8   4   4   12.00    3.10
  -9  -4  -4    0.40    0.50
  -9  -4  -4    0.20    1.10
   9   4   4    0.30    1.70
   9   4   4    0.40    1.90
   7  -5  -4   -0.20    1.00
  -7   5   4    0.00    0.30
  -7   5   4    0.90    0.60
  -7   5   4    0.10    0.50
   6  -5  -4    0.70    1.00
  -6   5   4    1.40    0.50
  -6   5   4    3.70    0.80
  -6   5   4    2.70    0.70
   5  -5  -4   12.80    2.30
  -5   5   4   10.10    1.30
  -5   5   4   10.10    1.40
  -5   5   4   10.10    1.10
   4  -5  -4   10.80    1.00
   4  -5  -4   10.50    2.00
  -4   5   4    6.90    0.90
  -4   5   4    9.00    1.10
  -4   5   4    8.10    1.20
  -4   5   4    9.80    1.30
  -4   5   4    7.90    1.00
   3  -5  -4   24.90    2.50
   3  -5  -4   20.10    1.60
  -3   5   4   16.60    1.70
  -3   5   4   15.70    1.70
  -3   5   4   17.40    1.50
  -3   5   4   16.60    1.60
  -3   5   4   21.20    2.50
  -3   5   4   18.70    1.50
   2  -5  -4   44.80    2.90
  -2   5   4   40.70    3.00
  -2   5   4   36.90    2.90
  -2   5   4   39.00    2.80
  -2   5   4   39.30    3.00
   1  -5  -4    2.60    0.80
   1  -5  -4    1.90    0.50
  -1   5   4    1.40    1.10
  -1   5   4    1.70    0.50
  -1   5   4    2.50    1.00
  -1   5   4    1.40    0.50
  -1   5   4    1.40    0.70
   0  -5  -4  136.29    8.70
   0  -5  -4  127.39    8.80
   0  -5  -4  160.28    9.20
   0   5   4  144.89    9.20
   0   5   4  144.29    8.90
   0   5   4  148.09    9.60
   0   5   4  144.49    9.60
   0   5   4  127.19    8.70
  -1  -5  -4   61.49    4.00
  -1  -5  -4   52.49    3.80
  -1  -5  -4   57.99    3.80
  -1  -5  -4   57.99    3.70
   1   5   4   54.19    4.50
   1   5   4   56.59    3.70
   1   5   4   61.49    5.00
   1   5   4   59.39    4.40
   1   5   4   59.19    3.90
  -2  -5  -4   35.20    2.20
  -2  -5  -4   32.70    2.50
  -2  -5  -4   30.70    2.30
  -2  -5  -4   32.60    2.60
   2   5   4   31.90    2.90
   2   5   4   28.10    2.90
   2   5   4   33.40    3.60
  -3  -5  -4   28.60    2.10
  -3  -5  -4   28.70    1.90
  -3  -5  -4   31.50    2.40
  -3  -5  -4   29.30    2.50
   3   5   4   23.60    3.20
   3   5   4   31.60    2.60
   3   5   4   28.20    2.70
  -4  -5  -4    0.00    0.20
  -4  -5  -4    0.30    0.70
  -4  -5  -4    0.60    0.50
  -4  -5  -4    0.20    0.40
   4   5   4   -0.30    0.60
   4   5   4    0.80    1.30
   4   5   4   -0.60    0.80
  -5  -5  -4    4.00    0.80
  -5  -5  -4    2.90    1.00
   5   5   4    1.50    1.60
   5   5   4    2.80    1.10
  -6  -5  -4    8.60    1.30
  -6  -5  -4    9.50    1.60
   6   5   4    5.30    1.40
   6   5   4    8.70    2.70
   6   5   4    4.90    2.10
  -7  -5  -4   14.00    1.80
  -7  -5  -4   17.80    2.20
   7   5   4   24.50    4.70
   7   5   4   15.90    2.20
   7   5   4   18.50    3.70
  -8  -5  -4   11.00    1.80
  -8  -5  -4    8.90    1.30
   8   5   4    7.30    2.90
   8   5   4    6.70    2.50
  -9  -5  -4   13.70    1.50
  -9  -5  -4   15.70    1.90
   9   5   4   10.70    3.20
   9   5   4    6.30    2.60
   6  -6  -4    1.70    1.20
  -6   6   4    3.80    0.70
  -6   6   4    3.30    0.80
  -6   6   4    5.40    0.90
   5  -6  -4    6.60    1.80
  -5   6   4    3.00    0.60
  -5   6   4    3.70    0.90
  -5   6   4    3.60    0.80
   4  -6  -4    5.60    0.90
   4  -6  -4    7.60    1.80
  -4   6   4    4.70    0.90
  -4   6   4    5.20    0.70
  -4   6   4    3.70    0.80
  -4   6   4    5.70    0.80
   3  -6  -4    1.10    0.50
   3  -6  -4    0.80    0.80
  -3   6   4    1.40    0.60
  -3   6   4    1.80    0.50
  -3   6   4    0.50    0.40
  -3   6   4    1.70    1.20
  -3   6   4    1.40    0.60
  -3   6   4    1.10    0.50
   2  -6  -4    3.00    0.60
   2  -6  -4    3.20    1.10
  -2   6   4    2.20    0.70
  -2   6   4    2.90    0.70
  -2   6   4    2.00    0.70
  -2   6   4    1.70    1.20
  -2   6   4    2.80    0.60
   1  -6  -4  105.69    6.00
  -1   6   4   87.59    6.70
  -1   6   4   80.39    5.90
  -1   6   4   93.29    6.10
  -1   6   4   89.59    6.30
   0  -6  -4  115.09    7.80
   0  -6  -4  123.59    7.60
   0   6   4  127.99    8.30
   0   6   4  127.39    8.70
   0   6   4  112.59    7.70
   0   6   4  131.59    7.90
   0   6   4  128.79    8.60
  -1  -6  -4   90.59    5.70
  -1  -6  -4   81.89    5.80
  -1  -6  -4  100.49    6.10
  -1  -6  -4   94.79    5.80
   1   6   4   84.39    6.30
   1   6   4   87.39    6.90
   1   6   4   85.39    6.40
  -2  -6  -4    2.90    0.70
  -2  -6  -4    3.00    0.50
  -2  -6  -4    3.70    0.60
  -2  -6  -4    3.80    0.80
   2   6   4    1.70    1.30
   2   6   4    1.70    0.90
   2   6   4    2.10    1.10
  -3  -6  -4    0.10    0.30
  -3  -6  -4   -0.10    0.20
  -3  -6  -4    0.00    0.60
  -3  -6  -4    0.20    0.30
   3   6   4   -0.50    0.90
   3   6   4    0.10    1.10
   3   6   4   -0.20    0.80
  -4  -6  -4    3.40    0.90
  -4  -6  -4    1.30    0.80
  -4  -6  -4    4.00    0.70
  -4  -6  -4    2.70    0.40
   4   6   4    2.40    1.60
   4   6   4    1.50    0.90
   4   6   4    3.30    1.10
  -5  -6  -4    3.10    1.00
  -5  -6  -4    3.80    0.80
  -5  -6  -4    3.80    1.00
   5   6   4    3.10    1.20
   5   6   4    3.40    1.90
  -6  -6  -4    7.50    1.40
  -6  -6  -4    7.80    1.20
   6   6   4    8.00    2.50
   6   6   4    3.70    1.40
  -7  -6  -4   64.79    4.80
  -7  -6  -4   61.49    4.50
   7   6   4   75.19    7.30
   7   6   4   59.39    5.00
   7   6   4   68.89    6.70
  -8  -6  -4    5.20    1.00
  -8  -6  -4    5.90    1.40
   8   6   4    2.80    2.30
   8   6   4    4.40    1.40
   8   6   4   -0.10    1.50
   5  -7  -4    1.90    1.40
  -5   7   4    0.20    0.60
  -5   7   4    0.60    0.50
  -5   7   4    1.90    0.70
   4  -7  -4   -0.20    0.70
   4  -7  -4    0.10    0.50
  -4   7   4   -0.20    0.60
  -4   7   4    0.20    0.50
  -4   7   4   -0.30    0.50
   3  -7  -4    1.50    1.00
   3  -7  -4    1.20    0.50
  -3   7   4    0.70    1.10
  -3   7   4    0.50    0.60
  -3   7   4    1.10    0.60
  -3   7   4    0.60    0.60
  -3   7   4    0.90    0.40
   2  -7  -4   11.80    1.80
   2  -7  -4   11.50    1.30
  -2   7   4   10.40    1.30
  -2   7   4   11.00    1.20
  -2   7   4   11.40    2.00
  -2   7   4   10.40    1.50
  -2   7   4    9.10    1.30
   1  -7  -4   28.70    2.10
  -1   7   4   24.30    2.20
  -1   7   4   21.00    2.00
  -1   7   4   24.80    2.40
  -1   7   4   18.00    2.90
   0  -7  -4   -0.30    0.40
   0  -7  -4   -0.20    0.20
   0  -7  -4    0.00    0.40
   0   7   4   -0.90    0.80
   0   7   4   -0.20    0.70
   0   7   4   -0.30    0.50
  -1  -7  -4    2.20    0.60
  -1  -7  -4    1.50    0.40
  -1  -7  -4    1.00    0.60
  -1  -7  -4    2.00    0.50
   1   7   4    1.60    1.40
   1   7   4    1.60    1.00
   1   7   4    2.10    1.10
  -2  -7  -4   12.30    1.10
  -2  -7  -4   11.40    1.10
  -2  -7  -4   11.80    1.30
  -2  -7  -4   13.50    1.40
   2   7   4   10.20    1.80
   2   7   4   11.20    1.90
   2   7   4   10.50    2.40
  -3  -7  -4    0.10    0.20
  -3  -7  -4    0.20    0.40
  -3  -7  -4    0.30    0.30
  -3  -7  -4   -0.50    0.50
   3   7   4   -1.30    1.30
   3   7   4    1.00    0.90
   3   7   4   -1.30    0.80
  -4  -7  -4   16.30    1.50
  -4  -7  -4   13.20    1.70
  -4  -7  -4   21.40    2.00
   4   7   4   25.40    3.80
   4   7   4   21.10    2.30
  -5  -7  -4   30.80    2.80
  -5  -7  -4   30.70    2.80
  -5  -7  -4   28.70    2.40
   5   7   4   29.10    3.10
   5   7   4   34.60    4.80
  -6  -7  -4   11.90    1.70
  -6  -7  -4   12.90    1.40
   6   7   4   14.60    2.20
   6   7   4   13.90    3.30
  -7  -7  -4    1.10    0.60
   7   7   4    4.00    2.30
   7   7   4   -0.20    0.90
  -8  -7  -4   -0.50    1.00
  -8  -7  -4    0.10    0.50
   8   7   4    0.00    1.00
   8   7   4   -0.20    1.50
   8   7   4    0.20    2.20
  -5   8   4    2.30    0.70
  -5   8   4    2.60    0.80
   4  -8  -4    0.30    1.10
   4  -8  -4    0.10    0.50
  -4   8   4    0.00    0.50
  -4   8   4    0.20    0.60
   3  -8  -4   15.30    1.50
  -3   8   4   13.10    2.20
  -3   8   4   10.70    1.40
  -3   8   4   14.20    1.60
   2  -8  -4    4.30    1.20
   2  -8  -4    5.40    0.80
  -2   8   4    5.00    1.10
  -2   8   4    6.50    0.90
  -2   8   4    8.20    1.60
  -2   8   4    5.70    1.00
  -2   8   4    5.30    0.90
   1  -8  -4   33.70    2.50
  -1   8   4   26.70    2.80
  -1   8   4   21.30    3.30
  -1   8   4   33.50    2.60
   0  -8  -4   98.69    6.60
   0  -8  -4   90.79    6.40
   0  -8  -4  116.89    7.00
   0   8   4  105.69    6.70
   0   8   4   95.79    7.00
   0   8   4  101.79    7.40
  -1  -8  -4   24.70    2.00
  -1  -8  -4   24.50    1.80
  -1  -8  -4   19.60    1.60
   1   8   4   19.90    2.50
   1   8   4   18.30    2.40
   1   8   4   19.70    3.30
  -2  -8  -4   26.30    1.90
  -2  -8  -4   24.60    2.20
  -2  -8  -4   25.40    2.20
  -2  -8  -4   25.80    1.90
   2   8   4   30.10    3.70
   2   8   4   27.20    2.80
   2   8   4   27.90    2.70
  -3  -8  -4    1.10    0.30
  -3  -8  -4   -0.30    0.60
  -3  -8  -4    0.40    0.30
  -3  -8  -4    1.00    0.60
   3   8   4    0.70    0.90
   3   8   4   -0.40    0.90
   3   8   4    1.10    1.60
  -4  -8  -4    2.90    0.90
  -4  -8  -4    1.40    0.50
  -4  -8  -4    2.30    0.90
   4   8   4    3.00    1.10
   4   8   4    2.80    1.20
   4   8   4    0.20    1.60
  -5  -8  -4    0.60    0.80
  -5  -8  -4    0.50    0.50
   5   8   4    0.30    0.80
   5   8   4    2.00    1.60
  -6  -8  -4    2.70    1.00
  -6  -8  -4    5.10    0.90
   6   8   4    4.70    2.40
   6   8   4    2.80    1.10
  -7  -8  -4    1.30    0.90
  -7  -8  -4    2.00    0.70
   7   8   4    6.60    2.50
   7   8   4    0.90    0.90
  -4   9   4    2.80    0.80
   3  -9  -4   18.10    1.60
   3  -9  -4   19.50    2.60
  -3   9   4   11.40    1.60
  -3   9   4   14.00    2.40
  -3   9   4   11.20    1.50
   2  -9  -4   21.00    2.40
   2  -9  -4   17.00    1.60
  -2   9   4   13.30    2.10
   1  -9  -4    0.40    0.70
   1  -9  -4   -0.20    0.30
   1  -9  -4   -0.40    0.40
  -1   9   4   -0.20    0.90
  -1   9   4    0.30    0.80
  -1   9   4    1.10    0.60
   0  -9  -4    0.30    0.30
   0  -9  -4    0.30    0.50
   0  -9  -4   -0.20    0.40
   0   9   4   -0.10    1.00
   0   9   4    0.00    0.70
   0   9   4   -0.10    0.60
  -1  -9  -4    0.00    0.30
  -1  -9  -4    0.10    0.40
  -1  -9  -4    0.20    0.40
   1   9   4   -0.20    0.60
   1   9   4    0.10    0.80
   1   9   4   -0.20    1.10
  -2  -9  -4    0.40    0.70
  -2  -9  -4    0.10    0.30
  -2  -9  -4   -0.30    0.30
  -2  -9  -4    0.30    0.30
   2   9   4   -1.30    1.40
   2   9   4    0.30    0.70
   2   9   4   -1.10    0.90
  -3  -9  -4    0.70    0.40
  -3  -9  -4    0.60    0.30
  -3  -9  -4    0.60    0.70
  -3  -9  -4    0.60    0.50
   3   9   4    1.00    1.60
   3   9   4    0.80    0.80
   3   9   4    0.50    1.00
  -4  -9  -4    3.40    0.60
  -4  -9  -4    5.40    1.10
   4   9   4    5.70    2.30
   4   9   4    4.00    1.20
   4   9   4    2.70    1.00
  -5  -9  -4   -0.20    0.70
  -5  -9  -4   -0.10    0.40
   5   9   4    0.50    1.70
  -6  -9  -4    1.20    0.50
  -6  -9  -4    1.10    0.90
   6   9   4    0.90    1.80
   6   9   4    2.30    1.10
  -7  -9  -4   -0.50    0.80
   7   9   4    1.40    1.90
   7   9   4    0.40    0.90
   2 -10  -4    0.60    0.50
   2 -10  -4    0.10    0.80
  -2  10   4    0.30    1.00
  -2  10   4    1.40    0.70
   1 -10  -4    2.00    0.50
   1 -10  -4    1.40    0.60
   1 -10  -4    2.70    1.00
  -1  10   4    1.20    0.70
  -1  10   4   -0.40    0.90
  -1  10   4    1.30    1.00
   0 -10  -4    0.00    0.30
   0 -10  -4   -0.40    0.40
   0 -10  -4    0.00    0.60
   0  10   4   -0.30    0.80
   0  10   4   -0.40    0.60
   0  10   4   -1.20    0.80
  -1 -10  -4   -0.10    0.40
  -1 -10  -4    0.00    0.40
  -1 -10  -4   -0.20    0.30
   1  10   4    0.60    0.70
   1  10   4   -0.50    1.00
   1  10   4    0.20    0.80
   2  10   4    1.60    1.20
  -3 -10  -4    2.30    0.90
  -3 -10  -4    0.90    0.40
  -3 -10  -4    2.30    0.40
   3  10   4    0.20    0.60
   3  10   4    1.50    1.00
   3  10   4    3.10    1.90
  -4 -10  -4    0.90    0.80
  -4 -10  -4    0.30    0.30
   4  10   4    1.70    1.90
   4  10   4    1.20    1.20
   4  10   4    0.20    0.50
  -5 -10  -4   -0.30    0.30
  -5 -10  -4    0.30    0.80
   5  10   4    0.00    0.60
   5  10   4   -0.60    1.70
   0 -11  -4    2.40    0.80
   0  11   4    1.80    1.10
   0  11   4    3.00    1.10
   0  11   4    1.40    0.80
  -1 -11  -4    2.30    0.60
  -1 -11  -4    1.60    0.50
   1  11   4    0.00    0.70
   1  11   4    1.90    0.80
   1  11   4    1.00    1.10
  -2 -11  -4    0.00    0.40
  -2 -11  -4    0.10    0.30
   2  11   4    0.00    1.00
   2  11   4   -0.30    0.50
  -3 -11  -4   -0.10    0.30
   3  11   4    0.10    0.50
   3  11   4    0.00    1.10
   3   8  -5    0.80    1.10
   3   8  -5    0.10    0.80
  -3  -8   5    0.10    0.50
   2   8  -5    0.20    0.40
   2   8  -5    0.50    0.80
   2   8  -5   -0.40    0.90
  -2  -8   5    0.00    0.50
  -2  -8   5    0.10    0.50
   1   8  -5    0.50    0.50
   1   8  -5   -0.10    0.60
  -1  -8   5    0.00    0.50
  -1  -8   5   -0.40    0.40
  -1  -8   5    0.30    0.40
   0   8  -5    4.60    0.90
   0   8  -5    4.60    0.80
   0  -8   5    3.60    0.80
   0  -8   5    3.40    0.70
   0  -8   5    2.20    0.50
   0  -8   5    2.40    0.70
  -1   8  -5    0.40    0.60
  -1   8  -5    0.60    0.50
  -1   8  -5    0.30    0.70
   1  -8   5    0.50    0.60
   1  -8   5    0.70    0.50
   1  -8   5    0.50    0.50
  -2   8  -5    5.10    0.80
  -2   8  -5    4.60    1.10
  -2   8  -5    4.30    0.90
   2  -8   5    5.00    0.70
   2  -8   5    5.90    0.90
   2  -8   5    5.20    1.00
  -3   8  -5    4.80    1.10
  -3   8  -5    6.70    1.00
  -3   8  -5    5.80    1.00
  -3   8  -5    7.20    1.10
   3  -8   5    6.30    1.20
   3  -8   5    6.20    1.00
   3  -8   5    5.70    0.70
   5   7  -5    0.30    0.80
  -5  -7   5    0.00    0.40
  -5  -7   5    0.60    0.60
   4   7  -5   -0.10    1.00
  -4  -7   5    0.00    0.50
  -4  -7   5    0.40    0.50
   3   7  -5    3.30    1.30
   3   7  -5    0.60    0.70
   3   7  -5    1.30    0.40
  -3  -7   5    1.20    0.60
  -3  -7   5    1.10    0.50
  -3  -7   5    0.90    0.60
   2   7  -5    2.50    0.90
   2   7  -5    3.00    0.60
   2   7  -5    4.10    1.30
  -2  -7   5    2.80    0.70
  -2  -7   5    1.90    0.60
   1   7  -5    2.00    0.90
   1   7  -5    3.00    0.70
   1   7  -5    2.80    1.20
  -1  -7   5    2.50    0.60
  -1  -7   5    4.20    0.90
  -1  -7   5    2.50    0.60
   0   7  -5   12.80    1.70
   0   7  -5   16.20    1.40
   0  -7   5   14.60    1.60
   0  -7   5   14.10    1.50
   0  -7   5   13.90    1.40
  -1   7  -5   31.40    2.40
  -1   7  -5   31.40    2.50
  -1   7  -5   24.70    2.60
   1  -7   5   27.90    2.50
   1  -7   5   33.20    2.30
   1  -7   5   33.80    2.60
  -2   7  -5    0.60    0.60
  -2   7  -5    0.70    0.50
  -2   7  -5    0.20    0.50
   2  -7   5    1.40    0.50
   2  -7   5    1.10    0.70
   2  -7   5    0.90    0.60
  -3   7  -5    1.70    0.80
  -3   7  -5    2.00    0.80
  -3   7  -5    3.10    0.70
   3  -7   5    2.50    0.80
   3  -7   5    3.60    1.00
  -4   7  -5    1.30    0.70
  -4   7  -5    0.70    0.60
  -4   7  -5    1.00    0.90
   4  -7   5    1.20    0.80
   4  -7   5    1.10    0.70
  -5   7  -5    0.10    0.70
  -5   7  -5    0.30    0.50
   6   6  -5   -0.50    0.90
  -6  -6   5    0.10    0.40
  -6  -6   5   -0.50    0.70
   5   6  -5    0.40    0.90
  -5  -6   5    0.30    0.60
  -5  -6   5   -0.10    0.40
   4   6  -5    0.40    0.90
   4   6  -5    0.30    0.30
  -4  -6   5   -0.60    0.40
  -4  -6   5   -0.20    0.50
   3   6  -5    0.10    0.60
   3   6  -5    1.30    1.00
   3   6  -5    0.20    0.30
  -3  -6   5    0.40    0.50
  -3  -6   5    0.10    0.40
  -3  -6   5    0.20    0.50
   2   6  -5   18.40    1.40
   2   6  -5   19.30    2.40
   2   6  -5   17.30    1.60
  -2  -6   5   15.20    1.50
  -2  -6   5   15.10    1.60
  -2  -6   5   19.10    1.40
  -2  -6   5   16.10    1.40
   1   6  -5   35.20    3.20
   1   6  -5   32.10    2.70
   1   6  -5   34.40    2.50
  -1  -6   5   35.40    2.70
  -1  -6   5   34.50    2.50
  -1  -6   5   33.20    2.50
  -1  -6   5   32.30    2.40
  -1  -6   5   38.20    2.40
   0   6  -5    7.30    1.20
   0   6  -5    5.90    0.80
   0   6  -5    7.40    1.50
   0  -6   5    4.60    0.80
   0  -6   5    4.30    0.90
   0  -6   5    4.80    0.70
  -1   6  -5   23.20    2.00
  -1   6  -5   22.40    2.20
  -1   6  -5   21.90    1.90
   1  -6   5   23.10    1.80
   1  -6   5   19.80    2.00
   1  -6   5   27.70    2.30
  -2   6  -5   23.00    2.30
  -2   6  -5   25.30    2.10
  -2   6  -5   25.20    2.20
   2  -6   5   27.10    2.20
   2  -6   5   28.60    2.50
  -3   6  -5   12.40    1.40
  -3   6  -5   11.10    1.60
  -3   6  -5   11.50    1.50
   3  -6   5   11.30    1.50
   3  -6   5   11.50    1.70
  -4   6  -5    1.10    0.80
  -4   6  -5    0.30    0.60
  -4   6  -5    1.70    0.60
  -4   6  -5    1.10    0.70
   4  -6   5    1.90    1.00
   4  -6   5    1.40    0.70
   4  -6   5    1.40    1.30
  -5   6  -5    3.00    0.80
  -5   6  -5    2.80    0.90
  -5   6  -5    2.10    0.70
   5  -6   5    4.10    1.20
   5  -6   5    4.70    1.90
   5  -6   5    2.70    0.80
  -6   6  -5    0.40    0.50
  -6   6  -5    1.10    0.70
   6  -6   5    1.80    1.70
   6   5  -5   -0.10    0.80
  -6  -5   5   -0.20    0.70
  -6  -5   5    0.20    0.40
   5   5  -5    0.00    0.30
   5   5  -5   -0.20    0.70
  -5  -5   5    0.30    0.40
  -5  -5   5   -0.40    0.60
   4   5  -5    3.20    1.20
   4   5  -5    5.40    0.70
  -4  -5   5    3.70    0.80
  -4  -5   5    5.80    0.90
   3   5  -5    2.40    0.50
   3   5  -5    0.60    0.80
   3   5  -5    1.00    0.60
  -3  -5   5    0.50    0.50
  -3  -5   5    0.20    0.50
  -3  -5   5    1.20    0.50
   2   5  -5    2.60    0.80
   2   5  -5    4.70    0.70
   2   5  -5    5.10    1.30
  -2  -5   5    4.00    0.70
  -2  -5   5    3.90    0.90
  -2  -5   5    3.80    0.60
  -2  -5   5    2.30    0.60
   1   5  -5   27.70    2.20
   1   5  -5   28.00    2.00
   1   5  -5   26.60    2.70
  -1  -5   5   27.90    2.00
  -1  -5   5   27.30    2.20
  -1  -5   5   28.90    2.10
  -1  -5   5   23.60    2.00
  -1  -5   5   28.60    1.90
   0   5  -5   28.80    2.40
   0   5  -5   30.60    2.20
   0   5  -5   34.40    2.80
   0  -5   5   27.30    2.30
   0  -5   5   33.60    2.60
   0  -5   5   26.90    2.10
   0  -5   5   25.10    2.20
  -1   5  -5   14.60    1.40
  -1   5  -5   12.80    1.60
   1  -5   5   14.50    1.20
   1  -5   5   13.30    1.60
   1  -5   5   17.30    1.80
  -2   5  -5   10.00    1.20
  -2   5  -5    7.70    1.10
  -2   5  -5    9.10    1.40
  -2   5  -5    9.90    1.20
   2  -5   5    6.10    1.20
   2  -5   5   10.90    1.70
  -3   5  -5   10.70    1.30
  -3   5  -5    8.50    1.10
  -3   5  -5   10.60    1.50
  -3   5  -5    8.70    1.20
   3  -5   5    8.20    1.30
   3  -5   5    9.30    2.00
   3  -5   5   10.40    1.70
  -4   5  -5    3.20    1.00
  -4   5  -5    3.60    0.90
  -4   5  -5    2.80    0.70
  -4   5  -5    4.20    0.90
   4  -5   5    4.00    0.90
   4  -5   5    5.20    1.70
   4  -5   5    3.50    1.20
  -5   5  -5    7.60    1.00
  -5   5  -5    6.00    1.10
  -5   5  -5    2.80    0.80
   5  -5   5    6.80    1.60
   5  -5   5    8.20    2.20
   5  -5   5    6.60    1.20
  -6   5  -5    3.70    0.80
  -6   5  -5    3.10    0.90
  -6   5  -5    2.40    0.70
   6  -5   5    2.10    1.10
   6  -5   5    2.10    0.80
   6  -5   5    5.80    2.30
  -7   5  -5   -0.20    0.60
   7  -5   5   -0.70    1.50
   7   4  -5   -0.70    0.90
  -7  -4   5    0.10    0.40
   6   4  -5   -0.60    0.30
   6   4  -5    0.40    0.90
  -6  -4   5   -0.10    0.70
  -6  -4   5    0.20    0.40
   5   4  -5    2.40    1.00
   5   4  -5    2.40    0.50
  -5  -4   5    3.80    0.90
  -5  -4   5    2.00    0.60
   4   4  -5   -0.70    0.70
   4   4  -5   -0.20    0.30
  -4  -4   5    0.20    0.50
  -4  -4   5   -0.60    0.40
   3   4  -5   17.60    2.20
   3   4  -5   15.50    1.40
   3   4  -5   16.60    1.30
  -3  -4   5   14.80    1.40
  -3  -4   5   14.10    1.40
  -3  -4   5   14.60    1.50
   2   4  -5   29.00    2.10
   2   4  -5   30.90    2.00
   2   4  -5   28.70    2.70
  -2  -4   5   27.10    2.20
  -2  -4   5   24.50    2.00
  -2  -4   5   27.40    2.00
  -2  -4   5   26.50    2.10
   1   4  -5   23.30    1.70
   1   4  -5   20.70    1.60
   1   4  -5   23.00    2.20
   1   4  -5   20.80    1.80
  -1  -4   5   23.50    1.90
  -1  -4   5   20.80    1.50
  -1  -4   5   20.30    1.80
  -1  -4   5   19.90    1.60
  -1  -4   5   21.20    1.70
   0   4  -5    0.10    0.30
   0   4  -5   -0.10    0.40
   0   4  -5   -0.40    0.70
   0   4  -5    0.00    0.40
   0  -4   5   -0.10    0.30
   0  -4   5    0.30    0.50
   0  -4   5    0.40    0.30
   0  -4   5   -0.60    0.50
  -1   4  -5    1.10    0.50
  -1   4  -5    0.60    0.40
  -1   4  -5    0.90    0.70
  -1   4  -5    0.40    0.50
   1  -4   5    0.70    0.60
   1  -4   5    0.90    0.80
   1  -4   5    0.80    0.60
  -2   4  -5   18.10    1.50
  -2   4  -5   16.30    1.50
  -2   4  -5   18.60    1.70
  -2   4  -5   18.80    1.60
   2  -4   5   15.40    2.20
   2  -4   5   17.00    2.00
   2  -4   5   17.90    1.80
   2  -4   5   18.60    1.70
  -3   4  -5    5.90    0.90
  -3   4  -5    4.60    0.80
  -3   4  -5    9.90    1.20
  -3   4  -5    8.90    1.00
   3  -4   5    6.00    1.00
   3  -4   5    9.40    1.60
   3  -4   5    6.10    1.60
  -4   4  -5   22.20    1.90
  -4   4  -5   19.50    1.70
  -4   4  -5   18.90    1.90
  -4   4  -5   16.10    1.70
   4  -4   5   18.40    1.90
   4  -4   5   17.30    2.70
   4  -4   5   21.00    2.50
  -5   4  -5   -0.40    0.50
  -5   4  -5    0.30    0.50
  -5   4  -5   -0.60    0.50
   5  -4   5    0.40    0.90
   5  -4   5    0.50    0.70
   5  -4   5    1.20    1.30
  -6   4  -5    1.50    0.70
  -6   4  -5    1.70    0.70
  -6   4  -5    1.60    0.70
   6  -4   5    0.90    0.80
   6  -4   5    2.10    1.60
   6  -4   5    0.30    1.10
  -7   4  -5    0.60    0.70
  -7   4  -5   -0.50    0.40
   7  -4   5    0.40    1.00
   7  -4   5   -0.10    1.70
   7   3  -5    0.20    0.30
   7   3  -5   -0.60    0.80
  -7  -3   5    0.50    0.40
  -7  -3   5    0.40    0.40
   6   3  -5    0.40    0.40
  -6  -3   5   -0.20    0.40
  -6  -3   5    0.40    0.50
   5   3  -5    3.80    0.60
  -5  -3   5    3.70    0.70
  -5  -3   5    4.70    0.80
  -5  -3   5    3.30    0.80
   4   3  -5   18.10    1.40
  -4  -3   5   16.00    1.70
  -4  -3   5   17.30    1.60
  -4  -3   5   19.20    1.60
   3   3  -5   18.10    1.30
   3   3  -5   15.20    1.30
  -3  -3   5   16.30    1.50
  -3  -3   5   15.50    1.50
  -3  -3   5   13.50    1.40
   2   3  -5    7.80    0.80
   2   3  -5    9.10    1.00
  -2  -3   5    7.90    1.00
  -2  -3   5    8.10    0.80
  -2  -3   5    8.00    0.90
  -2  -3   5    8.20    1.00
   1   3  -5   35.30    2.50
   1   3  -5   36.60    2.70
  -1  -3   5   41.70    2.80
  -1  -3   5   34.90    2.60
  -1  -3   5   38.30    2.40
  -1  -3   5   36.80    2.50
  -1  -3   5   35.10    2.70
   0   3  -5   37.50    2.50
   0   3  -5   37.10    2.50
   0   3  -5   36.10    2.70
   0  -3   5   35.10    2.80
   0  -3   5   39.60    3.00
   0  -3   5   37.20    2.90
   0  -3   5   33.90    2.50
  -1   3  -5   30.00    2.10
  -1   3  -5   29.00    2.10
  -1   3  -5   31.00    2.40
  -1   3  -5   27.60    2.20
   1  -3   5   38.40    2.80
   1  -3   5   23.60    2.50
   1  -3   5   25.70    1.90
   1  -3   5   28.30    2.40
  -2   3  -5    3.50    0.60
  -2   3  -5    4.30    0.80
  -2   3  -5    4.90    0.80
   2  -3   5    5.20    0.90
   2  -3   5    2.70    1.10
   2  -3   5    4.10    1.10
   2  -3   5    4.80    1.30
  -3   3  -5    2.40    0.70
  -3   3  -5    1.60    0.60
  -3   3  -5    2.10    0.60
  -3   3  -5    1.90    0.50
   3  -3   5    2.90    0.70
   3  -3   5    0.30    0.70
   3  -3   5    0.90    0.80
   3  -3   5    2.10    1.10
  -4   3  -5    1.70    0.60
  -4   3  -5    0.40    0.60
  -4   3  -5    1.40    0.60
  -4   3  -5    1.30    0.50
   4  -3   5    0.70    1.00
   4  -3   5    0.70    1.00
   4  -3   5    1.10    0.80
  -5   3  -5    1.40    0.70
  -5   3  -5    1.00    0.70
  -5   3  -5    0.70    0.50
   5  -3   5    1.20    1.20
   5  -3   5    0.80    1.10
   5  -3   5    1.10    0.80
  -6   3  -5    3.80    0.80
  -6   3  -5    4.40    1.00
  -6   3  -5    3.80    1.00
   6  -3   5    6.10    2.20
   6  -3   5    4.20    1.60
  -7   3  -5   -0.60    0.60
  -7   3  -5    0.90    0.60
   7  -3   5    0.90    1.10
   7  -3   5    0.60    1.40
  -8   3  -5    2.20    0.80
  -8   3  -5   -0.10    0.50
   8  -3   5    5.30    2.60
   7   2  -5    0.10    0.40
  -7  -2   5   -0.50    0.40
  -7  -2   5   -0.80    0.40
   6   2  -5   -0.40    0.40
  -6  -2   5   -0.10    0.40
  -6  -2   5   -0.30    0.50
   5   2  -5  106.39    6.50
  -5  -2   5   99.09    6.70
  -5  -2   5   98.79    6.60
  -5  -2   5  105.99    6.60
   4   2  -5   42.00    2.80
  -4  -2   5   41.70    2.90
  -4  -2   5   37.90    3.00
  -4  -2   5   42.10    2.90
   3   2  -5   25.30    1.80
   3   2  -5   26.60    1.90
  -3  -2   5   23.60    1.90
  -3  -2   5   25.20    2.00
  -3  -2   5   26.10    2.00
  -3  -2   5   23.90    2.00
   2   2  -5   12.90    1.10
   2   2  -5   13.10    1.10
  -2  -2   5   12.10    1.10
  -2  -2   5   12.30    1.20
  -2  -2   5   12.00    1.20
  -2  -2   5   14.30    1.20
  -2  -2   5   11.80    1.10
   1   2  -5    2.40    0.50
   1   2  -5    3.10    0.60
  -1  -2   5    3.30    0.60
  -1  -2   5    2.90    0.60
  -1  -2   5    2.30    0.70
  -1  -2   5    3.40    0.80
  -1  -2   5    3.60    0.30
  -1  -2   5    2.70    0.40
   0   2  -5    2.30    0.60
   0   2  -5    2.70    0.50
   0  -2   5    4.00    0.80
   0  -2   5    3.80    0.90
   0  -2   5    3.60    0.90
   0  -2   5    2.70    0.50
  -1   2  -5  180.48   11.90
  -1   2  -5  175.98   12.10
  -1   2  -5  180.18   11.90
   1  -2   5  199.68   12.50
   1  -2   5  227.68   12.30
   1  -2   5  179.18   11.80
   1  -2   5  225.28   12.80
  -2   2  -5   92.39    6.10
  -2   2  -5   93.09    6.00
  -2   2  -5   90.79    5.90
   2  -2   5   89.29    6.90
   2  -2   5   94.59    6.50
   2  -2   5  102.59    6.30
  -3   2  -5   68.49    4.40
  -3   2  -5   58.99    4.40
  -3   2  -5   63.39    4.20
  -3   2  -5   60.59    4.30
   3  -2   5   70.89    4.70
   3  -2   5   67.19    4.80
   3  -2   5   67.09    5.40
  -4   2  -5    2.40    0.70
  -4   2  -5    3.30    0.80
  -4   2  -5    4.00    0.70
   4  -2   5    1.80    0.90
   4  -2   5    5.20    1.20
   4  -2   5    2.80    1.40
  -5   2  -5   -0.20    0.40
  -5   2  -5   -0.20    0.50
  -5   2  -5    0.40    0.50
   5  -2   5    0.40    1.00
   5  -2   5   -0.10    0.80
  -6   2  -5    0.00    0.60
  -6   2  -5   -0.10    0.40
  -6   2  -5   -0.40    0.40
   6  -2   5   -0.20    1.10
   6  -2   5   -0.30    1.10
  -7   2  -5    2.30    0.80
  -7   2  -5    3.40    1.00
   7  -2   5    8.40    2.60
   7  -2   5    7.20    2.10
  -8   2  -5   23.90    2.30
   8  -2   5   34.80    4.70
   8  -2   5   22.50    3.60
   7   1  -5   21.90    1.80
  -7  -1   5   20.30    1.80
  -7  -1   5   21.70    1.90
  -7  -1   5   26.00    2.00
   6   1  -5   65.39    4.10
  -6  -1   5   56.79    4.10
  -6  -1   5   60.79    4.20
  -6  -1   5   62.39    4.20
   5   1  -5    0.00    0.40
  -5  -1   5    0.00    0.50
  -5  -1   5    0.60    0.50
   4   1  -5    0.40    0.40
  -4  -1   5    0.60    0.60
  -4  -1   5    0.10    0.40
  -4  -1   5    1.70    0.50
   3   1  -5    4.00    0.60
   3   1  -5    4.90    0.60
  -3  -1   5    4.60    0.70
  -3  -1   5    5.60    0.80
  -3  -1   5    3.90    0.70
   2   1  -5   37.40    2.50
   2   1  -5   41.00    2.60
  -2  -1   5   34.00    2.50
  -2  -1   5   39.50    2.50
  -2  -1   5   39.60    2.60
  -2  -1   5   36.50    2.60
  -2  -1   5   37.00    2.60
   1   1  -5    1.30    0.40
   1   1  -5    1.00    0.40
   1   1  -5    1.70    0.40
  -1  -1   5    2.40    0.60
  -1  -1   5    0.90    0.40
  -1  -1   5    1.10    0.40
  -1  -1   5    0.80    0.60
  -1  -1   5    2.10    0.40
  -1  -1   5    1.00    0.50
   0   1  -5    0.20    0.30
   0   1  -5    4.50    0.60
   0  -1   5    1.50    0.40
   0  -1   5   -0.30    0.60
   0  -1   5    1.90    0.70
  -1   1  -5  150.38    9.30
  -1   1  -5  155.58    9.40
  -1   1  -5  144.09    9.40
   1  -1   5  151.48   10.10
   1  -1   5  152.78    9.30
   1  -1   5  155.38    9.80
   1  -1   5  151.68    9.90
  -2   1  -5   33.20    2.30
  -2   1  -5   35.80    2.40
  -2   1  -5   34.20    2.50
   2  -1   5   36.50    3.00
   2  -1   5   34.90    2.90
   2  -1   5   34.30    3.30
  -3   1  -5   29.10    2.10
  -3   1  -5   29.80    2.20
  -3   1  -5   29.60    2.20
  -3   1  -5   28.90    2.00
   3  -1   5   30.10    2.70
   3  -1   5   24.60    3.00
   3  -1   5   27.90    2.70
  -4   1  -5    4.10    0.80
  -4   1  -5    3.10    0.70
  -4   1  -5    2.40    0.50
  -4   1  -5    3.70    0.70
   4  -1   5    4.60    1.20
   4  -1   5    1.80    1.00
   4  -1   5    4.00    1.50
  -5   1  -5    0.70    0.60
  -5   1  -5    1.10    0.50
  -5   1  -5    0.30    0.50
   5  -1   5    1.60    1.00
   5  -1   5   -0.10    1.00
   5  -1   5    0.70    1.20
  -6   1  -5    0.50    0.60
  -6   1  -5    0.00    0.50
   6  -1   5   -0.40    1.30
  -7   1  -5    0.50    0.60
  -7   1  -5   -0.20    0.50
   7  -1   5    0.20    1.50
  -8   1  -5    1.00    0.60
  -8   1  -5    1.70    0.70
   8  -1   5    2.00    1.70
   8  -1   5    1.10    1.60
  -9   1  -5   -0.60    0.40
   9  -1   5   -0.80    1.70
   7   0  -5    1.50    0.60
  -7   0   5    0.20    0.50
  -7   0   5    1.70    0.50
  -7   0   5    1.20    0.60
   6   0  -5    8.00    1.00
  -6   0   5    6.60    1.10
  -6   0   5    6.20    0.90
  -6   0   5    6.20    1.00
   5   0  -5   15.20    1.50
  -5   0   5   15.10    1.70
  -5   0   5   13.90    1.50
  -5   0   5   13.20    1.40
   4   0  -5   49.80    3.40
  -4   0   5   48.00    3.40
  -4   0   5   47.70    3.50
  -4   0   5   49.20    3.50
   3   0  -5    0.40    0.30
   3   0  -5    0.90    0.50
   3   0  -5    1.50    0.50
  -3   0   5    1.10    0.50
  -3   0   5    0.70    0.40
  -3   0   5    1.20    0.50
   2   0  -5   29.60    2.20
   2   0  -5   31.20    2.10
  -2   0   5   32.30    2.30
  -2   0   5   28.20    2.20
  -2   0   5   32.20    2.20
  -2   0   5   29.90    2.30
  -2   0   5   29.70    2.30
  -2   0   5   28.20    2.10
   1   0  -5  452.35   28.30
   1   0  -5  456.85   28.40
   1   0  -5  452.35   28.30
  -1   0   5  455.45   28.70
  -1   0   5  495.05   28.60
  -1   0   5  466.25   28.30
  -1   0   5  490.25   28.20
  -1   0   5  457.55   28.40
  -1   0   5  481.35   28.40
   0   0  -5  412.86   26.50
   0   0  -5  414.36   26.70
   0   0  -5  441.76   26.40
   0   0   5  413.36   26.80
   0   0   5  496.75   26.90
   0   0   5  447.16   26.40
   0   0   5  425.46   27.00
   0   0   5  446.86   26.50
  -1   0  -5   35.10    3.00
  -1   0  -5   40.90    2.60
  -1   0  -5   36.50    2.70
   1   0   5   41.50    2.70
   1   0   5   42.70    3.30
   1   0   5   44.60    3.40
   1   0   5   42.40    2.60
   1   0   5   39.00    3.40
  -2   0  -5    7.50    0.80
  -2   0  -5    5.60    0.80
  -2   0  -5    7.20    0.80
  -2   0  -5    6.30    0.70
   2   0   5    7.10    0.70
   2   0   5    5.20    1.40
   2   0   5    5.60    1.40
   2   0   5    3.90    1.20
   2   0   5    7.20    0.80
  -3   0  -5  138.89    8.60
  -3   0  -5  137.89    8.60
  -3   0  -5  139.99    8.50
  -3   0  -5  139.39    8.60
  -3   0  -5  135.99    8.50
   3   0   5  136.39    9.20
   3   0   5  127.49    9.80
   3   0   5  138.19    8.40
   3   0   5  129.19    9.40
   3   0   5  141.89    8.40
  -4   0  -5   62.09    4.30
  -4   0  -5   65.09    4.10
  -4   0  -5   63.19    4.10
  -4   0  -5   66.49    4.20
  -4   0  -5   65.89    4.30
   4   0   5   60.69    5.60
   4   0   5   56.99    5.00
   4   0   5   58.49    4.80
  -5   0  -5    1.10    0.60
  -5   0  -5    2.50    0.70
  -5   0  -5    1.90    0.60
  -5   0  -5    1.60    0.50
   5   0   5    2.20    1.40
   5   0   5    1.90    1.10
   5   0   5    0.90    1.30
  -6   0  -5    2.30    0.70
  -6   0  -5    1.10    0.50
  -6   0  -5    0.50    0.50
   6   0   5    2.40    1.50
   6   0   5    1.60    1.50
  -7   0  -5   13.60    1.40
  -7   0  -5    7.70    1.20
  -7   0  -5   14.60    1.50
   7   0   5    5.60    2.20
  -8   0  -5    0.70    0.60
  -8   0  -5    0.20    0.60
  -8   0  -5    0.30    0.40
   8   0   5    0.30    1.50
  -9   0  -5    0.10    0.50
   9   0   5    0.60    1.60
   9   0   5    1.40    1.80
   7  -1  -5    0.60    0.50
  -7   1   5    0.50    0.50
  -7   1   5    0.10    0.50
  -7   1   5    0.70    0.40
   6  -1  -5   -0.40    0.50
  -6   1   5   -0.10    0.60
  -6   1   5    0.10    0.50
  -6   1   5   -0.30    0.40
   5  -1  -5    7.60    1.60
   5  -1  -5    8.30    1.10
  -5   1   5    7.40    1.10
  -5   1   5    6.90    0.90
  -5   1   5    8.30    1.20
   4  -1  -5   36.20    2.90
   4  -1  -5   47.90    3.50
  -4   1   5   40.90    3.10
  -4   1   5   37.30    2.90
  -4   1   5   40.60    3.00
   3  -1  -5   83.59    5.40
   3  -1  -5   85.39    5.20
  -3   1   5   75.49    5.40
  -3   1   5   82.79    5.50
  -3   1   5   89.29    5.50
   2  -1  -5  128.39    8.40
   2  -1  -5  151.08    8.60
   2  -1  -5  126.69    8.20
  -2   1   5  123.99    8.40
  -2   1   5  133.19    8.40
  -2   1   5  136.09    8.50
  -2   1   5  132.99    8.40
  -2   1   5  131.49    8.60
  -2   1   5  134.69    8.20
   1  -1  -5    8.80    0.90
   1  -1  -5    9.80    1.00
   1  -1  -5    9.80    1.00
  -1   1   5   10.10    1.20
  -1   1   5    9.80    1.60
  -1   1   5    8.50    0.90
  -1   1   5    9.40    1.10
  -1   1   5   10.80    1.20
  -1   1   5    9.70    1.00
   0  -1  -5  936.21   58.29
   0  -1  -5 1023.20   58.59
   0  -1  -5 1036.70   58.29
   0   1   5  930.51   58.79
   0   1   5 1010.10   58.29
   0   1   5  948.31   58.29
   0   1   5 1013.00   58.39
   0   1   5  857.01   58.59
  -1  -1  -5   34.80    2.50
  -1  -1  -5   36.10    2.80
  -1  -1  -5   37.90    2.40
  -1  -1  -5   37.70    2.40
   1   1   5   35.50    2.50
   1   1   5   34.10    3.10
   1   1   5   37.00    2.40
   1   1   5   40.10    3.30
   1   1   5   31.50    3.10
   1   1   5   39.80    2.50
  -2  -1  -5   10.10    0.90
  -2  -1  -5   10.30    0.80
  -2  -1  -5   10.60    0.90
  -2  -1  -5   10.70    0.90
  -2  -1  -5    8.90    1.30
   2   1   5   11.90    2.10
   2   1   5   11.10    1.00
   2   1   5   10.00    1.50
   2   1   5   10.20    1.80
  -3  -1  -5    1.50    0.40
  -3  -1  -5    1.60    0.40
  -3  -1  -5    1.20    0.50
  -3  -1  -5    1.50    0.40
  -3  -1  -5    1.40    0.30
   3   1   5    0.50    1.10
   3   1   5    1.20    0.50
   3   1   5    1.40    1.00
   3   1   5   -0.30    0.80
  -4  -1  -5   43.40    2.80
  -4  -1  -5   41.70    3.00
  -4  -1  -5   41.50    2.90
  -4  -1  -5   41.60    3.00
  -4  -1  -5   42.30    2.80
   4   1   5   39.20    3.60
   4   1   5   39.70    2.90
   4   1   5   35.50    4.30
   4   1   5   43.90    4.00
  -5  -1  -5    7.40    1.00
  -5  -1  -5    9.80    1.20
  -5  -1  -5    8.40    1.10
  -5  -1  -5   10.00    0.90
   5   1   5    5.50    2.10
   5   1   5    9.80    2.20
   5   1   5    7.40    1.50
  -6  -1  -5   48.10    3.30
  -6  -1  -5   43.00    3.30
  -6  -1  -5   44.10    3.30
   6   1   5   41.60    5.00
   6   1   5   43.70    4.50
  -7  -1  -5   13.60    1.40
  -7  -1  -5    6.60    1.10
  -7  -1  -5   11.80    1.80
   7   1   5    8.00    2.40
  -8  -1  -5   -0.20    0.40
  -8  -1  -5   -0.20    0.50
   8   1   5   -0.80    1.40
  -9  -1  -5   -0.30    0.50
  -9  -1  -5    0.30    0.50
   9   1   5   -0.60    1.50
   7  -2  -5    0.30    0.50
  -7   2   5    0.30    0.60
  -7   2   5    0.50    0.40
  -7   2   5    0.30    0.50
   6  -2  -5   -0.20    0.40
   6  -2  -5    0.80    0.90
  -6   2   5    1.30    0.40
  -6   2   5    0.70    0.60
  -6   2   5    1.10    0.60
   5  -2  -5    0.90    0.70
   5  -2  -5    0.80    0.50
  -5   2   5    0.50    0.60
  -5   2   5    0.90    0.40
  -5   2   5    1.00    0.60
   4  -2  -5    9.00    1.40
   4  -2  -5    6.10    0.90
  -4   2   5    7.30    1.10
  -4   2   5    9.00    1.10
  -4   2   5    6.60    0.90
   3  -2  -5    0.10    0.30
   3  -2  -5   -0.30    0.40
   3  -2  -5   -0.20    0.40
  -3   2   5   -0.20    0.40
  -3   2   5   -0.20    0.30
  -3   2   5    0.20    0.50
  -3   2   5    0.20    0.40
   2  -2  -5  154.18    9.20
   2  -2  -5  142.69    9.30
  -2   2   5  143.29    9.20
  -2   2   5  150.58    9.70
  -2   2   5  140.99    9.30
  -2   2   5  143.99    9.30
  -2   2   5  153.68    9.40
  -2   2   5  153.58    9.30
   1  -2  -5  560.64   33.80
   1  -2  -5  531.55   33.90
   1  -2  -5  608.54   33.60
   1  -2  -5  614.04   34.10
  -1   2   5  522.85   33.90
  -1   2   5  557.84   33.90
  -1   2   5  534.25   34.00
  -1   2   5  536.85   34.50
  -1   2   5  557.64   33.90
  -1   2   5  570.14   34.20
   0  -2  -5  168.68   10.60
   0  -2  -5  175.28   10.90
   0  -2  -5  173.38   10.50
   0   2   5  170.88   11.10
   0   2   5  171.28   10.70
   0   2   5  171.88   10.70
   0   2   5  183.58   10.90
   0   2   5  175.68   11.40
  -1  -2  -5    1.40    0.30
  -1  -2  -5    0.70    0.30
  -1  -2  -5    1.00    0.50
  -1  -2  -5    0.60    0.30
   1   2   5    0.80    0.90
   1   2   5    0.60    0.90
   1   2   5    0.10    0.90
   1   2   5    0.40    0.30
   1   2   5    0.40    0.50
  -2  -2  -5  145.59    9.70
  -2  -2  -5  149.19    9.00
  -2  -2  -5  149.39    9.10
  -2  -2  -5  151.18    9.20
   2   2   5  150.48   10.40
   2   2   5  143.19    9.80
   2   2   5  154.58    9.00
   2   2   5  139.39    9.30
   2   2   5  149.88   10.30
  -3  -2  -5  173.88   10.90
  -3  -2  -5  185.48   11.00
  -3  -2  -5  184.68   10.80
  -3  -2  -5  180.88   10.80
  -3  -2  -5  160.58   11.50
  -3  -2  -5  187.18   10.70
   3   2   5  165.38   11.50
   3   2   5  180.68   11.10
   3   2   5  167.18   12.00
   3   2   5  166.58   12.30
  -4  -2  -5  257.17   15.20
  -4  -2  -5  254.47   15.00
  -4  -2  -5  239.28   15.00
  -4  -2  -5  260.87   14.90
  -4  -2  -5  238.78   15.20
   4   2   5  231.98   16.80
   4   2   5  237.48   15.30
   4   2   5  242.18   16.50
  -5  -2  -5    0.60    0.40
  -5  -2  -5    0.10    0.40
  -5  -2  -5    0.60    0.50
   5   2   5    0.20    1.20
   5   2   5    0.30    0.60
   5   2   5   -0.20    1.00
   5   2   5    0.60    0.90
  -6  -2  -5   21.00    1.90
   6   2   5   28.10    3.50
   6   2   5   34.80    3.90
  -7  -2  -5    3.30    0.80
  -7  -2  -5    3.80    0.80
   7   2   5    3.90    2.00
   7   2   5    0.10    1.50
  -8  -2  -5    0.70    0.50
  -8  -2  -5    2.60    0.70
   8   2   5    3.80    2.00
  -9  -2  -5    1.80    0.70
  -9  -2  -5    0.10    0.50
   9   2   5    0.30    1.70
   7  -3  -5    1.20    0.50
   7  -3  -5    1.00    1.10
  -7   3   5    0.20    0.50
  -7   3   5    1.10    0.60
   6  -3  -5    0.20    1.00
   6  -3  -5    0.20    0.40
  -6   3   5    0.10    0.30
  -6   3   5   -0.90    0.50
  -6   3   5    1.10    0.60
   5  -3  -5    1.40    0.60
   5  -3  -5    1.60    1.00
  -5   3   5    0.90    0.60
  -5   3   5    1.40    0.50
  -5   3   5    1.90    0.70
   4  -3  -5    0.60    0.70
  -4   3   5   -0.20    0.50
  -4   3   5   -0.20    0.30
  -4   3   5   -0.40    0.40
   3  -3  -5   63.69    4.00
  -3   3   5   58.99    4.00
  -3   3   5   58.39    4.00
  -3   3   5   55.99    4.10
  -3   3   5   64.39    4.10
  -3   3   5   61.09    4.20
   2  -3  -5    0.90    0.60
   2  -3  -5    0.50    0.40
   2  -3  -5    0.30    0.30
  -2   3   5    0.50    0.80
  -2   3   5    0.30    0.40
  -2   3   5    0.00    0.40
  -2   3   5    0.10    0.50
  -2   3   5    0.30    0.30
  -2   3   5    0.40    0.50
   1  -3  -5    0.30    0.30
   1  -3  -5    0.10    0.30
   1  -3  -5    0.50    0.40
  -1   3   5   -0.60    0.40
  -1   3   5   -0.40    0.80
  -1   3   5    0.40    0.40
  -1   3   5    0.10    0.40
  -1   3   5    0.00    0.40
  -1   3   5    0.30    0.50
   0  -3  -5    8.10    0.70
   0  -3  -5    8.20    0.80
   0  -3  -5    9.10    0.80
   0  -3  -5    8.70    1.00
   0   3   5    8.10    1.60
   0   3   5    9.00    1.10
   0   3   5    7.90    0.90
   0   3   5    9.00    1.70
   0   3   5    8.80    0.80
   0   3   5   10.60    1.50
   0   3   5    8.40    1.10
  -1  -3  -5  183.68   10.40
  -1  -3  -5  174.18   10.50
  -1  -3  -5  172.58   10.50
  -1  -3  -5  171.38   10.90
   1   3   5  160.48   11.20
   1   3   5  171.78   10.80
   1   3   5  167.08   11.40
   1   3   5  173.38   10.50
   1   3   5  155.28   11.40
  -2  -3  -5   37.10    2.70
  -2  -3  -5   37.80    3.00
  -2  -3  -5   40.60    2.60
  -2  -3  -5   35.20    2.50
  -2  -3  -5   37.30    2.30
   2   3   5   36.50    2.90
   2   3   5   36.30    3.30
   2   3   5   39.20    2.50
   2   3   5   38.50    3.70
   2   3   5   38.50    3.80
  -3  -3  -5   46.40    3.20
  -3  -3  -5   43.60    3.10
  -3  -3  -5   45.00    2.90
  -3  -3  -5   39.60    3.50
  -3  -3  -5   44.80    2.90
   3   3   5   45.50    4.30
   3   3   5   40.60    4.40
   3   3   5   43.50    3.70
   3   3   5   45.50    3.30
  -4  -3  -5  162.68   10.20
  -4  -3  -5  159.88    9.90
  -4  -3  -5  161.08    9.70
  -4  -3  -5  160.78   10.10
   4   3   5  157.68   10.50
   4   3   5  156.48   10.30
   4   3   5  159.48   11.40
   4   3   5  153.38   11.70
  -5  -3  -5   67.49    4.90
  -5  -3  -5   75.29    5.00
  -5  -3  -5   80.89    5.20
   5   3   5   75.79    6.80
   5   3   5   74.19    5.40
   5   3   5   72.79    5.20
   5   3   5   73.19    6.40
  -6  -3  -5    8.00    1.10
  -6  -3  -5   12.50    1.40
  -6  -3  -5   16.20    1.90
   6   3   5    2.80    1.70
   6   3   5   12.50    2.80
  -7  -3  -5   17.20    1.70
  -7  -3  -5   22.30    2.30
  -7  -3  -5   19.70    1.80
   7   3   5   10.80    2.90
   7   3   5   22.90    3.80
  -8  -3  -5    1.00    0.50
  -8  -3  -5    0.10    0.50
  -8  -3  -5    0.40    1.10
   8   3   5   -0.10    2.30
   8   3   5    0.40    1.70
  -9  -3  -5   -0.40    0.50
   9   3   5    0.10    1.80
   7  -4  -5    1.20    0.50
   7  -4  -5    2.10    1.40
  -7   4   5    0.70    0.60
  -7   4   5    0.40    0.50
   6  -4  -5    4.90    1.60
  -6   4   5    3.30    0.60
  -6   4   5    2.60    0.80
  -6   4   5    3.90    0.80
   5  -4  -5   17.10    2.30
  -5   4   5   10.90    1.10
  -5   4   5   10.30    1.40
  -5   4   5   12.70    1.40
   4  -4  -5    8.90    1.70
  -4   4   5    5.40    1.00
  -4   4   5    7.10    1.00
  -4   4   5    7.40    1.00
  -4   4   5    7.20    0.90
   3  -4  -5    0.10    0.40
   3  -4  -5    0.00    0.60
  -3   4   5   -0.10    0.50
  -3   4   5    0.00    0.40
  -3   4   5   -0.10    0.40
  -3   4   5   -0.10    0.50
  -3   4   5    1.10    0.90
   2  -4  -5   14.20    1.20
  -2   4   5   14.00    1.30
  -2   4   5   12.80    1.30
  -2   4   5   12.80    1.30
  -2   4   5   11.10    1.20
  -2   4   5   11.10    1.30
  -2   4   5   12.50    2.00
   1  -4  -5  459.15   25.70
  -1   4   5  447.66   25.80
  -1   4   5  415.36   25.80
  -1   4   5  396.66   26.10
  -1   4   5  413.46   26.00
  -1   4   5  404.26   25.70
  -1   4   5  426.16   26.50
   0  -4  -5  285.47   17.60
   0  -4  -5  313.07   18.10
   0  -4  -5  277.97   17.70
   0   4   5  286.67   18.30
   0   4   5  303.97   18.60
   0   4   5  282.47   17.70
   0   4   5  300.07   17.80
   0   4   5  291.67   18.10
   0   4   5  282.57   18.50
  -1  -4  -5    4.20    0.60
  -1  -4  -5    4.60    0.50
  -1  -4  -5    4.70    0.60
  -1  -4  -5    4.20    0.80
   1   4   5    5.80    1.50
   1   4   5    3.80    1.30
   1   4   5    4.70    0.50
   1   4   5    4.80    0.60
   1   4   5    2.10    1.10
   1   4   5    5.30    1.10
  -2  -4  -5  101.09    6.00
  -2  -4  -5  102.89    6.30
  -2  -4  -5   92.99    6.10
  -2  -4  -5   98.59    6.30
  -2  -4  -5  103.49    6.70
   2   4   5  102.69    6.90
   2   4   5   94.89    7.40
   2   4   5  101.89    6.70
   2   4   5   82.69    7.20
   2   4   5  100.09    6.10
  -3  -4  -5   92.89    6.00
  -3  -4  -5   97.39    6.20
  -3  -4  -5   95.49    6.00
  -3  -4  -5   97.79    6.70
  -3  -4  -5  102.29    6.30
   3   4   5   91.39    7.50
   3   4   5   85.39    6.50
   3   4   5  105.09    6.60
  -4  -4  -5   13.50    1.30
  -4  -4  -5   12.60    1.50
  -4  -4  -5   11.60    0.90
  -4  -4  -5   11.90    1.00
  -4  -4  -5   13.70    1.70
   4   4   5   10.60    2.60
   4   4   5   11.00    2.40
   4   4   5   16.60    2.00
   4   4   5   10.90    1.60
  -5  -4  -5    4.40    1.00
  -5  -4  -5    3.90    0.80
  -5  -4  -5    5.30    0.80
   5   4   5    4.60    1.90
   5   4   5    4.60    1.40
   5   4   5    6.00    2.30
   5   4   5    3.50    1.00
  -6  -4  -5    0.30    0.40
  -6  -4  -5    0.80    0.50
  -6  -4  -5    1.90    0.90
   6   4   5    3.20    1.90
   6   4   5    1.70    0.90
   6   4   5    0.70    1.70
  -7  -4  -5    7.00    1.20
  -7  -4  -5   10.60    1.70
  -7  -4  -5    8.20    1.30
   7   4   5    6.70    2.60
   7   4   5    7.60    2.70
  -8  -4  -5    2.70    0.80
  -8  -4  -5    4.00    1.40
   8   4   5    2.30    2.00
   8   4   5    0.60    1.80
  -9  -4  -5    0.20    1.20
  -9  -4  -5    0.80    0.50
   9   4   5    0.80    1.90
   9   4   5   -1.10    1.70
   6  -5  -5    0.60    1.00
  -6   5   5   -0.10    0.60
  -6   5   5    1.50    0.70
   5  -5  -5    4.30    1.50
  -5   5   5    4.80    0.90
  -5   5   5    2.80    0.60
  -5   5   5    4.20    0.90
  -4   5   5   28.50    2.40
  -4   5   5   27.40    2.20
  -4   5   5   27.20    2.30
  -4   5   5   27.30    2.00
   3  -5  -5   25.40    1.90
  -3   5   5   22.60    2.10
  -3   5   5   20.30    2.80
  -3   5   5   18.80    1.90
  -3   5   5   24.10    2.00
  -3   5   5   23.30    1.80
   2  -5  -5    2.20    0.50
   2  -5  -5    3.70    1.10
  -2   5   5    2.00    1.20
  -2   5   5    2.10    0.70
  -2   5   5    2.80    0.70
  -2   5   5    2.50    0.60
  -2   5   5    2.60    0.70
   1  -5  -5   34.80    2.40
  -1   5   5   31.60    3.20
  -1   5   5   30.30    2.30
  -1   5   5   32.10    2.50
  -1   5   5   28.10    2.80
  -1   5   5   30.80    2.60
  -1   5   5   34.50    2.50
   0  -5  -5   48.90    3.20
   0  -5  -5   56.09    3.70
   0  -5  -5   46.70    3.30
   0   5   5   49.50    4.20
   0   5   5   54.89    4.30
   0   5   5   51.89    3.80
   0   5   5   44.90    3.30
   0   5   5   50.49    3.40
  -1  -5  -5   28.40    2.00
  -1  -5  -5   26.60    2.00
  -1  -5  -5   31.80    2.30
   1   5   5   23.60    3.00
   1   5   5   29.10    2.10
   1   5   5   29.60    2.50
   1   5   5   26.70    1.90
   1   5   5   24.50    2.80
  -2  -5  -5   43.60    2.90
  -2  -5  -5   44.10    3.30
  -2  -5  -5   42.40    3.00
  -2  -5  -5   41.40    2.80
   2   5   5   32.60    3.80
   2   5   5   42.10    2.90
   2   5   5   47.80    3.50
   2   5   5   42.20    3.60
  -3  -5  -5   32.60    2.10
  -3  -5  -5   31.40    2.50
  -3  -5  -5   30.60    2.10
  -3  -5  -5   29.80    2.30
  -3  -5  -5   30.60    2.70
   3   5   5   34.20    2.80
   3   5   5   29.20    3.50
   3   5   5   31.60    2.90
  -4  -5  -5    0.00    0.30
  -4  -5  -5    0.30    0.50
  -4  -5  -5    0.50    0.30
  -4  -5  -5    1.40    0.70
  -4  -5  -5   -0.10    0.40
   4   5   5   -0.50    0.90
   4   5   5    0.50    0.80
   4   5   5    0.40    1.20
  -5  -5  -5    0.90    0.70
  -5  -5  -5    1.80    0.60
   5   5   5    2.40    1.20
   5   5   5    0.10    0.80
   5   5   5    3.50    2.20
   5   5   5    2.60    1.60
  -6  -5  -5    4.30    1.10
  -6  -5  -5    4.60    0.90
   6   5   5    2.20    1.90
   6   5   5    1.00    1.70
   6   5   5    4.00    1.20
  -7  -5  -5    0.90    0.60
  -7  -5  -5    0.70    1.00
   7   5   5   -0.20    0.90
   7   5   5   -0.60    1.20
   7   5   5    1.00    1.60
  -8  -5  -5   16.60    1.90
  -8  -5  -5   22.70    2.70
   8   5   5   19.60    3.90
   8   5   5   17.80    4.20
  -9  -5  -5   12.30    1.80
  -9  -5  -5    7.40    1.10
   9   5   5    5.90    2.60
   9   5   5    5.20    2.70
   6  -6  -5   12.50    2.40
  -6   6   5    7.80    1.20
  -6   6   5   10.20    1.30
   5  -6  -5    6.30    1.70
  -5   6   5    6.10    1.00
  -5   6   5    4.30    1.00
   4  -6  -5    9.80    1.10
   4  -6  -5   15.00    2.20
  -4   6   5    6.50    1.20
  -4   6   5    8.60    1.00
  -4   6   5    8.70    1.30
  -4   6   5   10.20    1.20
   3  -6  -5    0.90    0.90
   3  -6  -5    0.60    0.50
  -3   6   5    1.10    0.50
  -3   6   5    1.50    0.60
  -3   6   5    0.20    0.50
  -3   6   5    1.00    1.10
  -3   6   5    1.30    0.60
   2  -6  -5   -0.10    0.40
   2  -6  -5    0.10    0.60
  -2   6   5   -0.10    0.40
  -2   6   5   -0.50    0.90
  -2   6   5    0.10    0.50
  -2   6   5   -0.20    0.50
  -2   6   5   -0.30    0.40
   1  -6  -5    5.30    0.80
   1  -6  -5    6.90    1.20
  -1   6   5    4.10    1.00
  -1   6   5    4.90    1.40
  -1   6   5    4.10    0.80
  -1   6   5    4.50    0.80
   0  -6  -5   15.00    1.50
   0  -6  -5   14.60    1.20
   0  -6  -5   13.20    1.10
   0   6   5   10.40    1.20
   0   6   5   13.40    1.30
   0   6   5   17.10    2.50
   0   6   5   16.10    1.90
   0   6   5   12.90    2.10
  -1  -6  -5    2.70    0.70
  -1  -6  -5    3.00    0.50
  -1  -6  -5    3.30    0.70
  -1  -6  -5    3.10    0.50
   1   6   5    3.30    1.50
   1   6   5    3.50    1.30
   1   6   5    2.40    1.00
   1   6   5    3.40    0.70
  -2  -6  -5   35.40    2.60
  -2  -6  -5   33.40    2.40
  -2  -6  -5   34.40    2.30
  -2  -6  -5   38.20    2.80
   2   6   5   33.90    3.20
   2   6   5   37.20    3.10
   2   6   5   23.20    3.40
  -3  -6  -5   61.49    4.20
  -3  -6  -5   61.99    4.50
  -3  -6  -5   61.89    3.90
  -3  -6  -5   59.19    4.00
   3   6   5   60.59    4.70
   3   6   5   53.49    5.30
   3   6   5   64.09    4.70
  -4  -6  -5   20.20    2.20
  -4  -6  -5   23.50    1.60
  -4  -6  -5   23.60    2.10
  -4  -6  -5   19.80    1.80
   4   6   5   23.20    2.40
   4   6   5   22.90    2.40
   4   6   5   23.60    3.60
  -5  -6  -5    3.20    1.00
  -5  -6  -5    3.40    1.00
  -5  -6  -5    5.50    0.90
   5   6   5    4.80    1.20
   5   6   5    1.10    1.70
   5   6   5    4.20    1.30
  -6  -6  -5   19.90    1.80
  -6  -6  -5   22.40    2.40
   6   6   5   17.90    3.90
   6   6   5   21.60    2.60
   6   6   5   18.30    3.60
  -7  -6  -5   12.20    1.50
  -7  -6  -5   13.80    2.00
   7   6   5   16.90    4.10
   7   6   5   11.50    2.00
  -8  -6  -5    0.30    1.00
  -8  -6  -5    0.90    0.60
   8   6   5    0.60    1.80
   8   6   5   -0.20    1.90
   9   6   5    2.90    2.30
   5  -7  -5   16.40    2.70
  -5   7   5    7.40    1.20
  -5   7   5    8.50    1.20
   4  -7  -5    0.70    0.50
  -4   7   5   -0.10    0.60
  -4   7   5    0.70    0.60
   3  -7  -5    4.60    1.30
   3  -7  -5    2.30    0.60
  -3   7   5    1.80    1.30
  -3   7   5    2.10    0.80
  -3   7   5    2.50    0.70
  -3   7   5    3.10    0.80
  -3   7   5    3.00    0.60
   2  -7  -5   17.20    1.60
  -2   7   5   15.40    2.50
  -2   7   5   12.00    1.50
  -2   7   5   14.30    1.60
  -2   7   5   17.40    1.90
  -2   7   5   13.50    1.70
   1  -7  -5   38.10    2.60
  -1   7   5   36.80    2.80
  -1   7   5   31.70    3.70
  -1   7   5   32.40    2.90
  -1   7   5   29.60    2.50
   0  -7  -5    0.70    0.30
   0  -7  -5    0.30    0.40
   0  -7  -5    0.90    0.50
   0   7   5    1.40    0.90
   0   7   5   -0.20    1.00
   0   7   5    0.40    0.50
  -1  -7  -5   92.59    6.20
  -1  -7  -5  107.99    6.70
  -1  -7  -5   98.09    6.30
   1   7   5  103.09    6.40
   1   7   5   95.79    7.00
   1   7   5   94.79    6.90
   1   7   5   90.29    7.50
  -2  -7  -5   66.69    4.60
  -2  -7  -5   65.79    4.50
  -2  -7  -5   70.89    4.90
  -2  -7  -5   72.49    4.40
   2   7   5   62.49    5.20
   2   7   5   63.99    5.90
   2   7   5   74.19    5.20
  -3  -7  -5   17.00    1.80
  -3  -7  -5   18.50    1.40
  -3  -7  -5   18.30    1.90
  -3  -7  -5   18.30    1.50
   3   7   5   20.50    3.40
   3   7   5   20.10    2.40
   3   7   5   16.70    2.30
  -4  -7  -5    3.50    0.90
  -4  -7  -5    3.70    0.50
  -4  -7  -5    3.80    1.00
  -4  -7  -5    3.50    0.70
   4   7   5    2.50    1.60
   4   7   5    3.00    1.20
   4   7   5    2.50    1.20
  -5  -7  -5    4.50    1.10
  -5  -7  -5    4.30    1.10
  -5  -7  -5    6.50    1.00
   5   7   5    4.50    1.40
   5   7   5    6.60    1.50
   5   7   5    3.20    1.80
  -6  -7  -5    2.80    0.80
  -6  -7  -5    1.30    0.90
   6   7   5    3.10    2.00
  -7  -7  -5    1.50    1.10
  -7  -7  -5    2.90    0.70
   7   7   5    1.70    2.00
   7   7   5    2.10    2.50
   7   7   5    4.00    1.30
  -8  -7  -5    0.60    0.50
  -8  -7  -5    1.80    1.10
   8   7   5    1.60    1.20
   8   7   5    0.00    2.20
   8   7   5    0.40    1.60
   4  -8  -5    2.90    1.40
   4  -8  -5    1.50    0.50
  -4   8   5   -0.20    0.50
  -4   8   5    0.60    0.60
   3  -8  -5    7.70    1.10
  -3   8   5    7.10    1.10
  -3   8   5    5.40    1.00
   2  -8  -5    1.50    1.00
   2  -8  -5    0.70    0.50
  -2   8   5    0.10    0.50
  -2   8   5    1.90    1.20
  -2   8   5    1.40    0.80
  -2   8   5    1.00    0.60
  -2   8   5    0.60    0.80
   1  -8  -5  119.39    6.70
   1  -8  -5  117.89    7.50
   1  -8  -5  105.49    6.80
  -1   8   5   90.09    7.10
  -1   8   5   89.99    7.50
  -1   8   5   98.39    6.90
   0  -8  -5   86.89    5.60
   0  -8  -5   79.59    5.40
   0  -8  -5   93.19    6.10
   0   8   5   87.59    5.70
   0   8   5   81.39    6.00
   0   8   5   87.09    6.50
  -1  -8  -5    2.00    0.50
  -1  -8  -5    2.10    0.70
  -1  -8  -5    1.70    0.50
   1   8   5    2.40    0.70
   1   8   5    0.90    1.10
   1   8   5    2.10    0.90
  -2  -8  -5    6.40    1.10
  -2  -8  -5    6.10    0.80
  -2  -8  -5    4.50    0.90
  -2  -8  -5    6.30    0.80
   2   8   5    4.60    1.90
   2   8   5    6.40    1.50
   2   8   5    5.00    1.50
  -3  -8  -5    4.20    0.60
  -3  -8  -5    4.20    0.90
  -3  -8  -5    3.90    0.90
  -3  -8  -5    4.50    0.70
   3   8   5    5.10    2.00
   3   8   5    2.30    1.00
   3   8   5    4.40    1.40
  -4  -8  -5    5.10    0.80
  -4  -8  -5    4.90    0.80
  -4  -8  -5    4.20    1.00
  -4  -8  -5    3.30    0.90
   4   8   5    3.40    1.90
   4   8   5    3.90    1.20
   4   8   5    3.10    1.20
  -5  -8  -5    0.20    0.40
  -5  -8  -5    0.20    0.50
  -5  -8  -5    0.70    0.80
   5   8   5    0.20    0.70
   5   8   5   -0.30    1.30
   5   8   5   -0.20    1.00
  -6  -8  -5    0.80    0.90
  -6  -8  -5   -0.50    0.40
   6   8   5    2.70    2.00
   6   8   5    0.50    1.00
  -7  -8  -5   -0.70    0.90
  -7  -8  -5   -0.20    0.50
   7   8   5    0.50    1.60
   8   8   5    2.50    2.40
   3  -9  -5   18.20    1.60
  -3   9   5   18.10    1.80
   2  -9  -5   21.30    2.50
   2  -9  -5   21.70    1.80
  -2   9   5   16.90    1.70
  -2   9   5   14.00    1.80
  -2   9   5   18.00    2.60
  -2   9   5   17.00    2.00
   1  -9  -5    1.50    0.60
   1  -9  -5    1.90    0.50
   1  -9  -5    1.10    0.70
  -1   9   5    1.10    0.60
  -1   9   5    2.10    0.80
  -1   9   5    1.20    1.10
   0  -9  -5    3.00    0.70
   0  -9  -5    3.60    0.90
   0  -9  -5    3.60    0.60
   0   9   5    3.90    1.30
   0   9   5    2.70    0.80
   0   9   5    2.80    1.00
  -1  -9  -5    3.20    0.60
  -1  -9  -5    2.60    0.50
  -1  -9  -5    2.70    0.80
   1   9   5    2.80    1.30
   1   9   5    0.50    0.70
   1   9   5    3.20    0.80
  -2  -9  -5    2.00    0.50
  -2  -9  -5    1.70    0.50
  -2  -9  -5    2.00    0.70
   2   9   5    1.20    0.80
   2   9   5    1.50    1.20
   2   9   5    0.80    1.60
  -3  -9  -5    0.40    0.40
  -3  -9  -5    1.60    0.60
  -3  -9  -5    1.60    0.40
  -3  -9  -5    1.20    0.70
   3   9   5    1.30    1.70
   3   9   5   -0.50    0.60
   3   9   5    0.00    1.00
  -4  -9  -5    0.10    0.50
  -4  -9  -5   -0.10    0.30
  -4  -9  -5    0.30    0.70
   4   9   5   -0.60    1.30
   4   9   5    0.40    0.70
   4   9   5   -0.50    0.90
  -5  -9  -5    0.60    0.40
  -5  -9  -5    1.30    0.90
   5   9   5    1.80    1.80
   5   9   5    1.50    1.20
   5   9   5    0.60    0.80
  -6  -9  -5    1.80    0.60
  -6  -9  -5    2.30    1.00
   6   9   5    5.60    2.30
   6   9   5    0.80    0.80
  -7  -9  -5    0.00    0.40
  -7  -9  -5   -0.40    0.90
   7   9   5   -0.20    1.70
   7   9   5   -0.50    0.80
   2 -10  -5   -0.30    0.70
   2 -10  -5    0.10    0.40
   2 -10  -5    0.10    0.40
  -2  10   5    0.50    0.60
  -2  10   5    0.10    1.10
   1 -10  -5    1.40    0.40
   1 -10  -5    1.10    0.50
   1 -10  -5    1.20    0.80
  -1  10   5    1.20    0.90
  -1  10   5    1.90    0.70
  -1  10   5    1.70    1.10
   0 -10  -5    0.80    0.40
   0 -10  -5    0.50    0.40
   0 -10  -5    0.40    0.60
   0  10   5    0.10    1.00
   0  10   5    0.00    0.60
   0  10   5    0.00    0.80
  -1 -10  -5    0.90    0.50
  -1 -10  -5    1.20    0.40
  -1 -10  -5    0.20    0.40
   1  10   5    1.20    1.00
   1  10   5    0.00    0.60
   1  10   5    1.20    0.70
  -2 -10  -5    0.00    0.40
  -2 -10  -5    0.20    0.30
  -2 -10  -5    0.10    0.30
   2  10   5    0.30    0.50
   2  10   5    0.30    1.10
   2  10   5    0.10    0.70
  -3 -10  -5    2.20    0.40
  -3 -10  -5    1.10    0.40
   3  10   5    0.00    0.60
   3  10   5    2.30    1.90
   3  10   5    0.70    1.20
  -4 -10  -5    0.90    0.80
  -4 -10  -5    0.50    0.40
   4  10   5    0.20    1.80
   4  10   5    0.30    0.60
   4  10   5    0.90    1.10
  -5 -10  -5    0.80    0.90
  -5 -10  -5    0.40    0.40
   5  10   5    1.00    1.20
   5  10   5    0.40    0.70
   5  10   5   -0.50    1.60
   6  10   5    0.60    0.70
   0  11   5    0.70    1.00
   0  11   5   -0.10    0.60
  -1 -11  -5    0.50    0.50
  -1 -11  -5    0.50    0.40
  -1 -11  -5    0.70    0.50
   1  11   5    1.40    1.00
   1  11   5    1.00    0.70
   1  11   5    0.20    0.60
  -2 -11  -5    0.40    0.40
  -2 -11  -5    0.60    0.40
   2  11   5    0.70    0.70
   2  11   5    0.70    0.60
   2  11   5   -0.10    1.00
  -3 -11  -5    0.20    0.30
  -3 -11  -5    0.60    0.30
   3  11   5   -0.70    0.90
   3  11   5    0.70    0.60
   2   8  -6   -0.10    1.20
   2   8  -6   -0.40    0.40
  -2  -8   6    0.30    0.50
  -2  -8   6    0.00    0.40
   1   8  -6    1.70    0.70
   1   8  -6    2.40    0.60
  -1  -8   6    2.20    0.60
  -1  -8   6    1.20    0.60
  -1  -8   6    1.80    0.60
   0   8  -6   -0.40    0.70
   0   8  -6   -0.40    0.60
   0   8  -6    0.50    0.50
   0  -8   6    1.30    0.50
   0  -8   6   -0.10    0.40
   0  -8   6    0.20    0.50
  -1   8  -6    0.10    0.50
  -1   8  -6    0.90    0.60
  -1   8  -6    0.90    0.70
   1  -8   6    0.20    0.50
   1  -8   6    0.50    0.60
   1  -8   6    0.10    0.40
  -2   8  -6    0.10    0.60
  -2   8  -6   -0.40    0.50
  -2   8  -6    0.20    0.50
   2  -8   6   -0.10    0.60
   2  -8   6    0.10    0.40
   4   7  -6   -0.90    0.90
  -4  -7   6    0.70    0.60
  -4  -7   6    0.50    0.40
   3   7  -6    2.20    0.80
   3   7  -6    3.10    0.60
   3   7  -6    4.00    1.40
  -3  -7   6    3.20    0.70
  -3  -7   6    2.40    0.60
  -3  -7   6    3.40    0.70
   2   7  -6    0.20    0.40
   2   7  -6    0.40    0.70
   2   7  -6    0.20    1.00
  -2  -7   6    0.30    0.50
  -2  -7   6    0.20    0.50
   1   7  -6    0.40    0.70
   1   7  -6    1.00    0.50
   1   7  -6    1.30    1.50
  -1  -7   6    0.40    0.40
  -1  -7   6    0.10    0.50
  -1  -7   6    1.00    0.50
   0   7  -6    1.10    0.50
   0   7  -6    0.20    0.50
   0  -7   6    0.30    0.50
   0  -7   6    0.80    0.60
   0  -7   6    1.50    0.50
  -1   7  -6    7.10    1.10
  -1   7  -6    9.60    1.20
  -1   7  -6    4.10    1.00
   1  -7   6    6.70    1.10
   1  -7   6    8.10    1.30
   1  -7   6    8.00    1.00
  -2   7  -6   10.00    1.30
  -2   7  -6   10.00    1.40
  -2   7  -6   10.60    1.50
   2  -7   6   12.40    1.10
   2  -7   6   11.50    1.50
   2  -7   6    9.60    1.30
  -3   7  -6    7.90    1.40
  -3   7  -6    8.70    1.10
  -3   7  -6    8.60    1.30
   3  -7   6    7.60    1.30
   3  -7   6    9.10    1.50
   3  -7   6    9.60    1.00
  -4   7  -6    1.70    0.90
  -4   7  -6    1.10    0.60
  -4   7  -6    0.70    0.60
   4  -7   6    0.90    0.70
   4  -7   6    1.40    0.90
   5   6  -6    1.20    1.00
  -5  -6   6    0.20    0.60
  -5  -6   6   -0.10    0.40
   4   6  -6    4.70    1.40
   4   6  -6    4.50    0.60
  -4  -6   6    4.20    0.70
  -4  -6   6    2.80    0.70
   3   6  -6    0.00    0.50
   3   6  -6    0.80    1.00
   3   6  -6   -0.30    0.30
  -3  -6   6   -0.40    0.40
  -3  -6   6    0.00    0.50
  -3  -6   6    0.50    0.50
   2   6  -6   -0.30    0.60
   2   6  -6   -0.10    0.40
   2   6  -6    0.30    0.90
  -2  -6   6   -0.30    0.40
  -2  -6   6    0.10    0.40
  -2  -6   6    0.20    0.40
   1   6  -6    0.40    0.70
   1   6  -6    0.40    1.00
   1   6  -6    1.00    0.50
  -1  -6   6    0.80    0.50
  -1  -6   6    1.00    0.60
  -1  -6   6    0.60    0.50
   0   6  -6   35.70    2.50
   0   6  -6   37.90    2.80
   0  -6   6   34.20    2.70
   0  -6   6   32.00    2.40
   0  -6   6   29.30    2.50
  -1   6  -6   22.80    1.90
  -1   6  -6   18.50    2.10
   1  -6   6   26.10    2.20
   1  -6   6   26.80    2.30
   1  -6   6   26.10    1.90
  -2   6  -6    7.80    1.10
  -2   6  -6    6.20    1.20
  -2   6  -6    8.40    1.20
   2  -6   6    9.00    1.30
   2  -6   6    8.30    1.40
  -3   6  -6    0.70    0.70
  -3   6  -6    0.20    0.70
  -3   6  -6    0.60    0.60
   3  -6   6    0.50    0.70
   3  -6   6    0.60    0.90
  -4   6  -6    5.10    1.10
  -4   6  -6    6.60    1.00
  -4   6  -6    6.20    1.10
   4  -6   6    5.40    1.10
   4  -6   6    6.80    1.40
  -5   6  -6    2.00    0.80
  -5   6  -6    1.50    0.70
  -5   6  -6    1.60    0.80
   5  -6   6    1.80    0.70
   5  -6   6    2.20    1.10
   6   5  -6    1.80    1.10
  -6  -5   6    2.10    0.80
  -6  -5   6    3.30    0.60
   5   5  -6    0.00    0.30
   5   5  -6    0.00    0.90
  -5  -5   6    0.20    0.70
  -5  -5   6    0.00    0.40
   4   5  -6    2.00    0.40
   4   5  -6    1.70    0.90
  -4  -5   6    1.90    0.60
  -4  -5   6    1.30    0.70
   3   5  -6    6.20    1.00
   3   5  -6    8.10    1.60
   3   5  -6    7.80    0.90
  -3  -5   6    6.20    1.00
  -3  -5   6    6.10    0.90
  -3  -5   6    9.00    1.10
   2   5  -6    5.80    1.50
   2   5  -6    4.70    0.90
   2   5  -6    5.00    0.70
  -2  -5   6    4.20    0.80
  -2  -5   6    5.70    1.00
  -2  -5   6    4.90    0.80
  -2  -5   6    6.70    0.90
   1   5  -6   -0.60    0.50
   1   5  -6   -0.30    0.40
   1   5  -6   -0.30    0.80
  -1  -5   6   -0.20    0.30
  -1  -5   6   -0.50    0.50
  -1  -5   6    0.20    0.50
  -1  -5   6   -0.30    0.40
   0   5  -6   15.70    1.70
   0   5  -6   17.20    1.50
   0   5  -6   18.00    2.20
   0  -5   6   16.00    1.40
   0  -5   6   16.10    1.70
   0  -5   6   18.50    1.80
  -1   5  -6    1.10    0.60
  -1   5  -6    2.10    0.70
   1  -5   6    1.30    0.40
   1  -5   6    1.50    0.70
   1  -5   6    1.30    0.80
  -2   5  -6    1.70    0.60
  -2   5  -6    2.00    0.70
  -2   5  -6    2.00    0.60
  -2   5  -6    2.40    0.80
   2  -5   6    0.70    0.70
   2  -5   6    1.50    0.90
  -3   5  -6    1.90    0.80
  -3   5  -6    0.90    0.60
  -3   5  -6    1.70    0.60
  -3   5  -6    2.10    0.70
   3  -5   6    1.70    0.80
   3  -5   6    1.90    1.00
  -4   5  -6    7.70    1.20
  -4   5  -6    5.40    0.90
  -4   5  -6    7.20    1.10
  -4   5  -6    7.40    1.20
   4  -5   6    7.30    2.00
   4  -5   6    3.80    1.20
   4  -5   6    5.10    1.10
  -5   5  -6    1.60    0.70
  -5   5  -6    0.40    0.60
  -5   5  -6    0.60    0.60
   5  -5   6    1.20    1.00
   5  -5   6    1.50    1.40
   5  -5   6    1.10    0.70
  -6   5  -6    3.00    0.90
  -6   5  -6    0.80    0.60
  -6   5  -6    2.60    0.80
   6  -5   6    0.80    0.70
   6  -5   6    2.40    1.70
   6  -5   6    2.30    1.20
   6   4  -6    0.30    0.90
   6   4  -6   -0.10    0.30
  -6  -4   6   -0.20    0.30
   5   4  -6    0.60    0.40
   5   4  -6    1.30    1.00
  -5  -4   6    1.10    0.50
  -5  -4   6    1.10    0.70
   4   4  -6    6.20    1.40
   4   4  -6    6.70    0.80
  -4  -4   6    4.90    0.90
  -4  -4   6    5.80    0.90
   3   4  -6   18.60    1.40
   3   4  -6   18.80    1.60
  -3  -4   6   15.40    1.60
  -3  -4   6   17.10    1.60
  -3  -4   6   18.20    1.50
   2   4  -6   28.10    2.20
   2   4  -6   29.20    2.00
  -2  -4   6   27.50    2.30
  -2  -4   6   27.90    2.00
  -2  -4   6   29.30    2.20
  -2  -4   6   27.80    2.10
   1   4  -6   63.19    4.30
   1   4  -6   69.19    4.80
   1   4  -6   66.59    4.20
  -1  -4   6   57.69    4.20
  -1  -4   6   58.19    4.10
  -1  -4   6   69.19    4.50
  -1  -4   6   65.69    4.30
   0   4  -6    1.90    0.60
   0   4  -6    3.00    0.60
   0   4  -6    2.30    1.00
   0   4  -6    2.80    0.80
   0  -4   6    2.10    0.50
   0  -4   6    2.20    0.70
   0  -4   6    3.50    0.90
   0  -4   6    1.90    0.50
  -1   4  -6   30.40    2.30
  -1   4  -6   28.30    2.30
  -1   4  -6   26.50    2.40
  -1   4  -6   31.90    2.90
   1  -4   6   38.10    2.90
   1  -4   6   32.80    2.60
   1  -4   6   32.10    2.60
  -2   4  -6    0.90    0.50
  -2   4  -6    1.60    0.60
  -2   4  -6    0.70    0.60
   2  -4   6    1.30    0.80
   2  -4   6    2.50    1.10
   2  -4   6    1.90    0.70
  -3   4  -6    0.10    0.50
  -3   4  -6    0.40    0.70
  -3   4  -6   -0.20    0.50
  -3   4  -6    0.60    0.50
   3  -4   6    0.40    1.10
   3  -4   6   -0.10    0.70
   3  -4   6    0.90    1.00
  -4   4  -6    1.30    0.60
  -4   4  -6    2.40    0.70
  -4   4  -6    2.80    0.80
  -4   4  -6    2.30    0.80
   4  -4   6    2.40    1.00
   4  -4   6    2.40    1.20
   4  -4   6    3.10    1.60
  -5   4  -6    2.30    0.90
  -5   4  -6    2.90    0.70
  -5   4  -6    1.70    0.70
  -5   4  -6    2.70    0.80
   5  -4   6    2.20    1.50
   5  -4   6    1.30    1.10
   5  -4   6    1.40    0.90
  -6   4  -6   -0.30    0.40
  -6   4  -6   -0.50    0.60
  -6   4  -6    0.00    0.50
   6  -4   6    0.50    1.60
   6  -4   6   -0.10    1.00
   6  -4   6    0.70    0.80
  -7   4  -6    0.70    0.60
  -7   4  -6    0.70    0.70
   7  -4   6    1.80    2.10
   7  -4   6    0.30    1.10
   7   3  -6    0.00    0.30
  -7  -3   6    0.70    0.50
  -7  -3   6    0.30    0.40
   6   3  -6   -0.20    0.30
  -6  -3   6   -0.20    0.40
  -6  -3   6    0.30    0.40
   5   3  -6    0.40    0.40
  -5  -3   6    0.90    0.50
  -5  -3   6    0.40    0.60
  -5  -3   6    0.70    0.50
   4   3  -6   23.30    1.70
  -4  -3   6   22.10    1.90
  -4  -3   6   22.10    1.80
  -4  -3   6   22.50    1.90
   3   3  -6   91.89    5.70
   3   3  -6   93.59    5.60
  -3  -3   6   84.29    5.70
  -3  -3   6   93.59    5.80
  -3  -3   6   78.49    5.80
   2   3  -6   38.90    2.60
   2   3  -6   35.70    2.70
  -2  -3   6   37.00    2.60
  -2  -3   6   40.30    2.80
  -2  -3   6   37.90    2.80
  -2  -3   6   36.50    2.60
   1   3  -6   21.00    1.80
   1   3  -6   20.00    1.60
  -1  -3   6   19.50    1.60
  -1  -3   6   21.70    2.00
  -1  -3   6   25.00    1.90
  -1  -3   6   19.90    1.80
  -1  -3   6   22.30    1.70
   0   3  -6   23.00    1.70
   0   3  -6   21.60    1.90
   0   3  -6   23.50    1.70
   0  -3   6   21.20    1.70
   0  -3   6   22.70    2.10
   0  -3   6   20.70    2.00
   0  -3   6   25.00    2.20
   0  -3   6   20.00    1.60
  -1   3  -6   10.40    1.20
  -1   3  -6    7.70    0.90
  -1   3  -6    8.30    0.90
   1  -3   6   10.20    1.20
   1  -3   6   11.10    1.40
   1  -3   6   12.00    1.60
  -2   3  -6    0.70    0.40
  -2   3  -6    0.80    0.50
  -2   3  -6    0.50    0.50
   2  -3   6    0.90    0.90
   2  -3   6    0.90    0.80
   2  -3   6    1.80    0.70
  -3   3  -6   42.60    3.10
  -3   3  -6   42.10    3.30
  -3   3  -6   42.10    3.10
  -3   3  -6   43.70    3.00
   3  -3   6   44.40    3.60
   3  -3   6   41.50    4.00
   3  -3   6   47.60    3.30
  -4   3  -6   19.10    1.60
  -4   3  -6   16.60    1.70
  -4   3  -6   20.50    1.80
  -4   3  -6   19.40    1.80
   4  -3   6   19.00    2.50
   4  -3   6   18.10    2.20
   4  -3   6   18.30    2.90
  -5   3  -6    4.30    0.90
  -5   3  -6    4.00    0.70
  -5   3  -6    1.80    0.70
  -5   3  -6    6.20    1.00
   5  -3   6    3.90    1.50
   5  -3   6    3.10    1.10
   5  -3   6    5.70    2.00
  -6   3  -6    1.10    0.70
  -6   3  -6    0.80    0.60
  -6   3  -6    1.00    0.60
   6  -3   6   -0.60    1.00
   6  -3   6    1.00    1.40
   6  -3   6    0.40    0.80
  -7   3  -6    0.10    0.60
  -7   3  -6    0.50    0.60
   7  -3   6    0.30    1.20
   7  -3   6    1.10    1.80
  -8   3  -6    0.70    0.70
   8  -3   6   -0.20    1.60
   8  -3   6    1.00    1.30
   7   2  -6   -0.30    0.30
  -7  -2   6    0.00    0.40
  -7  -2   6    0.00    0.40
   6   2  -6   -0.10    0.40
  -6  -2   6   -0.10    0.40
  -6  -2   6    0.30    0.50
   5   2  -6   12.60    1.20
  -5  -2   6   13.30    1.40
  -5  -2   6   11.80    1.30
   4   2  -6   97.29    6.20
  -4  -2   6   96.69    6.30
  -4  -2   6   96.59    6.30
  -4  -2   6   98.79    6.30
   3   2  -6  108.09    6.60
   3   2  -6  113.09    6.70
  -3  -2   6  107.89    6.80
  -3  -2   6  107.09    6.80
  -3  -2   6  102.29    6.70
  -3  -2   6   95.19    6.80
   2   2  -6   45.80    2.90
   2   2  -6   43.30    2.90
  -2  -2   6   42.90    2.90
  -2  -2   6   43.20    2.90
  -2  -2   6   42.20    3.00
  -2  -2   6   43.80    3.00
  -2  -2   6   38.60    2.80
   1   2  -6    3.30    0.60
   1   2  -6    2.40    0.50
  -1  -2   6    3.00    0.50
  -1  -2   6    3.40    0.70
  -1  -2   6    2.80    0.60
  -1  -2   6    3.10    0.80
  -1  -2   6    2.30    0.70
   0   2  -6    0.40    0.30
   0   2  -6   -0.10    0.30
   0  -2   6    0.40    0.50
   0  -2   6   -0.10    0.30
   0  -2   6    0.70    0.60
   0  -2   6    0.40    0.70
  -1   2  -6   19.50    1.60
  -1   2  -6   20.40    1.60
  -1   2  -6   19.60    1.70
   1  -2   6   20.90    2.20
   1  -2   6   18.20    1.50
   1  -2   6   25.70    2.40
   1  -2   6   23.50    2.00
  -2   2  -6   12.90    1.20
  -2   2  -6   13.60    1.20
  -2   2  -6   12.50    1.30
   2  -2   6   17.10    2.10
   2  -2   6   15.00    2.00
   2  -2   6   15.80    1.60
  -3   2  -6    0.40    0.40
  -3   2  -6   -0.30    0.40
  -3   2  -6    0.10    0.40
  -3   2  -6   -0.60    0.30
   3  -2   6    0.00    0.90
   3  -2   6    1.00    0.80
   3  -2   6    0.30    0.90
  -4   2  -6   30.40    2.30
  -4   2  -6   26.60    2.20
  -4   2  -6   28.10    2.10
  -4   2  -6   27.30    2.20
   4  -2   6   24.90    2.50
   4  -2   6   28.80    2.70
   4  -2   6   26.90    3.30
  -5   2  -6    1.20    0.70
  -5   2  -6    1.40    0.70
  -5   2  -6    0.20    0.50
  -5   2  -6    2.30    0.50
   5  -2   6    0.30    1.10
   5  -2   6    3.00    1.20
  -6   2  -6    0.20    0.50
  -6   2  -6    0.00    0.50
  -6   2  -6    0.60    0.60
   6  -2   6    0.50    1.00
   6  -2   6    0.20    1.10
  -7   2  -6    0.40    0.60
  -7   2  -6    0.70    0.70
   7  -2   6    0.60    1.50
   7  -2   6    0.10    1.40
  -8   2  -6    0.10    0.50
  -8   2  -6   -0.10    0.50
   8  -2   6   -0.20    1.50
   8  -2   6    0.00    1.40
   7   1  -6   -0.10    0.40
  -7  -1   6    0.50    0.60
  -7  -1   6    0.30    0.40
   6   1  -6   10.70    1.20
  -6  -1   6   11.50    1.20
  -6  -1   6    8.00    1.00
   5   1  -6    9.20    1.10
  -5  -1   6    7.90    1.10
  -5  -1   6    8.70    1.10
   4   1  -6  204.78   12.50
  -4  -1   6  195.98   12.60
  -4  -1   6  206.28   12.60
   3   1  -6    0.20    0.40
   3   1  -6   -0.30    0.30
  -3  -1   6    0.40    0.50
  -3  -1   6    0.00    0.40
  -3  -1   6    0.70    0.50
  -3  -1   6    0.10    0.40
   2   1  -6    0.20    0.30
   2   1  -6    1.20    0.40
  -2  -1   6    0.60    0.30
  -2  -1   6    0.10    0.40
  -2  -1   6    0.10    0.40
  -2  -1   6    0.10    0.40
  -2  -1   6    0.40    0.50
  -2  -1   6    0.10    0.30
   1   1  -6   59.99    4.00
   1   1  -6   60.99    4.00
  -1  -1   6   50.49    4.20
  -1  -1   6   58.69    4.00
  -1  -1   6   63.49    4.30
  -1  -1   6   69.39    4.20
  -1  -1   6   65.09    3.90
  -1  -1   6   61.69    4.00
   0   1  -6  309.97   19.00
   0   1  -6  312.27   18.90
   0  -1   6  302.07   19.50
   0  -1   6  316.17   19.40
   0  -1   6  305.57   19.40
   0  -1   6  322.87   19.00
  -1   1  -6  104.49    6.80
  -1   1  -6   99.09    6.60
   1  -1   6  101.89    6.60
   1  -1   6  120.09    7.60
   1  -1   6  112.79    7.20
   1  -1   6  100.09    7.30
  -2   1  -6   16.80    1.40
  -2   1  -6   16.90    1.30
  -2   1  -6   17.10    1.40
   2  -1   6   18.70    2.00
   2  -1   6   14.60    2.40
   2  -1   6   20.30    2.30
   2  -1   6   16.20    1.20
  -3   1  -6   38.70    2.70
  -3   1  -6   36.40    2.70
  -3   1  -6   37.40    2.50
  -3   1  -6   37.70    2.70
   3  -1   6   36.60    3.30
   3  -1   6   35.20    3.70
   3  -1   6   35.60    3.20
  -4   1  -6    3.40    0.80
  -4   1  -6    5.50    0.80
  -4   1  -6    4.70    0.70
  -4   1  -6    5.30    0.80
   4  -1   6    4.00    1.30
   4  -1   6    4.90    1.70
   4  -1   6    7.00    1.50
  -5   1  -6    8.50    1.00
  -5   1  -6    8.00    1.20
  -5   1  -6   10.10    1.10
  -5   1  -6    7.20    1.10
   5  -1   6    7.50    2.00
   5  -1   6    7.70    1.50
   5  -1   6    8.20    1.80
  -6   1  -6    0.40    0.60
  -6   1  -6    1.00    0.60
  -6   1  -6    0.80    0.50
   6  -1   6   -0.40    1.20
  -7   1  -6    0.90    0.70
  -7   1  -6    0.90    0.60
   7  -1   6    0.70    1.40
  -8   1  -6    0.00    0.50
  -8   1  -6   -0.40    0.50
   8  -1   6    0.90    1.60
   8  -1   6    0.10    1.50
   7   0  -6    1.60    0.60
  -7   0   6    1.30    0.60
  -7   0   6    1.50    0.50
  -7   0   6    2.40    0.70
   6   0  -6   18.00    1.50
  -6   0   6   15.90    1.50
  -6   0   6   16.60    1.60
  -6   0   6   17.60    1.60
   5   0  -6    7.70    1.00
  -5   0   6    7.30    1.00
  -5   0   6    5.30    1.00
  -5   0   6    7.10    1.00
   4   0  -6    0.40    0.50
  -4   0   6    0.20    0.60
  -4   0   6    0.90    0.50
   3   0  -6    4.80    0.80
   3   0  -6    5.40    0.60
  -3   0   6    5.20    0.80
  -3   0   6    4.30    0.70
  -3   0   6    4.50    0.80
   2   0  -6   37.20    2.50
   2   0  -6   33.60    2.40
   2   0  -6   34.70    2.40
  -2   0   6   34.60    2.50
  -2   0   6   35.80    2.60
  -2   0   6   34.00    2.40
  -2   0   6   32.20    2.50
  -2   0   6   33.00    2.60
  -2   0   6   31.40    2.30
   1   0  -6   23.90    1.80
   1   0  -6   23.40    1.80
   1   0  -6   22.80    1.90
  -1   0   6   25.90    2.30
  -1   0   6   25.30    1.90
  -1   0   6   24.60    1.90
  -1   0   6   27.30    2.10
  -1   0   6   23.30    1.60
  -1   0   6   22.50    1.80
   0   0  -6  167.78   11.70
   0   0  -6  184.18   11.60
   0   0  -6  185.08   11.50
   0   0   6  188.58   11.50
   0   0   6  180.08   12.20
   0   0   6  177.38   11.90
   0   0   6  197.08   11.50
   0   0   6  220.88   12.10
  -1   0  -6  214.68   13.30
  -1   0  -6  201.88   13.40
  -1   0  -6  201.98   13.80
   1   0   6  232.58   14.10
   1   0   6  219.58   14.20
   1   0   6  225.58   14.10
   1   0   6  236.78   13.30
  -2   0  -6  284.77   17.20
  -2   0  -6  277.37   17.30
  -2   0  -6  277.27   17.30
  -2   0  -6  289.67   17.40
   2   0   6  284.87   17.30
   2   0   6  277.67   18.10
   2   0   6  288.17   18.50
   2   0   6  285.67   18.20
   2   0   6  288.27   17.20
  -3   0  -6   12.00    1.20
  -3   0  -6   11.00    1.10
  -3   0  -6   10.00    1.00
  -3   0  -6   12.10    1.10
  -3   0  -6   10.60    1.10
   3   0   6   11.70    1.00
   3   0   6   12.50    0.90
   3   0   6   10.30    1.90
   3   0   6   12.20    2.40
   3   0   6   13.10    2.10
  -4   0  -6    2.30    0.50
  -4   0  -6    2.40    0.60
  -4   0  -6    2.30    0.60
  -4   0  -6    2.20    0.60
   4   0   6    2.00    1.10
   4   0   6    2.00    1.40
   4   0   6    0.90    1.10
  -5   0  -6    2.00    0.50
  -5   0  -6    3.00    0.70
  -5   0  -6    2.80    0.70
  -5   0  -6    2.00    0.70
   5   0   6    1.50    1.20
   5   0   6    1.10    1.20
   5   0   6    1.90    1.40
  -6   0  -6    3.10    0.80
  -6   0  -6    7.20    1.00
  -6   0  -6    6.80    1.10
  -6   0  -6    6.10    0.80
   6   0   6    6.00    2.00
   6   0   6    7.30    2.00
  -7   0  -6    1.40    0.60
  -7   0  -6    0.10    0.50
  -7   0  -6    1.50    0.70
   7   0   6    1.80    1.70
  -8   0  -6    0.10    0.50
  -8   0  -6    0.30    0.50
   8   0   6    0.20    1.60
  -9   0  -6   -0.10    0.40
   9   0   6    0.50    1.90
   9   0   6   -0.20    2.00
   7  -1  -6    0.00    0.50
  -7   1   6    0.10    0.40
  -7   1   6    0.00    0.50
  -7   1   6   -0.20    0.50
   6  -1  -6    0.90    0.60
  -6   1   6    0.60    0.60
  -6   1   6   -0.10    0.50
  -6   1   6    0.50    0.40
   5  -1  -6   15.80    1.50
  -5   1   6   16.90    1.70
  -5   1   6   15.60    1.60
  -5   1   6   14.00    1.40
   4  -1  -6   20.50    1.80
  -4   1   6   20.40    1.90
  -4   1   6   23.10    2.00
  -4   1   6   20.80    1.80
   3  -1  -6   52.49    3.30
   3  -1  -6   46.60    3.40
  -3   1   6   52.79    3.60
  -3   1   6   49.40    3.50
  -3   1   6   45.90    3.50
   2  -1  -6    6.30    0.80
   2  -1  -6    3.90    0.70
   2  -1  -6    4.40    0.60
  -2   1   6    5.60    1.00
  -2   1   6    4.50    0.80
  -2   1   6    5.40    0.80
  -2   1   6    5.40    0.90
   1  -1  -6   58.89    3.90
   1  -1  -6   57.59    3.90
   1  -1  -6   60.09    4.00
  -1   1   6   59.49    3.90
  -1   1   6   58.99    4.00
  -1   1   6   57.19    4.50
  -1   1   6   56.99    4.00
  -1   1   6   61.39    4.00
  -1   1   6   64.69    4.30
   0  -1  -6  282.37   18.60
   0  -1  -6  292.27   18.40
   0  -1  -6  291.47   18.30
   0   1   6  302.07   18.40
   0   1   6  338.37   19.10
   0   1   6  304.47   19.10
   0   1   6  288.07   18.80
   0   1   6  306.57   18.40
   0   1   6  314.67   18.50
  -1  -1  -6  165.98   10.10
  -1  -1  -6  167.08   10.10
  -1  -1  -6  164.48   10.60
  -1  -1  -6  159.68   10.20
   1   1   6  177.18   10.20
   1   1   6  163.38   10.30
   1   1   6  156.48   11.00
   1   1   6  171.38   11.00
   1   1   6  163.08   11.00
   1   1   6  161.28   10.10
  -2  -1  -6   51.29    3.50
  -2  -1  -6   55.59    3.60
  -2  -1  -6   54.89    3.50
  -2  -1  -6   49.40    4.00
  -2  -1  -6   56.19    3.40
   2   1   6   53.19    3.50
   2   1   6   51.29    4.40
   2   1   6   52.69    4.50
   2   1   6   57.19    3.60
   2   1   6   53.99    4.70
  -3  -1  -6    1.00    0.40
  -3  -1  -6    1.30    0.40
  -3  -1  -6    0.40    0.30
  -3  -1  -6    0.60    0.20
   3   1   6    0.20    1.00
   3   1   6    1.00    1.00
   3   1   6    0.50    0.40
   3   1   6    0.80    1.00
  -4  -1  -6   28.40    2.00
  -4  -1  -6   25.70    2.00
  -4  -1  -6   28.40    2.10
  -4  -1  -6   29.60    2.00
  -4  -1  -6   24.90    1.80
   4   1   6   25.90    3.10
   4   1   6   22.20    2.10
   4   1   6   26.00    3.50
   4   1   6   24.70    3.00
  -5  -1  -6   14.10    1.40
  -5  -1  -6   16.20    1.30
  -5  -1  -6   14.80    1.50
  -5  -1  -6   13.00    1.40
   5   1   6   13.20    3.10
   5   1   6   18.30    2.90
   5   1   6   14.30    2.30
  -6  -1  -6   -0.70    0.40
  -6  -1  -6    0.70    0.60
  -6  -1  -6    0.50    0.60
   6   1   6   -0.30    1.20
   6   1   6   -0.30    1.30
  -7  -1  -6    0.30    0.50
  -7  -1  -6    0.00    0.50
   7   1   6    0.10    2.00
   7   1   6   -0.30    1.40
  -8  -1  -6    5.80    1.10
  -8  -1  -6   12.60    1.30
   8   1   6    6.20    2.10
  -9  -1  -6   -0.20    0.50
  -9  -1  -6    0.30    0.50
   9   1   6   -0.60    1.50
   7  -2  -6    2.80    0.60
  -7   2   6    3.40    0.60
  -7   2   6    4.80    0.90
  -7   2   6    6.30    0.90
   6  -2  -6   -0.30    0.50
  -6   2   6    0.20    0.50
  -6   2   6    0.20    0.40
  -6   2   6    0.10    0.50
   5  -2  -6    4.30    1.20
   5  -2  -6    3.60    0.80
  -5   2   6    2.40    0.70
  -5   2   6    3.30    0.60
  -5   2   6    3.00    0.80
   4  -2  -6   44.50    3.30
  -4   2   6   44.20    3.20
  -4   2   6   47.60    3.40
  -4   2   6   46.20    3.40
   3  -2  -6   15.90    1.50
   3  -2  -6   20.00    1.80
   3  -2  -6   15.10    1.30
  -3   2   6   14.90    1.50
  -3   2   6   16.30    1.60
  -3   2   6   15.90    1.40
  -3   2   6   12.90    1.30
   2  -2  -6  116.79    7.00
   2  -2  -6  108.19    7.10
  -2   2   6  111.39    7.20
  -2   2   6  111.69    7.10
  -2   2   6  117.39    7.20
  -2   2   6  107.99    7.10
  -2   2   6  112.59    7.60
  -2   2   6  101.59    7.10
   1  -2  -6    5.20    0.70
   1  -2  -6    6.30    0.80
   1  -2  -6    5.20    0.80
  -1   2   6    6.20    0.80
  -1   2   6    6.10    0.90
  -1   2   6    5.00    1.30
  -1   2   6    5.40    0.80
  -1   2   6    4.30    0.70
  -1   2   6    6.50    1.10
  -1   2   6    5.30    0.70
   0  -2  -6   50.29    3.10
   0  -2  -6   47.00    3.20
   0  -2  -6   48.00    3.50
   0  -2  -6   46.20    3.20
   0   2   6   45.40    3.70
   0   2   6   44.90    4.00
   0   2   6   44.90    3.40
   0   2   6   55.39    3.30
   0   2   6   50.39    3.90
   0   2   6   52.29    3.30
  -1  -2  -6  104.49    6.40
  -1  -2  -6   98.29    6.30
  -1  -2  -6  101.89    6.40
  -1  -2  -6   97.69    6.80
   1   2   6  114.69    6.50
   1   2   6   98.89    6.60
   1   2   6  103.99    7.30
   1   2   6  102.49    7.40
   1   2   6  100.79    6.30
   1   2   6   94.79    7.20
  -2  -2  -6   31.00    1.90
  -2  -2  -6   31.10    2.10
  -2  -2  -6   28.30    2.60
  -2  -2  -6   29.20    2.10
   2   2   6   27.50    2.90
   2   2   6   27.70    3.10
   2   2   6   29.20    1.90
   2   2   6   29.10    2.30
   2   2   6   27.90    3.00
  -3  -2  -6   96.89    6.20
  -3  -2  -6   99.49    6.10
  -3  -2  -6  103.89    6.10
  -3  -2  -6   88.89    6.80
  -3  -2  -6  100.09    6.00
  -3  -2  -6   97.99    5.90
   3   2   6   89.29    7.20
   3   2   6   85.39    7.40
   3   2   6   99.79    6.30
   3   2   6   93.39    6.90
  -4  -2  -6    0.00    0.40
  -4  -2  -6    0.70    0.40
  -4  -2  -6    0.20    0.40
  -4  -2  -6    0.20    0.30
  -4  -2  -6    0.50    0.30
   4   2   6    0.70    0.60
   4   2   6    1.10    1.10
   4   2   6   -0.10    1.20
   4   2   6    2.10    1.30
  -5  -2  -6    3.90    0.70
  -5  -2  -6    5.40    1.10
  -5  -2  -6    4.30    0.80
   5   2   6    3.20    1.70
   5   2   6    3.50    1.60
   5   2   6    3.10    1.30
  -6  -2  -6   33.50    2.60
   6   2   6   33.80    4.00
   6   2   6   36.50    4.40
  -7  -2  -6    7.70    1.20
  -7  -2  -6   11.10    1.30
   7   2   6    7.60    2.30
   7   2   6    8.70    2.60
  -8  -2  -6   -0.30    0.50
  -8  -2  -6   -0.30    0.50
   8   2   6   -0.90    1.40
  -9  -2  -6    0.50    0.50
  -9  -2  -6    0.10    0.50
   9   2   6   -0.60    1.60
   7  -3  -6    0.10    0.40
  -7   3   6   -0.30    0.40
  -7   3   6    0.00    0.30
  -7   3   6    0.30    0.50
   6  -3  -6    5.20    1.50
  -6   3   6    4.00    0.90
  -6   3   6    3.50    0.60
   5  -3  -6   10.50    1.80
   5  -3  -6    9.50    1.20
  -5   3   6    7.10    1.10
  -5   3   6    8.60    1.00
  -5   3   6    9.50    1.20
   4  -3  -6   15.50    1.50
  -4   3   6   14.90    1.50
  -4   3   6   16.30    1.70
  -4   3   6   12.60    1.40
   3  -3  -6    7.50    1.10
   3  -3  -6   10.80    1.00
   3  -3  -6   13.50    1.60
  -3   3   6    8.50    1.20
  -3   3   6    8.10    1.20
  -3   3   6   11.50    1.30
  -3   3   6    7.70    0.90
  -3   3   6    9.50    1.10
   2  -3  -6    1.00    0.50
   2  -3  -6    0.90    0.60
   2  -3  -6    0.90    0.40
  -2   3   6    1.60    0.50
  -2   3   6    0.80    0.50
  -2   3   6    1.10    0.90
  -2   3   6    0.80    0.50
  -2   3   6    0.60    0.50
  -2   3   6    0.90    0.50
   1  -3  -6   27.90    1.70
   1  -3  -6   29.90    2.20
   1  -3  -6   23.30    2.00
   1  -3  -6   26.90    1.90
  -1   3   6   22.70    2.00
  -1   3   6   26.80    2.40
  -1   3   6   26.40    2.20
  -1   3   6   23.50    2.10
  -1   3   6   27.00    2.00
  -1   3   6   24.50    3.00
   0  -3  -6    1.10    0.30
   0  -3  -6    0.70    0.40
   0  -3  -6    0.40    0.30
   0  -3  -6    1.00    0.30
   0   3   6    1.30    0.90
   0   3   6   -0.30    0.90
   0   3   6    1.10    0.40
   0   3   6    0.80    0.70
   0   3   6    0.90    0.60
   0   3   6    0.30    0.40
   0   3   6    1.10    0.50
  -1  -3  -6  136.69    8.60
  -1  -3  -6  143.89    8.50
  -1  -3  -6  140.79    8.60
  -1  -3  -6  136.69    9.00
   1   3   6  128.49    9.40
   1   3   6  135.59    9.60
   1   3   6  142.89    8.90
   1   3   6  130.79    9.50
   1   3   6  145.49    8.60
  -2  -3  -6   27.00    1.90
  -2  -3  -6   25.20    1.70
  -2  -3  -6   25.60    2.00
  -2  -3  -6   25.80    2.40
   2   3   6   24.50    3.10
   2   3   6   28.10    3.00
   2   3   6   24.60    3.00
   2   3   6   28.70    2.30
   2   3   6   27.90    1.80
  -3  -3  -6   11.10    1.60
  -3  -3  -6   11.70    1.20
  -3  -3  -6   13.70    1.00
  -3  -3  -6   13.70    0.90
  -3  -3  -6   13.70    1.10
  -3  -3  -6   14.70    1.10
   3   3   6   11.90    1.90
   3   3   6    9.40    2.30
   3   3   6   15.70    1.50
   3   3   6   11.20    2.20
  -4  -3  -6   41.60    2.60
  -4  -3  -6   38.60    2.70
  -4  -3  -6   41.00    2.90
  -4  -3  -6   45.40    3.10
   4   3   6   37.70    4.30
   4   3   6   34.40    3.40
   4   3   6   40.30    3.10
   4   3   6   30.30    3.80
  -5  -3  -6   11.60    1.50
  -5  -3  -6   13.90    1.70
  -5  -3  -6   14.00    1.30
   5   3   6   10.30    2.50
   5   3   6   11.40    2.10
   5   3   6    8.30    2.40
   5   3   6   13.20    1.70
  -6  -3  -6   -0.30    0.40
  -6  -3  -6    0.60    0.70
  -6  -3  -6   -0.20    0.40
   6   3   6    1.50    1.40
   6   3   6   -0.10    1.20
  -7  -3  -6    6.20    1.00
  -7  -3  -6   11.20    1.30
   7   3   6    7.00    2.50
   7   3   6    7.90    2.50
  -8  -3  -6    0.00    0.50
  -8  -3  -6   -0.30    0.50
   8   3   6    0.00    1.70
   8   3   6    0.00    1.80
  -9  -3  -6   -0.30    0.50
  -9  -3  -6    0.10    0.60
   9   3   6   -0.80    1.60
   6  -4  -6    0.30    0.40
   6  -4  -6    3.00    1.40
  -6   4   6    0.20    0.50
  -6   4   6    1.30    0.40
  -6   4   6    1.10    0.60
   5  -4  -6    3.30    0.70
   5  -4  -6    4.50    1.40
  -5   4   6    2.20    0.70
  -5   4   6    2.10    0.50
  -5   4   6    2.50    0.70
   4  -4  -6   12.50    1.40
  -4   4   6   12.00    1.50
  -4   4   6   12.40    1.30
  -4   4   6   14.20    1.60
   3  -4  -6   71.69    5.30
   3  -4  -6   92.29    5.30
  -3   4   6   86.39    5.50
  -3   4   6   72.09    5.40
  -3   4   6   87.59    5.50
  -3   4   6   76.59    5.30
   2  -4  -6   21.20    1.90
   2  -4  -6   26.60    1.90
  -2   4   6   23.60    2.00
  -2   4   6   23.80    2.00
  -2   4   6   23.50    2.90
  -2   4   6   23.70    1.90
  -2   4   6   25.70    2.10
  -2   4   6   23.70    2.10
   1  -4  -6   10.20    0.80
   1  -4  -6   12.00    1.30
   1  -4  -6   10.20    1.00
   1  -4  -6    8.10    1.00
  -1   4   6    8.40    1.10
  -1   4   6   10.60    1.20
  -1   4   6   10.50    1.40
  -1   4   6    7.70    1.70
  -1   4   6    8.70    1.10
  -1   4   6   10.10    1.60
   0  -4  -6    3.30    0.50
   0  -4  -6    2.30    0.50
   0  -4  -6    2.10    0.50
   0  -4  -6    2.70    0.70
   0   4   6    3.40    0.60
   0   4   6    4.40    0.80
   0   4   6    2.70    1.20
   0   4   6    2.90    0.60
   0   4   6    2.50    1.00
   0   4   6    2.30    1.20
   0   4   6    1.70    0.80
  -1  -4  -6   94.29    5.80
  -1  -4  -6   95.29    5.90
  -1  -4  -6   94.89    6.30
  -1  -4  -6   98.09    5.90
   1   4   6   90.79    7.00
   1   4   6   95.89    6.80
   1   4   6   90.99    6.30
   1   4   6   89.69    5.90
   1   4   6   88.99    6.90
  -2  -4  -6   28.00    2.50
  -2  -4  -6   26.60    2.00
  -2  -4  -6   28.10    2.00
  -2  -4  -6   29.00    1.80
  -2  -4  -6   27.50    2.10
   2   4   6   27.90    2.80
   2   4   6   32.40    3.40
   2   4   6   24.80    3.00
   2   4   6   30.30    2.40
   2   4   6   27.90    1.90
  -3  -4  -6    1.70    0.40
  -3  -4  -6    2.40    0.70
  -3  -4  -6    1.40    0.70
  -3  -4  -6    1.90    0.60
  -3  -4  -6    2.50    0.50
   3   4   6    1.00    1.10
   3   4   6    2.50    1.60
   3   4   6    3.30    1.60
   3   4   6    2.30    1.00
  -4  -4  -6   19.10    1.40
  -4  -4  -6   18.70    1.70
  -4  -4  -6   21.30    1.90
  -4  -4  -6   19.90    1.50
  -4  -4  -6   16.80    2.00
   4   4   6   25.30    4.00
   4   4   6   17.70    2.00
   4   4   6   17.00    2.40
  -5  -4  -6   14.00    1.70
  -5  -4  -6   10.00    1.20
  -5  -4  -6   14.70    1.60
   5   4   6   12.90    3.20
   5   4   6   11.30    1.70
   5   4   6   10.30    2.00
   5   4   6    5.40    2.00
  -6  -4  -6    4.30    0.80
  -6  -4  -6    5.90    1.00
  -6  -4  -6    7.50    1.30
   6   4   6    3.60    1.90
   6   4   6    4.60    1.10
   6   4   6    0.80    1.40
  -7  -4  -6    0.50    0.90
  -7  -4  -6    2.60    0.70
  -7  -4  -6    2.70    0.70
   7   4   6   -0.50    1.30
   7   4   6    0.40    1.80
  -8  -4  -6   -0.10    0.50
  -8  -4  -6    0.00    1.10
   8   4   6   -0.40    1.60
   8   4   6   -0.30    1.70
  -9  -4  -6   -0.20    0.50
   9   4   6    0.40    1.70
   9   4   6   -1.10    1.70
   6  -5  -6    0.20    0.40
   6  -5  -6    0.60    1.10
  -6   5   6   -0.20    0.50
  -6   5   6    0.30    0.50
   5  -5  -6    6.50    1.70
  -5   5   6    3.10    0.60
  -5   5   6    3.60    0.80
  -5   5   6    1.40    0.70
  -4   5   6   53.79    3.70
  -4   5   6   61.29    4.10
  -4   5   6   55.69    3.90
  -4   5   6   49.20    3.80
   3  -5  -6   -0.40    0.80
   3  -5  -6    0.50    0.40
  -3   5   6    0.20    0.40
  -3   5   6   -0.10    0.50
  -3   5   6    0.30    0.50
  -3   5   6   -0.30    0.50
   2  -5  -6   11.80    1.20
  -2   5   6   11.00    2.10
  -2   5   6   12.40    1.40
  -2   5   6   12.40    1.30
  -2   5   6   11.40    1.40
  -2   5   6    9.10    1.20
   1  -5  -6    3.10    0.60
   1  -5  -6    4.10    0.50
   1  -5  -6    3.80    0.90
  -1   5   6    3.20    0.80
  -1   5   6    1.40    0.90
  -1   5   6    3.40    0.70
  -1   5   6    3.00    0.70
  -1   5   6    3.60    0.70
  -1   5   6    2.00    1.30
   0  -5  -6    1.10    0.40
   0  -5  -6    1.60    0.60
   0  -5  -6    1.90    0.40
   0  -5  -6    1.70    0.40
   0   5   6    1.50    0.50
   0   5   6    0.30    0.40
   0   5   6    2.50    1.20
   0   5   6    2.00    1.00
   0   5   6    1.50    0.80
  -1  -5  -6   19.10    1.40
  -1  -5  -6   18.80    1.80
  -1  -5  -6   17.00    1.40
  -1  -5  -6   18.00    1.40
   1   5   6   19.10    1.50
   1   5   6   20.20    2.80
   1   5   6   20.30    2.90
   1   5   6   17.10    1.90
  -2  -5  -6   12.60    1.00
  -2  -5  -6   11.10    1.20
  -2  -5  -6   12.20    1.50
  -2  -5  -6   14.00    1.10
   2   5   6   12.90    1.70
   2   5   6   12.60    1.10
   2   5   6   12.50    2.40
   2   5   6   13.10    2.50
   2   5   6   13.40    2.00
  -3  -5  -6   12.00    1.00
  -3  -5  -6   10.90    1.50
  -3  -5  -6   11.00    0.90
  -3  -5  -6   14.10    1.50
  -3  -5  -6   10.30    1.10
   3   5   6   14.50    1.90
   3   5   6   12.20    2.50
   3   5   6   16.70    3.10
   3   5   6   12.50    1.10
   3   5   6   11.60    2.10
  -4  -5  -6   64.19    4.20
  -4  -5  -6   55.79    3.90
  -4  -5  -6   57.89    3.70
  -4  -5  -6   51.49    4.40
  -4  -5  -6   57.89    3.70
   4   5   6   51.39    5.20
   4   5   6   55.09    5.60
   4   5   6   61.39    4.40
   4   5   6   55.19    4.50
  -5  -5  -6   34.80    2.70
  -5  -5  -6   29.40    2.90
  -5  -5  -6   35.10    2.30
  -5  -5  -6   31.50    2.40
   5   5   6   30.70    2.70
   5   5   6   26.70    2.70
   5   5   6   43.40    4.40
  -6  -5  -6    1.10    0.90
  -6  -5  -6    0.50    0.50
   6   5   6    0.70    1.00
   6   5   6   -0.30    1.40
   6   5   6   -0.20    1.40
  -7  -5  -6    0.30    0.50
  -7  -5  -6    0.00    0.90
   7   5   6    0.40    1.60
   7   5   6   -0.10    1.80
  -8  -5  -6    0.00    1.10
  -8  -5  -6    0.70    0.60
   8   5   6   -0.60    1.50
   8   5   6    0.50    1.80
  -9  -5  -6    4.40    0.90
  -9  -5  -6    6.50    1.50
   9   5   6    0.20    1.80
   9   5   6    2.60    2.20
   5  -6  -6    2.00    1.40
  -5   6   6    1.60    0.50
  -5   6   6    0.50    0.60
  -5   6   6    1.90    0.70
   4  -6  -6   20.00    1.80
  -4   6   6   19.30    1.80
  -4   6   6   16.70    1.80
  -4   6   6   19.00    1.60
  -4   6   6   23.00    2.10
   3  -6  -6   39.50    2.60
  -3   6   6   31.50    2.50
  -3   6   6   34.30    2.70
  -3   6   6   29.70    2.50
  -3   6   6   27.50    2.70
   2  -6  -6    2.20    0.90
   2  -6  -6    0.70    0.50
  -2   6   6    0.90    0.50
  -2   6   6    1.50    0.60
  -2   6   6    0.80    0.50
  -2   6   6    1.20    1.20
  -2   6   6    2.50    0.80
   1  -6  -6   40.30    2.30
   1  -6  -6   31.40    2.40
  -1   6   6   33.90    3.90
  -1   6   6   34.30    2.90
  -1   6   6   32.60    2.60
  -1   6   6   27.90    2.40
  -1   6   6   31.50    2.60
   0  -6  -6    0.60    0.30
   0  -6  -6    0.50    0.40
   0  -6  -6    0.00    0.30
   0   6   6    0.40    0.80
   0   6   6   -0.50    0.90
   0   6   6    0.60    0.50
  -1  -6  -6   -0.20    0.20
  -1  -6  -6    0.40    0.30
  -1  -6  -6    0.10    0.40
   1   6   6   -0.10    0.40
   1   6   6   -0.90    1.00
   1   6   6   -0.30    0.70
   1   6   6   -0.20    1.10
  -2  -6  -6   70.19    5.00
  -2  -6  -6   66.09    4.50
  -2  -6  -6   71.29    4.50
  -2  -6  -6   69.69    4.70
   2   6   6   74.29    5.20
   2   6   6   73.79    4.60
   2   6   6   64.89    5.90
   2   6   6   61.29    5.20
  -3  -6  -6   79.29    5.30
  -3  -6  -6   87.89    5.20
  -3  -6  -6   79.99    5.80
  -3  -6  -6   77.29    5.50
   3   6   6   83.99    7.00
   3   6   6   92.39    6.10
   3   6   6   71.79    6.00
  -4  -6  -6    6.00    1.30
  -4  -6  -6    5.90    1.00
  -4  -6  -6    9.90    1.30
  -4  -6  -6    5.80    0.70
   4   6   6    6.20    1.50
   4   6   6    6.40    2.20
   4   6   6    6.50    1.50
   4   6   6    2.60    1.60
  -5  -6  -6    0.20    0.70
  -5  -6  -6    0.30    0.50
  -5  -6  -6    0.50    0.50
   5   6   6   -0.30    1.20
   5   6   6    0.40    1.40
   5   6   6    0.00    1.20
   5   6   6    0.00    0.80
  -6  -6  -6    6.20    1.10
  -6  -6  -6    7.90    1.40
   6   6   6    6.10    1.50
   6   6   6    4.50    2.80
   6   6   6    6.20    2.20
  -7  -6  -6    5.60    1.30
  -7  -6  -6    4.90    0.90
   7   6   6    6.50    1.40
   7   6   6    3.20    2.00
   7   6   6    4.80    2.60
  -8  -6  -6    1.40    1.10
  -8  -6  -6    0.80    0.60
   8   6   6    0.60    1.70
   8   6   6    2.10    2.40
   5  -7  -6   14.00    2.50
   4  -7  -6    6.20    0.80
  -4   7   6    4.20    0.90
  -4   7   6    6.50    0.80
  -4   7   6    5.00    0.90
   3  -7  -6   20.90    1.70
  -3   7   6   16.40    1.70
  -3   7   6   20.20    1.90
  -3   7   6   19.00    1.80
  -3   7   6   17.50    1.60
   2  -7  -6    0.20    0.70
   2  -7  -6   -0.20    0.40
  -2   7   6   -0.20    0.50
  -2   7   6    0.70    1.20
  -2   7   6   -0.10    0.50
  -2   7   6    0.00    0.50
  -2   7   6   -0.30    0.40
   1  -7  -6    2.90    0.60
   1  -7  -6    6.70    1.20
   1  -7  -6    5.50    0.70
  -1   7   6    3.00    1.00
  -1   7   6    3.60    0.80
  -1   7   6    3.20    0.70
   0  -7  -6   15.60    1.40
   0  -7  -6   14.30    1.30
   0  -7  -6   18.10    1.80
   0   7   6   17.00    2.50
   0   7   6   16.80    1.60
   0   7   6   14.70    1.90
  -1  -7  -6   43.90    3.00
  -1  -7  -6   47.50    3.50
  -1  -7  -6   44.40    3.10
   1   7   6   33.80    3.90
   1   7   6   43.00    3.60
   1   7   6   45.40    4.30
   1   7   6   47.30    3.20
  -2  -7  -6   11.60    1.40
  -2  -7  -6   12.40    1.10
  -2  -7  -6   11.90    1.10
  -2  -7  -6   13.20    1.40
   2   7   6   10.70    1.20
   2   7   6    4.30    1.90
   2   7   6   10.20    1.80
   2   7   6   12.10    2.10
  -3  -7  -6   19.30    1.90
  -3  -7  -6   19.00    2.00
  -3  -7  -6   19.10    1.70
  -3  -7  -6   19.70    1.50
   3   7   6   25.20    3.70
   3   7   6   17.00    2.40
   3   7   6   21.60    2.70
  -4  -7  -6   52.29    3.80
  -4  -7  -6   48.80    3.60
  -4  -7  -6   52.59    3.40
  -4  -7  -6   49.40    4.10
   4   7   6   58.79    4.40
   4   7   6   54.99    5.40
   4   7   6   49.10    4.20
  -5  -7  -6   15.50    1.80
  -5  -7  -6   15.70    1.50
  -5  -7  -6   15.00    1.90
   5   7   6   19.00    2.40
   5   7   6   15.30    2.20
  -6  -7  -6    6.30    1.20
  -6  -7  -6    3.70    0.80
   6   7   6    4.90    2.50
   6   7   6    4.40    2.10
   6   7   6    3.30    1.20
  -7  -7  -6    0.00    0.50
  -7  -7  -6    0.60    1.00
   7   7   6    0.50    1.00
   7   7   6    0.50    2.30
  -8  -7  -6    0.60    0.60
  -8  -7  -6    2.10    1.10
   8   7   6   -0.70    1.80
   8   7   6    2.70    2.40
   4  -8  -6    1.40    0.50
   4  -8  -6    1.00    0.90
  -4   8   6    1.40    0.60
  -4   8   6    1.50    0.70
   3  -8  -6    8.10    1.80
   3  -8  -6    3.20    0.70
  -3   8   6    1.90    0.70
  -3   8   6    1.70    0.70
  -3   8   6    3.30    0.60
  -3   8   6    4.30    0.90
   2  -8  -6    0.50    0.90
   2  -8  -6    0.40    0.60
  -2   8   6    1.20    1.30
  -2   8   6    0.30    0.60
  -2   8   6   -0.30    0.50
  -2   8   6    0.00    0.50
   1  -8  -6   19.00    2.00
   1  -8  -6   13.90    1.20
   1  -8  -6   15.10    1.40
  -1   8   6    7.90    1.90
  -1   8   6   14.00    1.70
  -1   8   6   13.40    1.90
  -1   8   6    9.80    1.50
   0  -8  -6   22.50    1.80
   0  -8  -6   22.80    2.20
   0  -8  -6   24.20    1.80
   0   8   6   23.50    2.00
   0   8   6   27.70    2.90
   0   8   6   26.60    2.50
  -1  -8  -6   38.40    2.70
  -1  -8  -6   35.70    2.60
  -1  -8  -6   40.40    3.10
   1   8   6   32.70    3.20
   1   8   6   29.20    3.60
   1   8   6   38.20    2.80
  -2  -8  -6   54.69    3.90
  -2  -8  -6   44.20    3.40
  -2  -8  -6   46.60    3.30
   2   8   6   48.40    4.30
   2   8   6   58.89    3.60
   2   8   6   51.39    4.10
   2   8   6   49.10    5.00
  -3  -8  -6    9.70    1.30
  -3  -8  -6    9.10    1.20
  -3  -8  -6    7.40    1.00
  -3  -8  -6    8.60    0.90
   3   8   6    7.90    2.40
   3   8   6    7.90    1.80
   3   8   6    5.50    1.40
  -4  -8  -6   -0.10    0.40
  -4  -8  -6    0.50    0.70
  -4  -8  -6    0.30    0.40
  -4  -8  -6    0.20    0.20
   4   8   6   -0.40    1.00
   4   8   6   -0.90    1.60
   4   8   6    0.80    0.90
  -5  -8  -6   -0.10    0.40
  -5  -8  -6   -0.70    0.70
  -5  -8  -6   -0.10    0.40
   5   8   6    0.80    1.10
   5   8   6   -0.80    1.20
   5   8   6    1.10    1.00
  -6  -8  -6    0.00    0.50
  -6  -8  -6   -0.80    0.80
   6   8   6   -0.30    0.90
   6   8   6    2.40    1.80
  -7  -8  -6   -0.30    0.90
  -7  -8  -6   -0.30    0.40
   7   8   6   -0.60    2.30
   7   8   6    0.60    1.40
   7   8   6    0.50    1.00
   3  -9  -6   -0.30    0.70
   3  -9  -6    0.20    0.40
  -3   9   6    0.20    0.60
   2  -9  -6    8.50    0.90
   2  -9  -6    9.40    1.80
   2  -9  -6    6.80    1.00
  -2   9   6    7.00    1.10
  -2   9   6    8.10    1.30
  -2   9   6    4.60    1.00
   1  -9  -6   21.20    2.20
   1  -9  -6   15.90    1.40
   1  -9  -6   15.30    1.50
  -1   9   6   15.00    2.00
  -1   9   6    8.90    1.50
  -1   9   6   14.90    1.80
  -1   9   6    9.10    2.00
   0  -9  -6    4.50    0.80
   0  -9  -6    5.90    1.20
   0  -9  -6    5.00    0.70
   0   9   6    5.80    1.00
   0   9   6    7.70    1.70
   0   9   6    5.20    1.20
  -1  -9  -6    1.00    0.40
  -1  -9  -6    1.10    0.50
  -1  -9  -6    1.30    0.70
   1   9   6    0.50    1.10
   1   9   6    0.90    0.60
   1   9   6    1.10    0.80
  -2  -9  -6    3.00    0.80
  -2  -9  -6    2.70    0.50
  -2  -9  -6    2.70    0.60
   2   9   6    1.80    1.20
   2   9   6    0.50    0.60
   2   9   6    2.50    0.70
   2   9   6    2.90    1.90
  -3  -9  -6    0.30    0.40
  -3  -9  -6    0.40    0.40
  -3  -9  -6    0.10    0.30
   3   9   6   -0.10    0.60
   3   9   6   -0.30    1.40
   3   9   6   -1.10    1.00
  -4  -9  -6   -0.70    0.70
  -4  -9  -6   -0.20    0.40
  -4  -9  -6   -0.20    0.30
   4   9   6    0.20    0.60
   4   9   6    0.70    1.70
   4   9   6    0.10    1.00
  -5  -9  -6   -0.60    0.70
  -5  -9  -6    0.10    0.50
   5   9   6    0.00    0.90
   5   9   6    0.20    1.20
   5   9   6   -1.10    1.20
  -6  -9  -6    1.60    0.60
  -6  -9  -6    1.50    0.90
   6   9   6    2.50    1.90
   6   9   6    1.20    0.90
  -7  -9  -6    0.90    1.00
  -7  -9  -6    0.60    0.50
   7   9   6    2.50    1.20
   7   9   6    0.60    1.70
  -2  10   6   -0.60    0.60
   1 -10  -6    0.40    0.40
   1 -10  -6   -0.70    0.50
   1 -10  -6   -0.10    0.30
  -1  10   6    0.10    0.70
  -1  10   6    0.30    1.10
  -1  10   6    0.20    0.60
  -1  10   6   -0.30    0.50
   0 -10  -6    1.50    0.50
   0 -10  -6    2.60    0.80
   0 -10  -6    1.50    0.50
   0  10   6    3.10    0.80
   0  10   6    1.60    1.20
   0  10   6    2.20    1.00
  -1 -10  -6    0.70    0.40
  -1 -10  -6    0.30    0.40
  -1 -10  -6    0.60    0.40
   1  10   6    1.00    1.10
   1  10   6    1.60    0.90
   1  10   6    0.40    0.60
  -2 -10  -6    2.80    0.80
  -2 -10  -6    2.50    0.50
  -2 -10  -6    1.90    0.50
   2  10   6    2.50    1.30
   2  10   6    0.10    0.60
   2  10   6    2.50    0.70
  -3 -10  -6    0.50    0.50
  -3 -10  -6    0.60    0.40
  -3 -10  -6    1.20    0.40
   3  10   6    0.20    0.60
   3  10   6   -0.70    1.40
   3  10   6    1.90    1.20
   3  10   6    1.70    0.70
  -4 -10  -6    3.40    0.60
   4  10   6    1.70    0.80
   4  10   6    2.30    2.10
   4  10   6    4.10    1.30
  -5 -10  -6    0.20    0.40
  -5 -10  -6    0.00    0.80
   5  10   6   -1.00    1.10
   5  10   6    0.20    0.70
   5  10   6    1.80    2.00
  -1 -11  -6    3.80    0.60
  -1 -11  -6    2.90    0.90
   1  11   6    2.80    1.20
   1  11   6    1.80    0.90
   1  11   6    4.90    0.90
  -2 -11  -6    3.20    0.60
  -2 -11  -6    5.00    0.70
  -2 -11  -6    2.30    0.80
   2  11   6    0.80    0.60
   2  11   6    3.10    1.30
   2  11   6    6.10    1.00
  -3 -11  -6    0.40    0.40
  -3 -11  -6    0.70    0.30
   3  11   6    0.30    0.50
   3  11   6    0.50    0.70
   3  11   6    0.40    0.90
   3   7  -7    0.40    0.40
   3   7  -7   -0.80    1.00
  -3  -7   7    0.30    0.50
  -3  -7   7   -0.20    0.50
  -3  -7   7    0.70    0.50
   2   7  -7    3.50    0.70
   2   7  -7    4.50    1.50
   2   7  -7    3.50    0.90
  -2  -7   7    4.40    0.90
  -2  -7   7    3.20    0.70
   1   7  -7   -0.10    0.40
   1   7  -7    0.00    0.60
  -1  -7   7    0.20    0.40
  -1  -7   7    0.10    0.50
  -1  -7   7    0.20    0.50
   0   7  -7    0.60    0.60
   0   7  -7   -0.20    0.70
   0  -7   7    0.30    0.40
   0  -7   7    0.60    0.60
   0  -7   7    0.30    0.60
  -1   7  -7   -0.40    0.60
  -1   7  -7   -0.20    0.60
  -1   7  -7    0.20    0.50
   1  -7   7   -0.30    0.40
   1  -7   7   -0.20    0.50
   1  -7   7    0.20    0.50
  -2   7  -7    6.50    1.10
  -2   7  -7    6.90    1.00
   2  -7   7    7.80    1.30
   2  -7   7    5.40    1.10
   2  -7   7    7.00    0.80
  -3   7  -7    3.20    0.70
  -3   7  -7    5.00    1.00
  -3   7  -7    2.90    0.90
   3  -7   7    3.60    0.60
   3  -7   7    3.20    1.00
   3  -7   7    1.60    0.70
   4   6  -7    0.40    0.40
   4   6  -7    0.00    1.00
  -4  -6   7   -0.30    0.60
  -4  -6   7   -0.40    0.40
   3   6  -7    0.00    0.60
   3   6  -7    2.00    1.20
   3   6  -7    1.10    0.40
  -3  -6   7    1.40    0.50
  -3  -6   7    1.30    0.60
  -3  -6   7    1.00    0.50
   2   6  -7    0.90    1.10
   2   6  -7   -0.10    0.40
   2   6  -7    0.60    0.60
  -2  -6   7    0.20    0.50
  -2  -6   7    0.90    0.60
  -2  -6   7    0.70    0.50
   1   6  -7    0.10    1.00
   1   6  -7    0.20    0.40
   1   6  -7    0.10    0.60
  -1  -6   7   -0.40    0.40
  -1  -6   7    0.30    0.50
  -1  -6   7    0.20    0.50
   0   6  -7    0.20    0.60
   0   6  -7    0.00    0.50
   0  -6   7    0.00    0.50
   0  -6   7   -0.40    0.40
   0  -6   7   -0.70    0.50
  -1   6  -7    2.40    0.70
  -1   6  -7    0.50    0.60
   1  -6   7    1.70    0.70
   1  -6   7    1.10    0.80
   1  -6   7    3.10    0.60
  -2   6  -7   -0.10    0.50
  -2   6  -7    1.40    0.50
   2  -6   7   -0.30    0.40
   2  -6   7   -0.20    0.70
   2  -6   7    0.20    0.60
  -3   6  -7    6.70    1.00
  -3   6  -7    9.90    1.30
  -3   6  -7    8.70    1.40
   3  -6   7    9.70    1.50
   3  -6   7    8.50    1.30
  -4   6  -7    2.20    0.70
  -4   6  -7    2.70    0.80
  -4   6  -7    4.30    1.10
   4  -6   7    3.00    0.80
   4  -6   7    5.20    1.20
  -5   6  -7    1.00    0.50
  -5   6  -7    0.20    0.60
   5   5  -7    0.70    0.40
   5   5  -7   -0.40    0.90
  -5  -5   7    0.70    0.70
  -5  -5   7    0.70    0.50
   4   5  -7    0.80    1.00
   4   5  -7   -0.30    0.30
  -4  -5   7    0.20    0.60
  -4  -5   7    0.00    0.50
   3   5  -7    0.20    1.00
   3   5  -7   -0.50    0.30
   3   5  -7   -0.40    0.50
  -3  -5   7    0.50    0.50
  -3  -5   7    0.40    0.50
  -3  -5   7    0.40    0.50
   2   5  -7    1.70    1.10
   2   5  -7    1.50    0.70
   2   5  -7    1.90    0.50
  -2  -5   7    2.30    0.60
  -2  -5   7    2.10    0.60
  -2  -5   7    0.80    0.50
   1   5  -7    2.50    0.80
   1   5  -7    2.40    0.60
   1   5  -7    2.20    1.10
  -1  -5   7    2.60    0.70
  -1  -5   7    1.90    0.70
  -1  -5   7    2.50    0.60
   0   5  -7   25.80    2.00
   0   5  -7   25.60    2.20
   0  -5   7   26.20    1.90
   0  -5   7   27.00    2.20
   0  -5   7   23.10    2.20
  -1   5  -7    8.00    1.10
  -1   5  -7    7.30    1.30
   1  -5   7    9.50    1.30
   1  -5   7   10.70    1.10
   1  -5   7    9.30    1.60
  -2   5  -7    1.60    0.70
  -2   5  -7    2.50    0.70
  -2   5  -7    2.80    0.80
   2  -5   7    3.00    0.90
   2  -5   7    4.40    1.20
  -3   5  -7   -0.10    0.50
  -3   5  -7   -0.60    0.50
  -3   5  -7   -0.10    0.60
  -3   5  -7   -0.10    0.60
   3  -5   7   -0.20    0.70
   3  -5   7    0.60    0.80
  -4   5  -7    0.10    0.50
  -4   5  -7   -0.30    0.50
  -4   5  -7   -0.60    0.60
  -4   5  -7   -0.40    0.70
   4  -5   7   -0.20    0.70
   4  -5   7    0.00    0.70
  -5   5  -7   -0.40    0.60
  -5   5  -7    0.10    0.50
  -5   5  -7    0.90    0.60
   5  -5   7    0.20    0.80
   5  -5   7   -0.10    1.30
   5  -5   7   -0.20    0.70
  -6   5  -7   -0.40    0.60
  -6   5  -7    0.30    0.60
  -6   5  -7    0.10    0.60
   6  -5   7   -0.60    0.70
   6  -5   7    0.50    1.50
  -6  -4   7    0.20    0.40
   5   4  -7   -0.30    0.80
   5   4  -7    0.00    0.30
  -5  -4   7    0.00    0.40
   4   4  -7    1.10    0.40
  -4  -4   7    0.60    0.50
  -4  -4   7    0.30    0.60
   3   4  -7    5.60    0.90
   3   4  -7    5.10    0.70
  -3  -4   7    4.50    0.80
  -3  -4   7    3.70    0.70
  -3  -4   7    3.50    0.70
   2   4  -7   19.90    1.50
   2   4  -7   15.50    1.60
  -2  -4   7   16.40    1.50
  -2  -4   7   18.40    1.70
  -2  -4   7   15.90    1.50
   1   4  -7   16.00    1.40
   1   4  -7   17.70    1.60
  -1  -4   7   15.80    1.40
  -1  -4   7   18.60    1.70
  -1  -4   7   13.70    1.50
  -1  -4   7   17.00    1.50
   0   4  -7    1.80    1.00
   0   4  -7    1.40    0.60
   0   4  -7    0.40    0.50
   0   4  -7    1.50    0.70
   0  -4   7    2.00    0.70
   0  -4   7    0.40    0.70
   0  -4   7    0.40    0.70
   0  -4   7    1.40    0.50
  -1   4  -7   42.50    3.10
  -1   4  -7   45.50    3.10
  -1   4  -7   38.90    3.30
   1  -4   7   46.60    3.50
   1  -4   7   45.00    3.60
   1  -4   7   47.20    3.40
  -2   4  -7    5.60    0.90
  -2   4  -7    5.20    1.00
  -2   4  -7    4.60    0.80
   2  -4   7    5.20    1.00
   2  -4   7    5.60    1.40
   2  -4   7    4.40    1.10
  -3   4  -7    8.00    1.30
  -3   4  -7    7.40    1.10
  -3   4  -7    6.70    1.10
  -3   4  -7    7.70    1.00
   3  -4   7    7.20    1.30
   3  -4   7    4.00    1.20
  -4   4  -7   -0.20    0.50
  -4   4  -7    0.30    0.60
  -4   4  -7    1.40    0.60
  -4   4  -7    0.70    0.70
   4  -4   7    0.30    0.80
   4  -4   7    0.00    0.80
   4  -4   7    0.10    1.20
  -5   4  -7    1.40    0.80
  -5   4  -7    1.10    0.60
  -5   4  -7    1.90    0.80
  -5   4  -7    2.10    0.80
   5  -4   7    1.80    1.00
   5  -4   7    0.80    1.00
   5  -4   7    1.40    1.60
  -6   4  -7    0.30    0.50
  -6   4  -7    0.20    0.70
  -6   4  -7   -0.40    0.40
   6  -4   7    0.40    1.00
   6  -4   7    0.80    1.60
   6  -4   7    0.10    0.80
  -7   4  -7   -0.10    0.60
  -7   4  -7   -0.70    0.60
  -7   4  -7    0.30    0.60
   7  -4   7   -0.40    1.70
   6   3  -7   -0.30    0.30
  -6  -3   7   -0.10    0.30
  -6  -3   7    0.40    0.50
   4   3  -7   13.40    1.20
  -4  -3   7   11.90    1.30
  -4  -3   7   12.70    1.30
   3   3  -7   14.00    1.10
   3   3  -7   14.50    1.30
  -3  -3   7   11.40    1.20
  -3  -3   7    9.60    1.20
  -3  -3   7   13.50    1.30
   2   3  -7   -0.10    0.40
   2   3  -7   -0.70    0.40
  -2  -3   7    0.00    0.40
  -2  -3   7    0.30    0.50
  -2  -3   7    0.20    0.40
  -2  -3   7    0.10    0.50
   1   3  -7  106.19    7.00
   1   3  -7  105.49    6.80
  -1  -3   7  101.19    7.00
  -1  -3   7   99.99    7.20
  -1  -3   7  107.49    6.90
  -1  -3   7  112.29    6.80
  -1  -3   7  121.99    7.10
   0   3  -7  248.98   16.10
   0   3  -7  268.17   16.10
   0   3  -7  262.97   16.30
   0  -3   7  266.07   16.00
   0  -3   7  246.98   16.40
   0  -3   7  268.47   16.50
   0  -3   7  309.07   16.70
   0  -3   7  235.58   16.10
  -1   3  -7    0.30    0.40
  -1   3  -7    0.30    0.50
  -1   3  -7    1.00    0.60
   1  -3   7    0.60    0.70
   1  -3   7   -0.40    0.80
   1  -3   7    0.70    0.80
  -2   3  -7   10.90    1.40
  -2   3  -7   13.30    1.10
  -2   3  -7    8.80    1.20
   2  -3   7    9.80    1.80
   2  -3   7   11.30    1.40
   2  -3   7    6.40    1.40
  -3   3  -7   14.70    1.40
  -3   3  -7   12.60    1.50
  -3   3  -7   12.90    1.40
  -3   3  -7   13.90    1.60
   3  -3   7   14.40    1.90
   3  -3   7   12.40    2.10
   3  -3   7   14.30    1.50
  -4   3  -7    5.70    0.80
  -4   3  -7    4.00    1.00
  -4   3  -7    4.60    1.00
   4  -3   7    3.80    1.20
   4  -3   7    3.20    1.30
  -5   3  -7    2.20    0.80
  -5   3  -7    2.40    0.80
  -5   3  -7    2.20    0.80
  -5   3  -7    1.60    0.60
   5  -3   7    1.30    1.00
   5  -3   7    1.90    1.50
   5  -3   7    2.70    1.30
  -6   3  -7    0.80    0.60
  -6   3  -7    2.00    0.70
  -6   3  -7    1.40    0.70
   6  -3   7    0.50    0.90
   6  -3   7    0.50    1.10
   6  -3   7    2.40    1.70
  -7   3  -7    0.20    0.60
  -7   3  -7    0.30    0.60
  -7   3  -7    0.00    0.50
   7  -3   7   -0.20    1.80
   7  -3   7   -0.40    1.00
   6   2  -7    1.80    0.50
  -6  -2   7    1.00    0.40
  -6  -2   7    1.60    0.60
   5   2  -7    2.40    0.60
  -5  -2   7    3.10    0.70
  -5  -2   7    1.80    0.60
   4   2  -7    6.30    0.80
  -4  -2   7    5.40    0.90
  -4  -2   7    5.90    0.90
   3   2  -7   46.20    3.30
   3   2  -7   50.09    3.30
  -3  -2   7   48.80    3.30
  -3  -2   7   49.30    3.30
  -3  -2   7   52.29    3.40
  -3  -2   7   45.70    3.40
   2   2  -7  233.58   14.40
   2   2  -7  230.48   14.30
  -2  -2   7  230.78   14.40
  -2  -2   7  244.38   14.50
  -2  -2   7  232.78   14.40
  -2  -2   7  235.08   14.70
  -2  -2   7  230.98   14.30
  -2  -2   7  233.48   14.40
   1   2  -7   15.80    1.40
   1   2  -7   14.40    1.30
  -1  -2   7   17.60    1.70
  -1  -2   7   15.30    1.60
  -1  -2   7   16.10    1.30
  -1  -2   7   17.60    1.60
  -1  -2   7   16.20    1.40
   0   2  -7   32.80    2.40
   0   2  -7   29.80    2.20
   0  -2   7   33.90    2.70
   0  -2   7   29.50    2.80
   0  -2   7   36.50    2.80
   0  -2   7   30.50    2.30
  -1   2  -7    4.60    0.80
  -1   2  -7    3.40    0.60
  -1   2  -7    3.30    0.60
   1  -2   7    3.90    1.20
   1  -2   7    3.00    0.60
   1  -2   7    5.50    1.10
   1  -2   7    3.90    1.10
  -2   2  -7   19.60    1.80
  -2   2  -7   17.80    1.60
  -2   2  -7   17.80    1.50
   2  -2   7   18.10    2.40
   2  -2   7   22.50    2.00
   2  -2   7   20.40    2.40
  -3   2  -7    3.20    0.60
  -3   2  -7    2.80    0.80
  -3   2  -7    2.90    0.70
  -3   2  -7    3.20    0.70
   3  -2   7    3.50    1.50
   3  -2   7    2.50    1.20
   3  -2   7    2.90    1.00
  -4   2  -7    2.60    0.50
  -4   2  -7    3.20    0.80
  -4   2  -7    2.10    0.70
  -4   2  -7    2.00    0.70
   4  -2   7    2.10    1.00
   4  -2   7    1.20    1.00
   4  -2   7    1.60    1.30
  -5   2  -7    9.90    1.50
  -5   2  -7   19.50    1.50
  -5   2  -7   17.40    1.60
  -5   2  -7   16.50    1.60
   5  -2   7   16.30    2.70
   5  -2   7   15.40    2.20
  -6   2  -7   -0.10    0.60
  -6   2  -7    0.60    0.50
  -6   2  -7   -0.20    0.40
   6  -2   7    0.90    1.00
   6  -2   7    1.00    1.30
  -7   2  -7    0.80    0.70
  -7   2  -7    0.80    0.60
   7  -2   7    0.40    1.60
   7  -2   7    0.60    1.30
  -8   2  -7    0.00    0.50
  -8   2  -7   -0.30    0.70
   8  -2   7    1.10    1.60
   8  -2   7   -0.10    1.20
   6   1  -7    3.90    0.70
  -6  -1   7    2.80    0.60
  -6  -1   7    3.80    0.80
   5   1  -7   12.30    1.20
  -5  -1   7   14.40    1.40
  -5  -1   7   12.60    1.30
   4   1  -7   11.10    1.20
  -4  -1   7   12.50    1.30
  -4  -1   7   11.80    1.30
   3   1  -7   28.60    2.20
   3   1  -7   30.60    2.30
  -3  -1   7   34.40    2.40
  -3  -1   7   33.50    2.40
  -3  -1   7   28.40    2.30
   2   1  -7   35.70    2.40
   2   1  -7   35.40    2.40
  -2  -1   7   34.30    2.50
  -2  -1   7   36.30    2.40
  -2  -1   7   34.20    2.50
  -2  -1   7   27.40    2.60
  -2  -1   7   35.80    2.50
  -2  -1   7   38.60    2.60
   1   1  -7    2.50    0.50
   1   1  -7    2.30    0.50
  -1  -1   7    2.30    0.40
  -1  -1   7    2.60    0.90
  -1  -1   7    2.80    0.60
  -1  -1   7    2.70    0.60
  -1  -1   7    3.00    0.70
  -1  -1   7    2.80    0.80
   0   1  -7    5.10    0.60
   0   1  -7    4.30    0.70
   0  -1   7    6.10    0.80
   0  -1   7    5.00    1.00
   0  -1   7    6.10    1.30
   0  -1   7    6.20    1.20
  -1   1  -7   26.70    2.10
  -1   1  -7   24.60    1.90
   1  -1   7   23.80    2.60
   1  -1   7   29.40    2.80
   1  -1   7   25.20    1.90
   1  -1   7   28.10    2.40
  -2   1  -7   12.30    1.10
  -2   1  -7   15.00    1.30
  -2   1  -7   13.30    1.30
   2  -1   7   14.80    2.40
   2  -1   7   14.80    1.80
   2  -1   7   13.10    2.10
  -3   1  -7  118.79    7.50
  -3   1  -7  121.69    7.70
  -3   1  -7  116.79    7.70
   3  -1   7  122.29    8.30
   3  -1   7  119.29    8.40
   3  -1   7  118.69    8.90
  -4   1  -7   29.10    2.20
  -4   1  -7   26.90    2.10
  -4   1  -7   30.20    2.20
  -4   1  -7   30.10    2.30
   4  -1   7   27.50    2.90
   4  -1   7   28.90    3.50
   4  -1   7   28.40    2.90
  -5   1  -7    0.20    0.50
  -5   1  -7    0.50    0.40
  -5   1  -7    0.10    0.50
  -5   1  -7   -0.60    0.40
   5  -1   7    0.50    1.20
   5  -1   7    0.60    1.00
   5  -1   7    0.00    1.10
  -6   1  -7    0.70    0.70
  -6   1  -7    1.00    0.60
  -6   1  -7    0.50    0.50
   6  -1   7   -0.30    1.10
   6  -1   7    0.80    1.40
  -7   1  -7    0.00    0.50
  -7   1  -7    0.20    0.60
   7  -1   7    1.40    1.50
  -8   1  -7   -0.10    0.50
   8  -1   7    0.00    1.50
   8  -1   7    0.20    1.30
   7   0  -7   -0.60    0.40
  -7   0   7   -0.10    0.40
   6   0  -7    1.70    0.60
  -6   0   7    2.80    0.70
  -6   0   7    1.00    0.50
   5   0  -7    6.60    0.90
  -5   0   7    5.60    1.00
  -5   0   7    5.30    0.90
   4   0  -7    4.40    0.80
  -4   0   7    4.00    0.80
  -4   0   7    4.00    0.80
   3   0  -7    2.10    0.60
   3   0  -7    3.20    0.60
  -3   0   7    1.50    0.60
  -3   0   7    2.10    0.60
  -3   0   7    2.20    0.70
   2   0  -7    1.90    0.50
   2   0  -7    1.90    0.50
  -2   0   7    1.80    0.40
  -2   0   7    3.20    0.70
  -2   0   7    2.60    0.50
  -2   0   7    3.10    0.70
  -2   0   7    2.70    0.80
  -2   0   7    2.70    0.70
   1   0  -7    8.70    0.90
   1   0  -7    7.70    0.90
   1   0  -7    8.00    1.00
  -1   0   7   10.90    1.10
  -1   0   7    8.60    1.10
  -1   0   7    8.20    1.00
  -1   0   7    9.90    1.50
  -1   0   7    8.90    1.10
  -1   0   7    9.70    0.80
   0   0  -7   34.80    3.00
   0   0  -7   39.10    2.70
   0   0  -7   39.40    2.80
   0   0   7   46.80    3.30
   0   0   7   36.10    3.50
   0   0   7   42.80    2.80
   0   0   7   38.90    2.70
   0   0   7   41.00    3.20
  -1   0  -7   15.30    1.70
  -1   0  -7   17.50    1.30
  -1   0  -7   17.00    1.50
   1   0   7   19.20    1.40
   1   0   7   22.70    2.20
   1   0   7   18.00    2.30
   1   0   7   17.40    2.40
  -2   0  -7  117.89    7.80
  -2   0  -7  119.69    7.70
  -2   0  -7  128.19    7.80
   2   0   7  128.69    7.70
   2   0   7  127.39    8.60
   2   0   7  127.39    9.00
   2   0   7  119.79    8.50
  -3   0  -7    2.50    0.50
  -3   0  -7    3.50    0.60
  -3   0  -7    2.70    0.60
  -3   0  -7    3.50    0.70
   3   0   7    2.80    1.20
   3   0   7    5.80    1.60
   3   0   7    2.00    1.20
  -4   0  -7   41.60    2.90
  -4   0  -7   39.30    2.70
  -4   0  -7   39.30    2.80
  -4   0  -7   39.00    2.80
  -4   0  -7   40.90    2.80
   4   0   7   35.60    3.60
   4   0   7   38.70    3.60
   4   0   7   38.20    4.20
  -5   0  -7   12.10    1.40
  -5   0  -7    9.00    1.30
  -5   0  -7   11.10    1.10
  -5   0  -7   12.40    1.10
  -5   0  -7   11.40    1.20
   5   0   7    9.20    2.30
   5   0   7   10.80    2.10
   5   0   7   13.10    2.00
  -6   0  -7    9.30    1.00
  -6   0  -7    4.30    1.00
  -6   0  -7    6.50    1.10
  -6   0  -7    8.20    1.10
   6   0   7    8.30    1.70
   6   0   7    4.70    2.00
   6   0   7    4.60    1.70
  -7   0  -7    1.70    0.70
  -7   0  -7    1.40    0.60
  -7   0  -7    1.70    1.30
   7   0   7    0.10    1.40
  -8   0  -7    0.80    0.60
   8   0   7    0.50    1.60
   7  -1  -7    0.70    0.50
  -7   1   7    0.60    0.40
  -7   1   7    1.50    0.60
   6  -1  -7    0.90    0.50
  -6   1   7    0.60    0.60
  -6   1   7    1.00    0.70
  -6   1   7    0.60    0.50
   5  -1  -7    7.70    1.00
  -5   1   7    9.50    1.10
  -5   1   7    8.90    1.20
  -4   1   7    5.00    0.80
  -4   1   7    7.60    1.00
   3  -1  -7   30.50    2.20
   3  -1  -7   30.60    2.10
  -3   1   7   29.90    2.20
  -3   1   7   25.60    2.20
  -3   1   7   30.00    2.30
   2  -1  -7   35.50    2.50
   2  -1  -7   29.30    2.30
   2  -1  -7   30.50    2.20
  -2   1   7   27.30    2.30
  -2   1   7   29.70    2.60
  -2   1   7   34.20    2.40
  -2   1   7   30.00    2.40
   1  -1  -7    0.00    0.30
   1  -1  -7    0.40    0.30
   1  -1  -7   -0.20    0.30
  -1   1   7    0.20    0.50
  -1   1   7    0.00    0.40
  -1   1   7    0.00    0.40
  -1   1   7    0.10    0.40
  -1   1   7   -0.70    0.70
   0  -1  -7   22.50    1.80
   0  -1  -7   22.60    2.00
   0  -1  -7   21.80    1.70
   0   1   7   22.70    2.90
   0   1   7   21.50    2.20
   0   1   7   24.90    1.80
   0   1   7   25.70    1.90
   0   1   7   25.80    2.00
   0   1   7   27.40    2.40
  -1  -1  -7    2.30    0.70
  -1  -1  -7    2.20    0.50
  -1  -1  -7    2.50    0.40
  -1  -1  -7    2.00    0.40
   1   1   7    2.30    1.10
   1   1   7    2.80    0.40
   1   1   7    1.80    0.60
   1   1   7    2.10    0.50
   1   1   7    2.20    1.10
   1   1   7    1.60    1.10
  -2  -1  -7   74.99    5.20
  -2  -1  -7   81.09    5.00
  -2  -1  -7   77.49    5.10
  -2  -1  -7   70.89    5.70
   2   1   7   85.69    5.20
   2   1   7   80.79    6.10
   2   1   7   84.29    6.20
   2   1   7   86.79    5.10
   2   1   7   87.69    6.40
  -3  -1  -7   42.80    3.00
  -3  -1  -7   45.40    2.90
  -3  -1  -7   43.40    3.00
  -3  -1  -7   47.20    3.00
   3   1   7   43.80    3.00
   3   1   7   41.60    4.30
   3   1   7   45.30    2.90
   3   1   7   39.90    4.00
   3   1   7   41.50    3.80
  -4  -1  -7   20.50    1.70
  -4  -1  -7   22.90    1.70
  -4  -1  -7   23.00    1.70
  -4  -1  -7   19.80    1.50
  -4  -1  -7   18.90    1.70
   4   1   7   20.70    2.80
   4   1   7   19.10    3.30
   4   1   7   19.70    3.00
  -5  -1  -7    3.50    0.70
  -5  -1  -7    4.50    0.80
  -5  -1  -7    3.80    0.60
  -5  -1  -7    3.40    0.60
  -5  -1  -7    2.90    0.70
   5   1   7    5.10    1.70
   5   1   7    2.30    1.30
   5   1   7    3.30    1.80
  -6  -1  -7    4.30    0.90
  -6  -1  -7    8.00    1.10
   6   1   7    6.60    1.90
   6   1   7    3.20    1.90
  -7  -1  -7    4.00    0.80
  -7  -1  -7    2.20    0.70
   7   1   7    1.30    1.70
   7   1   7    2.20    1.60
  -8  -1  -7    4.60    0.90
  -8  -1  -7    6.60    1.00
   8   1   7    2.40    1.90
  -9  -1  -7   -0.30    0.50
  -9  -1  -7    0.30    0.50
   9   1   7    0.70    1.70
   6  -2  -7    0.10    0.40
  -6   2   7    0.20    0.60
  -6   2   7   -0.10    0.60
  -6   2   7    0.50    0.40
   5  -2  -7    2.80    0.70
  -5   2   7    3.80    0.70
  -5   2   7    3.50    0.90
  -5   2   7    2.80    0.80
   4  -2  -7   -0.50    0.50
  -4   2   7    1.00    0.60
  -4   2   7    0.10    0.50
  -4   2   7    1.80    0.80
   3  -2  -7    0.10    0.60
   3  -2  -7    0.40    0.40
   3  -2  -7    0.70    0.50
  -3   2   7   -0.10    0.60
  -3   2   7    0.60    0.50
  -3   2   7    0.90    0.50
  -3   2   7    0.10    0.50
   2  -2  -7    0.10    0.40
   2  -2  -7    0.40    0.40
   2  -2  -7   -0.30    0.30
  -2   2   7    0.00    0.80
  -2   2   7    0.30    0.50
  -2   2   7   -0.30    0.40
  -2   2   7    0.30    0.40
  -2   2   7   -0.30    0.40
  -2   2   7    0.70    0.50
   1  -2  -7    6.00    0.80
   1  -2  -7    7.00    0.80
   1  -2  -7    7.80    1.00
  -1   2   7    8.50    1.30
  -1   2   7    7.40    0.90
  -1   2   7    7.90    1.00
  -1   2   7    6.70    1.50
  -1   2   7    9.10    1.10
   0  -2  -7   51.19    3.50
   0  -2  -7   54.99    3.60
   0  -2  -7   55.39    3.90
   0   2   7   54.29    3.60
   0   2   7   55.79    4.30
   0   2   7   49.80    4.40
   0   2   7   47.10    4.00
   0   2   7   52.79    3.70
   0   2   7   57.69    3.60
  -1  -2  -7    0.40    0.20
  -1  -2  -7    0.00    0.30
  -1  -2  -7    0.20    0.30
  -1  -2  -7    0.20    0.40
   1   2   7   -0.10    0.80
   1   2   7    0.40    1.00
   1   2   7    0.70    0.40
   1   2   7   -0.20    0.40
   1   2   7    0.30    0.90
   1   2   7    0.50    0.30
  -2  -2  -7   16.00    1.80
  -2  -2  -7   16.60    1.20
  -2  -2  -7   16.10    1.40
  -2  -2  -7   15.90    1.40
   2   2   7   19.20    2.80
   2   2   7   15.50    1.50
   2   2   7   15.00    2.40
   2   2   7   16.10    2.50
   2   2   7   17.90    1.50
  -3  -2  -7    2.10    0.80
  -3  -2  -7    2.40    0.40
  -3  -2  -7    2.30    0.50
  -3  -2  -7    2.60    0.60
  -3  -2  -7    2.30    0.50
   3   2   7    1.40    0.60
   3   2   7    1.90    1.20
   3   2   7    1.50    1.30
   3   2   7    2.70    1.40
  -4  -2  -7    0.40    0.30
  -4  -2  -7    1.40    0.50
  -4  -2  -7    0.00    0.40
  -4  -2  -7    0.30    0.40
  -4  -2  -7    1.70    0.50
   4   2   7    0.70    1.10
   4   2   7   -0.50    1.20
   4   2   7    0.60    0.60
   4   2   7    0.60    1.20
  -5  -2  -7   25.70    2.20
  -5  -2  -7   27.20    2.20
  -5  -2  -7   35.50    2.20
   5   2   7   29.30    3.90
   5   2   7   26.30    3.10
   5   2   7   28.00    3.40
  -6  -2  -7   13.00    1.30
   6   2   7   11.20    2.50
   6   2   7   11.00    2.60
  -7  -2  -7   -0.20    0.40
  -7  -2  -7    0.00    0.50
   7   2   7   -0.70    1.30
   7   2   7   -0.10    1.50
  -8  -2  -7    1.40    0.60
   8   2   7    1.60    1.70
  -9  -2  -7    0.50    0.60
  -9  -2  -7    1.30    0.60
   9   2   7    0.10    1.50
   6  -3  -7   -0.20    0.40
  -6   3   7    0.70    0.40
  -6   3   7    0.30    0.50
  -6   3   7    1.00    0.60
   5  -3  -7   23.90    2.50
  -5   3   7   16.10    1.70
  -5   3   7   17.70    1.70
  -5   3   7   16.40    1.50
   4  -3  -7    6.10    1.30
   4  -3  -7    2.60    0.80
  -4   3   7    3.90    0.80
  -4   3   7    5.10    1.00
  -4   3   7    3.70    0.70
   3  -3  -7    8.80    1.20
   3  -3  -7   10.00    1.10
  -3   3   7    7.60    1.10
  -3   3   7    9.10    1.20
  -3   3   7    9.40    1.30
  -3   3   7    9.30    1.30
   2  -3  -7    4.90    1.00
   2  -3  -7    2.50    0.60
   2  -3  -7    4.20    0.80
  -2   3   7    3.20    0.70
  -2   3   7    3.30    0.70
  -2   3   7    3.80    0.70
  -2   3   7    4.00    0.80
  -2   3   7    1.10    1.00
  -2   3   7    3.40    0.80
   1  -3  -7   13.60    1.20
   1  -3  -7   16.30    1.50
   1  -3  -7   15.10    1.20
  -1   3   7   12.80    1.40
  -1   3   7   14.90    2.10
  -1   3   7   13.50    1.30
  -1   3   7   15.10    1.30
  -1   3   7   12.00    1.60
  -1   3   7   12.30    1.30
   0  -3  -7   29.00    1.80
   0  -3  -7   20.20    1.70
   0  -3  -7   22.70    2.00
   0  -3  -7   19.90    1.60
   0   3   7   19.30    2.20
   0   3   7   22.10    2.90
   0   3   7   21.30    1.80
   0   3   7   23.30    2.50
   0   3   7   25.30    2.00
   0   3   7   22.40    1.70
  -1  -3  -7    2.00    0.50
  -1  -3  -7    2.00    0.50
  -1  -3  -7    1.30    0.60
  -1  -3  -7    2.30    0.40
   1   3   7    2.90    0.80
   1   3   7    2.20    0.70
   1   3   7    2.60    0.50
   1   3   7    2.20    1.20
   1   3   7    1.90    1.10
   1   3   7    3.90    1.40
  -2  -3  -7   14.50    1.00
  -2  -3  -7   13.40    1.60
  -2  -3  -7   14.10    1.20
  -2  -3  -7   15.50    1.30
   2   3   7   14.00    1.50
   2   3   7   16.10    1.20
   2   3   7   15.50    2.30
   2   3   7   16.90    2.70
   2   3   7   13.10    2.30
  -3  -3  -7   80.09    5.90
  -3  -3  -7   79.49    5.00
  -3  -3  -7   77.09    5.10
  -3  -3  -7   84.49    5.20
  -3  -3  -7   84.29    5.30
   3   3   7   73.79    6.60
   3   3   7   78.89    6.50
   3   3   7   82.79    6.10
   3   3   7   87.09    5.50
  -4  -3  -7   41.00    2.70
  -4  -3  -7   34.20    3.30
  -4  -3  -7   38.70    2.60
  -4  -3  -7   37.90    2.80
   4   3   7   37.50    3.70
   4   3   7   40.00    4.10
   4   3   7   40.80    3.00
   4   3   7   40.30    4.50
  -5  -3  -7    0.60    0.40
  -5  -3  -7    0.10    0.40
   5   3   7    1.20    1.40
   5   3   7    1.10    1.70
   5   3   7    0.60    1.20
   5   3   7    0.80    0.80
  -6  -3  -7   11.10    1.40
   6   3   7   11.40    2.70
   6   3   7   12.20    3.10
  -7  -3  -7    3.60    0.80
  -7  -3  -7    6.90    1.10
   7   3   7    5.20    2.10
   7   3   7    5.30    2.30
  -8  -3  -7    0.30    0.50
  -8  -3  -7    0.00    0.40
   8   3   7    2.60    2.00
   8   3   7    0.90    1.80
  -9  -3  -7    0.10    0.40
  -9  -3  -7   -0.50    0.40
   9   3   7   -0.10    1.70
   6  -4  -7    1.00    1.20
   6  -4  -7    0.40    0.40
  -6   4   7    0.00    0.50
  -6   4   7    0.30    0.40
  -6   4   7    0.00    0.60
   5  -4  -7   10.10    1.30
  -5   4   7   12.30    1.70
  -5   4   7   13.70    1.30
  -5   4   7   13.10    1.50
   4  -4  -7    7.60    1.50
   4  -4  -7    2.80    0.70
  -4   4   7    4.80    0.90
  -4   4   7    3.30    0.70
  -4   4   7    4.10    0.80
   3  -4  -7    5.90    1.00
   3  -4  -7    6.10    0.90
   3  -4  -7   10.40    1.60
  -3   4   7    6.20    1.00
  -3   4   7    7.80    1.20
  -3   4   7    6.20    1.10
  -3   4   7    8.20    1.20
   2  -4  -7   15.10    1.60
   2  -4  -7   10.60    1.30
   2  -4  -7   10.60    1.10
  -2   4   7   10.10    1.30
  -2   4   7    6.00    1.60
  -2   4   7   11.20    1.40
  -2   4   7   10.80    1.30
  -2   4   7   11.70    1.30
  -2   4   7    8.10    1.20
   1  -4  -7    6.40    0.80
   1  -4  -7    6.90    1.00
   1  -4  -7    6.90    0.90
  -1   4   7    6.60    1.00
  -1   4   7    7.40    1.10
  -1   4   7    5.90    1.40
  -1   4   7    5.80    1.20
  -1   4   7    6.20    0.90
  -1   4   7    6.80    0.90
   0  -4  -7  109.39    7.20
   0  -4  -7  121.89    7.70
   0  -4  -7  107.99    7.20
   0  -4  -7  114.79    7.10
   0   4   7  109.69    7.20
   0   4   7  125.69    7.60
   0   4   7  113.99    7.40
   0   4   7  117.89    7.30
   0   4   7  118.29    8.20
   0   4   7  114.59    8.10
  -1  -4  -7    8.70    0.80
  -1  -4  -7    9.20    0.90
  -1  -4  -7    9.30    0.90
  -1  -4  -7    9.60    1.20
   1   4   7    9.50    1.90
   1   4   7    8.30    1.20
   1   4   7    6.70    1.70
   1   4   7    9.30    1.00
   1   4   7    7.60    1.70
  -2  -4  -7   56.69    3.80
  -2  -4  -7   55.19    3.50
  -2  -4  -7   59.99    3.70
  -2  -4  -7   56.19    4.30
   2   4   7   60.09    4.10
   2   4   7   53.69    5.00
   2   4   7   55.09    3.60
   2   4   7   53.59    5.00
   2   4   7   53.09    4.70
  -3  -4  -7    6.10    1.30
  -3  -4  -7    6.00    0.70
  -3  -4  -7    5.20    0.70
  -3  -4  -7    6.30    0.90
   3   4   7    4.10    1.50
   3   4   7    3.70    1.00
   3   4   7    4.00    1.70
   3   4   7    3.00    1.50
  -4  -4  -7   10.20    1.00
  -4  -4  -7    9.10    1.20
  -4  -4  -7    8.40    1.60
  -4  -4  -7   11.70    1.50
  -4  -4  -7    9.60    1.00
   4   4   7   11.30    1.60
   4   4   7    8.10    2.40
   4   4   7   10.00    2.00
   4   4   7   10.20    2.40
  -5  -4  -7    4.00    0.70
  -5  -4  -7    4.40    0.90
  -5  -4  -7    4.50    1.10
   5   4   7    4.10    2.00
   5   4   7    0.00    1.10
   5   4   7    1.90    0.90
   5   4   7    4.90    1.60
  -6  -4  -7   17.30    1.90
  -6  -4  -7   13.10    1.60
  -6  -4  -7   12.70    1.30
   6   4   7   13.80    3.40
   6   4   7    7.90    2.60
  -7  -4  -7    1.20    0.60
  -7  -4  -7    1.20    0.50
   7   4   7    3.00    2.00
   7   4   7    0.70    1.80
  -8  -4  -7    0.10    0.50
   8   4   7   -0.90    1.70
   8   4   7    0.20    1.70
  -9  -4  -7   -0.60    0.40
   9   4   7    0.60    1.90
   9   4   7   -0.10    1.80
   6  -5  -7    2.00    0.60
  -6   5   7    1.40    0.40
  -6   5   7    0.90    0.70
   5  -5  -7   -0.10    0.40
   5  -5  -7    0.30    0.90
  -5   5   7   -0.10    0.50
  -5   5   7   -0.20    0.40
  -5   5   7    0.10    0.40
   4  -5  -7    0.00    0.50
   4  -5  -7    0.30    0.80
  -4   5   7    0.20    0.60
  -4   5   7    0.00    0.50
  -4   5   7   -0.10    0.40
  -4   5   7    0.10    0.50
   3  -5  -7    0.50    0.40
   3  -5  -7    0.80    0.50
   3  -5  -7    0.90    0.90
  -3   5   7    0.70    0.50
  -3   5   7    0.70    0.60
  -3   5   7    0.60    0.50
  -3   5   7    0.00    0.40
   2  -5  -7  138.29    9.20
   2  -5  -7  170.08    9.30
  -2   5   7  152.88    9.30
  -2   5   7  145.49   10.20
  -2   5   7  132.39    9.20
  -2   5   7  154.98    9.40
  -2   5   7  129.89    9.40
   1  -5  -7   36.50    2.70
   1  -5  -7   42.90    2.70
  -1   5   7   40.70    2.90
  -1   5   7   36.90    3.30
  -1   5   7   36.30    2.80
  -1   5   7   41.20    3.10
  -1   5   7   35.90    3.80
  -1   5   7   35.90    2.70
   0  -5  -7    2.40    0.40
   0  -5  -7    0.60    0.40
   0  -5  -7    2.00    0.60
   0  -5  -7    1.40    0.40
   0   5   7    0.80    1.00
   0   5   7    1.50    0.80
   0   5   7    1.20    0.50
   0   5   7    1.50    1.20
   0   5   7    1.90    0.50
   0   5   7    1.40    0.70
  -1  -5  -7    0.60    0.50
  -1  -5  -7    1.20    0.40
  -1  -5  -7    0.60    0.40
  -1  -5  -7    0.60    0.30
   1   5   7    1.00    1.10
   1   5   7    1.20    0.50
   1   5   7    0.70    1.10
   1   5   7    0.10    1.00
   1   5   7    0.80    0.70
  -2  -5  -7   26.40    2.00
  -2  -5  -7   27.60    2.50
  -2  -5  -7   26.70    2.10
  -2  -5  -7   26.20    2.00
   2   5   7   25.00    3.40
   2   5   7   27.80    2.50
   2   5   7   27.50    3.20
   2   5   7   28.20    2.00
   2   5   7   24.60    3.20
  -3  -5  -7    8.10    1.30
  -3  -5  -7    9.00    0.80
  -3  -5  -7    9.20    1.10
  -3  -5  -7    9.80    1.20
   3   5   7   10.10    1.90
   3   5   7    9.10    2.30
   3   5   7    8.30    1.40
   3   5   7    9.00    2.20
  -4  -5  -7   13.60    1.90
  -4  -5  -7   22.10    1.90
  -4  -5  -7   19.20    1.60
  -4  -5  -7   21.10    1.50
  -4  -5  -7   18.30    1.40
   4   5   7   24.30    3.80
   4   5   7   17.80    2.00
   4   5   7   19.40    3.40
   4   5   7   18.80    2.40
  -5  -5  -7    4.10    0.80
  -5  -5  -7    5.40    1.10
  -5  -5  -7    3.80    0.70
  -5  -5  -7    4.10    1.10
   5   5   7    4.80    1.20
   5   5   7    4.60    1.60
   5   5   7    3.90    2.20
   5   5   7    3.30    1.80
  -6  -5  -7    4.10    1.10
  -6  -5  -7    3.60    0.80
   6   5   7    1.80    1.00
   6   5   7    3.00    2.00
   6   5   7    2.30    1.80
  -7  -5  -7    7.90    1.20
  -7  -5  -7   15.10    1.90
   7   5   7    7.80    2.80
   7   5   7    5.40    2.40
  -8  -5  -7    6.00    1.00
  -8  -5  -7   11.20    1.80
   8   5   7    4.70    2.40
   8   5   7    6.00    2.50
   9   5   7    1.90    2.10
   9   5   7    1.30    2.00
   5  -6  -7    0.20    0.40
   5  -6  -7    1.00    1.00
  -5   6   7    0.60    0.60
  -5   6   7    0.30    0.40
  -5   6   7    0.80    0.60
  -4   6   7   22.80    2.20
  -4   6   7   31.40    2.20
  -4   6   7   34.20    2.70
  -4   6   7   28.30    2.40
   3  -6  -7   47.40    3.20
  -3   6   7   42.40    3.10
  -3   6   7   45.00    3.50
  -3   6   7   39.20    3.20
  -3   6   7   48.10    3.40
   2  -6  -7    0.70    0.40
   2  -6  -7    2.10    1.00
  -2   6   7   -0.30    0.50
  -2   6   7    1.20    0.60
  -2   6   7    0.70    1.20
  -2   6   7    0.70    0.50
  -2   6   7    0.80    0.60
   1  -6  -7   14.60    1.10
   1  -6  -7   16.90    1.70
   1  -6  -7   13.40    1.30
  -1   6   7   13.20    1.70
  -1   6   7    6.70    1.80
  -1   6   7   13.10    1.50
  -1   6   7   10.50    1.40
  -1   6   7   10.60    1.20
   0  -6  -7   -0.10    0.30
   0  -6  -7    0.30    0.30
   0  -6  -7    0.50    0.50
   0  -6  -7    0.10    0.40
   0   6   7    1.30    1.10
   0   6   7    0.20    0.40
   0   6   7   -0.40    1.10
   0   6   7    0.20    0.70
  -1  -6  -7    6.00    0.80
  -1  -6  -7    5.70    0.70
  -1  -6  -7    5.30    1.00
   1   6   7    4.80    1.10
   1   6   7    3.30    1.40
   1   6   7    4.90    0.80
   1   6   7    5.40    1.70
  -2  -6  -7    9.30    1.30
  -2  -6  -7   10.70    1.20
  -2  -6  -7    9.30    1.00
  -2  -6  -7   12.60    1.50
   2   6   7    9.30    1.60
   2   6   7    8.70    2.30
   2   6   7   11.70    2.50
   2   6   7   10.00    1.10
  -3  -6  -7    7.10    1.10
  -3  -6  -7    6.60    0.80
  -3  -6  -7    5.60    0.90
  -3  -6  -7    6.30    1.20
   3   6   7    5.70    2.10
   3   6   7    4.60    2.00
   3   6   7    5.20    1.40
  -4  -6  -7    0.30    0.40
  -4  -6  -7    0.10    0.30
  -4  -6  -7    0.00    0.40
  -4  -6  -7   -0.50    0.60
   4   6   7    0.40    1.70
   4   6   7    0.00    0.70
   4   6   7   -0.10    1.30
  -5  -6  -7   31.30    3.10
  -5  -6  -7   32.50    2.80
  -5  -6  -7   32.30    2.50
   5   6   7   33.40    4.20
   5   6   7   36.10    3.10
   5   6   7   34.70    4.60
  -6  -6  -7   34.70    2.90
  -6  -6  -7   27.40    2.50
   6   6   7   31.20    3.00
   6   6   7   42.00    5.90
  -7  -6  -7    1.00    0.60
  -7  -6  -7    2.50    1.10
   7   6   7    3.00    2.50
   7   6   7    1.90    1.70
   7   6   7    4.60    1.40
  -8  -6  -7   -0.90    1.00
  -8  -6  -7    0.30    0.60
   8   6   7    0.90    2.10
   8   6   7    0.40    1.70
   4  -7  -7    0.00    0.40
   4  -7  -7   -0.10    0.90
  -4   7   7    0.10    0.50
  -4   7   7    0.00    0.60
  -4   7   7    0.40    0.50
  -4   7   7   -0.30    0.40
   3  -7  -7   10.30    1.30
   3  -7  -7   17.00    2.10
  -3   7   7    9.30    1.50
  -3   7   7    8.80    1.20
  -3   7   7   11.80    1.30
  -3   7   7   11.00    1.50
   2  -7  -7    2.80    0.60
   2  -7  -7    5.20    1.30
  -2   7   7    2.70    0.60
  -2   7   7    2.40    0.80
  -2   7   7    3.00    1.40
  -2   7   7    0.80    0.60
  -2   7   7    1.60    0.60
   1  -7  -7    7.70    1.00
   1  -7  -7    9.20    1.40
   1  -7  -7    7.10    0.80
  -1   7   7    5.50    1.20
  -1   7   7    5.80    1.00
  -1   7   7    4.10    0.90
  -1   7   7    3.20    1.50
   0  -7  -7    3.50    0.70
   0  -7  -7    3.50    0.60
   0  -7  -7    5.00    1.00
   0   7   7    1.60    0.60
   0   7   7    5.00    1.70
   0   7   7    1.70    0.90
  -1  -7  -7   35.70    2.80
  -1  -7  -7   34.60    2.40
  -1  -7  -7   33.70    2.30
   1   7   7   27.80    3.20
   1   7   7   27.30    2.80
   1   7   7   32.50    2.50
   1   7   7   30.70    3.60
  -2  -7  -7   47.10    3.60
  -2  -7  -7   41.60    3.10
  -2  -7  -7   46.70    3.10
   2   7   7   44.50    4.60
   2   7   7   48.10    3.20
   2   7   7   46.70    4.80
   2   7   7   36.10    4.00
   2   7   7   45.90    3.70
  -3  -7  -7   39.30    2.80
  -3  -7  -7   34.50    2.60
  -3  -7  -7   38.10    2.50
  -3  -7  -7   35.40    3.10
   3   7   7   40.10    4.60
   3   7   7   32.60    3.30
   3   7   7   32.10    4.10
   3   7   7   35.90    3.20
  -4  -7  -7   54.69    4.30
  -4  -7  -7   52.19    3.70
  -4  -7  -7   52.09    3.50
  -4  -7  -7   58.59    3.90
   4   7   7   40.70    5.10
   4   7   7   62.99    6.00
   4   7   7   47.50    4.30
   4   7   7   59.79    4.40
  -5  -7  -7    0.60    0.70
  -5  -7  -7    0.70    0.60
  -5  -7  -7    0.70    0.70
   5   7   7   -0.20    1.60
   5   7   7    0.50    0.90
   5   7   7    0.10    1.10
   5   7   7    0.50    1.20
  -6  -7  -7    2.30    1.00
  -6  -7  -7    3.40    0.80
   6   7   7    2.60    1.20
   6   7   7    2.40    1.80
   6   7   7    2.60    2.50
  -7  -7  -7    1.20    0.90
  -7  -7  -7    0.70    0.50
   7   7   7    0.50    0.90
   7   7   7   -1.00    1.70
   7   7   7    0.50    1.40
  -8  -7  -7    1.10    1.10
  -8  -7  -7    0.10    0.50
   8   7   7   -0.30    1.90
   8   7   7   -0.80    1.70
  -4   8   7    1.00    0.60
  -4   8   7    0.10    0.60
   3  -8  -7    0.50    0.40
   3  -8  -7    1.10    1.00
  -3   8   7   -0.10    0.40
  -3   8   7   -0.70    0.50
  -3   8   7    0.30    0.50
   2  -8  -7    0.20    0.90
   2  -8  -7   -0.20    0.40
  -2   8   7   -0.40    0.40
  -2   8   7    0.20    0.60
  -2   8   7   -0.30    0.50
  -2   8   7    1.40    1.40
   1  -8  -7    2.20    0.90
   1  -8  -7    0.50    0.40
   1  -8  -7    2.00    0.50
  -1   8   7    1.00    0.60
  -1   8   7    1.80    0.80
  -1   8   7    1.30    0.60
  -1   8   7   -0.40    1.30
   0  -8  -7    1.50    0.50
   0  -8  -7    2.20    0.50
   0  -8  -7    1.90    0.80
   0   8   7    2.10    0.90
   0   8   7    1.70    0.70
  -1  -8  -7   78.49    5.50
  -1  -8  -7   79.99    5.00
  -1  -8  -7   71.69    4.90
   1   8   7   79.09    5.60
   1   8   7   72.39    5.90
   1   8   7   79.39    5.10
  -2  -8  -7   67.39    4.20
  -2  -8  -7   57.79    4.20
  -2  -8  -7   71.69    4.80
   2   8   7   49.50    5.50
   2   8   7   59.39    5.00
   2   8   7   69.99    4.30
   2   8   7   63.49    4.80
  -3  -8  -7    1.70    0.50
  -3  -8  -7    1.90    0.40
  -3  -8  -7    1.00    0.60
   3   8   7    0.30    1.50
   3   8   7    0.90    1.20
   3   8   7    1.00    0.80
  -4  -8  -7    0.40    0.30
  -4  -8  -7    0.60    0.70
  -4  -8  -7    0.30    0.50
  -4  -8  -7    0.40    0.40
   4   8   7   -0.20    1.60
   4   8   7    0.10    1.00
   4   8   7    0.60    0.80
  -5  -8  -7   -0.30    0.70
  -5  -8  -7    0.20    0.40
  -5  -8  -7    0.00    0.40
   5   8   7    0.20    1.50
   5   8   7    0.90    2.00
   5   8   7   -0.20    1.20
   5   8   7    0.60    0.90
  -6  -8  -7   -0.50    0.80
  -6  -8  -7    0.40    0.50
  -6  -8  -7    0.30    0.60
   6   8   7    0.30    0.80
   6   8   7    1.00    2.10
   6   8   7    0.10    1.40
  -7  -8  -7    0.00    0.50
  -7  -8  -7   -0.70    0.80
   7   8   7    0.40    1.00
   7   8   7   -1.90    1.90
   7   8   7   -0.70    1.50
  -3   9   7    0.10    0.60
  -3   9   7    0.30    0.60
   2  -9  -7    0.40    0.90
   2  -9  -7    0.30    0.40
  -2   9   7    0.00    1.40
  -2   9   7    0.20    0.50
  -2   9   7    0.30    0.70
  -2   9   7    0.60    0.60
   1  -9  -7    5.60    1.30
   1  -9  -7    3.30    0.60
   1  -9  -7    3.10    0.60
  -1   9   7    2.10    0.90
  -1   9   7    1.80    0.70
  -1   9   7    2.20    1.50
  -1   9   7    2.30    0.70
   0  -9  -7    4.50    0.70
   0  -9  -7    6.50    1.30
   0  -9  -7    4.30    0.70
   0   9   7    5.00    0.90
   0   9   7    4.90    1.60
   0   9   7    5.00    1.20
  -1  -9  -7    3.40    0.60
  -1  -9  -7    3.60    0.60
  -1  -9  -7    3.00    0.90
   1   9   7    2.70    1.30
   1   9   7    2.40    0.70
   1   9   7    2.80    1.10
  -2  -9  -7    5.40    1.10
  -2  -9  -7    5.00    0.80
  -2  -9  -7    4.90    0.70
   2   9   7    6.50    0.90
   2   9   7    3.50    1.50
  -3  -9  -7    0.50    0.50
  -3  -9  -7    0.80    0.40
  -3  -9  -7    1.20    0.60
   3   9   7    1.50    1.20
   3   9   7    0.00    0.60
   3   9   7    0.70    1.60
  -4  -9  -7    0.30    0.40
  -4  -9  -7   -0.20    0.40
  -4  -9  -7   -0.10    0.20
   4   9   7   -0.10    1.60
   4   9   7   -0.40    1.00
   4   9   7    0.80    0.80
  -5  -9  -7    0.30    0.50
  -5  -9  -7    0.10    0.80
  -5  -9  -7   -0.20    0.40
   5   9   7   -0.10    0.70
   5   9   7   -0.30    1.50
   5   9   7    1.30    1.20
  -6  -9  -7    0.60    0.80
  -6  -9  -7    0.50    0.50
  -6  -9  -7    0.50    0.60
   6   9   7    0.60    2.40
   6   9   7    1.00    0.90
   6   9   7    0.30    1.40
   7   9   7    1.40    1.00
   7   9   7    0.60    2.40
   1 -10  -7    1.10    0.50
   1 -10  -7    0.60    0.40
   1 -10  -7    2.10    1.00
  -1  10   7    0.90    0.60
  -1  10   7    0.50    0.70
  -1  10   7    0.50    0.60
   0 -10  -7   -0.30    0.30
   0 -10  -7    0.40    0.50
   0 -10  -7    0.10    0.40
   0  10   7    0.70    1.10
   0  10   7   -0.10    0.50
   0  10   7    0.20    0.80
  -1 -10  -7    6.20    0.80
  -1 -10  -7    6.90    0.80
  -1 -10  -7    5.30    1.10
   1  10   7    4.90    0.90
   1  10   7    6.00    1.40
   1  10   7    7.40    1.60
  -2 -10  -7    3.70    0.60
  -2 -10  -7    2.40    0.80
  -2 -10  -7    2.90    0.60
   2  10   7    2.60    0.70
   2  10   7    3.70    1.30
   2  10   7    0.90    0.60
  -3 -10  -7    0.20    0.30
  -3 -10  -7    0.50    0.50
  -3 -10  -7    0.40    0.40
   3  10   7   -0.20    1.70
   3  10   7    0.50    0.60
   3  10   7    0.30    1.10
  -4 -10  -7   -0.20    0.40
  -4 -10  -7    0.20    0.40
   4  10   7    1.50    1.10
   4  10   7    0.50    0.60
   4  10   7    0.60    1.60
  -5 -10  -7    2.10    0.50
   5  10   7    3.10    1.30
   5  10   7    2.80    2.00
   5  10   7    0.70    0.70
   2  11   7   -0.30    0.60
   2  11   7    0.00    0.60
   3  11   7    0.90    0.60
  -1  -7   8    0.50    0.50
   0   7  -8    0.10    0.50
   0  -7   8    0.20    0.40
   0  -7   8    0.50    0.60
  -1   7  -8    0.10    0.50
  -1   7  -8   -0.30    0.60
   1  -7   8   -0.40    0.40
   1  -7   8    0.30    0.60
   3   6  -8    5.20    1.50
   3   6  -8    6.50    0.80
  -3  -6   8    3.60    0.70
  -3  -6   8    4.40    0.80
  -3  -6   8    5.50    0.80
   2   6  -8    0.70    0.50
   2   6  -8    0.10    1.10
   2   6  -8    0.60    0.60
  -2  -6   8    0.40    0.50
  -2  -6   8    1.00    0.50
   1   6  -8    0.10    0.40
   1   6  -8    0.10    0.60
  -1  -6   8    0.30    0.50
  -1  -6   8   -0.10    0.40
  -1  -6   8   -0.30    0.40
   0   6  -8    0.30    0.50
   0   6  -8    1.00    0.50
   0  -6   8    0.60    0.50
   0  -6   8    0.80    0.60
   0  -6   8    0.40    0.50
  -1   6  -8    0.40    0.70
  -1   6  -8    0.40    0.50
   1  -6   8    1.00    0.60
   1  -6   8    0.30    0.40
   1  -6   8   -0.40    0.60
  -2   6  -8    0.50    0.50
  -2   6  -8    0.10    0.60
  -2   6  -8    0.40    0.50
   2  -6   8    0.10    0.70
   2  -6   8   -0.80    0.60
   2  -6   8    0.00    0.40
  -3   6  -8    0.00    0.60
  -3   6  -8    0.00    0.50
  -3   6  -8    0.30    0.60
   3  -6   8    0.10    0.80
   3  -6   8    0.20    0.70
  -4   6  -8    0.90    0.80
  -4   6  -8    1.40    0.80
  -4   6  -8    0.20    0.50
   4  -6   8    1.30    0.90
   4   5  -8    6.60    1.60
   4   5  -8   11.00    1.00
  -4  -5   8    9.80    1.10
   3   5  -8    1.50    1.20
   3   5  -8    2.90    0.60
  -3  -5   8    3.60    0.70
  -3  -5   8    3.50    0.70
  -3  -5   8    2.50    0.60
   2   5  -8    0.90    0.40
   2   5  -8    2.10    1.10
   2   5  -8    0.80    0.60
  -2  -5   8    1.20    0.60
  -2  -5   8    1.30    0.50
  -2  -5   8    1.70    0.60
   1   5  -8    0.20    0.50
   1   5  -8   -0.70    0.80
   1   5  -8    0.20    0.40
  -1  -5   8    0.00    0.50
  -1  -5   8    0.30    0.50
  -1  -5   8    0.30    0.40
   0   5  -8    0.40    0.40
   0   5  -8   -0.40    0.50
   0  -5   8    0.10    0.40
   0  -5   8    0.00    0.60
   0  -5   8   -0.80    0.50
  -1   5  -8    0.30    0.50
  -1   5  -8    0.50    0.50
   1  -5   8    0.00    0.70
   1  -5   8    0.00    0.40
   1  -5   8   -0.20    0.60
  -2   5  -8    9.80    1.60
  -2   5  -8   14.40    1.40
   2  -5   8   14.20    2.00
   2  -5   8   13.20    2.00
   2  -5   8   12.50    1.80
  -3   5  -8   11.20    1.70
  -3   5  -8   11.10    1.20
  -3   5  -8   10.80    1.40
  -3   5  -8   15.20    1.50
   3  -5   8   10.00    1.40
  -4   5  -8    1.40    0.70
  -4   5  -8    1.40    0.70
  -4   5  -8    1.10    0.70
  -4   5  -8    2.60    0.90
   4  -5   8    1.90    1.00
   4  -5   8    2.10    0.90
  -5   5  -8    0.30    0.60
  -5   5  -8    0.50    0.90
  -5   5  -8    0.10    0.60
  -5   5  -8   -0.10    0.60
   5  -5   8    0.00    0.60
   5  -5   8   -0.10    0.70
   5   4  -8   -0.50    0.80
   5   4  -8   -0.10    0.40
  -5  -4   8   -0.30    0.40
   4   4  -8    0.60    0.40
  -4  -4   8   -0.30    0.50
  -4  -4   8    0.30    0.50
   3   4  -8    1.10    0.40
  -3  -4   8    0.70    0.50
  -3  -4   8    0.50    0.50
  -3  -4   8    1.20    0.50
   2   4  -8    3.40    0.60
   2   4  -8    4.60    0.80
  -2  -4   8    4.70    0.70
  -2  -4   8    3.60    0.80
  -2  -4   8    3.60    0.70
   1   4  -8    2.70    0.60
   1   4  -8    1.60    0.60
  -1  -4   8    3.30    0.60
  -1  -4   8    3.30    0.80
  -1  -4   8    2.70    0.60
  -1  -4   8    3.40    0.80
   0   4  -8    0.50    0.50
   0   4  -8    0.90    0.60
   0   4  -8    0.20    0.80
   0  -4   8    0.30    0.70
   0  -4   8    0.60    0.50
   0  -4   8    0.50    0.70
   0  -4   8   -0.30    0.60
  -1   4  -8   70.49    4.60
  -1   4  -8   76.49    4.70
  -1   4  -8   70.69    4.80
   1  -4   8   66.29    4.90
   1  -4   8   70.29    5.20
   1  -4   8   65.39    4.90
  -2   4  -8   30.60    2.40
  -2   4  -8   28.40    2.50
  -2   4  -8   30.40    2.40
   2  -4   8   30.40    2.80
   2  -4   8   37.10    3.20
   2  -4   8   31.70    2.60
  -3   4  -8   -0.10    0.60
  -3   4  -8    0.00    0.60
  -3   4  -8    0.30    0.60
  -3   4  -8    0.10    0.50
   3  -4   8    0.20    0.80
   3  -4   8   -0.50    0.70
  -4   4  -8   -0.20    0.50
  -4   4  -8   -0.70    0.50
  -4   4  -8    0.50    0.50
  -4   4  -8    0.40    0.70
   4  -4   8   -0.20    0.70
   4  -4   8    0.10    0.90
  -5   4  -8    0.20    0.70
  -5   4  -8    0.10    0.70
  -5   4  -8    2.10    0.70
  -5   4  -8    2.00    0.80
   5  -4   8    1.00    0.90
   5  -4   8    0.20    0.90
   5  -4   8    3.40    1.90
  -6   4  -8   -0.10    0.70
  -6   4  -8    0.10    0.70
  -6   4  -8    0.10    0.50
   6  -4   8   -0.80    1.60
   6  -4   8   -0.70    0.80
   6  -4   8    0.10    0.80
   5   3  -8    1.10    0.40
  -5  -3   8    0.50    0.40
   4   3  -8    0.30    0.40
  -4  -3   8    0.60    0.50
   3   3  -8   16.20    1.30
  -3  -3   8   14.70    1.40
  -3  -3   8   16.50    1.50
  -3  -3   8   14.90    1.40
   2   3  -8    9.90    1.10
   2   3  -8    9.70    1.00
  -2  -3   8    9.20    1.10
  -2  -3   8   10.40    1.20
  -2  -3   8    9.10    1.00
   1   3  -8   35.30    2.80
   1   3  -8   36.00    2.60
  -1  -3   8   37.20    3.00
  -1  -3   8   37.70    2.60
  -1  -3   8   42.70    3.00
  -1  -3   8   38.50    2.70
  -1  -3   8   35.60    2.90
   0   3  -8   82.09    5.70
   0   3  -8   79.79    5.50
   0   3  -8   86.39    5.50
   0  -3   8   89.49    5.40
   0  -3   8   93.49    6.00
   0  -3   8   83.59    5.90
   0  -3   8   83.29    5.60
   0  -3   8   82.59    5.90
  -1   3  -8   10.90    1.20
  -1   3  -8   10.50    1.30
  -1   3  -8    8.40    1.00
   1  -3   8   11.30    1.60
   1  -3   8   10.60    1.60
   1  -3   8   10.70    1.70
  -2   3  -8   20.80    1.80
  -2   3  -8   20.80    2.00
  -2   3  -8   20.20    1.80
   2  -3   8   21.30    2.40
   2  -3   8   24.80    2.70
   2  -3   8   24.60    2.20
  -3   3  -8    2.10    0.60
  -3   3  -8    2.60    0.80
  -3   3  -8    3.00    0.90
  -3   3  -8    3.20    0.80
   3  -3   8    2.80    0.90
   3  -3   8    3.40    1.20
   3  -3   8    1.60    1.10
  -4   3  -8    0.20    0.60
  -4   3  -8    0.70    0.50
  -4   3  -8   -0.20    0.50
  -4   3  -8    0.60    0.60
   4  -3   8    0.20    0.90
   4  -3   8   -0.40    0.80
  -5   3  -8    1.50    0.60
  -5   3  -8    3.00    0.80
  -5   3  -8    0.60    0.80
  -5   3  -8    2.60    0.80
   5  -3   8    3.40    1.20
   5  -3   8    3.10    1.80
   5  -3   8    0.50    1.00
  -6   3  -8    1.70    0.80
  -6   3  -8    1.10    0.70
  -6   3  -8    0.90    0.60
   6  -3   8    0.50    1.00
   6  -3   8    1.00    1.60
   6  -3   8   -0.60    0.90
  -7   3  -8    0.90    0.70
  -7   3  -8   -0.30    0.50
  -7   3  -8    0.60    0.50
   7  -3   8    0.30    1.00
   7  -3   8    1.30    2.20
   6   2  -8   -0.20    0.40
  -6  -2   8    0.20    0.40
  -6  -2   8    0.10    0.40
   5   2  -8    0.30    0.40
  -5  -2   8    0.00    0.40
  -5  -2   8   -0.20    0.40
   4   2  -8    0.20    0.40
  -4  -2   8    0.00    0.40
  -4  -2   8   -0.10    0.50
   3   2  -8    0.30    0.40
  -3  -2   8    1.40    0.60
  -3  -2   8    0.70    0.50
  -3  -2   8    1.00    0.50
   2   2  -8   37.90    2.50
   2   2  -8   37.10    2.60
  -2  -2   8   33.00    2.80
  -2  -2   8   34.70    2.60
  -2  -2   8   36.70    2.50
  -2  -2   8   36.40    2.60
   1   2  -8   24.30    2.10
   1   2  -8   30.00    2.30
  -1  -2   8   31.10    2.20
  -1  -2   8   28.20    2.50
  -1  -2   8   32.60    2.10
  -1  -2   8   26.60    2.50
  -1  -2   8   32.10    2.40
   0   2  -8   36.40    2.70
   0   2  -8   33.60    2.50
   0  -2   8   34.00    2.50
   0  -2   8   35.20    3.10
   0  -2   8   39.20    3.00
   0  -2   8   36.30    3.00
  -1   2  -8   10.50    1.10
  -1   2  -8   11.10    1.00
  -1   2  -8   10.90    1.20
   1  -2   8   11.10    1.40
   1  -2   8   13.30    1.70
   1  -2   8   13.40    1.80
  -2   2  -8    0.00    0.40
  -2   2  -8   -0.20    0.50
  -2   2  -8    0.40    0.50
   2  -2   8   -0.40    0.80
   2  -2   8    0.90    1.10
   2  -2   8    0.30    0.70
  -3   2  -8    0.90    0.50
  -3   2  -8    3.80    0.70
  -3   2  -8    3.30    0.80
   3  -2   8    1.20    1.10
   3  -2   8   -0.40    1.00
   3  -2   8    3.30    1.10
  -4   2  -8    5.20    0.90
  -4   2  -8    6.40    1.00
  -4   2  -8    7.00    1.10
  -4   2  -8    5.20    0.80
   4  -2   8    3.70    1.50
   4  -2   8    5.60    1.50
   4  -2   8    4.80    1.30
  -5   2  -8   11.00    1.40
  -5   2  -8   10.40    1.40
  -5   2  -8    9.10    1.20
  -5   2  -8    9.90    1.10
   5  -2   8    8.60    1.70
   5  -2   8    6.70    1.80
  -6   2  -8    4.20    0.90
  -6   2  -8    5.10    0.80
   6  -2   8    1.50    1.20
   6  -2   8    5.60    1.40
  -7   2  -8    3.60    0.70
  -7   2  -8    2.30    0.80
  -7   2  -8    2.10    0.80
   7  -2   8    3.60    2.60
   7  -2   8    0.80    1.10
   6   1  -8    0.00    0.40
  -6  -1   8   -0.30    0.30
  -6  -1   8   -0.40    0.50
   5   1  -8    0.20    0.40
  -5  -1   8    0.40    0.50
  -5  -1   8    0.30    0.40
   4   1  -8    5.70    0.80
  -4  -1   8    3.70    0.70
  -4  -1   8    4.70    0.90
   3   1  -8   15.60    1.40
  -3  -1   8   18.40    1.50
  -3  -1   8   16.90    1.50
   2   1  -8    6.40    0.80
   2   1  -8    5.60    0.70
  -2  -1   8    5.60    0.80
  -2  -1   8    4.70    0.70
  -2  -1   8    5.80    0.90
  -2  -1   8    4.60    0.90
  -2  -1   8    4.50    0.90
  -2  -1   8    5.40    0.80
   1   1  -8   -0.60    0.30
   1   1  -8   -0.30    0.30
  -1  -1   8   -0.30    0.50
  -1  -1   8   -0.10    0.40
  -1  -1   8   -0.10    0.50
  -1  -1   8   -0.50    0.30
  -1  -1   8   -0.10    0.30
  -1  -1   8   -0.80    0.70
   0   1  -8    0.40    0.40
   0   1  -8    0.40    0.40
   0  -1   8    0.10    0.60
   0  -1   8    1.00    0.70
   0  -1   8    0.80    0.90
   0  -1   8    0.50    0.40
  -1   1  -8    2.20    0.60
  -1   1  -8    3.80    0.60
   1  -1   8    4.10    1.10
   1  -1   8    3.50    0.60
   1  -1   8    4.40    1.30
   1  -1   8    3.50    1.20
  -2   1  -8    9.00    1.10
  -2   1  -8    9.80    1.10
  -2   1  -8    8.50    0.90
   2  -1   8   10.10    1.60
   2  -1   8    9.50    1.80
   2  -1   8    6.20    1.70
  -3   1  -8   15.40    1.20
  -3   1  -8   11.50    1.40
  -3   1  -8   16.40    1.50
   3  -1   8   14.10    2.10
   3  -1   8   13.20    2.60
   3  -1   8   11.20    2.20
  -4   1  -8   19.70    1.70
  -4   1  -8   14.20    1.50
  -4   1  -8   18.00    1.50
  -4   1  -8   19.50    1.70
   4  -1   8   15.50    2.80
   4  -1   8   19.00    2.30
   4  -1   8   19.80    2.60
  -5   1  -8   16.30    1.40
  -5   1  -8   13.60    1.60
  -5   1  -8   16.10    1.50
  -5   1  -8   14.30    1.50
   5  -1   8   14.30    2.20
   5  -1   8   16.50    2.80
   5  -1   8   13.70    2.20
  -6   1  -8   14.50    1.50
  -6   1  -8   15.50    1.30
   6  -1   8   13.20    2.10
   6  -1   8    8.10    2.20
  -7   1  -8    1.40    0.70
  -7   1  -8    0.50    0.60
   7  -1   8   -0.10    1.10
  -8   1  -8    0.20    0.50
   8  -1   8   -0.40    1.00
   6   0  -8    0.10    0.40
  -6   0   8    0.20    0.40
  -6   0   8   -0.10    0.50
   5   0  -8   -0.30    0.40
  -5   0   8   -0.20    0.40
  -5   0   8   -0.50    0.50
   4   0  -8    1.50    0.60
  -4   0   8    2.10    0.60
  -4   0   8    1.60    0.70
   3   0  -8   27.20    2.00
   3   0  -8   26.20    2.00
  -3   0   8   25.10    2.10
  -3   0   8   24.30    2.10
  -3   0   8   26.80    2.10
   2   0  -8    1.20    0.50
   2   0  -8    1.20    0.50
  -2   0   8    1.10    0.50
  -2   0   8    1.80    0.70
  -2   0   8    0.80    0.50
  -2   0   8    0.50    0.70
   1   0  -8   32.50    2.50
   1   0  -8   31.80    2.40
  -1   0   8   33.40    2.60
  -1   0   8   33.20    3.00
  -1   0   8   37.40    2.80
  -1   0   8   35.30    2.60
  -1   0   8   33.40    2.50
  -1   0   8   34.80    2.30
   0   0  -8    0.20    0.30
   0   0  -8    0.20    0.30
   0   0  -8    0.50    0.50
   0   0   8    0.80    0.70
   0   0   8    0.00    0.90
   0   0   8    0.10    0.30
   0   0   8    0.20    0.40
   0   0   8    0.80    0.80
  -1   0  -8    2.60    0.60
  -1   0  -8    2.40    0.40
   1   0   8    2.70    1.00
   1   0   8    3.00    1.20
   1   0   8    3.60    1.30
   1   0   8    2.90    0.60
  -2   0  -8   20.60    1.70
  -2   0  -8   24.90    1.90
  -2   0  -8   23.20    1.80
   2   0   8   22.50    2.90
   2   0   8   21.30    2.90
   2   0   8   22.80    1.70
   2   0   8   26.40    2.70
  -3   0  -8   11.70    1.00
  -3   0  -8   10.70    1.10
  -3   0  -8    8.80    1.00
   3   0   8   10.90    2.10
   3   0   8   10.40    1.90
   3   0   8   14.80    2.10
  -4   0  -8   62.29    4.40
  -4   0  -8   70.29    4.40
  -4   0  -8   64.29    4.40
  -4   0  -8   72.19    4.50
  -4   0  -8   64.59    4.20
   4   0   8   61.09    5.70
   4   0   8   61.99    5.30
   4   0   8   61.99    5.30
  -5   0  -8    7.40    1.00
  -5   0  -8    7.70    0.90
  -5   0  -8    8.10    1.10
  -5   0  -8    7.10    1.10
  -5   0  -8    8.50    1.10
   5   0   8    9.50    1.90
   5   0   8    5.10    1.90
   5   0   8    7.00    1.80
  -6   0  -8    3.10    0.80
  -6   0  -8    3.50    0.80
  -6   0  -8    2.80    0.70
   6   0   8    2.40    1.30
   6   0   8    1.00    1.30
   6   0   8    3.90    1.50
  -7   0  -8    0.30    0.50
   7   0   8   -0.10    1.20
  -8   0  -8    1.10    0.60
   8   0   8    0.10    1.10
   6  -1  -8    0.30    0.40
  -6   1   8    0.30    0.60
  -6   1   8    0.50    0.40
  -5   1   8    3.00    0.60
  -5   1   8    2.90    0.80
   4  -1  -8    1.20    0.50
  -4   1   8    2.60    0.70
  -4   1   8    2.90    0.70
   3  -1  -8   50.69    3.40
   3  -1  -8   51.19    3.50
  -3   1   8   52.99    3.50
  -3   1   8   51.39    3.60
  -3   1   8   47.20    3.60
   2  -1  -8    2.60    0.50
   2  -1  -8    2.30    0.60
  -2   1   8    2.20    0.70
  -2   1   8    2.60    0.70
  -2   1   8    3.00    0.70
  -2   1   8    2.00    0.90
   1  -1  -8   12.30    1.10
   1  -1  -8   10.70    1.30
   1  -1  -8   10.90    1.10
  -1   1   8   10.60    1.20
  -1   1   8   13.20    2.00
  -1   1   8   12.20    1.60
  -1   1   8   13.10    1.30
   0  -1  -8    1.40    0.60
   0  -1  -8    2.00    0.40
   0  -1  -8    1.70    0.50
   0   1   8    2.40    0.50
   0   1   8    0.90    0.50
   0   1   8    1.70    0.90
   0   1   8    1.40    0.80
   0   1   8    1.50    1.00
  -1  -1  -8   33.80    2.40
  -1  -1  -8   30.70    2.20
  -1  -1  -8   31.20    2.80
   1   1   8   31.50    2.20
   1   1   8   34.00    3.20
   1   1   8   34.00    3.10
   1   1   8   34.50    2.40
   1   1   8   36.20    2.50
   1   1   8   31.10    3.30
  -2  -1  -8   72.69    4.90
  -2  -1  -8   70.99    5.50
  -2  -1  -8   76.69    4.80
  -2  -1  -8   74.19    4.80
   2   1   8   79.29    5.00
   2   1   8   72.89    5.80
   2   1   8   81.39    4.90
   2   1   8   74.19    6.00
   2   1   8   81.49    5.90
  -3  -1  -8    3.90    0.50
  -3  -1  -8    3.60    0.70
  -3  -1  -8    3.80    0.70
  -3  -1  -8    2.80    0.60
   3   1   8    2.80    1.50
   3   1   8    4.20    1.70
   3   1   8    4.00    1.60
   3   1   8    4.00    0.70
   3   1   8    3.80    0.60
  -4  -1  -8    1.20    0.50
  -4  -1  -8    0.70    0.40
  -4  -1  -8   -0.20    0.40
  -4  -1  -8    0.60    0.30
  -4  -1  -8    1.10    0.50
   4   1   8    0.20    1.00
   4   1   8   -1.00    1.00
   4   1   8    0.80    1.30
  -5  -1  -8    7.00    1.10
  -5  -1  -8    7.60    1.00
  -5  -1  -8    7.80    1.00
  -5  -1  -8    7.70    0.90
   5   1   8    6.70    1.80
   5   1   8    5.70    1.80
   5   1   8    4.50    2.00
  -6  -1  -8    3.70    0.80
  -6  -1  -8    1.70    0.60
   6   1   8    3.30    1.50
   6   1   8    3.70    1.60
   6   1   8    2.70    1.70
  -7  -1  -8    2.30    0.80
  -7  -1  -8    4.50    0.80
   7   1   8    3.40    1.90
   7   1   8    3.40    1.70
  -8  -1  -8    1.90    0.70
  -8  -1  -8   -0.20    0.50
   8   1   8    1.30    1.60
   6  -2  -8   -0.30    0.40
  -6   2   8   -0.30    0.50
  -6   2   8    0.20    0.50
  -6   2   8   -0.10    0.40
  -5   2   8   15.40    1.40
  -5   2   8   14.00    1.50
   4  -2  -8    0.60    0.50
  -4   2   8    0.90    0.50
  -4   2   8    1.00    0.70
  -4   2   8    0.30    0.60
   3  -2  -8   11.40    1.30
   3  -2  -8    8.40    1.00
  -3   2   8    8.00    1.30
  -3   2   8    9.00    1.10
  -3   2   8   10.00    1.20
   2  -2  -8   15.20    1.50
   2  -2  -8   20.80    1.80
   2  -2  -8   18.00    1.50
  -2   2   8   16.60    1.70
  -2   2   8   16.30    1.60
  -2   2   8   15.60    1.60
  -2   2   8   15.60    2.10
   1  -2  -8  106.79    6.80
   1  -2  -8   99.69    6.50
   1  -2  -8   95.59    6.50
  -1   2   8  106.99    6.60
  -1   2   8   93.19    7.20
  -1   2   8   97.89    6.70
  -1   2   8  101.79    6.60
  -1   2   8  111.69    7.00
   0  -2  -8   31.40    2.30
   0  -2  -8   30.10    2.20
   0  -2  -8   31.10    2.60
   0   2   8   28.80    2.70
   0   2   8   31.90    2.30
   0   2   8   32.10    3.20
   0   2   8   36.00    2.40
   0   2   8   35.20    3.00
   0   2   8   30.70    2.50
  -1  -2  -8    4.90    0.60
  -1  -2  -8    4.60    1.00
  -1  -2  -8    5.90    0.70
   1   2   8    5.20    1.50
   1   2   8    4.20    0.60
   1   2   8    5.10    1.50
   1   2   8    5.90    0.80
   1   2   8    4.90    0.90
   1   2   8    3.80    1.40
  -2  -2  -8   33.50    3.00
  -2  -2  -8   36.20    2.50
  -2  -2  -8   34.10    2.30
  -2  -2  -8   33.30    2.40
   2   2   8   30.80    3.50
   2   2   8   38.10    2.60
   2   2   8   33.80    3.50
   2   2   8   36.50    3.60
   2   2   8   34.30    2.50
  -3  -2  -8    2.30    0.50
  -3  -2  -8    2.70    0.60
  -3  -2  -8    2.00    0.80
  -3  -2  -8    3.10    0.60
  -3  -2  -8    2.80    0.40
   3   2   8    4.10    1.50
   3   2   8    2.60    0.70
   3   2   8    1.80    1.30
   3   2   8    2.40    0.70
   3   2   8    1.20    1.30
  -4  -2  -8    9.30    1.10
  -4  -2  -8    8.40    1.00
  -4  -2  -8    8.20    0.90
   4   2   8    5.60    1.80
   4   2   8    7.60    1.30
   4   2   8    4.30    1.80
   4   2   8    9.80    2.50
  -5  -2  -8   10.20    1.20
  -5  -2  -8   10.40    1.20
  -5  -2  -8   10.60    1.00
   5   2   8    8.90    2.30
   5   2   8    8.20    2.40
   5   2   8    9.00    2.10
  -6  -2  -8    4.50    0.90
  -6  -2  -8    5.20    0.90
   6   2   8    4.40    2.00
   6   2   8    3.90    1.60
   6   2   8    3.60    1.70
  -7  -2  -8    0.30    0.50
  -7  -2  -8    0.20    0.40
   7   2   8    0.70    1.60
   7   2   8   -0.30    1.50
  -8  -2  -8    2.40    0.70
  -8  -2  -8    3.40    0.80
   8   2   8    1.50    1.70
  -9  -2  -8    0.50    0.60
   9   2   8   -0.10    1.60
   6  -3  -8    0.10    0.40
  -6   3   8    0.50    0.60
  -6   3   8    0.70    0.50
  -6   3   8    1.00    0.50
   5  -3  -8    0.90    0.50
  -5   3   8    1.70    0.60
  -5   3   8    1.70    0.60
  -5   3   8    1.70    0.70
   4  -3  -8   10.80    1.30
  -4   3   8   14.70    1.70
  -4   3   8   12.50    1.40
  -4   3   8   10.70    1.40
   3  -3  -8   66.49    4.50
   3  -3  -8   73.89    4.40
  -3   3   8   67.79    4.50
  -3   3   8   56.19    4.80
  -3   3   8   71.39    4.70
  -3   3   8   62.49    4.50
   2  -3  -8   21.40    1.70
   2  -3  -8   23.70    1.80
  -2   3   8   18.60    1.70
  -2   3   8   21.40    1.80
  -2   3   8   19.20    2.50
  -2   3   8   24.20    1.90
  -2   3   8   18.20    1.80
  -2   3   8   20.70    1.90
   1  -3  -8    0.10    0.40
   1  -3  -8    0.30    0.50
   1  -3  -8   -0.10    0.30
  -1   3   8    0.10    0.60
  -1   3   8   -0.10    0.40
  -1   3   8   -0.50    0.40
  -1   3   8    0.50    0.60
  -1   3   8   -0.70    1.00
   0  -3  -8    2.30    0.70
   0  -3  -8    1.60    0.40
   0  -3  -8    1.30    0.50
   0   3   8    2.80    1.00
   0   3   8    1.20    0.50
   0   3   8    2.20    0.70
   0   3   8    1.70    0.50
   0   3   8    1.90    1.20
  -1  -3  -8  160.68    9.70
  -1  -3  -8  162.28   10.30
  -1  -3  -8  154.28    9.60
   1   3   8  150.48   10.70
   1   3   8  160.18    9.80
   1   3   8  150.48   10.60
   1   3   8  154.98    9.90
   1   3   8  145.39   10.60
   1   3   8  159.08    9.60
  -2  -3  -8    2.70    0.50
  -2  -3  -8    3.80    0.60
  -2  -3  -8    2.90    0.40
  -2  -3  -8    2.30    0.80
   2   3   8    1.20    1.30
   2   3   8    2.50    0.70
   2   3   8    3.60    0.80
   2   3   8    0.80    1.10
   2   3   8    2.50    1.30
  -3  -3  -8    1.80    0.40
  -3  -3  -8    2.60    0.50
  -3  -3  -8    1.10    0.70
  -3  -3  -8    2.30    0.60
   3   3   8    1.80    0.80
   3   3   8    2.90    1.50
   3   3   8    1.60    1.30
   3   3   8    2.50    1.50
  -4  -3  -8    1.90    0.60
  -4  -3  -8    2.60    0.60
  -4  -3  -8    1.30    0.80
  -4  -3  -8    2.60    0.60
   4   3   8    2.10    1.40
   4   3   8    4.50    1.80
   4   3   8    2.70    1.80
   4   3   8    1.60    0.70
  -5  -3  -8   11.90    1.20
  -5  -3  -8   10.80    1.30
  -5  -3  -8   12.60    1.10
   5   3   8   12.20    2.80
   5   3   8    7.80    1.90
   5   3   8   10.20    2.40
  -6  -3  -8    9.50    1.20
  -6  -3  -8    8.50    1.20
   6   3   8    7.20    2.50
   6   3   8    8.00    2.40
   6   3   8    5.60    1.90
  -7  -3  -8   -0.80    0.40
  -7  -3  -8   -0.10    0.50
   7   3   8    0.70    1.60
   7   3   8   -0.60    1.60
  -8  -3  -8    0.20    0.50
  -8  -3  -8   -0.10    0.40
   8   3   8   -0.40    1.70
   8   3   8    1.90    1.80
  -9  -3  -8   -0.10    0.50
  -9  -3  -8    0.30    0.50
   9   3   8   -0.80    1.60
   6  -4  -8    0.30    0.40
  -5   4   8   12.50    1.50
  -5   4   8   12.70    1.20
  -5   4   8    8.70    1.20
   4  -4  -8    2.80    0.70
   4  -4  -8    5.70    1.30
  -4   4   8    2.40    0.80
  -4   4   8    3.40    0.70
  -4   4   8    3.50    0.80
   3  -4  -8   10.60    1.20
   3  -4  -8   14.10    1.70
   3  -4  -8   10.90    1.30
  -3   4   8   10.60    1.40
  -3   4   8   10.70    1.40
  -3   4   8   10.70    1.30
  -3   4   8   10.20    1.40
   2  -4  -8    4.10    1.00
   2  -4  -8    2.40    0.60
   2  -4  -8    2.80    0.70
  -2   4   8    2.90    0.70
  -2   4   8    2.90    0.80
  -2   4   8    2.40    0.60
  -2   4   8    1.90    0.70
  -2   4   8    2.30    0.70
  -2   4   8    2.60    1.30
   1  -4  -8   94.59    5.60
   1  -4  -8   83.79    5.60
  -1   4   8   82.19    6.00
  -1   4   8   80.59    5.80
  -1   4   8   85.89    5.60
  -1   4   8   91.89    5.70
  -1   4   8   85.39    5.70
  -1   4   8   79.89    6.60
   0  -4  -8  163.98   10.10
   0  -4  -8  151.38    9.60
   0  -4  -8  147.79    9.60
   0   4   8  147.19   10.60
   0   4   8  149.79    9.90
   0   4   8  163.78    9.70
   0   4   8  159.08    9.80
   0   4   8  152.08   10.50
  -1  -4  -8    2.40    0.50
  -1  -4  -8    2.00    0.40
  -1  -4  -8    2.50    0.80
  -1  -4  -8    2.80    0.50
   1   4   8    2.20    1.30
   1   4   8    2.30    0.80
   1   4   8    1.30    1.30
   1   4   8    2.00    0.70
   1   4   8    1.80    1.20
   1   4   8    2.70    0.60
  -2  -4  -8   11.80    1.20
  -2  -4  -8   11.00    1.10
  -2  -4  -8   11.70    1.60
  -2  -4  -8   11.20    1.00
   2   4   8   12.70    1.60
   2   4   8   12.10    2.50
   2   4   8    9.80    2.00
   2   4   8    9.50    2.30
  -3  -4  -8    6.00    0.80
  -3  -4  -8    6.10    0.90
  -3  -4  -8    5.60    1.30
   3   4   8    4.90    1.80
   3   4   8    8.50    2.20
   3   4   8    7.00    1.80
   3   4   8    5.70    1.10
  -4  -4  -8    3.20    1.00
  -4  -4  -8    3.20    0.60
  -4  -4  -8    3.20    0.70
  -4  -4  -8    3.70    0.60
   4   4   8    2.60    1.50
   4   4   8    2.10    0.90
   4   4   8    2.80    1.40
   4   4   8    3.40    1.80
  -5  -4  -8    0.30    0.40
  -5  -4  -8    0.00    0.40
  -5  -4  -8    0.00    0.30
   5   4   8   -0.90    1.00
   5   4   8    0.70    1.80
   5   4   8    0.20    0.70
   5   4   8    0.50    1.40
  -6  -4  -8    4.80    0.90
  -6  -4  -8    4.20    0.80
   6   4   8    7.80    2.40
   6   4   8    4.50    2.00
   6   4   8    7.00    2.60
  -7  -4  -8    0.10    0.50
  -7  -4  -8   -0.60    0.40
   7   4   8   -0.90    1.50
   7   4   8    0.50    1.90
  -8  -4  -8    0.50    0.50
  -8  -4  -8    0.70    0.60
   8   4   8    0.10    1.60
   8   4   8    1.40    1.90
   9   4   8    0.50    1.80
   5  -5  -8    0.60    0.50
   5  -5  -8    3.50    1.30
  -5   5   8    1.00    0.60
  -5   5   8    1.70    0.50
  -5   5   8    0.40    0.60
   4  -5  -8    0.10    0.50
   4  -5  -8    2.40    1.10
  -4   5   8    1.10    0.60
  -4   5   8    1.00    0.50
  -4   5   8   -0.40    0.50
   3  -5  -8    2.10    0.70
   3  -5  -8    2.20    0.50
   3  -5  -8    4.50    1.20
  -3   5   8    1.80    0.70
  -3   5   8    2.90    0.60
  -3   5   8    2.40    0.80
  -3   5   8    2.50    0.70
   2  -5  -8   85.19    5.10
   2  -5  -8   75.89    5.20
  -2   5   8   70.09    5.10
  -2   5   8   76.49    5.20
  -2   5   8   85.69    5.30
  -2   5   8   76.39    5.40
  -2   5   8   80.09    6.20
   1  -5  -8   12.40    1.50
   1  -5  -8    9.50    1.10
   1  -5  -8    9.00    1.10
  -1   5   8    7.40    1.80
  -1   5   8   10.70    1.80
  -1   5   8   10.30    1.30
  -1   5   8   11.90    1.60
  -1   5   8   10.10    1.20
  -1   5   8    9.80    1.20
   0  -5  -8   46.30    3.20
   0  -5  -8   49.70    3.70
   0  -5  -8   45.80    3.30
   0   5   8   50.19    3.40
   0   5   8   48.40    4.40
   0   5   8   50.39    3.40
   0   5   8   49.10    4.20
   0   5   8   48.40    3.40
   0   5   8   46.90    3.60
  -1  -5  -8   95.69    6.40
  -1  -5  -8   92.39    5.80
  -1  -5  -8   98.39    5.90
  -1  -5  -8   93.79    5.90
   1   5   8   94.99    7.10
   1   5   8   82.69    6.00
   1   5   8   94.39    5.90
   1   5   8   84.79    6.20
   1   5   8   86.59    7.00
  -2  -5  -8   30.00    2.10
  -2  -5  -8   28.60    2.20
  -2  -5  -8   28.90    2.60
   2   5   8   24.40    3.30
   2   5   8   33.30    3.60
   2   5   8   32.50    2.60
   2   5   8   29.00    3.10
  -3  -5  -8    2.70    0.90
  -3  -5  -8    2.90    0.50
  -3  -5  -8    3.60    0.70
   3   5   8    2.80    1.60
   3   5   8    1.90    0.90
   3   5   8    1.50    1.30
   3   5   8    2.90    1.60
  -4  -5  -8    3.00    0.60
  -4  -5  -8    2.30    0.90
  -4  -5  -8    2.30    0.70
  -4  -5  -8    3.20    0.90
  -4  -5  -8    3.40    0.60
   4   5   8    3.70    1.70
   4   5   8    2.10    1.80
   4   5   8    2.10    0.90
   4   5   8    0.40    1.30
  -5  -5  -8    1.40    0.50
  -5  -5  -8    1.40    0.80
  -5  -5  -8    0.20    0.50
  -5  -5  -8    1.70    0.80
   5   5   8    1.50    0.90
   5   5   8    1.00    1.40
   5   5   8    1.00    1.80
   5   5   8    1.00    1.40
  -6  -5  -8    2.00    0.70
  -6  -5  -8    1.40    0.50
  -6  -5  -8    3.00    1.00
   6   5   8    0.30    1.80
   6   5   8    3.00    1.10
   6   5   8    0.20    1.20
  -7  -5  -8   15.00    1.50
   7   5   8   11.20    3.10
  -8  -5  -8    2.60    0.70
   8   5   8   -0.80    1.40
   8   5   8    2.40    2.30
   5  -6  -8    0.00    0.50
  -5   6   8   -0.50    0.50
  -5   6   8    0.60    0.50
  -5   6   8    0.00    0.40
   4  -6  -8    5.70    0.90
   4  -6  -8   11.30    1.90
  -4   6   8    6.20    1.00
  -4   6   8    7.10    0.90
  -4   6   8    8.30    1.20
  -4   6   8    7.60    1.10
   3  -6  -8    0.00    0.50
   3  -6  -8    0.70    0.40
   3  -6  -8    1.00    1.00
  -3   6   8    0.00    0.60
  -3   6   8    0.30    0.40
  -3   6   8   -0.20    0.50
  -3   6   8    1.10    0.60
   2  -6  -8   27.60    2.20
   2  -6  -8   32.80    2.20
  -2   6   8   22.70    2.10
  -2   6   8   28.80    2.50
  -2   6   8   24.30    2.50
  -2   6   8   26.90    3.50
  -2   6   8   30.00    2.30
   1  -6  -8   60.49    3.90
   1  -6  -8   57.09    3.90
  -1   6   8   56.09    4.10
  -1   6   8   55.39    4.20
  -1   6   8   56.69    4.00
  -1   6   8   62.49    5.20
   0  -6  -8   14.50    1.40
   0  -6  -8   13.70    1.30
   0  -6  -8   17.20    1.80
   0   6   8   16.00    1.90
   0   6   8   16.60    1.50
   0   6   8   17.10    2.50
   0   6   8   15.40    2.50
   0   6   8   18.70    1.80
  -1  -6  -8   71.39    4.60
  -1  -6  -8   70.19    4.60
  -1  -6  -8   70.99    5.10
   1   6   8   59.59    5.60
   1   6   8   70.79    5.10
   1   6   8   70.39    5.80
   1   6   8   72.29    4.60
  -2  -6  -8   24.70    1.80
  -2  -6  -8   23.10    1.80
  -2  -6  -8   20.40    2.20
   2   6   8   27.30    3.70
   2   6   8   23.90    3.00
   2   6   8   27.60    3.30
   2   6   8   23.00    2.30
  -3  -6  -8    2.10    0.50
  -3  -6  -8    2.60    0.60
  -3  -6  -8    1.50    0.70
  -3  -6  -8    3.80    0.80
   3   6   8    1.70    1.00
   3   6   8    3.70    1.90
   3   6   8    3.80    1.60
   3   6   8    2.30    1.70
  -4  -6  -8    0.20    0.30
  -4  -6  -8    0.60    0.70
  -4  -6  -8    0.00    0.50
  -4  -6  -8    0.70    0.40
   4   6   8    0.20    1.10
   4   6   8   -0.50    1.20
   4   6   8   -0.20    1.70
   4   6   8   -0.50    0.70
  -5  -6  -8   51.69    3.70
  -5  -6  -8   44.50    4.30
  -5  -6  -8   62.39    4.10
   5   6   8   55.69    4.20
   5   6   8   66.59    6.30
   5   6   8   47.80    4.60
  -6  -6  -8   29.40    2.50
  -6  -6  -8   42.20    3.10
   6   6   8   35.00    3.00
   6   6   8   25.30    4.30
   6   6   8   45.30    5.20
  -7  -6  -8    0.70    0.50
  -7  -6  -8    1.10    1.10
   7   6   8    0.30    2.10
   7   6   8    0.10    1.60
  -8  -6  -8    5.20    1.40
  -8  -6  -8    3.00    0.70
   8   6   8   -1.10    1.40
   8   6   8    1.60    2.00
   4  -7  -8    4.40    0.70
  -4   7   8    5.50    0.70
  -4   7   8    4.80    0.90
  -4   7   8    3.20    0.80
  -4   7   8    6.70    1.00
   3  -7  -8    0.90    0.50
   3  -7  -8    1.50    1.10
   3  -7  -8    0.80    0.40
  -3   7   8    1.40    0.50
  -3   7   8    0.50    0.60
  -3   7   8    0.00    0.50
  -3   7   8    0.60    0.60
   2  -7  -8   15.30    1.30
   2  -7  -8   13.50    1.30
  -2   7   8   15.10    1.40
  -2   7   8   12.30    1.50
  -2   7   8    9.90    2.00
   1  -7  -8   15.20    1.50
   1  -7  -8   13.80    1.40
   1  -7  -8   19.80    2.00
  -1   7   8   16.90    1.70
  -1   7   8   13.00    1.80
  -1   7   8   12.90    1.60
  -1   7   8   16.90    2.80
   0  -7  -8    0.30    0.30
   0  -7  -8    0.20    0.50
   0   7   8   -0.30    0.40
   0   7   8    1.00    1.30
   0   7   8   -0.90    0.60
   0   7   8    0.40    0.70
  -1  -7  -8    8.30    1.00
  -1  -7  -8    8.20    1.30
  -1  -7  -8    7.70    0.90
   1   7   8    6.80    1.80
   1   7   8    6.40    1.40
   1   7   8    5.70    1.00
   1   7   8    5.60    1.80
  -2  -7  -8    4.10    1.00
  -2  -7  -8    3.40    0.60
  -2  -7  -8    3.80    0.60
   2   7   8    2.70    1.50
   2   7   8    2.50    1.60
   2   7   8    3.70    1.10
  -3  -7  -8   65.49    4.10
  -3  -7  -8   64.49    4.80
  -3  -7  -8   59.29    4.20
   3   7   8   45.40    5.40
   3   7   8   70.49    6.20
   3   7   8   74.49    4.90
   3   7   8   56.99    5.10
  -4  -7  -8   33.30    3.20
  -4  -7  -8   39.80    2.90
  -4  -7  -8   36.30    2.50
  -4  -7  -8   34.60    2.70
   4   7   8   37.80    3.70
   4   7   8   37.20    4.40
   4   7   8   42.70    3.40
   4   7   8   36.50    4.70
  -5  -7  -8   26.80    2.20
  -5  -7  -8   20.90    1.80
  -5  -7  -8   18.90    2.30
   5   7   8   33.40    4.60
   5   7   8   12.60    3.00
   5   7   8   19.60    2.50
   5   7   8   25.00    2.40
  -6  -7  -8   12.70    1.70
  -6  -7  -8    9.10    1.70
  -6  -7  -8    8.50    1.20
   6   7   8   13.20    3.60
   6   7   8    4.00    2.10
   6   7   8   11.30    1.90
  -7  -7  -8    0.30    0.50
  -7  -7  -8    0.90    0.90
   7   7   8   -1.00    1.20
   7   7   8    2.10    2.40
   7   7   8    0.40    0.90
  -8  -7  -8    0.00    1.00
  -8  -7  -8   -0.50    0.40
   8   7   8    0.10    2.00
   8   7   8    0.30    1.70
   3  -8  -8   -0.60    0.90
   3  -8  -8    0.50    0.40
  -3   8   8    0.20    0.50
  -3   8   8    0.10    0.40
  -3   8   8   -0.20    0.50
   2  -8  -8   -0.10    0.40
   2  -8  -8    0.70    0.70
  -2   8   8    0.60    0.50
  -2   8   8   -0.70    1.20
  -2   8   8    0.10    0.60
  -2   8   8   -0.30    0.50
   1  -8  -8    2.80    1.00
   1  -8  -8    2.60    0.60
  -1   8   8    1.80    0.70
  -1   8   8    1.60    1.40
  -1   8   8    0.70    0.60
  -1   8   8    2.40    0.80
   0  -8  -8    3.40    0.60
   0  -8  -8    4.10    1.00
   0  -8  -8    4.30    0.60
   0   8   8    3.30    0.90
   0   8   8    1.70    0.70
   0   8   8    3.20    1.50
   0   8   8    4.80    1.10
  -1  -8  -8    4.90    1.10
  -1  -8  -8    4.50    0.70
  -1  -8  -8    4.00    0.70
   1   8   8    4.20    1.10
   1   8   8    4.20    0.80
   1   8   8    4.60    1.70
  -2  -8  -8    2.30    0.60
  -2  -8  -8    1.80    0.80
  -2  -8  -8    1.90    0.50
   2   8   8    1.90    1.00
   2   8   8    1.30    1.30
  -3  -8  -8   43.10    2.90
  -3  -8  -8   40.80    3.50
  -3  -8  -8   40.60    3.00
   3   8   8   34.10    3.70
   3   8   8   42.20    4.60
   3   8   8   51.89    5.60
   3   8   8   45.20    3.60
  -4  -8  -8    0.50    0.50
  -4  -8  -8    1.80    0.80
  -4  -8  -8    1.80    0.40
   4   8   8    1.70    0.90
   4   8   8    1.30    2.10
   4   8   8    1.40    1.60
   4   8   8    2.40    1.40
  -5  -8  -8    1.80    0.60
  -5  -8  -8    0.90    0.70
  -5  -8  -8    0.70    0.70
   5   8   8    2.10    1.50
   5   8   8   -0.30    1.50
   5   8   8   -0.40    1.80
   5   8   8    0.30    0.80
  -6  -8  -8    1.90    0.90
  -6  -8  -8    0.20    0.50
  -6  -8  -8    0.70    0.50
   6   8   8    1.00    1.10
   6   8   8    0.10    1.60
   6   8   8    2.80    2.50
  -7  -8  -8    0.60    0.90
  -7  -8  -8    0.10    0.50
   7   8   8   -0.70    0.80
   7   8   8   -0.70    2.10
   7   8   8    0.10    1.60
   2  -9  -8    5.00    1.30
   2  -9  -8    2.40    0.60
  -2   9   8    2.50    1.80
  -2   9   8    2.70    0.70
  -2   9   8    0.70    0.60
  -2   9   8    2.40    0.80
   1  -9  -8    2.40    0.90
   1  -9  -8    2.60    0.60
  -1   9   8    2.60    0.90
  -1   9   8    1.60    0.60
  -1   9   8    1.80    0.60
  -1   9   8    1.60    1.50
   0  -9  -8    2.70    0.50
   0  -9  -8    4.00    1.00
   0  -9  -8    3.20    0.60
   0   9   8    1.50    0.70
   0   9   8    2.30    0.70
   0   9   8    0.80    1.50
   0   9   8    2.80    1.00
  -1  -9  -8    1.10    0.70
  -1  -9  -8    1.20    0.50
  -1  -9  -8    0.70    0.40
   1   9   8    1.00    0.60
   1   9   8    1.80    0.90
  -2  -9  -8    4.60    0.70
  -2  -9  -8    4.30    1.00
  -2  -9  -8    3.70    0.60
   2   9   8    2.70    1.00
   2   9   8    4.10    1.60
  -3  -9  -8    0.10    0.40
  -3  -9  -8    0.40    0.30
  -3  -9  -8    0.30    0.50
   3   9   8    0.20    1.10
   3   9   8    0.00    0.60
   3   9   8   -0.80    1.50
  -4  -9  -8    0.50    0.40
  -4  -9  -8   -0.10    0.30
  -4  -9  -8    0.30    0.60
   4   9   8    0.80    1.10
   4   9   8   -0.30    1.20
   4   9   8    1.00    2.20
   4   9   8    0.40    0.70
  -5  -9  -8    3.90    1.00
  -5  -9  -8    1.30    0.50
  -5  -9  -8    3.80    1.00
   5   9   8    1.20    1.50
   5   9   8    1.80    1.00
   5   9   8    4.10    1.50
   5   9   8    3.10    2.50
  -6  -9  -8    0.30    0.80
  -6  -9  -8    0.00    0.50
  -6  -9  -8    0.10    0.60
   6   9   8    0.10    1.30
   6   9   8    0.30    0.80
   6   9   8   -0.20    2.40
  -1  10   8    0.20    0.60
  -1  10   8    0.80    0.60
  -1  10   8    1.70    0.90
  -1  10   8    0.30    1.30
   0 -10  -8    1.10    0.50
   0 -10  -8    0.90    0.70
   0 -10  -8    1.40    0.40
   0  10   8   -0.10    0.50
   0  10   8    1.30    1.50
   0  10   8    0.80    0.80
   0  10   8    0.50    0.60
  -1 -10  -8    0.50    0.40
  -1 -10  -8    0.90    0.70
  -1 -10  -8    0.00    0.40
   1  10   8    1.30    1.20
   1  10   8    0.60    0.60
   1  10   8   -0.20    0.60
  -2 -10  -8    4.80    0.70
  -2 -10  -8    6.60    0.80
  -2 -10  -8    5.70    1.20
   2  10   8    6.40    1.70
   2  10   8    5.00    1.30
  -3 -10  -8    5.60    0.80
  -3 -10  -8    5.20    1.10
  -3 -10  -8    6.90    0.70
   3  10   8    6.40    1.60
  -4 -10  -8    1.60    0.70
  -4 -10  -8    0.50    0.50
   4  10   8    1.30    1.90
   4  10   8    0.40    0.60
   4  10   8    1.30    1.10
  -5 -10  -8    2.30    0.60
  -5 -10  -8    1.20    0.70
   5  10   8    6.30    3.10
   5  10   8    5.00    1.40
   5  10   8    1.80    0.90
   5  10   8    3.70    2.10
   1   6  -9    0.10    0.40
  -1  -6   9    0.20    0.50
  -1  -6   9    0.70    0.50
   0   6  -9    1.00    0.50
   0   6  -9    0.30    0.50
   0  -6   9    1.10    0.50
   0  -6   9    0.20    0.60
   0  -6   9    1.70    0.60
  -1   6  -9    0.50    0.60
  -1   6  -9    0.10    0.50
   1  -6   9    0.00    0.60
   1  -6   9   -0.20    0.60
   1  -6   9    0.30    0.40
  -2   6  -9   -0.60    0.60
  -2   6  -9    0.20    0.60
  -2   6  -9   -0.10    0.50
   2  -6   9    0.50    0.60
   2  -6   9   -0.20    0.40
   2  -6   9   -0.20    0.60
   3   5  -9    0.90    1.10
   3   5  -9    0.70    0.40
  -3  -5   9    1.10    0.50
  -3  -5   9    0.60    0.50
  -3  -5   9    0.40    0.50
   2   5  -9    5.50    0.70
   2   5  -9    4.20    0.90
   2   5  -9    9.40    1.80
  -2  -5   9    7.20    0.90
  -2  -5   9    6.30    1.00
   1   5  -9    1.20    1.50
   1   5  -9    0.60    0.50
   1   5  -9    0.20    0.60
  -1  -5   9    0.60    0.80
  -1  -5   9    0.60    0.50
  -1  -5   9    0.70    0.50
   0   5  -9   -0.30    0.40
   0   5  -9    0.00    0.50
   0  -5   9    0.40    0.60
   0  -5   9    0.10    0.60
   0  -5   9    0.00    0.40
  -1   5  -9   -0.30    0.50
  -1   5  -9    0.70    0.50
   1  -5   9    0.50    0.50
   1  -5   9    0.20    0.70
   1  -5   9    0.30    0.70
  -2   5  -9    3.00    0.70
  -2   5  -9    1.20    0.60
   2  -5   9    3.20    1.30
   2  -5   9    1.20    0.80
   2  -5   9    0.80    0.70
  -3   5  -9    3.80    0.90
  -3   5  -9    3.90    0.80
  -3   5  -9    5.40    1.00
   3  -5   9    3.00    1.10
   3  -5   9    2.50    0.90
  -4   5  -9    0.20    0.60
  -4   5  -9    0.50    0.70
  -4   5  -9    0.20    0.70
  -4   5  -9    0.40    0.60
   4  -5   9    0.50    0.80
   4  -5   9    0.70    0.70
   4   4  -9    0.40    0.30
  -4  -4   9    0.70    0.50
   3   4  -9    1.10    0.40
  -3  -4   9    1.20    0.60
  -3  -4   9    0.70    0.50
   2   4  -9   -0.10    0.50
   2   4  -9   -0.20    0.30
  -2  -4   9    0.20    0.40
  -2  -4   9    0.10    0.50
  -2  -4   9    0.40    0.50
   1   4  -9    0.40    0.40
   1   4  -9    1.40    0.60
  -1  -4   9    0.90    0.50
  -1  -4   9    0.90    0.60
  -1  -4   9    0.00    0.60
   0   4  -9    0.00    0.40
   0   4  -9    0.20    0.50
   0  -4   9   -0.10    0.60
   0  -4   9   -0.20    0.40
   0  -4   9   -0.20    0.70
   0  -4   9    0.10    0.60
  -1   4  -9    0.30    0.50
  -1   4  -9    0.70    0.60
   1  -4   9    0.30    0.90
   1  -4   9    0.70    0.80
   1  -4   9    1.00    0.50
   1  -4   9    1.40    0.80
  -2   4  -9    3.50    0.80
  -2   4  -9    3.20    0.70
  -2   4  -9    2.60    0.70
   2  -4   9    3.60    1.30
   2  -4   9    4.40    1.10
   2  -4   9    2.90    1.10
  -3   4  -9   34.50    2.40
  -3   4  -9   29.10    2.20
  -3   4  -9   29.90    2.50
  -3   4  -9   24.00    2.30
   3  -4   9   26.50    2.80
  -4   4  -9    6.80    1.20
  -4   4  -9   10.60    1.50
  -4   4  -9   11.80    1.30
  -4   4  -9   13.70    1.50
   4  -4   9    6.10    1.40
  -5   4  -9   -0.10    0.50
  -5   4  -9    0.10    0.60
  -5   4  -9   -0.10    0.70
  -5   4  -9   -0.20    0.50
   5  -4   9    0.20    0.90
   5  -4   9   -0.10    0.60
   4   3  -9   -0.10    0.30
  -4  -3   9   -0.20    0.50
   3   3  -9    2.50    0.50
  -3  -3   9    3.90    0.70
   2   3  -9    1.80    0.60
   2   3  -9    0.90    0.40
  -2  -3   9    1.10    0.50
  -2  -3   9    0.20    0.50
  -2  -3   9    1.50    0.60
   1   3  -9    0.60    0.50
   1   3  -9   -0.50    0.30
  -1  -3   9    0.10    0.60
  -1  -3   9    0.50    0.60
  -1  -3   9    0.50    0.40
  -1  -3   9    0.70    0.50
  -1  -3   9    0.20    0.50
   0   3  -9    9.00    1.00
   0   3  -9    6.80    1.10
   0   3  -9    6.70    0.80
   0  -3   9    6.50    1.20
   0  -3   9    8.30    1.30
   0  -3   9    8.00    1.40
   0  -3   9    7.10    0.90
  -1   3  -9   36.60    2.50
  -1   3  -9   33.70    2.50
  -1   3  -9   34.00    2.70
   1  -3   9   35.40    3.00
   1  -3   9   38.00    3.00
  -2   3  -9   65.49    4.80
  -2   3  -9   65.69    4.70
  -2   3  -9   68.49    4.60
   2  -3   9   70.99    5.20
   2  -3   9   75.29    5.50
   2  -3   9   75.79    5.00
  -3   3  -9    0.40    0.60
  -3   3  -9    2.40    0.60
  -3   3  -9    1.40    0.70
   3  -3   9    1.20    0.70
   3  -3   9    0.80    1.00
   3  -3   9    1.30    1.10
  -4   3  -9    0.30    0.60
  -4   3  -9    0.40    0.50
  -4   3  -9   -0.10    0.60
  -4   3  -9    0.40    0.70
   4  -3   9    0.50    1.00
   4  -3   9   -0.20    0.90
  -5   3  -9   -0.20    0.50
  -5   3  -9   -0.20    0.50
  -5   3  -9    0.00    0.60
  -5   3  -9    0.10    0.60
   5  -3   9   -0.10    1.40
   5  -3   9   -0.20    0.90
   5  -3   9    0.00    0.70
  -6   3  -9    0.00    0.60
  -6   3  -9    0.30    0.50
  -6   3  -9    1.30    0.70
   6  -3   9    1.70    1.80
   6  -3   9    0.00    0.90
   6  -3   9   -0.10    0.80
   5   2  -9    0.00    0.30
  -5  -2   9    0.10    0.40
  -5  -2   9    0.00    0.40
   4   2  -9    1.00    0.40
  -4  -2   9    1.70    0.60
  -4  -2   9    1.80    0.60
   3   2  -9    0.20    0.40
  -3  -2   9    0.40    0.50
  -3  -2   9    0.50    0.40
   2   2  -9    4.60    0.70
   2   2  -9    3.70    0.60
  -2  -2   9    4.30    0.80
  -2  -2   9    4.20    0.80
  -2  -2   9    4.20    0.80
  -2  -2   9    3.40    0.60
   1   2  -9    8.30    0.90
   1   2  -9    7.70    1.10
  -1  -2   9    9.60    1.00
  -1  -2   9    9.40    1.10
  -1  -2   9    8.30    1.40
  -1  -2   9    7.70    1.20
  -1  -2   9    8.60    1.20
   0   2  -9   40.00    2.80
   0   2  -9   39.10    3.00
   0  -2   9   38.60    3.30
   0  -2   9   39.00    2.90
   0  -2   9   42.80    2.70
   0  -2   9   43.00    3.30
   0  -2   9   40.70    3.50
  -1   2  -9    0.20    0.40
  -1   2  -9    0.00    0.40
  -1   2  -9   -0.20    0.50
   1  -2   9   -0.90    0.70
   1  -2   9    1.00    1.00
   1  -2   9    0.00    0.80
  -2   2  -9   18.20    1.60
  -2   2  -9   20.20    1.70
  -2   2  -9   19.10    1.80
   2  -2   9   18.50    2.60
   2  -2   9   18.80    2.70
   2  -2   9   21.60    2.20
  -3   2  -9    6.50    0.80
  -3   2  -9    4.40    0.90
  -3   2  -9    4.70    0.90
   3  -2   9    3.90    1.20
   3  -2   9    2.90    1.30
   3  -2   9    2.90    1.40
  -4   2  -9    4.40    0.90
  -4   2  -9    4.40    0.90
  -4   2  -9    4.30    0.90
  -4   2  -9    3.70    0.70
   4  -2   9    2.60    1.30
   4  -2   9    4.40    1.20
   4  -2   9    4.90    1.50
  -5   2  -9    0.40    0.60
  -5   2  -9    0.20    0.50
  -5   2  -9    0.20    0.50
  -5   2  -9    0.00    0.50
   5  -2   9    1.10    1.10
   5  -2   9   -0.30    0.90
  -6   2  -9    3.50    0.70
  -6   2  -9    2.00    0.80
  -6   2  -9    3.00    0.80
   6  -2   9    0.30    0.80
   6  -2   9    1.10    1.10
  -7   2  -9    4.10    0.90
  -7   2  -9    4.70    0.90
  -7   2  -9   -0.10    0.50
   7  -2   9    1.30    1.10
   5   1  -9   -0.20    0.30
  -5  -1   9   -0.10    0.40
  -5  -1   9    0.40    0.50
   4   1  -9    3.20    0.60
  -4  -1   9    3.80    0.70
  -4  -1   9    2.90    0.70
   3   1  -9    0.10    0.40
  -3  -1   9    0.70    0.50
  -3  -1   9    1.50    0.60
   2   1  -9    0.40    0.40
   2   1  -9   -0.20    0.40
  -2  -1   9    0.00    0.50
  -2  -1   9   -0.10    0.40
  -2  -1   9    0.30    0.50
   1   1  -9    1.10    0.50
   1   1  -9   -0.50    0.40
  -1  -1   9    0.10    0.40
  -1  -1   9    0.40    0.40
  -1  -1   9    1.00    0.70
  -1  -1   9   -0.20    0.50
  -1  -1   9    0.30    0.40
  -1  -1   9    0.60    0.80
   0   1  -9    5.40    0.80
   0   1  -9    5.20    1.00
   0  -1   9    5.80    0.90
   0  -1   9    5.00    1.40
   0  -1   9    4.70    1.20
   0  -1   9    6.20    1.20
  -1   1  -9    6.00    0.80
  -1   1  -9    5.50    1.00
   1  -1   9    6.80    0.90
   1  -1   9    8.00    1.50
   1  -1   9    4.50    1.30
   1  -1   9    5.50    1.50
  -2   1  -9    7.00    1.00
  -2   1  -9    7.50    1.00
  -2   1  -9    8.30    0.90
   2  -1   9    7.00    1.70
   2  -1   9    5.80    1.30
   2  -1   9    8.10    1.80
  -3   1  -9    1.80    0.50
  -3   1  -9    0.90    0.50
  -3   1  -9    4.60    0.90
   3  -1   9    0.10    1.10
   3  -1   9    1.00    0.90
   3  -1   9   -0.40    1.00
  -4   1  -9    1.20    0.50
  -4   1  -9    1.30    0.60
  -4   1  -9    1.10    0.60
   4  -1   9    1.10    1.20
   4  -1   9    0.90    1.10
   4  -1   9   -0.70    1.10
  -5   1  -9    0.80    0.60
  -5   1  -9    0.20    0.50
  -5   1  -9    0.10    0.40
  -5   1  -9    0.00    0.50
   5  -1   9    0.20    0.90
   5  -1   9   -0.10    1.10
   5  -1   9    1.30    1.20
  -6   1  -9   15.60    1.40
  -6   1  -9   13.80    1.50
   6  -1   9   12.30    2.10
  -7   1  -9   -0.70    0.60
   7  -1   9    0.10    1.00
   5   0  -9    0.40    0.40
  -5   0   9   -0.30    0.40
  -5   0   9   -0.20    0.40
   4   0  -9    0.40    0.40
  -4   0   9   -0.40    0.40
  -4   0   9    0.10    0.50
   3   0  -9    1.30    0.50
  -3   0   9    0.60    0.50
  -3   0   9    0.80    0.50
  -3   0   9    1.00    0.60
   2   0  -9    1.50    0.50
   2   0  -9    2.50    0.60
  -2   0   9    2.10    0.70
  -2   0   9    1.50    0.60
  -2   0   9    2.30    0.70
   1   0  -9   19.50    1.60
   1   0  -9   18.10    1.50
  -1   0   9   20.90    1.70
  -1   0   9   16.80    1.60
  -1   0   9   25.00    2.30
  -1   0   9   20.80    1.90
   0   0  -9    2.60    0.60
   0   0  -9    3.40    0.60
   0   0   9    3.80    1.10
   0   0   9    3.00    0.70
   0   0   9    2.50    0.50
   0   0   9    3.30    1.30
   0   0   9    2.30    0.90
  -1   0  -9    5.80    0.90
  -1   0  -9    4.80    0.70
   1   0   9    9.20    1.80
   1   0   9    7.60    1.90
   1   0   9    6.30    0.90
   1   0   9    8.10    1.50
  -2   0  -9   47.40    3.20
  -2   0  -9   47.40    3.40
  -2   0  -9   45.30    3.40
   2   0   9   57.99    4.30
   2   0   9   53.29    4.50
   2   0   9   51.19    4.50
  -3   0  -9   58.29    4.10
  -3   0  -9   62.29    4.10
  -3   0  -9   59.49    3.90
   3   0   9   59.99    4.90
   3   0   9   60.19    5.00
   3   0   9   58.19    5.20
  -4   0  -9   25.00    1.90
  -4   0  -9   29.10    2.20
  -4   0  -9   22.20    2.00
   4   0   9   28.70    3.70
   4   0   9   25.80    3.40
   4   0   9   22.50    2.90
  -5   0  -9    1.50    0.60
  -5   0  -9    1.70    0.60
  -5   0  -9    1.10    0.50
  -5   0  -9    1.80    0.70
   5   0   9    1.30    1.30
   5   0   9    1.10    1.30
   5   0   9    1.00    1.20
  -6   0  -9    2.10    0.70
   6   0   9    0.20    1.10
   6   0   9    1.60    1.30
   6   0   9    1.20    1.20
  -7   0  -9    0.80    0.60
   7   0   9    0.10    1.20
  -8   0  -9    0.10    0.50
   8   0   9    0.00    1.00
   5  -1  -9   -0.10    0.40
  -5   1   9    0.50    0.40
  -5   1   9   -0.60    0.40
   4  -1  -9    2.90    0.60
  -4   1   9    3.10    0.70
  -4   1   9    3.30    0.60
   3  -1  -9   14.70    1.40
  -3   1   9   17.30    1.50
  -3   1   9   16.90    1.50
  -3   1   9   14.70    1.50
   2  -1  -9    3.80    0.70
   2  -1  -9    3.60    0.60
  -2   1   9    3.50    0.80
  -2   1   9    4.00    0.80
  -2   1   9    4.30    0.90
   1  -1  -9    9.80    1.10
   1  -1  -9   10.20    1.10
  -1   1   9   13.60    2.00
  -1   1   9   12.90    1.70
  -1   1   9   11.00    1.30
  -1   1   9    9.90    1.20
   0  -1  -9   35.80    3.20
   0  -1  -9   40.40    2.80
   0  -1  -9   42.30    2.90
   0   1   9   52.79    3.60
   0   1   9   46.40    3.00
   0   1   9   43.70    3.90
   0   1   9   40.20    2.90
   0   1   9   37.40    3.30
  -1  -1  -9   20.60    1.80
  -1  -1  -9   17.80    2.10
  -1  -1  -9   23.90    1.70
   1   1   9   26.80    2.70
   1   1   9   24.50    1.80
   1   1   9   21.90    2.80
   1   1   9   25.70    2.50
   1   1   9   26.60    2.00
  -2  -1  -9   16.30    1.90
  -2  -1  -9   15.30    1.30
  -2  -1  -9   16.00    1.50
   2   1   9   17.70    1.50
   2   1   9   14.20    2.60
   2   1   9   17.60    1.60
   2   1   9   18.40    2.70
   2   1   9   19.00    3.10
  -3  -1  -9   22.70    1.80
  -3  -1  -9   24.10    1.70
  -3  -1  -9   25.80    1.90
  -3  -1  -9   24.80    1.90
   3   1   9   27.30    3.30
   3   1   9   24.10    3.00
   3   1   9   23.10    2.80
  -4  -1  -9    0.30    0.30
  -4  -1  -9    0.20    0.40
  -4  -1  -9   -0.60    0.40
  -4  -1  -9   -0.40    0.50
   4   1   9    0.30    1.10
   4   1   9    0.00    1.40
   4   1   9   -0.40    1.00
  -5  -1  -9    2.80    0.70
  -5  -1  -9    3.30    0.70
  -5  -1  -9    2.70    0.70
   5   1   9    3.50    1.60
   5   1   9    3.60    1.70
   5   1   9    2.60    1.70
  -6  -1  -9   -0.10    0.40
  -6  -1  -9   -0.10    0.50
   6   1   9   -0.10    1.30
   6   1   9    1.10    1.30
   6   1   9   -0.30    0.90
  -7  -1  -9   -0.10    0.50
  -7  -1  -9   -0.50    0.50
   7   1   9   -0.50    1.10
  -8  -1  -9   -0.50    0.40
  -8  -1  -9    0.30    0.50
   8   1   9   -1.00    1.10
   5  -2  -9    0.80    0.50
  -5   2   9    1.20    0.50
  -5   2   9    1.20    0.60
   4  -2  -9    0.50    0.50
  -4   2   9    1.70    0.60
  -4   2   9    1.80    0.60
   3  -2  -9    1.40    0.60
   3  -2  -9    0.80    0.40
  -3   2   9    0.80    0.50
  -3   2   9    0.60    0.60
  -3   2   9    1.00    0.60
   2  -2  -9    5.90    0.80
   2  -2  -9    7.30    0.90
  -2   2   9    7.30    1.00
  -2   2   9    6.30    1.70
  -2   2   9    4.40    0.80
  -2   2   9    6.00    1.10
   1  -2  -9   29.70    2.30
   1  -2  -9   32.10    2.60
   1  -2  -9   28.40    2.20
  -1   2   9   34.10    2.80
  -1   2   9   33.40    2.40
  -1   2   9   29.50    3.10
  -1   2   9   32.00    2.40
   0  -2  -9   -0.20    0.30
   0  -2  -9    0.00    0.50
   0  -2  -9   -0.20    0.30
   0   2   9    1.00    1.10
   0   2   9    1.00    0.90
   0   2   9   -0.30    0.40
   0   2   9   -0.20    0.50
   0   2   9   -0.60    0.40
  -1  -2  -9    7.60    1.40
  -1  -2  -9    9.10    0.80
  -1  -2  -9    6.90    0.90
   1   2   9    5.30    1.60
   1   2   9    9.20    1.10
   1   2   9    7.90    1.20
   1   2   9    8.70    1.90
   1   2   9    8.50    1.80
  -2  -2  -9   -0.10    0.30
  -2  -2  -9   -0.10    0.50
  -2  -2  -9    0.10    0.20
   2   2   9    0.90    1.20
   2   2   9   -0.10    0.50
   2   2   9    0.30    1.00
   2   2   9    0.20    1.20
   2   2   9    0.70    0.50
  -3  -2  -9   95.09    6.00
  -3  -2  -9   87.49    5.90
  -3  -2  -9   88.69    5.90
  -3  -2  -9   89.19    5.80
   3   2   9   98.09    7.30
   3   2   9   94.69    7.30
   3   2   9   99.19    5.90
   3   2   9   85.69    6.80
   3   2   9  102.29    6.10
  -4  -2  -9    0.40    0.50
  -4  -2  -9    0.10    0.40
  -4  -2  -9    0.20    0.40
   4   2   9    1.00    1.40
   4   2   9    2.50    1.50
   4   2   9    0.20    1.20
  -5  -2  -9    6.30    0.80
  -5  -2  -9    5.30    0.90
  -5  -2  -9    5.10    0.90
   5   2   9    4.00    1.80
   5   2   9    4.10    1.90
   5   2   9    3.50    1.70
  -6  -2  -9   -0.30    0.40
  -6  -2  -9    0.30    0.50
   6   2   9    0.80    1.20
   6   2   9   -0.50    1.50
   6   2   9   -0.30    1.30
  -7  -2  -9    1.00    0.60
  -7  -2  -9    2.30    0.70
   7   2   9    1.50    1.50
   7   2   9    0.00    1.50
  -8  -2  -9    0.10    0.50
  -8  -2  -9    0.50    0.60
   8   2   9    0.30    1.50
   5  -3  -9    0.20    0.40
  -5   3   9    0.00    0.40
  -5   3   9    0.00    0.50
  -5   3   9   -0.10    0.50
   4  -3  -9    0.90    0.50
  -4   3   9    1.30    0.60
  -4   3   9    0.70    0.50
  -4   3   9    0.80    0.60
   3  -3  -9   27.80    2.10
   3  -3  -9   32.80    2.30
  -3   3   9   29.50    2.30
   2  -3  -9    2.90    0.90
   2  -3  -9    2.70    0.70
   2  -3  -9    3.40    0.60
  -2   3   9    3.50    0.90
  -2   3   9    4.00    0.90
  -2   3   9    3.60    0.70
  -2   3   9    3.20    1.20
  -2   3   9    2.90    0.70
   1  -3  -9   13.80    1.30
   1  -3  -9   16.80    1.70
   1  -3  -9   13.70    1.30
  -1   3   9   12.20    2.20
  -1   3   9   14.20    1.40
  -1   3   9   13.60    1.50
  -1   3   9   16.00    1.50
  -1   3   9   12.80    1.70
   0  -3  -9    7.50    1.20
   0  -3  -9    7.50    0.90
   0  -3  -9    8.40    1.00
   0   3   9    7.30    1.10
   0   3   9    7.70    1.00
   0   3   9    8.20    1.00
   0   3   9    6.10    1.70
   0   3   9    9.60    1.80
  -1  -3  -9   26.00    2.00
  -1  -3  -9   23.90    1.80
  -1  -3  -9   26.60    2.40
   1   3   9   27.80    2.20
   1   3   9   24.70    2.90
   1   3   9   22.60    3.30
   1   3   9   28.50    2.10
   1   3   9   23.90    2.80
  -2  -3  -9  135.29    8.50
  -2  -3  -9  138.09    9.30
  -2  -3  -9  129.19    8.30
   2   3   9  133.39    9.70
   2   3   9  140.29    8.60
   2   3   9  137.09    8.70
   2   3   9  134.39    9.70
   2   3   9  137.79    9.60
  -3  -3  -9   87.09    5.30
  -3  -3  -9   73.49    6.00
  -3  -3  -9   83.19    5.30
  -3  -3  -9   83.29    5.30
   3   3   9   73.19    6.30
   3   3   9   83.19    6.80
   3   3   9   87.89    5.50
   3   3   9   79.39    6.60
   3   3   9   83.69    5.40
  -4  -3  -9   26.20    2.00
  -4  -3  -9   27.50    2.10
  -4  -3  -9   28.10    2.00
   4   3   9   26.50    3.50
   4   3   9   27.80    3.80
   4   3   9   24.40    2.20
   4   3   9   29.20    3.40
  -5  -3  -9    0.10    0.40
  -5  -3  -9    0.10    0.40
  -5  -3  -9    0.10    0.40
   5   3   9    1.10    1.40
   5   3   9    0.50    1.40
   5   3   9   -0.60    1.40
  -6  -3  -9    0.10    0.50
  -6  -3  -9    0.30    0.50
   6   3   9    1.80    1.80
   6   3   9   -0.60    1.20
   6   3   9    0.70    1.40
  -7  -3  -9   -0.20    0.50
  -7  -3  -9   -0.40    0.50
   7   3   9    1.30    1.60
   7   3   9    0.10    1.50
  -8  -3  -9    0.50    0.50
  -8  -3  -9    0.20    0.50
   8   3   9    0.50    1.60
   8   3   9   -0.60    1.20
   5  -4  -9    1.30    0.50
  -5   4   9    1.30    0.60
  -5   4   9    1.40    0.60
  -5   4   9    2.50    0.60
   4  -4  -9   -0.30    0.50
  -4   4   9    0.50    0.50
  -4   4   9    0.00    0.50
  -4   4   9    0.00    0.50
   3  -4  -9    9.80    1.10
   3  -4  -9   10.00    1.20
  -3   4   9    8.40    1.40
  -3   4   9    8.40    1.20
   2  -4  -9   19.20    1.90
   2  -4  -9   14.40    1.40
   2  -4  -9   15.90    1.40
  -2   4   9   12.30    2.20
  -2   4   9   13.40    1.60
  -2   4   9   14.30    1.60
  -2   4   9   14.90    1.60
  -2   4   9   17.00    1.70
  -2   4   9   14.10    1.50
   1  -4  -9    0.00    0.30
   1  -4  -9    0.00    0.50
   1  -4  -9    0.00    0.40
  -1   4   9   -0.30    0.50
  -1   4   9   -0.10    0.70
  -1   4   9   -0.40    1.20
  -1   4   9   -0.40    0.50
  -1   4   9   -0.20    0.50
   0  -4  -9   28.00    2.10
   0  -4  -9   29.10    2.50
   0  -4  -9   27.70    2.00
   0   4   9   28.60    2.40
   0   4   9   24.80    2.10
   0   4   9   27.10    3.30
   0   4   9   28.10    2.10
   0   4   9   25.70    2.80
  -1  -4  -9    3.10    0.60
  -1  -4  -9    1.70    0.40
  -1  -4  -9    2.40    0.80
   1   4   9    0.50    1.20
   1   4   9   -0.60    0.60
   1   4   9    1.40    1.50
   1   4   9    2.60    0.70
  -2  -4  -9  363.06   21.20
  -2  -4  -9  339.57   21.90
   2   4   9  351.86   21.30
   2   4   9  351.56   22.60
   2   4   9  322.47   22.30
   2   4   9  363.46   22.60
   2   4   9  339.47   21.50
  -3  -4  -9   25.80    1.90
  -3  -4  -9   20.60    2.40
  -3  -4  -9   26.20    2.00
   3   4   9   25.50    3.20
   3   4   9   19.30    2.90
   3   4   9   27.70    2.30
   3   4   9   29.30    3.50
  -4  -4  -9   -0.30    0.40
  -4  -4  -9   -0.40    0.30
  -4  -4  -9   -0.40    0.40
  -4  -4  -9   -0.10    0.30
   4   4   9    0.30    1.30
   4   4   9   -0.50    1.30
   4   4   9   -0.20    0.70
   4   4   9    0.10    1.40
  -5  -4  -9    7.90    0.90
  -5  -4  -9    6.30    0.90
  -5  -4  -9    8.80    1.10
   5   4   9    5.60    1.90
   5   4   9    5.50    1.90
   5   4   9    8.70    2.70
   5   4   9    7.70    1.80
  -6  -4  -9    1.90    0.70
  -6  -4  -9    1.60    0.50
   6   4   9    2.40    1.90
   6   4   9    0.50    1.50
   6   4   9    1.70    1.40
  -7  -4  -9   -0.30    0.50
  -7  -4  -9   -0.20    0.40
   7   4   9   -1.30    1.70
   7   4   9   -0.70    1.50
  -8  -4  -9    0.70    0.60
  -8  -4  -9    2.10    0.70
   8   4   9    1.30    1.90
   8   4   9    0.90    1.60
   5  -5  -9    0.70    0.50
  -5   5   9    0.30    0.50
  -5   5   9    0.50    0.40
   4  -5  -9    2.10    0.70
   4  -5  -9    4.50    1.20
  -4   5   9    0.60    0.50
  -4   5   9    1.90    0.50
  -4   5   9    1.70    0.60
   3  -5  -9    2.00    0.90
   3  -5  -9    0.40    0.40
   3  -5  -9    1.10    0.60
  -3   5   9    1.10    0.60
  -3   5   9    0.70    0.50
  -3   5   9    0.50    0.60
  -3   5   9    0.60    0.50
   2  -5  -9    0.20    0.60
   2  -5  -9    0.30    0.40
   2  -5  -9   -0.40    0.40
  -2   5   9    0.40    0.60
  -2   5   9   -0.20    1.20
  -2   5   9    0.40    0.50
  -2   5   9    0.10    0.50
  -2   5   9   -0.30    0.50
   1  -5  -9    2.70    0.90
   1  -5  -9    2.40    0.60
   1  -5  -9    2.80    0.60
  -1   5   9    1.90    0.70
  -1   5   9    2.30    0.80
  -1   5   9    1.90    1.00
  -1   5   9    1.70    1.30
  -1   5   9    0.90    0.50
  -1   5   9    1.20    0.60
   0  -5  -9  153.38   10.40
   0  -5  -9  179.48   11.10
   0  -5  -9  169.28   10.50
   0   5   9  164.98   10.60
   0   5   9  170.78   10.50
   0   5   9  176.88   11.40
   0   5   9  163.68   11.60
   0   5   9  169.68   10.80
  -1  -5  -9   91.29    6.20
  -1  -5  -9   90.49    5.60
   1   5   9   85.39    6.70
   1   5   9   90.59    5.80
   1   5   9   75.39    5.90
   1   5   9   87.39    6.70
  -2  -5  -9   10.10    1.50
  -2  -5  -9    8.90    1.00
  -2  -5  -9    8.70    1.10
   2   5   9    9.00    1.50
   2   5   9    8.00    2.00
   2   5   9    6.70    2.10
   2   5   9    9.10    2.20
  -3  -5  -9   82.39    5.00
  -3  -5  -9   83.89    5.10
  -3  -5  -9   62.49    5.60
   3   5   9   79.59    6.60
   3   5   9   83.59    6.60
   3   5   9   86.59    5.50
   3   5   9   69.99    6.00
  -4  -5  -9    3.80    1.10
  -4  -5  -9    3.60    0.80
  -4  -5  -9    2.80    0.60
  -4  -5  -9    4.30    0.70
   4   5   9    3.00    1.60
   4   5   9    4.00    2.10
   4   5   9    3.00    1.00
   4   5   9    4.00    1.90
  -5  -5  -9    8.80    1.10
  -5  -5  -9    9.20    0.80
  -5  -5  -9    7.60    1.60
  -5  -5  -9    8.90    0.90
   5   5   9    5.60    1.90
   5   5   9   13.80    3.10
   5   5   9    9.40    1.40
   5   5   9    9.80    2.10
  -6  -5  -9   -0.20    0.40
  -6  -5  -9    0.70    0.50
   6   5   9    0.50    1.80
   6   5   9    0.50    1.40
   6   5   9    0.10    1.30
   7   5   9    4.10    2.40
   7   5   9    4.70    1.90
  -8  -5  -9    1.50    0.60
   8   5   9   -0.30    1.80
   8   5   9    0.90    1.90
   4  -6  -9    2.00    1.10
   4  -6  -9    1.20    0.50
  -4   6   9    1.00    0.60
  -4   6   9    1.20    0.60
  -4   6   9    1.40    0.60
  -4   6   9    1.10    0.50
   3  -6  -9    0.20    0.30
   3  -6  -9    0.20    0.70
   3  -6  -9    0.20    0.50
  -3   6   9    0.20    0.60
  -3   6   9    0.30    0.60
  -3   6   9    0.20    0.40
  -3   6   9    0.20    0.50
   2  -6  -9   16.00    1.60
   2  -6  -9   18.30    1.50
   2  -6  -9   22.70    2.20
  -2   6   9   12.40    1.50
  -2   6   9   13.50    2.50
  -2   6   9   15.60    1.70
  -2   6   9   16.80    1.80
  -2   6   9   16.30    1.60
   1  -6  -9   16.30    1.40
   1  -6  -9   14.70    1.70
   1  -6  -9   14.50    1.40
  -1   6   9   13.40    1.70
  -1   6   9   13.40    2.40
  -1   6   9   11.40    1.40
  -1   6   9   16.30    1.50
   0  -6  -9    1.20    0.70
   0  -6  -9    0.50    0.40
   0   6   9    1.00    0.70
   0   6   9    0.70    1.10
   0   6   9    0.30    1.20
   0   6   9    0.60    0.50
   0   6   9    0.30    0.60
  -1  -6  -9    2.00    0.80
  -1  -6  -9    1.80    0.50
   1   6   9    0.70    0.80
   1   6   9    2.00    1.30
   1   6   9    1.60    0.80
   1   6   9   -0.70    1.20
  -2  -6  -9   58.89    4.60
  -2  -6  -9   61.99    4.00
  -2  -6  -9   63.09    4.00
   2   6   9   58.69    5.10
   2   6   9   61.19    5.40
   2   6   9   55.59    4.40
  -3  -6  -9   54.79    3.80
  -3  -6  -9   56.29    3.70
   3   6   9   61.09    5.50
   3   6   9   56.09    4.20
   3   6   9   63.99    5.70
   3   6   9   47.70    4.70
  -4  -6  -9   -0.10    0.20
  -4  -6  -9    0.20    0.30
  -4  -6  -9    0.20    0.50
  -4  -6  -9    0.20    0.50
   4   6   9   -0.60    0.70
   4   6   9    0.10    1.10
   4   6   9   -0.20    1.40
   4   6   9    0.80    1.50
  -5  -6  -9    5.30    0.90
  -5  -6  -9    5.50    1.40
  -5  -6  -9    8.20    1.30
   5   6   9    6.50    2.60
   5   6   9    7.40    1.40
   5   6   9    1.80    1.30
   5   6   9    4.50    1.80
  -6  -6  -9    2.30    0.70
  -6  -6  -9    4.60    1.10
   6   6   9    4.40    2.50
   6   6   9    4.10    1.70
   6   6   9    4.40    2.10
   6   6   9    1.80    1.00
  -7  -6  -9   15.00    1.50
   7   6   9   12.10    3.00
   7   6   9   21.20    4.00
  -8  -6  -9    5.50    0.90
   8   6   9    8.70    2.80
   8   6   9    1.00    1.60
   3  -7  -9    0.60    0.40
   3  -7  -9    0.20    0.50
   3  -7  -9    0.40    0.80
  -3   7   9    0.50    0.50
  -3   7   9    0.00    0.50
  -3   7   9    0.10    0.50
   2  -7  -9   -0.20    0.30
   2  -7  -9   -0.40    0.60
   2  -7  -9   -0.20    0.40
  -2   7   9   -0.20    0.50
  -2   7   9    0.80    2.10
  -2   7   9    0.00    0.40
  -2   7   9    0.00    0.50
   1  -7  -9   -0.40    0.60
   1  -7  -9    0.20    0.40
  -1   7   9    0.20    1.30
  -1   7   9    1.10    0.60
  -1   7   9    0.40    0.60
  -1   7   9    0.00    0.50
   0  -7  -9    4.00    0.70
   0  -7  -9    3.90    1.00
   0   7   9    4.00    1.60
   0   7   9    3.60    0.80
   0   7   9    4.40    1.00
   0   7   9    3.00    0.70
  -1  -7  -9   -0.10    0.40
  -1  -7  -9    0.60    0.60
   1   7   9   -0.70    1.30
   1   7   9   -0.30    0.60
   1   7   9   -0.50    0.60
   1   7   9   -0.40    0.70
   1   7   9    0.40    1.20
  -2  -7  -9    4.20    0.70
  -2  -7  -9    2.00    0.80
  -2  -7  -9    2.60    0.60
   2   7   9    4.00    1.60
   2   7   9    3.60    1.10
   2   7   9    2.40    1.60
  -3  -7  -9    0.20    0.60
  -3  -7  -9    0.50    0.50
  -3  -7  -9   -0.10    0.30
   3   7   9    0.30    0.80
   3   7   9   -0.50    1.20
   3   7   9    0.10    2.20
   3   7   9   -1.40    1.20
  -4  -7  -9    3.60    0.80
  -4  -7  -9    2.60    0.50
  -4  -7  -9    1.60    0.80
   4   7   9    3.70    2.20
   4   7   9    1.80    1.50
   4   7   9    2.30    1.10
   4   7   9    4.30    1.70
  -5  -7  -9    9.60    1.30
  -5  -7  -9    8.50    1.60
  -5  -7  -9    6.50    1.00
   5   7   9    6.20    2.00
   5   7   9    8.20    1.50
   5   7   9    6.50    2.30
   5   7   9   14.90    3.50
  -6  -7  -9    0.80    0.70
  -6  -7  -9    1.90    0.60
  -6  -7  -9    3.00    1.10
   6   7   9    3.40    2.50
   6   7   9    1.90    1.10
   6   7   9    1.90    1.80
   6   7   9    0.10    1.50
  -7  -7  -9    1.40    1.00
  -7  -7  -9    0.80    0.60
   7   7   9    1.80    2.40
   7   7   9    1.00    1.50
   3  -8  -9   -0.10    0.40
  -3   8   9   -0.20    0.50
  -3   8   9    0.20    0.40
   2  -8  -9    2.70    1.10
   2  -8  -9    1.50    0.50
  -2   8   9    0.90    0.60
  -2   8   9    0.60    0.50
  -2   8   9    1.30    0.80
   1  -8  -9    0.00    0.30
   1  -8  -9    0.40    0.70
  -1   8   9    0.00    0.50
  -1   8   9   -0.60    0.50
  -1   8   9   -0.30    1.30
  -1   8   9    0.60    0.70
   0  -8  -9    1.70    0.50
   0  -8  -9    1.80    0.80
   0   8   9    1.90    1.40
   0   8   9    1.10    0.60
   0   8   9    1.90    0.80
   0   8   9    1.50    0.70
  -1  -8  -9    0.30    0.40
  -1  -8  -9    0.30    0.50
   1   8   9   -1.60    1.30
   1   8   9   -0.40    0.70
  -2  -8  -9   17.60    1.90
  -2  -8  -9   19.10    1.40
  -2  -8  -9   15.70    1.40
   2   8   9   13.20    2.70
   2   8   9   14.90    2.00
   2   8   9   14.70    2.40
  -3  -8  -9    5.10    1.20
  -3  -8  -9    6.40    0.80
  -3  -8  -9    6.00    0.90
   3   8   9    3.80    1.60
   3   8   9    7.50    2.30
   3   8   9    4.10    1.10
  -4  -8  -9    0.50    0.50
  -4  -8  -9   -0.10    0.30
  -4  -8  -9    0.30    0.50
   4   8   9    0.30    1.40
   4   8   9    1.60    1.00
   4   8   9    0.40    1.70
  -5  -8  -9    0.70    0.50
  -5  -8  -9    0.10    0.70
  -5  -8  -9    0.30    0.60
   5   8   9   -0.10    0.80
   5   8   9    0.90    1.50
   5   8   9   -1.10    1.20
   5   8   9   -0.30    1.80
  -6  -8  -9    0.20    0.50
  -6  -8  -9    0.10    0.50
  -6  -8  -9    1.40    0.90
   6   8   9    0.50    2.20
   6   8   9   -0.40    1.00
   6   8   9   -0.20    1.20
   6   8   9    0.50    1.50
  -7  -8  -9    0.30    0.50
  -7  -8  -9    0.20    0.90
   7   8   9   -0.30    2.00
   7   8   9    0.20    1.10
   7   8   9    0.50    1.40
   1  -9  -9    0.10    0.60
   1  -9  -9   -0.20    0.30
  -1   9   9    0.80    1.40
  -1   9   9    0.10    0.60
  -1   9   9   -0.20    0.50
  -1   9   9   -0.30    0.50
   0  -9  -9    2.50    0.90
   0  -9  -9    1.90    0.50
   0   9   9    0.90    0.60
   0   9   9   -0.30    1.40
   0   9   9    0.20    0.60
   0   9   9    0.80    0.70
  -1  -9  -9    0.10    0.30
  -1  -9  -9   -0.20    0.40
   1   9   9   -1.10    1.20
   1   9   9    0.20    0.70
  -2  -9  -9    3.90    0.70
  -2  -9  -9    4.00    0.70
  -2  -9  -9    5.20    1.20
   2   9   9    4.40    1.10
   2   9   9    2.80    1.60
  -3  -9  -9    0.70    0.60
  -3  -9  -9    0.40    0.40
  -3  -9  -9    1.20    0.40
   3   9   9    0.40    1.50
   3   9   9    1.90    0.90
   3   9   9   -0.90    1.40
  -4  -9  -9   -0.20    0.40
  -4  -9  -9    0.00    0.40
  -4  -9  -9    0.10    0.30
   4   9   9   -1.10    1.40
   4   9   9   -0.80    1.40
   4   9   9   -0.20    0.80
  -5  -9  -9    0.40    0.50
  -5  -9  -9    0.30    0.40
   5   9   9   -0.50    1.40
   5   9   9    0.90    1.50
   5   9   9    2.10    2.30
   5   9   9    0.20    0.70
  -6  -9  -9    0.40    0.90
  -6  -9  -9    0.80    0.50
  -6  -9  -9    0.10    0.50
   6   9   9    0.00    1.30
   6   9   9    2.00    1.70
   6   9   9    0.30    2.00
   6   9   9    0.50    0.90
   0  10   9    1.00    0.60
   0  10   9    1.40    0.60
   0  10   9    0.60    0.70
  -1 -10  -9    1.30    0.40
  -1 -10  -9    1.10    0.70
   1  10   9    0.60    1.30
   1  10   9   -0.10    0.60
  -2 -10  -9    0.60    0.60
  -2 -10  -9    0.00    0.30
  -2 -10  -9    0.50    0.40
   2  10   9   -1.10    1.30
   2  10   9   -0.10    0.70
  -3 -10  -9    1.00    0.60
  -3 -10  -9    1.40    0.50
  -3 -10  -9    1.40    0.40
   3  10   9    0.70    0.80
  -4 -10  -9    3.40    1.00
  -4 -10  -9    2.00    0.60
  -4 -10  -9    3.10    0.70
   4  10   9    1.10    1.80
   4  10   9    1.60    0.90
   1   5 -10   -0.40    0.30
  -1  -5  10    0.10    0.50
  -1  -5  10    0.00    0.40
   0   5 -10    0.50    0.40
   0   5 -10    0.20    0.50
   0  -5  10    0.10    0.40
   0  -5  10    0.00    0.50
   0  -5  10   -0.40    0.60
  -1   5 -10    1.00    0.50
  -1   5 -10    0.30    0.60
   1  -5  10    1.80    0.80
   1  -5  10    0.70    0.50
  -2   5 -10    0.10    0.60
  -2   5 -10   -0.10    0.50
   2  -5  10   -0.40    0.70
   2  -5  10   -0.60    0.40
   2  -5  10    0.60    0.70
  -3   5 -10    0.00    0.60
  -3   5 -10    0.60    0.50
  -3  -4  10    0.10    0.50
   2   4 -10    0.30    0.40
   2   4 -10   -0.10    0.50
  -2  -4  10    0.30    0.50
  -2  -4  10    0.40    0.50
   1   4 -10    0.60    0.40
   1   4 -10   -0.40    0.50
  -1  -4  10    0.40    0.40
  -1  -4  10    0.50    0.50
   0   4 -10   -0.10    0.50
   0   4 -10    1.10    0.40
   0  -4  10    0.60    0.70
   0  -4  10    0.30    0.70
   0  -4  10    0.80    0.50
   0  -4  10    0.50    0.60
  -1   4 -10    0.00    0.40
  -1   4 -10    0.20    0.60
   1  -4  10    0.10    0.70
   1  -4  10   -0.50    0.70
   1  -4  10   -0.40    0.40
   1  -4  10    0.40    0.60
  -2   4 -10    7.40    0.90
  -2   4 -10    5.00    1.00
  -2   4 -10    3.90    0.90
   2  -4  10    6.80    1.20
   2  -4  10    8.50    1.50
   2  -4  10    8.20    1.30
  -3   4 -10   19.50    1.80
  -3   4 -10   20.60    2.00
  -3   4 -10   20.00    1.70
  -3   4 -10   19.50    1.90
   3  -4  10   19.90    2.50
   3  -4  10   13.40    2.20
  -4   4 -10   17.10    1.70
  -4   4 -10   15.40    1.40
  -4   4 -10    9.80    1.50
  -4   4 -10   13.80    1.70
   4  -4  10   12.40    2.00
  -5   4 -10    2.10    0.70
   3   3 -10    0.20    0.30
  -3  -3  10   -0.50    0.40
   2   3 -10   -0.10    0.50
   2   3 -10   -0.30    0.30
  -2  -3  10    0.30    0.40
  -2  -3  10    0.00    0.50
   1   3 -10    0.30    0.50
   1   3 -10    0.20    0.30
  -1  -3  10    0.60    0.40
  -1  -3  10    0.30    0.40
  -1  -3  10    0.10    0.50
  -1  -3  10   -0.30    0.60
   0   3 -10   17.20    1.50
   0   3 -10   18.70    1.70
   0  -3  10   13.40    1.90
   0  -3  10   14.00    1.80
   0  -3  10   18.60    1.40
   0  -3  10   15.50    1.80
  -1   3 -10    0.30    0.50
  -1   3 -10    0.90    0.60
  -1   3 -10    0.40    0.40
   1  -3  10    1.10    0.80
   1  -3  10    0.30    0.80
   1  -3  10   -0.30    0.80
  -2   3 -10   26.70    2.10
  -2   3 -10   27.50    2.00
   2  -3  10   26.10    2.40
   2  -3  10   26.10    2.80
   2  -3  10   26.50    2.70
  -3   3 -10    1.50    0.70
  -3   3 -10    2.50    0.70
  -3   3 -10    1.60    0.60
   3  -3  10    1.70    1.10
   3  -3  10    1.80    1.10
   3  -3  10    2.20    0.90
  -4   3 -10   14.10    1.60
  -4   3 -10   14.00    1.40
  -4   3 -10   11.90    1.60
  -4   3 -10   15.60    1.70
   4  -3  10    7.70    1.70
  -5   3 -10    0.10    0.50
  -5   3 -10   -0.10    0.60
  -5   3 -10    1.00    0.70
  -5   3 -10    0.10    0.60
   5  -3  10   -0.10    0.70
   5  -3  10   -0.20    0.90
  -6   3 -10    0.80    0.50
   4   2 -10   -0.20    0.30
  -4  -2  10   -0.50    0.50
  -4  -2  10    0.20    0.40
   3   2 -10    0.00    0.30
  -3  -2  10   -0.10    0.50
   2   2 -10    1.30    0.50
   2   2 -10    0.60    0.30
  -2  -2  10    1.10    0.60
  -2  -2  10    1.00    0.60
   1   2 -10    3.30    0.70
   1   2 -10    2.50    0.50
  -1  -2  10    1.40    0.70
  -1  -2  10    2.60    0.90
  -1  -2  10    2.00    0.70
  -1  -2  10    3.70    0.70
  -1  -2  10    3.30    0.60
   0   2 -10    8.20    0.80
   0   2 -10    6.80    1.00
   0  -2  10    6.00    1.10
   0  -2  10    7.60    1.30
   0  -2  10    5.90    0.70
   0  -2  10    6.20    1.10
  -1   2 -10    1.50    0.60
  -1   2 -10    1.10    0.40
  -1   2 -10    2.00    0.70
   1  -2  10    1.50    0.80
   1  -2  10    1.10    1.00
   1  -2  10    1.20    1.00
  -2   2 -10   -0.30    0.40
  -2   2 -10   -0.40    0.50
  -2   2 -10    0.10    0.30
   2  -2  10   -0.50    0.90
   2  -2  10    0.60    0.80
   2  -2  10    0.50    1.10
  -3   2 -10    5.30    0.90
  -3   2 -10    6.20    1.00
  -3   2 -10    4.70    0.80
   3  -2  10    2.40    1.40
   3  -2  10    6.20    1.60
   3  -2  10    5.90    1.30
  -4   2 -10    6.50    1.10
  -4   2 -10    4.00    0.90
  -4   2 -10    5.60    0.80
  -4   2 -10    5.70    1.00
   4  -2  10    4.90    1.30
   4  -2  10    6.20    1.60
   4  -2  10    3.00    1.30
  -5   2 -10    0.10    0.50
  -5   2 -10   -0.10    0.60
  -5   2 -10    0.10    0.60
  -5   2 -10    0.00    0.50
   5  -2  10    0.00    0.80
   5  -2  10    0.00    1.10
  -6   2 -10   -0.30    0.60
  -6   2 -10   -0.70    0.40
  -6   2 -10    0.10    0.60
   6  -2  10    0.00    0.90
   6  -2  10    0.60    1.10
   4   1 -10    0.50    0.30
  -4  -1  10    0.30    0.50
  -4  -1  10    0.30    0.50
   3   1 -10   -0.20    0.30
  -3  -1  10   -0.80    0.50
  -3  -1  10    0.50    0.40
   2   1 -10    0.60    0.40
   2   1 -10    0.80    0.50
  -2  -1  10    0.00    0.50
  -2  -1  10    0.00    0.40
  -2  -1  10    0.90    0.60
   1   1 -10    0.30    0.50
   1   1 -10    1.10    0.40
  -1  -1  10   -0.20    0.80
  -1  -1  10    0.40    0.50
  -1  -1  10    0.20    0.50
   0   1 -10    9.40    0.90
   0   1 -10    7.90    1.10
   0  -1  10    7.90    1.40
   0  -1  10   10.30    1.70
   0  -1  10    7.90    1.00
   0  -1  10    8.60    1.40
  -1   1 -10   12.20    1.40
  -1   1 -10   10.60    1.10
   1  -1  10   15.70    1.90
   1  -1  10   13.70    2.20
   1  -1  10   11.80    1.90
  -2   1 -10    7.30    0.90
  -2   1 -10    6.10    1.00
  -2   1 -10    7.50    1.00
   2  -1  10    9.20    1.90
   2  -1  10    7.10    1.40
   2  -1  10    8.80    1.90
  -3   1 -10    0.40    0.50
  -3   1 -10    0.40    0.60
  -3   1 -10    0.10    0.40
   3  -1  10    0.00    1.10
   3  -1  10    0.80    1.00
   3  -1  10    1.00    1.20
  -4   1 -10    3.30    0.80
  -4   1 -10    2.40    0.60
  -4   1 -10    2.30    0.70
  -4   1 -10    1.80    0.60
   4  -1  10    0.80    1.20
   4  -1  10    1.50    0.90
   4  -1  10    4.60    1.60
  -5   1 -10    2.00    0.50
  -5   1 -10    1.10    0.60
  -5   1 -10    2.20    0.70
  -5   1 -10    2.80    0.80
   5  -1  10    2.40    1.20
   5  -1  10    3.80    1.50
   5  -1  10    1.10    1.20
  -6   1 -10    0.20    0.60
  -6   1 -10   -0.50    0.40
   6  -1  10   -0.50    1.00
   6  -1  10    0.30    0.90
  -7   1 -10    0.60    0.60
   7  -1  10    0.50    1.00
   7  -1  10    0.80    1.20
   5   0 -10   -0.20    0.30
  -5   0  10    0.30    0.40
   4   0 -10   -0.30    0.40
  -4   0  10    0.00    0.40
  -4   0  10   -0.20    0.40
   3   0 -10    0.10    0.40
  -3   0  10    0.40    0.50
  -3   0  10    0.00    0.40
  -3   0  10    0.60    0.50
   2   0 -10    2.80    0.60
   2   0 -10    2.50    0.60
  -2   0  10    2.50    0.60
  -2   0  10    2.50    0.70
  -2   0  10    2.10    0.70
   1   0 -10   21.20    1.70
   1   0 -10   22.10    1.80
  -1   0  10   24.80    2.20
  -1   0  10   26.50    2.50
  -1   0  10   25.60    2.00
  -1   0  10   23.30    1.80
   0   0 -10   -0.10    0.40
   0   0 -10    1.00    0.40
   0   0  10    0.70    0.80
   0   0  10    0.60    0.70
   0   0  10    0.90    1.10
   0   0  10    1.80    0.60
  -1   0 -10   36.80    2.70
  -1   0 -10   41.00    2.90
   1   0  10   42.70    3.80
   1   0  10   40.40    3.50
   1   0  10   42.90    3.50
   1   0  10   44.40    2.90
  -2   0 -10   11.00    1.00
  -2   0 -10   10.70    1.20
  -2   0 -10   10.90    1.10
   2   0  10   10.90    2.10
   2   0  10    9.50    1.60
   2   0  10   10.40    2.10
  -3   0 -10    1.40    0.60
  -3   0 -10    0.70    0.30
  -3   0 -10    0.50    0.40
   3   0  10    0.90    1.20
   3   0  10   -0.80    1.20
   3   0  10    0.00    1.00
  -4   0 -10   12.20    1.10
  -4   0 -10   11.90    1.40
  -4   0 -10   12.70    1.30
  -4   0 -10   12.20    1.30
   4   0  10   10.60    2.30
   4   0  10   13.40    2.30
   4   0  10   12.30    2.10
  -5   0 -10    5.30    0.90
  -5   0 -10    6.60    1.00
  -5   0 -10    4.50    0.70
  -5   0 -10    5.40    1.00
   5   0  10    6.00    1.80
   5   0  10    4.60    1.50
   5   0  10    1.30    1.50
  -6   0 -10   -0.20    0.50
   6   0  10    1.20    1.40
   6   0  10    1.30    1.30
   6   0  10    0.90    1.20
  -7   0 -10   -0.10    0.50
   7   0  10   -0.20    1.00
   5  -1 -10    1.00    0.40
  -5   1  10    0.40    0.50
  -5   1  10    0.00    0.40
   4  -1 -10   -0.10    0.40
  -4   1  10    0.20    0.50
  -4   1  10    1.00    0.50
   3  -1 -10    0.10    0.40
  -3   1  10   -0.10    0.50
  -3   1  10    0.00    0.50
  -3   1  10    0.00    0.50
   2  -1 -10    2.10    0.60
   2  -1 -10    2.50    0.60
  -2   1  10    1.50    0.60
  -2   1  10    2.20    0.80
  -2   1  10    2.10    0.60
   1  -1 -10   41.30    3.10
   1  -1 -10   41.90    3.00
  -1   1  10   49.40    3.30
  -1   1  10   53.59    4.00
  -1   1  10   42.50    3.10
  -1   1  10   48.80    3.60
   0  -1 -10    2.40    0.60
   0  -1 -10    1.50    0.40
   0   1  10    1.20    0.60
   0   1  10    4.00    1.40
   0   1  10    2.20    0.90
  -1  -1 -10   13.80    1.20
  -1  -1 -10   13.60    1.70
  -1  -1 -10   14.20    1.30
   1   1  10   15.10    1.40
   1   1  10   17.40    2.20
   1   1  10   13.60    2.30
   1   1  10   15.20    2.10
  -2  -1 -10    0.90    0.40
  -2  -1 -10    0.80    0.40
   2   1  10    0.20    1.20
   2   1  10    1.10    1.20
   2   1  10    0.90    1.00
   2   1  10    0.60    0.50
  -3  -1 -10    0.00    0.30
  -3  -1 -10   -0.50    0.40
  -3  -1 -10    0.10    0.40
   3   1  10   -0.40    1.10
   3   1  10    0.30    1.30
   3   1  10   -0.40    1.10
  -4  -1 -10    0.50    0.50
  -4  -1 -10    0.70    0.50
  -4  -1 -10    0.30    0.30
   4   1  10    0.00    1.40
   4   1  10    0.30    1.10
   4   1  10   -0.20    1.10
  -5  -1 -10    5.90    0.90
  -5  -1 -10    5.60    0.90
  -5  -1 -10    7.20    1.00
   5   1  10    4.60    1.90
   5   1  10    5.10    1.60
   5   1  10    6.90    2.00
  -6  -1 -10    0.30    0.50
  -6  -1 -10   -0.30    0.40
   6   1  10   -1.00    1.30
   6   1  10    0.00    1.10
   6   1  10   -0.80    1.20
  -7  -1 -10    1.70    0.60
  -7  -1 -10    0.80    0.60
   7   1  10    0.50    1.40
   7   1  10    3.00    1.60
  -8  -1 -10   -0.20    0.50
   8   1  10    0.20    1.10
   5  -2 -10   -0.30    0.40
  -5   2  10    0.30    0.40
  -5   2  10   -0.20    0.40
   4  -2 -10    1.00    0.40
  -4   2  10    0.80    0.60
   3  -2 -10    1.90    0.60
  -3   2  10    1.90    0.70
  -3   2  10    1.40    0.50
  -3   2  10    2.20    0.70
   2  -2 -10    1.20    0.50
   2  -2 -10    1.60    0.60
  -2   2  10    2.60    0.70
  -2   2  10    1.60    0.60
  -2   2  10    1.30    0.70
   1  -2 -10   14.50    1.40
   1  -2 -10   16.00    1.50
  -1   2  10   15.40    1.50
  -1   2  10   17.20    1.60
  -1   2  10   17.60    1.90
  -1   2  10   14.60    2.30
   0  -2 -10    4.00    1.00
   0  -2 -10    4.70    0.60
   0  -2 -10    3.90    0.70
   0   2  10    6.40    1.40
   0   2  10    3.70    0.80
   0   2  10    4.10    1.60
   0   2  10    4.10    0.90
  -1  -2 -10   65.69    4.50
  -1  -2 -10   66.79    5.10
  -1  -2 -10   65.09    4.30
   1   2  10   74.49    4.50
   1   2  10   74.19    5.60
   1   2  10   68.89    5.30
   1   2  10   65.59    4.60
   1   2  10   70.79    5.30
  -2  -2 -10   78.39    5.90
  -2  -2 -10   80.39    5.00
  -2  -2 -10   81.59    5.20
   2   2  10   83.89    5.20
   2   2  10   75.89    6.10
   2   2  10   79.69    5.30
   2   2  10   76.79    6.30
   2   2  10   84.39    6.40
  -3  -2 -10   15.30    1.30
  -3  -2 -10   13.50    1.10
  -3  -2 -10   14.30    1.30
   3   2  10   16.20    2.50
   3   2  10   17.20    1.50
   3   2  10   14.60    2.50
   3   2  10   17.70    2.80
  -4  -2 -10    2.80    0.70
  -4  -2 -10    2.40    0.60
  -4  -2 -10    2.50    0.80
   4   2  10    2.20    1.50
   4   2  10    4.90    1.70
   4   2  10    2.50    1.70
  -5  -2 -10   18.20    1.60
  -5  -2 -10   19.40    1.50
  -5  -2 -10   18.40    1.60
   5   2  10   16.20    2.50
   5   2  10   16.60    3.10
   5   2  10   14.10    2.60
  -6  -2 -10   24.30    1.80
   6   2  10   22.10    2.80
   6   2  10   13.90    3.10
   6   2  10   23.80    3.40
  -7  -2 -10    0.10    0.50
  -7  -2 -10    0.40    0.50
   7   2  10    1.40    1.80
   7   2  10    1.20    1.30
  -8  -2 -10    0.50    0.50
  -8  -2 -10    0.30    0.50
   8   2  10    0.20    1.70
   5  -3 -10   -0.50    0.40
   4  -3 -10    0.10    0.40
  -4   3  10   -0.20    0.50
  -4   3  10    0.10    0.40
   3  -3 -10    3.00    0.70
   3  -3 -10    1.20    0.50
  -3   3  10    1.70    0.60
  -3   3  10    0.90    0.50
   2  -3 -10    9.00    1.10
   2  -3 -10    8.00    1.00
  -2   3  10    8.00    1.10
  -2   3  10    9.00    1.30
   1  -3 -10   53.29    3.70
   1  -3 -10   53.79    3.70
   1  -3 -10   58.19    4.20
  -1   3  10   52.69    3.80
  -1   3  10   59.39    4.00
  -1   3  10   52.09    3.80
  -1   3  10   54.49    4.10
   0  -3 -10   51.29    3.90
   0  -3 -10   51.29    3.40
   0  -3 -10   42.20    3.20
   0   3  10   48.00    4.50
   0   3  10   47.00    3.60
   0   3  10   52.79    3.50
   0   3  10   54.09    4.10
  -1  -3 -10    6.60    1.30
  -1  -3 -10    5.40    0.60
  -1  -3 -10    5.80    0.80
   1   3  10    4.50    0.90
   1   3  10    6.10    0.90
   1   3  10    2.10    1.50
   1   3  10    7.20    1.80
  -2  -3 -10    1.40    0.30
  -2  -3 -10    0.80    0.70
  -2  -3 -10    0.70    0.40
   2   3  10    0.30    0.60
   2   3  10    0.80    0.60
   2   3  10    1.50    1.20
   2   3  10    2.00    1.30
   2   3  10    1.60    1.30
  -3  -3 -10   -0.10    0.40
  -3  -3 -10    0.90    0.40
  -3  -3 -10    0.90    0.80
   3   3  10   -0.20    1.20
   3   3  10    0.10    0.60
   3   3  10   -0.50    1.20
   3   3  10    0.10    1.20
   3   3  10    1.50    0.70
  -4  -3 -10  141.79    8.90
  -4  -3 -10  144.49    8.90
  -4  -3 -10  140.79    8.90
   4   3  10  139.09   10.10
   4   3  10  140.19   10.30
   4   3  10  140.19   10.60
  -5  -3 -10   11.20    1.30
  -5  -3 -10    9.50    1.20
  -5  -3 -10   12.00    1.20
   5   3  10   10.70    2.30
   5   3  10    9.40    2.30
   5   3  10    9.80    2.70
  -6  -3 -10    3.50    0.80
  -6  -3 -10    4.10    0.80
   6   3  10    2.60    1.70
   6   3  10    3.90    2.10
   6   3  10    4.30    1.90
  -7  -3 -10    1.10    0.60
  -7  -3 -10    0.20    0.40
   7   3  10   -0.70    1.60
   7   3  10   -0.10    1.20
  -8  -3 -10   -0.10    0.40
  -8  -3 -10   -0.30    0.50
   8   3  10    0.30    1.20
   8   3  10    0.60    1.70
   4  -4 -10   -0.40    0.40
  -4   4  10    0.20    0.60
  -4   4  10    0.10    0.40
  -4   4  10    0.00    0.50
   3  -4 -10    1.10    0.50
   3  -4 -10    0.80    0.40
  -3   4  10    0.60    0.50
  -3   4  10    1.10    0.50
   2  -4 -10    0.70    0.70
   2  -4 -10    1.40    0.50
   2  -4 -10    0.60    0.40
  -2   4  10    2.00    0.90
  -2   4  10    0.80    0.50
  -2   4  10    0.30    0.50
  -2   4  10    0.90    0.50
   1  -4 -10   14.70    1.30
   1  -4 -10   16.00    1.80
   1  -4 -10   16.80    1.40
  -1   4  10   12.90    1.60
  -1   4  10   14.40    1.40
  -1   4  10    8.50    2.00
  -1   4  10   16.50    1.50
  -1   4  10   16.40    1.80
   0  -4 -10    4.40    0.70
   0  -4 -10    6.50    1.30
   0  -4 -10    4.50    0.60
   0   4  10    4.00    0.90
   0   4  10    4.90    1.40
   0   4  10    7.80    1.10
   0   4  10    4.80    0.90
   0   4  10    3.20    1.50
  -1  -4 -10    7.20    1.30
  -1  -4 -10    5.30    0.70
  -1  -4 -10    7.70    0.90
   1   4  10    6.20    1.00
   1   4  10    7.00    1.80
   1   4  10    8.40    1.00
   1   4  10    7.90    1.90
  -2  -4 -10   23.40    1.60
  -2  -4 -10   15.50    2.00
   2   4  10   17.70    1.80
   2   4  10   21.40    3.20
   2   4  10   14.60    2.60
   2   4  10   19.80    1.70
   2   4  10   21.80    3.10
  -3  -4 -10   99.59    6.20
  -3  -4 -10   92.29    7.00
   3   4  10   89.79    7.30
   3   4  10   94.89    7.60
   3   4  10   89.59    7.40
   3   4  10  100.09    6.40
   3   4  10  100.99    6.30
  -4  -4 -10   20.10    1.60
  -4  -4 -10   18.10    2.30
  -4  -4 -10   19.40    1.70
  -4  -4 -10   19.70    1.60
   4   4  10   20.60    3.50
   4   4  10   23.20    2.00
   4   4  10   16.50    2.70
   4   4  10   15.30    2.70
  -5  -4 -10   20.10    1.50
  -5  -4 -10   16.50    1.60
  -5  -4 -10   20.00    1.60
   5   4  10   17.70    3.40
   5   4  10   12.50    2.40
   5   4  10   14.60    2.50
  -6  -4 -10    1.50    0.60
  -6  -4 -10    1.20    0.50
   6   4  10    0.00    1.70
   6   4  10    0.60    1.60
   6   4  10    1.80    1.50
  -7  -4 -10    2.20    0.60
  -7  -4 -10    2.30    0.60
   7   4  10    1.30    1.40
   7   4  10    2.90    2.10
  -8  -4 -10   -0.10    0.50
  -8  -4 -10   -0.30    0.50
   8   4  10   -0.90    1.50
   8   4  10    0.10    1.30
   4  -5 -10    0.50    0.50
  -4   5  10    0.60    0.50
  -4   5  10    0.20    0.50
  -4   5  10    0.30    0.60
   3  -5 -10    0.40    0.40
   3  -5 -10    0.10    0.70
   3  -5 -10   -0.20    0.40
  -3   5  10   -0.10    0.60
  -3   5  10   -0.20    0.50
  -3   5  10   -0.10    0.50
  -3   5  10    0.70    0.50
   2  -5 -10    1.90    0.60
   2  -5 -10    1.50    0.50
   2  -5 -10    3.30    1.00
  -2   5  10    1.40    0.60
  -2   5  10    1.50    0.70
  -2   5  10    1.80    0.60
   1  -5 -10   -0.10    0.40
   1  -5 -10   -0.30    0.40
   1  -5 -10    0.00    0.50
  -1   5  10    0.80    0.50
  -1   5  10   -0.50    0.50
  -1   5  10   -0.10    0.70
  -1   5  10   -0.30    0.50
  -1   5  10    0.80    1.30
   0  -5 -10   12.10    1.10
   0  -5 -10   12.70    1.60
   0  -5 -10   11.90    1.10
   0   5  10    8.80    2.10
   0   5  10   12.90    1.30
   0   5  10   11.90    2.00
   0   5  10   10.00    1.40
   0   5  10   10.90    1.30
  -1  -5 -10    0.80    0.60
  -1  -5 -10    0.70    0.40
   1   5  10    1.10    0.60
   1   5  10   -0.30    1.20
   1   5  10    1.50    1.30
   1   5  10    0.20    0.60
  -2  -5 -10    1.10    0.80
  -2  -5 -10    1.60    0.50
   2   5  10    0.80    0.70
   2   5  10    1.30    1.20
   2   5  10    1.10    0.70
   2   5  10    0.90    1.40
  -3  -5 -10   23.20    2.60
  -3  -5 -10   27.80    2.00
   3   5  10   29.10    3.70
   3   5  10   28.50    2.40
   3   5  10   18.40    3.30
   3   5  10   25.10    3.30
  -4  -5 -10   13.30    1.30
  -4  -5 -10   13.90    1.20
  -4  -5 -10   12.80    1.90
  -4  -5 -10   15.10    1.20
   4   5  10   16.20    1.70
   4   5  10   11.10    2.30
   4   5  10   13.50    2.30
   4   5  10   15.30    3.10
  -5  -5 -10    5.50    0.90
  -5  -5 -10    6.80    0.90
  -5  -5 -10    5.80    0.80
  -5  -5 -10    3.50    1.20
   5   5  10    4.30    1.80
   5   5  10    7.30    2.50
   5   5  10    3.20    1.50
   5   5  10    5.40    1.20
  -6  -5 -10    1.20    0.60
  -6  -5 -10    0.10    0.40
   6   5  10    0.90    1.40
   6   5  10   -0.10    1.80
   6   5  10   -0.50    1.50
  -7  -5 -10    1.40    0.60
  -7  -5 -10    1.40    0.60
   7   5  10    1.40    1.50
   7   5  10    0.00    1.90
  -8  -5 -10    1.00    0.60
   8   5  10   -1.10    1.80
   8   5  10   -0.80    1.50
   3  -6 -10    4.00    1.10
   3  -6 -10    2.40    0.60
   3  -6 -10    1.40    0.50
  -3   6  10    1.30    0.70
  -3   6  10    1.60    0.60
  -3   6  10    1.90    0.60
  -3   6  10    2.20    0.70
   2  -6 -10    5.10    0.80
   2  -6 -10    4.30    0.70
  -2   6  10    3.90    0.80
  -2   6  10    5.50    1.00
  -2   6  10    4.00    0.80
   1  -6 -10    6.30    0.90
   1  -6 -10    8.40    1.40
   1  -6 -10    6.00    0.80
  -1   6  10    6.00    1.10
  -1   6  10    3.40    1.50
  -1   6  10    4.10    0.80
  -1   6  10    5.70    1.00
   0  -6 -10    1.40    0.70
   0  -6 -10    1.70    0.50
   0   6  10    1.20    0.60
   0   6  10    1.10    1.10
   0   6  10    1.40    1.40
   0   6  10    1.50    0.60
   0   6  10    1.20    0.60
  -1  -6 -10    0.70    0.40
  -1  -6 -10    1.00    0.70
   1   6  10    1.50    1.40
   1   6  10    0.90    0.70
   1   6  10    1.00    0.70
   1   6  10    0.40    1.10
  -2  -6 -10    0.90    0.70
  -2  -6 -10    0.80    0.40
   2   6  10    1.80    0.80
   2   6  10    0.10    1.30
   2   6  10    0.70    0.70
   2   6  10    1.10    1.30
  -3  -6 -10    3.00    0.60
  -3  -6 -10    3.30    1.00
   3   6  10   -0.40    1.40
   3   6  10    2.80    1.00
   3   6  10    4.20    1.80
  -4  -6 -10    1.10    0.70
  -4  -6 -10    1.40    0.40
  -4  -6 -10    1.00    0.40
  -4  -6 -10    1.20    0.60
   4   6  10    0.00    1.20
   4   6  10    0.80    0.80
   4   6  10    1.50    1.70
   4   6  10    0.90    1.50
  -5  -6 -10    0.00    0.30
  -5  -6 -10    0.30    0.40
  -5  -6 -10   -0.20    0.60
  -5  -6 -10    0.10    0.50
   5   6  10   -0.10    0.80
   5   6  10    0.60    1.70
   5   6  10   -0.20    1.20
   5   6  10    0.90    1.50
  -6  -6 -10    1.50    0.60
   6   6  10    1.30    1.50
   6   6  10    0.60    1.30
   6   6  10   -0.50    1.70
  -7  -6 -10    4.20    0.80
   7   6  10    5.90    2.70
   7   6  10    3.60    2.00
   3  -7 -10    0.20    0.50
   3  -7 -10    0.10    0.60
  -3   7  10    0.30    0.40
  -3   7  10   -0.50    0.40
  -3   7  10    0.10    0.50
   2  -7 -10    1.70    0.90
   2  -7 -10    0.60    0.40
   2  -7 -10    2.00    0.60
  -2   7  10    0.20    0.50
  -2   7  10    0.30    0.50
  -2   7  10    0.50    0.60
   1  -7 -10    5.80    1.20
   1  -7 -10    4.10    0.60
  -1   7  10    3.70    0.80
  -1   7  10    2.00    0.80
  -1   7  10    5.10    1.70
  -1   7  10    2.70    0.70
   0  -7 -10    0.30    0.40
   0  -7 -10    0.30    0.60
   0   7  10   -0.30    0.50
   0   7  10   -0.10    0.50
   0   7  10    0.30    0.50
   0   7  10    1.60    1.50
  -1  -7 -10    1.60    0.80
  -1  -7 -10    1.40    0.50
   1   7  10   -0.20    1.30
   1   7  10   -0.30    0.50
   1   7  10   -0.30    0.60
   1   7  10    1.00    1.30
  -2  -7 -10   16.20    1.40
  -2  -7 -10   16.00    1.90
   2   7  10   13.70    2.60
   2   7  10   12.80    1.80
   2   7  10   17.20    2.90
  -3  -7 -10    2.20    0.50
  -3  -7 -10    0.90    0.70
  -3  -7 -10    1.30    0.50
   3   7  10    1.20    0.80
   3   7  10    1.00    1.50
   3   7  10    2.40    1.60
  -4  -7 -10    4.60    1.20
  -4  -7 -10    3.30    0.60
  -4  -7 -10    4.60    0.80
   4   7  10    3.80    1.80
   4   7  10    4.10    1.10
   4   7  10    6.30    2.50
   4   7  10    2.50    1.50
  -5  -7 -10    0.20    0.50
  -5  -7 -10    0.10    0.50
   5   7  10   -0.40    1.60
   5   7  10    0.70    0.90
   5   7  10    1.70    1.60
   5   7  10   -0.90    1.40
  -6  -7 -10    4.20    0.80
  -6  -7 -10    3.20    1.10
   6   7  10    2.70    1.70
   6   7  10    0.60    1.50
   6   7  10    8.70    3.00
   6   7  10    4.60    1.20
  -7  -7 -10    1.30    0.60
   7   7  10    0.50    1.60
   7   7  10    2.80    2.50
   2  -8 -10    0.20    0.70
   2  -8 -10    0.10    0.40
  -2   8  10    0.40    0.50
  -2   8  10    0.50    0.60
  -2   8  10   -0.50    0.50
   1  -8 -10    0.40    0.40
   1  -8 -10    0.10    0.50
  -1   8  10    0.30    0.50
  -1   8  10    0.90    1.40
  -1   8  10    0.30    0.50
  -1   8  10   -0.40    0.50
   0  -8 -10    7.10    1.40
   0  -8 -10    6.80    0.80
   0   8  10    5.90    1.80
   0   8  10    3.20    0.90
   0   8  10    7.00    1.00
   0   8  10    5.80    1.10
  -1  -8 -10    3.30    1.00
  -1  -8 -10    3.40    0.60
   1   8  10    1.50    1.60
   1   8  10    2.60    0.90
   1   8  10    1.90    0.80
  -2  -8 -10    5.90    1.20
  -2  -8 -10    5.60    0.70
   2   8  10    1.10    1.50
   2   8  10    5.30    1.90
  -3  -8 -10    0.10    0.50
  -3  -8 -10    0.50    0.60
  -3  -8 -10    0.20    0.30
   3   8  10   -0.40    0.70
   3   8  10    0.60    1.50
   3   8  10   -0.40    1.40
  -4  -8 -10    1.10    0.50
  -4  -8 -10    1.30    0.80
  -4  -8 -10    1.70    0.40
   4   8  10    1.10    0.90
   4   8  10    2.20    1.80
   4   8  10    1.40    1.60
  -5  -8 -10    1.10    0.70
  -5  -8 -10    0.80    0.50
   5   8  10    0.60    1.60
   5   8  10    1.80    1.00
   5   8  10    0.60    2.10
   5   8  10    0.40    1.50
  -6  -8 -10   -0.20    0.50
  -6  -8 -10    0.00    0.80
  -6  -8 -10   -0.10    0.50
   6   8  10    0.00    1.50
   6   8  10    0.50    1.00
   6   8  10   -0.20    1.60
   6   8  10    0.40    2.20
  -1   9  10    2.80    0.90
  -1   9  10    2.90    0.70
   0  -9 -10    0.00    0.30
   0  -9 -10    0.80    0.70
   0   9  10    0.90    0.70
   0   9  10    1.50    1.40
   0   9  10    0.50    0.50
  -1  -9 -10    0.20    0.60
  -1  -9 -10    0.10    0.30
   1   9  10    0.20    0.70
   1   9  10    0.20    1.30
   1   9  10   -0.10    0.50
  -2  -9 -10    2.10    0.50
  -2  -9 -10    2.00    0.80
   2   9  10    0.70    1.40
   2   9  10    0.70    0.70
  -3  -9 -10    0.30    0.30
  -3  -9 -10    0.00    0.50
  -3  -9 -10    0.40    0.50
   3   9  10    0.10    0.80
   3   9  10    0.30    1.30
   3   9  10    1.40    1.50
  -4  -9 -10    0.50    0.60
  -4  -9 -10    1.40    0.40
  -4  -9 -10    0.80    0.50
   4   9  10    0.90    0.90
   4   9  10   -0.70    1.30
   4   9  10   -0.30    1.40
  -5  -9 -10    0.00    0.50
  -5  -9 -10    0.50    0.50
   5   9  10    1.70    3.50
   5   9  10   -0.20    1.40
   5   9  10    1.10    1.60
   5   9  10    1.10    0.90
   2  10  10    0.70    1.30
   2  10  10    2.20    0.80
  -3 -10 -10    0.90    0.60
   3  10  10    1.40    0.80
   3  10  10    2.10    1.40
  -1  -4  11    0.70    0.50
  -1  -4  11    1.20    0.60
   0   4 -11   -0.40    0.40
   0   4 -11    0.60    0.40
   0  -4  11    0.30    0.40
   0  -4  11    0.80    0.60
   0  -4  11    1.30    0.70
  -1   4 -11    0.00    0.50
  -1   4 -11   -0.20    0.40
   1  -4  11   -0.80    0.70
   1  -4  11   -0.30    0.60
   1  -4  11    0.30    0.70
   1  -4  11    0.00    0.40
  -2   4 -11    0.90    0.50
  -2   4 -11    0.40    0.50
   2  -4  11    0.30    0.80
   2  -4  11    0.20    0.90
   2  -4  11    1.10    0.80
  -3   4 -11    1.90    0.70
  -3   4 -11    2.00    0.80
  -3   4 -11    1.80    0.60
   2   3 -11    0.40    0.40
   2   3 -11    0.20    0.50
  -2  -3  11   -0.20    0.50
   1   3 -11    0.00    0.30
   1   3 -11   -0.40    0.50
  -1  -3  11   -0.30    0.50
  -1  -3  11    0.50    0.40
  -1  -3  11   -0.10    0.40
   0   3 -11   -0.10    0.40
   0   3 -11    0.30    0.30
   0  -3  11    0.00    0.40
   0  -3  11   -0.20    0.50
   0  -3  11   -0.30    0.70
  -1   3 -11    0.70    0.50
  -1   3 -11    0.40    0.40
  -1   3 -11    0.50    0.50
   1  -3  11    0.70    0.90
   1  -3  11   -0.30    0.40
   1  -3  11   -0.20    0.70
   1  -3  11    0.30    0.70
  -2   3 -11    0.30    0.50
  -2   3 -11   -0.10    0.50
  -2   3 -11    0.10    0.40
   2  -3  11    0.30    1.00
   2  -3  11   -0.10    0.70
   2  -3  11   -0.70    0.90
  -3   3 -11    0.30    0.50
  -3   3 -11    0.70    0.60
  -3   3 -11    0.70    0.50
   3  -3  11   -0.90    0.80
   3  -3  11    0.20    0.90
   3  -3  11    0.10    0.80
  -4   3 -11    2.30    0.60
  -4   3 -11    3.20    0.90
  -4   3 -11    1.90    0.70
  -4   3 -11    2.70    0.80
   4  -3  11    1.00    0.90
   4  -3  11    1.60    1.10
  -5   3 -11    0.00    0.50
   3   2 -11    0.20    0.40
  -3  -2  11    2.30    0.60
   2   2 -11    0.50    0.40
   2   2 -11    0.50    0.50
  -2  -2  11    0.70    0.60
   1   2 -11    0.90    0.40
   1   2 -11    2.40    0.60
  -1  -2  11    1.20    0.60
  -1  -2  11    1.40    0.60
   0   2 -11   -0.40    0.30
   0   2 -11    0.00    0.50
   0  -2  11   -0.60    0.70
   0  -2  11    0.90    0.60
   0  -2  11    0.00    0.40
   0  -2  11    0.10    0.70
  -1   2 -11    0.00    0.50
  -1   2 -11   -0.10    0.40
  -1   2 -11   -0.20    0.30
   1  -2  11    1.50    1.00
   1  -2  11   -0.20    0.60
   1  -2  11    0.30    0.80
  -2   2 -11    3.20    0.60
  -2   2 -11    2.40    0.70
  -2   2 -11    2.40    0.70
   2  -2  11    1.30    1.10
   2  -2  11    3.20    1.30
   2  -2  11    1.80    1.00
  -3   2 -11    3.00    0.80
  -3   2 -11    2.30    0.80
  -3   2 -11    2.60    0.60
   3  -2  11    3.40    1.40
   3  -2  11    1.20    1.20
   3  -2  11    3.90    1.20
  -4   2 -11    1.60    0.50
  -4   2 -11    2.00    0.70
  -4   2 -11    0.60    0.60
  -4   2 -11    1.40    0.70
   4  -2  11    0.60    0.90
   4  -2  11    0.70    1.10
   4  -2  11    0.90    1.00
  -5   2 -11    0.30    0.60
  -5   2 -11    1.10    0.70
  -5   2 -11    1.80    0.70
  -5   2 -11    2.10    0.60
   5  -2  11    0.50    0.80
   5  -2  11    2.40    1.30
  -6   2 -11   -0.10    0.40
   3   1 -11    0.60    0.40
  -3  -1  11   -0.10    0.40
  -3  -1  11    0.40    0.50
   2   1 -11    0.70    0.50
   2   1 -11    0.70    0.30
  -2  -1  11    0.90    0.40
  -2  -1  11    0.80    0.60
  -2  -1  11    1.20    0.60
   1   1 -11    3.80    0.70
   1   1 -11    2.40    0.50
  -1  -1  11    2.90    0.70
  -1  -1  11    1.90    0.70
  -1  -1  11    3.30    1.10
   0   1 -11    4.30    0.80
   0   1 -11    3.70    0.60
   0  -1  11    3.00    0.80
   0  -1  11    3.40    0.90
   0  -1  11    4.20    1.30
   0  -1  11    2.40    0.50
  -1   1 -11    3.40    0.70
  -1   1 -11    1.00    0.50
  -1   1 -11    2.00    0.50
   1  -1  11    2.00    1.20
   1  -1  11    2.40    0.90
   1  -1  11    2.30    1.10
  -2   1 -11    0.80    0.40
  -2   1 -11    0.20    0.40
  -2   1 -11    0.50    0.50
   2  -1  11    0.30    0.70
   2  -1  11    0.00    1.00
   2  -1  11   -0.90    1.10
  -3   1 -11   52.49    3.70
  -3   1 -11   56.39    3.70
  -3   1 -11   49.70    3.40
   3  -1  11   45.90    4.50
   3  -1  11   54.89    4.50
   3  -1  11   51.79    4.10
  -4   1 -11    2.10    0.70
  -4   1 -11    2.70    0.80
  -4   1 -11    1.50    0.60
  -4   1 -11    1.60    0.50
   4  -1  11    2.50    1.40
   4  -1  11    1.60    1.00
   4  -1  11    2.80    1.40
  -5   1 -11   -0.10    0.40
  -5   1 -11    0.40    0.60
  -5   1 -11    0.40    0.50
  -5   1 -11    0.90    0.60
   5  -1  11   -0.10    1.00
   5  -1  11    1.00    1.30
   5  -1  11    0.10    1.10
  -6   1 -11    0.50    0.60
   6  -1  11    1.60    1.30
   6  -1  11    0.30    0.90
   4   0 -11    1.40    0.50
  -4   0  11    1.50    0.50
  -4   0  11    0.80    0.50
   3   0 -11    0.40    0.30
  -3   0  11    0.00    0.50
  -3   0  11    0.00    0.50
  -3   0  11    0.00    0.40
   2   0 -11    0.60    0.40
   2   0 -11   -0.10    0.40
  -2   0  11    0.10    0.50
  -2   0  11   -0.30    0.50
  -2   0  11    0.10    0.40
   1   0 -11    0.10    0.40
   1   0 -11    0.10    0.30
  -1   0  11    0.30    0.50
  -1   0  11   -0.10    0.50
  -1   0  11    0.30    0.90
   0   0 -11    0.10    0.40
   0   0 -11    0.10    0.30
   0   0  11    1.20    1.10
   0   0  11    0.10    0.60
   0   0  11    0.00    0.50
  -1   0 -11   17.90    1.60
  -1   0 -11   18.70    1.50
   1   0  11   22.00    2.70
   1   0  11   20.00    2.30
  -2   0 -11   15.10    1.50
  -2   0 -11   18.50    1.50
  -2   0 -11   15.70    1.30
   2   0  11   19.40    2.80
   2   0  11   18.70    2.50
   2   0  11   18.10    2.10
  -3   0 -11    6.80    0.80
  -3   0 -11    7.80    0.90
  -3   0 -11    6.50    0.90
   3   0  11    6.60    1.40
   3   0  11   11.20    1.90
   3   0  11    5.90    1.50
  -4   0 -11    6.00    0.80
  -4   0 -11    6.70    1.00
  -4   0 -11    6.90    1.00
   4   0  11    8.90    2.10
   4   0  11    5.20    1.50
   4   0  11    6.30    1.90
  -5   0 -11    8.80    1.10
  -5   0 -11    4.20    0.90
   5   0  11    9.40    2.00
   5   0  11    6.50    1.90
   5   0  11    7.50    1.80
  -6   0 -11    0.90    0.60
   6   0  11    2.60    1.30
   6   0  11    0.20    1.10
   6   0  11    0.90    1.40
  -7   0 -11   -0.20    0.50
   7   0  11    0.10    1.00
   4  -1 -11    0.10    0.40
  -4   1  11    0.00    0.40
  -4   1  11    0.30    0.40
   3  -1 -11    0.40    0.40
  -3   1  11    0.40    0.40
  -3   1  11    0.60    0.50
  -3   1  11    0.30    0.50
   2  -1 -11    2.30    0.60
   2  -1 -11    3.50    0.60
  -2   1  11    3.60    0.70
  -2   1  11    3.10    0.90
  -2   1  11    2.40    0.70
   1  -1 -11   -0.10    0.40
   1  -1 -11   -0.10    0.40
  -1   1  11    0.20    0.50
  -1   1  11   -0.30    0.60
  -1   1  11    0.30    1.00
   0  -1 -11   13.40    1.30
   0  -1 -11   14.80    1.20
   0   1  11   12.80    1.70
   0   1  11   16.80    1.50
   0   1  11   15.00    2.20
  -1  -1 -11    0.50    0.30
  -1  -1 -11   -0.10    0.40
   1   1  11    0.30    0.50
   1   1  11   -0.40    0.80
   1   1  11    0.90    0.70
   1   1  11   -0.60    1.10
  -2  -1 -11    6.00    0.90
  -2  -1 -11    5.50    0.70
   2   1  11    4.50    1.70
   2   1  11    7.50    1.80
   2   1  11    3.60    1.10
  -3  -1 -11   47.00    3.20
  -3  -1 -11   51.49    3.40
  -3  -1 -11   49.10    3.40
   3   1  11   47.60    4.50
   3   1  11   50.59    4.50
   3   1  11   47.50    4.20
  -4  -1 -11   13.70    1.30
  -4  -1 -11   12.70    1.30
   4   1  11   12.40    2.30
   4   1  11    9.70    1.90
   4   1  11   11.40    2.40
  -5  -1 -11    2.30    0.70
  -5  -1 -11    3.30    0.70
   5   1  11    1.00    1.10
   5   1  11    2.30    1.60
   5   1  11    2.30    1.50
  -6  -1 -11    0.10    0.40
   6   1  11    1.20    1.10
   6   1  11    1.20    1.50
   6   1  11   -0.20    1.20
  -7  -1 -11    3.20    0.80
   7   1  11    4.70    1.70
   7   1  11    2.80    1.50
   7   1  11    1.20    1.20
   4  -2 -11    0.40    0.40
  -4   2  11    0.10    0.50
  -4   2  11    0.40    0.40
   3  -2 -11   -0.10    0.40
  -3   2  11   -0.10    0.40
  -3   2  11    0.40    0.50
  -3   2  11    0.20    0.50
   2  -2 -11    0.40    0.40
   2  -2 -11   -0.10    0.40
  -2   2  11    0.30    0.50
  -2   2  11    0.00    0.50
  -2   2  11   -0.30    0.50
   1  -2 -11    2.00    0.50
   1  -2 -11    1.90    0.60
  -1   2  11    1.10    0.60
  -1   2  11    2.40    1.30
  -1   2  11    1.90    0.90
  -1   2  11    0.90    0.60
   0  -2 -11    1.40    0.40
   0  -2 -11    1.30    0.50
   0   2  11    0.70    1.20
   0   2  11    0.90    0.80
   0   2  11    0.20    0.60
  -1  -2 -11   21.40    1.50
  -1  -2 -11   20.90    1.60
   1   2  11   21.70    1.80
   1   2  11   23.00    1.70
   1   2  11   17.80    2.20
   1   2  11   20.10    2.50
  -2  -2 -11    1.00    0.80
  -2  -2 -11    0.70    0.30
  -2  -2 -11    1.60    0.50
   2   2  11    0.70    0.60
   2   2  11    0.90    1.20
   2   2  11    0.30    1.40
   2   2  11    1.60    0.60
   2   2  11    0.60    0.90
  -3  -2 -11   48.60    3.30
  -3  -2 -11   46.80    3.30
   3   2  11   51.39    4.60
   3   2  11   46.10    4.30
   3   2  11   53.59    4.60
  -4  -2 -11   10.10    1.10
  -4  -2 -11   12.10    1.10
   4   2  11   12.20    2.40
   4   2  11   12.80    2.50
   4   2  11    7.10    1.70
  -5  -2 -11    6.90    1.10
  -5  -2 -11   10.30    1.10
   5   2  11    8.20    2.20
   5   2  11    6.20    1.80
   5   2  11    6.90    2.30
  -6  -2 -11    9.10    1.20
  -6  -2 -11    8.60    1.10
   6   2  11    8.40    2.20
   6   2  11    7.50    2.10
  -7  -2 -11    0.40    0.50
  -7  -2 -11    0.30    0.50
   7   2  11    1.00    1.50
   7   2  11   -0.10    1.80
   7   2  11   -0.10    1.20
   4  -3 -11    0.30    0.40
  -4   3  11    0.10    0.40
  -4   3  11    0.30    0.50
   3  -3 -11   -0.10    0.40
  -3   3  11    1.00    0.60
  -3   3  11    0.10    0.50
   2  -3 -11    0.60    0.40
   2  -3 -11    0.30    0.40
  -2   3  11    0.20    0.50
  -2   3  11   -0.30    0.50
  -2   3  11    0.50    0.50
   1  -3 -11    3.50    0.60
   1  -3 -11    3.10    0.60
  -1   3  11    4.00    1.10
  -1   3  11    2.10    0.60
  -1   3  11    2.70    1.30
  -1   3  11    2.50    0.70
   0  -3 -11    1.70    0.40
   0  -3 -11    1.60    0.50
   0  -3 -11    0.90    0.70
   0   3  11    1.70    0.80
   0   3  11    1.70    1.40
   0   3  11    2.10    0.60
   0   3  11    0.30    0.80
  -1  -3 -11    7.20    1.00
  -1  -3 -11    8.20    0.80
  -1  -3 -11    7.50    1.40
   1   3  11    6.70    1.10
   1   3  11    9.80    1.10
   1   3  11    7.70    2.00
   1   3  11    8.20    1.70
  -2  -3 -11    1.60    0.80
  -2  -3 -11    1.10    0.50
  -2  -3 -11    2.40    0.50
   2   3  11    1.50    0.70
   2   3  11    2.60    1.70
   2   3  11    1.40    1.20
   2   3  11    1.30    0.60
   2   3  11    3.20    1.70
  -3  -3 -11   -0.20    0.40
  -3  -3 -11   -0.10    0.50
  -3  -3 -11   -0.10    0.30
   3   3  11    0.00    1.00
   3   3  11    0.10    0.60
   3   3  11    0.40    1.20
   3   3  11   -0.50    0.50
   3   3  11    0.10    1.30
  -4  -3 -11   10.00    1.10
  -4  -3 -11    9.70    1.00
   4   3  11   12.70    2.60
   4   3  11    7.20    2.10
   4   3  11    6.30    1.60
  -5  -3 -11   -0.30    0.40
  -5  -3 -11    0.00    0.40
   5   3  11    0.00    1.00
   5   3  11    3.90    1.80
   5   3  11    0.00    1.40
  -6  -3 -11    8.00    1.10
   6   3  11    9.20    2.20
   6   3  11    9.90    2.30
   6   3  11   14.60    3.20
  -7  -3 -11    3.30    0.80
  -7  -3 -11    4.40    0.80
   7   3  11    3.50    2.10
   7   3  11    4.20    1.90
   3  -4 -11    1.00    0.50
   3  -4 -11    0.70    0.40
  -3   4  11    0.20    0.40
  -3   4  11    0.60    0.60
   2  -4 -11    0.90    0.50
   2  -4 -11    0.60    0.40
  -2   4  11    1.10    0.60
   1  -4 -11    0.90    0.40
   1  -4 -11    0.30    0.40
   1  -4 -11    0.60    0.60
  -1   4  11    0.70    1.30
  -1   4  11    0.70    0.50
  -1   4  11    0.10    0.70
  -1   4  11    0.80    0.50
  -1   4  11   -0.10    0.50
   0  -4 -11    0.50    0.40
   0  -4 -11    1.40    0.40
   0  -4 -11    0.70    0.60
   0   4  11    1.30    0.90
   0   4  11    0.70    1.30
   0   4  11    1.10    0.70
   0   4  11    0.30    0.50
  -1  -4 -11    5.60    0.80
  -1  -4 -11    6.20    0.90
  -1  -4 -11    6.70    1.40
   1   4  11    2.70    1.50
   1   4  11    5.80    1.60
   1   4  11    6.70    1.10
   1   4  11    7.00    1.00
  -2  -4 -11   11.60    1.10
  -2  -4 -11   11.50    1.90
   2   4  11    8.90    2.20
   2   4  11   13.40    1.30
   2   4  11   10.80    2.10
   2   4  11   11.10    1.50
  -3  -4 -11    5.90    1.40
  -3  -4 -11    6.70    0.90
   3   4  11    8.10    2.20
   3   4  11    6.50    2.00
   3   4  11    6.20    1.60
   3   4  11    6.40    1.10
   3   4  11    8.30    1.10
  -4  -4 -11   17.80    1.40
  -4  -4 -11   19.50    1.40
   4   4  11   15.30    1.60
   4   4  11   14.10    2.10
   4   4  11   24.40    3.40
  -5  -4 -11    9.40    1.00
  -5  -4 -11    8.40    1.00
  -5  -4 -11   11.40    1.50
   5   4  11    4.10    1.40
   5   4  11    9.00    2.70
   5   4  11    8.70    2.20
  -6  -4 -11    0.60    0.50
  -6  -4 -11    1.30    0.60
   6   4  11    1.40    1.80
   6   4  11    0.40    1.30
   6   4  11   -0.30    1.60
  -7  -4 -11    2.20    0.70
  -7  -4 -11    2.20    0.70
   7   4  11    2.70    2.10
   7   4  11   -0.20    1.10
   3  -5 -11   -0.40    0.40
   3  -5 -11    0.00    0.50
  -3   5  11   -0.30    0.50
  -3   5  11   -0.30    0.40
   2  -5 -11    0.10    0.40
   2  -5 -11    0.10    0.70
   2  -5 -11    0.10    0.30
  -2   5  11   -0.30    0.50
  -2   5  11    0.10    0.50
  -2   5  11    0.40    0.40
   1  -5 -11    2.10    0.50
   1  -5 -11    1.00    0.40
   1  -5 -11    2.90    0.90
  -1   5  11    2.10    0.60
  -1   5  11    2.50    0.90
  -1   5  11    1.60    0.60
  -1   5  11    2.10    0.70
  -1   5  11    1.10    1.30
   0  -5 -11    3.30    0.60
   0  -5 -11    2.60    0.60
   0  -5 -11    2.30    0.90
   0   5  11    3.00    1.20
   0   5  11    2.60    0.70
   0   5  11    1.60    0.60
   0   5  11    1.60    1.40
  -1  -5 -11   -0.10    0.40
  -1  -5 -11   -0.20    0.60
   1   5  11    0.20    0.60
   1   5  11    0.40    1.00
   1   5  11    0.10    0.50
   1   5  11    0.20    1.30
  -2  -5 -11   38.90    3.30
  -2  -5 -11   35.90    2.60
   2   5  11   34.30    2.80
   2   5  11   29.40    3.50
   2   5  11   38.50    3.80
   2   5  11   38.80    2.70
  -3  -5 -11    0.70    0.70
  -3  -5 -11    0.30    0.40
   3   5  11    0.00    0.70
   3   5  11    0.20    0.70
   3   5  11   -1.50    1.30
   3   5  11    0.20    1.20
  -4  -5 -11    1.10    0.70
  -4  -5 -11    1.30    0.40
  -4  -5 -11    1.40    0.50
   4   5  11    0.90    1.50
   4   5  11   -1.10    1.50
   4   5  11    1.00    1.00
   4   5  11    1.50    0.80
   4   5  11    1.50    0.80
  -5  -5 -11    3.10    0.60
  -5  -5 -11    2.50    1.00
  -5  -5 -11    2.50    0.60
  -5  -5 -11    2.30    0.50
   5   5  11    2.10    1.60
   5   5  11    1.30    1.70
   5   5  11    0.70    1.20
  -6  -5 -11    0.10    0.40
  -6  -5 -11    0.10    0.50
   6   5  11   -1.10    1.50
   6   5  11   -0.90    1.30
   6   5  11   -0.90    1.60
  -7  -5 -11    0.20    0.50
  -7  -5 -11    0.80    0.50
   7   5  11    2.00    1.90
   7   5  11    2.30    1.80
   3  -6 -11   -0.20    0.40
  -3   6  11    0.60    0.40
  -3   6  11   -0.10    0.50
   2  -6 -11    0.30    0.60
   2  -6 -11    0.00    0.40
   2  -6 -11    0.30    0.40
  -2   6  11    0.10    0.50
  -2   6  11   -0.30    0.40
  -2   6  11   -0.10    0.40
   1  -6 -11    0.60    0.70
   1  -6 -11    1.30    0.80
   1  -6 -11    1.10    0.50
  -1   6  11    0.40    1.40
  -1   6  11    1.10    0.50
  -1   6  11    0.10    0.50
  -1   6  11    1.20    0.60
   0  -6 -11    7.60    1.00
   0  -6 -11    8.30    1.40
   0   6  11    7.60    1.60
   0   6  11    3.50    1.60
   0   6  11    6.90    1.20
   0   6  11    7.60    1.00
  -1  -6 -11    5.40    0.80
  -1  -6 -11    5.70    1.20
   1   6  11    3.30    1.70
   1   6  11    4.10    0.80
   1   6  11    4.60    1.00
   1   6  11    4.40    1.50
  -2  -6 -11   -0.10    0.50
  -2  -6 -11   -0.20    0.40
   2   6  11    0.30    1.50
   2   6  11    0.90    1.30
   2   6  11   -0.30    0.60
   2   6  11    0.60    0.60
  -3  -6 -11    0.10    0.60
  -3  -6 -11   -0.20    0.30
   3   6  11    0.10    0.60
   3   6  11   -0.50    1.10
   3   6  11   -0.50    1.40
   3   6  11   -0.40    0.70
  -4  -6 -11    0.00    0.30
  -4  -6 -11    0.00    0.30
  -4  -6 -11    0.30    0.60
   4   6  11    1.00    0.80
   4   6  11    0.20    0.90
   4   6  11   -0.10    1.70
   4   6  11    1.10    1.50
  -5  -6 -11    3.80    1.20
  -5  -6 -11    5.10    0.70
  -5  -6 -11    5.70    0.80
  -5  -6 -11    5.50    0.90
   5   6  11    3.70    1.10
   5   6  11    4.20    1.90
   5   6  11    5.90    1.90
   5   6  11    7.20    2.50
  -6  -6 -11    2.60    0.70
   6   6  11    2.10    2.00
   6   6  11    0.80    1.40
   6   6  11    2.20    1.70
  -7  -6 -11   -0.20    0.50
   7   6  11   -0.40    2.00
   7   6  11   -0.10    1.50
   2  -7 -11    0.10    0.40
   2  -7 -11    0.10    0.60
  -2   7  11    0.00    0.50
  -2   7  11    0.50    0.60
  -2   7  11   -0.10    0.50
   1  -7 -11    1.00    0.40
   1  -7 -11    1.30    0.80
  -1   7  11    0.70    0.60
  -1   7  11    1.60    0.60
  -1   7  11    1.50    1.40
  -1   7  11    0.60    0.50
   0  -7 -11    0.00    0.30
   0  -7 -11    0.20    0.60
   0   7  11   -0.40    1.30
   0   7  11   -0.30    0.50
   0   7  11    0.50    0.60
  -1  -7 -11    3.00    1.00
  -1  -7 -11    1.00    0.50
   1   7  11    2.10    1.30
   1   7  11    2.20    0.80
   1   7  11    1.90    1.50
  -2  -7 -11    0.40    0.40
  -2  -7 -11    0.40    0.60
   2   7  11    1.40    1.40
   2   7  11    0.90    1.40
   2   7  11    0.00    0.50
   2   7  11    0.80    0.70
  -3  -7 -11    7.20    0.80
  -3  -7 -11    8.20    1.60
   3   7  11    5.60    1.30
   3   7  11    2.20    1.60
   3   7  11    3.90    1.70
  -4  -7 -11    0.60    0.60
  -4  -7 -11    1.60    0.40
   4   7  11    4.50    1.80
   4   7  11    1.10    0.80
   4   7  11    0.40    1.10
  -5  -7 -11    0.50    0.70
  -5  -7 -11    0.20    0.50
   5   7  11    0.70    1.50
   5   7  11   -0.10    1.40
   5   7  11    0.10    0.90
   5   7  11   -1.40    1.80
  -6  -7 -11    1.30    0.60
  -6  -7 -11    0.30    0.60
   6   7  11    2.00    1.70
   6   7  11   -0.70    1.20
   6   7  11    1.60    2.00
   1  -8 -11    1.70    0.90
   1  -8 -11    0.80    0.40
  -1   8  11    0.90    0.60
  -1   8  11    0.60    0.70
  -1   8  11    1.40    0.60
  -1   8  11    0.10    1.40
   0  -8 -11    1.20    0.40
   0  -8 -11    1.50    0.80
   0   8  11    1.20    1.40
   0   8  11    2.00    0.70
   0   8  11    0.20    0.60
  -1  -8 -11    3.10    0.60
  -1  -8 -11    4.30    1.20
   1   8  11    3.60    1.70
   1   8  11    4.00    0.90
   1   8  11    1.40    0.80
  -2  -8 -11    0.20    0.40
  -2  -8 -11    0.20    0.50
   2   8  11    0.70    0.70
   2   8  11    0.00    1.30
   2   8  11   -0.20    1.30
   2   8  11    0.90    0.70
  -3  -8 -11    0.30    0.30
  -3  -8 -11   -0.10    0.50
   3   8  11   -0.80    1.30
   3   8  11   -0.30    0.60
   3   8  11    0.10    1.30
  -4  -8 -11    0.00    0.30
  -4  -8 -11   -0.50    0.50
   4   8  11   -0.50    0.80
   4   8  11   -0.30    1.20
   4   8  11    0.60    1.50
  -5  -8 -11    0.80    0.50
  -5  -8 -11    0.50    0.60
   5   8  11    0.90    1.00
   5   8  11    1.30    1.70
   5   8  11    1.10    1.60
  -6  -8 -11    1.90    0.60
  -6  -8 -11    1.10    0.80
   6   8  11    0.70    1.00
   6   8  11   -0.10    1.50
   6   8  11    2.30    2.20
  -1  -9 -11    0.30    0.30
  -1  -9 -11    1.30    0.80
   1   9  11    0.60    0.60
   1   9  11    0.00    1.40
   1   9  11    1.30    0.70
  -2  -9 -11    0.50    0.40
  -2  -9 -11    0.20    0.50
   2   9  11    1.00    0.70
   2   9  11    0.00    1.40
   2   9  11    0.20    0.70
  -3  -9 -11    0.20    0.30
  -3  -9 -11    0.30    0.60
   3   9  11    0.30    1.60
   3   9  11   -0.40    1.20
   3   9  11    1.10    0.80
  -4  -9 -11    1.70    0.80
  -4  -9 -11    1.40    0.40
   4   9  11    1.00    0.80
   4   9  11    1.80    1.70
   4   9  11    1.00    1.50
   0   3 -12    1.60    0.40
   0  -3  12    0.70    0.60
   0  -3  12    0.60    0.50
   0  -3  12    0.60    0.50
  -1   3 -12   -0.20    0.40
  -1   3 -12   -0.10    0.40
  -1   3 -12    0.60    0.70
   1  -3  12   -0.40    0.70
   1  -3  12   -0.80    0.40
   1  -3  12    0.50    0.90
   1  -3  12   -0.90    0.60
  -2   3 -12    1.50    0.60
  -2   3 -12    0.40    0.40
  -2   3 -12    0.20    0.50
   2  -3  12   -0.40    0.80
   2  -3  12    0.80    0.80
  -3   3 -12    0.80    0.50
   1   2 -12   -0.10    0.30
   1   2 -12    0.20    0.50
  -1  -2  12    0.40    0.60
   0   2 -12    0.20    0.40
   0   2 -12   -0.10    0.40
   0   2 -12   -0.10    0.30
   0  -2  12    0.40    0.90
   0  -2  12   -0.10    0.40
  -1   2 -12    0.40    0.40
  -1   2 -12    0.00    0.40
  -1   2 -12    0.80    0.50
   1  -2  12   -0.60    0.60
   1  -2  12    0.50    0.70
   1  -2  12   -0.30    0.90
  -2   2 -12    0.90    0.50
  -2   2 -12    0.40    0.40
  -2   2 -12    1.50    0.60
   2  -2  12    0.70    1.00
   2  -2  12    1.30    1.10
   2  -2  12    1.50    0.90
  -3   2 -12    4.20    0.70
  -3   2 -12    2.20    0.70
  -3   2 -12    2.70    0.70
   3  -2  12    1.80    0.90
   3  -2  12    2.60    1.20
   3  -2  12    4.20    1.30
  -4   2 -12    1.50    0.70
  -4   2 -12    1.70    0.70
  -4   2 -12    0.70    0.40
  -4   2 -12    0.50    0.50
   4  -2  12    0.80    1.00
   4  -2  12    0.90    1.10
   4  -2  12    1.90    0.90
   2   1 -12    3.30    0.50
   2   1 -12    2.70    0.70
  -2  -1  12    4.80    0.80
  -2  -1  12    3.50    0.80
   1   1 -12   -0.10    0.30
   1   1 -12    0.40    0.50
  -1  -1  12    0.00    0.50
  -1  -1  12    0.40    0.50
   0   1 -12    1.90    0.50
   0   1 -12    2.70    0.70
   0  -1  12    1.40    0.60
   0  -1  12    1.10    1.00
  -1   1 -12    0.60    0.50
  -1   1 -12    1.00    0.40
  -1   1 -12    0.40    0.40
   1  -1  12    1.20    1.10
   1  -1  12    0.40    0.60
   1  -1  12    1.00    0.90
  -2   1 -12    1.30    0.50
  -2   1 -12    1.60    0.50
  -2   1 -12    0.90    0.40
   2  -1  12    1.60    0.90
   2  -1  12    2.20    1.30
   2  -1  12    0.20    0.90
  -3   1 -12    1.40    0.70
  -3   1 -12    3.10    0.70
  -3   1 -12    2.50    0.60
   3  -1  12    2.10    1.10
   3  -1  12    2.90    1.50
   3  -1  12    2.60    1.30
  -4   1 -12    2.50    0.70
  -4   1 -12    3.80    0.60
  -4   1 -12    3.80    0.80
  -4   1 -12    2.60    0.70
   4  -1  12    2.20    1.40
   4  -1  12    4.00    1.20
   4  -1  12    1.90    1.30
  -5   1 -12    4.80    0.90
  -5   1 -12    4.20    0.90
  -5   1 -12    5.80    0.90
  -5   1 -12    7.00    1.70
   5  -1  12    1.70    1.20
   5  -1  12    3.90    1.20
   5  -1  12    4.30    1.50
   2   0 -12    0.20    0.30
   2   0 -12    0.20    0.40
  -2   0  12    1.30    0.70
  -2   0  12    1.10    0.60
   1   0 -12   -0.10    0.40
   1   0 -12   -0.10    0.30
  -1   0  12    0.10    0.60
  -1   0  12   -0.30    0.50
   0   0 -12    0.40    0.30
   0   0 -12    0.40    0.40
   0   0  12   -0.50    1.00
   0   0  12    0.30    0.50
   0   0  12    0.10    0.50
  -1   0 -12   -0.10    0.30
  -1   0 -12   -0.10    0.40
   1   0  12    0.40    0.60
   1   0  12   -1.10    1.10
  -2   0 -12   -0.10    0.40
  -2   0 -12    0.00    0.30
  -2   0 -12   -0.40    0.40
   2   0  12   -0.90    0.80
   2   0  12   -0.60    1.20
   2   0  12   -0.40    0.80
  -3   0 -12   -0.10    0.30
  -3   0 -12   -0.60    0.40
  -3   0 -12   -0.10    0.50
   3   0  12    0.00    0.80
   3   0  12   -0.80    1.30
   3   0  12   -0.20    1.10
  -4   0 -12    1.00    0.40
  -4   0 -12    0.50    0.60
  -4   0 -12    0.70    0.60
   4   0  12    0.90    1.00
   4   0  12    0.60    1.40
   4   0  12    1.40    1.30
  -5   0 -12    3.50    0.80
  -5   0 -12    2.40    0.70
   5   0  12    2.90    1.60
   5   0  12    4.40    1.60
   5   0  12    2.60    1.20
  -6   0 -12   -0.20    0.40
   6   0  12   -1.70    0.90
   6   0  12   -0.10    1.00
   6   0  12    0.30    1.30
   3  -1 -12    1.20    0.40
  -3   1  12    1.30    0.60
  -3   1  12    0.70    0.50
  -3   1  12    2.10    0.60
   2  -1 -12    0.20    0.40
   2  -1 -12   -0.20    0.30
  -2   1  12   -0.10    0.60
  -2   1  12   -0.20    0.50
   1  -1 -12    0.00    0.30
   1  -1 -12    0.10    0.40
  -1   1  12   -0.40    0.60
  -1   1  12    0.30    0.60
   0  -1 -12    2.00    0.60
   0  -1 -12    2.00    0.50
   0   1  12    1.90    0.70
   0   1  12    2.10    1.30
   0   1  12    1.40    0.80
  -1  -1 -12    0.10    0.30
  -1  -1 -12    0.00    0.40
   1   1  12    0.60    0.70
   1   1  12    0.00    0.70
   1   1  12    1.80    1.40
  -2  -1 -12    0.00    0.40
  -2  -1 -12   -0.10    0.30
  -2  -1 -12   -0.20    0.40
   2   1  12   -0.20    1.40
   2   1  12   -0.20    0.90
   2   1  12    0.60    1.00
  -3  -1 -12   10.80    1.00
  -3  -1 -12   11.50    1.20
  -3  -1 -12   11.50    1.30
   3   1  12   11.70    2.40
   3   1  12   11.40    2.20
  -4  -1 -12    1.30    0.60
  -4  -1 -12    1.80    0.60
   4   1  12    1.00    0.90
   4   1  12    2.80    1.60
   4   1  12    0.00    1.20
  -5  -1 -12    7.90    1.10
  -5  -1 -12    8.00    1.10
   5   1  12    5.80    1.60
   5   1  12    6.60    1.90
   5   1  12    6.70    2.00
  -6  -1 -12    1.90    0.70
   6   1  12    1.00    1.10
   6   1  12    1.20    1.30
   6   1  12    1.60    1.40
   3  -2 -12   -0.10    0.40
  -3   2  12    0.20    0.50
  -3   2  12   -0.20    0.50
  -3   2  12    0.50    0.50
   2  -2 -12    0.60    0.50
   2  -2 -12   -0.20    0.40
  -2   2  12   -0.50    0.60
  -2   2  12    0.20    0.60
  -2   2  12    0.20    0.50
   1  -2 -12    0.30    0.40
   1  -2 -12    0.50    0.40
  -1   2  12   -0.10    0.50
  -1   2  12    0.30    1.30
  -1   2  12    0.40    0.70
   0  -2 -12    0.30    0.40
   0  -2 -12    0.00    0.30
   0   2  12   -0.40    1.10
   0   2  12   -0.10    0.50
   0   2  12   -0.30    0.50
  -1  -2 -12    3.80    0.60
  -1  -2 -12    4.70    0.70
   1   2  12    5.70    1.60
   1   2  12    5.00    0.80
   1   2  12    4.50    1.20
  -2  -2 -12    0.30    0.70
  -2  -2 -12   -0.10    0.30
  -2  -2 -12    0.20    0.40
   2   2  12   -0.70    1.20
   2   2  12   -0.50    0.80
  -3  -2 -12    1.40    0.50
  -3  -2 -12    2.90    0.70
   3   2  12    3.40    1.70
   3   2  12    1.60    1.20
   3   2  12    1.30    1.10
  -4  -2 -12    3.90    0.80
  -4  -2 -12    2.90    0.60
   4   2  12    0.40    0.70
   4   2  12    2.10    1.60
   4   2  12    2.70    1.50
  -5  -2 -12    0.30    0.50
  -5  -2 -12   -0.60    0.40
   5   2  12   -0.60    0.70
   5   2  12   -0.30    1.30
   5   2  12   -0.10    1.20
  -6  -2 -12    1.20    0.60
   6   2  12    0.50    1.40
   6   2  12    2.10    1.40
   6   2  12   -0.10    1.30
   3  -3 -12    1.50    0.50
  -3   3  12    0.80    0.50
  -3   3  12    1.20    0.50
   2  -3 -12    1.30    0.50
   2  -3 -12   -0.10    0.40
  -2   3  12    0.70    0.60
  -2   3  12    0.20    0.50
  -2   3  12    0.10    0.50
   1  -3 -12    0.10    0.40
   1  -3 -12   -0.20    0.30
  -1   3  12    0.00    0.70
  -1   3  12    0.50    1.20
  -1   3  12    0.00    0.50
   0  -3 -12    0.30    0.40
   0  -3 -12    0.70    0.40
   0   3  12    0.40    0.50
   0   3  12    0.90    0.80
   0   3  12   -0.20    0.50
   0   3  12   -0.20    1.20
  -1  -3 -12    0.20    0.30
  -1  -3 -12    0.10    0.40
  -1  -3 -12    0.10    0.60
   1   3  12   -0.20    0.50
   1   3  12   -0.60    0.70
   1   3  12    0.10    0.60
   1   3  12   -0.70    1.20
  -2  -3 -12    5.00    1.30
  -2  -3 -12    5.70    0.80
   2   3  12    6.00    1.90
   2   3  12    3.10    1.10
   2   3  12    5.40    1.00
   2   3  12    5.40    0.80
  -3  -3 -12    0.00    0.40
  -3  -3 -12    0.20    0.40
  -3  -3 -12   -0.20    0.50
   3   3  12    0.50    0.70
   3   3  12    0.40    1.10
   3   3  12    1.20    1.50
   3   3  12    0.10    1.10
  -4  -3 -12    3.00    0.60
  -4  -3 -12    4.40    0.70
   4   3  12    3.50    1.60
   4   3  12    2.80    1.70
   4   3  12    3.60    1.50
  -5  -3 -12    0.40    0.40
  -5  -3 -12    0.80    0.40
   5   3  12   -0.20    1.40
   5   3  12    0.20    1.30
   5   3  12   -0.30    1.50
  -6  -3 -12   16.90    1.50
   6   3  12   17.60    2.70
   6   3  12   13.70    2.50
   6   3  12   14.60    3.00
  -7  -3 -12    1.10    0.60
  -7  -3 -12    2.20    0.80
   7   3  12   -0.40    1.50
   7   3  12    0.40    1.60
   3  -4 -12    0.00    0.40
   2  -4 -12    0.30    0.40
   2  -4 -12    0.70    0.40
  -2   4  12    0.80    0.60
  -2   4  12    0.20    0.40
   1  -4 -12    0.00    0.40
   1  -4 -12    0.50    0.40
  -1   4  12    1.00    1.30
  -1   4  12    0.50    0.50
  -1   4  12   -0.20    0.50
  -1   4  12   -0.40    0.60
   0  -4 -12    0.70    0.40
   0  -4 -12    0.70    0.70
   0  -4 -12    1.20    0.50
   0   4  12    0.60    0.60
   0   4  12    2.10    1.40
   0   4  12    0.70    0.80
   0   4  12    1.00    0.70
  -1  -4 -12    0.20    0.40
  -1  -4 -12   -0.20    0.60
   1   4  12    0.50    0.70
   1   4  12   -0.40    0.80
   1   4  12    0.50    1.40
   1   4  12    0.30    0.50
  -2  -4 -12    2.90    1.00
  -2  -4 -12    1.80    0.60
   2   4  12    1.80    0.80
   2   4  12    1.00    1.40
   2   4  12    2.30    0.70
   2   4  12    1.90    1.00
  -3  -4 -12    3.70    0.70
  -3  -4 -12    2.70    1.00
   3   4  12    3.30    0.70
   3   4  12    3.20    0.90
   3   4  12    1.60    1.60
   3   4  12    1.20    1.10
  -4  -4 -12   14.50    1.20
  -4  -4 -12   11.70    1.10
   4   4  12   10.20    2.20
   4   4  12   11.80    2.50
   4   4  12   12.70    2.70
  -5  -4 -12    2.30    0.60
  -5  -4 -12    1.80    0.50
   5   4  12    1.00    1.60
   5   4  12    0.50    1.20
   5   4  12    1.20    1.60
  -6  -4 -12    2.60    0.60
   6   4  12    3.10    1.90
   6   4  12    3.60    2.20
   6   4  12    1.60    1.60
  -7  -4 -12    0.40    0.50
  -7  -4 -12    1.80    0.60
   7   4  12    0.90    1.70
   7   4  12    0.80    1.90
   2  -5 -12    1.60    0.50
   2  -5 -12    2.40    0.60
  -2   5  12    1.20    0.60
  -2   5  12    2.30    0.60
  -2   5  12    1.10    0.60
   1  -5 -12    0.20    0.40
   1  -5 -12   -0.30    0.60
   1  -5 -12    0.10    0.40
  -1   5  12    0.00    0.60
  -1   5  12    0.00    1.30
  -1   5  12   -0.30    0.40
   0  -5 -12   -0.20    0.50
   0  -5 -12   -0.10    0.40
   0   5  12   -1.00    0.60
   0   5  12   -0.20    0.50
   0   5  12    0.80    0.80
   0   5  12    1.60    1.40
  -1  -5 -12    2.60    0.60
  -1  -5 -12    1.90    0.90
   1   5  12   -0.40    1.30
   1   5  12    1.50    1.20
   1   5  12    1.60    0.60
   1   5  12    2.90    0.80
  -2  -5 -12    0.90    0.70
  -2  -5 -12    1.40    0.50
   2   5  12    1.20    1.50
   2   5  12    1.60    1.10
   2   5  12    0.30    0.60
   2   5  12    2.20    0.70
  -3  -5 -12    0.00    0.60
  -3  -5 -12    0.00    0.40
   3   5  12    0.40    0.90
   3   5  12   -0.20    0.60
   3   5  12    0.50    0.70
   3   5  12    0.60    1.40
  -4  -5 -12    0.10    0.60
  -4  -5 -12   -0.30    0.20
  -4  -5 -12   -0.10    0.40
   4   5  12    1.50    1.60
   4   5  12   -1.00    0.90
   4   5  12    0.30    0.70
   4   5  12    0.90    1.60
   4   5  12    1.00    0.70
  -5  -5 -12    0.50    0.40
  -5  -5 -12    0.50    0.40
   5   5  12    1.00    1.70
   5   5  12   -0.40    1.60
   5   5  12   -1.20    1.10
  -6  -5 -12    1.10    0.50
   6   5  12    0.70    1.30
   6   5  12    0.70    1.90
   6   5  12    0.80    1.70
   7   5  12    0.20    1.90
   2  -6 -12    2.60    0.60
  -2   6  12    1.50    0.60
  -2   6  12    2.30    0.60
   1  -6 -12    0.20    0.60
   1  -6 -12    0.10    0.40
  -1   6  12   -0.50    1.40
  -1   6  12    0.10    0.50
  -1   6  12    0.00    0.50
   0  -6 -12    0.70    0.70
   0  -6 -12    0.50    0.40
   0   6  12   -0.50    1.30
   0   6  12   -0.10    0.80
   0   6  12    0.30    0.50
   0   6  12   -0.20    0.40
  -1  -6 -12    0.00    0.50
  -1  -6 -12    0.10    0.30
   1   6  12   -0.40    0.50
   1   6  12    0.60    0.60
   1   6  12   -0.50    0.90
   1   6  12    0.20    1.40
  -2  -6 -12    0.00    0.40
  -2  -6 -12    0.30    0.60
   2   6  12    2.00    1.60
   2   6  12   -0.20    0.60
   2   6  12   -0.10    0.60
   2   6  12    0.10    1.00
  -3  -6 -12    6.40    0.80
  -3  -6 -12    4.70    1.30
   3   6  12    4.10    1.50
   3   6  12    4.00    1.70
   3   6  12    5.10    1.00
   3   6  12    4.90    1.10
  -4  -6 -12   -0.10    0.30
  -4  -6 -12    0.10    0.30
  -4  -6 -12    0.00    0.50
   4   6  12    0.00    0.80
   4   6  12    0.50    1.60
   4   6  12    0.00    1.10
   4   6  12    1.00    0.70
  -5  -6 -12    0.10    0.30
  -5  -6 -12    0.10    0.70
  -5  -6 -12    0.60    0.40
   5   6  12   -0.20    1.60
   5   6  12   -0.30    1.60
   5   6  12   -0.20    1.30
   6   6  12   -0.10    1.10
   6   6  12   -0.50    1.60
   6   6  12   -0.40    1.60
   1  -7 -12    0.50    0.60
  -1   7  12    0.40    0.50
  -1   7  12    0.30    0.50
  -1   7  12   -0.40    2.30
   0  -7 -12    1.00    0.80
   0  -7 -12    0.80    0.40
   0   7  12    1.70    0.60
   0   7  12    0.40    0.50
   0   7  12    0.30    1.40
  -1  -7 -12    2.10    0.50
  -1  -7 -12    1.10    0.80
   1   7  12    2.00    0.70
   1   7  12    1.40    1.20
   1   7  12    2.30    1.50
   1   7  12    1.50    0.60
  -2  -7 -12    2.40    0.50
  -2  -7 -12    1.60    0.80
   2   7  12    2.20    1.60
   2   7  12    0.90    1.20
   2   7  12    1.10    0.70
   2   7  12    0.40    0.70
  -3  -7 -12    0.10    0.40
  -3  -7 -12   -0.20    0.50
   3   7  12    0.70    0.80
   3   7  12   -0.60    1.40
   3   7  12    0.50    1.10
   3   7  12    0.00    0.70
  -4  -7 -12    2.50    1.00
  -4  -7 -12    2.50    0.50
   4   7  12    1.90    1.60
   4   7  12    3.60    1.10
   4   7  12    0.10    0.90
  -5  -7 -12   -0.30    0.60
   5   7  12    0.30    0.70
   5   7  12   -0.60    1.30
   5   7  12    1.00    1.60
   6   7  12   -0.40    1.90
   6   7  12    0.40    1.70
   0   8  12    1.30    0.60
   0   8  12    2.70    0.70
  -1  -8 -12    0.70    0.70
  -1  -8 -12    0.40    0.40
   1   8  12    0.50    0.50
   1   8  12   -0.80    1.50
   1   8  12    1.00    0.60
  -2  -8 -12    0.00    0.30
  -2  -8 -12    0.40    0.70
   2   8  12    0.20    1.30
   2   8  12    0.10    0.70
   2   8  12    0.10    0.70
   2   8  12   -0.10    1.40
  -3  -8 -12    4.60    1.20
  -3  -8 -12    2.70    0.50
   3   8  12    2.50    0.80
   3   8  12    1.70    1.50
   3   8  12    2.50    0.90
   3   8  12    1.90    1.60
  -4  -8 -12    0.10    0.30
  -4  -8 -12    1.60    0.90
   4   8  12   -0.30    1.20
   4   8  12    1.70    1.70
   4   8  12    0.90    0.80
  -5  -8 -12    0.20    0.60
   5   8  12    0.20    0.70
   5   8  12    1.60    1.70
   0   1 -13    0.90    0.40
   0   1 -13    1.00    0.50
   0  -1  13    0.40    0.60
  -1   1 -13    0.10    0.40
  -1   1 -13   -0.10    0.40
  -1   1 -13    0.10    0.30
   1  -1  13    0.00    0.50
   1  -1  13   -0.30    1.00
  -2   1 -13   -0.10    0.30
  -2   1 -13    0.40    0.50
  -2   1 -13    0.20    0.40
   2  -1  13    0.00    0.60
   2  -1  13    0.30    1.00
   2  -1  13    0.20    1.10
  -3   1 -13    0.20    0.40
  -3   1 -13   -0.10    0.50
  -3   1 -13   -0.40    0.40
   3  -1  13    0.30    0.70
   3  -1  13    0.30    1.00
   3  -1  13    0.00    1.00
  -4   1 -13    0.30    0.40
   1   0 -13    0.70    0.40
   1   0 -13    0.40    0.50
  -1   0  13    0.30    0.50
  -1   0  13    0.50    0.50
   0   0 -13   -0.40    0.40
   0   0 -13    0.40    0.40
   0   0  13    0.20    0.50
   0   0  13    0.60    1.10
  -1   0 -13   -0.10    0.40
  -1   0 -13    0.00    0.30
   1   0  13   -0.30    1.10
   1   0  13   -0.30    0.60
  -2   0 -13    0.40    0.40
  -2   0 -13   -0.10    0.30
  -2   0 -13    0.50    0.30
   2   0  13   -0.90    0.80
   2   0  13    0.30    0.50
   2   0  13    0.50    1.20
  -3   0 -13    0.80    0.30
  -3   0 -13    0.90    0.60
  -3   0 -13    0.80    0.50
   3   0  13   -0.10    1.20
   3   0  13    1.10    1.10
   3   0  13    0.40    0.90
  -4   0 -13    0.10    0.50
  -4   0 -13    0.30    0.50
   4   0  13    1.30    1.30
   4   0  13    0.40    1.10
   4   0  13    0.30    0.90
   1  -1 -13    0.20    0.50
   1  -1 -13    0.50    0.40
  -1   1  13    0.20    0.60
  -1   1  13    0.20    0.60
   0  -1 -13   -0.20    0.30
   0  -1 -13    0.00    0.40
   0   1  13    0.10    0.50
   0   1  13    0.00    0.60
   0   1  13   -0.50    1.10
  -1  -1 -13   -0.40    0.30
  -1  -1 -13   -0.50    0.40
   1   1  13   -0.10    0.60
   1   1  13   -1.00    1.10
  -2  -1 -13    0.00    0.30
  -2  -1 -13    0.00    0.40
  -2  -1 -13   -0.20    0.40
   2   1  13    0.60    1.30
   2   1  13    0.90    0.80
  -3  -1 -13    0.10    0.40
  -3  -1 -13    0.30    0.50
   3   1  13   -0.60    0.90
   3   1  13   -0.30    0.70
   3   1  13   -0.60    1.20
  -4  -1 -13   -0.30    0.40
  -4  -1 -13    0.30    0.50
   4   1  13   -0.10    1.40
   4   1  13    0.00    0.80
   4   1  13   -0.10    1.10
  -5  -1 -13    3.50    0.80
  -5  -1 -13    2.60    0.70
   5   1  13    2.30    1.60
   5   1  13    0.90    1.10
   5   1  13    3.00    1.60
   1  -2 -13    1.00    0.50
   1  -2 -13    0.90    0.40
  -1   2  13    0.20    0.60
  -1   2  13    0.80    0.60
   0  -2 -13   -0.10    0.30
   0  -2 -13   -0.20    0.40
   0   2  13    0.50    0.50
   0   2  13    0.90    1.30
   0   2  13   -0.10    0.60
  -1  -2 -13    0.50    0.40
  -1  -2 -13    0.30    0.30
   1   2  13    0.60    0.60
   1   2  13    0.50    1.20
   1   2  13    0.50    0.80
  -2  -2 -13    0.30    0.40
  -2  -2 -13    0.20    0.40
   2   2  13    0.30    1.30
   2   2  13   -0.30    0.70
  -3  -2 -13    1.40    0.50
  -3  -2 -13    2.10    0.60
   3   2  13    1.30    1.40
   3   2  13    1.20    1.30
   3   2  13    0.90    0.90
  -4  -2 -13    0.60    0.40
  -4  -2 -13    0.50    0.50
   4   2  13    0.40    1.10
   4   2  13    1.10    1.60
   4   2  13    0.40    1.20
  -5  -2 -13    1.40    0.60
  -5  -2 -13    3.50    0.70
   5   2  13    1.80    1.50
   5   2  13    0.90    0.80
   5   2  13    2.50    1.60
   2  -3 -13   -0.60    0.40
   1  -3 -13   -0.40    0.40
   1  -3 -13    0.00    0.30
  -1   3  13   -0.50    0.50
  -1   3  13    0.20    0.60
   0  -3 -13    2.40    0.60
   0  -3 -13    2.00    0.40
   0   3  13    1.00    0.80
   0   3  13    2.00    1.40
   0   3  13    1.70    0.60
  -1  -3 -13   -0.10    0.40
  -1  -3 -13    0.00    0.30
   1   3  13    1.80    1.40
   1   3  13   -0.20    0.60
   1   3  13   -0.20    0.50
  -2  -3 -13    0.10    0.60
  -2  -3 -13    0.00    0.30
   2   3  13    0.80    0.90
   2   3  13    0.00    0.50
   2   3  13   -0.50    0.60
   2   3  13    1.50    1.50
  -3  -3 -13    0.20    0.30
  -3  -3 -13    0.30    0.40
   3   3  13   -0.40    1.40
   3   3  13    0.10    0.90
  -4  -3 -13    0.00    0.50
  -4  -3 -13    0.10    0.40
   4   3  13    0.00    1.10
   4   3  13    0.90    1.10
   4   3  13   -1.00    1.50
  -5  -3 -13    3.30    0.70
  -5  -3 -13    3.70    0.70
   5   3  13    2.20    1.20
   5   3  13    2.30    1.60
   5   3  13    3.30    1.70
  -6  -3 -13    1.80    0.60
   6   3  13    1.60    1.20
   6   3  13    2.00    1.70
   6   3  13    2.30    1.70
   1  -4 -13    0.70    0.50
   1  -4 -13    0.30    0.40
  -1   4  13    0.20    0.70
  -1   4  13   -0.20    0.40
   0  -4 -13    0.90    0.40
   0  -4 -13    1.00    0.50
   0   4  13    0.40    0.80
   0   4  13    0.60    0.50
   0   4  13    1.30    1.30
   0   4  13   -0.20    0.50
  -1  -4 -13    0.40    0.70
  -1  -4 -13    0.10    0.40
   1   4  13    0.20    1.40
   1   4  13    0.00    0.50
   1   4  13    0.30    0.60
   1   4  13   -0.20    0.80
  -2  -4 -13    0.00    0.40
  -2  -4 -13    0.20    0.70
   2   4  13    0.60    0.80
   2   4  13   -0.40    0.60
   2   4  13    0.10    0.50
   2   4  13    3.00    1.70
  -3  -4 -13    0.80    0.50
  -3  -4 -13    0.60    0.40
  -3  -4 -13   -0.10    0.50
   3   4  13   -0.50    0.90
   3   4  13    0.10    1.50
   3   4  13    1.10    0.70
  -4  -4 -13    0.10    0.40
  -4  -4 -13   -0.20    0.30
   4   4  13    0.30    1.40
   4   4  13    0.10    0.90
   4   4  13   -2.00    1.40
  -5  -4 -13    0.00    0.30
  -5  -4 -13    0.00    0.40
   5   4  13    0.70    1.10
   5   4  13    0.40    1.50
   5   4  13   -0.70    1.10
  -6  -4 -13    0.10    0.40
   6   4  13    0.20    1.30
   6   4  13   -0.50    1.60
   6   4  13    0.30    1.50
   1  -5 -13    0.40    0.40
  -1   5  13    0.10    0.50
  -1   5  13    0.20    0.50
   0  -5 -13    9.20    1.10
   0  -5 -13   11.20    1.60
   0   5  13   10.30    1.10
   0   5  13    5.50    1.70
   0   5  13    6.30    1.40
   0   5  13    7.90    1.20
  -1  -5 -13   -0.10    0.40
  -1  -5 -13    0.40    0.60
   1   5  13   -0.20    0.90
   1   5  13    0.00    0.60
   1   5  13    0.50    0.60
   1   5  13   -0.40    1.40
  -2  -5 -13    0.20    0.70
  -2  -5 -13    0.10    0.30
   2   5  13    0.40    0.60
   2   5  13    0.10    0.60
   2   5  13   -0.90    1.30
   2   5  13   -0.30    0.90
  -3  -5 -13   -0.10    0.50
  -3  -5 -13   -0.10    0.40
   3   5  13    0.40    0.60
   3   5  13    0.00    0.60
   3   5  13    0.70    1.40
   3   5  13    0.40    1.00
  -4  -5 -13    0.40    0.40
  -4  -5 -13    0.50    0.80
  -4  -5 -13    0.20    0.30
   4   5  13   -0.50    0.90
   4   5  13    1.30    1.70
  -5  -5 -13    5.70    0.80
  -5  -5 -13    5.30    0.80
   5   5  13    6.00    2.00
   5   5  13    2.30    1.70
   5   5  13    5.40    1.70
   6   5  13    2.70    1.90
   0  -6 -13   -0.10    0.40
   0  -6 -13    0.10    0.70
   0   6  13    0.20    0.50
   0   6  13   -0.40    1.40
   0   6  13    0.60    0.50
  -1  -6 -13    0.60    0.70
  -1  -6 -13    0.70    0.40
   1   6  13    0.30    1.00
   1   6  13    0.90    0.60
   1   6  13    0.30    0.50
   1   6  13   -0.70    1.40
  -2  -6 -13    1.30    0.50
  -2  -6 -13    1.40    0.90
   2   6  13    1.70    1.00
   2   6  13    1.50    0.60
   2   6  13    1.80    1.60
   2   6  13    1.00    0.70
  -3  -6 -13    0.00    0.60
  -3  -6 -13    0.80    0.40
   3   6  13    0.60    0.70
   3   6  13    0.60    1.00
   3   6  13   -0.10    0.60
   3   6  13    0.60    1.50
  -4  -6 -13    1.40    0.50
  -4  -6 -13    0.90    0.80
  -4  -6 -13    1.20    0.40
   4   6  13    0.20    0.70
   4   6  13    1.30    1.30
   4   6  13    0.50    1.60
   4   6  13    2.10    0.70
  -5  -6 -13    2.60    0.50
  -5  -6 -13    3.00    1.20
  -5  -6 -13    2.20    0.50
   5   6  13    0.50    1.10
   5   6  13    3.30    1.80
  -1  -7 -13    0.80    0.70
  -1  -7 -13    1.00    0.50
   1   7  13    2.40    1.60
   1   7  13    1.30    1.10
   1   7  13    0.80    0.60
   1   7  13    1.10    0.60
  -2  -7 -13    0.70    0.40
  -2  -7 -13    0.10    0.60
   2   7  13    0.30    0.60
   2   7  13    0.40    0.70
   2   7  13    0.90    1.60
   2   7  13   -0.20    1.00
  -3  -7 -13   -0.30    0.60
  -3  -7 -13    0.00    0.30
   3   7  13   -0.30    1.10
   3   7  13   -0.50    0.60
   3   7  13   -0.20    1.40
   3   7  13    0.30    0.70
  -4  -7 -13    2.70    0.50
  -4  -7 -13    3.90    1.20
   4   7  13    2.40    0.90
   4   7  13    3.00    1.60
   4   7  13    2.60    1.80
   4   7  13    2.50    0.80
  -1  -1 -14   -0.10    0.30
   1   1  14   -0.50    0.60
  -2  -1 -14   -0.20    0.30
  -2  -1 -14    0.00    0.40
  -2  -1 -14    0.00    0.30
   2   1  14   -0.30    0.70
  -3  -1 -14    0.10    0.40
   3   1  14    0.30    0.80
   0  -2 -14    0.50    0.40
   0   2  14    0.40    0.60
  -1  -2 -14    0.70    0.50
  -1  -2 -14    1.50    0.40
   1   2  14    0.50    0.80
   1   2  14    2.00    1.40
  -2  -2 -14    1.80    0.50
  -2  -2 -14    1.60    0.50
   2   2  14    1.10    0.80
   2   2  14    3.30    1.50
  -3  -2 -14   -0.10    0.40
  -3  -2 -14   -0.30    0.40
   3   2  14   -0.10    1.20
   3   2  14   -0.10    0.70
  -4  -2 -14   -0.10    0.40
  -4  -2 -14    0.20    0.40
   4   2  14   -0.20    1.10
   0  -3 -14    0.20    0.30
   0   3  14   -0.80    0.50
   0   3  14   -0.40    0.60
  -1  -3 -14   -0.50    0.30
   1   3  14    0.40    0.80
   1   3  14   -0.10    0.50
   1   3  14    0.30    1.40
  -2  -3 -14    0.60    0.40
   2   3  14    1.60    1.40
   2   3  14    0.50    0.80
  -3  -3 -14    0.10    0.40
  -3  -3 -14    0.10    0.30
   3   3  14   -0.50    0.70
   3   3  14   -0.20    1.20
  -4  -3 -14    0.30    0.40
  -4  -3 -14    0.20    0.50
   4   3  14   -0.90    0.70
   4   3  14    0.60    1.40
  -1  -4 -14   -0.10    0.40
   1   4  14   -0.10    0.50
   1   4  14    0.70    0.70
   1   4  14   -0.20    1.30
   1   4  14    0.30    0.70
  -2  -4 -14    9.30    1.00
  -2  -4 -14    8.30    2.10
   2   4  14    9.80    1.30
   2   4  14    7.30    1.00
   2   4  14    4.60    1.80
  -3  -4 -14   -0.50    0.50
  -3  -4 -14    0.40    0.40
  -3  -4 -14    0.30    0.40
   3   4  14    0.60    1.50
   3   4  14   -0.20    0.90
  -4  -4 -14    0.10    0.30
  -4  -4 -14    0.10    0.40
   4   4  14   -0.20    1.00
   4   4  14    1.00    1.40
  -1  -5 -14    2.50    1.00
   1   5  14    3.60    0.70
   1   5  14    3.10    0.80
  -2  -5 -14    6.90    0.90
  -2  -5 -14    6.70    1.50
   2   5  14    7.30    0.90
   2   5  14    2.90    1.70
   2   5  14    5.30    1.00
   2   5  14    4.20    1.20
  -3  -5 -14   -0.30    0.60
  -3  -5 -14   -0.10    0.30
  -3  -5 -14    0.00    0.40
   3   5  14    1.90    1.70
   3   5  14   -0.40    0.70
   3   5  14   -0.90    0.90
  -4  -5 -14   -0.50    0.50
  -4  -5 -14   -0.10    0.30
   4   5  14   -0.30    1.60
   3   6  14    1.30    0.60

_computing_structure_solution     'SHELXT 2014/4 (Sheldrick, 2014)'
;
_shelx_hkl_checksum              6459
_olex2_submission_special_instructions 'No special instructions were received'
loop_
_space_group_symop_operation_xyz
'x, y, z'
'-x, -y, -z'
loop_
_atom_site_label
_atom_site_type_symbol
_atom_site_fract_x
_atom_site_fract_y
_atom_site_fract_z
_atom_site_U_iso_or_equiv
_atom_site_adp_type
_atom_site_occupancy
_atom_site_site_symmetry_order
_atom_site_calc_flag
_atom_site_refinement_flags_posn
N001 N 0.66044(17) 0.38025(14) 0.61202(12) 0.0618(4) Uani 1 1 d .
N002 N 0.82223(19) 0.77250(16) 0.53069(13) 0.0676(4) Uani 1 1 d .
N003 N 0.76023(18) 0.39971(16) 0.40599(13) 0.0697(4) Uani 1 1 d .
C004 C 0.7278(2) 0.52518(17) 0.55799(15) 0.0601(4) Uani 1 1 d .
C005 C 0.6683(2) 0.66059(18) 0.73439(15) 0.0668(4) Uani 1 1 d .
C006 C 0.8832(2) 0.7814(2) 0.40597(16) 0.0663(4) Uani 1 1 d .
C007 C 0.7430(2) 0.64999(18) 0.60450(15) 0.0630(4) Uani 1 1 d .
C008 C 0.7882(2) 0.53052(18) 0.43238(15) 0.0624(4) Uani 1 1 d .
C009 C 0.8680(2) 0.6645(2) 0.35054(16) 0.0660(4) Uani 1 1 d .
C00A C 0.5887(2) 0.30613(19) 0.73290(16) 0.0684(4) Uani 1 1 d .
H00A H 0.5785 0.3534 0.7969 0.082 Uiso 1 1 calc R
C00B C 0.6838(2) 0.31024(19) 0.51533(16) 0.0653(4) Uani 1 1 d .
N00C N 0.5229(4) 0.7108(2) 0.96908(17) 0.1126(7) Uani 1 1 d .
C00D C 0.5332(3) 0.1636(2) 0.75759(19) 0.0765(5) Uani 1 1 d .
H00D H 0.4825 0.1128 0.8392 0.092 Uiso 1 1 calc R
C00E C 0.9291(3) 0.6864(2) 0.22169(17) 0.0789(5) Uani 1 1 d .
H00E H 0.9196 0.6098 0.1844 0.095 Uiso 1 1 calc R
C00F C 0.6258(2) 0.1614(2) 0.54355(19) 0.0755(5) Uani 1 1 d .
H00F H 0.6391 0.1115 0.4807 0.091 Uiso 1 1 calc R
C00G C 0.4859(3) 0.6546(2) 0.78759(16) 0.0770(5) Uani 1 1 d .
H00G H 0.4083 0.6322 0.7458 0.092 Uiso 1 1 calc R
C00H C 0.5511(3) 0.0912(2) 0.6619(2) 0.0790(5) Uani 1 1 d .
H00H H 0.5108 -0.0068 0.6804 0.095 Uiso 1 1 calc R
C00I C 0.9619(3) 0.9170(2) 0.33031(18) 0.0793(5) Uani 1 1 d .
H00I H 0.9748 0.9944 0.3658 0.095 Uiso 1 1 calc R
C00J C 1.0026(3) 0.8201(3) 0.15110(19) 0.0919(6) Uani 1 1 d .
H00J H 1.0424 0.8346 0.0653 0.110 Uiso 1 1 calc R
C00K C 0.7769(3) 0.6911(2) 0.80161(18) 0.0851(6) Uani 1 1 d .
H00K H 0.9005 0.6968 0.7690 0.102 Uiso 1 1 calc R
C00L C 1.0189(3) 0.9352(3) 0.2054(2) 0.0894(6) Uani 1 1 d .
H00L H 1.0696 1.0258 0.1556 0.107 Uiso 1 1 calc R
C00M C 0.4211(4) 0.6821(3) 0.90296(19) 0.0975(7) Uani 1 1 d .
H00M H 0.2972 0.6804 0.9367 0.117 Uiso 1 1 calc R
C00N C 0.6990(4) 0.7131(3) 0.9181(2) 0.1066(8) Uani 1 1 d .
H00N H 0.7743 0.7306 0.9640 0.128 Uiso 1 1 calc R
loop_
_atom_site_aniso_label
_atom_site_aniso_U_11
_atom_site_aniso_U_22
_atom_site_aniso_U_33
_atom_site_aniso_U_23
_atom_site_aniso_U_13
_atom_site_aniso_U_12
N001 0.0645(8) 0.0564(7) 0.0665(8) -0.0202(6) -0.0167(6) -0.0017(6)
N002 0.0723(9) 0.0622(8) 0.0682(8) -0.0177(6) -0.0141(7) -0.0073(6)
N003 0.0718(9) 0.0695(8) 0.0722(9) -0.0278(7) -0.0172(7) -0.0014(6)
C004 0.0600(9) 0.0563(8) 0.0646(9) -0.0182(7) -0.0152(7) -0.0021(6)
C005 0.0876(11) 0.0521(8) 0.0613(9) -0.0141(7) -0.0170(8) -0.0091(7)
C006 0.0607(9) 0.0661(9) 0.0698(10) -0.0170(7) -0.0130(7) -0.0037(7)
C007 0.0669(9) 0.0587(8) 0.0647(9) -0.0173(7) -0.0168(7) -0.0051(7)
C008 0.0595(9) 0.0635(9) 0.0665(9) -0.0231(7) -0.0166(7) 0.0009(7)
C009 0.0592(9) 0.0691(10) 0.0656(9) -0.0169(7) -0.0125(7) -0.0001(7)
C00A 0.0752(10) 0.0613(9) 0.0671(10) -0.0166(7) -0.0153(8) -0.0047(7)
C00B 0.0636(9) 0.0640(9) 0.0744(10) -0.0290(8) -0.0192(7) 0.0020(7)
N00C 0.180(2) 0.0933(13) 0.0686(10) -0.0290(9) -0.0074(12) -0.0400(13)
C00D 0.0825(11) 0.0603(9) 0.0836(12) -0.0136(8) -0.0187(9) -0.0079(8)
C00E 0.0776(11) 0.0853(12) 0.0708(11) -0.0231(9) -0.0124(9) -0.0027(9)
C00F 0.0791(11) 0.0635(9) 0.0923(13) -0.0326(9) -0.0236(9) -0.0012(8)
C00G 0.0963(13) 0.0661(10) 0.0681(10) -0.0209(8) -0.0113(9) -0.0107(9)
C00H 0.0833(12) 0.0586(9) 0.0985(14) -0.0222(9) -0.0246(10) -0.0066(8)
C00I 0.0778(11) 0.0738(11) 0.0804(12) -0.0148(9) -0.0107(9) -0.0118(9)
C00J 0.0904(13) 0.1018(15) 0.0691(11) -0.0132(10) -0.0037(9) -0.0096(11)
C00K 0.1141(15) 0.0768(11) 0.0725(11) -0.0150(9) -0.0297(10) -0.0249(10)
C00L 0.0911(14) 0.0867(13) 0.0792(12) -0.0113(10) -0.0062(10) -0.0163(10)
C00M 0.1267(18) 0.0831(13) 0.0765(12) -0.0291(10) 0.0032(12) -0.0174(12)
C00N 0.168(2) 0.0938(15) 0.0729(13) -0.0201(11) -0.0332(14) -0.0438(16)
loop_
_atom_type_symbol
_atom_type_description
_atom_type_scat_dispersion_real
_atom_type_scat_dispersion_imag
_atom_type_scat_source
C C 0.0033 0.0016 'International Tables Vol C Tables 4.2.6.8 and 6.1.1.4'
H H 0.0000 0.0000 'International Tables Vol C Tables 4.2.6.8 and 6.1.1.4'
N N 0.0061 0.0033 'International Tables Vol C Tables 4.2.6.8 and 6.1.1.4'
loop_
_geom_angle_atom_site_label_1
_geom_angle_atom_site_label_2
_geom_angle_atom_site_label_3
_geom_angle
C00A N001 C004 132.16(14)
C00A N001 C00B 121.91(15)
C00B N001 C004 105.91(13)
C007 N002 C006 119.46(15)
C00B N003 C008 104.65(14)
N001 C004 C007 134.03(15)
C008 C004 N001 104.71(13)
C008 C004 C007 121.25(15)
C00G C005 C007 121.53(16)
C00K C005 C007 120.30(17)
C00K C005 C00G 117.92(17)
N002 C006 C009 123.70(16)
N002 C006 C00I 117.28(17)
C00I C006 C009 119.01(17)
N002 C007 C004 120.65(16)
N002 C007 C005 114.43(14)
C004 C007 C005 124.88(15)
N003 C008 C004 112.30(14)
N003 C008 C009 128.88(16)
C004 C008 C009 118.82(15)
C006 C009 C008 116.03(16)
C00E C009 C006 119.55(17)
C00E C009 C008 124.42(17)
N001 C00A H00A 120.6
C00D C00A N001 118.85(16)
C00D C00A H00A 120.6
N001 C00B C00F 118.11(16)
N003 C00B N001 112.43(15)
N003 C00B C00F 129.45(16)
C00M N00C C00N 116.5(2)
C00A C00D H00D 119.7
C00A C00D C00H 120.68(19)
C00H C00D H00D 119.7
C009 C00E H00E 120.1
C00J C00E C009 119.8(2)
C00J C00E H00E 120.1
C00B C00F H00F 120.2
C00H C00F C00B 119.63(17)
C00H C00F H00F 120.2
C005 C00G H00G 120.6
C00M C00G C005 118.9(2)
C00M C00G H00G 120.6
C00D C00H H00H 119.6
C00F C00H C00D 120.77(18)
C00F C00H H00H 119.6
C006 C00I H00I 120.0
C00L C00I C006 120.0(2)
C00L C00I H00I 120.0
C00E C00J H00J 119.6
C00E C00J C00L 120.8(2)
C00L C00J H00J 119.6
C005 C00K H00K 120.7
C005 C00K C00N 118.6(2)
C00N C00K H00K 120.7
C00I C00L C00J 120.8(2)
C00I C00L H00L 119.6
C00J C00L H00L 119.6
N00C C00M C00G 124.1(2)
N00C C00M H00M 117.9
C00G C00M H00M 117.9
N00C C00N C00K 124.0(2)
N00C C00N H00N 118.0
C00K C00N H00N 118.0
loop_
_geom_bond_atom_site_label_1
_geom_bond_atom_site_label_2
_geom_bond_distance
N001 C004 1.393(2)
N001 C00A 1.368(2)
N001 C00B 1.386(2)
N002 C006 1.371(2)
N002 C007 1.313(2)
N003 C008 1.356(2)
N003 C00B 1.329(2)
C004 C007 1.404(2)
C004 C008 1.387(2)
C005 C007 1.479(2)
C005 C00G 1.379(3)
C005 C00K 1.373(2)
C006 C009 1.408(3)
C006 C00I 1.404(3)
C008 C009 1.417(2)
C009 C00E 1.398(2)
C00A H00A 0.9300
C00A C00D 1.346(2)
C00B C00F 1.401(3)
N00C C00M 1.315(3)
N00C C00N 1.328(3)
C00D H00D 0.9300
C00D C00H 1.397(3)
C00E H00E 0.9300
C00E C00J 1.360(3)
C00F H00F 0.9300
C00F C00H 1.343(3)
C00G H00G 0.9300
C00G C00M 1.368(3)
C00H H00H 0.9300
C00I H00I 0.9300
C00I C00L 1.357(3)
C00J H00J 0.9300
C00J C00L 1.387(3)
C00K H00K 0.9300
C00K C00N 1.374(3)
C00L H00L 0.9300
C00M H00M 0.9300
C00N H00N 0.9300
