#------------------------------------------------------------------------------
#$Date: 2019-11-11 20:54:03 +0200 (Mon, 11 Nov 2019) $
#$Revision: 227334 $
#$URL: file:///home/coder/svn-repositories/cod/cif/4/03/59/4035941.cif $
#------------------------------------------------------------------------------
#
# This file is available in the Crystallography Open Database (COD),
# http://www.crystallography.net/
#
# All data on this site have been placed in the public domain by the
# contributors.
#
data_4035941
loop_
_publ_author_name
'Reutskaya, Elena'
'Osipyan, Angelina'
'Sapegin, Alexander'
'Novikov, Alexander S.'
'Krasavin, Mikhail'
_publ_section_title
;
 Rethinking Hydrolytic Imidazoline Ring Expansion: A Common Approach to
 the Preparation of Medium-Sized Rings via Side-Chain Insertion into
 [1.4]Oxa- and [1.4]Thiazepinone Scaffolds.
;
_journal_issue                   4
_journal_name_full               'The Journal of organic chemistry'
_journal_page_first              1693
_journal_page_last               1705
_journal_paper_doi               10.1021/acs.joc.8b02805
_journal_volume                  84
_journal_year                    2019
_chemical_formula_moiety         'C15 H12 F3 N3 O2'
_chemical_formula_sum            'C15 H12 F3 N3 O2'
_chemical_formula_weight         323.28
_space_group_crystal_system      triclinic
_space_group_IT_number           2
_space_group_name_Hall           '-P 1'
_space_group_name_H-M_alt        'P -1'
_atom_sites_solution_hydrogens   geom
_atom_sites_solution_primary     dual
_audit_creation_date             2018-05-27
_audit_creation_method
;
Olex2 1.2
(compiled 2018.05.18 svn.r3508 for OlexSys, GUI svn.r5497)
;
_audit_update_record
;
2018-05-27 deposited with the CCDC.
2018-10-28 downloaded from the CCDC.
;
_cell_angle_alpha                104.090(15)
_cell_angle_beta                 92.295(14)
_cell_angle_gamma                103.600(16)
_cell_formula_units_Z            2
_cell_length_a                   5.1381(9)
_cell_length_b                   10.587(2)
_cell_length_c                   13.334(2)
_cell_measurement_reflns_used    1345
_cell_measurement_temperature    100(10)
_cell_measurement_theta_max      70.5510
_cell_measurement_theta_min      3.3380
_cell_volume                     680.1(2)
_computing_cell_refinement       'CrysAlisPro 1.171.39.35a (Rigaku OD, 2017)'
_computing_data_collection       'CrysAlisPro 1.171.39.35a (Rigaku OD, 2017)'
_computing_data_reduction        'CrysAlisPro 1.171.39.35a (Rigaku OD, 2017)'
_computing_molecular_graphics    'Olex2 (Dolomanov et al., 2009)'
_computing_publication_material  'Olex2 (Dolomanov et al., 2009)'
_computing_structure_refinement  'ShelXL (Sheldrick, 2015)'
_computing_structure_solution    'ShelXT (Sheldrick, 2015)'
_diffrn_ambient_temperature      100(10)
_diffrn_detector                 'CCD plate'
_diffrn_detector_type            HyPix3000
_diffrn_measured_fraction_theta_full 0.983
_diffrn_measured_fraction_theta_max 0.963
_diffrn_measurement_details
;
List of Runs (angles in degrees, time in seconds):

  # Type    Start    End  Width  t~exp~   \w     \q     \k     \f   Frames
#--------------------------------------------------------------------------
  1  \w    -39.00  13.00   0.50    0.81    --  -41.35  89.00  53.00  104
  2  \w     96.00 147.00   0.50    3.10    --  101.00  89.00  53.00  102
  3  \w     79.00 129.00   0.50    3.10    --  101.00 -89.00 -62.00  100
  4  \w     36.00  62.00   0.50    3.10    --  101.00 -89.00 -62.00   52
  5  \w    -15.00  19.00   0.50    0.81    --  -41.35  32.00-150.00   68
  6  \w    -50.00 -24.00   0.50    0.81    --  -41.35 -54.00 -60.00   52
  7  \w    -60.00 -30.00   0.50    0.81    --  -41.35 -43.00  60.00   60
  8  \w    -48.00 -20.00   0.50    0.81    --  -41.35  32.00-150.00   56
  9  \w    -97.00 -71.00   0.50    0.81    --  -41.35 -43.00  60.00   52
 10  \w   -104.00 -63.00   0.50    0.81    --  -41.35 -54.00 -60.00   82
 11  \w    -44.00 -13.00   0.50    0.81    --  -41.35 138.00 150.00   62
 12  \w    -96.00 -59.00   0.50    0.81    --  -41.35 138.00 150.00   74
 13  \w     34.00  65.00   0.50    0.81    --   41.35  21.00 150.00   62
 14  \w     74.00 107.00   0.50    0.81    --   41.35  21.00 150.00   66
 15  \w     23.00  49.00   0.50    0.81    --   41.35 -32.00 120.00   52
 16  \w     25.00  61.00   0.50    0.81    --   41.35  54.00  30.00   72
 17  \w     37.00  64.00   0.50    0.81    --   41.35-104.00-180.00   54
 18  \w    -13.00  12.00   0.50    0.81    --   41.35 -65.00   0.00   50
 19  \w    -11.00  17.00   0.50    0.81    --   41.35 -32.00 120.00   56
 20  \w     -4.00  39.00   0.50    0.81    --   41.35 -89.00 -62.00   86
 21  \w      9.00  34.00   0.50    0.81    --   41.35-104.00-180.00   50
 22  \w     26.00  61.00   0.50    0.81    --   41.35 -65.00   0.00   70
 23  \w     43.00  68.00   0.50    0.81    --   41.35 -89.00 -62.00   50
 24  \w     30.00  64.00   0.50    0.81    --   41.35  43.00 -90.00   68
 25  \w     66.00  97.00   0.50    0.81    --   41.35  54.00  30.00   62
 26  \w     87.00 155.00   0.50    3.10    --  101.00  50.00 -60.00  136
 27  \w     83.00 117.00   0.50    3.10    --  101.00  93.00  90.00   68
 28  \w     74.00 114.00   0.50    3.10    --  101.00-111.00-120.00   80
 29  \w     50.00 116.00   0.50    3.10    --  101.00 -59.00 120.00  132
 30  \w     89.00 114.00   0.50    3.10    --  101.00 -59.00  30.00   50
 31  \w    121.00 156.00   0.50    3.10    --  101.00  25.00 -90.00   70
 32  \w    104.00 153.00   0.50    3.10    --  101.00  42.00-150.00   98
 33  \w     84.00 109.00   0.50    3.10    --  101.00 -33.00 120.00   50
 34  \w    115.00 141.00   0.50    3.10    --  101.00  50.00 150.00   52
 35  \w     38.00 122.00   0.50    3.10    --  101.00 -68.00-120.00  168
 36  \w     95.00 120.00   0.50    3.10    --  101.00 -59.00 -30.00   50
 37  \w     59.00  85.00   0.50    3.10    --  101.00 -59.00 -30.00   52
 38  \w     80.00 150.00   0.50    3.10    --  101.00 111.00  90.00  140
 39  \w     94.00 145.00   0.50    3.10    --  101.00  42.00  60.00  102
 40  \w     45.00  96.00   0.50    3.10    --  101.00-133.00 -60.00  102
 41  \w     41.00  68.00   0.50    3.10    --  101.00 -33.00 120.00   54
 42  \w     97.00 137.00   0.50    3.10    --  101.00  25.00 120.00   80
 43  \w     67.00 125.00   0.50    3.10    --  101.00 -93.00   0.00  116
 44  \w     39.00  87.00   0.50    3.10    --  101.00 -50.00  30.00   96
 45  \w     38.00 122.00   0.50    3.10    --  101.00-133.00-150.00  168
 46  \w     76.00 124.00   0.50    3.10    --  101.00-133.00   0.00   96
 47  \w    127.00 157.00   0.50    3.10    --  101.00  50.00 -30.00   60
 48  \w     93.00 150.00   0.50    3.10    --  101.00  33.00   0.00  114
 49  \w     98.00 134.00   0.50    3.10    --  101.00  33.00  30.00   72
 50  \w     94.00 120.00   0.50    3.10    --  101.00  25.00 -90.00   52
 51  \w     68.00 100.00   0.50    3.10    --  101.00 -87.00  60.00   64
 52  \w     70.00 115.00   0.50    3.10    --  101.00-111.00-150.00   90
 53  \w     85.00 111.00   0.50    3.10    --  101.00  50.00 -30.00   52
 54  \w     85.00 110.00   0.50    3.10    --  101.00  59.00-150.00   50
 55  \w     39.00 114.00   0.50    3.10    --  101.00 -42.00 -60.00  150
 56  \w     33.00  94.00   0.50    3.10    --  101.00 -93.00 120.00  122
 57  \w     17.00  43.00   0.50    0.81    --   41.35  77.00-180.00   52
 58  \w    -46.00 -17.00   0.50    0.81    --    0.00 125.00 176.52   58
 59  \w    -13.00  12.00   0.50    0.81    --   24.00 106.00  78.75   50
 60  \w    -40.00 -15.00   0.50    0.81    --   24.00 150.00 -88.59   50
 61  \w     -1.00  24.00   0.50    0.81    --   28.00  95.00  93.55   50
 62  \w     -3.00  22.00   0.50    0.81    --   28.00  96.00-155.20   50
 63  \w      4.00  29.00   0.50    0.81    --   32.00  88.00 -25.88   50
 64  \w      5.00  30.00   0.50    0.81    --   32.00  85.00 -61.30   50
 65  \w      3.00  28.00   0.50    0.81    --   32.00  90.00-146.69   50
 66  \w      9.00  34.00   0.50    0.81    --   36.00  84.00  95.17   50
 67  \w      9.00  34.00   0.50    0.81    --   36.00  84.00  19.41   50
 68  \w      9.00  34.00   0.50    0.81    --   36.00  84.00 -84.45   50
 69  \w     15.00  40.00   0.50    0.81    --   40.00  80.00-143.85   50
 70  \w     30.00  55.00   0.50    0.81    --   41.35 -43.00 -60.00   50
 71  \w    -13.00  22.00   0.50    0.81    --   41.35 -43.00 -60.00   70
 72  \w     21.00  47.00   0.50    0.81    --   41.35  77.00 150.00   52
 73  \w     19.00  44.00   0.50    0.81    --   44.00  80.00-121.73   50
 74  \w     19.00  44.00   0.50    0.81    --   44.00  78.00  94.70   50
 75  \w     19.00  44.00   0.50    0.81    --   44.00  82.00 -48.54   50
 76  \w     30.00  56.00   0.50    0.81    --   52.00  72.00  82.16   52
 77  \w     81.00 107.00   0.50    0.81    --   52.00  77.00 -94.43   52
 78  \w     27.00  53.00   0.50    0.81    --   52.00  77.00 153.99   52
 79  \w     33.00  58.00   0.50    0.81    --   52.00  75.00 -24.56   50
 80  \w     79.00 106.00   0.50    0.81    --   52.00  72.00  82.16   54
 81  \w     39.00  75.00   0.50    0.81    --   52.00  77.00 -94.43   72
 82  \w     34.00  44.50   0.50    0.81    --   56.00  77.00-125.13   21
;
_diffrn_measurement_device       'four-circle diffractometer'
_diffrn_measurement_device_type
'SuperNova, Single source at offset/far, HyPix3000'
_diffrn_measurement_method       '\w scans'
_diffrn_orient_matrix_type
'CrysAlisPro convention (1999,Acta A55,543-557)'
_diffrn_orient_matrix_UB_11      -0.1193793000
_diffrn_orient_matrix_UB_12      -0.0893124000
_diffrn_orient_matrix_UB_13      -0.1091174000
_diffrn_orient_matrix_UB_21      0.1842321000
_diffrn_orient_matrix_UB_22      -0.0935740000
_diffrn_orient_matrix_UB_23      0.0079972000
_diffrn_orient_matrix_UB_31      -0.2190694000
_diffrn_orient_matrix_UB_32      -0.0854890000
_diffrn_orient_matrix_UB_33      0.0486932000
_diffrn_radiation_monochromator  mirror
_diffrn_radiation_probe          x-ray
_diffrn_radiation_type           CuK\a
_diffrn_radiation_wavelength     1.54184
_diffrn_reflns_av_R_equivalents  0.0672
_diffrn_reflns_av_unetI/netI     0.0671
_diffrn_reflns_Laue_measured_fraction_full 0.983
_diffrn_reflns_Laue_measured_fraction_max 0.963
_diffrn_reflns_limit_h_max       6
_diffrn_reflns_limit_h_min       -6
_diffrn_reflns_limit_k_max       13
_diffrn_reflns_limit_k_min       -12
_diffrn_reflns_limit_l_max       16
_diffrn_reflns_limit_l_min       -15
_diffrn_reflns_number            6927
_diffrn_reflns_point_group_measured_fraction_full 0.983
_diffrn_reflns_point_group_measured_fraction_max 0.963
_diffrn_reflns_theta_full        67.684
_diffrn_reflns_theta_max         72.413
_diffrn_reflns_theta_min         3.436
_diffrn_source                   'micro-focus sealed X-ray tube'
_diffrn_source_type              'SuperNova (Cu) X-ray Source'
_exptl_absorpt_coefficient_mu    1.170
_exptl_absorpt_correction_T_max  1.00000
_exptl_absorpt_correction_T_min  0.63337
_exptl_absorpt_correction_type   multi-scan
_exptl_absorpt_process_details
;
CrysAlisPro 1.171.39.35a (Rigaku Oxford Diffraction, 2017)
Empirical absorption correction using spherical harmonics,
 implemented in SCALE3 ABSPACK scaling algorithm.
;
_exptl_crystal_colour            'clear light colourless'
_exptl_crystal_colour_lustre     clear
_exptl_crystal_colour_modifier   light
_exptl_crystal_colour_primary    colourless
_exptl_crystal_density_diffrn    1.578
_exptl_crystal_description       prism
_exptl_crystal_F_000             332
_exptl_crystal_size_max          0.8
_exptl_crystal_size_mid          0.4
_exptl_crystal_size_min          0.3
_refine_diff_density_max         0.584
_refine_diff_density_min         -0.521
_refine_diff_density_rms         0.089
_refine_ls_extinction_method     none
_refine_ls_goodness_of_fit_ref   1.021
_refine_ls_hydrogen_treatment    constr
_refine_ls_matrix_type           full
_refine_ls_number_parameters     208
_refine_ls_number_reflns         2609
_refine_ls_number_restraints     0
_refine_ls_restrained_S_all      1.021
_refine_ls_R_factor_all          0.0888
_refine_ls_R_factor_gt           0.0674
_refine_ls_shift/su_max          0.000
_refine_ls_shift/su_mean         0.000
_refine_ls_structure_factor_coef Fsqd
_refine_ls_weighting_details
'w=1/[\s^2^(Fo^2^)+(0.1319P)^2^] where P=(Fo^2^+2Fc^2^)/3'
_refine_ls_weighting_scheme      calc
_refine_ls_wR_factor_gt          0.1774
_refine_ls_wR_factor_ref         0.1961
_reflns_Friedel_coverage         0.000
_reflns_number_gt                1897
_reflns_number_total             2609
_reflns_threshold_expression     'I > 2\s(I)'
_cod_data_source_file            jo8b02805_si_003.cif
_cod_data_source_block           reu-093
_cod_original_cell_volume        680.2(2)
_cod_database_code               4035941
_shelx_shelxl_version_number     2018/3
_chemical_oxdiff_formula         'C15 H12 F3 N3 O2'
_shelx_space_group_comment
;
The symmetry employed for this shelxl refinement is uniquely defined
by the following loop, which should always be used as a source of
symmetry information in preference to the above space-group names.
They are only intended as comments.
;
_reflns_odcompleteness_completeness 97.77
_reflns_odcompleteness_iscentric 1
_reflns_odcompleteness_theta     71.98
_olex2_refinement_description
;
1. Fixed Uiso
 At 1.2 times of:
  All C(H) groups, All C(H,H) groups, All N(H) groups
2.a Secondary CH2 refined with riding coordinates:
 C9(H9A,H9B), C8(H8A,H8B)
2.b Aromatic/amide H refined with riding coordinates:
 N1(H1), N2(H2), C5(H5), C14(H14), C12(H12), C3(H3), C2(H2A), C4(H4)
;
_shelx_res_file
;
TITL reu-093_a.res in P-1
    reu-093.res
    created by SHELXL-2018/3 at 14:25:33 on 27-May-2018
REM Old TITL 8722-9226_reu-093_a.res in P-1
REM SHELXT solution in P-1: R1 0.153, Rweak 0.006, Alpha 0.024
REM <I/s> 0.000 for 0 systematic absences, Orientation as input
REM Formula found by SHELXT: C15 F3 N3 O2
CELL 1.54184 5.1381 10.5875 13.3343 104.09 92.295 103.6
ZERR 2 0.0009 0.002 0.002 0.015 0.014 0.016
LATT 1
SFAC C H F N O
UNIT 30 24 6 6 4

L.S. 20
PLAN  5
list 4
fmap 2
acta
OMIT -4 145
OMIT 5 -3 3
OMIT 0 -9 13
OMIT 0 -8 13
OMIT 0 -7 13
OMIT 2 -5 12
OMIT 5 -6 6
OMIT 5 -5 5
OMIT -1 2 0
OMIT 1 -10 12
OMIT 3 4 10
OMIT 1 -4 12
OMIT 2 -1 10
OMIT 3 3 11
OMIT 1 -4 1
OMIT 5 -6 4
OMIT -4 8 8
OMIT 1 0 10
OMIT 2 -4 8
OMIT -3 -2 9
OMIT 1 -6 2
OMIT 2 -1 11
OMIT 0 0 14
OMIT -4 2 0
OMIT 0 -10 12
OMIT -1 12 0
REM <olex2.extras>
REM <HklSrc "%.\\reu-093.hkl">
REM </olex2.extras>

WGHT    0.131900
FVAR       0.87449
F3    3    0.051282    0.117878    0.885301    11.00000    0.02098    0.03873 =
         0.04010    0.00900    0.00615   -0.00053
F1    3    0.274631    0.319244    0.966348    11.00000    0.04030    0.03273 =
         0.04626    0.00395    0.01938    0.00345
F2    3    0.399272    0.147719    0.990786    11.00000    0.02937    0.05482 =
         0.03593    0.01797    0.00390    0.00609
O1    5    1.062470    0.417641    0.754683    11.00000    0.01701    0.02192 =
         0.03718    0.00833    0.00347   -0.00189
O2    5    0.419341    0.395468    0.571491    11.00000    0.01493    0.02785 =
         0.03516    0.00631    0.00398    0.00151
N1    4    0.829465    0.363601    0.534930    11.00000    0.01577    0.02118 =
         0.03232    0.00312    0.00523    0.00007
AFIX  43
H1    2    0.996277    0.404376    0.537148    11.00000   -1.20000
AFIX   0
N3    4    0.617647    0.079670    0.675627    11.00000    0.02199    0.02455 =
         0.03471    0.00812    0.00215   -0.00003
N2    4    1.004476    0.177883    0.608978    11.00000    0.01710    0.02727 =
         0.03451    0.00512    0.00248    0.00176
AFIX  43
H2    2    1.174140    0.196854    0.627963    11.00000   -1.20000
AFIX   0
C7    1    0.668514    0.428958    0.591055    11.00000    0.01783    0.02295 =
         0.03093    0.00891    0.00652    0.00076
C11   1    0.850984    0.309231    0.758415    11.00000    0.01800    0.02362 =
         0.03106    0.00754    0.00008    0.00048
C10   1    0.822102    0.187495    0.681568    11.00000    0.01757    0.02503 =
         0.03092    0.00566    0.00087    0.00194
C13   1    0.476902    0.201236    0.831802    11.00000    0.02017    0.02863 =
         0.03148    0.00695    0.00284    0.00273
C5    1    0.737262    0.667555    0.688380    11.00000    0.02076    0.02783 =
         0.03420    0.00777    0.00661    0.00225
AFIX  43
H5    2    0.605421    0.672923    0.640859    11.00000   -1.20000
AFIX   0
C9    1    0.903564    0.134931    0.499531    11.00000    0.01921    0.02614 =
         0.03341    0.00554    0.00651    0.00210
AFIX  23
H9A   2    0.794195    0.042980    0.483403    11.00000   -1.20000
H9B   2    1.054438    0.136435    0.457991    11.00000   -1.20000
AFIX   0
C14   1    0.450087    0.088229    0.750336    11.00000    0.02259    0.02790 =
         0.03509    0.01062    0.00372   -0.00015
AFIX  43
H14   2    0.307983    0.013887    0.747044    11.00000   -1.20000
AFIX   0
C12   1    0.680396    0.315986    0.834617    11.00000    0.02475    0.02649 =
         0.03083    0.00800    0.00289    0.00469
AFIX  43
H12   2    0.699489    0.394858    0.886853    11.00000   -1.20000
AFIX   0
C8    1    0.733381    0.225734    0.470000    11.00000    0.01861    0.02336 =
         0.03134    0.00370    0.00148   -0.00021
AFIX  23
H8A   2    0.744896    0.225207    0.397474    11.00000   -1.20000
H8B   2    0.546174    0.190581    0.479017    11.00000   -1.20000
AFIX   0
C1    1    0.991584    0.537883    0.754470    11.00000    0.01839    0.02460 =
         0.03080    0.00470    0.00610    0.00022
C3    1    1.055990    0.772140    0.838268    11.00000    0.02686    0.02631 =
         0.03517    0.00390    0.00531   -0.00091
AFIX  43
H3    2    1.144020    0.848635    0.889829    11.00000   -1.20000
AFIX   0
C2    1    1.121186    0.650445    0.833970    11.00000    0.02321    0.03042 =
         0.03139    0.00599   -0.00096   -0.00200
AFIX  43
H2A   2    1.248375    0.644512    0.883079    11.00000   -1.20000
AFIX   0
C4    1    0.862645    0.780647    0.767071    11.00000    0.02884    0.02188 =
         0.03784    0.00596    0.00807    0.00220
AFIX  43
H4    2    0.816815    0.861668    0.771857    11.00000   -1.20000
AFIX   0
C6    1    0.805874    0.546466    0.679584    11.00000    0.01769    0.02555 =
         0.02908    0.00422    0.00695    0.00022
C15   1    0.302289    0.196613    0.917894    11.00000    0.02468    0.02677 =
         0.03519    0.00459    0.00574   -0.00075
HKLF 4




REM  reu-093_a.res in P-1
REM wR2 = 0.1961, GooF = S = 1.021, Restrained GooF = 1.021 for all data
REM R1 = 0.0674 for 1897 Fo > 4sig(Fo) and 0.0888 for all 2609 data
REM 208 parameters refined using 0 restraints

END

WGHT      0.1319      0.0000

REM Highest difference peak  0.584,  deepest hole -0.521,  1-sigma level  0.089
Q1    1   1.1428  0.2595  0.6203  11.00000  0.05    0.58
Q2    1   1.0474  0.3995  0.6867  11.00000  0.05    0.38
Q3    1   0.4170  0.2015  1.0765  11.00000  0.05    0.37
Q4    1   0.4903  0.1223  0.8257  11.00000  0.05    0.36
Q5    1   0.2761  0.3368  1.0476  11.00000  0.05    0.34
;
_shelx_res_checksum              11648
_shelx_hkl_file
;
   0   0  -1  120.82    6.54
   0   0   1   99.01    6.39
   0   0  -1  112.96    6.56
   0   0   1   88.73    6.29
   0   0  -1  108.15    6.70
   0   0  -1  114.03    6.45
   0   0  -2  154.10    8.49
   0   0  -2  115.46    8.01
   0   0   2  117.53    8.25
   0   0   2  112.62    7.97
   0   0  -2  141.18    8.79
   0   0  -2  148.60    8.68
   0   0   2  127.52    8.16
   0   0  -2  139.54    8.21
   0   0  -3  139.41    9.05
   0   0  -3  116.35    7.87
   0   0   3   93.25    7.99
   0   0   3  125.05    8.04
   0   0  -3  102.03    7.59
   0   0  -3  133.92    8.34
   0   0   3  119.15    7.61
   0   0  -3  133.15    8.77
   0   0   4  545.60   31.85
   0   0  -4  525.99   32.05
   0   0  -4  527.22   32.95
   0   0  -4  530.44   32.35
   0   0   4  497.74   31.66
   0   0   4  492.93   31.94
   0   0   5    5.17    3.98
   0   0   5    4.06    3.57
   0   0  -5    2.63    2.23
   0   0  -5    0.82    2.82
   0   0   5    3.58    3.61
   0   0   6   45.77    6.80
   0   0   6   41.12    5.81
   0   0   6   44.13    5.66
   0   0  -6   36.57    5.45
   0   0   7  176.17   13.73
   0   0   7  200.33   15.30
   0   0   7  180.48   13.75
   0   0   8   93.58    9.42
   0   0   8   92.67   10.86
   0   0   9   59.30    5.51
   0   0   9   62.41    7.18
   0   0   9   57.10    8.12
   0   0  10   14.45    5.67
   0   0  10   11.42    5.90
   0   0  10   15.73    6.41
   0   0  10   20.02    4.41
   0   0  11  107.30    8.36
   0   0  11   76.07   10.49
   0   0  11   99.06   11.78
   0   0  12  426.44   26.84
   0   0  13  122.97    9.72
   0   0  14  343.90   21.54
   0   0  15   40.58    4.02
   0  -1  16   -0.64    1.82
   0  -1  15   43.29    4.25
   0  -1  13   78.64    6.91
   0  -1  12   50.60    4.87
   0  -1  11    9.24    6.00
   0  -1  10   15.51    6.52
   0  -1  10   17.29    5.80
   0  -1  10   19.77    5.86
   0  -1   9    0.59    3.87
   0  -1   9   -0.19    4.17
   0  -1   9   -0.56   10.95
   0  -1   9    3.09    4.81
   0  -1   8    9.05    4.64
   0  -1   8    9.54    4.94
   0  -1   8   10.27    5.09
   0   1  -7    0.38    3.92
   0  -1   7    3.03    3.34
   0  -1   7    0.18    4.06
   0  -1   7    2.62    3.92
   0   1  -6   73.56    7.90
   0   1  -6   54.17    6.27
   0  -1   6   69.26    6.65
   0  -1   6   65.34    6.44
   0   1  -6   68.03    7.68
   0  -1   5  926.07   62.12
   0   1  -5  970.87   60.80
   0   1  -5 1021.40   61.65
   0  -1   5 1056.90   61.07
   0   1  -5 1071.36   62.51
   0   1  -5 1069.34   61.96
   0  -1   5  999.67   60.92
   0   1  -4  292.42   17.83
   0   1  -4  296.37   17.96
   0  -1   4  259.14   17.24
   0   1  -4  281.75   17.15
   0   1  -4  292.86   18.38
   0  -1   4  259.59   17.36
   0  -1   4  276.73   17.30
   0  -1   3  590.90   36.79
   0  -1   3  655.48   37.53
   0   1  -3  686.34   37.43
   0  -1   3  619.90   36.92
   0  -1   3  694.77   37.47
   0   1  -3  697.48   37.78
   0   1  -3  712.43   37.92
   0  -1   3  611.55   36.82
   0  -1   2  173.45   11.16
   0  -1   2  208.03   12.10
   0   1  -2  174.06   11.53
   0  -1   2  172.11   11.21
   0   1  -2  188.24   11.90
   0   1  -2  245.23   12.18
   0  -1   2  171.83   11.48
   0   1  -2  174.83   11.70
   0  -1   2  201.73   11.74
   0   1  -2  240.55   12.23
   0   1  -1  286.77   17.56
   0   1  -1  344.81   17.88
   0  -1   1  294.74   17.61
   0  -1   1  281.29   17.28
   0   1  -1  356.50   17.79
   0  -1   1  326.19   17.64
   0  -1   1  232.67   17.60
   0  -1   1  247.37   17.44
   0  -1   1  300.48   18.08
   0  -1   0  259.74   15.01
   0   1   0  213.94   15.31
   0  -1   0  231.72   14.60
   0   1   0  245.48   14.69
   0  -1   0  226.22   15.51
   0  -1   0  234.42   14.89
   0   1   0  282.22   14.81
   0   1   1 2963.16  155.74
   0  -1  -1 2741.18  155.63
   0  -1  -1 2480.23  155.24
   0   1   2  134.89    9.34
   0  -1  -2  140.80    8.89
   0  -1  -3 1021.41   58.06
   0   1   3 1057.53   57.33
   0  -1  -4   -0.18    2.91
   0   1   4    2.01    3.49
   0   1   5    2.03    5.23
   0  -1  -5    1.33    3.17
   0   1   5   -2.18    3.53
   0   1   6  558.32   35.36
   0   1   7  173.21   15.00
   0   1   7  138.05   12.14
   0   1   8  375.83   19.77
   0   1   8  198.53   16.67
   0   1   9   23.00    4.33
   0   1   9   22.13    6.03
   0   1   9   29.31    6.79
   0   1  10  343.02   20.88
   0   1  10  341.72   24.87
   0   1  11   19.56    5.16
   0   1  12    7.23    5.04
   0   1  13   40.56    4.78
   0   1  13   37.00    5.84
   0   1  14   23.57    3.53
   0   1  14   17.58    4.36
   0   1  15   -2.05    2.11
   0  -2  16    0.72    1.86
   0  -2  15  109.33    8.04
   0  -2  15  107.68    7.81
   0  -2  15  113.04    7.83
   0  -2  14    2.27    2.29
   0  -2  14    5.64    3.46
   0  -2  13  209.67   13.96
   0  -2  12    0.61    2.20
   0  -2  11   67.83   10.48
   0  -2  11  108.21    7.45
   0  -2  11  107.77   14.70
   0  -2  11   53.36   16.28
   0  -2  10    8.69    5.00
   0  -2  10   12.95    6.01
   0  -2  10   -0.64   12.32
   0   2  -9  445.87   25.33
   0  -2   9  485.31   21.43
   0  -2   9  571.96   28.11
   0  -2   9  156.85   23.08
   0   2  -8   18.74    5.40
   0  -2   8   12.84    5.03
   0   2  -8   12.73    6.43
   0  -2   8   20.72    5.16
   0  -2   7    1.21    3.35
   0   2  -7    5.35    3.98
   0   2  -7    1.30    3.24
   0   2  -7    1.11    3.88
   0   2  -7    0.61    4.75
   0  -2   7    4.44    3.98
   0   2  -6  242.59   16.72
   0   2  -6  255.61   17.17
   0  -2   6  242.79   17.82
   0  -2   6  208.80   15.71
   0   2  -6  237.26   17.62
   0  -2   5 1128.12   69.96
   0   2  -5 1091.24   69.89
   0   2  -5 1200.36   70.85
   0   2  -4 1617.76   94.79
   0  -2   4 1759.44   95.34
   0  -2   4 1508.14   94.55
   0   2  -4 1509.73   94.29
   0  -2   3  647.47   41.37
   0   2  -3  819.98   43.23
   0   2  -3  822.92   42.68
   0   2  -3  779.31   42.84
   0  -2   3  697.54   42.58
   0   2  -3  645.41   41.86
   0   2  -3  725.39   42.62
   0  -2   3  660.26   41.95
   0  -2   3  649.39   42.31
   0   2  -2  595.02   38.16
   0  -2   2  621.94   38.30
   0   2  -2  734.03   38.78
   0   2  -2  588.45   38.36
   0  -2   2  596.40   38.34
   0  -2   2  630.12   38.08
   0   2  -2  533.69   37.66
   0  -2   2  787.71   39.77
   0  -2   2  724.57   37.72
   0  -2   1 2099.61  113.78
   0   2  -1 1876.98  112.31
   0   2  -1 1887.20  113.64
   0  -2   1 1737.06  112.79
   0   2  -1 1624.37  112.49
   0   2  -1 2108.76  112.87
   0  -2   1 2266.65  112.63
   0   2  -1 1850.12  114.12
   0   2   0 2645.34  150.90
   0   2   0 2562.24  150.67
   0  -2   0 2599.10  151.21
   0   2   0 2556.26  150.65
   0  -2   0 2493.35  151.02
   0  -2   0 2526.40  150.52
   0   2   1    0.50    1.67
   0  -2  -1    1.62    2.48
   0  -2  -1    1.68    1.12
   0   2   1   -0.72    2.31
   0  -2  -1   -0.68    1.26
   0   2   1   -0.61    2.67
   0  -2  -1    1.08    3.87
   0   2   2   35.12    4.47
   0   2   2   43.12    4.31
   0  -2  -2   37.83    3.17
   0   2   3   92.20    7.32
   0  -2  -3   94.05    8.12
   0  -2  -4 1550.04  104.00
   0   2   4 1881.45  103.48
   0   2   5 3039.22  168.69
   0   2   5 2689.72  166.54
   0   2   6  662.43   41.75
   0   2   7    2.44    4.83
   0   2   7    1.89    4.46
   0   2   8    3.53    5.06
   0   2   8    0.66    3.49
   0   2   8    6.34    3.58
   0   2   8   -0.33    5.53
   0   2   9   -1.64    5.91
   0   2   9    1.90    3.83
   0   2   9    1.88    4.71
   0   2   9    5.20    4.18
   0   2  10    9.31    4.82
   0   2  10    7.21    5.20
   0   2  10    1.94    5.99
   0   2  10    6.69    4.36
   0   2  11    5.53    3.43
   0   2  11    3.92    5.01
   0   2  11    0.65    4.16
   0   2  12    3.37    3.39
   0   2  12   -2.18    5.27
   0   2  13   13.61    4.83
   0   2  13   13.52    3.39
   0   2  14   13.80    2.78
   0  -3  16    5.18    1.87
   0  -3  16    3.12    2.12
   0  -3  15   20.75    3.59
   0  -3  15   21.30    2.97
   0  -3  14    8.41    3.74
   0  -3  14    4.05    2.33
   0  -3  13   56.28    5.21
   0  -3  12    4.53   12.63
   0  -3  12   47.51    4.60
   0  -3  11    2.24    2.29
   0  -3  11   -0.96    5.48
   0  -3  10  462.27   35.69
   0  -3  10  568.68   32.46
   0   3 -10  523.94   38.78
   0  -3  10  467.17   33.23
   0   3  -9  165.30   15.61
   0   3  -9  176.91   15.73
   0  -3   9  125.13   12.77
   0  -3   9  159.59    9.99
   0  -3   9  167.13   16.24
   0  -3   9  138.92   11.40
   0   3  -8  144.37   13.59
   0   3  -8  153.65   13.40
   0  -3   8  121.74   11.50
   0   3  -8  106.57   11.78
   0  -3   8  130.25   11.10
   0  -3   8  148.86   14.06
   0   3  -7  241.65   18.33
   0   3  -7  247.22   17.82
   0  -3   7  215.81   15.69
   0  -3   7  194.71   16.14
   0  -3   7  267.95   19.03
   0   3  -7  231.27   17.06
   0  -3   6  220.90   15.95
   0   3  -6  236.48   17.23
   0  -3   6  238.56   16.73
   0  -3   5  248.26   17.33
   0  -3   5  273.12   18.71
   0   3  -5  255.60   18.40
   0  -3   4  610.85   39.15
   0   3  -4  624.66   39.62
   0  -3   4  553.84   39.29
   0   3  -4  732.84   40.10
   0   3  -4  588.36   38.41
   0   3  -4  628.38   39.64
   0   3  -4  599.14   38.95
   0  -3   4  632.63   37.94
   0   3  -4  632.14   39.29
   0  -3   4  693.73   38.98
   0   3  -3  242.63   17.83
   0   3  -3  252.71   18.22
   0  -3   3  291.44   18.61
   0   3  -3  278.78   18.94
   0   3  -3  265.01   19.04
   0   3  -3  272.21   18.88
   0  -3   3  327.90   20.62
   0  -3   3  266.74   18.47
   0  -3   3  296.00   17.42
   0   3  -3  296.99   19.51
   0  -3   2   81.46    5.71
   0  -3   2   65.68    6.22
   0  -3   2   91.82    8.55
   0   3  -2   72.78    6.52
   0   3  -2   78.58    7.09
   0   3  -2   72.65    8.18
   0   3  -1  804.18   55.09
   0  -3   1  926.06   52.87
   0  -3   1  862.00   54.54
   0   3  -1  875.03   53.17
   0   3   0  535.62   33.53
   0  -3   0  555.05   34.53
   0  -3   0  562.66   33.41
   0   3   0  552.05   33.60
   0   3   1  761.25   47.71
   0  -3  -1  788.33   47.43
   0  -3  -1  848.10   49.37
   0  -3  -1  750.10   45.98
   0   3   1  751.73   45.98
   0  -3  -2  200.95   14.34
   0   3   2  187.17   13.17
   0  -3  -2  226.38   16.56
   0  -3  -2  184.95   12.43
   0  -3  -3   11.36    4.06
   0  -3  -3   17.55    6.20
   0   3   3   17.55    4.19
   0  -3  -4  112.57   13.13
   0  -3  -4  115.12   10.88
   0   3   4  132.95   10.62
   0  -3  -5  397.59   34.26
   0   3   5  478.14   31.39
   0   3   6  120.92   11.36
   0   3   6  117.82   15.03
   0   3   7   11.50    4.04
   0   3   7   13.67    6.19
   0   3   7   18.42    3.64
   0   3   8  332.89   18.78
   0   3   8  286.06   19.60
   0   3   9   10.57    4.58
   0   3   9    0.40    4.91
   0   3   9   -0.21    4.20
   0   3  10   26.88    5.77
   0   3  10   31.14    5.52
   0   3  11   -4.48    5.19
   0   3  11    1.35    3.05
   0   3  11    2.01    4.63
   0   3  12   38.05    5.84
   0   3  12   36.66    5.78
   0   3  12   35.03    4.26
   0  -3 -14    8.35    2.52
   0  -4  16    4.04    2.15
   0  -4  16    4.93    1.95
   0  -4  15   12.23    3.30
   0  -4  15   15.52    2.70
   0  -4  14    2.44    2.34
   0  -4  13   15.97    3.16
   0  -4  13   -2.23   12.28
   0  -4  12    0.92    2.30
   0  -4  12   -0.76   12.32
   0  -4  11    0.91    5.66
   0  -4  11    4.57    2.46
   0   4 -11    2.34    4.82
   0  -4  11    2.00    5.27
   0  -4  10  122.67   10.42
   0  -4  10  130.84    8.56
   0  -4  10  100.76   10.70
   0  -4  10  154.68   17.00
   0   4 -10  125.07   14.37
   0   4 -10  117.47   14.04
   0  -4   9  634.54   42.43
   0   4  -9  764.25   46.63
   0   4  -9  756.90   47.89
   0  -4   9  704.45   42.33
   0   4  -9  622.73   45.05
   0  -4   9  692.19   41.33
   0  -4   9  644.75   42.13
   0   4  -8    2.41    5.17
   0  -4   8    1.19    4.19
   0  -4   8    5.56    4.66
   0   4  -8    0.39    4.23
   0   4  -8    4.09    4.55
   0  -4   7  477.77   31.76
   0  -4   7  539.47   34.55
   0   4  -7  444.75   31.81
   0  -4   6    0.26    3.57
   0  -4   6    3.68    3.54
   0   4  -5   36.82    7.17
   0  -4   5   58.48    6.85
   0  -4   5   55.44    6.43
   0  -4   4  121.79    7.85
   0   4  -4  103.83    9.48
   0   4  -4   94.80    9.84
   0   4  -4   88.92   10.46
   0   4  -4   93.97   10.87
   0  -4   4   79.35    8.58
   0   4  -3  463.35   31.04
   0   4  -3  425.09   32.53
   0  -4   3  518.13   29.63
   0   4  -3  473.00   31.28
   0   4  -3  448.15   30.30
   0   4  -3  413.83   30.89
   0   4  -2 1549.40   98.83
   0   4  -2 1591.81   98.18
   0  -4   2 1676.21   97.63
   0  -4   2 1899.03  100.99
   0   4  -2 1551.09  100.86
   0   4  -1    4.80    2.73
   0   4  -1    2.93    5.76
   0  -4   1    6.85    5.32
   0  -4   1    5.57    2.01
   0   4   0 1944.81  114.09
   0   4   0 1765.97  115.56
   0  -4   0 1968.46  113.88
   0  -4  -1   29.78    3.37
   0   4   1   29.08    5.49
   0  -4  -1   24.06    5.08
   0  -4  -2   64.73    7.51
   0  -4  -2   75.80   10.11
   0  -4  -2   55.47    5.32
   0  -4  -3  238.53   22.61
   0  -4  -3  261.57   20.82
   0  -4  -4   12.57    4.59
   0   4   4   18.52   10.08
   0  -4  -4    9.95    6.66
   0   4   5  151.51   17.60
   0   4   6    0.33    3.35
   0   4   6   -1.81   11.09
   0  -4  -6   -0.31    2.13
   0   4   7    2.45    4.06
   0   4   8  112.68    8.12
   0   4   8   96.07    9.12
   0   4   9   46.96    6.95
   0   4   9   59.45    7.44
   0   4  10   -1.53    4.60
   0   4  10   -1.15    4.75
   0   4  11   -2.91    4.68
   0   4  11   -4.92    4.78
   0   4  12    4.16    3.98
   0   4  12    3.48    4.05
   0   4  13   20.32    3.68
   0  -4 -13   10.08    2.77
   0  -5  16    4.19    2.05
   0  -5  16    3.24    1.83
   0  -5  15    1.31    2.14
   0  -5  15    5.47    2.91
   0  -5  14   42.89    4.43
   0  -5  13  112.75    7.68
   0  -5  13    0.73   13.38
   0  -5  12    6.10   12.81
   0  -5  12   10.88    2.91
   0   5 -11   92.42   13.04
   0  -5  11  108.58    9.61
   0   5 -11   78.68   12.17
   0  -5  11   96.86    7.24
   0   5 -10    7.25    4.98
   0   5 -10    8.07    6.26
   0  -5  10   -0.78    6.87
   0  -5  10   17.54    5.98
   0  -5  10    6.63    2.46
   0  -5  10    5.22    5.01
   0   5 -10    1.10    4.50
   0  -5  10   12.55    7.77
   0   5  -9   42.06    8.29
   0  -5   9   61.00    7.14
   0   5  -9   35.57    7.29
   0  -5   9   47.83    4.43
   0   5  -9   50.52    9.22
   0  -5   9   46.45    6.24
   0  -5   9   50.23    7.67
   0  -5   9   67.44   10.61
   0  -5   8  104.67    8.70
   0  -5   8   90.18    9.31
   0  -5   8  106.53    9.11
   0   5  -8   86.94   10.64
   0  -5   8  104.87   12.75
   0  -5   8   98.14    7.18
   0   5  -7   51.85    7.75
   0  -5   7   68.02    9.43
   0   5  -6  165.61   16.50
   0   5  -6  127.77   13.83
   0   5  -5  500.08   35.40
   0   5  -5  408.69   32.01
   0   5  -5  443.42   32.93
   0  -5   5  520.54   30.36
   0   5  -5  470.35   32.83
   0   5  -4   79.30   10.46
   0   5  -4   73.21    9.67
   0  -5   4   91.08    7.02
   0   5  -4   69.33   10.48
   0   5  -4   74.82    8.65
   0   5  -4   50.15   10.57
   0  -5   4   96.22   11.60
   0  -5   3    1.45    6.41
   0   5  -3    0.67    5.37
   0   5  -3    2.14    4.58
   0  -5   3    1.21    2.15
   0   5  -3    4.58    3.91
   0   5  -3   -2.42    7.58
   0   5  -3    2.72    7.32
   0   5  -2  161.38   12.90
   0  -5   2  150.21   11.38
   0   5  -2  155.56   12.11
   0  -5   2  187.25   15.67
   0  -5   1  259.06   16.57
   0   5  -1  224.57   17.48
   0  -5   1  260.75   19.85
   0   5  -1  233.93   16.78
   0   5   0  161.96   14.12
   0  -5   0  147.98   13.64
   0   5   0  141.03   12.39
   0  -5   0  120.54    9.86
   0   5   1  941.74   61.31
   0  -5  -1  868.55   58.62
   0   5   2    0.43    8.83
   0   5   3  567.15   40.14
   0   5   4   24.08   12.06
   0   5   5    4.59    3.52
   0   5   5    9.13   11.90
   0   5   6    0.73   15.26
   0   5   6   65.96    6.78
   0   5   7   21.37    5.40
   0   5   8   18.76    5.42
   0   5   8    9.73    4.94
   0   5   9   95.98    9.63
   0   5   9  118.63   10.25
   0   5  10    4.46    4.18
   0   5  10    1.95    4.91
   0   5  11    1.88    4.14
   0  -5 -11    1.89    2.93
   0   5  12    7.33    3.37
   0  -6  16   23.35    2.67
   0  -6  15   -0.19    2.03
   0  -6  15    1.72    2.49
   0  -6  14   -0.61   10.62
   0  -6  14   -1.15    2.37
   0  -6  13   36.57    4.15
   0  -6  13   -0.71   11.76
   0  -6  12    2.16    7.85
   0  -6  12   -0.80    2.50
   0  -6  12   -1.32    5.33
   0  -6  11   65.80    9.01
   0   6 -11   46.80    9.81
   0  -6  11   70.82    5.95
   0  -6  11   67.27    7.68
   0  -6  11   69.61    8.36
   0   6 -10   43.63    9.48
   0  -6  10   72.45    7.68
   0   6 -10   44.71    8.56
   0   6 -10   60.07   10.53
   0  -6  10   82.67    8.49
   0  -6  10   62.19    8.90
   0  -6  10   82.78    5.86
   0   6  -9    8.70    4.84
   0   6  -9    5.56    6.60
   0  -6   9   12.28    6.61
   0  -6   9   16.83    6.11
   0  -6   9    0.48    7.33
   0  -6   9   14.46    5.21
   0  -6   8   14.38    5.16
   0  -6   8   14.63    6.39
   0   6  -8   16.42    5.59
   0  -6   7   25.05    6.17
   0  -6   7   23.05    5.25
   0  -6   6  596.00   38.12
   0  -6   6  684.81   38.39
   0  -6   5   10.39    3.11
   0   6  -5    9.27    9.84
   0   6  -5    9.86    6.99
   0  -6   4    9.89    2.83
   0   6  -4   12.35    6.69
   0   6  -4    5.27    4.45
   0   6  -4    9.36    8.07
   0   6  -4    3.71    9.64
   0  -6   4    1.27    7.07
   0   6  -3   60.61   11.85
   0  -6   3   84.75   12.15
   0   6  -3   68.90    9.66
   0   6  -3   43.75    7.34
   0   6  -3   31.90    9.24
   0  -6   3   69.78    6.42
   0   6  -2 1339.24   75.72
   0   6  -2 1074.35   74.18
   0  -6   2 1242.85   72.87
   0   6  -2 1002.33   73.55
   0  -6   1  293.13   22.90
   0  -6   1  264.08   18.63
   0  -6   0   32.83    4.69
   0   6   0   39.64   10.17
   0  -6   0   41.82    8.73
   0  -6  -1  163.05   13.20
   0  -6  -1  168.32   17.21
   0   6   2   27.95   11.47
   0  -6  -2   21.72    3.29
   0   6   3   72.68   14.77
   0  -6  -3   48.57    4.84
   0  -6  -4    5.92    2.63
   0   6   4   23.53   13.72
   0   6   5   -6.35   12.44
   0   6   6   64.41   16.45
   0   6   6   83.83    8.27
   0   6   6   82.04    8.70
   0   6   7    5.22    4.56
   0   6   7    7.59    4.74
   0   6   8   26.81    5.90
   0   6   8   22.22    5.64
   0   6   9  144.43   12.60
   0   6   9  184.10   13.10
   0   6  10   -0.37    4.10
   0   6  10    5.04    3.84
   0   6  11    0.73    2.80
   0   6  11    0.29    3.22
   0  -7  15   15.45    2.50
   0  -7  14   -2.78   11.16
   0  -7  14    3.28    2.31
   0  -7  13   -0.67   11.84
   0  -7  13    3.89    8.00
   0  -7  12   16.94    3.20
   0  -7  12    0.27    7.83
   0  -7  12   19.46    5.84
   0  -7  12    1.48   11.97
   0  -7  11   42.88    6.83
   0   7 -11   21.38    7.52
   0  -7  11   26.38    5.73
   0  -7  11   25.00    7.12
   0  -7  10  283.76   14.22
   0  -7  10  270.30   13.65
   0  -7   9   -0.40    6.69
   0  -7   9    3.33    7.61
   0   7  -9   -3.54    4.85
   0  -7   9   -0.72    5.01
   0   7  -9   -1.21    5.71
   0  -7   9   -1.51    5.71
   0  -7   8   29.76    7.30
   0  -7   8   23.31    5.77
   0   7  -8   20.13    6.17
   0  -7   7   20.26    5.51
   0  -7   7   21.01    6.62
   0   7  -6  463.57   39.60
   0  -7   6  570.23   34.74
   0  -7   6  560.34   34.73
   0  -7   5  136.68   11.54
   0  -7   5  128.80   11.62
   0  -7   5  128.27   10.85
   0  -7   5  165.68   11.52
   0   7  -5   94.00   17.15
   0   7  -5  112.43   14.58
   0   7  -4   55.28   10.36
   0   7  -4   35.71    7.66
   0  -7   4   64.45    7.94
   0  -7   4   80.60    7.90
   0   7  -4   47.63   13.40
   0   7  -4   42.53   10.92
   0  -7   4   62.58    7.00
   0  -7   4   55.81   12.03
   0   7  -3   20.01    7.66
   0   7  -3   11.37   11.26
   0  -7   3   23.19    9.54
   0  -7   3   21.40    4.24
   0  -7   3   34.29    6.58
   0   7  -3    9.70    9.17
   0  -7   3   21.08    6.46
   0   7  -3   15.59    5.55
   0   7  -2   -6.15   11.05
   0  -7   2   -0.36    1.93
   0  -7   2    0.90    5.90
   0   7  -2    2.08    6.64
   0  -7   2   15.43    6.07
   0  -7   2   -1.54    2.74
   0   7  -2    1.23    8.11
   0  -7   2    9.38    8.47
   0  -7   1   74.10    6.31
   0  -7   1   78.12   12.65
   0   7  -1   73.47   10.89
   0  -7   1   79.08    8.05
   0  -7   1   87.40    8.69
   0  -7   1  105.77    8.70
   0   7  -1   58.22   13.30
   0  -7   0   21.38    3.19
   0   7   0   22.72   11.15
   0  -7   0   35.70    6.48
   0  -7   0   29.13    8.95
   0  -7   0   15.98    4.19
   0  -7  -1    1.37    2.23
   0   7   1   -1.29   11.51
   0   7   1    3.34   10.99
   0  -7  -1    1.41    6.16
   0  -7  -2  120.85   16.42
   0  -7  -2  164.48   11.24
   0   7   2  171.06   20.81
   0   7   3  122.88   18.58
   0  -7  -3  121.96    8.96
   0   7   3  110.73    9.86
   0   7   4   13.21    4.58
   0   7   4   20.54   13.43
   0  -7  -4   12.78    2.98
   0   7   5    4.87    4.79
   0   7   6   13.43    5.15
   0   7   7   37.82    5.92
   0   7   7   44.66    6.86
   0   7   8  203.99   14.30
   0   7   8  178.93   14.53
   0   7   9    3.04    3.84
   0   7   9   11.72    4.13
   0   7  10    0.15    2.88
   0  -8  14   -5.22    9.98
   0  -8  14   -3.75    6.16
   0  -8  13   -1.19   10.58
   0  -8  13    2.25    7.14
   0  -8  12   -2.82    7.49
   0  -8  12   15.10    5.32
   0  -8  12    4.80   12.00
   0  -8  11   99.53    9.26
   0  -8  11   92.89   10.55
   0  -8  11  123.22   10.07
   0  -8  10    3.82    5.43
   0  -8  10    0.37    4.78
   0  -8  10   -3.57    7.64
   0  -8  10    0.64    6.60
   0   8  -9   -5.07    5.80
   0  -8   9    8.94    5.89
   0  -8   9    7.17    6.59
   0  -8   9    8.80    7.27
   0  -8   9   11.68    5.03
   0  -8   8    3.32    5.18
   0  -8   8   -0.51    7.26
   0  -8   8    8.32    6.33
   0  -8   7    0.24    7.25
   0  -8   7   17.63    5.58
   0  -8   7   21.16    6.78
   0  -8   6    8.19    6.31
   0   8  -6   12.85    8.50
   0  -8   6    0.71    5.27
   0  -8   5  126.84   11.58
   0  -8   5  144.72   11.44
   0   8  -5   88.62   18.25
   0   8  -5  116.89   15.72
   0  -8   5  120.33   11.77
   0  -8   5  126.52   10.98
   0   8  -4   75.71   12.43
   0   8  -4   62.76   16.06
   0  -8   4   87.75    9.75
   0  -8   4  116.43    9.96
   0  -8   4   91.97    9.78
   0  -8   3  158.03   13.89
   0  -8   3  187.81   20.47
   0  -8   3  186.29   13.22
   0   8  -3  130.82   19.43
   0   8  -3  166.75   17.77
   0   8  -3  103.63   15.53
   0  -8   3  170.76   13.21
   0  -8   2  471.95   28.80
   0  -8   2  444.51   29.69
   0  -8   2  440.53   31.52
   0  -8   2  461.23   29.66
   0   8  -2  440.57   36.19
   0  -8   2  519.19   38.60
   0   8  -2  455.86   34.80
   0  -8   1  197.37   17.69
   0  -8   1  227.71   24.10
   0  -8   1  250.85   15.71
   0  -8   1  231.74   16.90
   0   8  -1  218.56   23.61
   0  -8   1  241.93   17.05
   0  -8   0  214.51   15.31
   0  -8   0  226.93   13.96
   0  -8   0  180.11   20.85
   0  -8   0  189.10   15.01
   0  -8   0  160.40   15.72
   0   8   0  189.12   22.08
   0  -8  -1   65.75   12.27
   0  -8  -1   71.32    6.43
   0  -8  -1   76.65    8.69
   0  -8  -2   52.03    5.30
   0  -8  -3  224.12   15.20
   0   8   4   41.54    6.16
   0  -8  -4   39.49    4.47
   0  -8  -5    0.44    2.18
   0   8   5    3.35    4.59
   0   8   6    1.83    4.38
   0   8   7    4.14    4.17
   0   8   8   23.48    4.50
   0   8   9    5.37    2.87
   0  -9  14   -0.37    7.66
   0  -9  14   -0.58    5.34
   0  -9  13   -0.99    9.17
   0  -9  12   -1.19   10.72
   0  -9  12   13.51    4.71
   0  -9  12   -1.82    6.94
   0  -9  11  278.16   16.91
   0  -9  11  193.37   17.01
   0  -9  10    8.13    5.34
   0  -9  10    1.67    4.37
   0  -9  10   -0.98    6.29
   0  -9  10    0.26    7.44
   0  -9   9    2.19    6.24
   0  -9   9   -3.65    7.01
   0  -9   9    7.89    5.61
   0  -9   9    2.12    4.56
   0  -9   8   28.16    5.71
   0  -9   8   33.41    6.96
   0  -9   7    6.24    4.48
   0  -9   7    2.04    5.13
   0  -9   7    1.69    6.81
   0  -9   7    7.10    6.14
   0  -9   6   68.98    7.79
   0  -9   6   53.13    8.42
   0  -9   6   69.40    8.18
   0  -9   5    3.95    5.44
   0   9  -5    3.25    7.82
   0   9  -5    5.94   14.41
   0  -9   5   -1.60    6.82
   0  -9   4    5.30    6.86
   0  -9   4    7.61    6.94
   0   9  -4    0.83   13.89
   0   9  -4   21.20    8.64
   0  -9   3  139.25   11.93
   0   9  -3  113.38   15.28
   0  -9   3  131.13   11.86
   0   9  -3  116.78   20.12
   0   9  -2   62.18   17.06
   0  -9   2   73.28    6.27
   0  -9   2   66.49    8.82
   0  -9   2   56.39    8.74
   0   9  -1  825.07   61.31
   0  -9   1  804.09   53.38
   0  -9   1  962.15   53.04
   0  -9   1  830.22   53.49
   0  -9   0  204.54   16.67
   0  -9   0  253.67   15.85
   0  -9   0  226.98   17.01
   0  -9  -1  242.65   15.45
   0  -9  -1  201.23   16.24
   0  -9  -2   49.06    5.16
   0  -9  -3   -0.75    2.53
   0  -9  -4    2.09    2.21
   0   9   5   17.04    4.55
   0  -9  -5   18.40    2.83
   0   9   6    3.56    3.47
   0   9   7    2.65    2.89
   0   9   8    2.39    2.33
   0 -10  13    1.63    5.31
   0 -10  13   -1.80    7.89
   0 -10  12   -4.72    9.18
   0 -10  12   -4.78    6.12
   0 -10  11    2.10    6.46
   0 -10  11    3.05    4.17
   0 -10  10   60.29    6.75
   0 -10  10   46.11    7.25
   0 -10   9    9.81    5.05
   0 -10   9    4.23    4.32
   0 -10   9   -2.33    6.61
   0 -10   9    3.49    5.71
   0 -10   8   45.95    5.96
   0 -10   8   45.34    6.85
   0 -10   7   46.25    6.49
   0 -10   7   44.49    6.33
   0 -10   7   42.61    7.04
   0 -10   6  216.75   15.50
   0 -10   5    5.93    4.95
   0 -10   4    5.29    6.81
   0 -10   3   -1.00    6.48
   0 -10   3    2.84    6.52
   0 -10   2  226.88   14.57
   0 -10   2  189.47   15.87
   0 -10   1   19.70    6.48
   0 -10   1   26.45    3.63
   0 -10   0   25.78    6.73
   0 -10   0   26.04    3.64
   0 -10  -1   -1.32    2.45
   0 -10  -1   -1.81    5.66
   0 -10  -2   20.04    3.17
   0 -10  -3    3.48    2.04
   0 -10  -4    3.21    1.73
   0  10   5   10.96    3.86
   0 -10  -5   15.85    2.10
   0  10   6    1.78    2.97
   0 -11  12   -3.77    4.72
   0 -11  11   -3.97    5.39
   0 -11  10   -2.22    5.62
   0 -11  10   13.53    4.16
   0 -11   9   29.65    4.96
   0 -11   9   24.34    5.43
   0 -11   8   17.96    4.23
   0 -11   8   25.95    5.00
   0 -11   7   23.26    4.70
   0 -11   7   21.10    4.65
   0 -11   6   20.53    4.76
   0 -11   6   14.62    4.49
   0 -11   5    0.59    4.21
   0 -11   4   38.13    5.55
   0 -11   3    7.62    4.48
   0 -11   2  139.27    9.82
   0 -11   1   49.34    4.60
   0 -11   0   25.58    3.22
   0 -11  -1    4.46    1.90
   0  11   1    1.93    3.72
   0  11   2   -0.97    3.58
   0 -11  -2    1.48    1.61
   0  11   3   62.68    7.00
   0 -11  -3   94.31    6.08
   0 -11  -4   22.94    2.12
   0  11   4   14.13    3.47
   0 -12   8    9.36    3.40
   0 -12   7   23.23    3.92
   0 -12   7   37.28    4.59
   0 -12   6    3.72    3.08
   0 -12   5   13.82    3.53
   0 -12   4    1.87    2.95
   0 -12   4    0.39    3.26
   0 -12   3   22.15    3.99
   0 -12   3   23.34    4.04
   0 -12   2    3.81    3.13
   0 -12   2    0.56    2.62
   0 -12   2    1.34    1.33
   0 -12   1    9.04    3.19
   0 -12   1   14.68    1.96
   0 -12   0    1.19    1.14
   0 -12   0    0.38    2.70
   0 -12  -1    4.06    1.18
  -1  12   2    5.11    2.83
   1 -12  -1   17.01    2.07
  -1  12   1    9.78    3.47
   1 -12   0   43.01    3.76
   1 -12   1   -0.34    3.47
   1 -12   1   -0.98    1.58
   1 -12   2    2.12    3.01
   1 -12   2   -1.19    3.51
   1 -12   3  118.00    9.45
   1 -12   3  125.45    9.31
   1 -12   4   13.12    3.57
   1 -12   4   12.72    4.06
   1 -12   5   10.75    3.99
   1 -12   5   12.24    3.66
   1 -12   6    5.02    3.73
   1 -12   6    7.96    3.36
   1 -12   7   13.50    3.53
   1 -12   7   13.94    3.68
   1 -12   8    1.84    3.12
   1 -12   9    2.86    2.84
  -1  11   5    7.08    2.81
  -1  11   4    1.80    3.16
   1 -11  -3   45.43    3.84
  -1  11   3   37.60    5.47
   1 -11  -2    6.07    1.94
  -1  11   2    3.92    3.97
   1 -11  -1   10.05    2.30
  -1  11   1    8.65    4.26
   1 -11   0    5.09    2.18
  -1  11   0    5.45    4.43
   1 -11   1    3.01    2.13
   1 -11   2  177.16   12.17
   1 -11   3   32.79    3.77
   1 -11   3   21.80    4.85
   1 -11   4  232.97   18.59
   1 -11   4  258.41   18.46
   1 -11   5   30.96    5.32
   1 -11   5   36.92    5.81
   1 -11   6   14.69    4.35
   1 -11   6   11.27    4.71
   1 -11   7   22.98    4.88
   1 -11   7   23.25    5.16
   1 -11   8    3.08    3.75
   1 -11   8    3.84    4.21
   1 -11   8   -3.01    6.30
   1 -11   9   -4.15    6.46
   1 -11   9    8.24    3.95
   1 -11  10    0.60    3.50
   1 -11  10   -0.19    5.93
   1 -11  11   16.84    3.50
   1 -11  12   -4.39    5.00
  -1  10   6   -1.26    3.23
  -1  10   5    6.00    3.84
  -1  10   4   20.59    5.00
   1 -10  -4   20.22    3.69
  -1  10   3    4.09    4.43
   1 -10  -3   10.65    2.35
   1 -10  -3   10.54    3.44
  -1  10   2    3.37    4.62
   1 -10  -2    5.14    3.49
   1 -10  -2    4.58    2.25
   1 -10  -1   97.03    7.20
   1 -10  -1   92.18    8.03
   1 -10   0    5.35    3.51
   1 -10   0   12.71    2.93
  -1  10   0    8.28    5.30
   1 -10   1   27.79    3.78
   1 -10   2   47.52    4.89
   1 -10   3  844.84   51.46
   1 -10   4    5.10    2.40
   1 -10   5   11.97    4.88
   1 -10   5   13.55    5.49
   1 -10   6    4.36    4.23
   1 -10   6    5.67    5.12
   1 -10   7   14.12    5.56
   1 -10   7   16.54    4.89
   1 -10   8   41.19    5.90
   1 -10   8   35.94    5.85
   1 -10   9   34.36    5.55
   1 -10   9   30.89    5.34
   1 -10  10   -0.94    4.08
   1 -10  10   -0.72    7.07
   1 -10  11    2.40    6.68
   1 -10  11   -1.39    3.90
   1 -10  12   12.00    9.70
   1 -10  13   -0.44    5.21
   1 -10  13   -1.96    7.98
   1  -9  -8    0.41    1.89
   1  -9  -7   19.36    3.39
  -1   9   7   24.76    4.40
   1  -9  -6   -0.17    2.93
  -1   9   6   -1.40    3.96
  -1   9   6    2.58    3.97
  -1   9   5    8.40    4.43
   1  -9  -5    5.57    3.46
   1  -9  -4    5.86    3.61
  -1   9   4    9.98    4.48
   1  -9  -3   22.43    3.24
   1  -9  -3   21.01    4.63
   1  -9  -2  205.48   13.72
   1  -9  -2  193.77   14.76
   1  -9  -1   15.71    4.26
   1  -9  -1   18.30    3.16
   1  -9   0   38.38    5.54
   1  -9   0   34.47    4.11
   1  -9   1    0.18    6.18
   1  -9   1    0.46    2.10
   1  -9   1   -0.22    3.56
   1  -9   2   34.41    3.99
   1  -9   2   30.35    5.53
   1  -9   3    1.27    3.00
   1  -9   3   -1.23    2.08
   1  -9   4    4.56    2.24
   1  -9   4    5.13    3.21
   1  -9   5   32.57    6.46
   1  -9   6   49.87    6.72
   1  -9   6   47.98    7.09
   1  -9   7   26.77    5.56
   1  -9   7   24.29    5.89
   1  -9   8   -2.62    4.29
   1  -9   8    1.36    5.05
   1  -9   8   -4.30    6.23
   1  -9   9  383.15   25.52
   1  -9   9  332.84   24.95
   1  -9   9  413.47   25.04
   1  -9  10    6.16    7.37
   1  -9  10    2.74    4.77
   1  -9  11    1.76    7.36
   1  -9  11    3.72    4.54
   1  -9  12    4.28   10.08
   1  -9  13   -3.06    9.59
   1  -9  13   -4.72    6.08
   1  -9  14   -4.25    8.20
  -1   8   9   17.86    3.88
   1  -8  -9   18.12    3.07
  -1   8   8   -1.16    3.87
   1  -8  -8    2.13    2.94
  -1   8   7    2.00    4.41
   1  -8  -7    0.78    3.33
  -1   8   6  277.38   18.87
   1  -8  -6  244.66   18.03
   1  -8  -5   18.06    4.58
  -1   8   5   16.98    5.29
  -1   8   4    5.86    4.56
   1  -8  -4    9.09    4.22
   1  -8  -3  490.62   30.64
   1  -8  -3  514.74   32.05
  -1   8   3  475.15   31.86
   1  -8  -2  335.72   22.94
   1  -8  -2  342.85   21.76
   1  -8  -1   36.62    5.40
   1  -8  -1   32.88    3.92
   1  -8   0   31.52    5.43
   1  -8   0   40.04    5.35
  -1   8   0   39.36    9.32
   1  -8   0   40.73    4.19
   1  -8   1   14.86    4.08
   1  -8   1   15.75    4.07
  -1   8  -1   14.57    7.06
   1  -8   1   15.04    2.64
   1  -8   1   10.69    5.70
  -1   8  -2    2.92    6.25
   1  -8   2    3.81    2.04
   1  -8   2    1.61    3.17
   1  -8   2    0.34    2.93
   1  -8   2   -0.81    6.09
   1  -8   3   42.70    4.14
  -1   8  -3   27.36    7.01
  -1   8  -3   39.41    9.38
   1  -8   3   36.15    5.56
   1  -8   4   33.11    3.74
   1  -8   4   34.92    5.53
   1  -8   5  186.03   14.15
   1  -8   5  195.51   15.32
   1  -8   6   13.89    4.86
  -1   8  -6   21.95    9.11
   1  -8   6   10.07    5.67
   1  -8   7   75.61    8.04
  -1   8  -7   71.08   13.98
   1  -8   7   72.84    8.21
   1  -8   8   -1.89    6.40
   1  -8   8   -0.38    5.27
   1  -8   8   -0.77    4.15
   1  -8   9  173.28   13.18
   1  -8   9  183.24   13.63
   1  -8   9  144.07   13.45
   1  -8  10    8.55    7.98
   1  -8  10   38.12    6.20
   1  -8  11    3.21    8.79
   1  -8  11  168.32    9.51
   1  -8  12    8.28   11.86
   1  -8  13    0.60   10.55
   1  -8  14   -3.37    9.33
   1  -7 -11   14.50    2.48
  -1   7  10   -0.48    3.12
   1  -7 -10    4.32    2.76
  -1   7   9   24.95    4.89
   1  -7  -9   22.14    4.29
   1  -7  -8   24.45    5.52
  -1   7   8   39.93    6.20
  -1   7   8   35.47    6.10
   1  -7  -8   30.55    5.16
   1  -7  -7   71.19    8.40
  -1   7   7   73.57    8.29
   1  -7  -7   61.23    7.40
  -1   7   7   86.20    8.36
  -1   7   6   21.55    5.34
   1  -7  -6    9.99    4.31
  -1   7   6   21.02    5.61
   1  -7  -6   16.83    5.50
   1  -7  -5  194.25   15.18
   1  -7  -5  206.26   16.07
  -1   7   5  213.27   15.45
  -1   7   4    4.79    4.25
   1  -7  -4   14.12    5.59
   1  -7  -4    6.60    4.14
  -1   7   3  219.39   15.67
   1  -7  -3  217.67   15.47
   1  -7  -3  207.20   14.05
   1  -7  -2   63.35    5.14
   1  -7  -2   59.81    6.42
  -1   7   2   49.51    6.23
   1  -7  -1    0.72    1.89
  -1   7   1   -2.65    6.06
   1  -7  -1    3.14    3.14
   1  -7  -1    0.54    2.33
  -1   7   0  105.11   13.26
   1  -7   0   92.97    7.23
  -1   7   0   92.05   14.86
   1  -7   0   98.64    8.50
   1  -7   0  121.25    9.46
  -1   7  -1    7.39   10.23
   1  -7   1    0.14    5.51
   1  -7   1    0.18    2.78
   1  -7   1   -0.69    1.76
  -1   7  -1    0.63    5.97
   1  -7   1    0.79    2.61
  -1   7  -2  168.15   15.74
   1  -7   2  139.58   11.27
  -1   7  -2  152.99   18.24
   1  -7   2  151.96   10.48
   1  -7   2  201.64   17.34
   1  -7   2  194.34   12.84
   1  -7   2  141.67   11.66
   1  -7   3    3.72    2.79
   1  -7   3   -6.33    5.71
  -1   7  -3    3.17    5.15
   1  -7   3    0.58    1.48
   1  -7   3   -1.05    2.71
   1  -7   4  381.24   22.31
   1  -7   4  312.56   19.77
  -1   7  -4  348.22   29.27
   1  -7   5  291.57   18.90
  -1   7  -5  270.24   25.99
   1  -7   5  236.78   17.57
  -1   7  -6   18.40    8.74
   1  -7   6   18.46    4.59
   1  -7   6   17.86    5.42
  -1   7  -7   29.02    6.43
   1  -7   7   52.40    6.22
   1  -7   7   34.55    6.76
  -1   7  -7   35.95   10.65
   1  -7   7   41.04    6.19
   1  -7   8   52.72    6.51
  -1   7  -8   21.33    6.19
  -1   7  -8   27.94    7.55
  -1   7  -8   44.35   11.52
   1  -7   8   48.52    6.59
   1  -7   8   32.88    7.15
  -1   7  -9   50.20    8.86
   1  -7   9   49.88    6.63
  -1   7  -9   21.59    6.24
   1  -7   9   38.17    7.33
  -1   7  -9   32.37   10.35
  -1   7 -10   17.47    6.98
   1  -7  10   32.93    6.12
   1  -7  11    3.20    7.65
   1  -7  11   -4.72    5.23
   1  -7  13    0.66   11.12
   1  -7  14   -3.31    9.86
   1  -6 -12   -1.26    1.90
   1  -6 -11    5.06    2.76
  -1   6  10   -1.79    3.71
   1  -6 -10    0.97    3.31
   1  -6 -10    0.92    4.01
   1  -6  -9    0.67    3.95
   1  -6  -9    2.17    4.67
  -1   6   9    0.69    4.27
  -1   6   9    4.67    5.08
  -1   6   8   33.66    6.25
   1  -6  -8   26.86    5.36
   1  -6  -8   32.36    6.41
  -1   6   8   33.94    5.75
   1  -6  -7    5.52    4.03
  -1   6   7    4.75    4.65
  -1   6   7    5.08    4.77
   1  -6  -7    8.10    5.38
   1  -6  -6  332.95   25.06
   1  -6  -6  363.44   24.54
  -1   6   6  347.68   24.67
  -1   6   6  415.79   24.72
  -1   6   5   97.22    8.51
   1  -6  -5   82.05    9.04
   1  -6  -5   79.64    8.07
  -1   6   5   92.37    8.40
   1  -6  -4   51.60    7.31
  -1   6   4   68.38    6.72
   1  -6  -4   61.58    6.70
  -1   6   4   71.32    6.95
   1  -6  -3  237.11   17.56
   1  -6  -3  239.66   16.72
  -1   6   3  238.27   16.62
  -1   6   2  714.38   49.55
  -1   6   1  430.65   30.09
   1  -6  -1  391.76   25.49
  -1   6   1  349.72   29.91
   1  -6   0   38.69    4.66
  -1   6   0   25.93    9.60
  -1   6   0   23.75    7.16
  -1   6  -1  322.74   26.89
  -1   6  -1  345.65   27.32
   1  -6   1  382.29   27.46
  -1   6  -1  347.25   25.81
   1  -6   1  400.34   24.24
   1  -6   2  300.69   19.14
   1  -6   2  290.92   22.46
  -1   6  -2  241.61   22.46
  -1   6  -2  261.14   20.98
  -1   6  -3  106.84   13.76
   1  -6   3  119.16    8.55
   1  -6   4  115.33    8.45
  -1   6  -4  117.64   14.25
  -1   6  -5    4.09    4.14
   1  -6   5   10.02    2.72
  -1   6  -5   10.62    7.22
   1  -6   6  199.24   13.75
   1  -6   6  168.79   13.32
   1  -6   6  188.68   13.34
   1  -6   7   75.66    7.18
   1  -6   7   65.99    7.06
  -1   6  -7   80.38   13.22
  -1   6  -7   51.84    7.94
   1  -6   7   60.77    7.67
   1  -6   8    8.89    4.42
  -1   6  -8    6.79    4.55
  -1   6  -8    8.77    5.64
   1  -6   8   11.43    5.01
   1  -6   8    2.37    6.16
  -1   6  -8    8.42    7.56
  -1   6  -9  104.14   12.75
   1  -6   9   99.60   10.24
  -1   6  -9  112.00   16.89
  -1   6  -9   73.79   10.91
   1  -6   9  137.54    9.95
  -1   6 -10   20.81    7.35
  -1   6 -10   25.05    9.35
   1  -6  10   28.27    6.07
   1  -6  11    2.29   12.84
   1  -6  11   41.46    6.26
   1  -6  12    8.30   15.28
   1  -6  12  157.70    9.79
   1  -6  13    0.70   11.57
   1  -6  13   19.02    3.10
   1  -6  14    2.41   10.60
   1  -6  14    7.98    2.37
   1  -6  15   -0.58    1.86
   1  -5 -13    2.37    1.91
   1  -5 -12   51.32    5.13
   1  -5 -12   33.18    5.14
   1  -5 -11    9.50    4.41
  -1   5  11   18.52    4.97
   1  -5 -11   16.07    4.18
   1  -5 -10   12.25    5.32
  -1   5  10    9.55    5.04
   1  -5  -9   -2.40    4.83
  -1   5   9   -1.17    4.13
  -1   5   9   -6.93    5.01
  -1   5   8   81.64    8.37
  -1   5   8   68.44    7.90
   1  -5  -8   74.81    8.71
  -1   5   7    5.31    4.13
  -1   5   7    3.14    4.46
   1  -5  -7    2.32    4.80
  -1   5   7    2.28    6.19
  -1   5   6  147.01   10.88
   1  -5  -6  126.74   11.47
  -1   5   6  126.34   10.66
   1  -5  -5    3.98    3.79
  -1   5   5    5.71    3.58
  -1   5   5    6.64    3.64
  -1   5   5    8.80   11.66
  -1   5   4  189.76   20.29
  -1   5   3    1.98   10.34
  -1   5   2  475.75   35.63
  -1   5   2  547.71   36.46
  -1   5   1 1106.79   71.57
   1  -5  -1 1099.93   69.49
  -1   5   1 1275.10   73.82
  -1   5   1 1255.31   73.20
  -1   5   0    3.15    4.22
  -1   5   0   -0.32    7.46
  -1   5   0   -0.42    5.21
   1  -5   0    2.40    2.02
   1  -5   1  282.96   20.21
  -1   5  -1  242.88   20.19
  -1   5  -1  271.87   19.15
   1  -5   1  257.22   17.42
  -1   5  -2 1988.78  120.70
   1  -5   2 2004.77  115.14
   1  -5   2 1995.64  117.99
  -1   5  -2 1737.69  117.04
  -1   5  -2 1897.91  116.86
   1  -5   3    6.39    5.02
  -1   5  -3   14.48    6.57
   1  -5   3   13.34    2.75
  -1   5  -3    7.67    4.36
  -1   5  -4   11.34    4.63
  -1   5  -4   18.34    7.27
   1  -5   4   21.07    3.12
  -1   5  -5   54.43    9.86
  -1   5  -5   35.32    6.05
  -1   5  -6   51.70   10.49
  -1   5  -6   43.03    6.23
  -1   5  -7  299.35   23.39
  -1   5  -7  321.64   24.00
   1  -5   8   39.86    7.35
  -1   5  -8   25.81    6.78
  -1   5  -8   17.59    5.46
   1  -5   8   30.65    7.13
   1  -5   8   17.65    5.83
   1  -5   8   24.95    5.11
   1  -5   9   86.61   11.41
   1  -5   9   60.76    9.61
  -1   5  -9   60.85    9.71
   1  -5   9   61.02    7.20
  -1   5 -10  134.34   16.35
   1  -5  10  228.66   20.79
   1  -5  10  166.84   16.59
   1  -5  10  198.05   11.66
   1  -5  10  175.69   13.07
   1  -5  11   83.71    6.72
   1  -5  12   21.55    3.32
   1  -5  12    3.04   11.83
   1  -5  13   25.29   15.71
   1  -5  13  148.42    9.58
   1  -5  14   22.56    3.25
   1  -5  15   12.58    2.43
   1  -5  16    1.35    1.65
   1  -5  16   -1.18    1.60
   1  -4 -14    3.33    1.77
   1  -4 -13    9.66    3.02
   1  -4 -13    6.26    3.40
   1  -4 -12    4.93    4.25
  -1   4  12    5.47    2.94
  -1   4  11  119.55    8.47
  -1   4  11  105.27    9.88
   1  -4 -11  101.25   10.36
  -1   4  10   78.85    7.60
  -1   4  10   69.99    8.13
  -1   4  10   79.34    6.73
  -1   4   9    3.11    4.45
  -1   4   9    2.26    3.27
  -1   4   9   12.02    4.83
  -1   4   8    0.70    3.03
  -1   4   8   -3.67    4.43
  -1   4   8   -0.62    4.29
  -1   4   8   -3.90    5.90
  -1   4   7   10.04    4.00
  -1   4   7   18.96    7.49
  -1   4   7    8.06    3.92
  -1   4   7    7.65    2.89
  -1   4   7   11.16    4.35
   1  -4  -6   20.63    6.40
  -1   4   6   20.39    4.11
  -1   4   6   14.31    2.95
  -1   4   6   18.71    4.04
   1  -4  -5  335.03   25.14
  -1   4   5  295.30   25.96
  -1   4   4   21.05    9.43
   1  -4  -4   10.74    5.09
  -1   4   3  983.04   64.55
   1  -4  -3 1034.39   64.59
  -1   4   2 1260.90   76.85
  -1   4   2 1172.54   76.90
   1  -4  -2 1253.40   77.03
  -1   4   1   11.56    6.53
   1  -4  -1   -0.36    4.14
  -1   4   1    7.36    7.80
  -1   4   1    0.70    4.94
   1  -4   0   70.33    7.88
  -1   4   0   90.41    9.55
  -1   4   0   87.93    7.88
  -1   4  -1   44.11    8.26
   1  -4   1   57.51    6.84
  -1   4  -1   53.06    6.61
  -1   4  -1   53.91    8.51
  -1   4  -2  142.16   13.36
   1  -4   2  109.15   11.45
  -1   4  -3 1064.70   63.65
  -1   4  -3 1190.31   67.53
   1  -4   4  256.84   19.54
  -1   4  -4  225.19   19.48
  -1   4  -4  214.59   16.28
  -1   4  -5  186.00   14.79
  -1   4  -5  200.27   15.42
  -1   4  -6   15.47    4.29
  -1   4  -6   12.53    4.70
   1  -4   6   22.16    5.57
  -1   4  -7  339.82   23.51
   1  -4   7  396.96   24.53
  -1   4  -7  362.71   24.17
  -1   4  -8  175.92   14.18
   1  -4   8  165.66   13.77
   1  -4   8  114.72   10.96
   1  -4   8  132.49   10.51
  -1   4  -9    2.47    6.05
   1  -4   9    8.16    5.59
   1  -4   9    7.72    6.01
   1  -4   9    0.45    4.87
   1  -4   9    3.32    4.46
   1  -4  10   60.52    9.51
   1  -4  10   83.16   12.12
   1  -4  10   67.16    9.10
   1  -4  11   -2.21   12.59
   1  -4  11    4.66    5.53
   1  -4  11   -0.25    5.40
   1  -4  11   -3.16    5.24
   1  -4  12   33.04    8.23
   1  -4  12   12.92   14.08
   1  -4  13    0.13    2.30
   1  -4  14    3.43    2.32
   1  -4  15    2.15    2.51
   1  -4  15    3.63    2.09
   1  -4  16   20.61    2.45
   1  -3 -14    8.71    2.60
   1  -3 -14   11.46    3.23
   1  -3 -13    9.38    4.39
  -1   3  13    8.88    3.03
  -1   3  12    0.92    3.44
  -1   3  11  163.65   11.99
  -1   3  11  176.20   11.33
  -1   3  10  347.11   25.21
  -1   3  10  400.89   24.11
  -1   3  10  387.83   24.47
   1  -3  -9   79.69   12.23
  -1   3   9   73.94    8.20
  -1   3   9   63.71    9.56
  -1   3   9   93.80    7.02
  -1   3   9   97.28   13.98
  -1   3   9   92.66    7.88
  -1   3   8  146.55   10.72
  -1   3   8  165.75   17.58
  -1   3   8  144.75   11.51
  -1   3   8  156.50   10.37
  -1   3   8  146.80   14.61
  -1   3   7   14.27    7.06
  -1   3   7   13.51    2.83
  -1   3   7   12.26    6.56
  -1   3   7   12.45    3.75
  -1   3   7    6.53    3.51
  -1   3   6   11.07    6.01
  -1   3   5    2.06    8.47
  -1   3   5    2.89    5.03
  -1   3   4   28.41    9.20
   1  -3  -4   20.52    5.35
   1  -3  -3    7.03    4.02
  -1   3   3   11.09    8.03
  -1   3   2 1692.88  100.00
  -1   3   2 1613.50  100.06
   1  -3  -2 1622.38  100.10
   1  -3  -1  455.35   28.36
   1  -3  -1  391.00   26.45
  -1   3   1  415.21   27.83
   1  -3   0  161.25   11.60
   1  -3   0  147.64   11.27
   1  -3   1  154.48   11.92
  -1   3  -1  191.38   14.64
  -1   3  -2 1916.10  124.26
   1  -3   2 2243.44  126.64
   1  -3   2 2192.13  123.80
  -1   3  -2 2010.23  126.52
  -1   3  -3   13.26    3.90
   1  -3   3   13.31    3.80
   1  -3   3   20.98    6.30
   1  -3   3   20.17    4.58
   1  -3   4 1180.57   68.88
  -1   3  -4 1056.24   68.95
   1  -3   4 1111.28   72.08
   1  -3   4 1246.76   69.85
  -1   3  -4 1138.61   69.59
   1  -3   5  335.76   21.52
  -1   3  -5  295.23   20.90
   1  -3   5  310.92   20.38
  -1   3  -5  315.67   21.20
  -1   3  -6  720.91   44.85
  -1   3  -6  745.57   45.42
  -1   3  -6  682.01   44.51
  -1   3  -6  640.84   44.17
   1  -3   6  783.59   45.05
   1  -3   7  360.69   23.43
  -1   3  -7  339.32   23.75
  -1   3  -7  354.65   24.10
  -1   3  -7  290.24   22.32
   1  -3   8   85.08    9.42
  -1   3  -8   68.64    7.92
   1  -3   8   75.15    9.06
  -1   3  -8   80.49   10.08
   1  -3   9    1.97    4.43
   1  -3   9   11.92    5.33
   1  -3   9    8.50    6.10
   1  -3  10   48.07    7.33
   1  -3  10   48.02    8.24
   1  -3  10   55.52    8.57
   1  -3  10   40.67   14.12
   1  -3  11   46.68    7.65
   1  -3  11   37.93    7.81
   1  -3  11   33.14    7.25
   1  -3  12   17.29    6.87
   1  -3  13   19.88    3.27
   1  -3  14   19.90    3.16
   1  -3  15    2.63    1.96
   1  -3  16    9.53    1.92
   1  -3  16    5.88    1.72
   1  -2 -15    6.43    2.55
  -1   2  14   24.17    3.29
   1  -2 -14   13.49    4.12
  -1   2  13    1.65    3.32
  -1   2  12   46.45    5.37
  -1   2  11  642.80   37.88
  -1   2  11  593.08   38.11
  -1   2  10   -0.42    4.92
  -1   2  10   -1.84    6.80
  -1   2  10   -0.98    6.31
  -1   2  10    7.44    4.72
  -1   2  10   10.74    3.53
  -1   2   9   85.97    7.97
  -1   2   9   96.77   11.76
  -1   2   9  119.11   15.03
  -1   2   9  112.50    7.60
  -1   2   9   83.57   10.37
  -1   2   8  494.20   30.01
  -1   2   8  639.00   38.61
  -1   2   8  591.05   34.45
  -1   2   8  469.36   30.91
  -1   2   8  478.41   32.94
  -1   2   8  474.85   30.17
  -1   2   7   34.49    7.17
  -1   2   7   42.36    8.56
  -1   2   6  108.68   10.17
  -1   2   6  113.72   11.81
   1  -2  -6   83.91    9.36
   1  -2  -5   18.83    4.49
  -1   2   5   31.10    5.97
   1  -2  -4   25.80    5.55
   1  -2  -4   24.07    4.51
  -1   2   4   28.25    5.38
   1  -2  -3 1055.08   61.66
  -1   2   3  941.18   59.62
   1  -2  -3  990.98   60.50
   1  -2  -2   23.09    4.83
   1  -2  -2   18.18    3.98
  -1   2   2   19.60    4.74
   1  -2  -1  843.08   51.41
   1  -2  -1  907.93   52.93
  -1   2   1  818.25   52.22
   1  -2   0   20.90    2.50
   1  -2   0   27.77    5.00
   1  -2   0   24.72    3.52
   1  -2   0   23.29    3.16
  -1   2  -1 2251.11  129.23
   1  -2   1 2101.95  128.80
  -1   2  -1 2305.05  130.95
   1  -2   1 2109.37  129.71
   1  -2   1 2201.78  128.66
  -1   2  -2   78.35    6.20
   1  -2   2   75.42    6.15
  -1   2  -2   61.67    5.17
   1  -2   2   65.69    6.05
   1  -2   3 9178.16  563.06
  -1   2  -3 9516.18  560.50
   1  -2   3 8912.50  560.57
  -1   2  -3 9859.79  562.63
  -1   2  -3 9657.30  560.59
   1  -2   3 9999.00  560.90
  -1   2  -3 9853.77  561.12
   1  -2   4   63.79    8.65
   1  -2   4   67.41    6.26
  -1   2  -4   60.52    6.10
  -1   2  -4   55.06    9.45
   1  -2   4   62.17    6.39
  -1   2  -4   52.80    5.72
   1  -2   5  811.15   48.42
  -1   2  -5  798.59   48.65
  -1   2  -5  781.44   48.62
   1  -2   5  731.25   47.86
  -1   2  -5  803.94   48.27
  -1   2  -6   13.86    4.75
  -1   2  -6   10.13    3.82
  -1   2  -6   16.30    3.92
  -1   2  -7    1.58    3.25
   1  -2   8    8.29    5.84
  -1   2  -8    8.36    3.77
   1  -2   9  178.37   20.06
   1  -2   9  148.07   14.84
   1  -2   9  178.07   15.28
   1  -2   9  209.88   14.04
   1  -2  10    6.69    5.35
   1  -2  10   11.14    6.05
   1  -2  10    7.96    5.01
   1  -2  10   17.55    6.00
   1  -2  10   -1.34   11.28
   1  -2  11   22.48    6.91
   1  -2  11   25.89    6.75
   1  -2  11   33.25    8.50
   1  -2  12    6.91    6.60
   1  -2  13   31.56    3.76
   1  -2  14   59.04    5.09
   1  -2  15    1.41    1.87
  -1   1  15   83.66    5.41
   1  -1 -15   46.39    6.07
  -1   1  14   16.68    3.33
  -1   1  13  357.00   22.45
  -1   1  12  109.44    7.95
  -1   1  12   83.08    8.36
  -1   1  11    2.15    4.63
  -1   1  11   14.81    3.76
  -1   1  11    8.51    3.62
  -1   1  10  226.37   20.78
  -1   1  10  284.87   18.09
  -1   1  10  295.08   17.99
  -1   1  10  249.56   21.91
  -1   1   9   48.93   10.50
  -1   1   9   38.46    4.97
  -1   1   9   37.58    4.35
  -1   1   9   41.27    7.12
  -1   1   9   44.35    8.11
   1  -1  -8  115.98   12.32
  -1   1   8  145.23   12.20
  -1   1   8  145.75   14.88
  -1   1   8  103.02    8.21
  -1   1   8  114.63    8.11
  -1   1   8  114.68   10.79
  -1   1   7  127.73   11.43
   1  -1  -7  111.23   12.47
  -1   1   7  175.41   15.27
   1  -1  -7  124.22   12.29
  -1   1   7  188.67   12.71
  -1   1   6  173.33   12.58
  -1   1   6  179.56   14.69
   1  -1  -5  102.37   10.25
  -1   1   5  104.11    9.74
  -1   1   5  131.04   11.94
  -1   1   5  121.15    9.61
   1  -1  -4  107.51    9.45
  -1   1   4  108.74   10.40
  -1   1   4  110.53    8.79
  -1   1   4   89.20    7.92
   1  -1  -3  467.21   30.48
   1  -1  -3  510.28   30.52
  -1   1   3  542.54   31.22
  -1   1   3  454.87   29.57
  -1   1   3  448.94   29.64
   1  -1  -2  498.67   28.78
  -1   1   2  540.45   28.83
   1  -1  -2  461.16   28.57
   1  -1  -2  412.57   26.99
  -1   1   2  449.78   27.93
  -1   1   1   -1.58    3.84
   1  -1  -1    1.43    1.00
  -1   1   1    0.22    2.35
   1  -1  -1    0.12    1.85
   1  -1  -1    1.82    2.00
  -1   1   1    1.32    2.33
   1  -1  -1    0.17    2.71
   1  -1  -1    0.86    2.30
   1  -1  -1    1.91    2.59
   1  -1   0  318.37   19.75
  -1   1   0  293.25   20.21
   1  -1   0  234.84   18.79
  -1   1   0  376.52   19.21
   1  -1   0  306.95   19.42
  -1   1   0  309.59   18.54
  -1   1   0  303.71   19.88
  -1   1   0  315.93   18.91
   1  -1   0  311.33   19.21
  -1   1  -1 2663.06  141.32
   1  -1   1 2652.72  140.58
   1  -1   1 2461.11  139.59
   1  -1   1 2760.62  139.58
   1  -1   1 2714.11  139.92
  -1   1  -1 2858.96  139.87
  -1   1  -2 3420.75  209.92
   1  -1   2 3997.56  211.30
  -1   1  -2 3516.44  209.70
   1  -1   2 3606.06  209.95
  -1   1  -2 3531.55  211.68
  -1   1  -3  640.97   34.55
  -1   1  -3  587.22   31.65
   1  -1   3  580.07   34.11
  -1   1  -3  686.91   32.06
  -1   1  -4 1834.50  103.13
  -1   1  -4 1575.17  103.09
   1  -1   4 1653.50  102.58
   1  -1   5    9.50    3.69
  -1   1  -5    3.89    3.05
  -1   1  -5    9.33    3.27
   1  -1   6  397.28   25.68
  -1   1  -6  392.34   25.99
   1  -1   7  397.81   26.48
   1  -1   7  404.77   26.75
   1  -1   8   30.39    6.20
   1  -1   8   33.08    6.85
   1  -1   8   24.93   11.07
   1  -1   8   41.63    5.61
   1  -1   9    0.62    4.85
   1  -1   9    1.57    5.67
   1  -1   9   -4.84   10.72
   1  -1  10  104.98   13.57
   1  -1  10  124.26   10.84
   1  -1  10   81.03   10.69
   1  -1  11  125.53   12.17
   1  -1  12   92.49   10.56
   1  -1  14  211.03   13.69
   1  -1  15    5.28    2.43
  -1   0  15   80.40    6.04
  -1   0  14   57.06    5.22
  -1   0  14   52.33    5.25
  -1   0  13   44.95    4.88
  -1   0  13   37.57    4.98
  -1   0  12  285.24   18.38
  -1   0  12  287.88   18.70
  -1   0  11  112.41    8.18
  -1   0  11   68.99   10.89
  -1   0  10   11.92    3.42
  -1   0  10   19.51    6.63
   1   0 -10   13.85    6.11
  -1   0   9  196.82   19.90
  -1   0   9  182.72   12.39
   1   0  -9  143.23   16.26
  -1   0   9  236.13   16.33
   1   0  -8   53.84    8.30
  -1   0   8   80.13   11.69
  -1   0   8   87.01    8.72
  -1   0   8   70.97    7.86
   1   0  -8   65.20    9.23
   1   0  -7   74.97    8.81
  -1   0   7   76.60   10.79
   1   0  -7   63.37    8.93
  -1   0   7   76.61    7.76
   1   0  -6  586.60   39.43
  -1   0   6  679.72   41.63
   1   0  -6  537.89   39.70
   1   0  -6  575.09   39.80
  -1   0   6  582.05   38.02
  -1   0   6  730.43   38.76
  -1   0   5 1320.98   76.18
  -1   0   5 1421.26   79.13
   1   0  -5 1267.88   76.65
  -1   0   5 1249.86   77.32
   1   0  -5 1261.50   77.29
   1   0  -5 1206.06   77.46
   1   0  -5 1215.42   77.50
   1   0  -5 1211.07   77.58
  -1   0   4   36.86    4.54
   1   0  -4   39.38    4.36
  -1   0   4   22.07    5.74
   1   0  -4   39.16    5.19
   1   0  -4   32.75    5.09
   1   0  -4   31.75    4.70
   1   0  -4   33.63    3.76
   1   0  -4   34.12    4.87
  -1   0   4   34.35    4.63
  -1   0   4   31.78    4.47
  -1   0   3 3122.44  212.51
  -1   0   3 3576.98  211.77
   1   0  -3 3760.68  212.39
   1   0  -3 3550.86  211.93
   1   0  -3 3714.60  211.03
   1   0  -3 3696.08  211.17
   1   0  -3 3551.56  212.09
   1   0  -3 3627.66  212.01
  -1   0   3 3574.69  212.74
  -1   0   3 3452.90  211.21
  -1   0   3 3662.24  212.11
  -1   0   2 4423.04  282.78
  -1   0   2 4441.69  283.56
   1   0  -2 4925.12  282.35
  -1   0   2 4887.81  282.37
   1   0  -2 4818.62  282.20
   1   0  -2 5106.75  282.60
  -1   0   2 4775.66  282.38
   1   0  -2 4808.89  281.99
   1   0  -1  246.26   14.60
   1   0  -1  212.53   14.21
   1   0  -1  233.30   13.84
   1   0  -1  254.52   15.00
   1   0  -1  224.42   14.31
  -1   0   1  228.92   14.39
  -1   0   1  196.28   14.01
  -1   0   1  215.26   16.21
   1   0  -1  207.85   14.69
   1   0  -1  231.66   14.61
   1   0   0  923.63   56.35
  -1   0   0  883.27   56.15
   1   0   0  963.51   56.47
  -1   0   0  964.52   56.05
   1   0   0  917.60   55.68
  -1   0   0  952.81   55.57
   1   0   0  947.00   55.84
  -1   0   0  986.46   58.13
   1   0   0  985.79   56.88
   1   0   0  909.79   56.19
  -1   0  -1  985.68   61.56
  -1   0  -1 1049.15   59.43
   1   0   1 1018.04   60.80
   1   0   1 1026.01   59.76
   1   0   1  987.55   59.86
   1   0   1  983.82   59.05
   1   0   1  936.73   59.97
   1   0   2  130.65    8.87
  -1   0  -2  125.84   11.20
   1   0   2  102.69   10.79
   1   0   2  137.92   10.83
   1   0   2  163.57   11.81
  -1   0  -2  154.46    9.52
   1   0   3    5.82    2.65
   1   0   3    6.83    3.97
   1   0   3    2.05    4.23
   1   0   3    5.35    4.08
   1   0   3    1.91    5.56
  -1   0  -3    4.63    2.67
   1   0   4   28.35    3.95
  -1   0  -4   28.91    4.31
   1   0   4   32.59    3.99
   1   0   4   28.09    6.62
  -1   0  -4   35.46    4.80
   1   0   5    3.74    3.33
  -1   0  -5    4.98    3.56
   1   0   5   -1.47    4.11
   1   0   6    3.18    3.49
   1   0   6    1.95    4.45
   1   0   7  356.54   24.92
   1   0   7  401.00   25.41
   1   0   8  622.21   33.62
   1   0   8  710.22   34.12
   1   0   9   53.07    7.79
   1   0   9   63.14    8.38
   1   0   9   42.41    6.63
   1   0  10   32.96    7.27
   1   0  11    0.80    6.08
   1   0  12   74.04    7.28
  -1   0 -12   71.11    6.87
   1   0  13    2.42    4.50
  -1   0 -13    1.39    2.49
   1   0  14   55.59    4.84
   1   0  14   47.18    5.44
   1   0  15    8.14    2.16
  -1  -1  16   44.85    3.68
  -1  -1  15   35.85    3.81
  -1  -1  15   40.31    4.15
  -1  -1  14   73.82    6.11
  -1  -1  14   77.77    6.66
  -1  -1  13   18.86    3.65
  -1  -1  13   21.25    4.33
  -1  -1  12    0.13    3.66
  -1  -1  11  291.48   18.94
   1   1 -10   64.09   10.03
  -1  -1  10   74.27    9.67
  -1  -1   9  124.63   12.18
  -1  -1   9  148.71   11.95
   1   1  -9  133.67   13.40
   1   1  -8   40.30    7.20
   1   1  -8   64.36    8.99
   1   1  -8   62.63    8.25
   1   1  -8   64.17    8.53
  -1  -1   8   76.25    7.75
   1   1  -7  502.56   35.92
   1   1  -7  455.05   36.44
   1   1  -7  545.62   37.40
   1   1  -7  542.59   36.52
   1   1  -6  468.81   32.68
   1   1  -6  447.16   33.83
   1   1  -6  524.97   33.27
   1   1  -6  502.33   34.22
   1   1  -6  516.60   33.78
  -1  -1   5  248.55   16.19
   1   1  -5  253.96   17.53
   1   1  -5  243.35   16.80
   1   1  -5  244.56   17.78
   1   1  -5  241.32   16.54
   1   1  -4 2688.34  151.47
   1   1  -4 2349.78  151.44
  -1  -1   4 2778.36  152.35
  -1  -1   4 2613.27  150.98
   1   1  -4 2396.88  151.74
  -1  -1   3 3689.67  213.69
   1   1  -3 3736.55  213.26
  -1  -1   3 3722.78  213.16
  -1  -1   3 3471.87  211.96
  -1  -1   2 2567.44  165.24
  -1  -1   2 2908.77  165.14
  -1  -1   2 2799.52  164.14
   1   1  -2 2804.28  165.23
  -1  -1   2 2845.87  166.17
  -1  -1   2 2835.15  165.73
  -1  -1   1 2044.99  118.91
   1   1  -1 1963.86  117.83
  -1  -1   1 2006.62  119.02
   1   1  -1 1991.34  118.06
   1   1  -1 1995.54  118.21
  -1  -1   1 1962.02  117.70
  -1  -1   1 2102.74  119.59
   1   1   0  221.64   14.63
  -1  -1   0  209.57   14.50
   1   1   0  231.61   14.70
   1   1   0  229.48   14.77
  -1  -1   0  242.37   16.39
   1   1   0  231.63   14.85
   1   1   0  220.97   14.70
  -1  -1   0  232.09   16.06
  -1  -1  -1 2728.54  158.30
   1   1   1 2557.92  158.33
   1   1   1 2690.57  159.77
  -1  -1  -1 2994.80  159.74
   1   1   1 2572.13  158.31
   1   1   2   10.24    2.38
   1   1   2   16.20    5.82
   1   1   2   10.92    4.64
  -1  -1  -2   10.53    3.65
   1   1   3  832.73   61.48
  -1  -1  -3 1058.69   60.22
   1   1   3  872.31   59.16
   1   1   3 1150.83   60.29
   1   1   3 1019.72   59.17
   1   1   3 1048.57   61.94
  -1  -1  -4  660.78   39.23
   1   1   4  620.26   38.33
   1   1   4  580.85   38.82
   1   1   4  611.10   41.00
   1   1   4  643.37   38.29
   1   1   5   40.59    5.41
   1   1   5   44.46    5.29
  -1  -1  -5   38.12    5.77
   1   1   5   39.69    5.11
   1   1   6    3.44    3.57
   1   1   6    2.53    4.02
   1   1   7  222.97   16.59
   1   1   7  236.51   16.84
   1   1   8  329.15   13.73
   1   1   8  363.97   11.24
   1   1   9   37.98    6.47
   1   1   9   44.85    5.53
   1   1  10   18.56    5.73
   1   1  10   22.51    5.22
  -1  -1 -11  157.69   11.33
   1   1  11  161.54   11.20
  -1  -1 -12   95.86    8.50
   1   1  12  117.77    9.16
   1   1  13   23.10    3.63
  -1  -1 -13   22.15    3.56
   1   1  13   32.50    5.09
   1   1  14    6.98    2.39
   1   1  14    6.57    3.63
  -1  -2  16   99.99    6.93
  -1  -2  15    3.52    2.83
  -1  -2  14   -0.47    3.41
  -1  -2  13    1.32    2.21
  -1  -2  13   -1.65    3.77
  -1  -2  12   11.87    3.98
  -1  -2  12    7.69    2.76
  -1  -2  11   50.93    8.62
  -1  -2  11   46.92    4.56
   1   2 -11   38.77    8.19
  -1  -2  10   31.88    6.94
   1   2 -10   22.95    6.89
   1   2 -10   17.19    5.42
  -1  -2  10   28.55    3.33
   1   2  -9  163.43   14.75
   1   2  -9  125.82   13.08
   1   2  -9  172.21   15.49
   1   2  -9  152.59   14.02
  -1  -2   9  123.30   10.89
  -1  -2   9  132.13    9.12
  -1  -2   9  150.36   13.68
   1   2  -9   88.75   12.44
   1   2  -8  170.92   14.98
   1   2  -8  168.61   14.96
   1   2  -8  150.73   14.89
   1   2  -8  197.53   16.35
  -1  -2   8  190.93   15.16
   1   2  -7  190.91   14.88
   1   2  -7  195.45   15.22
   1   2  -7  174.33   14.10
   1   2  -7  191.24   15.78
   1   2  -6  451.02   29.17
  -1  -2   6  436.12   29.36
   1   2  -6  398.06   27.50
  -1  -2   6  425.80   28.32
   1   2  -5    7.53    2.88
  -1  -2   5   12.53    3.93
  -1  -2   5   14.35    4.30
   1   2  -5   10.60    3.52
   1   2  -5    9.77    2.99
  -1  -2   4 1011.16   59.37
   1   2  -4  870.39   57.88
  -1  -2   4 1072.97   58.10
  -1  -2   4  911.56   58.34
   1   2  -4  908.88   58.39
  -1  -2   3  459.96   30.08
  -1  -2   3  423.63   29.25
   1   2  -3  418.09   29.12
  -1  -2   3  475.31   29.20
  -1  -2   2    1.36    3.32
  -1  -2   2    5.22    4.90
   1   2  -2    2.41    1.96
  -1  -2   2    1.72    2.64
  -1  -2   2    2.65    3.22
  -1  -2   2    1.69    3.89
   1   2  -1   21.50    2.99
  -1  -2   1   26.09    5.48
   1   2  -1   23.30    3.14
   1   2  -1   23.19    3.33
  -1  -2   1   25.61    4.34
   1   2   0   77.85    6.28
   1   2   0   82.38    6.70
   1   2   0   79.38    6.53
  -1  -2   0   75.79    9.29
  -1  -2   0   72.31    7.63
  -1  -2   0   80.10    6.87
  -1  -2  -1    5.33    4.60
   1   2   1    6.77    6.25
  -1  -2  -1    6.59    3.65
   1   2   1    3.23    3.59
  -1  -2  -1    2.19    6.00
   1   2   1    4.66    2.66
  -1  -2  -2    2.35    4.41
   1   2   2    1.84    6.20
  -1  -2  -2    2.70    3.73
   1   2   2    4.25    2.80
   1   2   2    0.72    4.58
  -1  -2  -3  880.84   51.63
   1   2   3  791.03   51.39
  -1  -2  -4   -0.44    3.85
   1   2   4    4.96    3.45
   1   2   5  668.01   42.62
   1   2   5  670.86   41.61
   1   2   6   15.52    4.41
   1   2   6   14.86    4.60
   1   2   7  291.69   17.86
   1   2   7  222.89   18.55
   1   2   8   10.91    4.66
  -1  -2  -8   10.65    3.05
   1   2   8   11.87    4.29
   1   2   9   51.93    6.56
  -1  -2  -9   43.33    5.37
  -1  -2 -10   27.04    4.32
   1   2  10   20.27    5.46
   1   2  11   43.23    6.19
  -1  -2 -11   27.20    4.45
   1   2  11   32.02    5.89
   1   2  12   -1.20    4.20
  -1  -2 -12   -0.52    2.59
   1   2  12   -2.00    4.74
  -1  -2 -13   95.59    8.09
   1   2  13  134.51    8.77
   1   2  14   -0.41    2.90
  -1  -3  16    4.64    2.12
  -1  -3  15   18.33    3.48
  -1  -3  15   19.81    2.91
  -1  -3  14   24.65    3.43
  -1  -3  14   27.10    4.37
  -1  -3  13   38.31    5.16
  -1  -3  13   36.25    4.21
  -1  -3  12   -0.39    2.35
   1   3 -11   13.49    6.01
  -1  -3  11   21.00    6.42
  -1  -3  11   29.23    3.64
   1   3 -10    3.50    4.65
   1   3 -10    2.05    3.42
   1   3 -10    4.91    5.73
  -1  -3  10    4.93    4.84
  -1  -3  10    2.91    2.19
  -1  -3  10    0.88    5.68
  -1  -3   9   59.18    4.65
   1   3  -9   32.91    7.00
  -1  -3   9   54.42    8.20
   1   3  -9   44.90    7.53
   1   3  -9   59.61    9.17
  -1  -3   9   23.98    8.04
   1   3  -9   55.03    8.65
  -1  -3   9   49.73    7.12
   1   3  -8  103.72   11.36
  -1  -3   8  123.07   11.52
   1   3  -8  129.64   12.59
   1   3  -8  102.71   11.19
  -1  -3   8  109.57    9.39
   1   3  -8  120.15   11.03
  -1  -3   8  103.41    7.61
  -1  -3   7    2.75    3.71
  -1  -3   7    4.56    4.10
   1   3  -7    2.47    3.50
  -1  -3   6    1.61    3.54
   1   3  -6    7.61    3.28
  -1  -3   6   -0.30    3.62
  -1  -3   5  267.65   18.31
   1   3  -5  210.24   16.30
   1   3  -5  225.90   17.05
   1   3  -5  219.88   17.20
  -1  -3   5  247.22   17.18
   1   3  -4   13.89    3.20
   1   3  -4    9.78    3.53
  -1  -3   4   21.36    5.72
  -1  -3   4   15.31    4.56
  -1  -3   4   15.20    4.18
  -1  -3   3   68.38    8.13
  -1  -3   3   56.97    7.15
  -1  -3   3   60.94    6.31
  -1  -3   3   77.62    7.39
  -1  -3   2  169.14   12.80
   1   3  -2  179.17   12.03
   1   3  -2  170.29   12.23
  -1  -3   2  189.44   14.51
  -1  -3   2  138.45   11.74
  -1  -3   2  218.16   13.55
  -1  -3   1  497.65   27.68
   1   3  -1  416.01   26.66
   1   3  -1  431.35   27.01
   1   3  -1  416.74   26.68
  -1  -3   1  435.39   27.74
   1   3   0  332.03   25.12
   1   3   0  358.20   27.13
  -1  -3   0  382.53   25.45
  -1  -3   0  405.24   27.83
   1   3   0  359.13   24.06
  -1  -3   0  411.25   24.77
  -1  -3  -1  141.04    9.75
  -1  -3  -1  128.94   12.69
   1   3   1  130.46    8.87
   1   3   2 1039.11   79.92
   1   3   2 1295.12   77.37
  -1  -3  -3    9.00    7.98
   1   3   3    5.68    3.60
   1   3   4   89.19    8.68
  -1  -3  -4   66.92   12.67
  -1  -3  -5    0.44    4.49
  -1  -3  -5   -3.10    8.07
   1   3   5    0.71    4.12
  -1  -3  -6  154.59   11.34
   1   3   6  176.11   11.79
  -1  -3  -7    1.09    2.60
  -1  -3  -7   -7.80    8.60
   1   3   7    2.60    4.04
  -1  -3  -8    2.74    2.96
   1   3   8    0.62    4.28
  -1  -3  -8   -3.21    8.29
   1   3   9    5.81    4.90
  -1  -3  -9    0.82    2.95
   1   3  10    9.08    5.26
  -1  -3 -10   12.27    3.67
   1   3  10   14.15    4.89
  -1  -3 -11   48.72    5.53
   1   3  11   49.99    6.84
   1   3  11   60.11    6.40
   1   3  12    7.10    4.16
   1   3  12    6.22    4.21
   1   3  13    2.03    2.92
   1   3  13   -2.48    3.26
  -1  -4  16   20.19    2.53
  -1  -4  16   17.98    2.56
  -1  -4  15   28.12    3.83
  -1  -4  15   35.43    3.63
  -1  -4  14   27.77    3.66
  -1  -4  14   24.46    4.05
  -1  -4  13  108.86    8.69
  -1  -4  13  116.89    8.52
  -1  -4  12  291.99   18.90
   1   4 -11   12.94    6.25
  -1  -4  11    6.51    5.29
  -1  -4  11   17.18    6.33
  -1  -4  11   14.59    3.00
   1   4 -10    3.89    5.76
  -1  -4  10   -3.92    7.76
  -1  -4  10    4.02    5.97
   1   4 -10   -2.88    4.70
  -1  -4  10    0.59    4.38
  -1  -4  10    3.36    2.41
  -1  -4   9  138.38    9.54
   1   4  -9   73.46    9.96
   1   4  -9   66.48    9.87
   1   4  -9  101.38   12.33
  -1  -4   9  108.72    9.20
  -1  -4   9   94.31   11.12
   1   4  -9   79.90   11.04
  -1  -4   9  110.03    7.09
   1   4  -8   13.88    4.87
   1   4  -8    6.82    5.32
   1   4  -8   17.13    5.53
  -1  -4   8   10.77    5.59
  -1  -4   8    7.99    4.59
  -1  -4   8   14.65    5.12
  -1  -4   8   12.60    2.55
  -1  -4   7   23.80    6.18
  -1  -4   7   24.95    5.71
  -1  -4   6   42.62    6.99
   1   4  -6   27.82    5.91
   1   4  -6   33.86    5.56
  -1  -4   6   37.80    6.17
  -1  -4   5  248.01   18.04
   1   4  -5  186.22   16.84
   1   4  -5  205.73   16.22
  -1  -4   5  237.90   16.88
  -1  -4   4  555.70   35.62
   1   4  -4  466.89   33.75
  -1  -4   4  507.49   34.10
  -1  -4   3   16.00    6.24
   1   4  -3    7.36    6.44
   1   4  -3    7.69    3.77
  -1  -4   3    8.70    2.82
   1   4  -2  543.12   36.00
  -1  -4   2  565.93   35.39
   1   4  -2  569.87   32.77
  -1  -4   2  523.38   33.35
  -1  -4   1  133.01   11.14
  -1  -4   1   99.61    9.33
   1   4  -1  121.00   13.82
   1   4  -1  138.63   10.22
   1   4  -1  127.71    9.71
   1   4   0   49.07   10.25
  -1  -4   0   60.86    7.94
   1   4   0   61.73    6.29
  -1  -4   0   48.63    5.52
   1   4   1    1.27    2.92
  -1  -4  -1    4.32    7.02
  -1  -4  -1    0.36    4.68
  -1  -4  -2  339.08   23.85
  -1  -4  -2  329.05   27.06
   1   4   2  297.43   22.01
  -1  -4  -3  179.80   15.12
  -1  -4  -3  168.03   18.14
   1   4   3  148.10   13.25
   1   4   4   -1.26    4.52
  -1  -4  -4    0.95    4.97
  -1  -4  -4    0.84    1.35
  -1  -4  -4    0.81    8.69
  -1  -4  -4    1.39    2.34
  -1  -4  -5  223.67   14.10
  -1  -4  -5  193.15   12.56
  -1  -4  -5  173.86   13.33
  -1  -4  -5  182.39   21.72
   1   4   5  237.57   14.30
  -1  -4  -5  202.42   18.06
  -1  -4  -6   58.31   14.24
   1   4   6   82.50   16.74
  -1  -4  -6  117.89    8.30
   1   4   6  119.20    8.73
  -1  -4  -6   81.07    6.37
  -1  -4  -7   97.41    8.41
   1   4   7  105.35    9.21
  -1  -4  -8   48.35    5.78
   1   4   8   58.76    7.14
  -1  -4  -9   21.73    4.21
   1   4   9   29.04    5.96
   1   4  10  123.52   11.35
   1   4  10  140.72   10.14
   1   4  11   12.24    4.68
   1   4  11   13.92    4.19
   1   4  11    6.52    3.80
   1   4  12   65.42    6.52
   1   4  12   72.52    6.01
  -1  -5  16    4.27    1.81
  -1  -5  15   -1.36    2.42
  -1  -5  15    1.92    2.13
  -1  -5  14   64.58    5.82
  -1  -5  14   71.88    5.87
  -1  -5  13   33.56    4.07
  -1  -5  13   28.12    4.18
  -1  -5  12   27.72    6.46
  -1  -5  12   26.08    3.68
   1   5 -11   16.05    6.69
  -1  -5  11   23.65    6.39
  -1  -5  11   22.60    3.41
  -1  -5  10   53.41    9.18
  -1  -5  10   77.62    8.27
   1   5 -10   42.47    8.86
   1   5 -10   52.05    9.37
  -1  -5  10   72.36    5.52
  -1  -5   9   15.65    5.80
   1   5  -9    2.12    5.39
   1   5  -9    6.20    4.58
   1   5  -9    5.53    4.97
  -1  -5   9    4.79    5.83
  -1  -5   9    8.46    5.04
  -1  -5   9    6.39    2.56
  -1  -5   9    6.85    6.65
  -1  -5   8   10.85    6.13
   1   5  -8    2.30    4.43
  -1  -5   8    3.57    5.50
  -1  -5   8    3.50    4.50
  -1  -5   8    7.44    5.22
  -1  -5   8    3.91    2.33
  -1  -5   7   17.84    6.12
  -1  -5   7    4.07    6.06
   1   5  -7   20.56    6.18
  -1  -5   7   22.96    5.47
  -1  -5   7   15.40    2.77
   1   5  -6   12.99    7.90
   1   5  -6   12.69    5.50
   1   5  -6   17.25    5.23
  -1  -5   6   26.60    5.37
   1   5  -5   70.71   11.52
   1   5  -5  105.49   10.21
   1   5  -5   77.46   10.38
   1   5  -4  269.20   18.09
  -1  -5   4  303.07   22.91
   1   5  -4  210.70   19.24
   1   5  -4  227.06   18.32
  -1  -5   3  891.65   63.83
   1   5  -3 1114.73   64.74
   1   5  -3 1018.64   64.84
  -1  -5   2   52.95    9.40
   1   5  -2   41.56   10.06
   1   5  -2   45.55    5.50
   1   5  -2   32.32    5.74
  -1  -5   2   39.68    5.31
  -1  -5   1   61.57   10.19
   1   5  -1   52.67    6.89
  -1  -5   1   52.41    5.97
  -1  -5   1   58.94    7.95
  -1  -5   0   18.04    5.77
   1   5   0   21.10    4.56
  -1  -5   0   12.79    3.62
  -1  -5  -1    1.33    5.15
   1   5   1    1.02    3.51
  -1  -5  -2   11.52    5.64
  -1  -5  -2    9.64    2.63
   1   5   2   14.83    5.94
  -1  -5  -3  233.50   14.34
  -1  -5  -3  273.59   20.49
  -1  -5  -3  249.03   24.45
  -1  -5  -3  210.68   15.19
  -1  -5  -4    8.47    5.89
  -1  -5  -4    1.06    1.49
  -1  -5  -4    4.22    2.79
  -1  -5  -4    4.85    9.25
  -1  -5  -5   35.12    7.99
   1   5   5   26.28   13.00
  -1  -5  -5   31.40    4.30
  -1  -5  -5   32.16   11.10
  -1  -5  -5   28.58    3.06
   1   5   6   -4.86   12.31
  -1  -5  -6    0.64    2.77
  -1  -5  -6   -1.10    7.79
   1   5   6    3.46    4.13
   1   5   7   23.94    5.37
   1   5   8    8.44    4.88
   1   5   9   14.28    5.08
   1   5  10   26.46    5.12
   1   5  10   36.09    5.58
   1   5  11   22.77    4.27
   1   5  11   36.00    4.73
   1   5  12   -3.52    2.61
  -1  -6  15    8.24    2.25
  -1  -6  14   12.93    7.24
  -1  -6  14   32.69    3.74
  -1  -6  13    3.12    2.60
  -1  -6  13    1.26    7.51
  -1  -6  12   20.80    6.32
  -1  -6  12   34.19    4.18
   1   6 -11   37.54    9.17
  -1  -6  11  115.72    9.44
  -1  -6  11   -1.11    8.92
  -1  -6  11  106.69    7.05
  -1  -6  11   89.78    9.49
  -1  -6  10   -7.19    7.74
   1   6 -10   -1.82    5.26
  -1  -6  10    3.96    5.70
  -1  -6  10    0.98    2.62
  -1  -6  10    6.08    6.64
   1   6  -9    8.15    5.90
  -1  -6   9    6.30    6.78
  -1  -6   9    3.04    5.94
  -1  -6   9    6.95    5.82
   1   6  -9    1.14    4.07
  -1  -6   9   -1.20    2.51
  -1  -6   8  164.11   10.91
  -1  -6   8  168.35   13.00
  -1  -6   7    2.10    6.24
   1   6  -7    0.68    4.53
  -1  -6   7   -2.84    6.27
  -1  -6   7    5.33    5.29
  -1  -6   7   -0.48    2.41
  -1  -6   6   34.64    6.72
   1   6  -6   12.59    7.26
   1   6  -6   22.36    9.76
  -1  -6   6    3.09    6.18
   1   6  -6   14.70    6.02
  -1  -6   6   39.40    6.20
   1   6  -5  136.69   17.96
  -1  -6   5  228.93   21.95
   1   6  -5  149.13   17.77
   1   6  -5  156.15   16.53
   1   6  -5  204.03   19.05
  -1  -6   5  264.04   15.71
  -1  -6   5  245.76   15.13
  -1  -6   4  379.50   28.22
   1   6  -4  235.35   23.19
   1   6  -4  262.12   22.28
  -1  -6   4  341.94   20.64
  -1  -6   3   35.49   10.15
   1   6  -3   25.30    6.75
   1   6  -3   26.29    5.86
  -1  -6   3   45.61    7.41
  -1  -6   2  343.40   26.28
   1   6  -2  256.63   21.20
  -1  -6   2  344.27   20.00
  -1  -6   2  239.11   20.37
  -1  -6   1   64.91   11.47
  -1  -6   1   51.27    7.93
  -1  -6   0  144.04   17.06
  -1  -6   0  172.54   12.53
  -1  -6   0  144.39   10.67
  -1  -6  -1  622.03   39.03
  -1  -6  -1  641.28   38.04
  -1  -6  -2   -1.77    5.88
  -1  -6  -2    1.59    1.45
  -1  -6  -2    0.74    2.82
  -1  -6  -3   79.90    6.89
  -1  -6  -3   72.79    5.54
   1   6   3   87.27   16.09
  -1  -6  -3   89.53   11.64
  -1  -6  -4   35.90    3.45
  -1  -6  -4   35.83    4.71
   1   6   5  -14.01   11.91
  -1  -6  -5   -1.49    3.08
  -1  -6  -6  206.01   14.33
   1   6   7   16.89    4.83
   1   6   8    6.67    4.72
   1   6   8    4.62    4.30
   1   6   9    6.22    4.29
   1   6   9    7.32    4.00
   1   6  10    3.81    3.19
   1   6  10    0.29    3.22
   1   6  11   -0.32    2.03
   1   6  11    0.51    2.34
  -1  -7  15    4.80    2.02
  -1  -7  14   -2.90    6.38
  -1  -7  14   13.26    2.65
  -1  -7  13    5.64    7.00
  -1  -7  13    1.07    2.45
  -1  -7  12   56.27    5.21
  -1  -7  12   47.43    7.24
  -1  -7  12   47.71    7.70
  -1  -7  11   17.08    5.91
  -1  -7  11   18.69    3.37
  -1  -7  11   13.58    8.19
  -1  -7  11   14.20    6.75
   1   7 -10   38.30    9.69
  -1  -7  10  151.27   10.30
  -1  -7  10  145.57    8.15
  -1  -7  10  134.04   10.76
  -1  -7   9    3.39    2.70
  -1  -7   9    2.17    5.84
  -1  -7   9   12.54    6.66
  -1  -7   8  106.45    9.78
  -1  -7   8   84.93    9.99
  -1  -7   7   59.32    7.99
  -1  -7   7   75.17    7.54
   1   7  -6  133.08   18.09
  -1  -7   6  233.81   14.65
   1   7  -6  101.53   17.32
  -1  -7   6  217.88   14.75
   1   7  -5   86.68   16.61
   1   7  -5   56.76   12.75
  -1  -7   5  118.88   10.85
   1   7  -5   81.69   12.90
  -1  -7   5  102.45    9.52
  -1  -7   4   20.49    6.34
  -1  -7   4   16.18    6.97
   1   7  -4    9.37    7.44
   1   7  -4   15.17    9.78
  -1  -7   4    6.46    8.77
  -1  -7   4   14.39    7.73
  -1  -7   3   91.80   15.06
  -1  -7   3   98.22    9.54
   1   7  -3   42.56   12.01
   1   7  -3   53.49   10.04
  -1  -7   3   92.89    9.87
  -1  -7   2   -6.10    8.58
  -1  -7   2    6.31    7.33
  -1  -7   1   20.85    3.31
  -1  -7   1   27.04    7.90
  -1  -7   1   20.75    9.16
  -1  -7   0    0.83    7.38
  -1  -7   0    0.85    7.25
  -1  -7   0    1.23    2.60
  -1  -7  -1   25.46    2.73
  -1  -7  -1   29.66    4.29
  -1  -7  -1   27.34    9.80
  -1  -7  -2  781.99   46.74
  -1  -7  -2  744.95   45.48
  -1  -7  -2  629.95   53.91
   1   7   3   90.38   17.31
  -1  -7  -3   95.67    8.12
  -1  -7  -4    1.87    3.14
   1   7   5   -0.72    3.95
  -1  -7  -5    1.80    2.62
  -1  -7  -6   24.56    3.66
   1   7   6   18.48    5.25
   1   7   7    1.52    4.18
   1   7   8   14.28    4.21
   1   7   9    0.45    2.98
  -1  -8  14    4.25    5.71
  -1  -8  13   -0.62    9.93
  -1  -8  13  265.22   10.01
  -1  -8  12   88.41    7.41
  -1  -8  12   71.60    7.79
  -1  -8  11   41.09    6.39
  -1  -8  11   29.15    7.11
  -1  -8  10    3.78    5.34
  -1  -8  10   -4.90    7.52
  -1  -8  10   -3.62    6.45
  -1  -8   9    4.88    5.43
  -1  -8   9    0.51    6.93
  -1  -8   9    7.12    6.50
  -1  -8   8   17.96    6.93
  -1  -8   7    4.60    6.46
  -1  -8   6   19.19    6.79
  -1  -8   6   24.07    7.62
   1   8  -6    4.10    7.69
  -1  -8   5    3.49    6.24
  -1  -8   5    0.59    6.88
   1   8  -5   -0.79   13.84
  -1  -8   5   12.36    8.03
   1   8  -5    3.19    7.16
   1   8  -4   11.80   13.47
  -1  -8   4   18.96    6.51
   1   8  -4   27.23    9.21
  -1  -8   4   22.27    7.53
  -1  -8   4   22.22    9.74
  -1  -8   4   10.98    8.03
   1   8  -3  129.90   20.39
  -1  -8   3  171.51   13.87
  -1  -8   3  151.70   20.36
  -1  -8   3  133.42   13.84
   1   8  -3  148.98   17.94
  -1  -8   3  202.41   13.19
  -1  -8   2   13.16    9.02
  -1  -8   2  -10.52    7.47
  -1  -8   2    3.58    6.87
   1   8  -2   -1.49    7.21
  -1  -8   1  272.74   28.16
  -1  -8   1  294.13   20.59
  -1  -8   1  289.26   19.03
  -1  -8   0   12.01    3.21
  -1  -8   0   23.81    7.60
  -1  -8  -1  760.68   46.75
  -1  -8  -2   12.36    3.34
  -1  -8  -3  274.96   18.30
  -1  -8  -4   30.81    4.21
  -1  -8  -5  196.01   12.71
   1   8   5  165.03   13.45
  -1  -8  -6    4.23    2.10
   1   8   6    7.25    3.84
   1   8   7    2.76    3.19
   1   8   8    2.40    2.62
  -1  -9  12    0.20    6.11
  -1  -9  12   15.10    4.44
  -1  -9  12    9.72    5.05
  -1  -9  11    2.51    4.64
  -1  -9  11   -5.90    5.65
  -1  -9  10   -3.20    6.64
  -1  -9  10   -0.49    4.85
  -1  -9  10   -0.72    5.92
  -1  -9   9   -0.92    6.93
  -1  -9   9    3.18    5.09
  -1  -9   9   -0.75    6.07
  -1  -9   8   18.28    6.65
  -1  -9   7   67.23    8.34
  -1  -9   6    2.20    6.13
  -1  -9   6    8.87    7.09
  -1  -9   5    3.01    5.96
   1   9  -5   -5.15   13.73
  -1  -9   5    4.25    6.75
  -1  -9   5   10.47    7.02
  -1  -9   4   49.54    7.25
  -1  -9   4   37.94    7.93
   1   9  -4   38.28   15.63
  -1  -9   4   40.36    8.05
   1   9  -3  358.39   35.64
  -1  -9   3  405.30   27.74
  -1  -9   3  455.14   28.08
   1   9  -2   -0.83   12.94
  -1  -9   2    0.61    6.64
  -1  -9   2    7.81    6.97
   1   9  -1   78.66   17.32
  -1  -9   1   91.72    7.47
  -1  -9   1   95.54   10.08
  -1  -9   1   91.47    9.76
  -1  -9   0   58.88    5.69
  -1  -9   0   67.10    8.46
  -1  -9   0   53.45    7.97
  -1  -9  -1    3.16    6.10
  -1  -9  -1    1.26    2.64
  -1  -9  -2   97.78    7.83
  -1  -9  -2   97.75    9.66
  -1  -9  -3    0.57    2.39
  -1  -9  -3    3.42    5.49
  -1  -9  -4   10.11    2.59
  -1  -9  -5   12.51    2.34
  -1  -9  -6   26.59    2.73
  -1 -10  12    3.59    3.24
  -1 -10  11   17.76    4.11
  -1 -10  11   15.62    4.78
  -1 -10  10    1.53    4.07
  -1 -10  10   -0.43    5.11
  -1 -10   9    7.40    4.53
  -1 -10   9    6.13    5.20
  -1 -10   8  202.94   13.75
  -1 -10   8  172.91   13.87
  -1 -10   7   29.31    6.36
  -1 -10   6   11.29    5.57
  -1 -10   6    3.96    6.30
  -1 -10   5   19.78    5.96
  -1 -10   5   10.64    6.57
  -1 -10   4   66.72    8.35
  -1 -10   4   64.87    8.31
  -1 -10   3   -0.19    6.11
  -1 -10   3    1.50    6.35
  -1 -10   2    9.45    6.12
  -1 -10   2    8.21    6.43
  -1 -10   1    7.86    5.76
  -1 -10   1   13.10    2.69
  -1 -10   1    5.02    6.02
  -1 -10   0   51.04    7.57
  -1 -10   0   63.29    5.44
  -1 -10  -1    4.19    5.21
  -1 -10  -1    7.58    2.42
  -1 -10  -2   -0.79    4.84
  -1 -10  -2    0.46    1.91
  -1 -10  -3    8.93    2.10
  -1 -10  -4   24.19    2.62
  -1 -11  10    6.33    3.18
  -1 -11  10    2.38    3.69
  -1 -11   9   14.31    3.74
  -1 -11   9    5.19    4.10
  -1 -11   8   14.32    4.02
  -1 -11   8    6.31    4.44
  -1 -11   7  119.90    8.63
  -1 -11   7   95.36    8.67
  -1 -11   0    9.92    1.83
  -1 -11  -1   10.22    1.72
  -1 -11  -2   51.56    3.92
  -2  13  -3    1.50    2.98
  -2  13  -4   19.03    3.61
  -2  12   2   75.63    6.34
  -2  12   1   40.07    4.72
   2 -12  -1   37.83    4.31
  -2  12   0    1.65    3.05
   2 -12   0   -1.01    2.94
   2 -12   1    1.01    3.27
   2 -12   2   10.58    3.62
   2 -12   3   12.89    3.74
   2 -12   4    6.87    3.07
   2 -12   4    8.18    3.49
   2 -12   5   54.10    5.76
   2 -12   5   60.74    5.74
   2 -12   6   99.62    7.85
   2 -12   7   13.90    3.39
   2 -12   8    1.25    5.29
   2 -12   8    2.04    2.83
   2 -12   9   -0.85    4.94
   2 -12   9   -1.05    2.68
   2 -12  10    0.96    4.49
  -2  11   5   -0.30    2.45
  -2  11   4    0.13    3.01
  -2  11   3   13.34    3.90
  -2  11   2    2.72    3.81
  -2  11   1   25.29    5.08
  -2  11   0    1.64    3.98
  -2  11  -1   20.85    4.90
   2 -11   2    1.93    4.13
   2 -11   3   38.80    5.59
   2 -11   4   47.00    5.79
   2 -11   4   49.36    5.99
   2 -11   5   70.01    7.30
   2 -11   5   84.97    7.48
   2 -11   6   38.06    5.42
   2 -11   6   44.63    5.59
   2 -11   7    4.90    3.55
   2 -11   7    3.12    3.93
   2 -11   8   15.84    4.08
   2 -11   9    8.26    3.59
   2 -11  10   -3.54    5.62
   2 -11  10    2.54    3.18
  -2  11 -11   15.64    7.73
   2 -11  11    2.64    5.16
   2 -10  -7    1.61    1.61
   2 -10  -6   81.50    6.46
   2 -10  -5   33.09    4.18
  -2  10   5   25.62    4.78
  -2  10   4    4.65    4.05
   2 -10  -4    4.53    3.24
  -2  10   3   49.17    6.96
   2 -10  -3   66.78    6.53
  -2  10   2    6.05    4.74
   2 -10  -2    6.21    2.07
   2 -10  -2    4.40    3.77
   2 -10  -1    1.37    1.91
  -2  10   1    6.54    4.79
   2 -10  -1    3.98    3.88
  -2  10   0   50.60    7.37
   2 -10   0   62.19    5.43
   2 -10   0   63.86    6.84
  -2  10  -1  118.34   11.07
   2 -10   1  135.75    9.56
   2 -10   2   22.46    3.32
   2 -10   3    6.92    4.00
   2 -10   4    5.80    3.70
   2 -10   4    5.87    4.57
   2 -10   5    4.53    3.90
   2 -10   5    5.52    4.80
   2 -10   6    4.11    3.95
   2 -10   6    1.20    4.64
   2 -10   7   47.00    6.18
   2 -10   7   39.59    6.16
   2 -10   8   40.73    5.76
   2 -10   9   13.78    4.59
   2 -10  10    5.51    6.49
   2 -10  10    5.04    3.92
   2 -10  11    0.76    5.96
   2 -10  11   -2.34    8.75
  -2  10 -12   12.35    8.18
   2 -10  12   -6.06    7.88
   2  -9  -8    0.11    2.12
   2  -9  -7    3.02    2.68
   2  -9  -6   11.09    3.56
   2  -9  -5    6.08    3.78
  -2   9   5    5.96    4.39
  -2   9   4   39.62    6.48
   2  -9  -4   40.90    6.00
  -2   9   3    6.41    4.84
   2  -9  -3    4.67    4.13
   2  -9  -2   57.30    6.57
   2  -9  -2   57.80    4.98
   2  -9  -1   22.20    4.93
   2  -9  -1   19.52    3.01
  -2   9   0  156.86   14.10
   2  -9   0  185.69   12.51
   2  -9   0  197.22   14.05
   2  -9   1  272.66   17.24
   2  -9   1  295.04   18.67
  -2   9  -2   88.00   13.15
  -2   9  -2  121.18   11.45
  -2   9  -3    9.86    5.35
   2  -9   3    5.37    3.97
   2  -9   3    7.64    2.51
   2  -9   4  255.73   19.40
   2  -9   4  310.16   19.39
   2  -9   5   27.91    5.28
   2  -9   5   31.56    5.81
   2  -9   6  136.68   11.34
   2  -9   6  135.76   11.01
  -2   9  -6  113.02   20.48
   2  -9   7   41.46    6.02
   2  -9   7   38.59    6.06
  -2   9  -7   34.54   14.59
   2  -9   8   58.21    7.07
   2  -9   9   22.01    5.02
   2  -9  10   54.75    6.41
   2  -9  11   -5.26    6.83
   2  -9  11    3.93    9.86
   2  -9  11    5.19    4.03
  -2   9 -12   20.94    9.78
   2  -9  12    2.88    8.97
  -2   9 -13    2.67    4.20
   2  -9  13   -1.14    7.58
   2  -8 -10    3.52    1.81
   2  -8  -9    0.51    2.31
   2  -8  -8   -0.49    2.78
   2  -8  -7    4.80    3.53
  -2   8   6   35.33    6.37
   2  -8  -6   29.79    5.28
  -2   8   5    6.14    4.56
   2  -8  -5    9.92    4.31
  -2   8   5   14.39    5.24
  -2   8   4  211.02   15.03
  -2   8   4  163.03   14.50
   2  -8  -4  209.66   14.78
  -2   8   3    4.12    4.29
  -2   8   3    7.42    4.92
   2  -8  -3    5.07    4.23
   2  -8  -2   32.00    5.34
  -2   8   2   28.67    6.28
   2  -8  -1   69.80    5.84
  -2   8   1   67.93    8.18
   2  -8  -1   79.97    7.65
  -2   8   0   23.85    5.80
   2  -8   0   28.05    4.94
   2  -8   0   24.62    3.24
  -2   8   0   28.19    9.02
   2  -8   0   26.08    4.79
  -2   8  -1  135.84   11.72
  -2   8  -1  147.31   17.23
   2  -8   1  152.99   12.34
   2  -8   1  141.43    9.80
   2  -8   1  149.32   11.25
  -2   8  -2   22.90    6.99
  -2   8  -2   24.58    5.53
   2  -8   2   28.84    5.33
  -2   8  -2   29.23    9.05
   2  -8   2   33.99    5.12
   2  -8   2   32.46    3.63
  -2   8  -3   42.02    7.93
   2  -8   3   35.76    5.40
   2  -8   3   53.23    6.61
   2  -8   3   43.97    4.28
  -2   8  -3   35.47    9.83
  -2   8  -4   20.02    6.38
   2  -8   4   19.17    4.55
   2  -8   4   26.13    4.85
   2  -8   4   23.95    5.41
   2  -8   5  162.20   11.78
   2  -8   5  158.10   11.47
  -2   8  -6   14.64    5.65
  -2   8  -6   23.83   14.54
   2  -8   6   12.81    4.57
   2  -8   6   13.88    5.17
   2  -8   7    6.82    4.29
  -2   8  -7   19.01   14.55
   2  -8   7    9.98    4.99
   2  -8   8   99.65    9.06
   2  -8   9   50.53    6.58
   2  -8  10    5.90    7.36
   2  -8  10    0.36    4.40
   2  -8  11   -1.25   10.33
  -2   8 -12    5.88   10.29
   2  -8  12    3.33    9.57
   2  -8  13   -1.38    8.81
  -2   8 -14    6.09    4.02
   2  -7 -11    5.36    1.95
   2  -7 -10    1.66    2.45
   2  -7  -9   38.11    4.89
   2  -7  -8   27.32    6.06
   2  -7  -8   22.52    4.61
  -2   7   8   24.28    5.16
   2  -7  -7   88.41    8.48
  -2   7   7   95.58    9.14
   2  -7  -7   92.00    9.83
   2  -7  -6   -0.46    3.87
  -2   7   6    2.93    4.63
   2  -7  -6   -0.30    5.21
  -2   7   5  456.94   33.85
   2  -7  -5  584.30   35.49
   2  -7  -5  541.34   34.07
  -2   7   5  559.90   34.33
  -2   7   4   39.18    6.64
   2  -7  -4   48.09    6.17
  -2   7   4   43.30    6.32
   2  -7  -4   63.70    8.05
  -2   7   3   45.42    6.87
   2  -7  -3   51.72    6.17
  -2   7   3   56.71    6.78
   2  -7  -2    8.92    3.75
  -2   7   2   11.98    4.43
  -2   7   2    1.75    4.36
   2  -7  -1  491.25   30.91
  -2   7   1  477.28   30.28
   2  -7  -1  439.45   28.56
   2  -7  -1  455.39   29.72
   2  -7   0    0.71    1.47
   2  -7   0    1.76    2.88
  -2   7   0   -0.83    4.33
  -2   7   0    0.70    5.99
   2  -7   0    0.19    3.03
   2  -7   1   10.47    3.42
   2  -7   1    5.54    2.47
  -2   7  -1    8.25    6.02
   2  -7   1    4.11    3.20
   2  -7   1    5.82    1.85
  -2   7  -1    3.64    4.42
  -2   7  -2  362.18   31.66
  -2   7  -2  420.67   29.60
   2  -7   2  566.68   31.42
   2  -7   2  453.54   29.15
  -2   7  -2  515.43   35.89
   2  -7   2  459.02   28.50
   2  -7   2  494.73   29.55
   2  -7   3   24.51    4.32
   2  -7   3   15.01    3.89
   2  -7   3   14.06    2.44
  -2   7  -3   11.54    5.54
  -2   7  -4    8.22    5.28
   2  -7   4   -1.75    3.46
   2  -7   4    1.81    2.88
   2  -7   5  344.27   23.11
   2  -7   5  350.46   22.58
  -2   7  -5  303.76   25.69
   2  -7   6   12.54    4.29
  -2   7  -6   28.66   15.39
  -2   7  -6   17.50    8.84
   2  -7   6   18.33    4.98
   2  -7   7  147.56   11.99
  -2   7  -7  154.11   19.73
  -2   7  -7  126.27   21.27
   2  -7   7  149.86   11.71
  -2   7  -8   66.54   13.27
   2  -7   8   56.62    6.59
  -2   7  -8   37.35    7.38
   2  -7   9   75.61    7.90
   2  -7  10    6.08   11.52
   2  -7  10    6.96    4.57
   2  -7  12   -4.25   10.63
   2  -7  13   -6.24    9.37
  -2   7 -14   -5.56    4.41
   2  -6 -12   11.96    2.25
   2  -6 -11   -0.70    2.39
   2  -6 -11    2.05    3.39
  -2   6  11    1.56    1.56
   2  -6 -10   64.47    7.69
   2  -6 -10   70.00    6.65
   2  -6  -9   12.64    4.08
  -2   6   9    5.76    4.02
   2  -6  -9    8.82    5.16
   2  -6  -8  233.92   17.77
   2  -6  -8  231.30   16.49
  -2   6   8  221.18   16.48
   2  -6  -7   65.15    8.26
   2  -6  -7   52.94    6.50
  -2   6   7   53.97    6.95
  -2   6   6   33.49    8.52
   2  -6  -6   45.71    5.93
  -2   6   6   41.45    6.18
   2  -6  -6   49.64    7.40
   2  -6  -5  325.22   21.49
   2  -6  -5  284.95   20.04
  -2   6   5  282.72   20.16
  -2   6   4   31.16    5.92
   2  -6  -4   44.42    6.41
   2  -6  -4   32.38    4.98
  -2   6   4   35.21    5.65
  -2   6   3    2.73    4.22
   2  -6  -3    2.57    3.97
   2  -6  -3    2.68    2.94
  -2   6   3    2.76    3.60
   2  -6  -2    0.73    4.04
  -2   6   2   -0.19    4.20
   2  -6  -2    0.18    2.79
  -2   6   2   -0.93    3.28
  -2   6   1    4.17    4.00
  -2   6   1    1.22    5.78
   2  -6  -1    8.55    3.02
  -2   6   1    3.02    3.34
  -2   6   0  753.66   51.34
  -2   6  -1  211.60   18.93
  -2   6  -2  354.62   25.52
  -2   6  -3   61.36    8.24
   2  -6   3   51.72   12.17
  -2   6  -4  114.45   12.10
   2  -6   4  126.93   16.78
   2  -6   4  128.49    9.52
  -2   6  -5    0.42    4.34
  -2   6  -5    5.02   12.98
  -2   6  -5    8.09    7.06
   2  -6   5    2.07    3.37
   2  -6   5   -0.11    1.62
   2  -6   6   41.58    5.95
   2  -6   6   48.84    4.45
  -2   6  -6   45.87   10.91
  -2   6  -7   90.01    6.71
  -2   6  -7   58.20   16.50
   2  -6   7   81.57    6.61
  -2   6  -7   79.97   13.85
   2  -6   7   78.27    7.74
   2  -6   8   90.40    7.19
  -2   6  -8   82.90   14.62
   2  -6   8   93.32    8.31
  -2   6  -8   80.24   10.07
  -2   6  -9   79.23   13.92
   2  -6   9   63.64    7.30
   2  -6  10   13.66    4.93
   2  -6  11   -0.67   10.18
   2  -6  12    1.27   10.26
  -2   6 -13   35.56    6.97
  -2   6 -14   22.72    5.42
  -2   5  13    5.96    1.34
   2  -5 -13    5.76    2.44
   2  -5 -12   21.04    4.10
   2  -5 -12   14.59    3.02
   2  -5 -11   18.94    5.10
   2  -5 -11   20.52    3.88
   2  -5 -10    3.60    5.00
   2  -5 -10    1.44    3.37
   2  -5  -9   26.64    4.84
   2  -5  -9   24.84    6.54
   2  -5  -8  142.21   12.44
   2  -5  -8  136.63   11.15
   2  -5  -7  499.71   37.99
  -2   5   7  487.77   37.02
   2  -5  -7  469.79   31.08
  -2   5   7  442.21   29.94
   2  -5  -6   11.61    6.12
  -2   5   6    2.66    5.48
   2  -5  -6    4.12    3.23
  -2   5   6    2.32    3.71
   2  -5  -6    4.73    4.82
  -2   5   5  248.41   21.02
   2  -5  -5  272.10   23.23
   2  -5  -5  244.81   17.30
  -2   5   5  230.16   16.35
   2  -5  -5  219.97   16.13
   2  -5  -4  217.03   19.61
  -2   5   4  210.15   13.71
   2  -5  -4  199.02   14.21
   2  -5  -4  157.01   12.92
  -2   5   4  188.16   17.24
   2  -5  -3  447.55   33.88
  -2   5   2    0.53    5.52
  -2   5   1    6.00    5.43
   2  -5   0 1568.60   99.96
  -2   5   0 1708.70  101.60
  -2   5  -1   66.05    7.76
  -2   5  -2   60.84    7.65
   2  -5   2   86.53   12.34
  -2   5  -3   -2.31    4.04
   2  -5   3   -2.77    7.88
  -2   5  -3   -3.43    6.06
   2  -5   4  149.52   18.22
  -2   5  -4  166.71   17.20
  -2   5  -4  184.81   20.16
  -2   5  -4  153.17   13.57
   2  -5   5  494.82   39.51
  -2   5  -5  519.53   38.81
  -2   5  -5  518.28   39.45
  -2   5  -6  599.58   34.84
   2  -5   6  530.05   34.66
  -2   5  -6  608.92   43.81
  -2   5  -6  663.47   44.23
  -2   5  -7  152.56   10.04
   2  -5   7  138.73    9.94
  -2   5  -7  175.24   18.63
  -2   5  -7  115.22   12.54
  -2   5  -8   37.21    4.12
   2  -5   8   44.60    4.33
   2  -5   8   39.03    5.61
  -2   5  -8   29.98    6.28
  -2   5  -9    7.69    6.65
   2  -5   9   -1.51    4.61
  -2   5  -9   -1.90    3.91
   2  -5  11    2.25    5.69
   2  -5  11    4.05   11.08
   2  -5  12   10.39    6.35
   2  -5  12    6.52   11.97
  -2   5 -13   19.38    6.05
   2  -5  13   21.81    2.95
   2  -5  14    2.21    1.95
   2  -5  15   13.88    2.10
   2  -4 -13    4.25    3.25
   2  -4 -13    3.89    2.17
   2  -4 -12    3.18    4.07
   2  -4 -12    1.65    2.73
   2  -4 -11    1.90    4.95
   2  -4 -10   21.69    5.93
  -2   4   9  172.73   11.97
  -2   4   8  608.81   36.94
  -2   4   8  654.80   46.14
   2  -4  -8  543.79   44.77
  -2   4   7   64.53    5.76
  -2   4   7   69.25   11.07
   2  -4  -7   74.87   11.61
  -2   4   7   58.08    7.01
  -2   4   6  111.53    8.23
  -2   4   6  121.49   14.07
  -2   4   6  121.72    9.65
   2  -4  -6  141.86   15.30
  -2   4   6  104.48    9.28
   2  -4  -5  220.50   19.84
  -2   4   5  189.31   14.24
   2  -4  -4   10.25    5.64
  -2   4   4    8.08    5.18
  -2   4   3  140.18   13.31
   2  -4  -3  172.10   15.90
   2  -4  -2  219.27   17.71
   2  -4  -2  240.36   19.74
  -2   4   2  233.68   18.93
   2  -4  -1  352.21   24.79
  -2   4   1  342.66   25.30
  -2   4   0  341.82   25.59
   2  -4   0  377.20   25.64
  -2   4  -1   13.74    4.21
   2  -4   1   15.37    4.58
   2  -4   1   20.78    4.80
  -2   4  -2   30.77    5.38
  -2   4  -2   40.70   11.05
   2  -4   2   36.22    5.76
  -2   4  -2   31.89    7.24
  -2   4  -3  523.07   36.93
  -2   4  -3  568.55   40.80
   2  -4   3  635.44   42.61
   2  -4   3  630.99   36.87
  -2   4  -3  539.23   40.12
  -2   4  -4 1165.77   75.72
   2  -4   4 1311.32   71.75
   2  -4   4 1107.51   76.65
  -2   4  -4 1024.38   74.78
  -2   4  -4 1119.78   72.00
  -2   4  -5   91.39   15.61
   2  -4   5  117.29    9.84
   2  -4   5   86.77   15.08
  -2   4  -5   68.54   11.23
  -2   4  -6 1197.52   82.29
  -2   4  -6 1047.80   77.34
  -2   4  -7  299.06   16.41
   2  -4   7  295.84   16.42
  -2   4  -7  281.89   19.63
  -2   4  -8   11.21    2.50
   2  -4   8   11.96    5.08
   2  -4   8   19.02    5.90
   2  -4   8   12.59    2.72
  -2   4  -8    5.38    4.10
   2  -4   9   23.88    6.18
   2  -4   9   24.34    6.60
  -2   4  -9   18.44    5.36
   2  -4  10    1.50    5.69
   2  -4  10    4.42    5.99
  -2   4 -10   -0.50    3.58
   2  -4  11   45.17    7.70
   2  -4  12   24.00    6.99
  -2   4 -12   37.20    7.45
   2  -4  13    3.28    5.72
   2  -4  13    4.21    2.21
   2  -4  14   38.91    3.78
  -2   4 -15    4.50    1.90
   2  -4  15    5.27    1.77
   2  -3 -14    1.18    2.70
   2  -3 -13    1.25    3.55
   2  -3 -12   56.70    7.36
  -2   3  11   19.88    4.14
  -2   3  10  118.79    8.97
  -2   3  10  120.60    9.07
  -2   3   9  141.47    9.79
  -2   3   9  159.50   18.80
  -2   3   9  131.03    9.84
   2  -3  -8  115.39   15.34
  -2   3   8  136.60    9.92
  -2   3   8  136.68    9.68
  -2   3   7  279.24   17.67
   2  -3  -7  296.11   24.74
  -2   3   7  258.21   18.70
  -2   3   7  282.21   17.93
  -2   3   6   93.76    7.15
  -2   3   6  128.22   13.50
   2  -3  -6  114.56   12.93
  -2   3   6  105.36    8.35
  -2   3   6   96.76    7.40
  -2   3   5   20.18    6.68
   2  -3  -5   23.66    6.67
   2  -3  -4  194.70   17.57
  -2   3   4  204.27   16.74
   2  -3  -3  441.34   30.51
  -2   3   3  433.72   28.74
   2  -3  -3  390.50   27.73
   2  -3  -2  273.58   19.63
   2  -3  -2  291.45   22.22
   2  -3  -2  259.84   20.32
  -2   3   2  301.67   20.89
  -2   3   1    8.07    7.38
   2  -3  -1   16.50    4.03
   2  -3  -1   18.22    4.60
  -2   3   1   17.92    4.95
  -2   3   0  768.10   49.76
   2  -3   0  820.96   49.55
   2  -3   0  900.80   51.81
  -2   3   0  755.53   52.18
  -2   3  -1   86.33    8.25
   2  -3   1  110.22    8.80
  -2   3  -1  100.38   12.36
   2  -3   1   98.31    9.62
  -2   3  -2  701.40   49.60
   2  -3   2  773.07   46.46
  -2   3  -2  768.05   49.14
   2  -3   2  679.63   47.70
  -2   3  -2  771.84   46.45
  -2   3  -3  113.60   14.85
   2  -3   3  129.34   14.20
   2  -3   3  121.04   10.08
  -2   3  -3   83.40   10.74
  -2   3  -4  408.58   34.84
  -2   3  -4  515.29   37.62
   2  -3   4  504.35   38.11
   2  -3   4  561.60   33.50
   2  -3   4  537.25   33.29
   2  -3   5  922.34   65.49
  -2   3  -5 1002.06   65.18
   2  -3   5 1049.82   61.05
   2  -3   5 1030.22   61.12
  -2   3  -5  892.22   60.53
   2  -3   6    3.95    5.15
   2  -3   6   -0.31    3.82
  -2   3  -6    4.34    3.88
  -2   3  -7   58.01    4.92
   2  -3   7   62.71    6.92
   2  -3   7   57.18    4.98
   2  -3   7   73.74    8.53
  -2   3  -7   56.15    7.72
  -2   3  -8   42.03    4.31
   2  -3   8   33.68    6.96
  -2   3  -8   35.59    6.65
  -2   3  -9   11.90    2.71
   2  -3   9   21.68    5.99
   2  -3   9   16.95    7.04
   2  -3   9   10.40    5.37
  -2   3  -9   10.00    4.57
   2  -3  10   22.21    7.46
   2  -3  10   28.39    6.87
   2  -3  11    5.90    6.40
   2  -3  12    1.86    6.55
   2  -3  13    9.41    6.00
   2  -3  14    6.29    2.12
  -2   3 -15   71.95    5.50
   2  -3  15   71.54    5.22
   2  -2 -14   45.64    5.37
  -2   2  13    1.45    2.77
  -2   2  12    7.25    3.42
  -2   2  12   14.36    3.63
  -2   2  11   11.53    3.59
  -2   2  11   14.67    3.84
  -2   2  10  393.45   24.79
  -2   2  10  403.11   25.11
  -2   2   9  482.82   29.36
   2  -2  -9  339.35   35.07
   2  -2  -9  461.26   37.07
  -2   2   9  609.90   41.52
  -2   2   9  490.63   29.69
  -2   2   8   27.87    3.65
   2  -2  -8   25.64    7.13
  -2   2   8   31.20    9.34
   2  -2  -8   23.22    6.43
   2  -2  -8   20.89    8.05
  -2   2   8   25.60    3.95
  -2   2   7    6.54    2.60
   2  -2  -7    9.98    5.42
   2  -2  -7    5.83    4.83
  -2   2   7   11.66    3.02
  -2   2   7   14.44    7.31
   2  -2  -7    3.22    5.75
   2  -2  -6  142.81   14.51
  -2   2   6  162.50   15.60
   2  -2  -6  150.19   15.08
   2  -2  -6  136.66   13.68
   2  -2  -5  537.98   38.26
   2  -2  -5  505.09   38.58
   2  -2  -5  516.60   37.28
  -2   2   4   72.45    8.52
   2  -2  -4   56.53    8.33
   2  -2  -4   55.01    6.63
   2  -2  -4   64.37    8.52
   2  -2  -4   53.54    7.60
  -2   2   3  172.77   12.74
   2  -2  -3  143.77   12.98
   2  -2  -3  148.35   12.41
   2  -2  -3  132.32   11.09
  -2   2   3  107.90   10.75
  -2   2   2  369.57   23.65
   2  -2  -2  324.98   24.39
   2  -2  -2  322.05   22.96
   2  -2  -1   84.26    8.39
   2  -2  -1   91.62    7.57
   2  -2  -1   92.48    8.18
   2  -2  -1   71.45    7.16
   2  -2  -1   88.22    9.31
  -2   2   1   66.65   10.63
  -2   2   0  452.48   27.98
  -2   2   0  384.87   31.03
   2  -2   0  505.95   30.21
   2  -2   0  398.57   28.10
   2  -2   0  483.70   28.84
   2  -2   1   56.38    6.74
   2  -2   1   59.38    7.11
   2  -2   1   51.95    5.78
  -2   2  -1   47.86   10.33
  -2   2  -1   61.33    5.66
  -2   2  -2  444.51   32.13
   2  -2   2  431.52   28.54
   2  -2   2  442.50   29.65
  -2   2  -3  619.64   42.69
   2  -2   3  578.00   39.25
  -2   2  -3  597.66   38.58
   2  -2   4  415.85   32.48
   2  -2   4  436.78   28.94
   2  -2   4  425.18   28.01
  -2   2  -4  441.38   28.19
   2  -2   5    1.22    6.99
   2  -2   5    5.01    5.53
   2  -2   5   -1.44    3.25
  -2   2  -5    5.92    3.57
   2  -2   6  352.84   25.08
   2  -2   6  356.44   24.26
  -2   2  -6  355.64   24.59
  -2   2  -7    7.66    2.12
   2  -2   7   13.87    4.47
   2  -2   7    6.53    2.63
   2  -2   7    9.70    4.30
  -2   2  -7    4.57    3.91
  -2   2  -8  265.52   19.34
  -2   2  -8  260.99   22.25
   2  -2   8  328.80   23.29
   2  -2   8  246.14   21.85
   2  -2   8  307.70   19.31
   2  -2   9    7.73    5.58
   2  -2   9    6.14    3.20
   2  -2   9    8.96    6.23
   2  -2   9    2.17    4.25
   2  -2  10   12.82    6.51
   2  -2  10    2.86    5.73
   2  -2  11   50.73    8.27
   2  -2  12  199.24   16.27
   2  -2  13   -0.71    5.91
  -2   2 -14   26.11    3.36
   2  -2  14   19.57    2.73
  -2   2 -15    0.26    1.32
   2  -2  15    0.82    1.42
   2  -1 -15   -0.42    2.55
  -2   1  15    1.70    1.68
  -2   1  14   24.15    3.36
  -2   1  13    0.18    2.97
  -2   1  13    2.83    3.20
  -2   1  12  105.39    8.18
  -2   1  12  117.49    8.75
  -2   1  11   26.33    3.88
   2  -1 -11   14.68    7.00
  -2   1  11   22.80    4.37
  -2   1  10    5.42    3.10
   2  -1 -10   -3.31    4.81
   2  -1 -10    0.83    5.02
  -2   1  10    5.46    3.67
  -2   1   9    8.76    2.91
   2  -1  -9    3.80    5.30
   2  -1  -9    3.67    4.47
  -2   1   9   10.50    3.39
   2  -1  -9    2.53    4.35
  -2   1   8   22.04    3.08
  -2   1   8   18.89    3.64
   2  -1  -7  390.17   28.12
   2  -1  -7  381.93   27.36
  -2   1   7  422.24   29.94
  -2   1   7  346.45   22.40
   2  -1  -6   15.79    5.08
  -2   1   6   13.11    6.54
   2  -1  -6   12.35    4.77
   2  -1  -5   58.17    7.88
  -2   1   5   68.51    9.65
   2  -1  -5   57.23    7.80
   2  -1  -5   62.45    8.01
   2  -1  -4 1739.43  106.28
  -2   1   4 1878.34  106.93
   2  -1  -4 1623.13  105.52
   2  -1  -3   91.91    8.91
   2  -1  -3   81.54    7.72
  -2   1   3   74.21    7.31
   2  -1  -3   78.31    8.77
  -2   1   3   51.72   10.03
   2  -1  -3   80.29    8.21
   2  -1  -2  235.34   17.03
   2  -1  -2  222.47   16.09
  -2   1   2  204.46   15.35
  -2   1   2  201.28   19.07
   2  -1  -2  237.11   16.98
   2  -1  -2  221.73   16.28
   2  -1  -1  233.71   15.53
   2  -1  -1  174.87   14.65
   2  -1  -1  226.69   15.90
  -2   1   1  225.31   14.79
  -2   1   1  245.28   19.67
   2  -1   0   32.65    4.56
  -2   1   0   36.35    8.97
   2  -1   0   33.82    5.14
   2  -1   1  159.54   11.07
   2  -1   1  151.42   12.32
   2  -1   1  139.77   11.33
  -2   1  -1  166.39   15.56
  -2   1  -1  145.73   10.49
   2  -1   2   41.03    5.76
   2  -1   2   38.11    4.44
  -2   1  -2   32.61    8.51
  -2   1  -2   39.06    4.42
   2  -1   3  295.83   21.87
   2  -1   3  306.96   23.21
  -2   1  -3  266.55   18.65
  -2   1  -3  276.56   22.71
   2  -1   4   39.74    8.90
   2  -1   4   72.37   10.90
  -2   1  -5   51.96    6.36
  -2   1  -6    7.92    5.06
  -2   1  -6    5.25    3.83
  -2   1  -7  148.69   12.53
   2  -1   7  164.34    9.66
   2  -1   7  173.43   13.32
   2  -1   8    9.21    5.22
   2  -1   8   16.23    3.48
   2  -1   8   17.62    6.43
   2  -1   9    6.33    5.75
   2  -1   9    8.20    3.51
   2  -1   9    2.22    5.36
   2  -1  10   21.49    6.84
   2  -1  11   18.54    7.00
   2  -1  12   13.90    6.71
   2  -1  13   40.73    5.33
  -2   1 -13   51.69    5.21
  -2   1 -14   30.50    3.50
   2  -1  14   29.13    3.02
  -2   0  15    5.58    2.21
  -2   0  14   32.62    4.05
  -2   0  13   14.61    3.92
   2   0 -12   13.90    6.98
  -2   0  12   57.84    5.59
   2   0 -11   19.01    7.22
  -2   0  11   32.14    4.68
  -2   0  10   14.67    3.82
   2   0 -10   10.79    5.03
   2   0  -9    6.32    5.24
   2   0  -9   15.76    5.40
  -2   0   9   13.63    3.45
   2   0  -8  109.25   12.95
   2   0  -8  125.21   13.28
  -2   0   8  122.37   12.99
  -2   0   8  133.16    9.15
   2   0  -7  117.71   12.02
   2   0  -7  118.83   11.91
   2   0  -7   89.93   11.02
  -2   0   7  100.51   10.82
   2   0  -6  134.68   12.55
   2   0  -6  135.70   12.35
   2   0  -6  118.04   12.30
  -2   0   6  124.01   11.74
   2   0  -5 2628.54  146.18
   2   0  -5 2445.26  145.66
  -2   0   5 2434.41  145.23
   2   0  -5 2226.10  145.70
   2   0  -5 2338.09  145.29
   2   0  -4   16.80    4.30
   2   0  -4    9.95    3.97
   2   0  -4   17.47    4.16
   2   0  -4   15.96    4.28
   2   0  -4   13.86    3.67
   2   0  -3  618.32   36.69
   2   0  -3  542.96   35.98
   2   0  -3  587.81   36.46
   2   0  -3  571.70   36.57
   2   0  -3  542.63   34.92
  -2   0   3  575.05   36.28
  -2   0   3  567.69   39.27
   2   0  -3  538.93   35.82
   2   0  -2 1123.42   66.18
  -2   0   2 1074.64   66.36
   2   0  -2 1064.87   66.34
   2   0  -2 1104.98   66.21
   2   0  -2 1028.69   65.99
   2   0  -2 1039.35   65.04
  -2   0   2 1097.00   69.58
   2   0  -2 1137.28   66.78
  -2   0   1    3.01    2.84
   2   0  -1    2.04    2.58
   2   0  -1    0.48    1.94
   2   0  -1    0.96    2.62
   2   0  -1    3.29    2.47
  -2   0   1    2.93    6.91
   2   0   0   21.27    4.28
   2   0   0   22.91    4.21
   2   0   0   23.28    4.31
  -2   0   0   31.06    8.04
   2   0   0   20.94    3.51
   2   0   0   25.40    6.47
   2   0   1   27.46    4.42
   2   0   1   25.83    3.85
  -2   0  -1   20.92    7.14
   2   0   1   21.85    4.30
   2   0   1   23.90    6.79
   2   0   2    3.91    4.22
  -2   0  -2    4.67    5.78
   2   0   2   -1.13    6.50
  -2   0  -2    4.50    2.41
  -2   0  -3  203.37   15.14
  -2   0  -3  231.87   16.47
   2   0   3  221.95   18.91
   2   0   3  235.76   19.32
  -2   0  -4   42.17    6.69
   2   0   4   50.83    9.35
  -2   0  -5  206.83   16.85
   2   0   5  233.90   16.73
  -2   0  -6  193.67   14.05
   2   0   6  138.03    9.88
   2   0   7   -2.75    4.30
   2   0   7    1.99    2.90
   2   0   8    8.64    8.46
   2   0   8  547.94   12.18
   2   0   9    2.82    5.56
   2   0   9   30.93    4.37
   2   0  10   -1.01    5.95
   2   0  10   61.92    6.54
   2   0  11    3.86    5.77
  -2   0 -11    6.61    3.26
   2   0  11    1.69    4.17
  -2   0 -12   32.65    4.49
   2   0  12   44.54    5.60
  -2   0 -13    4.26    2.50
   2   0  13    7.56    3.91
  -2   0 -14    2.68    1.73
   2   0  14    2.07    2.83
  -2  -1  15   35.41    3.67
  -2  -1  14    6.55    3.15
  -2  -1  13   16.23    3.97
  -2  -1  12   19.70    4.29
   2   1 -11    7.95    4.91
  -2  -1  11   26.57    4.33
  -2  -1  10    1.59    4.62
   2   1 -10    0.70    4.38
  -2  -1  10    4.10    8.35
   2   1 -10   -1.33    3.94
  -2  -1  10    1.04    3.24
  -2  -1   9   -0.71    4.32
   2   1  -9    0.62    4.54
   2   1  -9    3.60    3.70
  -2  -1   9   13.24    7.99
  -2  -1   9    5.41    4.86
  -2  -1   9    0.94    2.84
  -2  -1   8   88.17   11.29
   2   1  -8   85.08   10.61
   2   1  -8   65.89    9.92
  -2  -1   8   59.07   10.01
  -2  -1   8   70.06    9.87
  -2  -1   8   92.86    6.52
  -2  -1   7  195.64   16.71
   2   1  -7  159.42   15.04
   2   1  -7  156.60   15.16
   2   1  -7  154.59   14.62
  -2  -1   7  184.59   15.30
  -2  -1   6 1844.39  108.76
   2   1  -6 1725.69  107.35
   2   1  -6 1590.26  107.58
   2   1  -6 1742.28  107.12
  -2  -1   6 1880.79  107.71
  -2  -1   5   60.56    7.79
   2   1  -5   49.98    6.63
   2   1  -5   50.43    6.71
   2   1  -5   47.71    6.47
  -2  -1   5   62.50    7.81
  -2  -1   4    9.44    4.11
   2   1  -4   11.58    3.52
   2   1  -4   10.57    3.13
   2   1  -4   10.62    3.63
  -2  -1   4   13.73    5.85
  -2  -1   3   39.90    6.04
   2   1  -3   37.07    4.84
   2   1  -3   40.48    5.08
   2   1  -3   37.07    4.44
  -2  -1   3   48.24    8.06
  -2  -1   2 2791.86  154.77
   2   1  -2 2564.47  153.94
   2   1  -2 2544.37  153.09
   2   1  -2 2393.67  153.34
  -2  -1   2 2643.61  156.36
   2   1  -2 2640.36  153.80
  -2  -1   1   -0.99    3.05
   2   1  -1    1.69    2.45
   2   1  -1   -0.48    2.15
  -2  -1   1   -0.57    3.09
   2   1  -1   -0.59    1.81
  -2  -1   1    2.57    5.74
   2   1  -1    1.50    4.73
   2   1   0 1738.27  104.96
  -2  -1   0 1647.88  102.93
  -2  -1   0 1732.46  106.10
   2   1   0 1755.81  103.60
   2   1   0 1745.68  103.43
   2   1   1  339.43   22.14
  -2  -1  -1  313.85   21.81
   2   1   1  304.88   21.83
  -2  -1  -1  329.56   24.54
   2   1   1  340.36   24.19
  -2  -1  -2   11.74    5.48
   2   1   2   17.57    5.80
  -2  -1  -2   16.11    4.99
   2   1   2   19.80    7.89
  -2  -1  -3  213.84   14.45
   2   1   3  220.02   17.37
  -2  -1  -4    2.71    4.72
   2   1   4    0.30    3.49
   2   1   4    3.68    7.37
  -2  -1  -5   32.28    6.57
   2   1   5   28.26    5.54
   2   1   5   31.31    9.63
  -2  -1  -6    5.96    4.84
   2   1   6    8.73    2.76
   2   1   7   26.19    3.86
   2   1   8   94.25    7.65
  -2  -1  -9   31.67    4.69
   2   1   9   31.81    5.86
  -2  -1 -10  114.03    8.90
   2   1  10   82.51    9.11
  -2  -1 -11   73.00    6.64
   2   1  11   51.10    6.96
  -2  -1 -12    4.10    2.78
   2   1  12    5.93    4.05
   2   1  12    7.14    4.42
  -2  -1 -13   -1.25    2.05
   2   1  13    0.39    3.37
  -2  -2  15    4.71    2.38
  -2  -2  14    4.38    3.02
  -2  -2  13   29.53    4.38
  -2  -2  12   71.58    6.57
  -2  -2  11  108.35    8.41
  -2  -2  10   14.26    8.35
  -2  -2  10    8.82    5.25
   2   2 -10    4.83    4.67
  -2  -2  10    6.27    5.12
  -2  -2  10    6.81    3.25
  -2  -2   9  185.53   17.84
  -2  -2   9  150.48   15.59
   2   2  -9  127.14   15.15
   2   2  -9  107.58   14.75
  -2  -2   9  163.38   12.56
  -2  -2   9  199.97   11.11
  -2  -2   9  185.91   11.05
  -2  -2   8  174.20   16.13
   2   2  -8  133.60   14.05
   2   2  -8  131.31   13.77
  -2  -2   8  143.81   14.33
  -2  -2   8  153.07   11.35
  -2  -2   8  148.93    9.88
  -2  -2   7    8.54    3.34
  -2  -2   7   14.92    5.60
   2   2  -7   13.76    4.97
   2   2  -7   10.13    4.24
  -2  -2   7   -2.65    6.55
  -2  -2   7   13.63    5.29
   2   2  -7    8.22    3.74
  -2  -2   7   14.11    2.64
  -2  -2   6  194.35   16.29
   2   2  -6  163.59   14.33
   2   2  -6  159.37   14.41
   2   2  -6  165.88   14.19
  -2  -2   6  177.72   15.17
   2   2  -5  317.57   23.91
   2   2  -5  321.97   23.48
  -2  -2   4 1200.38   67.68
   2   2  -4  989.88   65.44
  -2  -2   4 1104.67   65.94
   2   2  -4  999.45   64.99
  -2  -2   3   22.38    6.95
  -2  -2   3   23.89    5.41
   2   2  -3   18.72    3.73
   2   2  -3   21.96    3.52
   2   2  -3   23.47    3.88
  -2  -2   2   99.04    9.59
   2   2  -2   74.67    7.57
   2   2  -2   81.91    7.61
   2   2  -2   84.45    7.51
   2   2  -1   11.83    2.91
   2   2  -1    9.56    2.82
   2   2  -1    7.73    3.02
   2   2  -1    6.76    2.99
   2   2  -1   11.78    5.63
   2   2   0  173.75   13.03
  -2  -2   0  153.30   15.45
   2   2   0  179.79   13.22
  -2  -2   0  169.48   12.87
   2   2   0  150.02   14.70
  -2  -2  -1  790.76   55.03
  -2  -2  -1  889.43   54.64
  -2  -2  -1  881.11   58.08
   2   2   1  852.50   56.81
  -2  -2  -2   73.76    8.54
   2   2   2  102.36   12.03
   2   2   2   62.60   10.10
  -2  -2  -2   76.24   11.61
   2   2   2   88.51    8.46
   2   2   2   89.29   11.56
  -2  -2  -2   77.12    9.60
  -2  -2  -3  336.87   21.25
   2   2   3  350.32   21.42
   2   2   3  336.75   24.49
  -2  -2  -4  555.08   35.72
   2   2   4  582.71   39.29
   2   2   4  488.82   35.33
  -2  -2  -5   73.29    6.10
   2   2   5   62.25    5.45
  -2  -2  -5   75.95    9.18
   2   2   5   68.89    8.63
   2   2   5   75.08   12.92
  -2  -2  -6   14.30    3.21
   2   2   6   16.89    3.33
  -2  -2  -7  162.22   10.79
   2   2   7  120.34    9.56
  -2  -2  -8   57.97    6.02
   2   2   8   54.02    7.01
  -2  -2  -9  135.66   10.50
   2   2   9  124.07   11.11
  -2  -2 -10   11.23    3.73
   2   2  10   12.93    5.25
   2   2  11   19.87    5.18
  -2  -2 -11   25.62    4.18
  -2  -2 -12   23.48    3.52
   2   2  12   22.87    4.45
   2   2  13   18.99    3.44
   2   2  13   32.25    3.56
  -2  -3  15   11.24    2.47
  -2  -3  14   22.51    3.47
  -2  -3  13   40.38    4.54
  -2  -3  13   37.21    4.10
  -2  -3  12    6.82    3.31
  -2  -3  12    4.79    2.61
  -2  -3  11  187.82   11.05
  -2  -3  11  200.53   11.34
  -2  -3  10   38.73    8.62
   2   3 -10   13.11    5.70
  -2  -3  10   30.85    6.69
  -2  -3  10   21.70    6.80
  -2  -3  10   31.24    3.94
  -2  -3   9   44.01    9.12
   2   3  -9   27.94    7.02
  -2  -3   9   47.64    6.92
  -2  -3   9   46.98    8.39
  -2  -3   9   49.23    4.52
  -2  -3   8  115.60    6.80
  -2  -3   8   99.34   12.50
   2   3  -8   45.84    8.43
   2   3  -8   51.95    8.92
   2   3  -8   51.64    8.75
  -2  -3   8   -0.22    8.21
  -2  -3   8   86.17    8.17
  -2  -3   8   76.92   10.50
  -2  -3   8   92.21    8.71
  -2  -3   8   89.26    6.34
  -2  -3   7  105.97    6.82
  -2  -3   7   82.57   11.61
  -2  -3   7   85.31   10.38
   2   3  -7   47.32    8.24
   2   3  -7   71.51    9.26
  -2  -3   7  131.78    8.96
  -2  -3   7   92.39    6.46
  -2  -3   6   36.20    4.16
  -2  -3   6   30.07    7.07
   2   3  -6   24.48    5.10
   2   3  -6   26.09    5.41
  -2  -3   6   45.25    6.04
  -2  -3   6   32.41    3.65
  -2  -3   5  139.82   12.96
   2   3  -5   95.68    9.86
  -2  -3   4   35.70    6.96
  -2  -3   4   44.30    8.57
   2   3  -4   27.25    4.34
  -2  -3   3    3.65    4.56
  -2  -3   3   -2.22    6.72
   2   3  -3   -0.54    1.97
   2   3  -3    0.82    2.02
  -2  -3   2    1.57    6.61
   2   3  -2    3.80    2.49
   2   3  -2    2.80    2.41
   2   3  -1 1520.19   94.29
  -2  -3   1 1579.77   94.85
   2   3   0 1689.82   98.60
  -2  -3   0 1370.59   95.53
   2   3   0 1449.32   95.22
   2   3   1   24.29    7.05
  -2  -3  -1   19.57    7.01
   2   3   1   26.99    8.99
  -2  -3  -1   22.38    8.29
   2   3   1   25.00    4.91
   2   3   2  398.86   31.70
  -2  -3  -2  496.44   32.92
   2   3   2  424.90   26.91
   2   3   2  495.65   30.59
  -2  -3  -3  148.01   18.09
   2   3   3  143.53   13.34
   2   3   3  132.84   16.20
  -2  -3  -3  158.59    9.77
  -2  -3  -4  308.09   18.22
  -2  -3  -4  288.71   19.22
  -2  -3  -4  250.82   26.82
   2   3   4  263.74   21.83
   2   3   4  277.49   25.67
  -2  -3  -5   64.50    4.64
  -2  -3  -5   56.17    5.70
  -2  -3  -5   46.07   12.50
   2   3   5   46.53    8.07
   2   3   5   40.49   11.21
  -2  -3  -6   11.41    6.42
  -2  -3  -6    9.70    3.37
  -2  -3  -6    1.09    9.09
   2   3   6    5.30    4.29
   2   3   6   11.16    5.52
  -2  -3  -7    1.21    3.02
  -2  -3  -7   -3.51    8.62
   2   3   7    2.33    4.48
   2   3   8    3.54    4.69
  -2  -3  -8    1.23    2.99
  -2  -3  -9    1.99    3.11
   2   3   9    7.91    5.14
  -2  -3 -10   16.64    3.77
   2   3  10   18.67    5.31
   2   3  10   30.24    4.79
   2   3  11    2.41    3.77
   2   3  11    4.92    3.69
   2   3  12    3.76    2.95
   2   3  12   -2.83    2.85
  -2  -4  15   34.33    3.58
  -2  -4  14   15.40    3.16
  -2  -4  14   21.05    3.08
  -2  -4  13    3.69    7.84
  -2  -4  13   44.87    4.42
  -2  -4  12    5.68    8.02
  -2  -4  12   10.36    2.92
  -2  -4  11    2.76    7.77
  -2  -4  11    7.78    5.62
  -2  -4  11    7.68    2.84
  -2  -4  10   68.58    8.14
  -2  -4  10   85.96    8.56
  -2  -4  10   77.56    6.13
  -2  -4   9    0.80    4.82
   2   4  -9   -0.62    3.80
  -2  -4   9    6.89    5.74
  -2  -4   9   -0.21    5.58
  -2  -4   9    0.93    2.54
  -2  -4   9   -0.99    7.51
  -2  -4   8   54.11    4.68
  -2  -4   8   39.21    8.65
  -2  -4   8   35.05    6.45
  -2  -4   8   30.19    6.80
  -2  -4   8   41.35    4.35
  -2  -4   7   29.90    3.84
  -2  -4   7   24.65    7.04
   2   4  -7    2.81    3.08
   2   4  -7    4.72    3.72
  -2  -4   7   26.22    5.82
  -2  -4   7   18.75    3.23
  -2  -4   6    0.09    3.02
  -2  -4   6   -1.91    5.10
   2   4  -6   -0.72    1.95
   2   4  -6   -0.45    3.28
  -2  -4   6    2.71    6.22
  -2  -4   6    0.58    2.47
  -2  -4   6   -2.49    2.80
  -2  -4   6    9.63    5.29
  -2  -4   5   27.39    3.62
   2   4  -5   20.84    4.06
   2   4  -5   13.75    4.78
  -2  -4   5   21.38    6.43
  -2  -4   5   19.54    3.47
  -2  -4   5   24.26    5.74
  -2  -4   5   19.81    3.27
  -2  -4   5   17.12    3.36
  -2  -4   4  139.69   14.07
   2   4  -4  122.18   11.12
  -2  -4   3   15.31    7.93
   2   4  -3   27.68    9.12
   2   4  -3   13.70    3.46
  -2  -4   2   61.57    9.94
   2   4  -2   50.72    6.28
   2   4  -2   44.62    6.26
  -2  -4   1  138.36   13.62
   2   4  -1  112.34   15.55
  -2  -4   0   64.41   10.21
  -2  -4   0   55.17    8.94
   2   4   0   43.90   11.45
   2   4   0   58.54    7.32
  -2  -4  -1  199.61   16.63
  -2  -4  -1  182.55   10.67
   2   4   1  163.25   14.24
  -2  -4  -2  401.85   29.38
  -2  -4  -2  327.13   31.67
  -2  -4  -2  401.72   23.24
   2   4   2  351.83   27.11
  -2  -4  -3    6.06    6.49
  -2  -4  -3    2.36    1.71
  -2  -4  -3    2.92    9.14
   2   4   3    6.29    4.93
   2   4   3   -0.71    7.98
  -2  -4  -4  111.97   13.79
  -2  -4  -4  118.58    7.62
  -2  -4  -4  110.22    8.82
  -2  -4  -4   70.33   15.34
   2   4   4   87.62   11.19
   2   4   4   90.14   14.78
  -2  -4  -5  114.41   14.38
  -2  -4  -5  122.67    8.09
  -2  -4  -5  129.40    9.65
  -2  -4  -5   88.91   16.87
   2   4   5   85.61   12.26
   2   4   5   87.51   15.42
  -2  -4  -6  148.21    9.53
  -2  -4  -6  147.21   11.05
   2   4   6  155.98   11.57
  -2  -4  -7    7.12    3.43
  -2  -4  -7    8.79    3.53
   2   4   7   12.02    4.74
   2   4   8    4.07    4.59
   2   4   9   67.03    7.40
   2   4  10   29.54    5.03
   2   4  11    6.94    3.07
   2   4  11   11.21    3.33
  -2  -5  15   37.90    3.54
  -2  -5  15   40.73    3.68
  -2  -5  14    7.94    6.63
  -2  -5  14    4.31    2.39
  -2  -5  14    7.92    2.53
  -2  -5  13   26.14    3.84
  -2  -5  13   28.56    3.72
  -2  -5  12   16.99    3.55
  -2  -5  12   18.71    3.46
  -2  -5  11    4.13    3.07
  -2  -5  11    5.39    5.57
  -2  -5  11    4.94    2.94
  -2  -5  10    1.07    7.48
  -2  -5  10    5.44    3.14
  -2  -5  10    5.19    5.49
  -2  -5  10   17.94    5.91
  -2  -5  10    8.11    3.00
  -2  -5   9  582.71   23.29
  -2  -5   9  549.90   24.02
  -2  -5   9  576.93   23.12
  -2  -5   8   49.88    5.46
  -2  -5   8   49.77    7.30
  -2  -5   8   51.48    5.39
  -2  -5   7    7.07    6.36
  -2  -5   7   -5.08    6.74
  -2  -5   7    0.84    2.84
  -2  -5   7    2.98    5.63
  -2  -5   7    5.32    2.91
  -2  -5   6  116.99    9.83
  -2  -5   6   88.15    7.64
  -2  -5   6   94.77    7.66
  -2  -5   6  113.88    9.77
  -2  -5   5    2.48    2.77
   2   5  -5   -0.69    4.80
  -2  -5   5    6.04    5.29
  -2  -5   5    1.96    2.86
   2   5  -4  123.62   12.92
   2   5  -4  108.93   13.64
  -2  -5   4  177.13   12.44
  -2  -5   4  156.60   10.93
  -2  -5   4  166.60   10.77
   2   5  -3   52.22   12.55
   2   5  -3   64.42    8.29
   2   5  -3   50.85    8.79
  -2  -5   3   76.87    6.52
   2   5  -2   60.52   13.52
  -2  -5   2   59.97    5.81
  -2  -5   2   67.43    5.78
  -2  -5   1  209.53   21.98
  -2  -5   1  272.70   16.23
  -2  -5   0  336.03   26.70
  -2  -5   0  353.93   21.13
  -2  -5  -1   -2.98    6.05
  -2  -5  -1    1.77    1.75
  -2  -5  -1    1.83    2.98
   2   5   1    1.77    4.05
  -2  -5  -2   32.31    3.08
  -2  -5  -2   26.83    7.82
  -2  -5  -2   23.23    4.18
   2   5   2   31.55    6.90
  -2  -5  -3  140.09   16.08
  -2  -5  -3  159.63   10.08
   2   5   3  137.79   14.77
   2   5   3  120.56   17.29
  -2  -5  -3  147.14   11.34
  -2  -5  -4   58.07   10.64
  -2  -5  -4   75.27    5.61
  -2  -5  -4   78.46    7.18
   2   5   4   62.21   10.39
   2   5   4   44.38   11.82
  -2  -5  -5  404.17   24.02
  -2  -5  -5  360.51   25.11
  -2  -5  -6   15.01    2.41
  -2  -5  -6   15.02    3.99
  -2  -5  -7   17.50    3.78
   2   5   7   15.28    4.57
   2   5   8   12.95    4.44
   2   5   9    0.65    3.39
   2   5  10   16.54    3.78
   2   5  10   28.52    3.86
  -2  -6  14    1.58    6.01
  -2  -6  14    4.59    2.28
  -2  -6  13   13.83    3.05
  -2  -6  12    2.21    7.11
  -2  -6  12   15.80    3.19
  -2  -6  11   89.87    9.22
  -2  -6  11  104.20    8.01
  -2  -6  10  146.11   10.82
  -2  -6  10  179.19   11.71
  -2  -6  10  180.69    9.76
  -2  -6   9   30.75    6.30
  -2  -6   9   49.31    7.17
  -2  -6   9   39.53    4.54
  -2  -6   8  247.53   18.45
  -2  -6   8  312.90   19.57
  -2  -6   8  258.55   17.70
  -2  -6   8  271.79   19.10
  -2  -6   7   21.78    7.01
  -2  -6   7   24.48    6.59
  -2  -6   7   22.06    4.07
  -2  -6   6   30.73    7.16
  -2  -6   6   23.53    6.55
  -2  -6   6   22.83    3.91
  -2  -6   5   11.38    6.52
  -2  -6   5   24.93    6.02
  -2  -6   5   11.99    3.50
  -2  -6   4   18.54    3.76
  -2  -6   4   23.17    3.81
  -2  -6   3   45.02    4.90
  -2  -6   2   80.25    6.77
  -2  -6   1   22.71    8.69
  -2  -6   0   14.00    2.28
  -2  -6   0   14.89    8.19
  -2  -6  -1  134.21   16.33
  -2  -6  -1  167.15   10.54
  -2  -6  -1  152.20   11.71
  -2  -6  -2   33.00    8.21
  -2  -6  -2   32.03    3.27
  -2  -6  -2   27.42    4.63
   2   6   2   22.22    9.26
  -2  -6  -3   48.57    4.19
  -2  -6  -3   42.97    5.56
  -2  -6  -4  849.85   49.98
  -2  -6  -4  800.48   51.13
  -2  -6  -5   13.11    3.75
  -2  -6  -6   33.03    4.48
  -2  -6  -7    7.76    2.78
   2   6   8    1.92    3.47
   2   6   9    2.58    2.84
  -2  -7  14   -2.77    5.37
  -2  -7  14   -0.80    1.87
  -2  -7  13   29.23    3.50
  -2  -7  12   -1.96    6.64
  -2  -7  12    4.48    4.38
  -2  -7  12    6.22    2.66
  -2  -7  11   13.10    5.12
  -2  -7  11   17.81    3.38
  -2  -7  10   74.20    7.80
  -2  -7  10   89.81    6.54
  -2  -7  10   71.70    8.42
  -2  -7   9  208.74   12.76
  -2  -7   9  229.26   13.54
  -2  -7   9  234.88   11.89
  -2  -7   9  210.53   13.44
  -2  -7   8   92.26    9.28
  -2  -7   8  109.91   10.07
  -2  -7   8  104.18    8.33
  -2  -7   8  101.72   10.18
  -2  -7   7    8.09    6.32
  -2  -7   7    5.01    5.41
  -2  -7   7    5.24    3.04
  -2  -7   6    3.68    6.41
  -2  -7   6    2.12    5.37
  -2  -7   6   13.42    7.72
  -2  -7   5   52.95    9.36
  -2  -7   5   71.29    8.47
  -2  -7   4  120.32   13.22
  -2  -7   4  174.08   12.70
  -2  -7   3   16.17    8.37
  -2  -7   2  123.45   12.15
  -2  -7   1   43.91    8.97
  -2  -7   0   58.51    6.12
  -2  -7   0   75.09    9.37
  -2  -7  -1   -0.97    1.75
  -2  -7  -1   -0.85    3.03
  -2  -7  -2   23.70    2.82
  -2  -7  -2   23.01    4.32
  -2  -7  -3   15.05    2.46
  -2  -7  -3   18.91    3.99
  -2  -7  -4   -2.09    3.41
  -2  -7  -5   76.33    6.68
  -2  -7  -6   11.19    2.59
   2   7   6    6.80    3.65
  -2  -7  -7   55.27    4.39
   2   7   7   37.89    5.07
   2   7   8    2.19    2.33
  -2  -8  13    3.38    5.42
  -2  -8  13   10.32    2.18
  -2  -8  12    0.53    5.77
  -2  -8  12    0.92    2.19
  -2  -8  11   25.07    4.85
  -2  -8  11   22.11    3.30
  -2  -8  10   47.28    6.16
  -2  -8  10   53.29    5.01
  -2  -8  10   40.58    6.84
  -2  -8   9   61.14    6.95
  -2  -8   9   60.91    7.92
  -2  -8   8   27.74    6.60
  -2  -8   8   15.82    5.28
  -2  -8   8   31.18    6.00
  -2  -8   7   67.67    7.56
  -2  -8   7   74.15    7.94
  -2  -8   7   73.08    8.58
  -2  -8   6    0.37    6.15
  -2  -8   6   -4.80    7.31
  -2  -8   5   42.15    8.89
  -2  -8   5   64.21    7.86
  -2  -8   4   19.25    6.25
   2   8  -4    5.00   12.44
  -2  -8   4   11.57    8.15
  -2  -8   3  132.83   11.77
  -2  -8   3  147.82   11.32
  -2  -8   2    7.34    6.60
  -2  -8   2    5.10    7.67
  -2  -8   1    2.09    7.55
  -2  -8   0   71.69    9.34
  -2  -8  -1   25.82    3.99
  -2  -8  -2  132.08    9.90
  -2  -8  -3   28.92    3.89
  -2  -8  -4    7.87    2.61
  -2  -8  -5   11.00    2.37
  -2  -8  -6   44.55    3.81
  -2  -9  11   -2.94    3.41
  -2  -9  11    1.71    4.15
  -2  -9  10   10.00    4.06
  -2  -9  10    9.51    4.84
  -2  -9   9   20.29    4.62
  -2  -9   9   30.30    5.85
  -2  -9   8    1.72    4.12
  -2  -9   8    4.71    5.46
  -2  -9   7   29.00    6.17
  -2  -9   7   21.52    4.94
  -2  -9   6   73.35    9.16
  -2  -9   6   88.43    8.69
  -2  -9   5   48.94    6.97
  -2  -9   5   41.07    7.62
  -2  -9   4    9.92    5.83
  -2  -9   4   10.60    6.90
  -2  -9   3  500.62   31.71
  -2  -9   3  577.74   31.56
  -2  -9   2   27.19    6.04
  -2  -9   2   17.13    6.53
  -2  -9   2   24.33    7.01
  -2  -9   1   16.21    5.28
  -2  -9   1   13.84    6.12
  -2  -9   1   22.67    6.59
  -2  -9   0    1.14    5.38
  -2  -9  -1   -0.45    5.12
  -2  -9  -1   -0.60    2.03
  -2  -9  -2    5.28    4.89
  -2  -9  -2    2.43    1.97
  -2  -9  -3    4.95    4.33
  -2  -9  -3    0.88    1.78
  -2  -9  -4    1.45    3.68
  -2  -9  -4    1.45    1.41
  -2 -10   9   13.09    4.30
  -2 -10   8   43.74    5.70
  -2 -10   7    0.12    4.37
  -2 -10   6  187.13   14.64
  -2 -10   6  239.36   14.80
  -2 -10   5    6.59    4.64
  -2 -10   5    6.25    5.39
  -2 -10   4   44.80    6.56
  -2 -10   4   50.88    6.10
  -2 -10   3   29.40    4.99
  -2 -10   3   20.36    5.37
  -2 -10   3   23.07    5.81
  -2 -10   2   -1.55    4.86
  -2 -10   2    5.75    5.03
  -2 -10   1   -1.23    4.51
  -2 -10   1   -2.18    4.77
  -2 -10   0    1.58    4.18
  -2 -10  -1   13.64    4.16
  -2 -10  -2    1.74    0.99
  -2 -10  -2    0.16    3.24
  -3  12   1   12.84    2.93
  -3  12   0   21.83    3.52
  -3  12  -1   -0.24    2.80
  -3  12  -1   -1.02    3.37
  -3  12  -2    2.21    3.54
  -3  12  -3   10.80    4.21
  -3  12  -4    1.34    1.38
  -3  12  -4    1.31    3.64
  -3  12  -5    5.81    1.57
  -3  12  -5    3.70    3.57
  -3  12  -6   11.36    1.77
  -3  11   4   -1.77    2.38
  -3  11   3    2.14    2.93
  -3  11   2    1.48    3.19
  -3  11   1   11.92    3.82
  -3  11   0    3.48    4.36
  -3  11   0    1.39    3.55
  -3  11  -1    0.75    4.22
  -3  11  -1    3.75    3.63
  -3  11  -2   32.48    6.21
  -3  11  -2   33.31    5.07
  -3  11  -3    5.25    4.55
  -3  11  -4   32.73    6.22
  -3  11  -5    9.33    4.78
  -3  11  -6   12.15    2.33
  -3  11  -7    0.19    1.59
  -3  11  -9   11.40    7.53
   3 -11  10    0.12    4.43
   3 -10  -6    1.58    1.67
   3 -10  -5    2.84    2.12
  -3  10   4    4.70    3.43
   3 -10  -4    7.17    2.64
   3 -10  -4    0.74    1.71
  -3  10   3   11.90    4.00
   3 -10  -3   12.58    3.14
   3 -10  -3   10.16    2.41
  -3  10   2   33.08    5.21
   3 -10  -2   33.05    4.37
   3 -10  -2   21.80    3.40
  -3  10   1    1.65    4.53
  -3  10   1    4.43    4.21
   3 -10  -1    6.78    2.52
  -3  10   0    5.48    4.34
  -3  10   0    3.24    5.10
  -3  10  -1   16.51    5.71
  -3  10  -1   13.05    4.70
  -3  10  -2    5.31    4.37
  -3  10  -3    4.66    5.38
  -3  10  -4   42.09    7.28
  -3  10  -5   37.27    6.73
  -3  10  -6    0.77    2.12
  -3  10  -7   27.79    3.44
  -3  10  -8   13.04    9.67
  -3  10  -8    0.11    1.81
  -3  10  -9   14.34    9.37
  -3  10 -10    8.48    8.35
  -3  10 -11   -1.24    7.30
   3  -9  -8    1.21    1.14
   3  -9  -7    6.36    2.13
   3  -9  -7    3.50    1.70
   3  -9  -6    3.56    1.94
   3  -9  -6    6.47    2.58
   3  -9  -5    8.18    3.03
   3  -9  -5    1.69    2.23
  -3   9   4   10.60    4.28
   3  -9  -4    7.88    3.25
   3  -9  -4    3.59    2.50
   3  -9  -3    2.63    3.25
   3  -9  -3    2.94    2.62
  -3   9   3    3.53    4.16
  -3   9   2   43.58    6.38
   3  -9  -2   51.20    5.64
   3  -9  -2   33.20    4.58
  -3   9   1    6.66    4.54
  -3   9   1    3.15    5.32
   3  -9  -1    5.22    3.37
   3  -9  -1    8.24    2.94
  -3   9   0   -1.21    4.40
   3  -9   0    5.10    3.51
   3  -9   0    2.58    2.72
  -3   9  -1  109.27    9.98
   3  -9   1  108.89    8.93
  -3   9  -2  120.22   10.53
   3  -9   2  119.21    9.47
  -3   9  -3   65.49    7.73
  -3   9  -3   63.66   15.58
  -3   9  -4    3.03   12.62
   3  -9   4    1.53    2.28
  -3   9  -5   49.50    7.77
   3  -9   5   59.72    5.31
  -3   9  -6   -1.43    2.42
   3  -9   6   -2.04    2.14
  -3   9  -7    8.07    2.71
   3  -9   7    5.29    2.40
  -3   9  -8    5.25    2.38
   3  -9   8    5.19    2.24
  -3   9  -9   26.09   10.53
  -3   9  -9    7.66    2.30
  -3   9 -10    9.24    9.99
  -3   9 -11    9.73    4.40
  -3   9 -11    5.28    8.64
  -3   9 -12   30.17    4.89
  -3   9 -12   30.72    7.99
  -3   8   8   16.12    2.17
   3  -8  -8   19.75    3.07
  -3   8   7    6.77    1.93
   3  -8  -7   10.42    2.93
  -3   8   6   10.65    2.36
   3  -8  -6    9.59    3.31
  -3   8   5   -0.78    1.99
   3  -8  -5    0.19    3.11
  -3   8   4   37.17    6.10
  -3   8   4   43.49    4.29
   3  -8  -4   43.40    5.38
  -3   8   3    2.81    4.48
  -3   8   3   -0.28    1.97
   3  -8  -3    0.61    3.08
  -3   8   2  150.63   13.76
   3  -8  -2  181.86   13.42
   3  -8  -2  168.54   13.16
  -3   8   1   36.90    7.59
  -3   8   1   59.65    7.19
   3  -8  -1   59.70    6.19
   3  -8  -1   52.36    5.81
   3  -8   0    8.63    3.53
   3  -8   0    7.88    2.99
  -3   8   0    6.74    4.61
  -3   8  -1   31.00    6.72
  -3   8  -1   28.61    5.74
   3  -8   1   31.34    4.30
  -3   8  -2   -2.70    4.08
  -3   8  -2    3.31    4.74
  -3   8  -2    9.17   13.29
   3  -8   2    2.43    2.78
  -3   8  -3  281.48   18.22
   3  -8   3  288.97   17.56
  -3   8  -4   64.29   16.65
   3  -8   4   64.57    5.74
  -3   8  -5    2.05   14.02
   3  -8   5   19.85    3.26
  -3   8  -6   75.79    6.29
   3  -8   6   67.85    6.11
  -3   8  -7  100.82    7.89
   3  -8   7  103.07    7.88
  -3   8  -8   36.99    4.28
   3  -8   8   38.86    4.43
  -3   8  -9   23.99   11.27
  -3   8  -9   15.45    2.97
  -3   8 -10   27.05   11.05
  -3   8 -10   27.54    6.27
  -3   8 -11    7.74    4.99
  -3   8 -11   -1.38    9.55
  -3   8 -12   50.58    6.51
  -3   8 -12   41.86    9.29
  -3   8 -13    1.86    3.52
  -3   7  10   41.18    3.41
  -3   7   9   38.74    3.60
  -3   7   8  161.97   11.03
  -3   7   7   51.02    4.80
  -3   7   6   47.30    4.68
  -3   7   5    1.03    2.16
  -3   7   4   28.65    3.71
  -3   7   4   22.98    5.38
  -3   7   3   -0.44    2.13
  -3   7   3   -6.17    4.74
  -3   7   2   -0.43    2.18
  -3   7   2    1.60    4.55
  -3   7   1   34.80    7.26
  -3   7   1   45.69    4.51
   3  -7  -1   42.04    5.17
  -3   7   1   43.90    6.62
  -3   7   0   24.12    5.44
   3  -7   0   16.23    3.56
  -3   7  -1    9.51    4.78
  -3   7  -1   14.52    4.98
   3  -7   1   14.66    3.30
  -3   7  -2    6.76    4.74
  -3   7  -2   -0.85   13.10
  -3   7  -2    9.58    4.79
   3  -7   2    8.15    2.93
  -3   7  -3  209.93   15.22
  -3   7  -3  177.08   23.84
   3  -7   3  228.64   14.57
  -3   7  -3  152.22   16.46
  -3   7  -4   49.13    8.46
  -3   7  -4   59.77   17.74
  -3   7  -4   58.53    8.42
   3  -7   4   75.04   16.10
   3  -7   4   63.34    5.53
  -3   7  -5  273.70   31.20
   3  -7   5  346.41   32.19
   3  -7   5  316.24   20.32
  -3   7  -6    8.42    2.74
  -3   7  -6    5.07   13.81
   3  -7   6    9.54    2.81
  -3   7  -7   20.06    3.39
  -3   7  -7   22.96   14.53
   3  -7   7   20.85    3.38
  -3   7  -8   49.45   12.55
  -3   7  -8   39.52    4.67
   3  -7   8   50.97    4.99
  -3   7  -9   23.26   11.66
  -3   7  -9    4.79    2.49
  -3   7 -10   91.05    7.34
  -3   7 -10  104.78   10.52
  -3   7 -10  102.34   13.70
  -3   7 -11   11.52    5.55
  -3   7 -11    7.95   10.21
  -3   7 -12    2.35    4.96
  -3   7 -12   -1.86    9.11
  -3   7 -13   16.62    4.72
  -3   6  11   69.44    5.08
  -3   6  10    5.64    1.85
   3  -6  -9    6.07    4.00
  -3   6   9    9.15    2.44
   3  -6  -8    4.82    4.47
  -3   6   8    0.27    2.17
   3  -6  -7  509.85   32.21
  -3   6   7  474.96   30.45
   3  -6  -6   65.29    7.85
  -3   6   6   67.25    5.99
  -3   6   5  440.84   28.75
   3  -6  -5  404.82   30.08
  -3   6   5  502.85   28.59
  -3   6   4   25.90    3.58
  -3   6   4   27.41    4.02
  -3   6   3   17.22    3.03
  -3   6   3    8.70    4.63
  -3   6   3   17.33    3.54
  -3   6   2  136.46   10.92
  -3   6   2  123.60    9.24
  -3   6   1   46.16    6.18
  -3   6   1   43.13    4.17
  -3   6   0   -0.21    3.93
  -3   6   0    1.42    5.28
  -3   6   0   -0.38    1.93
   3  -6   0   -1.26    2.31
  -3   6  -1   83.49    9.81
  -3   6  -1  101.26    9.05
  -3   6  -1   95.10   17.49
  -3   6  -1   83.64   10.12
   3  -6   1  100.35    7.84
  -3   6  -2    5.37    4.25
  -3   6  -2    8.16    4.59
  -3   6  -2   -2.36   13.16
  -3   6  -2    0.28    4.78
   3  -6   2   -2.02   11.35
   3  -6   2    3.38    2.47
   3  -6   3  144.92   20.47
  -3   6  -3  128.34   10.60
  -3   6  -3  117.81   19.99
  -3   6  -3  138.15   11.65
   3  -6   3  131.73    9.76
  -3   6  -3   95.09   11.61
   3  -6   4   92.62   17.54
  -3   6  -4   79.52   18.45
  -3   6  -4   66.55    9.11
   3  -6   4   87.15    6.63
  -3   6  -5  218.34   14.66
  -3   6  -5  200.83   26.00
   3  -6   5  215.90   25.92
   3  -6   5  226.89   14.79
  -3   6  -6  168.85   11.07
  -3   6  -6  159.30   23.22
   3  -6   6  170.24   11.13
  -3   6  -7  353.67   21.64
   3  -6   7  364.08   21.80
  -3   6  -7  352.62   25.59
  -3   6  -8   -1.20    2.30
   3  -6   8    3.80    2.76
  -3   6  -9  108.42    8.53
  -3   6  -9  122.76   12.01
  -3   6  -9  112.46   14.76
  -3   6 -10    3.43    2.40
   3  -6  10   -0.23    5.36
  -3   6 -10    8.81    5.85
  -3   6 -10    9.92   11.31
  -3   6 -11   31.81    3.56
  -3   6 -11   35.69    7.00
  -3   6 -11   27.40   10.85
  -3   6 -12   24.36    6.08
  -3   6 -13    4.00    4.46
  -3   5  12   10.32    1.68
   3  -5 -11    6.78    3.29
  -3   5  11    6.40    1.95
   3  -5 -10    1.99    3.68
   3  -5  -9  136.89   12.15
  -3   5   9  159.97   10.62
   3  -5  -8   26.49    5.66
  -3   5   8   36.42    4.39
   3  -5  -7   74.53    8.76
  -3   5   7   96.41    7.37
   3  -5  -6  554.27   45.69
  -3   5   6  612.57   37.05
  -3   5   5    3.49    3.37
  -3   5   4  236.52   16.57
  -3   5   4  270.15   16.57
  -3   5   3   50.61    4.82
  -3   5   3   51.95    5.02
  -3   5   2   44.38    7.07
  -3   5   2   58.29    6.44
   3  -5  -2   46.41    8.50
  -3   5   2   47.09    4.59
  -3   5   2   53.66    4.90
  -3   5   1  325.74   19.37
   3  -5  -1  328.94   24.01
  -3   5   1  235.14   19.98
  -3   5   1  268.45   17.89
  -3   5   0   -0.26    4.72
   3  -5   0    5.65    5.52
  -3   5   0    4.63    3.96
  -3   5   0    0.46    1.73
   3  -5   0    1.61    1.99
  -3   5  -1   78.74    7.19
  -3   5  -1   57.84   15.52
  -3   5  -1   58.90    7.90
   3  -5   1   68.00    5.99
  -3   5  -2   12.89    4.44
  -3   5  -2   11.91    5.49
  -3   5  -2   13.16   13.52
  -3   5  -2   10.50    4.48
   3  -5   2   13.09    2.69
  -3   5  -3   12.75    5.32
  -3   5  -3    7.05    4.36
  -3   5  -3    1.54   13.87
   3  -5   3   16.83   12.20
   3  -5   3   16.71    6.12
   3  -5   3   14.39    2.82
  -3   5  -4   29.51   11.25
  -3   5  -4   10.66    2.36
  -3   5  -4    6.81    4.35
  -3   5  -4   13.99   15.07
   3  -5   4    1.04   12.28
   3  -5   4   13.84    6.06
   3  -5   4    8.14    2.27
  -3   5  -5    0.25    1.99
   3  -5   5   -2.00    4.79
  -3   5  -5   -3.51   15.10
   3  -5   5    4.23   11.74
   3  -5   5    0.75    5.42
   3  -5   5    0.88    1.90
  -3   5  -5   -0.40    3.47
  -3   5  -6   85.36   13.54
  -3   5  -6   70.83    6.12
   3  -5   6   52.49    7.80
   3  -5   6   98.18   17.33
   3  -5   6   99.21   10.52
   3  -5   6   83.41    6.27
  -3   5  -6   56.49    8.59
  -3   5  -7  105.60    8.05
   3  -5   7  116.00   10.34
   3  -5   7  108.28    8.14
  -3   5  -7   77.47   10.50
  -3   5  -7  103.21   14.87
  -3   5  -8  354.02   21.38
   3  -5   8  404.95   23.83
  -3   5  -8  383.04   24.85
   3  -5   8  309.08   21.29
  -3   5  -8  350.25   25.36
  -3   5  -9   29.30    4.00
   3  -5   9   43.41    7.41
  -3   5  -9   31.81    7.42
  -3   5  -9   41.57   12.62
  -3   5 -10    1.92    2.41
   3  -5  10    4.45    5.85
  -3   5 -10   13.87    6.34
  -3   5 -10    4.68   11.29
   3  -5  11   79.20    8.72
  -3   5 -11   62.56    8.89
   3  -5  12   18.32    5.47
  -3   5 -12   22.91    6.00
   3  -5  13   -2.29    4.08
  -3   5 -13   -5.24    4.47
  -3   5 -14    8.52    1.82
  -3   4  13    2.51    1.13
  -3   4  12   17.32    2.37
   3  -4 -12   18.89    3.63
   3  -4 -11   24.83    4.78
  -3   4  11   32.83    3.80
   3  -4 -10    3.15    3.87
  -3   4  10    0.54    3.01
  -3   4   9   13.57    3.70
  -3   4   8    5.78    3.59
   3  -4  -7   11.03    6.25
  -3   4   7   14.77    3.90
   3  -4  -6   81.42   12.98
  -3   4   6   93.97    7.55
   3  -4  -5   64.81    9.96
   3  -4  -5   59.07   10.84
  -3   4   5   70.24    6.09
   3  -4  -4   76.21   11.74
   3  -4  -4   68.35    9.77
  -3   4   4   67.08    5.90
  -3   4   3  241.62   16.44
  -3   4   3  258.13   16.38
  -3   4   2  195.06   13.02
  -3   4   2  209.12   13.05
  -3   4   1    4.22    2.52
   3  -4  -1    8.48    5.46
   3  -4   0  608.09   42.03
   3  -4   0  670.44   39.28
   3  -4   1  338.72   26.04
  -3   4  -1  277.49   27.75
   3  -4   1  353.75   23.34
  -3   4  -2   83.99    7.82
  -3   4  -2   61.84   16.12
   3  -4   2   91.37    9.49
  -3   4  -3  352.24   22.43
  -3   4  -3  413.26   24.05
  -3   4  -3  258.45   24.10
  -3   4  -3  373.93   32.32
   3  -4   3  511.40   35.73
   3  -4   3  488.97   26.73
  -3   4  -3  355.26   25.08
  -3   4  -4   14.98   10.67
  -3   4  -4    0.98    1.68
   3  -4   4   -1.97   11.79
   3  -4   4   -1.04    5.43
   3  -4   4    0.11    1.57
  -3   4  -4    2.00    3.64
  -3   4  -5   49.65   12.04
  -3   4  -5   34.15    3.77
   3  -4   5   38.76    6.27
   3  -4   5   41.28   14.90
  -3   4  -5   41.34    7.35
   3  -4   5   39.19    7.56
   3  -4   5   35.99    3.79
  -3   4  -5   36.52    6.21
  -3   4  -6   55.79   12.46
  -3   4  -6   55.92    4.90
   3  -4   6   75.14    7.60
   3  -4   6   65.84   15.72
  -3   4  -6   47.51    8.29
   3  -4   6   48.47    8.48
   3  -4   6   48.47    4.65
  -3   4  -6   36.51    6.83
  -3   4  -7  312.00   19.58
  -3   4  -7  329.52   22.83
   3  -4   7  248.74   19.21
  -3   4  -7  226.13   22.03
  -3   4  -7  306.64   23.69
  -3   4  -8    6.40    2.71
   3  -4   8   20.32    6.44
  -3   4  -8   10.94    6.53
  -3   4  -8   -0.49    3.75
  -3   4  -8    6.13   12.06
  -3   4  -9  110.62    9.40
  -3   4  -9  102.47   12.35
  -3   4  -9  104.89   15.36
   3  -4  10   39.92    7.65
  -3   4 -10   19.96    7.07
   3  -4  11   97.62    9.38
  -3   4 -11   32.83    7.81
   3  -4  12   54.81    6.98
  -3   4 -12   20.93    6.37
   3  -4  13   14.36    4.70
   3  -4  13    9.04    1.97
  -3   4 -14    0.68    1.38
   3  -4  14    1.56    1.31
  -3   3  13   -0.07    1.16
  -3   3  13   -0.37    1.80
  -3   3  12   32.59    3.80
  -3   3  11    0.53    3.10
  -3   3  10   26.33    4.42
  -3   3   9   22.86    4.26
  -3   3   8    5.92    4.07
   3  -3  -8   13.49    6.01
  -3   3   8   14.78    3.93
   3  -3  -7  154.37   18.04
  -3   3   7  168.41   11.69
   3  -3  -6   -1.58    4.38
  -3   3   6   -1.02    3.12
   3  -3  -5   42.30    8.66
  -3   3   5   32.54    4.18
   3  -3  -4  126.53   13.08
   3  -3  -4  126.62   14.32
   3  -3  -4  121.07   11.91
  -3   3   4  111.29    8.36
   3  -3  -3  109.43   11.75
  -3   3   3   84.31   14.98
  -3   3   3   99.00    7.31
   3  -3  -2   13.52    5.30
  -3   3   2   24.77   10.10
   3  -3  -1  692.83   42.86
  -3   3   1  509.05   44.91
   3  -3   0   56.91    8.41
   3  -3   0   45.19    6.77
  -3   3   0   51.32   11.95
   3  -3   1   30.59    7.09
   3  -3   1   31.98    6.25
  -3   3  -1   22.13    9.50
   3  -3   2  202.90   15.50
  -3   3  -2  147.85   19.68
   3  -3   3   33.04   11.77
   3  -3   3   31.56    7.18
  -3   3  -3    9.48    8.92
  -3   3  -4   65.78    5.38
  -3   3  -4   70.09    8.80
   3  -3   4   79.75   15.27
   3  -3   4   84.64    9.93
  -3   3  -4   68.90    7.79
  -3   3  -4   67.46   11.96
  -3   3  -5   99.57    7.84
  -3   3  -5  108.24   11.30
   3  -3   5  116.11   17.93
   3  -3   5  127.47   12.66
   3  -3   5  101.03    7.72
  -3   3  -5  111.87   10.71
  -3   3  -5  100.01   13.89
  -3   3  -6   12.05    2.58
   3  -3   6   15.49    5.61
   3  -3   6    8.50    9.99
  -3   3  -6   16.38    6.76
   3  -3   6    9.81    6.42
   3  -3   6    7.67    2.25
  -3   3  -6    4.35    3.90
  -3   3  -6    4.90   11.45
  -3   3  -7   33.02    4.01
  -3   3  -7   38.56    7.45
   3  -3   7   29.50    3.67
  -3   3  -7   28.56    5.96
  -3   3  -7   24.26   12.43
  -3   3  -8   76.04    6.44
  -3   3  -8   62.47    9.59
   3  -3   8   69.94    6.45
  -3   3  -8   42.36    8.01
  -3   3  -8   55.42   13.52
   3  -3   9    3.11    6.26
  -3   3  -9   -1.88    6.18
  -3   3  -9   -7.90   11.81
   3  -3  10  300.92   16.87
  -3   3 -10  121.01   15.17
   3  -3  11   52.49    8.06
  -3   3 -11   34.24    7.34
   3  -3  12    3.69    5.45
   3  -3  13   84.24    8.49
  -3   3 -13   97.18    7.11
  -3   3 -14   12.96    1.91
   3  -3  14   13.68    1.80
  -3   2  14   27.70    2.63
  -3   2  13   -0.23    2.27
  -3   2  12    8.01    3.15
  -3   2  11   12.51    3.84
  -3   2  10   11.31    3.88
  -3   2   9   33.05    4.75
  -3   2   8   -1.72    4.00
   3  -2  -8    5.82    5.24
  -3   2   8    4.45    3.59
  -3   2   7    0.15    4.00
   3  -2  -7    3.83    4.46
  -3   2   7    1.48    3.14
   3  -2  -6   12.00    5.66
   3  -2  -6   14.41    4.41
  -3   2   6   11.84    3.31
   3  -2  -5   21.89    5.15
   3  -2  -5   20.83    4.59
  -3   2   5   24.67    3.58
   3  -2  -4  115.92   13.08
   3  -2  -4  118.71   11.39
   3  -2  -4  109.66   10.54
  -3   2   4  103.51    7.73
   3  -2  -3  130.93   12.56
   3  -2  -3  120.09   11.32
   3  -2  -3   93.53    9.99
  -3   2   3  110.79   16.28
   3  -2  -2  186.83   15.55
   3  -2  -2  157.02   13.59
  -3   2   2  155.95   19.25
   3  -2  -1  299.37   21.58
   3  -2  -1  311.80   23.51
   3  -2  -1  309.81   22.00
  -3   2   1  275.42   27.05
   3  -2   0  236.69   18.87
   3  -2   0  205.30   16.84
  -3   2   0  215.32   22.50
   3  -2   0  255.44   17.61
   3  -2   1  512.45   34.48
   3  -2   1  446.05   32.14
  -3   2  -1  496.36   38.67
   3  -2   1  510.78   32.80
   3  -2   2   99.83   11.22
   3  -2   2   97.35   10.76
  -3   2  -2   98.70   15.07
   3  -2   3   -0.81    9.43
   3  -2   3    8.07    6.55
  -3   2  -3    5.87    8.44
  -3   2  -4   41.22    3.79
   3  -2   4   44.67    8.74
   3  -2   4   27.04   10.80
  -3   2  -4   42.29    7.37
  -3   2  -4   24.97   10.96
  -3   2  -5  113.32    7.39
  -3   2  -5  129.32   11.60
   3  -2   5  131.21   12.81
  -3   2  -5  108.70   10.20
  -3   2  -5  118.68   13.50
  -3   2  -6   39.24    4.08
   3  -2   6   30.59    5.90
  -3   2  -6   46.18    8.24
   3  -2   6   36.61    8.58
  -3   2  -6   40.84    7.85
  -3   2  -6   35.65    6.43
  -3   2  -6   30.75   12.03
  -3   2  -7   41.20    4.26
   3  -2   7   17.38    5.99
  -3   2  -7   37.59    7.91
  -3   2  -7   18.18    6.84
   3  -2   7   32.39    4.50
  -3   2  -7   37.60   12.34
  -3   2  -8  116.94   11.92
   3  -2   8  128.72    8.42
  -3   2  -8  103.93   14.33
   3  -2   9   34.41    7.66
  -3   2  -9   47.44    8.48
   3  -2  10   10.88    6.34
   3  -2  10    3.36    3.47
   3  -2  11   16.61    6.28
   3  -2  12    6.47    5.21
  -3   2 -12   -1.16    2.28
   3  -2  13    5.19    4.32
  -3   2 -13   27.59    3.05
  -3   1  14    0.44    1.84
  -3   1  13   18.00    3.18
  -3   1  12   65.62    5.97
  -3   1  11   15.39    3.97
  -3   1  10   48.92    5.41
   3  -1  -9   15.35    5.71
  -3   1   9   20.49    3.98
  -3   1   8   39.96    5.55
  -3   1   8   37.32    8.14
   3  -1  -8   43.85    8.20
   3  -1  -8   37.11    6.91
  -3   1   8   52.06    5.10
   3  -1  -7    7.96    3.72
  -3   1   7    6.71    3.97
   3  -1  -7    5.65    4.52
   3  -1  -7    3.68    5.51
  -3   1   7    9.73    3.12
  -3   1   6    1.23    3.71
   3  -1  -6    4.68    5.25
   3  -1  -6    6.86    4.75
   3  -1  -6    4.43    3.22
  -3   1   6    4.64    2.86
  -3   1   5    1.02    3.72
  -3   1   5   -1.89    3.79
   3  -1  -5    4.69    4.51
   3  -1  -5    0.46    2.95
   3  -1  -5    0.41    2.25
  -3   1   5    1.19    2.39
   3  -1  -4   30.36    5.80
   3  -1  -4   28.44    4.96
   3  -1  -3   39.28    6.46
   3  -1  -3   43.14    6.10
  -3   1   3   42.25   10.60
   3  -1  -2    3.14    4.00
   3  -1  -2    1.46    2.58
  -3   1   2    4.09    8.05
   3  -1  -1   67.22    8.77
   3  -1  -1   77.27    8.09
  -3   1   1   54.82   12.33
   3  -1  -1   75.42    7.94
   3  -1   0   64.72    8.52
   3  -1   0   82.30    8.15
   3  -1   0   55.45    7.92
   3  -1   0   68.51    7.13
  -3   1   0   81.56   13.60
   3  -1   1  277.31   21.58
   3  -1   1  301.13   20.94
   3  -1   1  246.12   20.34
   3  -1   1  301.83   20.36
  -3   1  -1  277.85   25.65
   3  -1   2  573.26   35.91
  -3   1  -2  373.81   35.18
   3  -1   3   75.36   11.20
  -3   1  -3   59.59    8.17
  -3   1  -3   69.19    8.88
  -3   1  -3   60.46   11.31
  -3   1  -4    7.02    2.02
   3  -1   4    4.73    7.09
   3  -1   4   -5.12    4.12
  -3   1  -4    4.92    5.92
  -3   1  -4    6.33    5.63
   3  -1   4    7.63    6.70
  -3   1  -4   10.50   10.51
  -3   1  -5    1.44    1.95
   3  -1   5    0.97    4.16
  -3   1  -5   -1.96    5.79
  -3   1  -5    6.06    5.86
   3  -1   5   -3.50    6.92
  -3   1  -5    5.37   11.04
   3  -1   6    1.67    4.44
  -3   1  -6   11.10    6.68
  -3   1  -6   19.12    6.37
   3  -1   6   16.03    7.43
  -3   1  -6   28.12   11.88
  -3   1  -7   42.86    7.93
  -3   1  -7   35.68    7.41
   3  -1   7   47.87    4.90
   3  -1   8    6.21    5.63
  -3   1  -8    1.48    5.85
   3  -1   8    5.90    3.70
  -3   1  -9  344.37   17.37
   3  -1   9  426.03   13.26
   3  -1  10    2.17    5.57
   3  -1  10   -1.24    4.23
  -3   1 -11  127.90    7.39
   3  -1  11   89.72    7.55
   3  -1  12    0.94    4.51
  -3   1 -12    7.08    2.39
  -3   1 -13    0.97    1.56
   3  -1  13    2.09    2.66
  -3   0  14   10.35    2.30
  -3   0  13   39.32    4.21
  -3   0  12    7.34    3.28
  -3   0  11   34.21    4.59
   3   0 -10    5.14    5.50
  -3   0  10   -0.36    3.14
  -3   0   9    5.23    3.71
   3   0  -9    0.82    5.37
   3   0  -9    0.71    3.64
  -3   0   9    0.12    3.04
  -3   0   8    3.83    3.79
  -3   0   8   -1.48    4.10
   3   0  -8    0.66    3.82
   3   0  -8    2.29    2.77
   3   0  -8    0.76    5.69
  -3   0   8   -0.22    2.98
  -3   0   7   90.59   11.60
  -3   0   7   72.24    7.13
   3   0  -7   77.62   11.67
   3   0  -7   80.17   10.67
   3   0  -7   95.31   10.54
  -3   0   6   -0.39    3.56
  -3   0   6    2.38    3.95
   3   0  -6    1.25    4.07
   3   0  -6    2.16    3.59
   3   0  -6    0.49    2.79
  -3   0   5  213.39   16.70
   3   0  -5  212.24   16.29
   3   0  -5  200.86   15.73
   3   0  -5  177.34   14.76
  -3   0   4    1.23    3.28
  -3   0   4    2.89    3.74
   3   0  -4    9.50    3.85
   3   0  -4    2.38    2.55
  -3   0   4    1.41    6.59
   3   0  -3   88.12    9.43
   3   0  -3   80.37    8.72
  -3   0   3   75.92   12.83
   3   0  -2   26.24    5.58
   3   0  -2   31.64    5.64
   3   0  -2   25.38    4.91
  -3   0   2   26.59    9.27
   3   0  -1  100.72    9.49
   3   0  -1   77.32    8.23
  -3   0   1   74.51   12.38
   3   0  -1   90.97    9.09
   3   0   0  101.17    9.84
   3   0   0   97.79    9.35
  -3   0   0   95.86   13.75
   3   0   1  965.98   57.69
  -3   0  -1  868.15   56.45
   3   0   1  930.35   57.18
  -3   0  -1  798.84   60.42
  -3   0  -2  196.74   16.09
  -3   0  -2  172.65   18.99
   3   0   3   35.89    9.81
  -3   0  -3   28.42    6.88
  -3   0  -3   32.94    6.95
  -3   0  -4  341.40   22.58
  -3   0  -4  383.58   23.91
  -3   0  -5    3.39    6.06
  -3   0  -5    1.34    5.25
  -3   0  -6  154.51   13.77
  -3   0  -6  152.34   14.64
   3   0   6  138.53   10.31
  -3   0  -7    3.26    5.78
  -3   0  -7   -4.56    5.21
   3   0   7   -0.24    3.48
  -3   0  -8  165.40   11.59
   3   0   8  147.17   11.17
  -3   0  -9   21.58    3.90
   3   0   9   22.82    4.53
  -3   0 -10   84.30    7.12
   3   0  10   74.22    7.98
  -3   0 -11   16.97    3.19
   3   0  11   13.85    4.39
  -3   0 -12    6.41    2.22
   3   0  12    8.63    3.14
  -3   0 -13    0.85    1.24
   3   0  13   -0.30    2.18
  -3  -1  14   -0.42    2.06
  -3  -1  14   -0.41    2.02
  -3  -1  13   -1.33    2.41
  -3  -1  13    2.56    2.61
  -3  -1  12   69.73    6.01
  -3  -1  11  129.89    9.39
   3   1 -10    1.66    4.62
  -3  -1  10    2.60    2.94
   3   1  -9   53.02   10.45
   3   1  -9   47.47    8.83
  -3  -1   8  335.37   28.28
  -3  -1   8  373.01   21.65
   3   1  -8  273.55   25.73
   3   1  -8  294.64   25.51
   3   1  -8  299.14   27.31
  -3  -1   7   34.78    4.72
  -3  -1   7   43.15    8.54
   3   1  -7   22.53    6.99
   3   1  -7   31.67    6.53
   3   1  -7   31.43    6.07
  -3  -1   6   27.66    4.44
  -3  -1   6   31.74    7.31
   3   1  -6   29.17    5.79
   3   1  -6   16.02    4.42
  -3  -1   6   27.83    3.86
  -3  -1   5  129.23   13.70
  -3  -1   5  108.58    9.03
   3   1  -5  125.53   12.22
   3   1  -5  111.86   11.56
  -3  -1   5  140.83    9.24
  -3  -1   4  258.83   18.03
  -3  -1   4  343.71   23.58
   3   1  -4  313.80   22.08
   3   1  -4  306.78   21.68
  -3  -1   4  259.02   17.54
  -3  -1   4  324.39   18.35
   3   1  -3   44.40    6.72
   3   1  -3   43.09    6.46
  -3  -1   3   53.93   10.76
   3   1  -2  244.78   18.66
   3   1  -2  246.66   18.80
   3   1  -2  240.99   18.23
  -3  -1   2  229.39   21.96
   3   1  -1   40.78    5.86
  -3  -1   1   34.78    9.35
   3   1  -1   43.83    6.20
   3   1   0   21.26    4.72
   3   1   0   26.10    4.98
  -3  -1   0   22.85    8.71
   3   1   1    0.66    5.81
  -3  -1  -1    3.71    4.82
  -3  -1  -1   -0.23    1.79
  -3  -1  -1    4.84    7.12
  -3  -1  -1    3.28    5.46
   3   1   1    1.19    7.40
   3   1   2  528.59   36.67
  -3  -1  -2  417.26   30.39
  -3  -1  -2  439.43   31.03
  -3  -1  -2  462.61   27.50
   3   1   2  408.45   33.89
  -3  -1  -3  304.10   24.34
  -3  -1  -3  315.80   25.07
  -3  -1  -3  387.81   21.41
  -3  -1  -4   17.10    6.22
  -3  -1  -4   11.79    6.13
   3   1   4   12.05    4.96
  -3  -1  -5  195.20   14.80
  -3  -1  -5  172.20   15.29
   3   1   5  133.69   10.46
   3   1   5  159.46   14.72
  -3  -1  -6  464.66   30.58
  -3  -1  -6  402.28   31.36
   3   1   6  472.61   27.22
   3   1   7  220.24   14.77
  -3  -1  -8   18.35    3.59
   3   1   8   19.57    4.06
  -3  -1  -9    3.17    2.69
   3   1   9   -1.05    4.84
  -3  -1 -10    9.59    2.77
   3   1  10    6.60    4.42
  -3  -1 -11   17.13    2.93
   3   1  11   21.46    4.15
   3   1  12    1.46    2.62
   3   1  12    1.16    2.63
  -3  -2  14   35.27    3.58
  -3  -2  14   30.35    3.31
  -3  -2  13   -0.23    2.51
  -3  -2  12   75.47    6.48
  -3  -2  11  167.25   11.88
  -3  -2  10   83.35    5.94
   3   2 -10   15.24    6.61
   3   2  -9   27.40    6.94
  -3  -2   9    8.26    8.70
  -3  -2   8  188.87   18.85
  -3  -2   8  219.40   12.27
  -3  -2   7   24.80    4.32
  -3  -2   7   26.63    8.03
   3   2  -7   28.06    5.74
  -3  -2   7    9.14    7.96
  -3  -2   7   32.75    4.26
  -3  -2   7   33.21    6.46
  -3  -2   6  199.83   11.44
  -3  -2   6  164.68   16.76
   3   2  -6  186.95   15.41
   3   2  -6  156.49   14.23
  -3  -2   6  190.27   11.47
  -3  -2   6  178.92   13.05
  -3  -2   6  195.12   11.32
  -3  -2   5  479.88   30.41
  -3  -2   5  513.41   36.45
   3   2  -5  479.35   34.38
   3   2  -5  409.43   33.44
  -3  -2   5  522.99   30.71
  -3  -2   5  509.68   30.61
  -3  -2   4    7.65    3.34
  -3  -2   4   14.73    5.74
  -3  -2   4    6.42    9.07
  -3  -2   4    7.70    4.99
   3   2  -4   10.02    3.38
   3   2  -4    9.40    3.37
  -3  -2   4   10.39    3.22
  -3  -2   4   10.63    3.20
  -3  -2   4    7.51    2.97
  -3  -2   3  399.83   29.53
  -3  -2   3  413.84   25.80
  -3  -2   3  429.72   27.26
   3   2  -3  397.31   27.88
  -3  -2   3  377.96   29.38
   3   2  -3  384.16   27.99
   3   2  -3  406.75   27.80
  -3  -2   3  354.36   23.96
  -3  -2   3  426.67   24.82
  -3  -2   3  390.74   24.72
  -3  -2   3  403.85   24.55
  -3  -2   2  103.73    9.53
  -3  -2   2   84.41   13.23
   3   2  -2  104.80   10.37
  -3  -2   2  105.16    7.42
   3   2  -2  108.04   10.50
  -3  -2   2  111.43   10.94
  -3  -2   2  116.26    8.44
  -3  -2   2  105.64    8.28
  -3  -2   2  111.67    8.02
  -3  -2   1  651.79   41.16
  -3  -2   1  607.28   39.50
   3   2  -1  650.35   42.07
  -3  -2   1  564.65   42.83
   3   2  -1  645.56   42.07
  -3  -2   1  614.71   38.07
  -3  -2   1  649.02   38.79
  -3  -2   1  607.57   38.75
  -3  -2   1  686.41   38.57
   3   2   0    9.59    6.55
  -3  -2   0    4.03    5.94
   3   2   0   10.33    3.64
  -3  -2   0    6.68    8.66
  -3  -2   0    1.43    4.90
  -3  -2   0    8.16    2.19
  -3  -2   0   13.60    3.71
   3   2   0   11.50    7.81
  -3  -2  -1  460.72   29.31
   3   2   1  532.09   36.91
  -3  -2  -1  469.99   31.22
  -3  -2  -1  378.61   32.33
  -3  -2  -1  393.50   30.76
  -3  -2  -1  456.53   27.72
   3   2   1  430.93   34.53
  -3  -2  -2  264.77   19.78
  -3  -2  -2  240.45   20.06
  -3  -2  -2  277.19   16.30
   3   2   2  285.38   20.99
   3   2   2  240.78   23.44
   3   2   3    6.88    8.18
  -3  -2  -3   11.86    6.39
  -3  -2  -3    6.56    5.60
  -3  -2  -3   10.02    2.24
   3   2   3    1.93    4.04
   3   2   3    9.19    8.87
  -3  -2  -4   71.73    9.80
  -3  -2  -4   68.26    9.97
  -3  -2  -4   89.02    5.97
   3   2   4   60.17    9.28
   3   2   4   52.80   12.85
   3   2   5  242.57   20.54
   3   2   6  118.47    8.81
   3   2   7  232.27   15.34
  -3  -2  -8  195.15   13.71
   3   2   8  198.59   14.69
  -3  -2  -9   64.32    5.93
   3   2   9   63.00    7.13
  -3  -2 -10    5.52    2.33
   3   2  10   11.45    4.04
   3   2  11    0.13    2.88
   3   2  11    1.42    2.82
  -3  -3  14    2.21    2.07
  -3  -3  13    3.12    2.43
  -3  -3  13    2.80    2.25
  -3  -3  12    5.27    2.81
  -3  -3  11    3.08    2.90
  -3  -3  10   26.95    3.89
  -3  -3  10   17.25    3.73
  -3  -3  10   19.30    3.72
  -3  -3   9   73.59    5.99
  -3  -3   9   57.88    5.88
  -3  -3   9   62.57    5.91
  -3  -3   8  255.95   15.36
  -3  -3   8  208.13   15.29
  -3  -3   8  227.23   16.86
  -3  -3   8  217.83   15.27
  -3  -3   7  111.88    8.06
  -3  -3   7   91.07    7.99
  -3  -3   7  106.51   10.04
  -3  -3   7   98.53    7.98
  -3  -3   6 1483.59   81.65
  -3  -3   6 1242.69   88.19
  -3  -3   6 1358.10   81.91
  -3  -3   6 1347.71   83.07
  -3  -3   6 1313.54   81.73
  -3  -3   6 1342.23   81.75
  -3  -3   5    0.43    3.19
  -3  -3   5    6.27    4.70
   3   3  -5    0.43    2.17
  -3  -3   5    1.27    2.93
  -3  -3   5   -2.96    5.81
  -3  -3   5    7.96    3.27
  -3  -3   5    0.39    3.02
  -3  -3   4   14.90    3.52
  -3  -3   4   18.25    5.38
  -3  -3   4    4.85    8.97
   3   3  -4    8.01    3.32
  -3  -3   4   10.03    3.41
  -3  -3   4    6.91    3.31
  -3  -3   4    9.50    3.23
  -3  -3   3   47.51    6.73
  -3  -3   3   46.70   10.93
   3   3  -3   46.11    6.73
  -3  -3   3   46.81    5.23
  -3  -3   3   47.34    5.16
  -3  -3   3   47.01    4.88
  -3  -3   2   18.41    6.34
  -3  -3   2   12.85    5.34
  -3  -3   2   12.61    9.59
   3   3  -2    7.06    3.56
  -3  -3   2    8.81    2.33
  -3  -3   2    8.72    3.67
  -3  -3   2    7.33    3.50
  -3  -3   2   14.53    3.31
  -3  -3   1  199.52   14.15
   3   3  -1  213.19   19.82
  -3  -3   1  185.98   15.58
  -3  -3   1  165.39   18.00
  -3  -3   1  180.41   12.07
  -3  -3   1  195.36   13.05
   3   3  -1  183.36   15.79
  -3  -3   1  175.30   12.94
  -3  -3   1  188.13   12.70
  -3  -3   0  344.97   21.83
   3   3   0  280.43   27.23
  -3  -3   0  331.94   23.43
  -3  -3   0  278.96   25.25
   3   3   0  328.53   29.82
  -3  -3   0  313.53   19.89
  -3  -3   0  334.21   20.80
   3   3   0  324.02   24.02
  -3  -3   0  353.67   20.57
  -3  -3  -1   -6.07    6.13
   3   3   1    1.76    6.48
  -3  -3  -1   -2.34    8.63
   3   3   1    2.93    9.62
  -3  -3  -1    3.62    2.03
   3   3   1   -1.42    4.02
  -3  -3  -1    6.37    5.05
   3   3   1    3.63    7.47
   3   3   2   44.63   14.04
  -3  -3  -2  158.07   13.51
   3   3   2   78.63   17.03
  -3  -3  -2  168.75    9.38
   3   3   2  113.51   12.97
   3   3   2   78.93   14.88
  -3  -3  -3   40.35    8.14
  -3  -3  -3   52.30    4.20
   3   3   3   33.26    7.13
   3   3   3   20.07    9.38
  -3  -3  -4   25.23    2.91
   3   3   4   15.72    5.52
   3   3   4   15.07    8.70
  -3  -3  -5  244.48   15.48
   3   3   6  206.34   15.06
   3   3   7    1.41    4.05
  -3  -3  -8  118.49    9.22
   3   3   8  119.57    9.93
  -3  -3  -9   88.02    7.08
   3   3   9   93.75    7.97
   3   3  10   12.07    3.39
   3   3  11   14.53    2.59
  -3  -4  14   24.39    2.88
  -3  -4  13   32.21    3.68
  -3  -4  12    1.73    2.58
  -3  -4  12    2.61    2.44
  -3  -4  11    5.69    7.32
  -3  -4  11   10.04    3.01
  -3  -4  11   10.71    3.01
  -3  -4  11   11.23    3.04
  -3  -4  10    3.85    7.50
  -3  -4  10    0.75    2.82
  -3  -4  10   -0.84    5.09
  -3  -4  10    0.28    2.84
  -3  -4  10    0.27    2.77
  -3  -4   9    5.28    3.25
  -3  -4   9    3.25    2.97
  -3  -4   9    4.08    5.70
  -3  -4   9    3.11    2.97
  -3  -4   9   -1.42    2.99
  -3  -4   8   79.90    7.70
  -3  -4   8   83.94    9.49
  -3  -4   8  101.68    7.91
  -3  -4   8   85.75    7.63
  -3  -4   7  397.82   22.14
  -3  -4   7  337.51   22.28
  -3  -4   7  346.66   23.82
  -3  -4   7  318.74   22.14
  -3  -4   7  325.54   22.09
  -3  -4   6   10.92    3.56
  -3  -4   6    6.39    3.36
  -3  -4   6    3.37    5.79
  -3  -4   6    6.82    3.51
  -3  -4   6    2.49    3.08
  -3  -4   5  738.20   39.85
  -3  -4   5  616.82   40.06
  -3  -4   5  619.58   41.35
  -3  -4   5  620.19   40.08
  -3  -4   5  642.18   39.98
  -3  -4   4  127.18    8.47
  -3  -4   4  104.16   14.96
   3   4  -4  107.47   16.56
  -3  -4   4  107.35    8.75
  -3  -4   4  100.30   10.40
  -3  -4   4  100.23    8.61
  -3  -4   4  110.53    8.57
  -3  -4   3   45.24   11.89
   3   4  -3   48.77   12.51
  -3  -4   3   57.65    5.86
  -3  -4   3   54.78    7.81
  -3  -4   3   59.98    5.97
  -3  -4   3   56.00    5.47
  -3  -4   2   36.62   11.12
   3   4  -2   28.52   10.86
  -3  -4   2   39.36    3.70
  -3  -4   2   44.28    5.12
  -3  -4   2   34.91    4.88
  -3  -4   2   38.53    4.70
  -3  -4   1   45.48    8.27
  -3  -4   1   47.78   11.43
   3   4  -1   35.02   12.29
  -3  -4   1   49.04    4.34
  -3  -4   1   60.15    5.79
  -3  -4   1   50.00    5.28
  -3  -4   0  194.03   16.27
  -3  -4   0  194.36   19.28
   3   4   0  110.02   20.17
  -3  -4   0  209.32   12.49
   3   4   0  128.33   15.46
   3   4   0  103.84   17.19
  -3  -4   0  237.21   13.45
  -3  -4  -1  241.20   17.86
   3   4   1   92.95   20.59
  -3  -4  -1  251.87   13.98
   3   4   1  182.04   17.92
   3   4   1  127.81   19.32
  -3  -4  -2   89.87   10.14
  -3  -4  -2   66.56   11.23
  -3  -4  -2   91.81    6.15
   3   4   2   50.78    9.00
   3   4   2   51.05   12.17
  -3  -4  -3   38.45    3.75
  -3  -4  -4  214.31   13.78
  -3  -4  -5  162.60   10.41
  -3  -4  -5  142.04   11.64
  -3  -4  -6    6.34    1.93
  -3  -4  -6    5.75    3.65
  -3  -4  -7  242.83   16.11
   3   4   7  232.83   16.35
  -3  -4  -8    7.05    2.70
   3   4   8    6.01    3.51
  -3  -4  -9   -0.28    1.72
   3   4   9   -1.88    2.67
   3   4  10   16.82    2.91
  -3  -5  13    3.50    2.03
  -3  -5  13   -0.77    2.11
  -3  -5  12   24.42    3.31
  -3  -5  12   23.21    3.39
  -3  -5  11   78.27    6.12
  -3  -5  11   78.85    7.52
  -3  -5  11   85.63    6.22
  -3  -5  10    4.78    7.31
  -3  -5  10   12.64    3.24
  -3  -5  10   10.99    5.44
  -3  -5  10   10.43    3.21
  -3  -5  10   12.38    2.97
  -3  -5   9   50.41    5.29
  -3  -5   9   39.91    7.09
  -3  -5   9   54.21    5.33
  -3  -5   9   50.03    5.06
  -3  -5   8   18.90    3.65
  -3  -5   8   20.62    6.27
  -3  -5   8   19.02    3.92
  -3  -5   8   20.22    3.63
  -3  -5   7   48.05    5.06
  -3  -5   7   38.98    7.03
  -3  -5   7   41.19    5.10
  -3  -5   7   43.67    4.84
  -3  -5   6   93.98    7.79
  -3  -5   6  100.81    9.84
  -3  -5   6   94.32    7.96
  -3  -5   6   91.63    7.59
  -3  -5   5    1.70    6.04
  -3  -5   5   -0.15    3.36
  -3  -5   5    4.03    5.63
  -3  -5   5    1.76    3.12
  -3  -5   5    6.69    3.05
  -3  -5   4   43.55    5.21
  -3  -5   4   37.01    7.07
  -3  -5   4   42.33    5.27
  -3  -5   4   43.08    4.89
  -3  -5   3   81.53    7.29
  -3  -5   3   77.71    8.92
  -3  -5   3   83.29    7.39
  -3  -5   3   85.02    7.06
  -3  -5   2  419.82   26.66
  -3  -5   2  421.58   26.45
  -3  -5   1    2.42    1.90
  -3  -5   0   31.87    3.34
  -3  -5  -1   20.79    2.87
  -3  -5  -2   96.77    6.60
  -3  -5  -2   74.40    7.56
  -3  -5  -3   21.58    2.88
  -3  -5  -3   17.18    4.22
  -3  -5  -4   20.49    2.83
  -3  -5  -4   22.47    4.39
  -3  -5  -5   72.55    5.41
  -3  -5  -5   66.67    6.70
  -3  -5  -6   56.35    5.60
  -3  -5  -7   52.78    4.94
  -3  -5  -8    7.20    1.96
  -3  -6  13   13.39    2.32
  -3  -6  12    4.25    2.22
  -3  -6  12    4.03    2.29
  -3  -6  11   47.28    4.31
  -3  -6  11   46.92    4.46
  -3  -6  10    6.94    6.88
  -3  -6  10   19.77    3.29
  -3  -6  10   16.67    5.15
  -3  -6  10   16.45    3.37
  -3  -6   9    0.64    2.75
  -3  -6   9    6.74    5.08
  -3  -6   9    0.84    2.82
  -3  -6   8  124.87    9.65
  -3  -6   8  114.82   11.13
  -3  -6   8  131.66    9.88
  -3  -6   8  144.91    9.53
  -3  -6   7   33.31    4.42
  -3  -6   7   22.89    6.40
  -3  -6   7   32.36    4.46
  -3  -6   7   37.04    4.32
  -3  -6   6   38.44    6.79
  -3  -6   6   34.36    4.57
  -3  -6   6   40.40    6.77
  -3  -6   6   36.54    4.76
  -3  -6   6   42.32    4.59
  -3  -6   6   25.42    8.15
  -3  -6   5   42.66    7.01
  -3  -6   5   37.51    4.83
  -3  -6   5   39.94    6.84
  -3  -6   5   39.31    4.98
  -3  -6   5   44.51    4.76
  -3  -6   4  113.71    8.36
  -3  -6   4   96.51    8.30
  -3  -6   4   98.54    8.00
  -3  -6   3  187.42   12.83
  -3  -6   0   17.87    2.56
  -3  -6  -1  108.63    7.57
  -3  -6  -2    9.85    2.20
  -3  -6  -2    6.82    3.30
  -3  -6  -3    6.13    2.02
  -3  -6  -3    5.53    3.10
  -3  -6  -4    2.25    1.68
  -3  -6  -4    3.45    2.90
  -3  -6  -5   -1.02    2.57
  -3  -6  -6    2.44    2.12
  -3  -6  -7    3.08    1.52
   3   6   7    1.91    2.26
  -3  -7  12    1.29    1.86
  -3  -7  11   50.41    4.47
  -3  -7  10    6.75    2.60
  -3  -7   9   20.26    5.02
  -3  -7   9   15.84    3.14
  -3  -7   8    9.24    4.93
  -3  -7   8   11.95    3.16
  -3  -7   7   17.72    5.75
  -3  -7   7   17.22    5.39
  -3  -7   7   12.84    3.45
  -3  -7   7   23.44    3.33
  -3  -7   6   94.64   11.28
  -3  -7   6  115.75   10.47
  -3  -7   6  129.43    9.40
  -3  -7   6  138.44    9.02
  -3  -7   6  117.77   10.53
  -3  -7   5    0.33    5.51
  -3  -7   5    1.10    7.19
  -3  -7   4    8.35    5.64
  -3  -7   4    4.45    7.47
  -3  -7   3  112.14   11.30
  -3  -7   2   23.49    7.72
  -3  -7   1    4.22    7.18
  -3  -7   0  300.93   18.13
  -3  -7   0  267.73   20.12
  -3  -7  -1   -0.91    1.52
  -3  -7  -2    3.09    1.53
  -3  -7  -2    5.80    2.59
  -3  -7  -3   19.86    3.02
  -3  -7  -4   10.41    2.30
  -3  -7  -5   22.69    2.68
  -3  -7  -6   16.91    1.98
  -3  -8  10    3.62    2.05
  -3  -8   9    2.82    2.23
  -3  -8   8    9.67    4.16
  -3  -8   8    8.49    4.64
  -3  -8   7    5.92    4.80
  -3  -8   6   -1.24    4.89
  -3  -8   6   -1.34    6.08
  -3  -8   5  109.30   11.56
  -3  -8   5  170.51   11.30
  -3  -8   4   47.49    6.31
  -3  -8   4   33.51    7.42
  -3  -8   3  100.25   10.58
  -3  -8   3  138.60   10.10
  -3  -8   2   21.85    7.11
  -3  -8   2   54.15    6.24
  -3  -8   1    4.22    4.59
  -3  -8   1    1.94    5.02
  -3  -8   1   -1.01    5.96
  -3  -8   0   80.33    7.98
  -3  -8  -1    7.13    4.69
  -3  -8  -2    7.81    4.37
  -3  -8  -3    3.01    3.66
  -3  -8  -3    1.56    1.29
  -3  -9   8    0.83    3.37
  -3  -9   7    0.48    3.57
  -3  -9   6    9.28    4.06
  -3  -9   6    7.52    4.39
  -3  -9   5   91.81    8.68
  -3  -9   5  124.32    8.62
  -3  -9   4   20.04    4.39
  -3  -9   4   17.93    4.95
  -3  -9   3    2.80    3.91
  -3  -9   3    6.75    4.56
  -3  -9   2   48.60    6.07
  -3  -9   2   61.87    5.74
  -3  -9   1   29.88    4.20
  -3  -9   1   17.03    4.57
  -3  -9   0   10.66    3.33
  -3  -9   0    9.61    3.71
  -4  11   2    4.86    2.29
  -4  11   1    7.26    2.73
   4 -11  -1    5.88    1.27
  -4  11   0    8.96    2.94
  -4  11   0    2.84    3.32
   4 -11   0    6.52    1.39
  -4  11  -1    0.92    1.14
  -4  11  -1    2.23    2.77
  -4  11  -1   -2.81    3.56
   4 -11   1    0.34    1.21
  -4  11  -2   24.69    2.46
   4 -11   2   23.10    2.40
  -4  11  -2   21.43    4.56
  -4  11  -3   23.15    2.31
   4 -11   3   16.36    2.12
  -4  11  -3   18.53    4.50
  -4  11  -4    2.24    1.40
  -4  11  -4    1.95    3.35
   4 -11   4    0.49    1.21
  -4  11  -5   -0.80    1.30
  -4  11  -5   -2.57    3.41
  -4  11  -6   84.29    5.84
  -4  11  -7    4.61    1.23
   4 -10  -4    1.62    1.33
  -4  10   3   -1.09    2.75
   4 -10  -3    0.61    1.44
  -4  10   2    6.89    3.18
   4 -10  -2    2.31    1.76
  -4  10   1   57.90    5.44
   4 -10  -1   44.04    4.20
  -4  10   0    2.65    3.33
  -4  10   0    3.21    4.05
  -4  10  -1   49.29    5.54
   4 -10   1   43.98    3.89
  -4  10  -2    0.10    1.62
  -4  10  -2   -0.52    3.48
   4 -10   2   -0.61    1.83
  -4  10  -2    0.99    4.14
  -4  10  -3    5.90    1.95
   4 -10   3    5.19    1.93
  -4  10  -3    9.35    4.59
  -4  10  -4   11.70    2.24
   4 -10   4   10.37    2.18
  -4  10  -4    7.54    4.42
  -4  10  -5    4.38    1.85
   4 -10   5    5.51    1.87
  -4  10  -6    0.09    1.61
   4 -10   6   -0.73    1.59
  -4  10  -7   17.87    2.36
   4 -10   7   16.40    2.35
  -4  10  -8   16.92    2.16
  -4  10  -9    0.67    1.07
  -4   9   6   -2.16    2.16
   4  -9  -6    0.09    1.26
   4  -9  -5   12.91    2.29
   4  -9  -4    0.26    1.76
  -4   9   3   54.11    5.65
   4  -9  -3   41.12    4.49
  -4   9   2    0.18    3.52
   4  -9  -2    1.70    2.14
  -4   9   1   15.70    4.42
   4  -9  -1   18.02    3.22
  -4   9   1    6.42    4.83
  -4   9   0    0.61    3.84
   4  -9   0    2.68    2.56
  -4   9   0    0.28    4.70
  -4   9  -1    0.21    3.86
  -4   9  -1   -0.29    4.67
  -4   9  -2   61.01    6.71
   4  -9   2   59.76    5.03
  -4   9  -3   -0.12    1.89
  -4   9  -3   -0.20    3.81
   4  -9   3   -0.37    2.07
  -4   9  -3   -3.48    4.80
  -4   9  -4   11.56    2.54
   4  -9   4   10.26    2.51
  -4   9  -4    8.09    4.92
  -4   9  -5   20.90    3.02
   4  -9   5   20.68    3.05
  -4   9  -5   13.00    4.94
  -4   9  -6    1.12    1.94
   4  -9   6    1.60    1.99
  -4   9  -7   33.40    3.60
   4  -9   7   37.56    3.75
  -4   9  -8   21.49    2.75
  -4   9  -8    9.88    8.43
  -4   9  -9   25.25    2.77
  -4   9  -9   14.63    7.84
  -4   9 -10    1.98    1.25
  -4   9 -10    0.10    6.54
   4  -8  -8    2.24    1.19
  -4   8   7   -1.44    2.38
   4  -8  -7   -0.20    1.43
   4  -8  -6   -0.50    1.75
   4  -8  -5    1.30    2.03
   4  -8  -4  104.31    8.23
  -4   8   3   26.49    4.88
   4  -8  -3   24.26    3.86
  -4   8   2  489.76   33.42
   4  -8  -2  562.09   33.33
  -4   8   1    3.24    4.01
   4  -8  -1    3.14    2.71
  -4   8   1   -0.31    4.85
  -4   8   0   22.07    5.09
   4  -8   0   24.72    3.91
  -4   8   0   13.95    5.81
  -4   8  -1    2.48    4.20
   4  -8   1    0.19    2.59
  -4   8  -1   -0.32    5.05
  -4   8  -2   14.83    4.65
  -4   8  -2   10.23    5.52
  -4   8  -3    2.99    2.05
  -4   8  -3    5.34    4.17
   4  -8   3    2.03    2.24
  -4   8  -3    1.57    4.90
  -4   8  -4  126.63    8.96
  -4   8  -4  103.57   11.02
   4  -8   4  128.70    9.19
  -4   8  -5   32.35    3.90
   4  -8   5   37.24    4.21
  -4   8  -6    1.26    2.29
   4  -8   6    3.13    2.33
  -4   8  -7   13.40    2.80
   4  -8   7   11.21    2.73
  -4   8  -7    5.16    9.90
  -4   8  -8   58.90    4.96
   4  -8   8   52.65    5.02
  -4   8  -8   41.44   10.44
  -4   8  -9   14.59    2.43
  -4   8  -9    2.90    8.79
  -4   8 -10   95.74    6.65
  -4   8 -10   79.36   10.25
  -4   8 -11    5.37    3.20
  -4   7   9   -0.18    0.95
   4  -7  -9   -0.23    1.15
  -4   7   8   -1.08    2.41
  -4   7   8   -0.47    1.27
   4  -7  -8   -0.11    1.53
  -4   7   7   25.53    4.01
   4  -7  -7   25.17    3.50
  -4   7   6    5.43    2.00
   4  -7  -6    4.82    2.33
  -4   7   5   -1.10    1.97
   4  -7  -5   -0.17    2.11
  -4   7   4   26.03    3.31
   4  -7  -4   19.86    3.50
  -4   7   3  422.07   29.61
   4  -7  -3  401.86   29.16
  -4   7   2   45.50    6.00
   4  -7  -2   43.98    4.93
  -4   7   1   60.03    6.65
   4  -7  -1   50.46    5.39
  -4   7   0    3.88    4.31
   4  -7   0    3.08    2.71
  -4   7   0   -2.64    5.18
  -4   7  -1    1.16    4.03
   4  -7   1   -0.58    2.37
  -4   7  -1    0.99    5.10
  -4   7  -2    3.70    4.28
   4  -7   2   -1.23   10.45
  -4   7  -2    1.31    5.12
  -4   7  -3  211.34   14.16
  -4   7  -3  203.95   16.79
   4  -7   3  239.39   14.56
  -4   7  -4   52.09    4.91
   4  -7   4   61.18    5.27
  -4   7  -4   46.26    7.49
  -4   7  -5    2.13    2.25
   4  -7   5    6.70    2.49
  -4   7  -6   38.72    4.40
   4  -7   6   43.40    4.57
  -4   7  -6   40.92   11.25
  -4   7  -7  133.87    9.42
   4  -7   7  128.87    9.46
  -4   7  -7  107.39   13.95
  -4   7  -8   90.13    6.81
   4  -7   8   79.27    6.73
  -4   7  -8   76.87   11.97
  -4   7  -9   26.66    3.29
  -4   7  -9   22.06    5.55
  -4   7  -9   24.09    9.80
  -4   7 -10    1.60    4.14
  -4   7 -10    7.18    8.27
  -4   7 -11   36.09    5.25
  -4   6  10    6.04    1.27
  -4   6   9    2.18    1.41
  -4   6   8   16.07    3.56
  -4   6   8   27.69    2.96
  -4   6   7   19.98    4.26
  -4   6   7   43.24    3.84
  -4   6   6   34.87    3.82
  -4   6   5   91.19    7.13
  -4   6   4   20.49    2.90
   4  -6  -4   11.25    2.87
  -4   6   3    1.64    2.07
   4  -6  -3    0.74    2.17
  -4   6   2  106.01    8.46
   4  -6  -2   77.35    6.81
  -4   6   1   -0.89    4.20
   4  -6  -1    0.74    2.27
  -4   6   1   -3.94    5.33
  -4   6   0   29.11    5.25
  -4   6   0   25.36   10.69
   4  -6   0   24.67    3.66
  -4   6   0    9.55    6.18
  -4   6  -1  351.69   20.25
  -4   6  -1  260.47   20.77
   4  -6   1  266.35   29.76
  -4   6  -1  183.30   26.97
   4  -6   1  275.50   18.83
  -4   6  -2   83.35    8.33
  -4   6  -2   71.21    9.02
   4  -6   2   67.41   16.63
  -4   6  -3  671.62   42.29
  -4   6  -3  693.86   44.94
   4  -6   3  728.02   56.10
   4  -6   3  723.52   42.54
  -4   6  -4    2.22    2.18
   4  -6   4   -3.98    5.63
   4  -6   4   10.05   12.28
  -4   6  -4    0.31    5.03
   4  -6   4    2.18    2.22
  -4   6  -5    2.43    2.25
   4  -6   5    5.67    5.47
   4  -6   5    6.13   10.51
   4  -6   5    1.80    2.13
  -4   6  -5   -0.21   10.86
  -4   6  -6    7.02    2.58
   4  -6   6   13.24    5.78
   4  -6   6    4.85    2.46
  -4   6  -6   -0.86   11.06
  -4   6  -7    0.83    2.31
   4  -6   7    4.70    5.36
  -4   6  -7    2.25    5.49
   4  -6   7   -0.14    2.31
  -4   6  -7   -0.43   11.01
  -4   6  -8   95.60    7.72
  -4   6  -8   85.87   10.14
  -4   6  -8   84.99   12.93
  -4   6  -9   27.27    3.56
   4  -6   9   40.25    6.18
  -4   6  -9   23.25    6.01
  -4   6  -9   21.52    9.94
   4  -6  10   53.03    6.43
  -4   6 -10   41.77    6.59
  -4   6 -10   41.95    9.75
   4  -6  11    0.85    3.60
  -4   6 -11    3.79    3.98
  -4   6 -12    0.15    3.00
  -4   5  10   62.28    4.68
  -4   5   9   70.47    6.56
  -4   5   9   76.99    6.11
  -4   5   8   20.09    4.09
  -4   5   8   26.83    3.23
  -4   5   7   13.16    2.61
  -4   5   7   19.19    3.61
  -4   5   6    5.22    2.18
  -4   5   6    7.29    3.46
  -4   5   5   12.10    2.70
  -4   5   5   15.59    3.78
   4  -5  -4    3.55    4.63
  -4   5   4    2.42    1.94
   4  -5  -3    2.87    4.92
  -4   5   3    3.07    1.93
  -4   5   2    2.32    3.91
   4  -5  -2    5.03    5.37
  -4   5   2    1.97    1.95
  -4   5   2   -0.32    4.74
  -4   5   1   77.26    9.52
  -4   5   1  107.46    8.87
   4  -5  -1   71.23   11.82
  -4   5   1   73.84   15.91
  -4   5   0   24.46   11.19
  -4   5   0   14.17    6.53
  -4   5  -1   71.65    9.64
  -4   5  -1   80.61   15.87
   4  -5   1   87.00    7.03
   4  -5   2   -1.22   12.07
  -4   5  -2   -3.82    9.99
  -4   5  -2   -1.27    5.21
   4  -5   2   -0.87    1.92
  -4   5  -3   77.28    9.07
   4  -5   3   81.76   17.83
   4  -5   3   90.87   10.33
  -4   5  -3   60.68   14.10
   4  -5   3   68.80    5.87
  -4   5  -4    7.06    2.34
   4  -5   4   14.94    6.09
   4  -5   4    6.23   11.10
   4  -5   4    8.76    2.34
  -4   5  -4   -7.18   11.65
  -4   5  -5    9.94    2.58
   4  -5   5   30.38    6.70
   4  -5   5   10.99   11.77
   4  -5   5   13.90    2.70
  -4   5  -5    8.95   11.39
  -4   5  -6   39.39    4.47
  -4   5  -6   39.03    7.62
   4  -5   6   39.67    4.35
  -4   5  -6   34.20   11.75
  -4   5  -7    5.61    2.62
   4  -5   7   21.75    6.26
  -4   5  -7    4.12    5.71
   4  -5   7    3.92    2.35
  -4   5  -7   11.04   10.81
  -4   5  -8    9.61    2.95
   4  -5   8   28.76    6.73
  -4   5  -8   12.65    6.07
  -4   5  -8    8.69   10.55
  -4   5  -9    0.62    5.20
  -4   5  -9   -1.36    9.80
   4  -5  10   81.42    7.56
  -4   5 -10   31.90    6.76
   4  -5  11   -3.81    4.13
  -4   5 -11    0.67    3.92
   4  -5  12    2.85    3.03
  -4   5 -12   -0.48    3.09
  -4   4  11   15.41    2.30
  -4   4  10    3.43    1.45
  -4   4  10    3.90    2.36
  -4   4   9   45.38    5.18
  -4   4   9   52.11    4.47
  -4   4   9   61.09    5.08
  -4   4   8   10.59    3.72
  -4   4   8   11.17    2.35
  -4   4   8   18.09    3.61
  -4   4   7   12.84    4.09
  -4   4   7   21.30    3.02
  -4   4   6   43.67    6.52
   4  -4  -6   59.70    9.86
  -4   4   6   76.32    5.97
  -4   4   6   96.87    6.64
   4  -4  -5   75.37   11.29
  -4   4   5   82.81    6.78
  -4   4   5   96.80    7.24
   4  -4  -4   23.85    7.01
  -4   4   4   23.67    3.11
  -4   4   4   28.39    4.12
   4  -4  -3    7.03    4.97
  -4   4   3   -0.25    1.77
  -4   4   3    0.31    4.88
  -4   4   3    0.11    3.05
  -4   4   2  493.27   35.88
  -4   4   2  454.74   44.92
  -4   4   2  562.76   33.59
  -4   4   1  177.16   14.83
   4  -4  -1  197.36   18.73
  -4   4   1  165.97   22.81
  -4   4   0  211.64   16.67
   4  -4   0  239.85   20.83
  -4   4   0  174.34   24.09
  -4   4  -1    1.24    9.12
  -4   4  -1    0.62    4.98
  -4   4  -2   68.65    8.59
   4  -4   2   37.61   14.87
   4  -4   2   72.33    9.18
  -4   4  -2   56.73   14.13
   4  -4   3   32.20   14.30
   4  -4   3   37.85    7.58
  -4   4  -3   19.26   10.41
  -4   4  -3   38.84    6.77
   4  -4   4   14.51    5.97
   4  -4   4   17.92   12.82
   4  -4   4   14.78    6.08
  -4   4  -4    7.57   11.48
  -4   4  -5    1.20    2.05
   4  -4   5   -2.52    5.59
   4  -4   5   -2.34   10.01
  -4   4  -5   -0.35    5.78
  -4   4  -5   -6.48   11.59
  -4   4  -6  166.41   12.68
  -4   4  -6  157.84   15.46
  -4   4  -6  163.16   17.41
  -4   4  -7   46.72    5.16
  -4   4  -7   38.82    7.93
  -4   4  -7   42.94   11.88
   4  -4   8    4.06    6.35
  -4   4  -8   -0.69    5.50
  -4   4  -8   -1.50   10.68
   4  -4   9   60.48    7.61
  -4   4  -9   15.87    6.41
   4  -4  10   15.33    5.32
  -4   4 -10    5.53    4.94
   4  -4  11   26.91    4.92
  -4   4 -11   10.44    4.47
   4  -4  12    3.47    3.25
  -4   4 -12    2.34    3.18
  -4   3  12   39.09    3.26
  -4   3  11    1.20    2.12
  -4   3  10    9.09    2.85
  -4   3   9    4.03    3.35
  -4   3   9    7.25    3.14
  -4   3   8    0.88    3.34
  -4   3   8    3.27    3.28
  -4   3   7    2.99    3.64
   4  -3  -7    0.70    3.68
  -4   3   7    1.24    3.23
  -4   3   6   -1.59    3.82
   4  -3  -6   -2.11    4.34
  -4   3   6    0.45    3.04
   4  -3  -5  238.60   19.81
  -4   3   5  236.28   12.81
   4  -3  -4  116.20   12.84
  -4   3   4   93.51    6.56
   4  -3  -3   10.17    5.35
  -4   3   3    0.93    5.07
  -4   3   3   12.13    3.11
   4  -3  -2   66.67   10.02
  -4   3   2   26.77    6.96
  -4   3   2   53.81   13.03
  -4   3   1  184.67   15.29
   4  -3  -1  219.44   19.22
  -4   3   1  155.60   22.26
   4  -3   0   10.74    6.28
  -4   3   0   11.10    2.48
  -4   3   0   11.97    9.75
  -4   3   0   10.13    5.78
  -4   3  -1  145.17   12.24
  -4   3  -1   88.84   16.96
   4  -3   2    4.10    5.24
  -4   3  -2    5.73    5.36
  -4   3  -2    1.16    8.34
   4  -3   3    9.01   11.42
   4  -3   3   -2.60    5.82
   4  -3   4    4.12    5.26
  -4   3  -4   17.49    6.40
  -4   3  -4   14.13    6.13
   4  -3   4   17.13    6.82
  -4   3  -4   19.02   11.53
  -4   3  -5    5.59    2.41
   4  -3   5    5.88    5.67
  -4   3  -5    9.38    6.10
  -4   3  -5    5.00   11.54
  -4   3  -6  236.27   14.57
  -4   3  -6  264.34   18.31
   4  -3   7    8.32    5.95
  -4   3  -7    5.08    5.76
   4  -3   7    0.25    3.41
   4  -3   8   29.30    6.90
  -4   3  -8   41.91    7.72
  -4   3  -9   44.70    7.30
   4  -3   9   58.01    5.01
   4  -3  10    8.30    4.98
  -4   3 -10   11.00    4.90
   4  -3  10   10.98    2.92
   4  -3  11    1.12    3.90
  -4   3 -11   -1.88    3.79
   4  -3  12    1.40    2.94
  -4   2  12    0.84    1.78
  -4   2  11   15.91    2.83
  -4   2  10    0.44    2.96
  -4   2  10    3.32    2.69
  -4   2   9   25.33    4.21
  -4   2   9   26.86    3.85
  -4   2   8   14.59    4.02
  -4   2   8   18.19    3.56
  -4   2   7   58.99    6.49
   4  -2  -7   53.28    9.43
   4  -2  -6   80.08   11.20
  -4   2   6   90.98    6.51
  -4   2   5   23.52    4.68
   4  -2  -5   34.80    7.82
   4  -2  -4  445.71   29.01
   4  -2  -4  454.47   26.84
   4  -2  -3    8.47    5.01
  -4   2   3    4.91    5.41
  -4   2   3    2.19    7.63
   4  -2  -3    7.41    3.74
  -4   2   2  136.81   12.28
   4  -2  -2  146.93   15.12
   4  -2  -2  142.10   13.21
  -4   2   2  119.63   18.20
  -4   2   1  113.62   11.81
   4  -2  -1  144.90   14.69
   4  -2  -1  148.94   13.20
  -4   2   1  122.23    8.74
  -4   2   1  131.56   18.24
   4  -2   0    5.71    4.75
  -4   2   0    3.02    5.29
  -4   2   0    6.08    2.23
  -4   2   0   -4.28    8.61
   4  -2   0    7.48    4.02
  -4   2  -1   36.22    6.55
  -4   2  -1   43.59   11.52
  -4   2  -2    6.38    5.78
  -4   2  -2    6.20    5.32
   4  -2   2    3.06    5.63
  -4   2  -2    1.06    8.20
  -4   2  -3   46.86    7.74
  -4   2  -3   28.74    7.12
   4  -2   3   31.89    7.75
  -4   2  -4   45.18    7.89
  -4   2  -4   37.03    7.38
   4  -2   4   33.57    8.18
   4  -2   5    3.75    5.42
  -4   2  -5  109.40    9.88
   4  -2   6    1.18    5.08
  -4   2  -6   30.04    6.99
  -4   2  -7  167.91   12.14
   4  -2   7  153.91    7.94
   4  -2   8    4.23    5.36
  -4   2  -8    3.73    5.34
   4  -2   8    1.04    3.47
  -4   2  -9   39.35    6.94
   4  -2   9   49.31    4.60
   4  -2  10    1.08    4.20
  -4   2 -10    4.95    4.37
   4  -2  10    3.45    3.37
   4  -2  11    3.89    3.57
  -4   1  13    1.07    1.55
  -4   1  12   46.11    3.89
  -4   1  11    2.64    2.34
  -4   1  10   16.33    3.45
  -4   1  10   14.78    3.04
  -4   1   9   94.12    7.64
  -4   1   9   89.65    7.04
  -4   1   8    5.82    3.49
  -4   1   7   17.21    4.07
   4  -1  -7   10.38    5.24
  -4   1   6    1.03    3.60
   4  -1  -6   -0.68    4.13
  -4   1   5    9.42    3.83
   4  -1  -5    8.62    4.98
  -4   1   4   23.78    4.54
   4  -1  -4   36.64    7.56
   4  -1  -4   36.30    6.56
  -4   1   4   31.30    3.62
   4  -1  -3  133.91   14.24
   4  -1  -3  150.53   13.43
  -4   1   3  121.72    8.99
  -4   1   3  117.15   17.04
  -4   1   3  140.43   12.07
  -4   1   2   93.16    9.70
   4  -1  -2   90.24   11.46
   4  -1  -2  107.15   10.79
  -4   1   2   84.66    6.65
  -4   1   2   63.87   13.82
   4  -1  -1   -0.48    3.56
  -4   1   1    0.91    4.95
  -4   1   1    0.79    2.09
  -4   1   1   -2.01    8.70
   4  -1   0    6.81    4.09
  -4   1   0    1.81    5.29
  -4   1   0    3.71    2.24
  -4   1   0    5.99    7.84
   4  -1   1    3.27    5.94
  -4   1  -1    2.69    5.04
  -4   1  -1    5.09    5.81
  -4   1  -1    4.10    2.16
  -4   1  -1   -0.99    6.69
   4  -1   2   50.53   10.65
  -4   1  -2   37.32    7.38
   4  -1   2   14.71    6.81
  -4   1  -2   20.85    8.67
   4  -1   3   17.57    8.99
  -4   1  -3   47.58    8.15
  -4   1  -3   37.23    7.46
   4  -1   3   27.25    7.97
  -4   1  -4   44.15    8.03
  -4   1  -4   34.00    7.28
  -4   1  -5   48.26    8.42
  -4   1  -6  455.12   26.69
   4  -1   6  324.65   22.33
  -4   1  -7    1.41    5.43
   4  -1   7    4.68    3.69
  -4   1  -8   12.81    5.56
   4  -1   8    9.00    3.71
  -4   1  -9   14.74    5.21
   4  -1   9   26.08    3.80
   4  -1  10   21.69    4.00
   4  -1  11    6.44    2.61
  -4   0  13    4.20    1.76
  -4   0  11   13.46    2.85
  -4   0  10    6.84    2.99
  -4   0   9  124.08    9.28
  -4   0   8   93.50    7.73
  -4   0   7    7.62    3.64
   4   0  -7    7.42    4.19
  -4   0   6    1.39    3.39
   4   0  -6    5.94    4.23
  -4   0   6    0.41    2.19
  -4   0   5   23.42    4.16
   4   0  -5   10.87    4.92
  -4   0   5   14.09    2.83
  -4   0   4  236.14   16.46
  -4   0   4  254.93   18.17
   4   0  -4  259.15   20.71
  -4   0   4  260.40   16.20
   4   0  -3    4.91    3.53
  -4   0   3    1.79    5.49
  -4   0   3    3.47    2.27
  -4   0   3    2.91    6.66
   4   0  -2   42.74    7.31
  -4   0   2   42.80    4.13
  -4   0   2   41.55   10.64
   4   0  -1   57.51    8.68
   4   0  -1   67.75    8.62
  -4   0   1   70.13    5.53
  -4   0   1   51.81   11.81
   4   0   0   -0.84    6.62
  -4   0   0    3.11    5.74
  -4   0   0    3.68    2.30
  -4   0   0    8.56    8.07
   4   0   1  138.20   17.36
  -4   0  -1  138.35   13.09
  -4   0  -1  116.00   11.38
  -4   0  -1  145.77    9.52
  -4   0  -1  119.71   17.01
   4   0   2   20.30    9.41
  -4   0  -2   23.07    6.78
   4   0   2   14.98    7.10
  -4   0  -2   19.05    5.90
  -4   0  -2   28.81    3.30
   4   0   3   -3.19    7.52
  -4   0  -3    2.61    5.88
  -4   0  -3   -0.98    4.46
  -4   0  -4   32.68    7.53
  -4   0  -5    3.34    5.77
  -4   0  -6   92.40   10.07
   4   0   6   69.99    6.56
  -4   0  -7    0.33    5.24
   4   0   7    2.36    3.38
  -4   0  -8   93.49   10.11
   4   0   8  109.90    8.02
   4   0   9    0.16    3.49
   4   0  10    0.37    2.79
   4   0  11   11.81    2.29
  -4  -1  13    7.54    1.85
  -4  -1  12    0.34    2.06
  -4  -1  11   16.90    2.91
  -4  -1  11    9.18    2.78
  -4  -1  10    3.40    2.79
  -4  -1  10    0.82    2.43
  -4  -1   9    5.34    3.18
  -4  -1   9    6.47    2.79
  -4  -1   8  122.99    9.18
  -4  -1   8  117.66    8.99
  -4  -1   7  269.31   16.94
  -4  -1   7  260.28   16.91
  -4  -1   7  236.72   16.75
  -4  -1   6   22.04    4.14
  -4  -1   6   24.54    3.86
  -4  -1   6   18.56    3.69
  -4  -1   5  538.53   34.87
   4   1  -5  515.98   39.07
  -4  -1   5  558.47   34.58
  -4  -1   5  637.78   35.38
  -4  -1   5  570.62   35.02
   4   1  -4    8.63    4.22
  -4  -1   4    9.88    5.45
  -4  -1   4   11.06    2.65
  -4  -1   4   11.97    3.71
  -4  -1   3  920.26   59.11
   4   1  -3  961.04   62.51
  -4  -1   3  821.24   63.49
  -4  -1   3  950.94   57.45
  -4  -1   3 1033.27   58.11
  -4  -1   2   74.97    9.40
  -4  -1   2   72.12    8.57
   4   1  -2   71.11    9.39
  -4  -1   2   50.09   12.54
  -4  -1   2   79.05    6.12
  -4  -1   2   87.50    7.10
   4   1  -1   27.65    8.52
  -4  -1   1   40.96    7.68
   4   1  -1   23.54    6.21
  -4  -1   1   21.90   10.22
  -4  -1   1   19.36    6.15
  -4  -1   1   35.04    3.74
  -4  -1   1   41.82    4.98
  -4  -1   0    6.52    6.21
  -4  -1   0    9.38   10.03
  -4  -1   0    6.67    5.40
   4   1   0    6.97    6.18
  -4  -1   0   10.90    2.74
  -4  -1  -1   22.90    7.04
  -4  -1  -1    6.31    9.74
  -4  -1  -1   33.69    6.34
   4   1   1   16.08    8.10
  -4  -1  -1   30.52    3.44
  -4  -1  -2  133.94   13.04
  -4  -1  -2  139.90    8.95
   4   1   3   -1.14    6.46
  -4  -1  -3    8.62    6.13
  -4  -1  -3   -0.62    2.05
  -4  -1  -4  171.11   15.03
  -4  -1  -5   23.79    6.57
   4   1   5   16.07    3.65
  -4  -1  -6   27.62    6.66
   4   1   6   30.60    4.17
  -4  -1  -7    3.76    4.83
   4   1   7    5.30    3.00
   4   1   8   31.62    4.84
   4   1   9  205.35   13.94
   4   1  10    6.02    2.47
  -4  -2  13   21.10    2.36
  -4  -2  12   28.20    3.26
  -4  -2  12   34.07    3.33
  -4  -2  11   14.20    2.71
  -4  -2  11    7.93    2.53
  -4  -2  11    6.66    2.49
  -4  -2  10   83.70    7.10
  -4  -2  10   82.62    7.12
  -4  -2   9   17.50    3.37
  -4  -2   9   11.13    3.12
  -4  -2   8  329.47   22.70
  -4  -2   8  337.96   22.71
  -4  -2   7    3.79    3.23
  -4  -2   7    4.30    2.97
  -4  -2   7    2.28    5.08
  -4  -2   7    0.41    2.85
  -4  -2   6    2.61    3.15
  -4  -2   6    7.01    3.04
  -4  -2   6    2.18    5.19
  -4  -2   6    1.48    2.85
  -4  -2   5   62.62    5.71
  -4  -2   5   66.73    7.62
  -4  -2   5   53.74    5.90
  -4  -2   5   59.90    8.07
  -4  -2   5   58.20    5.64
  -4  -2   4 1165.35   68.30
   4   2  -4  924.29   70.63
  -4  -2   4 1108.26   66.46
  -4  -2   4 1144.05   67.18
  -4  -2   4 1147.89   67.18
  -4  -2   4 1102.86   66.89
   4   2  -3    2.04    3.24
  -4  -2   3    6.83    5.44
  -4  -2   3    5.42   10.09
  -4  -2   3    8.38    2.65
  -4  -2   3    9.53    3.61
  -4  -2   3    8.87    3.25
   4   2  -2   34.04    8.90
  -4  -2   2   44.28    8.08
   4   2  -2   41.74    7.06
  -4  -2   2   37.79   11.43
  -4  -2   2   42.77    6.95
  -4  -2   2   43.04    4.26
  -4  -2   2   50.40    5.42
   4   2  -1   -0.91    6.02
  -4  -2   1    4.77    6.00
  -4  -2   1   -2.38    9.75
  -4  -2   1    2.25    5.25
  -4  -2   1   -0.96    2.34
   4   2   0    2.85    5.76
  -4  -2   0   10.03    6.29
  -4  -2   0   10.85    5.51
  -4  -2   0    5.31    2.35
   4   2   0    1.10    3.74
  -4  -2  -1   69.82    7.76
  -4  -2  -1   66.45    9.17
  -4  -2  -1   65.47    5.25
  -4  -2  -2  150.74   13.38
  -4  -2  -2  156.44    9.20
  -4  -2  -3   39.59    7.78
  -4  -2  -3   42.49    3.91
  -4  -2  -4  413.84   30.00
  -4  -2  -4  439.76   26.57
  -4  -2  -5    5.78    5.34
  -4  -2  -6   20.08    5.76
   4   2   7  122.22    9.50
  -4  -2  -8  111.08    8.02
   4   2   8  103.64    8.29
  -4  -2  -9    0.73    1.57
   4   2   9    0.52    2.28
  -4  -3  12    0.08    2.03
  -4  -3  12    3.03    1.76
  -4  -3  11  169.48   11.39
  -4  -3  11  173.96   11.35
  -4  -3  10  252.28   16.69
  -4  -3  10  265.68   16.67
  -4  -3   9   33.31    4.25
  -4  -3   9   33.24    4.20
  -4  -3   8   59.17    5.12
  -4  -3   8   48.37    5.04
  -4  -3   8   38.55    6.52
  -4  -3   8   46.85    4.94
  -4  -3   7    6.55    3.14
  -4  -3   7    0.71    3.10
  -4  -3   7   10.43    5.30
  -4  -3   7    8.72    3.22
  -4  -3   7    5.60    2.93
  -4  -3   6    2.54    3.00
  -4  -3   6   -0.14    3.18
  -4  -3   6   -2.89    5.12
  -4  -3   6    1.01    3.10
  -4  -3   6    1.71    2.65
  -4  -3   5   56.82    5.27
  -4  -3   5   49.59    5.62
  -4  -3   5   41.16    7.37
  -4  -3   5   53.22    5.59
  -4  -3   5   54.99    5.30
  -4  -3   4  194.15   12.99
  -4  -3   4  167.13   14.39
  -4  -3   4  182.22   12.59
  -4  -3   3  608.01   36.10
  -4  -3   3  531.07   33.94
  -4  -3   3  597.34   34.90
  -4  -3   3  548.52   34.46
  -4  -3   2   90.86    8.90
  -4  -3   2   80.59    6.26
  -4  -3   2   88.66    7.46
  -4  -3   2   88.38    6.99
  -4  -3   1  100.92    6.94
  -4  -3   1  104.49    7.61
  -4  -3   0   22.06    6.61
  -4  -3   0   18.62    2.85
  -4  -3  -1  156.10   13.34
  -4  -3  -1  160.12    9.43
  -4  -3  -2  170.98   14.44
  -4  -3  -2  158.35   10.61
  -4  -3  -3  213.75   16.93
  -4  -3  -3  208.80   13.43
  -4  -3  -4    7.62    5.07
  -4  -3  -4    2.57    1.81
  -4  -3  -5   18.23    2.30
  -4  -3  -6    4.97    2.87
  -4  -3  -7    0.54    2.07
  -4  -3  -8   17.82    2.40
  -4  -4  12    5.14    1.95
  -4  -4  12    9.70    1.71
  -4  -4  11  101.72    7.41
  -4  -4  11  105.67    7.22
  -4  -4  10   28.16    3.74
  -4  -4  10   28.69    4.96
  -4  -4  10   31.60    3.72
  -4  -4  10   40.37    3.69
  -4  -4   9   11.65    3.18
  -4  -4   9   13.32    4.84
  -4  -4   9   18.27    3.24
  -4  -4   9   16.09    2.91
  -4  -4   8   33.84    4.22
  -4  -4   8   27.57    5.74
  -4  -4   8   26.96    3.94
  -4  -4   8   34.19    3.88
  -4  -4   7   58.99    5.56
  -4  -4   7   47.80    7.04
  -4  -4   7   54.47    5.48
  -4  -4   7   58.84    5.30
  -4  -4   6    1.50    3.09
  -4  -4   6    7.98    5.45
  -4  -4   6    4.83    3.19
  -4  -4   6    5.77    2.80
  -4  -4   5   93.58    7.70
  -4  -4   5   76.13    9.07
  -4  -4   5   97.97    7.72
  -4  -4   5   97.56    7.49
  -4  -4   4   77.48    6.78
  -4  -4   4   65.53    8.47
  -4  -4   4   79.63    6.56
  -4  -4   3   55.57    7.66
  -4  -4   3   63.40    5.70
  -4  -4   2    1.39    1.97
  -4  -4   2   -0.69    5.18
  -4  -4   2    5.39    3.09
  -4  -4   1   10.99    2.33
  -4  -4   1   11.40    5.36
  -4  -4   0   18.92    2.73
  -4  -4  -1    9.66    2.33
  -4  -4  -2    2.63    1.95
  -4  -4  -3    6.54    1.98
  -4  -4  -3    4.11    2.86
  -4  -4  -4    2.57    1.61
  -4  -4  -4    5.04    2.73
  -4  -4  -5    0.86    1.21
  -4  -4  -5    0.47    2.29
  -4  -4  -6    4.75    2.09
  -4  -4  -7   -0.38    1.40
  -4  -5  11    8.98    2.10
  -4  -5  11    8.86    1.82
  -4  -5  10   28.46    3.24
  -4  -5  10   19.96    4.17
  -4  -5  10   31.89    3.39
  -4  -5  10   29.52    3.08
  -4  -5   9   14.25    2.77
  -4  -5   9    8.82    4.21
  -4  -5   9   11.16    2.75
  -4  -5   9   13.89    2.60
  -4  -5   8    6.83    2.68
  -4  -5   8    2.92    4.38
  -4  -5   8    7.01    2.74
  -4  -5   8    5.05    2.45
  -4  -5   7    9.87    2.99
  -4  -5   7    5.05    4.85
  -4  -5   7   13.41    3.14
  -4  -5   7    9.69    2.76
  -4  -5   6   39.37    4.36
  -4  -5   6   38.25    6.02
  -4  -5   6   33.46    4.08
  -4  -5   5   71.50    6.01
  -4  -5   5   59.64    7.48
  -4  -5   5   66.42    5.74
  -4  -5   4  128.40   11.77
  -4  -5   4  161.96   10.55
  -4  -5   3   83.75    8.40
  -4  -5   2    4.22    1.73
  -4  -5   1   33.24    3.14
  -4  -5   0   54.06    4.35
  -4  -5  -1   20.79    2.51
  -4  -5  -2    1.89    1.60
  -4  -5  -3   99.42    6.72
  -4  -5  -4    0.52    1.17
  -4  -5  -4    0.79    1.83
  -4  -5  -5   -0.08    1.63
  -4  -6  10   11.55    1.99
  -4  -6   9   11.56    2.27
  -4  -6   9    4.35    3.42
  -4  -6   9   10.36    2.03
  -4  -6   8   19.89    2.86
  -4  -6   8   20.14    2.66
  -4  -6   7   83.09    8.23
  -4  -6   7  109.13    7.21
  -4  -6   6  115.37   10.99
  -4  -6   6  166.64   11.15
  -4  -6   5    3.55    4.35
  -4  -6   5    4.88    6.04
  -4  -6   4   28.14    6.87
  -4  -6   3   18.57    4.73
  -4  -6   3   13.79    6.62
  -4  -6   2    1.17    6.08
  -4  -6   1    8.64    1.61
  -4  -6   1   12.88    6.08
  -4  -6   0    1.01    1.31
  -4  -6   0    8.29    5.71
  -4  -6  -1   30.39    2.65
  -4  -6  -2   26.54    2.37
  -4  -7   8   13.26    3.14
  -4  -7   7    2.74    3.04
  -4  -7   6   -1.91    4.37
  -4  -7   5    0.44    4.75
  -4  -7   4   30.97    5.85
  -4  -7   4   43.13    4.85
  -4  -7   3    4.06    3.66
  -4  -7   3    2.99    4.96
  -4  -7   2   38.44    6.03
  -4  -7   2   51.36    5.19
  -4  -7   1   16.63    3.80
  -4  -7   1   10.92    4.81
  -4  -7   0   20.19    3.78
  -4  -7  -1    3.81    2.97
   5 -10   0    5.20    1.15
  -5  10  -1   35.77    4.90
   5 -10   1   54.25    3.69
  -5  10  -2    0.53    2.70
   5 -10   2    1.11    1.02
  -5  10  -3    1.94    2.50
   5 -10   3    1.32    1.05
   5 -10   4   23.60    2.19
  -5   9   3    1.01    1.80
   5  -9  -3    0.41    0.87
   5  -9  -2   12.24    1.65
  -5   9   1    3.64    3.05
   5  -9  -1    1.66    1.17
  -5   9   0  186.99   15.45
   5  -9   0  244.90   14.28
  -5   9  -1   23.50    4.51
   5  -9   1   25.12    2.55
  -5   9  -2    0.93    3.33
   5  -9   2    0.46    1.31
  -5   9  -3    5.01    3.51
   5  -9   3    5.52    1.52
  -5   9  -4    3.42    3.11
   5  -9   4   -1.02    1.24
   5  -9   5   32.31    2.93
  -5   9  -6   -0.85    1.01
  -5   8   5   44.98    4.00
  -5   8   5   48.68    3.44
  -5   8   4    3.90    2.29
   5  -8  -4    2.09    1.25
  -5   8   3   19.90    3.01
  -5   8   1   40.86    6.48
   5  -8  -1   67.13    4.75
  -5   8   0   -0.90    3.65
   5  -8   0    0.52    1.43
  -5   8  -1    3.67    3.90
   5  -8   1    3.24    1.58
  -5   8  -2   22.03    4.91
   5  -8   2   30.11    2.96
  -5   8  -3    1.74    3.82
   5  -8   3    7.09    1.79
  -5   8  -4    1.40    3.52
   5  -8   4    0.79    1.47
   5  -8   5   23.01    2.65
  -5   8  -6  180.93   10.93
   5  -8   6  158.12   10.93
  -5   8  -7   24.11    2.42
  -5   7   6   12.52    2.46
  -5   7   6   14.30    1.78
  -5   7   5    2.14    2.38
  -5   7   4    0.09    2.43
  -5   7   3   -2.13    2.66
  -5   7   2   20.88    4.82
  -5   7   1   12.98    4.78
  -5   7   0   14.05    4.85
  -5   7  -1  107.28   10.63
   5  -7   1  130.46    8.60
   5  -7   2   -1.50    4.49
  -5   7  -2    5.67    4.50
   5  -7   2   -0.90    1.57
   5  -7   3   15.56    4.85
  -5   7  -3    9.07    4.32
   5  -7   3    6.19    1.76
   5  -7   4    0.35    4.21
  -5   7  -4   -2.71    4.06
   5  -7   4   -0.38    1.46
   5  -7   5  113.69    7.55
   5  -7   5   50.92    4.76
  -5   7  -6   40.55    3.66
   5  -7   6   36.34    3.67
  -5   7  -7    1.52    1.42
   5  -7   7    1.04    3.28
   5  -7   8    0.86    2.73
  -5   6   8    0.98    1.68
  -5   6   7   -0.29    2.08
  -5   6   7   -1.60    1.36
  -5   6   6   12.16    2.80
  -5   6   5   26.14    3.66
  -5   6   4    7.76    3.10
  -5   6   3    1.78    1.81
  -5   6   2   12.93    4.98
  -5   6   1   41.71    6.62
  -5   6   0   35.22    6.21
  -5   6  -1  325.46   22.85
  -5   6  -2  143.11   12.42
   5  -6   3  105.46    8.37
  -5   6  -3   36.78    6.72
   5  -6   4   57.94    7.14
   5  -6   5    2.43    4.63
   5  -6   6   83.87    8.04
   5  -6   7    9.95    4.25
   5  -6   8    6.52    3.49
   5  -6   9    1.34    2.72
  -5   5   8    0.55    2.07
  -5   5   8   -1.76    1.26
  -5   5   7    1.29    2.33
  -5   5   7   -1.03    1.49
  -5   5   6    4.87    2.79
  -5   5   6    1.49    1.77
  -5   5   5    8.54    3.08
  -5   5   4   24.52    3.84
  -5   5   4   27.54    3.15
  -5   5   3   13.64    4.98
  -5   5   3   15.56    2.63
  -5   5   2  124.02   11.70
  -5   5   2  142.04    9.40
  -5   5   1  143.88   12.39
  -5   5   0   54.02    7.41
  -5   5  -1    5.32    4.84
  -5   5  -2   32.46    6.20
   5  -5   3   38.35    6.40
  -5   5  -3   20.38    5.72
   5  -5   4   48.07    7.04
   5  -5   5  130.62   10.97
   5  -5   6   40.25    6.07
   5  -5   7   52.25    5.81
  -5   5  -7   16.10    4.83
   5  -5   8   11.66    4.00
  -5   5  -8    5.98    3.71
   5  -5   9   13.10    3.45
  -5   5  -9    8.56    3.33
  -5   4   9   19.54    2.65
  -5   4   8   15.59    2.71
  -5   4   8    8.21    1.70
  -5   4   7   94.36    7.12
  -5   4   7   93.61    6.61
  -5   4   6    1.41    2.92
  -5   4   6   -0.82    1.94
  -5   4   5   14.33    3.43
  -5   4   5   13.70    2.59
  -5   4   4   50.46    5.34
  -5   4   4   60.16    4.91
  -5   4   3    5.41    4.72
  -5   4   3    9.67    2.51
  -5   4   2   26.56    6.13
  -5   4   2   35.39    3.64
  -5   4   1  103.42    9.45
  -5   4   1   76.30    6.12
  -5   4   0    9.17    4.77
  -5   4  -1    5.12    4.61
  -5   4  -2   62.24    7.74
   5  -4   3    1.77    5.31
  -5   4  -3    7.96    4.56
   5  -4   4    4.47    5.18
   5  -4   5   54.85    6.91
   5  -4   6   54.41    6.76
  -5   4  -6   58.29    7.25
   5  -4   6   55.51    5.06
   5  -4   7    5.68    4.29
  -5   4  -7    2.07    4.05
   5  -4   7    0.95    2.31
   5  -4   8   18.94    4.46
  -5   4  -8   42.42    5.35
   5  -4   9   -0.12    2.90
  -5   4  -9    0.78    3.07
  -5   3   9   15.81    2.55
  -5   3   8   16.72    3.02
  -5   3   8   15.41    2.16
  -5   3   7    2.74    2.70
  -5   3   7    1.70    1.72
  -5   3   6  175.72   11.96
  -5   3   6  175.16   11.53
  -5   3   5  158.72   11.18
  -5   3   5  163.77   10.87
  -5   3   4    2.32    2.39
  -5   3   3   92.53    6.98
  -5   3   2   23.51    5.81
  -5   3   2   26.75    3.36
  -5   3   1   22.59    6.44
  -5   3   1   38.76    3.76
  -5   3   0   58.86    8.23
  -5   3   0   72.34    5.48
  -5   3  -1  139.71   12.29
   5  -3   2    2.43    4.81
   5  -3   3    7.96    5.04
   5  -3   4   -0.21    4.55
  -5   3  -4   -1.45    4.68
   5  -3   5    6.62    4.56
  -5   3  -5   -0.84    4.40
  -5   3  -6   38.38    6.07
   5  -3   6   29.21    3.66
  -5   3  -7   49.07    6.17
   5  -3   7   53.88    4.04
   5  -3   8   -3.25    3.39
  -5   3  -8    2.73    3.67
   5  -3   8    1.85    2.03
  -5   3  -9   27.13    4.16
   5  -3   9   35.32    3.13
  -5   2  10    4.71    1.80
  -5   2   9  116.99    7.99
  -5   2   8   -0.87    2.45
  -5   2   7   -0.60    2.81
  -5   2   7    2.35    1.76
  -5   2   6   91.23    7.08
  -5   2   6   86.81    6.49
  -5   2   5   70.25    6.29
  -5   2   5   83.44    6.09
  -5   2   4    5.87    4.73
  -5   2   4    9.26    2.57
  -5   2   3   15.24    5.29
  -5   2   3   20.90    3.06
  -5   2   2   12.57    2.71
  -5   2   1  238.92   15.35
  -5   2   0    2.81    2.19
  -5   2  -1   -0.70    2.05
  -5   2  -2   20.05    5.16
  -5   2  -3    5.17    5.00
  -5   2  -4   50.24    7.42
  -5   2  -5   50.37    7.20
  -5   2  -6    3.33    4.30
   5  -2   6   -3.23    2.80
  -5   2  -7   15.58    4.52
   5  -2   7   22.22    3.11
  -5   2  -8    1.63    3.47
   5  -2   8    2.89    1.99
  -5   2  -9    4.95    2.79
   5  -2   9    7.06    2.20
  -5   1  10   11.19    2.12
  -5   1   9    1.29    2.15
  -5   1   8    1.98    2.48
  -5   1   7   64.56    5.47
  -5   1   7   61.22    4.85
  -5   1   6    0.71    2.87
  -5   1   6    1.11    1.87
  -5   1   5  100.16    7.24
  -5   1   4  114.73   10.07
  -5   1   4  115.73    8.22
  -5   1   3  120.72   10.64
  -5   1   3  125.41    8.76
  -5   1   2  280.15   20.28
  -5   1   2  299.65   18.56
  -5   1   1   23.51    5.92
  -5   1   1   40.65    3.88
  -5   1   0  167.83   13.85
  -5   1   0  190.72   12.12
  -5   1  -1   30.66    5.97
  -5   1  -1   38.82    3.71
  -5   1  -2   54.52    7.64
  -5   1  -2   45.44    6.42
  -5   1  -3   10.06    5.24
  -5   1  -4    3.79    4.91
  -5   1  -5    6.20    4.68
   5  -1   5    3.81    2.86
  -5   1  -6    3.35    4.16
   5  -1   6    4.27    2.58
  -5   1  -7    6.41    3.88
   5  -1   7   14.51    2.54
  -5   1  -8   -4.76    3.21
   5  -1   8    2.55    2.35
  -5   0  10    5.40    1.85
  -5   0   9    8.26    2.31
  -5   0   8   -1.53    2.25
  -5   0   7   47.58    4.49
  -5   0   6    2.96    2.71
  -5   0   6    5.06    1.90
  -5   0   5   44.40    3.99
  -5   0   4   53.69    6.74
  -5   0   4   57.04    4.74
  -5   0   4   53.19    7.00
  -5   0   3  124.73   10.75
  -5   0   3  126.07    8.72
  -5   0   2    0.21    4.58
  -5   0   2    6.17    2.53
  -5   0   1  587.46   39.97
  -5   0   1  660.21   38.55
  -5   0   0    8.53    5.07
  -5   0   0    2.48    4.58
  -5   0   0    3.71    2.27
  -5   0  -1  111.61    9.64
  -5   0  -1   98.84   10.41
  -5   0  -1  109.80    7.60
  -5   0  -2    0.30    4.96
  -5   0  -2    8.17    4.42
  -5   0  -2    3.15    1.94
  -5   0  -3  211.82   16.40
  -5   0  -4   27.87    5.93
   5   0   4   21.29    3.21
  -5   0  -5   71.87    7.71
   5   0   5   61.19    5.12
  -5   0  -6   10.45    4.23
   5   0   6   12.12    2.41
  -5   0  -7   -0.99    3.24
   5   0   7    1.19    1.71
   5   0   7    2.48    2.40
  -5  -1  10    2.59    1.55
  -5  -1   9    7.42    2.11
  -5  -1   9    5.81    1.92
  -5  -1   8   33.34    3.36
  -5  -1   8   26.98    3.14
  -5  -1   7   12.08    2.80
  -5  -1   6  126.19    8.74
  -5  -1   5  165.54   10.67
  -5  -1   5  157.29   12.45
  -5  -1   4   24.93    5.10
  -5  -1   4   18.46    2.65
  -5  -1   4   17.57    5.21
  -5  -1   3   12.62    4.78
  -5  -1   3   12.15    2.47
  -5  -1   2   53.75    6.80
  -5  -1   2   61.30    4.92
  -5  -1   1    4.55    4.63
  -5  -1   1    0.49    2.10
  -5  -1   0  196.47   14.19
  -5  -1   0  189.89   15.26
  -5  -1   0  191.39   12.40
  -5  -1  -1   40.08    6.90
  -5  -1  -1   50.80    4.28
  -5  -1  -2    6.25    4.94
  -5  -1  -2    2.46    1.80
  -5  -1  -3    5.06    4.79
  -5  -1  -3    8.62    1.80
  -5  -1  -4   -2.89    4.07
  -5  -1  -5    0.83    3.82
  -5  -1  -6   -1.16    3.29
  -5  -1  -7    4.20    1.40
  -5  -2   9   -0.24    1.64
  -5  -2   8   70.33    5.54
  -5  -2   8   76.25    5.48
  -5  -2   7   24.71    3.17
  -5  -2   7   17.99    4.27
  -5  -2   7   22.02    2.95
  -5  -2   6   13.94    2.86
  -5  -2   6   10.55    4.21
  -5  -2   6    6.55    2.49
  -5  -2   5   16.86    4.85
  -5  -2   4    0.77    1.60
  -5  -2   4   -2.13    4.29
  -5  -2   3    8.55    1.98
  -5  -2   3    6.98    4.63
  -5  -2   2   46.82    3.91
  -5  -2   2   36.94    6.23
  -5  -2   1   17.71    2.49
  -5  -2   0  246.19   15.39
  -5  -2  -1    2.99    1.69
  -5  -2  -2   77.04    5.41
  -5  -2  -3   53.34    3.95
  -5  -2  -5    1.22    1.49
  -5  -3   9   46.43    3.64
  -5  -3   8   29.89    4.29
  -5  -3   8   37.60    3.26
  -5  -3   7   97.72    8.85
  -5  -3   7  129.52    8.05
  -5  -3   6   -0.87    3.49
  -5  -3   6    1.84    2.09
  -5  -3   5  106.51    9.69
  -5  -3   5  134.32    8.59
  -5  -3   4    2.69    4.05
  -5  -3   3   88.16    5.83
  -5  -3   3   70.03    7.64
  -5  -3   2   26.05    2.56
  -5  -3   2   19.50    4.82
  -5  -3   1   19.14    2.22
  -5  -3   1   13.48    4.42
  -5  -3   0  377.29   22.36
  -5  -3   0  345.89   23.61
  -5  -3  -1   36.80    3.06
  -5  -3  -2   49.10    3.65
  -5  -3  -3   -0.73    1.07
  -5  -3  -4    6.22    1.02
  -5  -4   8   13.91    1.97
  -5  -4   7   35.79    4.30
  -5  -4   6    2.69    3.18
  -5  -4   5   16.64    3.94
  -5  -4   4   24.44    4.35
  -5  -4   3   32.07    4.70
  -5  -4   2   22.48    2.09
  -5  -4   2   18.42    4.09
  -5  -4   1   19.03    1.94
  -5  -4   0   50.11    3.61
  -5  -4  -1   -0.66    1.00
  -5  -4  -2   -0.80    0.93
  -5  -5   5   -1.04    2.69
  -5  -5   5   -1.05    3.44
  -5  -5   4    3.19    2.80
  -5  -5   4    4.61    3.66
  -5  -5   3    6.00    3.89
  -5  -5   2   22.71    4.33
  -5  -5   1    2.81    3.53
   6  -6  -2   12.43    2.81
  -6   6   2   20.05    3.06
   6  -6  -1   -1.61    2.67
  -6   6   1    4.13    2.72
   6  -6   0    8.70    2.87
  -6   6   0   10.40    3.07
   6  -6   1   60.76    5.22
  -6   6  -1   53.51    5.22
   6  -6   2   23.49    3.44
  -6   6  -2   22.07    3.44
   6  -6   3   22.36    3.26
  -6   5   4    7.17    1.12
  -6   5   3  266.40   16.12
  -6   5   2   42.03    4.47
   6  -5  -1   20.71    4.05
  -6   5   1   78.43    5.23
   6  -5   0   -0.70    2.86
  -6   5   0   -1.01    2.99
   6  -5   1    4.27    3.00
  -6   5  -1    5.05    3.07
   6  -5   2    4.64    2.98
  -6   5  -2   17.06    3.27
   6  -5   3    1.64    2.53
   6  -5   4    0.18    2.30
  -6   4   5   23.94    2.05
  -6   4   4    1.01    1.09
  -6   4   3   82.09    6.78
  -6   4   3   87.85    5.74
  -6   4   2   -0.22    2.98
  -6   4   2   -0.05    1.18
   6  -4  -1    1.20    3.08
  -6   4   1   55.84    4.57
   6  -4   0   -1.21    2.89
  -6   4   0   11.28    3.45
   6  -4   1   -2.00    2.86
  -6   4  -1   11.32    3.28
   6  -4   2    3.14    2.91
  -6   4  -2   28.78    3.61
   6  -4   3    4.55    2.69
   6  -4   4   -0.37    2.30
   6  -4   4    7.00    1.64
  -6   3   5    4.30    1.19
  -6   3   4    2.37    1.19
  -6   3   3   24.87    3.83
  -6   3   3   24.96    2.33
  -6   3   2   35.91    4.56
  -6   3   2   37.28    3.00
  -6   3   1    7.96    3.35
  -6   3   1    8.62    1.51
  -6   3   0    9.84    3.42
  -6   3  -1  227.40   15.00
  -6   3  -2    4.28    2.95
   6  -3   3   93.35    6.34
   6  -3   4   13.18    1.89
  -6   2   5    5.08    1.19
  -6   2   4    3.38    1.25
  -6   2   3    5.90    3.04
  -6   2   3    8.10    1.49
  -6   2   2   83.55    6.85
  -6   2   2   82.86    5.58
  -6   2   1   13.47    3.53
  -6   2   1   14.81    1.79
  -6   2   0   22.00    3.86
  -6   2   0   20.74    2.02
  -6   2  -1   22.04    3.73
   6  -2   3   14.74    2.00
   6  -2   4    0.37    1.29
  -6   1   5   -0.61    0.93
  -6   1   4   25.11    2.20
  -6   1   3    8.86    3.02
  -6   1   3    9.55    1.49
  -6   1   2   13.50    3.36
  -6   1   2   11.47    1.61
  -6   1   2   10.91    3.31
  -6   1   1   41.37    4.41
  -6   1   1   33.48    2.73
  -6   1   1   30.71    4.26
  -6   1   0   18.35    3.43
  -6   1   0   12.12    1.51
   6  -1   2   10.95    1.75
  -6   0   4    0.60    0.89
  -6   0   3    0.38    0.95
  -6   0   3    0.55    2.63
  -6   0   2   85.69    5.50
  -6   0   2   79.55    6.70
  -6   0   1    0.94    1.04
  -6   0   1    0.41    2.80
  -6   0   0    2.32    0.89
  -6   0   0    2.29    2.85
  -6   0  -1    7.04    1.02
  -6   0  -1    4.88    2.76
  -6  -1   2   10.04    1.19
  -6  -1   2    9.33    2.75
  -6  -1   1    2.30    0.82
  -6  -1   1    2.25    2.45
   0   0   0    0.00    0.00


TITL 8722-9226_reu-093 in P-1
REM P-1 (#2 in standard setting)
CELL 1.54184   5.138096  10.587520  13.334334 104.0898  92.2945 103.5997
ZERR    2.00   0.000931   0.002037   0.001956   0.0148   0.0141   0.0161
LATT  1
SFAC C H N O F
UNIT 30.00 24.00 6.00 4.00 6.00
TREF
HKLF 4
END
_computing_structure_solution     'SHELXT 2018/2 (Sheldrick, 2018)'
;
_shelx_hkl_checksum              70549
_olex2_submission_special_instructions 'No special instructions were received'
_oxdiff_exptl_absorpt_empirical_details
;
Empirical correction (ABSPACK) includes:
- Absorption correction using spherical harmonics
- Frame scaling
;
_oxdiff_exptl_absorpt_empirical_full_max 4.098
_oxdiff_exptl_absorpt_empirical_full_min 0.389
loop_
_space_group_symop_operation_xyz
'x, y, z'
'-x, -y, -z'
loop_
_atom_site_label
_atom_site_type_symbol
_atom_site_fract_x
_atom_site_fract_y
_atom_site_fract_z
_atom_site_U_iso_or_equiv
_atom_site_adp_type
_atom_site_occupancy
_atom_site_site_symmetry_order
_atom_site_calc_flag
_atom_site_refinement_flags_posn
F3 F 0.0513(3) 0.11788(18) 0.88530(14) 0.0348(5) Uani 1 1 d .
F1 F 0.2746(4) 0.31924(18) 0.96635(15) 0.0415(5) Uani 1 1 d .
F2 F 0.3993(3) 0.1477(2) 0.99079(14) 0.0397(5) Uani 1 1 d .
O1 O 1.0625(3) 0.41764(19) 0.75468(16) 0.0264(5) Uani 1 1 d .
O2 O 0.4193(3) 0.39547(19) 0.57149(15) 0.0269(5) Uani 1 1 d .
N1 N 0.8295(4) 0.3636(2) 0.53493(18) 0.0245(5) Uani 1 1 d .
H1 H 0.996277 0.404376 0.537148 0.029 Uiso 1 1 calc R
N3 N 0.6176(4) 0.0797(2) 0.67563(19) 0.0281(6) Uani 1 1 d .
N2 N 1.0045(4) 0.1779(2) 0.60898(19) 0.0275(5) Uani 1 1 d .
H2 H 1.174140 0.196854 0.627963 0.033 Uiso 1 1 calc R
C7 C 0.6685(5) 0.4290(3) 0.5911(2) 0.0242(6) Uani 1 1 d .
C11 C 0.8510(5) 0.3092(3) 0.7584(2) 0.0251(6) Uani 1 1 d .
C10 C 0.8221(5) 0.1875(3) 0.6816(2) 0.0254(6) Uani 1 1 d .
C13 C 0.4769(5) 0.2012(3) 0.8318(2) 0.0275(6) Uani 1 1 d .
C5 C 0.7373(5) 0.6676(3) 0.6884(2) 0.0282(6) Uani 1 1 d .
H5 H 0.605421 0.672923 0.640859 0.034 Uiso 1 1 calc R
C9 C 0.9036(5) 0.1349(3) 0.4995(2) 0.0272(6) Uani 1 1 d .
H9A H 0.794195 0.042980 0.483403 0.033 Uiso 1 1 calc R
H9B H 1.054438 0.136435 0.457991 0.033 Uiso 1 1 calc R
C14 C 0.4501(5) 0.0882(3) 0.7503(2) 0.0292(6) Uani 1 1 d .
H14 H 0.307983 0.013887 0.747044 0.035 Uiso 1 1 calc R
C12 C 0.6804(5) 0.3160(3) 0.8346(2) 0.0276(6) Uani 1 1 d .
H12 H 0.699489 0.394858 0.886853 0.033 Uiso 1 1 calc R
C8 C 0.7334(5) 0.2257(3) 0.4700(2) 0.0260(6) Uani 1 1 d .
H8A H 0.744896 0.225207 0.397474 0.031 Uiso 1 1 calc R
H8B H 0.546174 0.190581 0.479017 0.031 Uiso 1 1 calc R
C1 C 0.9916(5) 0.5379(3) 0.7545(2) 0.0258(6) Uani 1 1 d .
C3 C 1.0560(5) 0.7721(3) 0.8383(2) 0.0314(7) Uani 1 1 d .
H3 H 1.144020 0.848635 0.889829 0.038 Uiso 1 1 calc R
C2 C 1.1212(5) 0.6504(3) 0.8340(2) 0.0303(6) Uani 1 1 d .
H2A H 1.248375 0.644512 0.883079 0.036 Uiso 1 1 calc R
C4 C 0.8626(6) 0.7806(3) 0.7671(2) 0.0304(6) Uani 1 1 d .
H4 H 0.816815 0.861668 0.771857 0.037 Uiso 1 1 calc R
C6 C 0.8059(5) 0.5465(3) 0.6796(2) 0.0254(6) Uani 1 1 d .
C15 C 0.3023(6) 0.1966(3) 0.9179(2) 0.0307(7) Uani 1 1 d .
loop_
_atom_site_aniso_label
_atom_site_aniso_U_11
_atom_site_aniso_U_22
_atom_site_aniso_U_33
_atom_site_aniso_U_23
_atom_site_aniso_U_13
_atom_site_aniso_U_12
F3 0.0210(8) 0.0387(10) 0.0401(10) 0.0090(8) 0.0061(7) -0.0005(7)
F1 0.0403(10) 0.0327(10) 0.0463(11) 0.0039(8) 0.0194(8) 0.0034(8)
F2 0.0294(9) 0.0548(12) 0.0359(10) 0.0180(9) 0.0039(7) 0.0061(8)
O1 0.0170(9) 0.0219(10) 0.0372(11) 0.0083(8) 0.0035(7) -0.0019(7)
O2 0.0149(8) 0.0279(10) 0.0352(11) 0.0063(8) 0.0040(7) 0.0015(7)
N1 0.0158(10) 0.0212(11) 0.0323(13) 0.0031(9) 0.0052(9) 0.0001(8)
N3 0.0220(11) 0.0245(12) 0.0347(13) 0.0081(10) 0.0022(9) 0.0000(9)
N2 0.0171(10) 0.0273(12) 0.0345(13) 0.0051(10) 0.0025(9) 0.0018(9)
C7 0.0178(11) 0.0230(13) 0.0309(14) 0.0089(11) 0.0065(10) 0.0008(10)
C11 0.0180(12) 0.0236(14) 0.0311(14) 0.0075(11) 0.0001(10) 0.0005(10)
C10 0.0176(12) 0.0250(14) 0.0309(14) 0.0057(11) 0.0009(10) 0.0019(10)
C13 0.0202(12) 0.0286(15) 0.0315(15) 0.0070(12) 0.0028(10) 0.0027(11)
C5 0.0208(12) 0.0278(14) 0.0342(15) 0.0078(12) 0.0066(11) 0.0023(10)
C9 0.0192(12) 0.0261(14) 0.0334(15) 0.0055(11) 0.0065(10) 0.0021(10)
C14 0.0226(13) 0.0279(15) 0.0351(16) 0.0106(12) 0.0037(11) -0.0002(11)
C12 0.0248(13) 0.0265(14) 0.0308(15) 0.0080(11) 0.0029(11) 0.0047(11)
C8 0.0186(12) 0.0234(14) 0.0313(14) 0.0037(11) 0.0015(10) -0.0002(10)
C1 0.0184(12) 0.0246(14) 0.0308(14) 0.0047(11) 0.0061(10) 0.0002(10)
C3 0.0269(14) 0.0263(15) 0.0352(16) 0.0039(12) 0.0053(12) -0.0009(11)
C2 0.0232(13) 0.0304(15) 0.0314(15) 0.0060(12) -0.0010(11) -0.0020(11)
C4 0.0288(14) 0.0219(14) 0.0378(16) 0.0060(12) 0.0081(12) 0.0022(11)
C6 0.0177(12) 0.0255(14) 0.0291(14) 0.0042(11) 0.0069(10) 0.0002(10)
C15 0.0247(13) 0.0268(14) 0.0352(16) 0.0046(12) 0.0057(11) -0.0008(11)
loop_
_atom_type_symbol
_atom_type_description
_atom_type_scat_dispersion_real
_atom_type_scat_dispersion_imag
_atom_type_scat_source
C C 0.0181 0.0091 'International Tables Vol C Tables 4.2.6.8 and 6.1.1.4'
H H 0.0000 0.0000 'International Tables Vol C Tables 4.2.6.8 and 6.1.1.4'
F F 0.0727 0.0534 'International Tables Vol C Tables 4.2.6.8 and 6.1.1.4'
N N 0.0311 0.0180 'International Tables Vol C Tables 4.2.6.8 and 6.1.1.4'
O O 0.0492 0.0322 'International Tables Vol C Tables 4.2.6.8 and 6.1.1.4'
loop_
_geom_angle_atom_site_label_1
_geom_angle_atom_site_label_2
_geom_angle_atom_site_label_3
_geom_angle
C11 O1 C1 115.84(19)
C7 N1 C8 122.7(2)
C10 N3 C14 117.5(2)
C10 N2 C9 118.4(2)
O2 C7 N1 122.6(3)
O2 C7 C6 121.4(2)
N1 C7 C6 116.1(2)
O1 C11 C10 117.4(2)
C12 C11 O1 122.7(3)
C12 C11 C10 119.8(3)
N3 C10 N2 118.3(3)
N3 C10 C11 121.8(2)
N2 C10 C11 119.9(2)
C14 C13 C12 118.7(3)
C14 C13 C15 120.1(3)
C12 C13 C15 121.1(3)
C4 C5 C6 120.9(3)
N2 C9 C8 112.3(2)
N3 C14 C13 123.7(3)
C11 C12 C13 118.2(3)
N1 C8 C9 110.6(2)
C2 C1 O1 116.1(3)
C6 C1 O1 122.8(2)
C6 C1 C2 121.1(3)
C4 C3 C2 120.9(3)
C1 C2 C3 118.6(3)
C3 C4 C5 119.5(3)
C5 C6 C7 118.3(3)
C5 C6 C1 118.9(3)
C1 C6 C7 122.8(3)
F3 C15 C13 112.9(2)
F1 C15 F3 106.5(2)
F1 C15 C13 112.1(2)
F2 C15 F3 105.8(2)
F2 C15 F1 106.7(2)
F2 C15 C13 112.4(2)
loop_
_geom_bond_atom_site_label_1
_geom_bond_atom_site_label_2
_geom_bond_distance
F3 C15 1.349(3)
F1 C15 1.345(4)
F2 C15 1.337(4)
O1 C11 1.395(3)
O1 C1 1.405(3)
O2 C7 1.244(3)
N1 C7 1.338(3)
N1 C8 1.461(3)
N3 C10 1.341(4)
N3 C14 1.343(4)
N2 C10 1.377(3)
N2 C9 1.453(4)
C7 C6 1.498(4)
C11 C10 1.410(4)
C11 C12 1.368(4)
C13 C14 1.381(4)
C13 C12 1.396(4)
C13 C15 1.488(4)
C5 C4 1.386(4)
C5 C6 1.387(4)
C9 C8 1.548(4)
C1 C2 1.394(4)
C1 C6 1.387(4)
C3 C2 1.394(4)
C3 C4 1.380(4)
