#------------------------------------------------------------------------------
#$Date: 2019-11-11 16:20:51 +0200 (Mon, 11 Nov 2019) $
#$Revision: 226527 $
#$URL: file:///home/coder/svn-repositories/cod/cif/4/03/50/4035029.cif $
#------------------------------------------------------------------------------
#
# This file is available in the Crystallography Open Database (COD),
# http://www.crystallography.net/
#
# All data on this site have been placed in the public domain by the
# contributors.
#
data_4035029
loop_
_publ_author_name
'Zhu, Yu'
'Shao, Li-Dong'
'Deng, Zhen-Tao'
'Bao, Ying'
'Shi, Xin'
'Zhao, Qin-Shi'
_publ_section_title
;
 PIDA/I<sub>2</sub>-Mediated \a- and \b-C(sp<sup>3</sup>)-H Bond Dual
 Functionalization of Tertiary Amines.
;
_journal_issue                   17
_journal_name_full               'The Journal of organic chemistry'
_journal_page_first              10166
_journal_page_last               10174
_journal_paper_doi               10.1021/acs.joc.8b01424
_journal_volume                  83
_journal_year                    2018
_chemical_absolute_configuration ad
_chemical_formula_moiety         'C16 H18 I N O3'
_chemical_formula_sum            'C16 H18 I N O3'
_chemical_formula_weight         399.21
_space_group_crystal_system      monoclinic
_space_group_IT_number           4
_space_group_name_Hall           'P 2yb'
_space_group_name_H-M_alt        'P 1 21 1'
_atom_sites_solution_hydrogens   geom
_atom_sites_solution_primary     direct
_atom_sites_solution_secondary   difmap
_audit_creation_method           SHELXL-2014/7
_cell_angle_alpha                90
_cell_angle_beta                 98.1490(10)
_cell_angle_gamma                90
_cell_formula_units_Z            2
_cell_length_a                   8.7161(10)
_cell_length_b                   7.7989(9)
_cell_length_c                   10.9853(12)
_cell_measurement_reflns_used    7593
_cell_measurement_temperature    100(2)
_cell_measurement_theta_max      30.82
_cell_measurement_theta_min      2.36
_cell_volume                     739.20(14)
_computing_cell_refinement       'Bruker SAINT'
_computing_data_collection       'Bruker APEX2'
_computing_data_reduction        'Bruker SAINT'
_computing_molecular_graphics    'Bruker SHELXTL'
_computing_publication_material  'Bruker SHELXTL'
_computing_structure_refinement  'SHELXL-2014 (Sheldrick 2014)'
_computing_structure_solution    'SHELXS-97 (Sheldrick 2008)'
_diffrn_ambient_temperature      100(2)
_diffrn_measured_fraction_theta_full 0.998
_diffrn_measured_fraction_theta_max 0.934
_diffrn_measurement_device_type  'Bruker APEX-II CCD'
_diffrn_measurement_method       '\f and \w scans'
_diffrn_radiation_type           MoK\a
_diffrn_radiation_wavelength     0.71073
_diffrn_reflns_av_R_equivalents  0.0191
_diffrn_reflns_av_unetI/netI     0.0319
_diffrn_reflns_Laue_measured_fraction_full 0.998
_diffrn_reflns_Laue_measured_fraction_max 0.934
_diffrn_reflns_limit_h_max       11
_diffrn_reflns_limit_h_min       -11
_diffrn_reflns_limit_k_max       11
_diffrn_reflns_limit_k_min       -10
_diffrn_reflns_limit_l_max       15
_diffrn_reflns_limit_l_min       -15
_diffrn_reflns_number            8173
_diffrn_reflns_point_group_measured_fraction_full 0.992
_diffrn_reflns_point_group_measured_fraction_max 0.894
_diffrn_reflns_theta_full        25.242
_diffrn_reflns_theta_max         30.922
_diffrn_reflns_theta_min         1.873
_diffrn_source                   'fine-focus sealed tube'
_exptl_absorpt_coefficient_mu    2.176
_exptl_absorpt_correction_type   multi-scan
_exptl_absorpt_process_details   sadabs
_exptl_crystal_colour            colourless
_exptl_crystal_density_diffrn    1.794
_exptl_crystal_description       prism
_exptl_crystal_F_000             396
_exptl_crystal_size_max          0.780
_exptl_crystal_size_mid          0.320
_exptl_crystal_size_min          0.120
_exptl_transmission_factor_max   0.1568
_exptl_transmission_factor_min   0.0856
_refine_diff_density_max         0.262
_refine_diff_density_min         -0.564
_refine_diff_density_rms         0.080
_refine_ls_abs_structure_details
;
 Flack x determined using 1802 quotients [(I+)-(I-)]/[(I+)+(I-)]
 (Parsons, Flack and Wagner, Acta Cryst. B69 (2013) 249-259).
;
_refine_ls_abs_structure_Flack   0.017(8)
_refine_ls_extinction_method     none
_refine_ls_goodness_of_fit_ref   1.108
_refine_ls_hydrogen_treatment    constr
_refine_ls_matrix_type           full
_refine_ls_number_parameters     191
_refine_ls_number_reflns         4189
_refine_ls_number_restraints     1
_refine_ls_restrained_S_all      1.108
_refine_ls_R_factor_all          0.0150
_refine_ls_R_factor_gt           0.0148
_refine_ls_shift/su_max          0.001
_refine_ls_shift/su_mean         0.000
_refine_ls_structure_factor_coef Fsqd
_refine_ls_weighting_details
'w=1/[\s^2^(Fo^2^)+(0.0057P)^2^] where P=(Fo^2^+2Fc^2^)/3'
_refine_ls_weighting_scheme      calc
_refine_ls_wR_factor_gt          0.0377
_refine_ls_wR_factor_ref         0.0377
_reflns_Friedel_coverage         0.797
_reflns_Friedel_fraction_full    0.985
_reflns_Friedel_fraction_max     0.849
_reflns_number_gt                4140
_reflns_number_total             4189
_reflns_threshold_expression     'I > 2\s(I)'
_cod_data_source_file            jo8b01424_si_003.cif
_cod_data_source_block           mo_fzz06011_0m
_cod_original_sg_symbol_H-M      'P 21'
_cod_database_code               4035029
_shelx_shelxl_version_number     2014/7
_shelx_space_group_comment
;
The symmetry employed for this shelxl refinement is uniquely defined
by the following loop, which should always be used as a source of
symmetry information in preference to the above space-group names.
They are only intended as comments.
;
_shelx_estimated_absorpt_t_min   0.282
_shelx_estimated_absorpt_t_max   0.780
_shelx_res_file
;

    mo_fzz06011_0m.res created by SHELXL-2014/7

TITL mo_fzz06011_0m in P2(1)
CELL 0.71073 8.7161 7.7989 10.9853 90.000 98.149 90.000
ZERR 2.00 0.0010 0.0009 0.0012 0.000 0.001 0.000
LATT -1
SYMM -x, y+1/2, -z
SFAC C  H  N  O  I
UNIT 32  36  2  6  2
L.S. 10
ACTA
BOND $H
FMAP 2
PLAN -4
HTAB C16 O3_$4
HTAB C16 I1_$3
HTAB C13 O2_$2
HTAB C13 O1_$2
HTAB C11 I1_$1
HTAB C16 O3_$4
HTAB C16 I1_$3
HTAB C13 O2_$2
HTAB C13 O1_$2
HTAB C11 I1_$1
HTAB C16 O3_$4
HTAB C16 I1_$3
HTAB C13 O2_$2
HTAB C13 O1_$2
HTAB C11 I1_$1
HTAB C16 O3_$4
HTAB C16 I1_$3
HTAB C13 O2_$2
HTAB C13 O1_$2
HTAB C11 I1_$1
HTAB C16 O3_$4
EQIV $4 -x+1, y-1/2, -z
HTAB C16 I1_$3
EQIV $3 -x+2, y-1/2, -z+1
HTAB C13 O2_$2
HTAB C13 O1_$2
EQIV $2 -x+1, y+1/2, -z+1
HTAB C11 I1_$1
EQIV $1 -x+1, y-1/2, -z+1
CONF
HTAB
SIZE 0.120 0.320 0.780
HTAB C11 I1_$1
HTAB C13 O1_$2
HTAB C13 O2_$2
HTAB C16 I1_$3
HTAB C16 O3_$4
HTAB C11 I1_$1
HTAB C13 O1_$2
HTAB C13 O2_$2
HTAB C16 I1_$3
HTAB C16 O3_$4
HTAB C11 I1_$1
HTAB C13 O1_$2
HTAB C13 O2_$2
HTAB C16 I1_$3
HTAB C16 O3_$4
HTAB C11 I1_$1
HTAB C13 O1_$2
HTAB C13 O2_$2
HTAB C16 I1_$3
HTAB C16 O3_$4
TEMP -173.000
WGHT    0.005700
FVAR       0.24879
I1    5    0.956724    0.550548    0.607675    11.00000    0.01470    0.01544 =
         0.01238   -0.00143   -0.00227   -0.00124
O1    4    0.747306    0.226475    0.634202    11.00000    0.02148    0.02669 =
         0.01270    0.00543   -0.00020   -0.00605
O2    4    0.542905    0.045206    0.476818    11.00000    0.02355    0.01813 =
         0.01592    0.00144    0.00255   -0.00659
O3    4    0.485033    0.767184    0.107756    11.00000    0.02015    0.01728 =
         0.01460    0.00254    0.00103    0.00370
N1    3    0.568867    0.232199    0.321854    11.00000    0.01193    0.01056 =
         0.01120    0.00023    0.00090   -0.00235
C1    1    0.720253    0.274311    0.527732    11.00000    0.01088    0.01497 =
         0.01226    0.00066    0.00144   -0.00102
C2    1    0.793962    0.422861    0.479285    11.00000    0.01070    0.01193 =
         0.01215   -0.00162    0.00050   -0.00049
C3    1    0.757932    0.474661    0.362326    11.00000    0.01054    0.01093 =
         0.01141   -0.00090    0.00112    0.00150
C4    1    0.829180    0.626964    0.306534    11.00000    0.01341    0.01213 =
         0.01408    0.00130   -0.00072   -0.00215
AFIX  13
H12   2    0.907598    0.679608    0.370999    11.00000   -1.20000
AFIX   0
C5    1    0.912558    0.567957    0.199515    11.00000    0.01567    0.01531 =
         0.01620    0.00207    0.00442   -0.00172
AFIX  23
H11   2    0.953465    0.669607    0.160738    11.00000   -1.20000
H5    2    1.001681    0.494637    0.232174    11.00000   -1.20000
AFIX   0
C6    1    0.805525    0.467662    0.101720    11.00000    0.01370    0.01512 =
         0.01228    0.00111    0.00315    0.00210
AFIX  13
H8    2    0.725334    0.548248    0.060351    11.00000   -1.20000
AFIX   0
C7    1    0.894444    0.392267    0.004080    11.00000    0.01792    0.02070 =
         0.01693   -0.00005    0.00738    0.00255
AFIX 137
H6    2    0.944270    0.484994   -0.036068    11.00000   -1.50000
H1    2    0.822437    0.330640   -0.057364    11.00000   -1.50000
H7    2    0.973679    0.312789    0.043020    11.00000   -1.50000
AFIX   0
C8    1    0.639458    0.383965    0.271203    11.00000    0.01056    0.00925 =
         0.01068    0.00023    0.00078   -0.00017
C9    1    0.601968    0.172561    0.438233    11.00000    0.01258    0.01489 =
         0.01120   -0.00077    0.00207    0.00058
C10   1    0.441870    0.148838    0.238700    11.00000    0.01429    0.01382 =
         0.01452   -0.00050   -0.00136   -0.00289
AFIX  23
H18   2    0.400547    0.050916    0.281333    11.00000   -1.20000
H17   2    0.482214    0.104392    0.164995    11.00000   -1.20000
AFIX   0
C11   1    0.312758    0.277721    0.200033    11.00000    0.01378    0.01769 =
         0.01845   -0.00025   -0.00173   -0.00126
AFIX  23
H15   2    0.232022    0.223147    0.139967    11.00000   -1.20000
H16   2    0.264447    0.310948    0.272865    11.00000   -1.20000
AFIX   0
C12   1    0.372397    0.437376    0.142849    11.00000    0.01232    0.01628 =
         0.01332   -0.00002   -0.00161    0.00081
AFIX  23
H13   2    0.287570    0.521993    0.124703    11.00000   -1.20000
H14   2    0.410198    0.407353    0.064724    11.00000   -1.20000
AFIX   0
C13   1    0.504562    0.514561    0.232786    11.00000    0.01100    0.00987 =
         0.01058    0.00076    0.00011    0.00130
AFIX  13
H2    2    0.458971    0.538073    0.309669    11.00000   -1.20000
AFIX   0
C14   1    0.558569    0.687420    0.191869    11.00000    0.01478    0.01212 =
         0.01244   -0.00110    0.00366    0.00251
C15   1    0.701553    0.761514    0.266483    11.00000    0.01801    0.01055 =
         0.01589    0.00081    0.00029   -0.00050
AFIX  23
H3    2    0.671825    0.816870    0.340806    11.00000   -1.20000
H4    2    0.744531    0.851412    0.217382    11.00000   -1.20000
AFIX   0
C16   1    0.722600    0.324108    0.162749    11.00000    0.01259    0.01296 =
         0.01060   -0.00112    0.00126    0.00192
AFIX  23
H10   2    0.799634    0.235184    0.193217    11.00000   -1.20000
H9    2    0.645174    0.270264    0.099614    11.00000   -1.20000
AFIX   0
HKLF 4 1 1 0 0 0 1 0 0 0 1

REM  mo_fzz06011_0m in P2(1)
REM R1 =  0.0148 for    4140 Fo > 4sig(Fo)  and  0.0150 for all    4189 data
REM    191 parameters refined using      1 restraints

END

WGHT      0.0059      0.0000

REM Instructions for potential hydrogen bonds
HTAB C11 I1_$1
HTAB C13 O1_$2
HTAB C13 O2_$2
HTAB C16 I1_$3
HTAB C16 O3_$4

REM Highest difference peak  0.262,  deepest hole -0.564,  1-sigma level  0.080
Q1    1   0.3742  0.8846  0.2122  11.00000  0.05    0.26
Q2    1   0.7680  0.3477  0.5021  11.00000  0.05    0.24
Q3    1   0.7779  0.6904  0.1388  11.00000  0.05    0.23
Q4    1   0.7935  0.5551  0.3314  11.00000  0.05    0.23
;
_shelx_res_checksum              77796
_shelx_hkl_file
;
   1   0   0   23.64    0.83
   1   0   0   22.32    0.82
  -1   0   0   22.39    0.82
   2   0   0  289.38    9.97
   3   0   0   80.99    2.87
   3   0   0   82.93    2.90
   4   0   0  237.06    8.31
   4   0   0  241.75    8.28
   5   0   0    1.40    0.14
  -6   0   0   13.48    0.62
   6   0   0   13.69    0.59
   7   0   0   12.52    0.78
  -7   0   0   14.90    0.66
  -8   0   0   46.03    1.81
   8   0   0   47.29    2.03
   9   0   0   60.38    2.56
  10   0   0   42.76    2.02
  11   0   0   23.54    1.36
   0  -1   0   -0.19    0.04
   0  -1   0   -0.17    0.05
   0  -1   0   -0.11    0.05
   1  -1   0  298.70   10.42
  -1  -1   0  293.18   10.22
  -1  -1   0  303.10   10.22
   1  -1   0  308.37   10.24
  -1   1   0  290.25   10.23
   1   1   0  275.49   10.22
   1   1   0  297.20   10.35
  -2  -1   0  461.92   16.22
   2  -1   0  484.84   16.32
  -2  -1   0  453.70   16.13
   2  -1   0  457.11   16.37
   2   1   0  476.36   16.38
  -3  -1   0  188.24    6.48
   3  -1   0  183.44    6.51
   3   1   0  188.01    6.54
  -4  -1   0  271.07    8.98
   4  -1   0  260.04    9.12
   4  -1   0  267.86    9.06
   4   1   0  274.40    9.12
   4   1   0  227.32    9.02
  -5  -1   0  262.92    8.92
   5  -1   0  264.47    9.00
   5  -1   0  245.92    9.08
   5   1   0  255.96    9.07
  -6  -1   0  200.61    7.99
   6  -1   0  244.19    8.10
   6   1   0  237.03    8.20
   6   1   0  238.67    8.05
  -7  -1   0  171.75    6.22
   7  -1   0  175.67    6.47
   7   1   0  183.07    6.26
   7   1   0  176.71    6.44
  -7   1   0  178.17    6.30
   8  -1   0   58.40    2.46
   8   1   0   57.71    2.42
  -8   1   0   58.99    2.26
   9  -1   0   23.18    1.22
   9   1   0   20.36    1.17
  -9   1   0   21.32    1.00
  10  -1   0   12.98    0.94
  10   1   0   15.23    0.97
  11  -1   0    1.05    0.33
  11   1   0    0.82    0.30
   0  -2   0  289.21   10.19
   0  -2   0  295.65   10.28
   0  -2   0  294.38   10.22
   1  -2   0  639.37   21.79
   1  -2   0  629.61   21.63
  -1  -2   0  654.74   21.58
   1  -2   0  572.54   21.80
   1   2   0  622.07   21.74
  -2  -2   0  723.83   24.30
  -2  -2   0  662.05   24.60
   2  -2   0  686.92   24.67
   2   2   0  708.00   24.57
  -2   2   0  745.31   24.34
  -3  -2   0   35.88    1.41
  -3  -2   0   39.79    1.29
   3  -2   0   35.79    1.40
   3   2   0   32.69    1.39
   4  -2   0   41.70    1.60
  -4  -2   0   38.23    1.49
   4  -2   0   38.93    1.63
   4   2   0   41.90    1.59
   4   2   0   43.60    1.62
  -5  -2   0   47.02    1.65
   5  -2   0   45.09    1.75
   5  -2   0   43.98    1.82
   5   2   0   44.58    1.79
   5   2   0   41.78    1.72
   6  -2   0    5.78    0.42
  -6  -2   0    6.57    0.35
   6  -2   0    5.69    0.48
   6   2   0    6.83    0.48
   6   2   0    6.28    0.41
   7  -2   0   72.49    2.64
   7  -2   0   68.60    2.76
   7   2   0   66.14    2.70
   7   2   0   65.98    2.58
   8  -2   0   45.03    2.09
   8   2   0   50.32    1.94
   8   2   0   49.83    2.08
   9  -2   0   37.04    1.81
   9   2   0   38.51    1.79
  -9   2   0   40.73    1.65
  10  -2   0   62.85    2.83
 -10   2   0   67.21    2.60
  10   2   0   67.21    2.81
  11  -2   0   46.57    2.21
  11   2   0   44.98    2.14
   0  -3   0    2.05    0.19
   0  -3   0    1.62    0.16
  -1  -3   0   28.95    1.10
   1  -3   0   28.70    1.20
   1   3   0   29.55    1.15
  -2  -3   0   90.76    3.55
  -2  -3   0  105.83    3.43
   2  -3   0   97.59    3.54
  -2   3   0   98.42    3.46
   2   3   0   98.32    3.52
   3  -3   0  161.71    6.15
  -3  -3   0  172.40    5.95
   3   3   0  176.86    6.10
  -3   3   0  179.51    5.97
   4  -3   0  193.88    7.12
   4  -3   0  214.13    7.08
   4   3   0  191.59    7.06
   4   3   0  198.53    7.05
   5  -3   0  238.58    8.80
   5  -3   0  256.67    8.74
   5   3   0  254.07    8.74
   5   3   0  240.08    8.72
   6  -3   0  210.80    7.60
   6  -3   0  215.34    7.50
   6   3   0  210.50    7.53
   6   3   0  205.50    7.48
   7  -3   0   67.45    2.60
   7  -3   0   63.71    2.71
   7   3   0   66.34    2.58
   7   3   0   69.12    2.67
   8  -3   0   98.28    3.96
   8  -3   0  101.59    3.81
   8   3   0  103.04    3.90
   8   3   0  101.60    3.78
   9  -3   0   35.47    1.80
   9   3   0   38.75    1.76
  -9   3   0   39.51    1.66
  10  -3   0   13.24    0.93
  10   3   0   10.09    0.81
 -10   3   0   11.52    0.72
  11  -3   0    1.91    0.43
  11   3   0    1.72    0.40
   0  -4   0  300.52    9.44
   0  -4   0  240.80    9.46
   1  -4   0  244.35    8.63
  -1  -4   0  210.77    8.55
  -1   4   0  267.33    8.63
   1   4   0  264.52    8.64
  -2  -4   0  253.39    8.51
   2  -4   0  237.99    8.62
   2  -4   0  245.19    8.72
   2   4   0  244.04    8.59
  -2   4   0  248.22    8.55
   3  -4   0  132.80    4.81
   3  -4   0  132.72    4.89
  -3  -4   0  137.05    4.64
   3   4   0  130.18    4.77
   3   4   0  133.34    4.84
  -3   4   0  134.42    4.68
   4  -4   0  175.99    6.30
   4   4   0  169.90    6.22
   4   4   0  176.05    6.18
  -4   4   0  171.21    5.99
   5  -4   0   25.11    1.15
   5  -4   0   25.24    1.23
   5   4   0   25.30    1.13
   5   4   0   24.72    1.15
   6  -4   0    2.30    0.30
   6  -4   0    2.71    0.36
   6   4   0    2.13    0.30
   6   4   0    2.99    0.34
   7  -4   0    5.89    0.55
   7  -4   0    5.63    0.48
   7   4   0    6.16    0.51
   7   4   0    6.67    0.50
   8  -4   0   29.21    1.53
   8  -4   0   30.34    1.40
   8   4   0   30.15    1.44
   8   4   0   30.68    1.39
   9  -4   0   67.63    2.93
   9   4   0   68.47    2.70
   9   4   0   66.77    2.79
  10  -4   0   33.13    1.76
 -10   4   0   32.91    1.53
  10   4   0   33.15    1.65
  11  -4   0   45.64    2.28
 -11   4   0   45.55    1.99
  11   4   0   45.58    2.13
   0  -5   0    1.24    0.18
  -1  -5   0    9.94    0.52
   1  -5   0    9.50    0.56
   1  -5   0    9.96    0.63
   1   5   0   13.02    0.66
  -1   5   0   12.21    0.60
   1   5   0   11.85    0.58
   2  -5   0   44.91    1.92
   2  -5   0   43.95    1.81
   2   5   0   45.26    1.79
   2   5   0   48.69    1.88
  -2   5   0   46.43    1.76
  -3  -5   0  124.68    4.32
   3  -5   0  119.16    4.61
   3  -5   0  121.23    4.49
   3   5   0  125.74    4.45
  -3   5   0  124.15    4.37
   4  -5   0  269.21   11.13
   4  -5   0  328.90   11.33
   4   5   0  334.57   11.24
   4   5   0  337.48   11.15
   5  -5   0   56.45    2.15
   5  -5   0   54.55    2.27
   5   5   0   48.22    2.13
   5   5   0   50.53    2.08
   6  -5   0  148.99    5.58
   6  -5   0  153.07    5.76
   6   5   0  152.81    5.62
   6   5   0  155.67    5.58
   7  -5   0   47.06    1.98
   7  -5   0   47.49    2.15
   7   5   0   44.83    1.96
   7   5   0   45.98    1.98
   8  -5   0   70.44    2.79
   8  -5   0   70.15    2.99
   8   5   0   67.71    2.79
   8   5   0   66.72    2.76
   9  -5   0   19.88    1.25
   9  -5   0   20.59    1.08
   9   5   0   17.92    1.03
   9   5   0   18.45    1.08
  10  -5   0    4.91    0.64
  10   5   0    5.37    0.57
 -10   5   0    5.68    0.54
  11   5   0    6.07    1.05
   0  -6   0  198.07    7.31
   0   6   0  215.06    7.40
   0   6   0  207.87    7.36
   1  -6   0  137.53    5.08
   1  -6   0  134.97    4.99
  -1  -6   0  136.58    4.93
   1   6   0  141.89    5.07
   1   6   0  138.13    4.98
  -1   6   0  138.76    5.00
   2  -6   0  206.83    7.53
   2  -6   0  211.08    7.67
  -2  -6   0  216.46    7.41
  -2   6   0  213.69    7.48
   2   6   0  209.31    7.60
   2   6   0  211.27    7.49
   3  -6   0   71.47    2.77
   3  -6   0   67.30    2.89
  -3   6   0   72.30    2.65
   3   6   0   71.94    2.71
   3   6   0   73.24    2.83
   4  -6   0   15.88    0.97
   4  -6   0   14.87    0.83
   4   6   0   15.26    0.87
   4   6   0   15.57    0.79
   5  -6   0    5.53    0.48
   5  -6   0    5.66    0.56
   5   6   0    4.81    0.48
   5   6   0    5.20    0.43
   6  -6   0    6.96    0.55
   6  -6   0    7.88    0.69
   6   6   0    6.57    0.52
   6   6   0    6.60    0.57
   7  -6   0   14.18    0.99
   7  -6   0   12.81    0.83
   7   6   0   14.17    0.83
   7   6   0   13.47    0.85
   8  -6   0   13.07    0.86
   8  -6   0   13.93    1.02
   8   6   0   14.11    0.87
   8   6   0   13.80    0.88
   9  -6   0   12.98    0.86
   9  -6   0   13.18    1.02
   9   6   0   13.46    0.87
   9   6   0   13.14    0.86
  10  -6   0   42.45    2.18
  10   6   0   41.02    1.93
 -10   6   0   39.65    2.34
   0  -7   0    0.04    0.11
   0   7   0   -0.01    0.12
   0   7   0    0.23    0.13
   1  -7   0    2.22    0.28
  -1  -7   0    2.02    0.24
   1   7   0    1.47    0.24
  -1   7   0    1.54    0.26
   1   7   0    1.55    0.28
   2  -7   0   48.31    2.07
   2  -7   0   49.23    2.17
  -2   7   0   54.20    2.05
   2   7   0   53.10    2.16
   2   7   0   50.39    2.02
   3  -7   0   94.23    3.83
   3  -7   0  100.03    3.70
   3   7   0   97.36    3.76
   3   7   0   95.92    3.61
   4  -7   0   90.29    3.50
   4  -7   0   85.64    3.67
   4   7   0   93.84    3.58
   4   7   0   92.18    3.42
   5  -7   0   86.51    3.39
   5  -7   0   85.83    3.60
   5   7   0   88.77    3.46
   5   7   0   85.64    3.30
   6  -7   0   74.29    3.03
   6  -7   0   76.66    3.29
   6   7   0   76.38    3.05
   6   7   0   75.10    3.08
   7  -7   0   44.54    2.18
   7  -7   0   43.26    1.92
   7   7   0   40.03    1.92
   8  -7   0   18.10    1.07
   8  -7   0   18.25    1.28
   8   7   0   18.68    1.10
   9  -7   0   20.93    1.47
   9  -7   0   22.04    1.48
   9   7   0   19.37    1.17
   0  -8   0  125.32    4.49
   0   8   0  118.17    4.57
   1  -8   0   73.72    2.98
   1   8   0   79.48    3.10
  -1   8   0   79.49    3.03
   2  -8   0  102.43    3.76
  -2   8   0   96.09    3.69
   2   8   0   95.65    3.82
   3  -8   0   44.79    1.96
   3   8   0   47.20    2.06
   4  -8   0   10.28    0.72
   4   8   0   10.65    0.77
   5  -8   0    7.32    0.61
   5   8   0    8.19    0.68
   6  -8   0    7.72    0.65
   6   8   0    8.50    0.71
   7  -8   0    5.92    0.59
   7   8   0    5.87    0.62
   8   8   0   16.66    1.15
   0   9   0    0.07    0.16
   1  -9   0    6.23    0.52
  -1   9   0    6.45    0.55
   1   9   0    6.86    0.59
   2  -9   0   23.39    1.17
   2   9   0   21.86    1.22
   3  -9   0   16.37    0.95
   3   9   0   16.61    1.03
   4  -9   0   51.90    2.22
   4   9   0   50.59    2.29
   5  -9   0   66.36    2.85
   5   9   0   72.38    2.97
   6  -9   0   30.15    1.52
   6   9   0   29.64    1.57
   0  10   0   72.37    2.97
   1  10   0   35.92    1.73
   2 -10   0   38.92    1.75
   2  10   0   37.49    1.84
   3 -10   0   19.91    1.14
   3  10   0   22.84    1.28
   4 -10   0   12.19    0.85
   4  10   0   12.13    0.93
   1  11   0    3.42    0.49
  11   0  -1   50.10    2.32
  10   0  -1   99.09    3.95
   9   0  -1  126.40    4.84
  -8   0   1  116.35    4.21
   8   0  -1  117.70    4.45
   7   0  -1   48.52    2.02
   6   0  -1  160.04    5.58
   6   0  -1  155.76    5.53
  -5   0   1   14.45    0.60
   5   0  -1   13.80    0.62
   4   0  -1    5.46    0.29
  -4   0   1    5.14    0.28
   3   0  -1   18.34    0.72
  -3   0   1   18.13    0.71
  -2   0   1   26.38    0.94
   2   0  -1   23.61    0.98
   2   0  -1   25.92    0.94
   1   0  -1  344.17   11.53
  -1   0   1  319.43   11.55
   1   0  -1  334.84   11.65
   0   0   1  373.69   12.48
   0   0  -1  340.46   12.54
   1   0   1   88.65    3.07
  -1   0  -1   88.50    3.08
   1   0   1   86.38    3.10
   2   0   1  211.64    7.53
  -2   0  -1  217.03    7.51
   2   0   1  220.29    7.56
  -3   0  -1  322.12   11.30
   3   0   1  318.43   11.29
   3   0   1  334.46   11.22
   4   0   1  452.95   15.96
   4   0   1  466.90   15.97
  -5   0  -1  251.73    8.92
   5   0   1  260.16    8.88
   5   0   1  257.22    9.06
   6   0   1   19.78    0.89
   6   0   1   24.41    1.11
  -6   0  -1   25.19    0.98
   7   0   1   35.99    1.61
  -7   0  -1   36.10    1.44
   8   0   1    0.10    0.16
  -8   0  -1    0.04    0.09
   9   0   1    0.35    0.22
  10   0   1   19.64    1.18
  11   0   1   21.08    1.28
  11  -1  -1   22.22    1.30
  11   1  -1   21.27    1.27
  10  -1  -1    5.64    0.59
  10   1  -1    6.30    0.60
   9  -1  -1    5.38    0.54
   9   1  -1    4.84    0.53
  -9   1   1    5.37    0.40
   8  -1  -1    5.60    0.51
   8   1  -1    4.70    0.47
   7  -1  -1   83.95    3.08
   7  -1  -1   80.38    3.22
  -7  -1   1   84.88    2.99
   7   1  -1   84.89    3.05
   7   1  -1   80.95    3.21
   6  -1  -1  158.01    5.56
   6  -1  -1  156.82    5.49
   6  -1  -1  154.07    5.67
   5  -1  -1  173.74    5.84
   5  -1  -1  168.11    5.97
  -5  -1   1  171.29    5.88
   5  -1  -1  161.30    6.04
  -5  -1   1  167.72    5.96
   5   1  -1  171.49    6.05
   4  -1  -1  308.71   11.11
  -4  -1   1  320.18   11.05
   4  -1  -1  321.76   11.06
   4   1  -1  311.72   11.11
  -4   1   1  330.37   10.99
  -3  -1   1  325.23   12.05
   3  -1  -1  332.07   12.06
   3   1  -1  345.77   12.10
   3   1  -1  376.98   12.08
  -3   1   1  363.88   12.05
   2  -1  -1  636.46   21.20
  -2  -1   1  610.48   21.16
   2  -1  -1  590.86   21.15
  -2   1   1  580.85   20.96
   2   1  -1  617.48   21.19
   1  -1  -1  324.64   10.97
  -1  -1   1  321.63   10.84
  -1  -1   1  325.60   11.04
   1   1  -1  304.83   10.85
  -1   1   1  296.16   10.93
   0  -1   1   25.69    0.93
   0  -1  -1   24.68    0.92
  -1  -1  -1   94.78    3.33
   1  -1   1   91.67    3.30
   1   1   1   98.03    3.32
   1   1   1   96.35    3.35
   2  -1   1   73.07    2.63
   2  -1   1   74.42    2.57
  -2  -1  -1   75.37    2.61
   2   1   1   71.70    2.63
   2   1   1   72.25    2.63
   3  -1   1   14.92    0.60
  -3  -1  -1   16.32    0.64
   3  -1   1   15.69    0.67
   3   1   1   14.91    0.66
   3   1   1   15.30    0.69
  -4  -1  -1  128.31    4.63
   4  -1   1  132.80    4.59
   4   1   1  134.91    4.74
   5   1   1   45.61    1.90
   5   1   1   54.81    2.04
  -5   1  -1   53.74    1.95
  -6  -1  -1  238.74    8.24
   6   1   1  236.53    8.26
   6   1   1  236.71    8.41
  -6   1  -1  232.15    8.29
   7  -1   1   81.81    3.30
  -7  -1  -1   81.23    3.07
   7   1   1   87.64    3.10
   7   1   1   85.63    3.28
  -7   1  -1   85.50    3.13
   8  -1   1  167.35    6.10
  -8   1  -1  160.10    5.87
   8   1   1  163.69    6.06
   9  -1   1   73.22    3.06
  -9   1  -1   74.18    2.82
   9   1   1   74.18    3.03
  10  -1   1   62.78    2.79
  10   1   1   67.01    2.81
  11  -1   1   34.99    1.81
  11   1   1   34.53    1.77
  11  -2  -1   39.62    1.96
  11   2  -1   39.24    1.92
  10  -2  -1   75.06    3.14
  10   2  -1   73.67    3.09
 -10   2   1   75.14    2.95
   9  -2  -1   76.39    3.21
   9   2  -1   80.92    3.19
   8  -2  -1  143.29    4.99
   8  -2  -1  135.08    5.13
   8   2  -1  135.17    4.93
   8   2  -1  131.17    5.08
   7  -2  -1  119.24    4.42
   7  -2  -1  118.35    4.28
   7   2  -1  115.97    4.37
   7   2  -1  113.38    4.24
   6  -2  -1   58.24    2.28
   6  -2  -1   57.61    2.37
   6   2  -1   62.07    2.36
  -5  -2   1   60.89    2.40
  -5  -2   1   66.30    2.26
   5  -2  -1   63.35    2.41
   5  -2  -1   62.93    2.47
   5   2  -1   65.30    2.46
   4  -2  -1   27.04    1.13
   4  -2  -1   26.01    1.16
  -4  -2   1   26.37    1.13
   4   2  -1   30.23    1.18
  -3  -2   1   73.23    2.74
   3  -2  -1   73.81    2.72
  -3   2   1   73.28    2.61
   3   2  -1   77.61    2.75
  -2  -2   1  352.39   12.20
   2  -2  -1  344.95   12.19
   2   2  -1  350.23   12.22
  -2   2   1  360.47   12.25
   1  -2  -1  106.70    3.76
   1  -2  -1  104.06    3.77
  -1  -2   1  111.83    3.71
  -1   2   1  105.33    3.74
   1   2  -1  107.39    3.81
   0  -2   1  444.61   15.67
   0  -2   1  420.99   15.71
   0  -2   1  458.83   15.62
   0  -2  -1  453.42   15.55
   0   2   1  459.65   15.63
   1  -2   1  223.96    7.84
   1  -2   1  220.01    7.94
  -1  -2  -1  222.80    7.86
   1  -2   1  227.11    7.87
   1   2   1  238.70    7.85
  -2  -2  -1  403.10   14.07
   2  -2   1  410.46   14.01
   2   2   1  394.67   14.01
   3  -2   1  310.39   10.09
   3  -2   1  281.74   10.21
  -3  -2  -1  282.56   10.10
   3  -2   1  305.57   10.16
   3   2   1  277.30   10.13
   4  -2   1  298.39    9.70
  -4  -2  -1  262.41    9.62
   4  -2   1  275.65    9.76
   4   2   1  272.71    9.67
   4   2   1  276.86    9.70
   5  -2   1  112.57    4.37
  -5  -2  -1  119.76    4.23
   5  -2   1  121.76    4.30
   5   2   1  122.18    4.33
   5   2   1  116.54    4.27
   6  -2   1   85.33    3.25
   6   2   1   82.82    3.09
   6   2   1   82.52    3.18
   7  -2   1   12.13    0.79
   7   2   1   12.33    0.65
   7   2   1   12.67    0.76
  -7   2  -1   12.61    0.67
   8  -2   1    7.02    0.61
   8   2   1    6.73    0.57
  -8   2  -1    6.89    0.48
   8   2   1    7.16    0.68
   9  -2   1    1.75    0.36
  -9   2  -1    2.50    0.34
   9   2   1    2.16    0.38
  10  -2   1   13.34    0.94
  10   2   1   12.90    0.89
 -10   2  -1   12.10    0.73
  11  -2   1   26.85    1.54
  11   2   1   27.40    1.50
  11  -3  -1    8.06    0.77
  11   3  -1    9.46    0.79
  10  -3  -1    5.77    0.63
  10   3  -1    5.82    0.59
   9  -3  -1    2.81    0.45
   9  -3  -1    2.49    0.35
   9   3  -1    2.17    0.38
   8  -3  -1   42.29    1.97
   8  -3  -1   43.93    1.85
   8   3  -1   45.42    1.94
   8   3  -1   45.29    1.84
   7  -3  -1   12.23    0.69
   7  -3  -1   12.55    0.78
   7   3  -1   11.63    0.68
   7   3  -1   11.85    0.74
   6  -3  -1   88.67    3.26
   6  -3  -1   87.50    3.34
   6   3  -1   83.65    3.28
   5  -3  -1  181.18    6.35
   5  -3  -1  172.49    6.39
  -5  -3   1  177.41    6.36
   5   3  -1  179.53    6.37
   4  -3  -1  365.99   12.37
   4  -3  -1  334.33   12.37
  -4  -3   1  349.23   12.37
   4   3  -1  367.61   12.38
  -3  -3   1  359.08   11.68
   3  -3  -1  322.62   11.64
   3  -3  -1  294.41   11.61
  -3   3   1  348.49   11.62
   3   3  -1  345.80   11.65
   2  -3  -1  208.59    7.97
  -2  -3   1  232.01    7.85
   2  -3  -1  225.47    7.99
   2   3  -1  236.36    8.00
  -2   3   1  237.34    7.90
   1  -3  -1  295.31   10.35
  -1  -3   1  316.29   10.28
  -1   3   1  287.60   10.32
   1   3  -1  293.04   10.38
   0  -3   1  215.22    7.34
   0  -3   1  209.44    7.45
   0  -3  -1  203.74    7.35
   0   3   1  215.95    7.38
   1  -3   1   29.61    1.09
  -1  -3  -1   29.49    1.06
   1   3   1   26.50    1.04
   1   3   1   24.31    1.10
   2  -3   1    3.20    0.31
   2  -3   1    2.86    0.24
   2  -3   1    3.26    0.21
  -2  -3  -1    3.33    0.20
   2   3   1    2.65    0.21
  -3  -3  -1    2.97    0.18
   3  -3   1    2.69    0.17
   3  -3   1    3.27    0.31
   3   3   1    3.01    0.24
   3   3   1    2.63    0.26
   4  -3   1   62.29    2.30
  -4  -3  -1   64.55    2.16
   4  -3   1   58.41    2.37
   4   3   1   55.97    2.28
   4   3   1   58.19    2.26
  -5  -3  -1   91.13    3.07
   5  -3   1   84.54    3.31
   5  -3   1   87.39    3.21
   5   3   1   83.75    3.20
   5   3   1   81.85    3.18
   6  -3   1   94.28    3.70
   6  -3   1   97.79    3.59
   6   3   1   95.01    3.56
   6   3   1   96.54    3.61
   7  -3   1   71.70    3.12
   7   3   1   81.79    2.99
   7   3   1   80.98    3.06
   8  -3   1  115.33    4.55
  -8   3  -1  114.59    4.34
   8   3   1  119.56    4.46
   8   3   1  118.93    4.33
   9  -3   1   75.53    3.13
  -9   3  -1   72.60    2.88
   9   3   1   72.58    3.00
  10  -3   1   79.73    3.41
  10   3   1   80.58    3.30
 -10   3  -1   80.91    3.15
  11  -3   1    9.13    0.85
  11   3   1    9.78    0.80
 -11   3  -1    8.77    0.71
  11  -4  -1   15.01    1.10
 -11   4   1   14.81    0.90
  11   4  -1   15.69    1.04
  10  -4  -1   81.12    3.50
  10   4  -1   85.20    3.40
   9  -4  -1   56.11    2.27
   9  -4  -1   54.01    2.43
   9   4  -1   52.24    2.22
   9   4  -1   54.19    2.34
   8  -4  -1   90.49    3.51
   8  -4  -1   90.44    3.67
   8   4  -1   91.85    3.58
   8   4  -1   92.96    3.52
   7  -4  -1   86.06    3.39
   7  -4  -1   85.43    3.51
   7   4  -1   91.90    3.42
   7   4  -1   92.35    3.45
   6  -4  -1   96.68    3.53
   6  -4  -1   94.93    3.61
   6   4  -1   90.95    3.52
   6   4  -1   88.93    3.51
   5  -4  -1   40.57    1.76
  -5  -4   1   40.29    1.72
   5  -4  -1   41.64    1.70
   5   4  -1   41.46    1.70
  -4  -4   1    7.52    0.49
   4  -4  -1    6.96    0.49
   4   4  -1    5.55    0.42
  -4   4   1    6.02    0.30
   3  -4  -1   10.53    0.60
   3  -4  -1   10.76    0.58
  -3  -4   1   11.04    0.61
   3   4  -1    9.94    0.56
  -3   4   1    9.57    0.46
  -2  -4   1   76.91    3.00
   2  -4  -1   75.93    2.96
  -2  -4   1   80.16    2.83
  -2   4   1   82.21    2.89
   2   4  -1   85.27    2.99
  -1  -4   1   75.21    2.93
   1  -4  -1   79.84    2.90
  -1  -4   1   78.21    2.82
   1  -4  -1   81.50    2.92
   1   4  -1   80.34    2.94
  -1   4   1   78.69    2.87
   0  -4  -1  180.89    6.33
   0  -4   1  179.75    6.37
   0  -4   1  182.68    6.44
   0   4   1  177.74    6.36
   0   4   1  179.00    6.30
   1  -4   1  228.01    8.10
   1  -4   1  235.99    8.10
   1  -4   1  224.92    8.23
   1   4   1  231.64    8.04
   1   4   1  235.44    8.14
   2  -4   1  309.88   10.91
   2  -4   1  303.83   11.04
  -2  -4  -1  321.15   10.82
   2   4   1  313.55   10.94
   2   4   1  314.03   10.84
   3  -4   1  238.86    8.39
  -3  -4  -1  245.13    8.26
   3  -4   1  236.81    8.53
   3   4   1  235.44    8.33
   3   4   1  234.69    8.42
   4  -4   1  129.24    4.79
  -4  -4  -1  137.20    4.48
   4   4   1  123.73    4.60
   4   4   1  124.18    4.67
  -4   4  -1  125.67    4.46
   5  -4   1   82.50    3.23
   5  -4   1   81.89    3.36
   5   4   1   90.93    3.23
   5   4   1   87.51    3.25
   6  -4   1   55.96    2.44
   6  -4   1   56.40    2.30
   6   4   1   60.23    2.31
   6   4   1   58.68    2.31
   7  -4   1   39.59    1.68
   7  -4   1   38.40    1.82
   7   4   1   38.34    1.68
   7   4   1   37.67    1.65
   8  -4   1    1.11    0.31
   8   4   1    1.16    0.26
   8   4   1    1.05    0.26
   9  -4   1    5.48    0.63
   9   4   1    6.63    0.60
   9   4   1    6.41    0.59
  -9   4  -1    6.55    0.53
  10  -4   1   19.92    1.23
  10   4   1   16.60    1.05
 -10   4  -1   17.09    0.98
 -11   4  -1    9.94    0.71
  11   4   1   10.18    0.81
 -11   5   1    9.96    0.93
  10  -5  -1    3.71    0.47
  10  -5  -1    4.20    0.58
  10   5  -1    4.11    0.51
   9  -5  -1    0.24    0.19
   9  -5  -1    0.13    0.21
   9   5  -1    0.30    0.21
   9   5  -1    0.32    0.19
   8  -5  -1    2.85    0.48
   8  -5  -1    2.92    0.40
   8   5  -1    2.75    0.41
   8   5  -1    2.84    0.40
   7  -5  -1   34.34    1.70
   7  -5  -1   34.04    1.57
   7   5  -1   36.05    1.59
   7   5  -1   35.56    1.60
   6  -5  -1   99.73    3.95
   6  -5  -1   98.61    3.82
   6   5  -1  101.01    3.86
   6   5  -1  103.71    3.83
   5  -5  -1  155.48    5.77
   5  -5  -1  157.30    5.67
   5   5  -1  153.51    5.65
   4  -5  -1  118.16    4.51
  -4  -5   1  121.83    4.48
  -4   5   1  119.11    4.23
   4   5  -1  120.90    4.40
   3  -5  -1  210.18    7.31
   3  -5  -1  199.86    7.37
   3   5  -1  205.39    7.28
  -3   5   1  204.01    7.17
   2  -5  -1  183.07    6.67
   2  -5  -1  189.86    6.62
  -2  -5   1  191.19    6.68
   2   5  -1  182.32    6.61
  -2   5   1  180.95    6.53
  -1  -5   1  100.44    3.80
   1  -5  -1  100.54    3.75
  -1  -5   1  101.08    3.66
  -1   5   1  104.72    3.74
   1   5  -1  106.09    3.80
   0  -5   1   70.45    2.67
   0  -5   1   73.23    2.81
   0  -5   1   70.34    2.74
   0  -5  -1   73.81    2.70
   0   5   1   71.70    2.66
   0   5   1   75.69    2.74
   1  -5   1  114.62    4.18
  -1  -5  -1  118.21    4.15
   1  -5   1  114.99    4.34
   1  -5   1  116.38    4.20
   1   5   1  113.61    4.13
   1   5   1  115.95    4.24
   2  -5   1    0.80    0.17
  -2  -5  -1    0.71    0.13
   2  -5   1    1.10    0.18
   2  -5   1    0.78    0.22
   2   5   1    1.04    0.16
   2   5   1    0.97    0.20
   3  -5   1   13.60    0.85
   3  -5   1   13.85    0.74
  -3   5  -1   15.02    0.66
   3   5   1   14.57    0.69
   4  -5   1   85.30    3.33
   4  -5   1   87.52    3.16
   4   5   1   81.16    3.08
   4   5   1   78.63    3.17
   5  -5   1    8.16    0.69
   5  -5   1    8.67    0.60
   5   5   1   12.40    0.63
   5   5   1   11.71    0.68
   6  -5   1   93.24    3.63
   6  -5   1   92.44    3.80
   6   5   1   98.28    3.61
   6   5   1   97.85    3.66
   7  -5   1   91.96    3.58
   7  -5   1   91.71    3.77
   7   5   1   93.26    3.58
   7   5   1   94.31    3.57
   8  -5   1   95.21    3.96
   8   5   1   97.88    3.74
   8   5   1   97.14    3.75
   9  -5   1   37.42    1.93
   9   5   1   36.91    1.73
  -9   5  -1   38.02    1.70
   9   5   1   36.73    1.68
  10  -5   1   47.87    2.35
  10   5   1   47.20    2.14
 -10   5  -1   47.03    2.07
  10  -6  -1   34.90    1.70
  10  -6  -1   34.72    1.91
  10   6  -1   33.54    1.69
  10   6  -1   33.86    1.82
   9  -6  -1   53.77    2.58
   9  -6  -1   53.16    2.34
   9   6  -1   57.19    2.39
   9   6  -1   54.18    2.35
   8  -6  -1   89.25    3.58
   8  -6  -1   91.41    3.82
   8   6  -1   94.05    3.61
   8   6  -1   90.42    3.61
   7  -6  -1   50.87    2.16
   7  -6  -1   53.98    2.37
   7   6  -1   48.94    2.18
   7   6  -1   48.99    2.13
   6  -6  -1   46.34    2.12
   6  -6  -1   45.49    1.98
   6   6  -1   45.84    1.95
   6   6  -1   46.23    2.01
   5  -6  -1   14.57    0.85
   5  -6  -1   14.20    0.93
   5   6  -1   14.88    0.82
   5   6  -1   15.95    0.91
   4  -6  -1    4.08    0.40
   4  -6  -1    4.17    0.45
   4   6  -1    2.58    0.37
   4   6  -1    2.81    0.32
   3  -6  -1   22.96    1.08
   3  -6  -1   21.38    1.13
   3   6  -1   22.30    1.04
  -3   6   1   21.86    0.95
   2  -6  -1    8.40    0.56
   2  -6  -1    7.67    0.51
  -2  -6   1    7.61    0.40
   2   6  -1    7.41    0.50
  -2   6   1    6.65    0.45
  -1  -6   1   22.16    0.95
   1  -6  -1   21.60    1.02
  -1  -6   1   22.13    1.08
   1  -6  -1   22.35    1.02
   1   6  -1   23.10    1.06
  -1   6   1   22.32    1.02
   0  -6   1  147.91    5.33
   0  -6  -1  149.70    5.36
   0   6  -1  148.53    5.45
   0   6   1  149.24    5.41
   0   6   1  150.58    5.33
   1  -6   1  106.74    4.05
  -1  -6  -1  109.84    4.03
   1  -6   1  108.46    4.22
   1   6   1  115.36    4.14
   1   6   1  114.79    4.01
   2  -6   1  292.73   10.22
   2  -6   1  277.45   10.40
  -2  -6  -1  303.64   10.13
   2   6   1  283.62   10.13
  -2   6  -1  299.03   10.19
   2   6   1  284.23   10.28
   3  -6   1   49.79    2.24
   3  -6   1   51.09    2.05
  -3   6  -1   51.12    1.96
   3   6   1   51.68    2.11
   3   6   1   50.52    1.96
   4  -6   1  132.42    4.97
   4  -6   1  135.10    5.20
   4   6   1  134.81    4.89
   4   6   1  138.65    5.03
   5  -6   1   82.20    3.21
   5  -6   1   83.22    3.44
   5   6   1   83.92    3.13
   5   6   1   81.33    3.24
   6  -6   1   52.34    2.37
   6  -6   1   50.31    2.14
   6   6   1   51.00    2.08
   6   6   1   50.58    2.17
   7  -6   1    4.35    0.46
   7  -6   1    4.71    0.57
   7   6   1    4.97    0.50
   7   6   1    4.95    0.46
   8  -6   1    3.28    0.55
   8   6   1    2.91    0.42
   8   6   1    3.41    0.42
   9  -6   1    2.42    0.51
   9   6   1    2.01    0.49
  -9   6  -1    1.77    0.35
   9   6   1    1.50    0.33
  10  -6   1   14.57    1.28
   9  -7  -1    8.58    0.82
   9   7  -1    8.28    0.72
   9   7  -1    8.26    0.74
   8  -7  -1   13.52    0.89
   8   7  -1   14.08    0.91
   8   7  -1   13.26    0.87
   7  -7  -1   25.88    1.32
   7   7  -1   26.40    1.30
   7   7  -1   25.77    1.36
   6  -7  -1   69.51    2.87
   6   7  -1   69.73    2.91
   6   7  -1   72.40    2.83
   5  -7  -1   51.32    2.18
   5   7  -1   52.76    2.24
   5   7  -1   50.20    2.12
   4  -7  -1  164.87    6.00
   4   7  -1  166.84    6.08
   4   7  -1  158.17    5.93
   3  -7  -1   50.93    2.12
  -3   7   1   51.09    2.03
   3   7  -1   50.04    2.07
   3   7  -1   52.86    2.20
   2  -7  -1   81.05    3.18
  -2   7   1   83.37    3.12
   2   7  -1   84.61    3.26
   2   7  -1   81.98    3.16
   1  -7  -1  100.06    3.72
  -1  -7   1   97.89    3.62
   1   7  -1  100.50    3.80
  -1   7   1  100.40    3.72
   1   7  -1   96.96    3.73
   0  -7   1   70.02    2.70
   0  -7  -1   73.01    2.74
   0   7  -1   71.94    2.82
   0   7   1   72.78    2.80
   0   7  -1   69.30    2.80
   1  -7   1   23.77    1.20
   1  -7   1   22.78    1.06
  -1  -7  -1   24.14    1.05
   1   7   1   21.61    1.12
  -1   7  -1   22.71    1.10
   2  -7   1    5.49    0.46
   2  -7   1    6.19    0.58
   2   7   1    6.80    0.53
  -2   7  -1    6.99    0.48
   3  -7   1    4.18    0.41
   3  -7   1    4.80    0.53
   3   7   1    5.47    0.49
   4  -7   1   10.39    0.68
   4  -7   1   11.16    0.86
   4   7   1   10.27    0.72
   5  -7   1   26.11    1.30
   5  -7   1   29.17    1.55
   5   7   1   25.71    1.34
   6  -7   1   57.21    2.62
   6  -7   1   55.85    2.34
   6   7   1   53.83    2.37
   7  -7   1   52.51    2.23
   7  -7   1   52.38    2.52
   7   7   1   49.90    2.24
   8  -7   1   54.17    2.60
   8   7   1   51.21    2.29
   9  -7   1   47.18    2.46
   9   7   1   49.54    2.18
   8   8  -1   47.17    2.20
   7  -8  -1   44.06    2.03
   7   8  -1   45.58    2.09
   6  -8  -1   26.53    1.40
   6   8  -1   29.74    1.50
   5  -8  -1    5.52    0.53
   5   8  -1    3.78    0.50
   4  -8  -1    1.71    0.33
   4   8  -1    1.76    0.36
   3  -8  -1    0.20    0.18
   3   8  -1    0.11    0.18
   2  -8  -1   21.96    1.11
  -2   8   1   22.59    1.08
   2   8  -1   22.30    1.19
   1  -8  -1   17.47    0.96
   1   8  -1   19.70    1.21
  -1   8   1   19.40    0.99
   1   8  -1   20.23    1.07
   0  -8  -1   69.26    2.65
   0  -8   1   66.42    2.60
   0   8   1   67.81    2.72
   0   8  -1   66.29    2.77
   0   8  -1   67.94    2.73
   1  -8   1   93.41    3.56
  -1   8  -1   94.71    3.70
   1   8   1   95.89    3.68
  -1   8  -1   93.83    3.62
   2  -8   1   88.03    3.46
  -2   8  -1   93.24    3.47
   2   8   1   91.25    3.57
   3  -8   1   64.60    2.59
   3   8   1   63.94    2.68
   4  -8   1   55.46    2.37
   4   8   1   58.59    2.46
   5  -8   1   46.61    1.98
   5   8   1   42.70    2.02
   6  -8   1   30.93    1.56
   6   8   1   34.12    1.64
   7  -8   1    7.40    0.64
   7   8   1    6.20    0.64
   8   8   1    1.35    0.54
   6  -9  -1   39.04    1.87
   6   9  -1   41.65    1.96
   5  -9  -1   40.68    1.86
   5   9  -1   38.93    1.91
   4  -9  -1   43.00    1.99
   4   9  -1   46.59    2.10
   3  -9  -1   65.53    2.69
   3   9  -1   64.89    2.77
   2  -9  -1   73.87    2.92
   2   9  -1   71.20    3.00
   1  -9  -1   41.66    1.77
  -1   9   1   39.32    1.76
   1   9  -1   38.77    1.83
   0   9   1   29.07    1.39
   0   9  -1   26.89    1.37
   1  -9   1   11.96    0.74
  -1   9  -1   12.49    0.79
   1   9   1   12.87    0.84
   2  -9   1    0.63    0.23
   2   9   1    0.20    0.21
   3  -9   1    2.38    0.38
   3   9   1    1.89    0.37
   4  -9   1    9.20    0.69
   4   9   1    9.40    0.76
   5  -9   1   11.69    0.83
   5   9   1   13.73    0.93
   6  -9   1   42.75    1.92
   6   9   1   38.63    1.96
   4 -10  -1    0.17    0.22
   4  10  -1    0.18    0.22
   3 -10  -1    4.54    0.51
   3  10  -1    4.67    0.57
   2 -10  -1   15.72    0.95
   2  10  -1   15.86    1.02
   1  10  -1   15.42    0.98
   0  10  -1   35.92    1.69
   0  10   1   34.87    1.67
   1  10   1   39.52    1.85
   2  10   1   41.34    1.94
   3 -10   1   55.24    2.41
   3  10   1   59.15    2.54
   4 -10   1   27.35    1.42
   4  10   1   28.64    1.67
   1  11  -1    9.44    0.78
   0  11   1   20.13    1.64
   1  11   1    0.48    0.26
  11   0  -2    6.31    0.65
  10   0  -2   10.30    0.79
   9   0  -2   43.39    1.96
   8   0  -2   92.99    3.63
   8   0  -2   94.35    3.42
   7   0  -2  153.99    5.40
   7   0  -2  149.85    5.57
  -6   0   2  209.85    7.31
   6   0  -2  213.22    7.33
   6   0  -2  204.74    7.47
  -5   0   2  226.24    7.89
   5   0  -2  224.31    8.01
   5   0  -2  229.22    7.90
   4   0  -2  286.38    9.70
  -4   0   2  279.78    9.70
   4   0  -2  274.19    9.78
   3   0  -2   67.69    2.41
  -3   0   2   67.37    2.41
   2   0  -2  223.36    7.57
   2   0  -2  210.25    7.60
  -2   0   2  222.02    7.58
   1   0  -2   53.34    1.87
   1   0  -2   53.96    1.85
  -1   0   2   47.81    1.86
   0   0  -2   15.23    0.67
   0   0   2   17.93    0.69
   1   0   2  266.30    9.31
  -1   0  -2  253.27    9.14
   1   0   2  269.95    9.20
   2   0   2  445.15   15.56
  -2   0  -2  437.10   15.53
   2   0   2  447.54   15.42
   3   0   2   62.51    2.38
   3   0   2   65.18    2.29
   4   0   2  434.71   14.92
  -4   0  -2  417.58   14.73
   4   0   2  426.18   14.82
  -5   0  -2  368.79   13.07
   5   0   2  385.02   13.20
   6   0   2  139.55    5.09
  -6   0  -2  137.07    4.94
  -7   0  -2   77.40    2.89
   7   0   2   77.49    3.07
  -8   0  -2   85.53    3.21
   8   0   2   86.70    3.43
   9   0   2   14.96    0.97
  10   0   2    5.55    0.60
  11   0   2    0.89    0.33
  11  -1  -2   30.12    1.66
  11   1  -2   34.54    1.69
  10  -1  -2   15.49    1.01
  10   1  -2   16.96    1.03
   9  -1  -2   55.10    2.11
   9  -1  -2   53.67    2.31
   9   1  -2   51.16    2.28
   8  -1  -2   24.58    1.09
   8  -1  -2   24.23    1.23
   8   1  -2   25.01    1.24
   7  -1  -2   13.73    0.79
  -7  -1   2   13.52    0.66
   7  -1  -2   13.74    0.67
   7   1  -2   11.33    0.73
  -6  -1   2   30.55    1.25
   6  -1  -2   29.99    1.34
   6  -1  -2   29.80    1.25
   6   1  -2   30.86    1.17
  -6   1   2   31.26    1.15
   5  -1  -2   21.33    1.02
  -5  -1   2   22.99    0.98
   5  -1  -2   23.58    0.98
  -5   1   2   24.12    0.89
   5   1  -2   23.91    0.90
   4  -1  -2  124.12    4.35
   4  -1  -2  119.32    4.38
  -4  -1   2  122.32    4.34
   4   1  -2  121.86    4.25
  -4   1   2  122.93    4.26
   3  -1  -2  115.41    4.55
   3  -1  -2  139.71    4.56
  -3  -1   2  136.85    4.57
   3   1  -2  129.35    4.47
  -3   1   2  124.21    4.48
   2  -1  -2  959.91   32.45
   2  -1  -2 1000.00   32.45
  -2  -1   2  973.16   32.50
  -2   1   2  849.87   32.37
   2   1  -2  886.39   34.17
   1  -1  -2  432.18   13.74
   1  -1  -2  424.54   13.84
  -1  -1   2  378.17   13.86
  -1   1   2  352.98   13.77
   1   1  -2  383.25   13.72
   0  -1  -2  640.51   21.74
   0  -1  -2  582.30   22.50
   0  -1   2  572.01   21.93
   0   1   2  647.18   21.73
   0   1   2  630.01   21.47
   0   1  -2  659.85   21.62
   1  -1   2  347.20   12.58
   1  -1   2  367.38   12.76
  -1  -1  -2  341.87   12.72
   1   1   2  389.56   12.61
  -1   1  -2  355.43   12.52
   1   1   2  370.69   12.71
   2  -1   2  335.32   13.16
  -2  -1  -2  360.66   13.09
   2  -1   2  352.49   13.03
   2   1   2  416.51   13.21
   2   1   2  414.74   13.21
   3  -1   2  267.71    9.14
   3  -1   2  257.29    9.12
  -3  -1  -2  279.66    9.06
   3   1   2  268.81    9.08
  -3   1  -2  228.10    9.04
   4  -1   2    0.45    0.11
   4  -1   2   -0.06    0.10
   4   1   2    0.17    0.09
  -4   1  -2    0.55    0.13
   4   1   2    0.33    0.14
   5  -1   2   10.22    0.61
   5  -1   2   10.37    0.47
  -5  -1  -2    9.36    0.49
   5   1   2    9.16    0.49
   5   1   2    9.23    0.57
  -5   1  -2    9.52    0.51
  -6  -1  -2   44.65    1.74
   6   1   2   44.37    1.87
  -6   1  -2   45.13    1.77
   6   1   2   46.01    1.74
  -7  -1  -2   28.57    1.22
   7  -1   2   29.79    1.42
   7   1   2   29.64    1.39
   7   1   2   29.47    1.21
  -7   1  -2   29.52    1.26
   8  -1   2   82.30    3.37
  -8   1  -2   84.98    3.17
   8   1   2   85.11    3.36
   9  -1   2   67.81    2.87
   9   1   2   65.68    2.81
  -9   1  -2   68.79    2.63
  10  -1   2   62.08    2.74
  10   1   2   62.49    2.71
  11  -1   2   51.18    2.42
  11   1   2   52.58    2.40
  11  -2  -2   10.91    0.87
  11   2  -2   10.57    0.84
  10  -2  -2   38.82    1.86
  10   2  -2   38.14    1.83
   9  -2  -2   38.00    1.88
   9  -2  -2   39.00    1.72
   9   2  -2   47.29    1.93
   8  -2  -2  126.20    4.63
   8  -2  -2  126.43    4.47
   8   2  -2  116.49    4.42
   8   2  -2  116.18    4.57
   7  -2  -2  144.18    5.45
   7  -2  -2  152.93    5.35
  -7  -2   2  149.35    5.34
   7   2  -2  144.85    5.44
  -6  -2   2  186.65    6.53
   6  -2  -2  179.00    6.59
   6  -2  -2  181.58    6.52
   6   2  -2  184.58    6.60
  -5  -2   2  136.26    4.96
   5  -2  -2  136.23    4.95
   5  -2  -2  131.94    4.99
   5   2  -2  147.74    5.03
  -4  -2   2  149.09    5.42
   4  -2  -2  150.52    5.41
   4  -2  -2  144.67    5.41
   4   2  -2  158.14    5.45
  -4   2   2  157.68    5.26
   3  -2  -2  205.21    6.71
   3  -2  -2  168.51    6.67
  -3  -2   2  209.56    6.73
   3   2  -2  194.71    6.74
  -3   2   2  175.90    6.62
   2  -2  -2   94.05    3.49
  -2  -2   2  100.37    3.52
   2  -2  -2   97.47    3.45
   2   2  -2   97.46    3.39
  -2   2   2   97.89    3.44
   2   2  -2   98.47    3.54
   1  -2  -2   29.05    1.08
   1   2  -2   31.20    1.09
  -1   2   2   28.89    1.13
   1   2  -2   30.13    1.21
   0  -2   2   91.51    3.19
   0  -2   2   89.84    3.29
   0  -2  -2   93.00    3.19
   0   2   2   83.99    3.18
   0   2  -2   88.79    3.16
   1  -2   2    9.37    0.42
  -1  -2  -2    8.79    0.42
  -1   2  -2    8.70    0.42
   1   2   2    9.04    0.37
  -2  -2  -2  115.02    3.90
   2  -2   2  118.18    3.87
  -2   2  -2   95.43    3.90
   2   2   2  111.75    3.88
   3  -2   2  558.08   19.08
  -3  -2  -2  466.31   19.01
   3  -2   2  561.97   19.02
  -3   2  -2  563.75   18.91
   3   2   2  563.58   19.01
   3   2   2  571.54   19.05
   4  -2   2  249.89    8.59
   4  -2   2  239.38    8.81
  -4   2  -2  249.80    8.71
   4   2   2  252.53    8.71
   4   2   2  250.11    8.72
  -5  -2  -2  210.43    7.42
   5   2   2  212.46    7.43
  -5   2  -2  208.88    7.43
   5   2   2  209.67    7.48
  -6  -2  -2  176.88    6.39
   6   2   2  180.85    6.49
   6   2   2  184.33    6.40
  -6   2  -2  177.19    6.41
   7  -2   2  202.48    7.32
   7   2   2  199.02    7.09
  -7   2  -2  197.38    7.12
   7   2   2  199.62    7.23
   8  -2   2   19.83    1.18
   8   2   2   22.38    1.16
  -8   2  -2   23.48    1.06
   9  -2   2   17.45    1.07
   9   2   2   15.89    0.99
  -9   2  -2   15.82    0.86
  10  -2   2    1.58    0.38
 -10   2  -2    1.94    0.31
  10   2   2    2.31    0.42
  11  -2   2    2.87    0.53
  11   2   2    2.26    0.44
  11  -3  -2   37.27    1.91
  11   3  -2   38.19    1.86
  10  -3  -2   41.11    2.01
  10  -3  -2   43.02    1.84
  10   3  -2   42.69    1.98
   9  -3  -2   23.84    1.14
   9  -3  -2   23.21    1.26
   9   3  -2   21.02    1.20
   8  -3  -2    2.50    0.37
   8   3  -2    1.63    0.28
   8   3  -2    1.41    0.31
   7  -3  -2    7.66    0.58
  -7  -3   2    8.04    0.54
   7  -3  -2    7.92    0.54
   7   3  -2    6.76    0.56
  -6  -3   2   31.43    1.37
   6  -3  -2   31.33    1.41
   6  -3  -2   32.17    1.36
   6   3  -2   29.37    1.38
  -5  -3   2   11.28    0.62
   5  -3  -2   10.03    0.61
   5  -3  -2   11.60    0.62
   5   3  -2    9.21    0.60
   4  -3  -2  257.06    8.83
  -4  -3   2  249.03    8.85
   4  -3  -2  237.70    8.81
   4   3  -2  264.55    8.86
  -4   3   2  245.51    8.68
   3  -3  -2  160.07    5.83
  -3  -3   2  165.88    5.86
   3   3  -2  165.74    5.86
  -3   3   2  164.68    5.72
   2  -3  -2   85.75    2.87
   2   3  -2   74.25    2.87
   2   3  -2   76.55    2.70
  -2   3   2   73.10    2.76
   1  -3  -2  508.02   18.29
   1  -3  -2  514.66   18.34
  -1  -3   2  523.71   18.25
   1   3  -2  541.67   18.26
  -1   3   2  531.94   18.28
   1   3  -2  532.49   18.53
   0  -3   2  327.30   12.09
   0   3   2  353.53   12.14
   0   3   2  369.42   12.13
   1  -3   2  357.36   13.37
   1  -3   2  410.07   13.56
   1  -3   2  339.38   13.39
   1   3   2  440.16   13.43
  -2  -3  -2  191.74    6.43
   2  -3   2  192.20    6.43
   2  -3   2  189.60    6.64
   2  -3   2  189.35    6.49
   2   3   2  158.73    6.48
   2   3   2  183.36    6.41
  -3  -3  -2  222.28    7.61
   3  -3   2  217.69    7.57
   3  -3   2  210.16    7.80
   3   3   2  218.00    7.69
   3   3   2  222.69    7.63
   4  -3   2   23.77    0.84
   4  -3   2   22.78    1.10
   4   3   2   20.01    0.97
   4   3   2   20.54    0.95
   5  -3   2    1.10    0.25
   5   3   2    1.35    0.22
   5   3   2    1.30    0.21
   6  -3   2   21.56    1.15
   6   3   2   22.89    1.07
  -6   3  -2   22.16    1.03
   6   3   2   22.14    1.03
   7  -3   2   52.11    2.25
   7   3   2   50.83    2.12
  -7   3  -2   49.58    2.05
   7   3   2   51.27    2.05
   8  -3   2   79.70    3.33
   8   3   2   81.52    3.09
   8   3   2   81.54    3.21
  -8   3  -2   80.22    3.11
   9  -3   2   66.18    2.86
   9   3   2   65.82    2.73
  -9   3  -2   64.34    2.61
  10  -3   2   51.57    2.47
 -10   3  -2   53.08    2.21
  10   3   2   54.82    2.38
  11  -3   2   39.38    2.49
 -11   3  -2   43.26    1.86
  11   3   2   41.55    2.00
  11  -4  -2    3.10    0.55
  11   4  -2    4.09    0.56
  10  -4  -2   42.25    1.86
  10  -4  -2   40.69    2.03
  10   4  -2   42.61    1.97
   9  -4  -2   34.35    1.70
   9  -4  -2   34.36    1.56
   9   4  -2   33.27    1.62
   9   4  -2   33.45    1.54
   8  -4  -2  107.16    4.00
   8  -4  -2  106.39    4.13
   8   4  -2  103.56    4.05
   8   4  -2  103.53    3.99
   7  -4  -2   41.07    1.74
   7  -4  -2   41.59    1.82
   7   4  -2   38.13    1.75
  -6  -4   2  176.76    6.40
   6  -4  -2  174.62    6.43
   6  -4  -2  181.09    6.39
   6   4  -2  172.09    6.39
  -5  -4   2  102.13    3.91
   5  -4  -2  101.33    3.91
   5  -4  -2  103.48    3.88
   5   4  -2  110.02    3.91
   4  -4  -2  125.70    4.63
  -4  -4   2  126.93    4.66
  -4   4   2  130.55    4.46
   4   4  -2  123.07    4.63
   3  -4  -2  102.77    3.96
  -3  -4   2  112.11    4.03
   3  -4  -2  107.96    3.98
   3   4  -2  111.32    4.01
  -3   4   2  109.51    3.85
   2  -4  -2   15.63    0.66
   2  -4  -2   14.58    0.67
  -2   4   2   11.72    0.58
   2   4  -2   11.45    0.51
   2   4  -2   11.63    0.67
   1  -4  -2   48.36    1.91
   1  -4  -2   52.03    1.86
  -1  -4   2   48.35    1.94
   1   4  -2   49.26    1.98
  -1   4   2   49.77    1.88
   0  -4   2   10.07    0.62
   0  -4   2    9.37    0.48
   0  -4  -2    9.70    0.51
   0  -4   2    9.92    0.54
   0   4   2   10.85    0.54
   0   4   2   10.62    0.44
  -1  -4  -2   42.31    1.59
   1  -4   2   42.47    1.62
   1  -4   2   41.28    1.60
   1  -4   2   40.87    1.77
   1   4   2   40.54    1.51
   1   4   2   41.48    1.64
   2  -4   2  179.61    6.00
   2  -4   2  176.64    6.18
   2   4   2  138.02    5.97
   2   4   2  179.76    5.90
   3  -4   2  175.67    6.05
   3  -4   2  171.35    6.22
   3  -4   2  144.15    5.92
   3   4   2  178.37    5.97
   3   4   2  177.74    6.08
   4  -4   2  251.43    8.50
   4  -4   2  239.37    8.80
   4   4   2  246.56    8.58
   4   4   2  239.50    8.65
   5  -4   2  179.65    6.35
   5  -4   2  172.54    6.50
   5   4   2  174.64    6.35
   5   4   2  178.39    6.31
   6  -4   2  163.73    6.03
   6   4   2  158.33    5.82
   6   4   2  158.93    5.80
   7  -4   2   68.45    2.90
  -7   4  -2   68.21    2.68
   7   4   2   66.94    2.68
   7   4   2   69.21    2.71
   8  -4   2   48.09    2.29
  -8   4  -2   50.65    2.09
   8   4   2   51.27    2.09
   8   4   2   49.91    2.13
   9  -4   2   18.12    1.23
   9   4   2   21.15    1.15
  -9   4  -2   21.17    1.07
  10  -4   2   10.48    0.90
  10   4   2   11.18    0.82
 -10   4  -2   10.56    0.72
 -11   4  -2    6.06    0.56
  11   4   2    6.06    0.65
  11  -5  -2   51.40    2.31
  11  -5  -2   53.12    2.55
  10  -5  -2   19.27    1.11
  10  -5  -2   21.32    1.31
  10   5  -2   20.22    1.19
   9  -5  -2   15.99    0.95
   9  -5  -2   16.62    1.10
   9   5  -2   16.71    0.97
   9   5  -2   17.15    1.02
   8  -5  -2    8.87    0.63
   8  -5  -2    8.47    0.70
   8   5  -2    7.01    0.60
   8   5  -2    6.69    0.59
   7  -5  -2   11.04    0.74
   7  -5  -2   12.09    0.82
   7   5  -2   12.39    0.78
   7   5  -2   11.50    0.76
  -6  -5   2    5.02    0.49
   6  -5  -2    5.71    0.52
   6  -5  -2    5.31    0.47
   6   5  -2    5.01    0.46
   5  -5  -2   10.64    0.70
  -5  -5   2   10.40    0.69
   5  -5  -2   10.41    0.66
   5   5  -2   10.91    0.67
   4  -5  -2   53.87    2.18
  -4  -5   2   54.18    2.19
  -4   5   2   52.48    1.96
   4   5  -2   52.19    2.14
   3  -5  -2  105.17    3.98
   3  -5  -2  109.48    3.99
   3   5  -2  107.32    3.76
  -3   5   2  105.75    3.84
   3   5  -2  108.89    3.99
   2  -5  -2  288.37   10.36
  -2  -5   2  295.14   10.41
  -2   5   2  297.56   10.28
   2   5  -2  297.08   10.40
   1  -5  -2  147.78    5.06
  -1  -5   2  142.58    5.03
  -1  -5   2  141.47    5.18
   1  -5  -2  136.06    5.12
  -1   5   2  143.84    5.11
   1   5  -2  143.06    5.21
   0  -5  -2  242.42    8.59
   0  -5   2  245.04    8.75
   0  -5   2  244.19    8.54
   0  -5   2  245.54    8.64
   0   5   2  241.35    8.61
   0   5   2  246.59    8.48
  -1  -5  -2  223.48    7.75
   1  -5   2  209.16    7.96
   1  -5   2  220.64    7.80
   1  -5   2  216.24    7.76
   1   5   2  226.19    7.66
   1   5   2  226.68    7.83
   2  -5   2  156.39    6.00
  -2  -5  -2  165.60    5.73
   2  -5   2  160.67    5.78
   2  -5   2  162.78    5.76
   2   5   2  161.04    5.68
   2   5   2  163.37    5.84
   3  -5   2   10.95    0.55
   3  -5   2   10.82    0.76
  -3  -5  -2   11.45    0.54
   3  -5   2   11.18    0.63
   4  -5   2   69.03    2.66
   4  -5   2   67.04    2.84
   4   5   2   69.39    2.57
   4   5   2   67.74    2.68
   5  -5   2    8.44    0.56
   5  -5   2    8.53    0.68
   5   5   2    7.62    0.55
   5   5   2    7.04    0.48
   6  -5   2   13.98    0.95
   6   5   2   14.08    0.82
   6   5   2   15.17    0.79
   7  -5   2   16.80    1.10
   7   5   2   17.49    0.96
  -7   5  -2   17.97    0.96
   7   5   2   18.08    0.95
   8  -5   2   64.07    2.79
   8   5   2   61.09    2.52
  -8   5  -2   59.69    2.51
   8   5   2   61.58    2.53
   9  -5   2   41.40    2.12
   9   5   2   42.54    1.90
   9   5   2   42.27    1.86
  -9   5  -2   41.76    1.86
  10  -5   2   67.37    3.15
 -10   5  -2   71.84    2.88
  10   5   2   70.65    2.93
  10  -6  -2   13.70    0.92
  10   6  -2   13.61    0.91
  10   6  -2   14.13    0.96
   9  -6  -2   34.13    1.63
   9  -6  -2   34.44    1.90
   9   6  -2   34.21    1.65
   9   6  -2   32.86    1.65
   8  -6  -2   55.34    2.39
   8  -6  -2   59.46    2.61
   8   6  -2   54.95    2.41
   8   6  -2   56.56    2.41
   7  -6  -2   41.24    1.93
   7  -6  -2   38.09    1.75
   7   6  -2   38.76    1.76
   7   6  -2   37.60    1.78
   6  -6  -2   84.14    3.38
   6  -6  -2   89.13    3.53
   6   6  -2   86.85    3.38
   5  -6  -2  115.90    4.52
  -5  -6   2  116.30    4.47
   5  -6  -2  119.28    4.44
   5   6  -2  118.29    4.41
   4  -6  -2   82.93    3.16
  -4  -6   2   82.46    3.20
   4  -6  -2   81.38    3.21
   4   6  -2   77.43    3.12
  -3  -6   2   60.55    2.46
   3  -6  -2   57.42    2.41
   3  -6  -2   59.45    2.40
   3   6  -2   62.35    2.41
  -3   6   2   60.19    2.26
  -2  -6   2   19.82    1.03
   2  -6  -2   19.76    0.98
   2  -6  -2   18.83    1.17
   2   6  -2   20.83    1.01
  -2   6   2   20.06    0.91
   1  -6  -2    4.68    0.38
  -1  -6   2    4.37    0.41
  -1  -6   2    4.68    0.32
   1   6  -2    4.60    0.42
  -1   6   2    4.78    0.38
   0  -6   2   14.12    0.71
   0  -6  -2   14.78    0.75
   0  -6   2   14.66    0.80
   0   6   2   15.23    0.68
   0   6   2   15.16    0.78
  -1  -6  -2   57.98    2.21
   1  -6   2   57.76    2.27
   1  -6   2   57.80    2.22
   1  -6   2   58.13    2.44
   1   6   2   56.75    2.17
   1   6   2   55.97    2.28
  -2  -6  -2   93.83    3.44
   2  -6   2   92.42    3.74
   2  -6   2   92.19    3.48
   2  -6   2   90.89    3.49
   2   6   2   95.92    3.57
   2   6   2   98.22    3.45
   3  -6   2   75.08    3.05
   3  -6   2   74.67    2.79
   3   6   2   69.73    2.70
   3   6   2   68.65    2.82
   4  -6   2  149.62    5.58
   4  -6   2  149.62    5.84
   4   6   2  156.10    5.56
   4   6   2  156.54    5.64
   5  -6   2  109.45    4.30
   5  -6   2  106.29    4.02
   5   6   2  106.07    4.05
   5   6   2  103.19    4.09
   6  -6   2   91.47    3.83
   6   6   2   93.50    3.60
   7  -6   2   66.95    2.87
   7   6   2   59.25    2.56
  -7   6  -2   61.57    2.56
   8  -6   2   16.91    1.21
   8   6   2   17.87    1.02
  -8   6  -2   18.99    1.03
   9  -6   2   25.14    1.53
  -9   6  -2   23.81    1.26
   9   6   2   23.71    1.26
   9  -7  -2   16.64    1.12
   9   7  -2   17.79    1.09
   9   7  -2   17.65    1.07
   8  -7  -2    4.07    0.50
   8   7  -2    5.23    0.54
   8   7  -2    5.11    0.56
   7  -7  -2    1.23    0.31
   7   7  -2    0.84    0.28
   7   7  -2    0.99    0.28
   6  -7  -2    1.00    0.28
   6   7  -2    1.14    0.31
   6   7  -2    1.14    0.27
   5  -7  -2   12.59    0.81
   5   7  -2   13.09    0.80
   5   7  -2   13.91    0.88
   4  -7  -2   67.30    2.60
   4   7  -2   59.30    2.53
  -3  -7   2   48.68    2.14
   3  -7  -2   48.72    2.08
   3   7  -2   50.38    2.08
  -3   7   2   51.03    1.96
  -2  -7   2  123.71    4.62
   2  -7  -2  125.28    4.56
  -2   7   2  120.49    4.46
   2   7  -2  118.78    4.55
  -1  -7   2  179.61    6.62
   1  -7  -2  179.90    6.55
  -1  -7   2  177.28    6.42
  -1   7   2  185.86    6.54
   1   7  -2  184.29    6.62
   0  -7   2  146.28    5.48
   0  -7  -2  151.21    5.43
   0  -7   2  144.80    5.35
   0   7   2  151.42    5.46
   0   7  -2  151.82    5.55
   1  -7   2   71.08    2.90
  -1  -7  -2   72.03    2.68
   1  -7   2   68.03    2.67
   1  -7   2   70.90    2.74
   1   7   2   66.40    2.74
   2  -7   2   46.23    2.19
   2  -7   2   46.28    1.96
   2   7   2   52.46    2.07
   3  -7   2   81.65    3.18
   3  -7   2   82.78    3.46
   3   7   2   83.85    3.26
   4  -7   2    0.31    0.23
   4  -7   2   -0.08    0.13
   4   7   2    0.58    0.22
   5  -7   2    1.59    0.41
   5  -7   2    1.09    0.27
   5   7   2    1.03    0.28
   6  -7   2    6.72    0.72
   6   7   2    6.08    0.57
   7  -7   2   12.69    1.04
   7   7   2   13.52    0.87
  -7   7  -2   13.59    0.85
   8  -7   2   43.18    2.27
   8   7   2   42.31    1.96
  -8   7  -2   43.34    1.94
   9  -7   2   19.26    1.39
   9   7   2   18.44    1.13
   8   8  -2   30.86    1.64
   7  -8  -2   54.80    2.45
   7   8  -2   58.80    2.53
   6  -8  -2   46.44    1.94
   6   8  -2   37.53    1.82
   6   8  -2   39.43    1.93
   5  -8  -2   51.84    2.25
   5   8  -2   52.08    2.31
   5   8  -2   51.84    2.20
   4  -8  -2   36.27    1.65
   4   8  -2   35.05    1.70
   4   8  -2   34.77    1.60
   3  -8  -2   38.67    1.71
   3   8  -2   37.31    1.67
   3   8  -2   36.04    1.74
   2  -8  -2   13.59    0.83
   2   8  -2   14.81    0.85
   2   8  -2   13.86    0.89
  -2   8   2   14.24    0.78
   1  -8  -2    9.92    0.66
  -1   8   2   10.65    0.67
   1   8  -2   11.00    0.71
   1   8  -2   10.04    0.71
   0  -8   2   18.84    0.91
   0  -8  -2   18.28    0.95
   0   8  -2   19.64    1.04
   0   8   2   18.11    0.99
   0   8  -2   18.56    1.03
   1  -8   2   10.98    0.66
   1   8   2   11.43    0.74
  -1   8  -2   11.27    0.72
   2  -8   2   42.90    2.06
   2  -8   2   43.41    1.85
  -2   8  -2   44.78    1.86
   2   8   2   43.98    1.94
   3  -8   2   51.93    2.45
   3  -8   2   51.85    2.18
   3   8   2   53.87    2.27
   4  -8   2   68.93    3.10
   4  -8   2   69.46    2.79
   4   8   2   69.20    2.86
   5  -8   2   97.26    4.19
   5  -8   2   96.75    3.84
   5   8   2  103.06    3.93
   6  -8   2   42.17    2.25
   6   8   2   43.98    2.00
   7  -8   2   37.34    2.09
   7   8   2   38.07    1.81
  -7   8  -2   37.26    1.77
   8  -8   2   20.30    1.44
   6  -9  -2   11.90    0.86
   6   9  -2   12.43    0.92
   5  -9  -2    1.35    0.33
   5   9  -2    0.93    0.32
   4  -9  -2   23.37    1.24
   4   9  -2   22.22    1.28
   3  -9  -2   32.61    1.53
   3   9  -2   30.32    1.57
   2  -9  -2   71.47    2.87
   2   9  -2   70.08    2.95
   1  -9  -2   35.61    1.64
  -1   9   2   36.92    1.65
   1   9  -2   36.58    1.72
   0   9   2  104.53    3.99
   0   9  -2  102.24    4.01
   1  -9   2   63.68    2.71
   1   9   2   64.57    2.68
  -1   9  -2   65.54    2.65
   2  -9   2   23.61    1.17
   2   9   2   23.72    1.26
   3  -9   2   19.59    1.05
   3   9   2   19.17    1.12
   4   9   2    8.77    0.72
   5   9   2    4.20    0.54
  -6   9  -2   24.50    1.33
   4 -10  -2   27.31    1.41
   4  10  -2   25.03    1.45
   3 -10  -2   16.10    1.02
   3  10  -2   19.12    1.14
   2 -10  -2    6.16    0.58
   2  10  -2    6.78    0.65
  -1  10   2    1.64    0.46
   1  10  -2    1.00    0.30
   0  10  -2    2.04    0.39
   0  10   2    1.90    0.37
   1  10   2    4.14    0.51
   2  10   2   41.60    1.95
   3  10   2   22.07    1.26
   1  11  -2   45.69    2.14
   0  11   2   27.93    1.52
   1  11   2   30.04    1.87
  11   0  -3   11.93    0.91
  10   0  -3   16.41    1.03
   9   0  -3   22.48    1.21
   8   0  -3   45.60    1.77
   8   0  -3   45.48    1.97
   7   0  -3   82.56    3.04
  -7   0   3   85.39    3.04
   7   0  -3   81.23    3.21
   6   0  -3   80.54    2.93
  -6   0   3   81.03    2.93
   6   0  -3   79.32    3.06
  -5   0   3  274.83    9.62
   5   0  -3  281.77    9.62
   5   0  -3  273.16    9.72
   4   0  -3  324.86   11.55
   4   0  -3  329.93   11.46
  -4   0   3  338.69   11.48
   3   0  -3  320.93   11.03
  -3   0   3  317.61   11.05
   2   0  -3  190.85    6.58
   2   0  -3  187.32    6.62
  -2   0   3  190.21    6.61
   1   0  -3  580.95   20.00
  -1   0   3  543.37   20.05
   1   0  -3  589.18   19.97
   0   0   3    5.04    0.31
   0   0  -3    4.97    0.30
   1   0   3   91.12    3.26
   1   0   3   88.91    3.25
   2   0   3   17.94    0.75
   2   0   3   16.81    0.77
   3   0   3   31.59    1.31
  -3   0  -3   33.96    1.33
   3   0   3   36.09    1.39
   4   0   3  256.37    8.84
  -4   0  -3  243.90    8.74
   5   0   3   88.30    3.31
   5   0   3   95.79    3.49
  -5   0  -3   92.07    3.36
  -6   0  -3  165.18    6.02
   6   0   3  171.54    5.97
   6   0   3  170.79    6.18
   7   0   3  118.76    4.53
  -7   0  -3  120.26    4.36
   8   0   3   89.79    3.55
  -8   0  -3   88.06    3.33
   9   0   3   88.86    3.61
  10   0   3   35.57    1.80
  11   0   3   23.05    1.38
  11  -1  -3   48.12    2.35
  11   1  -3   56.54    2.42
  10  -1  -3   55.53    2.34
  10   1  -3   47.55    2.26
   9  -1  -3  145.57    5.20
   9  -1  -3  142.97    5.41
   9   1  -3  141.33    5.40
   8  -1  -3   83.45    3.40
  -8  -1   3   87.56    3.56
   8  -1  -3   84.13    3.24
   8   1  -3   93.80    3.45
   7  -1  -3   75.89    3.08
   7  -1  -3   80.02    2.97
  -7  -1   3   79.84    2.97
   7   1  -3   80.86    3.11
   7   1  -3   81.77    2.93
   6  -1  -3   29.60    1.36
  -6  -1   3   30.54    1.29
   6  -1  -3   31.88    1.29
   6   1  -3   32.33    1.21
  -6   1   3   32.38    1.21
   5  -1  -3   36.66    1.49
   5  -1  -3   37.99    1.44
  -5  -1   3   37.70    1.44
   5   1  -3   34.53    1.34
  -5   1   3   34.42    1.35
   5   1  -3   34.66    1.49
   4  -1  -3   13.73    0.64
  -4  -1   3   14.07    0.65
   4  -1  -3   12.94    0.66
   4   1  -3   14.04    0.70
   4   1  -3   14.10    0.57
  -4   1   3   14.01    0.59
   3  -1  -3   67.72    2.53
  -3  -1   3   65.17    2.53
   3   1  -3   72.86    2.46
   3   1  -3   65.08    2.57
  -3   1   3   75.28    2.51
  -2  -1   3  385.12   12.72
   2  -1  -3  374.17   12.70
   2  -1  -3  373.51   12.86
  -2   1   3  327.65   12.79
   2   1  -3  376.67   12.84
   1  -1  -3  202.29    7.01
   1  -1  -3  194.94    7.01
   1   1  -3  201.76    7.07
  -1   1   3  202.85    7.05
   1   1  -3  205.21    7.00
   0  -1   3  416.52   14.24
   0  -1   3  398.80   13.98
   0   1  -3  407.95   14.10
   0   1   3  388.72   14.13
   0   1   3  400.02   14.01
  -1  -1  -3  387.55   14.87
   1  -1   3  441.09   14.82
   1  -1   3  393.45   14.89
  -1   1  -3  441.38   14.88
   1   1   3  453.01   14.69
   2  -1   3  531.38   17.38
   2  -1   3  428.82   17.60
   2   1   3  542.07   17.62
   3  -1   3  333.00   11.53
  -3  -1  -3  345.49   11.56
   3  -1   3  352.55   11.64
  -3   1  -3  335.84   11.53
   3   1   3  339.85   11.55
   3   1   3  285.57   11.49
   4  -1   3  148.22    5.37
  -4  -1  -3  151.06    5.27
   4  -1   3  157.91    5.26
   4   1   3  143.60    5.23
   4   1   3  142.52    5.30
  -4   1  -3  144.08    5.26
   5  -1   3   43.67    1.67
  -5  -1  -3   41.93    1.69
   5  -1   3   42.12    1.81
   5   1   3   43.49    1.77
   5   1   3   43.09    1.66
  -5   1  -3   43.55    1.70
  -6  -1  -3   44.11    1.71
   6  -1   3   41.76    1.84
  -6   1  -3   42.14    1.71
   6   1   3   43.37    1.82
   6   1   3   41.89    1.66
  -7  -1  -3    3.73    0.33
   7  -1   3    3.99    0.44
  -7   1  -3    3.68    0.34
   7   1   3    3.54    0.42
   7   1   3    4.01    0.32
  -8  -1  -3    0.84    0.22
   8  -1   3    0.45    0.21
   8   1   3    0.52    0.21
  -8   1  -3    0.39    0.16
   9  -1   3   10.06    0.80
  -9   1  -3   11.56    0.67
   9   1   3   11.26    0.81
  10  -1   3   30.43    1.65
  10   1   3   31.67    1.62
  11  -1   3   37.86    1.92
  11   1   3   34.20    1.82
  11  -2  -3    7.84    0.74
  11   2  -3    8.81    0.76
  10  -2  -3    0.26    0.21
  10   2  -3    0.35    0.23
   9  -2  -3    4.98    0.42
   9  -2  -3    5.06    0.53
   9   2  -3    4.32    0.50
  -8  -2   3   31.70    1.36
   8  -2  -3   30.24    1.46
   8  -2  -3   31.45    1.36
   8   2  -3   29.65    1.46
  -7  -2   3   75.80    2.87
   7  -2  -3   73.03    2.95
   7  -2  -3   76.35    2.87
   7   2  -3   75.57    2.96
  -6  -2   3  205.79    7.21
   6  -2  -3  197.51    7.25
   6  -2  -3  203.99    7.20
  -5  -2   3  145.51    5.41
   5  -2  -3  145.15    5.40
   5  -2  -3  137.03    5.41
   5   2  -3  161.99    5.49
  -5   2   3  164.51    5.27
   4  -2  -3  441.67   15.07
  -4  -2   3  429.63   15.08
   4  -2  -3  420.79   15.05
  -4   2   3  430.34   14.97
   4   2  -3  431.20   15.12
   4   2  -3  450.78   14.96
  -3  -2   3  470.51   15.70
   3  -2  -3  471.57   15.69
   3  -2  -3  466.41   15.79
  -3   2   3  414.34   15.63
   3   2  -3  481.55   15.65
   3   2  -3  413.36   15.71
   2  -2  -3  168.26    6.05
   2  -2  -3  173.09    5.97
  -2  -2   3  173.81    6.07
  -2   2   3  170.02    6.02
   2   2  -3  173.88    5.97
   1  -2  -3  110.46    3.91
  -1   2   3  114.81    4.01
   1   2  -3  114.81    3.97
   0   2  -3   54.37    1.98
   0   2   3   54.36    2.01
   1  -2   3   87.39    3.17
  -1   2  -3   88.31    3.17
   1   2   3   89.59    3.10
   2  -2   3  205.41    6.94
  -2   2  -3  198.93    6.96
   2   2   3  195.31    6.91
   2   2   3  193.65    6.97
  -3  -2  -3   44.80    1.70
   3   2   3   43.10    1.66
   3   2   3   42.02    1.67
  -4  -2  -3   99.87    3.68
   4  -2   3  106.00    3.58
   4   2   3   97.29    3.66
   4   2   3   98.78    3.67
  -4   2  -3  101.35    3.67
  -5  -2  -3  100.58    3.62
   5  -2   3   99.73    3.46
  -5   2  -3   95.00    3.58
   5   2   3   96.58    3.62
   5   2   3   96.45    3.58
  -6  -2  -3  151.02    5.29
   6  -2   3  149.32    5.45
  -6   2  -3  139.10    5.25
   6   2   3  144.56    5.33
   6   2   3  144.63    5.24
  -7  -2  -3  116.77    4.31
   7  -2   3  106.72    4.34
  -7   2  -3  113.53    4.16
   7   2   3  113.32    4.12
   7   2   3  112.81    4.27
   8  -2   3   99.34    4.02
   8   2   3  100.50    3.91
  -8   2  -3  102.65    3.80
   9  -2   3   84.24    3.50
  -9   2  -3   83.39    3.23
   9   2   3   83.77    3.39
  10  -2   3   41.55    2.02
  10   2   3   37.53    1.87
 -10   2  -3   38.85    1.72
  11  -2   3   15.16    1.41
  11   2   3   16.66    1.09
  11  -3  -3   22.90    1.36
  11   3  -3   23.04    1.33
  10  -3  -3   70.19    2.79
  10  -3  -3   68.08    2.97
  10   3  -3   70.68    2.95
   9  -3  -3   72.11    2.79
   9  -3  -3   70.64    2.94
   9   3  -3   67.72    2.89
  -8  -3   3   75.40    2.92
   8  -3  -3   74.32    3.02
   8  -3  -3   75.87    2.92
   8   3  -3   73.02    3.00
   7  -3  -3  117.69    4.43
  -7  -3   3  119.95    4.45
   7  -3  -3  118.15    4.51
   7   3  -3  122.63    4.52
   6  -3  -3   26.56    1.24
   6  -3  -3   28.28    1.29
  -6  -3   3   28.53    1.28
   6   3  -3   28.72    1.31
  -5  -3   3  123.27    4.51
   5  -3  -3  125.28    4.50
   5  -3  -3  122.01    4.50
   5   3  -3  122.08    4.54
  -5   3   3  121.69    4.30
   4  -3  -3   89.00    3.29
   4  -3  -3   88.63    3.26
  -4  -3   3   88.25    3.31
  -4   3   3   85.62    3.18
   4   3  -3   91.29    3.34
   3  -3  -3   10.16    0.50
   3  -3  -3   10.45    0.56
  -3  -3   3   11.38    0.59
  -3   3   3    9.24    0.48
   3   3  -3    8.92    0.56
   2  -3  -3  282.05    9.65
  -2   3   3  270.50    9.62
   2   3  -3  274.53    9.55
   2   3  -3  280.90    9.76
  -1  -3   3  100.20    3.80
   1  -3  -3   98.78    3.78
   1   3  -3  108.27    3.70
   1   3  -3  112.02    3.90
  -1   3   3  106.41    3.76
   0  -3  -3  425.33   14.75
   0  -3   3  403.75   14.90
   0  -3   3  425.92   14.76
   0   3  -3  449.14   14.73
  -1  -3  -3  375.88   13.08
   1  -3   3  364.09   13.26
   1   3   3  387.27   13.05
  -1   3  -3  377.69   13.07
   1   3   3  382.00   13.11
   2  -3   3  272.84    9.92
  -2  -3  -3  279.26    9.73
   2   3   3  279.30    9.66
   2   3   3  279.01    9.77
  -2   3  -3  284.95    9.75
  -3  -3  -3  100.85    3.47
   3  -3   3   95.17    3.40
   3  -3   3   95.92    3.64
   3   3   3   92.99    3.49
   3   3   3   90.83    3.41
  -3   3  -3   94.71    3.48
   4  -3   3  138.18    4.64
  -4  -3  -3  129.14    4.73
   4  -3   3  132.03    4.93
   4   3   3  130.50    4.78
   4   3   3  129.76    4.73
  -5  -3  -3  105.96    4.11
   5  -3   3  101.30    4.27
  -5   3  -3  118.67    4.16
   5   3   3  120.75    4.16
   5   3   3  117.59    4.16
  -6  -3  -3   12.88    0.89
   6  -3   3   15.64    0.96
  -6   3  -3   16.99    0.84
   6   3   3   16.43    0.82
   6   3   3   17.01    0.86
   7  -3   3    5.00    0.54
   7   3   3    5.77    0.49
  -7   3  -3    6.11    0.46
   7   3   3    5.47    0.44
   8  -3   3    1.30    0.33
  -8   3  -3    0.67    0.21
   8   3   3    0.31    0.19
   8   3   3    0.64    0.20
   9  -3   3   18.80    1.23
   9   3   3   21.52    1.17
  -9   3  -3   21.18    1.07
  10  -3   3   13.82    1.01
 -10   3  -3   11.19    0.74
  10   3   3   10.59    0.83
  11   3   3   44.86    2.14
 -11   3  -3   46.18    1.99
  11  -4  -3    2.64    0.41
  11  -4  -3    2.46    0.48
  11   4  -3    2.20    0.44
  10  -4  -3    1.26    0.29
  10  -4  -3    1.28    0.36
  10   4  -3    1.22    0.33
   9  -4  -3    3.22    0.40
   9  -4  -3    2.89    0.48
   9   4  -3    2.53    0.38
   8  -4  -3   19.19    1.03
  -8  -4   3   20.29    1.05
   8  -4  -3   19.12    1.10
   8   4  -3   18.54    1.07
   7  -4  -3   37.05    1.70
   7  -4  -3   36.61    1.64
  -7  -4   3   38.14    1.67
   7   4  -3   37.12    1.69
   6  -4  -3  135.73    5.06
   6  -4  -3  134.21    5.09
  -6  -4   3  133.37    5.09
   6   4  -3  147.48    5.14
  -5  -4   3  345.16   12.02
   5  -4  -3  346.12   11.98
   5  -4  -3  339.42   11.97
   5   4  -3  330.90   11.99
  -4  -4   3  146.07    5.10
   4  -4  -3  141.70    5.02
  -4   4   3  129.78    4.90
   4   4  -3  137.09    5.08
  -3  -4   3  197.40    7.70
  -3   4   3  217.48    7.57
   3   4  -3  225.54    7.75
   3   4  -3  225.82    7.48
   2  -4  -3  223.73    7.92
   2  -4  -3  226.51    8.02
  -2  -4   3  222.51    8.05
   2   4  -3  236.31    8.11
   2   4  -3  228.76    7.86
  -2   4   3  224.44    7.94
   1  -4  -3  141.31    5.18
   1  -4  -3  149.61    5.02
  -1  -4   3  142.20    5.21
  -1   4   3  143.35    5.14
   1   4  -3  148.86    5.30
   1   4  -3  142.07    5.07
   0  -4   3   13.16    0.79
   0  -4  -3   13.11    0.65
   0  -4   3   13.79    0.69
   0   4   3   14.58    0.68
   0   4  -3   13.79    0.62
  -1  -4  -3    3.66    0.28
   1  -4   3    3.74    0.30
   1  -4   3    3.78    0.41
   1   4   3    4.35    0.20
  -1   4  -3    3.54    0.28
   1   4   3    3.81    0.32
   2  -4   3    7.09    0.42
   2  -4   3    7.68    0.59
  -2  -4  -3    7.27    0.41
  -2   4  -3    7.13    0.43
   2   4   3    7.54    0.36
   3  -4   3   24.55    1.26
  -3  -4  -3   24.84    1.04
  -3   4  -3   26.22    1.10
   3   4   3   24.56    1.12
   3   4   3   24.86    1.01
  -4  -4  -3   95.59    3.39
   4  -4   3   89.45    3.65
   4   4   3   93.89    3.40
   4   4   3   93.86    3.50
   5  -4   3   47.94    2.08
  -5  -4  -3   51.28    2.05
   5   4   3   43.52    1.88
  -5   4  -3   45.72    1.88
   5   4   3   43.22    1.83
   6  -4   3   98.96    4.03
  -6   4  -3  102.40    3.83
   6   4   3  103.31    3.84
   6   4   3  102.70    3.81
   7  -4   3  114.62    4.64
   7   4   3  121.48    4.44
  -7   4  -3  117.01    4.41
   7   4   3  119.80    4.41
   8  -4   3   95.16    3.92
   8   4   3   94.97    3.70
  -8   4  -3   93.81    3.65
   8   4   3   97.60    3.65
   9  -4   3   31.97    1.75
  -9   4  -3   33.03    1.52
   9   4   3   32.52    1.58
  10  -4   3   32.08    1.74
 -10   4  -3   28.99    1.43
  10   4   3   29.13    1.52
  11   4   3   25.06    1.48
  11  -5  -3   38.05    2.00
  11  -5  -3   36.17    1.76
  10  -5  -3   44.45    2.01
  10  -5  -3   47.95    2.26
  10   5  -3   44.16    2.10
   9  -5  -3   37.87    1.74
   9  -5  -3   37.46    1.88
   9   5  -3   37.63    1.80
   9   5  -3   38.01    1.75
   8  -5  -3   52.49    2.33
   8  -5  -3   50.04    2.19
   8   5  -3   52.00    2.25
  -7  -5   3   92.79    3.70
   7  -5  -3   99.37    3.79
   7  -5  -3   94.41    3.68
   7   5  -3   93.63    3.70
   6  -5  -3   19.78    1.04
  -6  -5   3   22.07    1.11
   6  -5  -3   19.83    1.07
   6   5  -3   18.67    1.04
  -5  -5   3    8.23    0.61
   5  -5  -3    8.49    0.58
   5  -5  -3    8.41    0.59
   5   5  -3    7.99    0.59
   4  -5  -3    1.26    0.24
  -4  -5   3    1.86    0.30
   4  -5  -3    2.04    0.28
  -4   5   3    1.89    0.21
   4   5  -3    1.64    0.28
   3  -5  -3   12.50    0.70
  -3   5   3   12.30    0.60
   3   5  -3   12.14    0.72
  -2  -5   3   55.43    2.18
   2  -5  -3   56.84    2.03
   2  -5  -3   54.12    2.13
  -2   5   3   50.75    2.03
   2   5  -3   51.53    1.94
   2   5  -3   52.55    2.18
  -1  -5   3  163.54    5.96
   1  -5  -3  164.94    5.92
  -1   5   3  166.99    5.88
   1   5  -3  164.73    6.03
   1   5  -3  163.60    5.79
  -1   5   3  165.76    5.73
   0  -5  -3  215.29    7.55
   0  -5   3  211.00    7.74
   0  -5   3  211.49    7.59
   0   5   3  212.89    7.56
   0   5  -3  213.47    7.47
   0   5   3  214.17    7.34
   1  -5   3  169.07    6.61
  -1  -5  -3  167.30    6.35
   1  -5   3  172.62    6.40
   1   5   3  190.93    6.44
   1   5   3  187.06    6.21
  -1   5  -3  188.50    6.36
  -2  -5  -3  206.30    7.23
   2  -5   3  209.98    7.26
   2  -5   3  204.86    7.54
   2   5   3  198.95    7.12
   3  -5   3  161.49    5.71
   3  -5   3  158.98    6.04
  -3  -5  -3  159.35    5.70
   3   5   3  162.22    5.66
   4  -5   3   75.17    3.08
  -4  -5  -3   77.94    2.80
  -4   5  -3   70.21    2.81
   4   5   3   72.26    2.85
   4   5   3   72.05    2.72
   5  -5   3   62.43    2.70
   5   5   3   61.92    2.38
  -5   5  -3   61.86    2.45
   5   5   3   62.15    2.49
   6  -5   3   18.73    1.12
  -6   5  -3   15.72    0.87
   6   5   3   15.70    0.83
   6   5   3   15.38    0.89
   7  -5   3    5.15    0.60
   7   5   3    5.65    0.48
  -7   5  -3    4.99    0.47
   7   5   3    5.08    0.48
   8  -5   3   10.24    0.87
   8   5   3   10.06    0.75
   8   5   3   10.33    0.71
  -8   5  -3   10.00    0.70
   9  -5   3    5.00    0.63
   9   5   3    3.67    0.45
  -9   5  -3    3.55    0.44
 -10   5  -3   24.53    1.32
  10  -6  -3    4.76    0.55
  10   6  -3    4.40    0.56
  10   6  -3    4.79    0.54
   9  -6  -3    2.06    0.39
   9   6  -3    1.94    0.40
   9   6  -3    1.95    0.39
   8  -6  -3   10.93    0.77
   8   6  -3   11.18    0.80
   8   6  -3   10.52    0.77
   7  -6  -3   41.72    1.89
   7   6  -3   43.22    1.91
   6  -6  -3   70.36    2.82
  -6  -6   3   70.80    2.86
   6   6  -3   67.31    2.80
   5  -6  -3  100.85    3.87
  -5  -6   3  100.71    3.92
   5   6  -3  100.82    3.87
  -4  -6   3  106.86    4.08
   4  -6  -3  107.64    4.03
   4   6  -3  103.87    4.02
  -3  -6   3  169.38    6.17
   3  -6  -3  166.23    6.11
   3   6  -3  169.34    6.15
  -3   6   3  166.17    5.96
  -2  -6   3   74.07    2.91
   2  -6  -3   74.31    2.86
   2   6  -3   73.64    2.92
  -2   6   3   72.71    2.76
   2   6  -3   72.89    2.66
  -1  -6   3   99.27    3.83
   1  -6  -3  100.17    3.77
  -1   6   3  102.08    3.74
   1   6  -3  101.21    3.88
   1   6  -3  102.03    3.64
   0  -6  -3   47.67    1.96
   0  -6   3   50.31    2.16
   0  -6   3   49.17    2.02
   0   6  -3   49.45    1.90
   0   6   3   49.12    1.98
  -1  -6  -3   10.57    0.59
   1  -6   3   10.76    0.77
   1  -6   3   10.55    0.63
   1   6   3    9.03    0.61
   2  -6   3    9.25    0.73
  -2  -6  -3    8.63    0.50
   2  -6   3    8.78    0.54
   2   6   3    7.56    0.56
   3  -6   3    7.61    0.69
   3  -6   3    7.45    0.57
  -3  -6  -3    6.78    0.45
   3   6   3    8.26    0.57
   4  -6   3   40.97    2.03
   4   6   3   43.40    1.83
  -4   6  -3   41.62    1.77
   5  -6   3   85.41    3.65
   5   6   3   87.78    3.41
  -5   6  -3   89.48    3.38
   6  -6   3   99.09    4.10
  -6   6  -3   99.37    3.78
   6   6   3   97.82    3.82
   7  -6   3   64.67    2.80
   7   6   3   55.71    2.46
  -7   6  -3   58.74    2.46
   8  -6   3   36.88    2.05
  -8   6  -3   41.48    1.82
   8   6   3   41.76    1.83
   9  -6   3   41.15    2.21
  -9   6  -3   42.63    1.92
   9   6   3   42.67    1.91
   9  -7  -3   31.40    1.77
   9   7  -3   32.74    1.62
   9   7  -3   31.66    1.62
   8  -7  -3   32.61    1.64
   8   7  -3   35.13    1.67
   8   7  -3   33.68    1.68
   7  -7  -3   36.20    1.68
   7   7  -3   33.01    1.67
   7   7  -3   34.17    1.64
   6  -7  -3   15.19    0.95
   6   7  -3   16.74    0.96
   5  -7  -3    2.62    0.40
  -5  -7   3    2.18    0.39
   5   7  -3    2.59    0.37
   4  -7  -3    0.34    0.18
  -4  -7   3    0.39    0.21
   4   7  -3    0.52    0.20
   3  -7  -3    1.08    0.25
  -3  -7   3    0.94    0.27
   3   7  -3    1.18    0.26
   2  -7  -3   67.61    2.73
  -2  -7   3   69.54    2.80
   2   7  -3   69.79    2.79
  -2   7   3   67.35    2.63
  -1  -7   3   57.72    2.52
   1  -7  -3   57.67    2.45
  -1   7   3   64.48    2.45
   1   7  -3   64.92    2.34
   1   7  -3   65.13    2.60
   0  -7  -3  169.57    6.02
   0  -7   3  170.54    6.10
   0   7  -3  163.00    5.93
   0   7  -3  161.73    6.18
   0   7   3  165.54    6.04
  -1  -7  -3   66.76    2.53
   1  -7   3   65.36    2.58
   1  -7   3   62.67    2.76
   1   7   3   63.77    2.58
   2  -7   3  116.34    4.30
  -2  -7  -3  117.10    4.26
   2  -7   3  114.12    4.60
   2   7   3  114.96    4.36
   3  -7   3   94.36    3.91
   3   7   3   94.01    3.65
   4  -7   3   90.20    3.83
   4   7   3   90.93    3.55
  -4   7  -3   90.82    3.48
   5  -7   3   33.39    1.75
  -5   7  -3   29.47    1.41
   5   7   3   28.35    1.44
   6  -7   3    5.40    0.66
   6   7   3    4.20    0.48
  -6   7  -3    4.38    0.46
   7  -7   3    2.69    0.54
   7   7   3    3.29    0.46
  -7   7  -3    3.64    0.44
   8  -7   3    3.75    0.66
   8   7   3    4.10    0.51
  -8   7  -3    4.08    0.49
   8   8  -3    9.22    0.99
   8   8  -3    8.87    0.74
   7  -8  -3   15.93    1.00
   7   8  -3   14.64    0.94
   7   8  -3   15.16    1.02
   6  -8  -3   60.49    2.55
   6   8  -3   57.65    2.58
   6   8  -3   59.51    2.51
   5  -8  -3   48.00    2.11
   5   8  -3   46.30    2.06
   4  -8  -3   71.00    2.96
   4   8  -3   74.62    2.97
  -3  -8   3   75.42    3.14
   3  -8  -3   75.26    3.06
   3   8  -3   79.19    3.09
   2  -8  -3   87.79    3.36
  -2  -8   3   83.52    3.42
   2   8  -3   85.96    3.40
  -2   8   3   85.21    3.26
  -1  -8   3   55.89    2.31
   1  -8  -3   56.35    2.24
  -1   8   3   52.09    2.19
   1   8  -3   50.11    2.28
   0  -8   3    1.12    0.27
   0  -8  -3    1.65    0.29
   0   8  -3    1.03    0.28
   0   8   3    0.65    0.22
   0   8  -3    0.68    0.18
  -1  -8  -3   18.92    0.97
   1  -8   3   17.70    0.99
   1   8   3   19.32    1.03
  -1   8  -3   18.96    0.94
   2  -8   3    2.09    0.43
  -2   8  -3    1.86    0.30
   2   8   3    1.53    0.31
   3  -8   3    6.99    0.74
  -3   8  -3    7.95    0.58
   3   8   3    8.24    0.65
   4  -8   3   38.93    2.00
  -4   8  -3   35.22    1.63
   4   8   3   34.95    1.69
   5  -8   3   48.64    2.49
  -5   8  -3   51.53    2.17
   5   8   3   50.93    2.23
   6  -8   3   30.68    1.84
   6   8   3   31.23    1.57
  -6   8  -3   32.34    1.53
   7  -8   3   49.46    2.53
  -7   8  -3   48.56    2.18
   7   8   3   47.73    2.19
   6  -9  -3   21.63    1.26
   6   9  -3   23.85    1.36
   5  -9  -3    4.45    0.52
   5   9  -3    4.08    0.54
   4  -9  -3    1.97    0.38
   4   9  -3    1.94    0.40
   3  -9  -3    5.28    0.54
   3   9  -3    6.82    0.63
   2  -9  -3   30.03    1.48
   2   9  -3   30.23    1.74
   2   9  -3   32.29    1.56
   1  -9  -3   55.95    2.33
  -1   9   3   55.04    2.31
   1   9  -3   55.74    2.40
   1   9  -3   55.81    2.49
   0   9  -3   38.48    1.86
   0   9  -3   38.41    1.79
   0   9   3   40.50    1.78
   1   9   3   74.81    3.01
  -1   9  -3   77.25    3.01
  -1   9  -3   70.90    2.95
  -1   9  -3   72.27    3.10
   2  -9   3   33.44    2.42
   2   9   3   34.75    1.66
  -2   9  -3   34.82    1.56
   3   9   3   66.01    2.79
  -3   9  -3   66.45    2.69
  -4   9  -3   24.20    1.24
   4   9   3   23.44    1.30
   5   9   3   30.27    1.57
  -5   9  -3   30.75    1.50
   4 -10  -3   64.00    2.68
   4  10  -3   59.61    2.93
   3 -10  -3   30.41    1.53
   3  10  -3   31.25    1.61
   2 -10  -3   32.79    1.58
   2  10  -3   31.84    1.63
   1  10  -3   18.21    1.10
  -1  10   3   18.20    1.12
   0  10   3    6.05    0.58
   0  10  -3    6.56    0.61
   1  10   3    1.71    0.36
   2  10   3    2.41    0.43
  -3  10  -3    2.75    0.42
   3  10   3    2.84    0.47
  -4  10  -3   18.42    1.07
   1  11  -3   17.48    1.32
   0  11   3   22.23    1.27
  11   0  -4   49.79    2.30
  10   0  -4   32.21    1.61
   9   0  -4   31.64    1.54
   8   0  -4    4.47    0.47
   7   0  -4    2.18    0.24
  -7   0   4    2.12    0.24
   7   0  -4    2.71    0.35
   6   0  -4   18.28    0.93
   6   0  -4   19.01    0.83
  -6   0   4   18.99    0.84
   5   0  -4   58.18    2.14
  -5   0   4   57.83    2.16
   5   0  -4   56.64    2.24
  -4   0   4  318.13   10.75
   4   0  -4  303.43   10.71
   4   0  -4  304.87   10.80
  -3   0   4  184.41    6.35
   3   0  -4  182.25    6.32
   3   0  -4  174.02    6.37
   2   0  -4  175.16    5.94
   2   0  -4  153.82    5.95
  -2   0   4  178.62    5.99
   1   0  -4  536.71   18.05
  -1   0   4  482.49   17.92
   1   0  -4  512.56   17.63
   0   0   4  234.84    8.17
   0   0  -4  230.70    8.15
  -2   0  -4   54.76    2.07
   2   0   4   54.71    2.09
   3   0   4   71.17    2.67
  -3   0  -4   69.66    2.62
   3   0   4   69.36    2.61
   4   0   4    4.41    0.32
  -4   0  -4    3.94    0.31
   4   0   4    3.91    0.36
   5   0   4    4.85    0.43
  -5   0  -4    5.21    0.37
  -6   0  -4   60.55    2.37
   6   0   4   60.51    2.50
   6   0   4   63.03    2.33
  -7   0  -4  114.02    4.23
   7   0   4  115.86    4.41
   8   0   4   57.88    2.51
  -8   0  -4   59.00    2.32
   9   0   4   90.76    3.74
  -9   0  -4   93.82    3.58
  10   0   4   96.45    3.96
  11   0   4   44.17    2.29
  11  -1  -4   14.81    1.04
  11   1  -4   16.86    1.08
  10  -1  -4   45.15    2.08
  10   1  -4   44.95    2.07
   9  -1  -4   80.50    3.30
   9   1  -4   83.85    3.32
   8  -1  -4  109.14    4.24
  -8  -1   4  114.15    4.12
   8  -1  -4  112.15    4.09
   8   1  -4  110.09    4.26
   7  -1  -4  144.69    5.44
   7  -1  -4  149.36    5.32
  -7  -1   4  149.37    5.33
   7   1  -4  148.08    5.45
  -6  -1   4  110.86    4.09
   6  -1  -4  113.60    4.09
   6  -1  -4  111.35    4.17
   6   1  -4  112.84    4.20
  -6   1   4  114.43    4.01
   6   1  -4  111.26    3.99
  -5  -1   4  143.95    5.06
   5  -1  -4  143.42    5.05
   5  -1  -4  139.44    5.09
  -5   1   4  142.30    4.99
   5   1  -4  137.98    4.95
   5   1  -4  139.36    5.13
  -4  -1   4   67.09    2.53
   4  -1  -4   67.29    2.54
   4  -1  -4   67.78    2.52
   4   1  -4   67.28    2.58
   4   1  -4   69.14    2.44
  -4   1   4   68.89    2.49
  -3  -1   4   44.30    1.74
   3  -1  -4   42.63    1.71
   3   1  -4   47.21    1.67
  -3   1   4   45.02    1.72
   3   1  -4   46.60    1.79
   2  -1  -4   74.08    2.70
   2  -1  -4   73.44    2.73
  -2  -1   4   76.58    2.76
   2   1  -4   77.70    2.70
  -2   1   4   72.37    2.77
   1  -1  -4   24.84    0.96
   1  -1  -4   23.99    1.01
   1   1  -4   23.99    1.00
  -1   1   4   25.44    1.06
  -1  -1  -4   79.36    3.08
   1  -1   4   88.38    3.16
  -1   1  -4   83.96    3.05
   1   1   4   84.95    3.03
   2  -1   4  225.54    7.81
  -2  -1  -4  220.11    7.75
   2   1   4  214.04    7.69
   2   1   4  219.10    7.70
  -3  -1  -4  177.43    6.52
   3  -1   4  178.05    6.58
   3   1   4  189.78    6.51
  -3   1  -4  187.28    6.49
   3   1   4  184.80    6.47
   4  -1   4  239.14    8.42
  -4  -1  -4  235.08    8.44
   4  -1   4  237.56    8.54
  -4   1  -4  241.17    8.42
   4   1   4  240.49    8.46
   4   1   4  241.37    8.40
   5  -1   4  308.15   10.87
   5  -1   4  329.10   10.73
  -5  -1  -4  307.30   10.75
  -5   1  -4  297.98   10.72
   5   1   4  297.42   10.69
   5   1   4  296.92   10.79
  -6  -1  -4  171.17    6.39
   6  -1   4  173.08    6.55
   6   1   4  185.25    6.51
   6   1   4  182.58    6.35
  -6   1  -4  180.73    6.40
  -7  -1  -4   96.56    3.57
   7  -1   4   96.24    3.76
  -7   1  -4   93.44    3.56
   7   1   4   93.95    3.50
   7   1   4   94.95    3.69
   8  -1   4   31.45    1.58
  -8  -1  -4   32.34    1.40
   8   1   4   30.54    1.52
  -8   1  -4   29.99    1.38
   9  -1   4    4.97    0.59
  -9   1  -4    4.62    0.43
   9   1   4    4.84    0.56
  10  -1   4    1.88    0.42
  10   1   4    1.15    0.33
  11   1   4    5.81    0.66
  11  -2  -4   28.93    1.60
  11   2  -4   30.61    1.59
  10  -2  -4   26.58    1.41
  10   2  -4   25.17    1.38
   9  -2  -4    5.09    0.53
   9  -2  -4    4.96    0.43
   9   2  -4    4.96    0.53
   8  -2  -4    7.96    0.54
  -8  -2   4    8.10    0.55
   8  -2  -4    8.55    0.63
   8   2  -4    7.04    0.60
  -7  -2   4    1.71    0.26
   7  -2  -4    1.99    0.31
   7  -2  -4    2.08    0.28
   7   2  -4    2.41    0.36
   6  -2  -4   35.89    1.50
  -6  -2   4   36.04    1.51
   6  -2  -4   36.10    1.53
  -6   2   4   34.82    1.36
   5  -2  -4   87.77    3.22
  -5  -2   4   86.44    3.23
   5  -2  -4   85.62    3.23
  -5   2   4   86.27    3.10
   5   2  -4   86.59    3.04
   4  -2  -4   49.38    1.95
   4  -2  -4   51.59    1.98
  -4  -2   4   49.47    1.99
   4   2  -4   52.62    1.83
  -4   2   4   52.06    1.92
  -3  -2   4  307.82   10.45
   3  -2  -4  303.08   10.43
   3  -2  -4  300.73   10.37
  -3   2   4  275.76   10.40
   3   2  -4  305.11   10.31
   2  -2  -4  189.10    6.75
   2  -2  -4  188.22    6.66
  -2  -2   4  186.33    6.77
  -2   2   4  199.22    6.77
   2   2  -4  195.46    6.69
  -1  -2   4  489.30   17.67
   1  -2  -4  526.45   17.56
   1   2  -4  504.71   17.61
  -1   2   4  505.12   17.79
   0  -2   4  197.46    7.07
   0  -2   4  198.24    6.94
   0  -2  -4  194.07    6.94
   0  -2  -4  203.49    6.83
   0   2   4  195.86    6.92
   0   2  -4  193.40    6.89
   1  -2   4  400.38   14.15
   1  -2   4  407.84   14.21
  -1  -2  -4  386.71   14.01
   1   2   4  413.00   14.06
  -1   2  -4  410.99   13.98
  -2  -2  -4    1.65    0.21
   2  -2   4    1.64    0.26
   2  -2   4    1.64    0.17
   3  -2   4  180.53    6.46
  -3  -2  -4  170.57    6.34
   3   2   4  178.43    6.31
   3   2   4  181.68    6.28
  -4  -2  -4    0.48    0.16
   4  -2   4    0.49    0.18
   4   2   4    0.70    0.17
   4   2   4    0.82    0.17
  -4   2  -4    1.01    0.19
   5  -2   4    3.37    0.41
  -5  -2  -4    3.76    0.35
   5   2   4    5.18    0.37
  -5   2  -4    4.71    0.37
   5   2   4    4.62    0.39
   6  -2   4   64.72    2.68
  -6  -2  -4   67.00    2.54
  -6   2  -4   62.92    2.50
   6   2   4   62.87    2.47
   6   2   4   64.17    2.56
  -7  -2  -4   56.30    2.34
   7  -2   4   54.12    2.50
   7   2   4   61.25    2.30
  -7   2  -4   59.88    2.34
   7   2   4   61.19    2.43
   8  -2   4  101.72    4.11
  -8   2  -4  101.86    3.87
   8   2   4  103.98    3.99
   9  -2   4   89.78    3.67
  -9   2  -4   85.50    3.37
   9   2   4   86.68    3.52
  10  -2   4   45.68    2.23
 -10   2  -4   42.75    1.92
  10   2   4   46.04    2.12
  11   2   4   36.55    1.85
  11  -3  -4   11.08    0.91
  11   3  -4   12.87    0.94
  10  -3  -4   48.97    2.24
  10  -3  -4   48.65    2.05
  10   3  -4   47.58    2.20
   9  -3  -4   54.78    2.30
  -9  -3   4   56.82    2.31
   9  -3  -4   55.70    2.44
   9   3  -4   56.77    2.43
   8  -3  -4   86.53    3.29
   8  -3  -4   85.13    3.39
  -8  -3   4   84.48    3.30
   8   3  -4   84.24    3.38
   7  -3  -4   73.16    2.78
   7  -3  -4   68.74    2.81
  -7  -3   4   69.34    2.78
   7   3  -4   71.64    2.85
   6  -3  -4  130.00    4.73
  -6  -3   4  128.80    4.74
   6  -3  -4  127.73    4.74
   6   3  -4  127.11    4.79
   5  -3  -4  126.37    4.57
   5  -3  -4  129.26    4.60
  -5  -3   4  126.49    4.62
  -5   3   4  119.29    4.43
   4  -3  -4   44.70    1.84
   4  -3  -4   43.71    1.88
  -4  -3   4   45.02    1.91
  -4   3   4   51.41    1.85
   4   3  -4   53.75    1.99
   3  -3  -4   88.67    3.23
   3  -3  -4   88.67    3.33
  -3  -3   4   89.04    3.35
  -3   3   4   86.93    3.28
   3   3  -4   91.75    3.17
   3   3  -4   94.57    3.42
   2  -3  -4   12.53    0.50
   2   3  -4   10.50    0.66
   2   3  -4   11.97    0.52
  -2   3   4   11.17    0.57
  -1  -3   4   25.91    1.13
   1  -3  -4   27.14    1.12
  -1   3   4   25.71    1.09
   1   3  -4   27.26    1.23
   1   3  -4   26.99    1.05
   0  -3  -4   60.74    2.30
   0  -3   4   57.86    2.44
   0  -3   4   61.19    2.31
   0   3   4   62.21    2.29
   0   3  -4   62.25    2.24
   1  -3   4  197.28    6.93
  -1  -3  -4  199.10    6.94
   1  -3   4  172.59    7.08
   1   3   4  202.81    6.95
   1   3   4  203.27    6.78
  -1   3  -4  202.71    6.91
   2  -3   4  126.37    5.41
   2  -3   4  154.81    5.27
  -2  -3  -4  152.40    5.30
  -2   3  -4  150.29    5.27
   2   3   4  149.87    5.17
   2   3   4  152.41    5.30
  -3  -3  -4  194.05    7.31
   3  -3   4  213.36    7.26
   3   3   4  205.08    7.24
   3   3   4  206.94    7.33
  -3   3  -4  213.36    7.31
  -5  -3  -4  206.36    8.44
   5  -3   4  241.79    8.68
   5   3   4  246.10    8.46
   5   3   4  247.78    8.48
  -5   3  -4  252.15    8.49
  -6  -3  -4   84.59    3.38
   6  -3   4   90.17    3.61
   6   3   4   90.23    3.41
  -6   3  -4   91.29    3.40
   6   3   4   91.98    3.39
   7  -3   4   90.06    3.77
  -7   3  -4   93.64    3.56
   7   3   4   92.67    3.59
   7   3   4   97.30    3.54
   8  -3   4    2.44    0.47
   8   3   4    3.42    0.38
  -8   3  -4    3.36    0.38
   8   3   4    3.61    0.44
   9  -3   4   18.82    1.22
   9   3   4   18.58    1.08
  -9   3  -4   17.86    0.99
  10  -3   4    2.95    0.55
 -10   3  -4    2.97    0.42
  10   3   4    2.65    0.46
 -11   3  -4    2.45    0.40
  11   3   4    2.29    0.47
  11  -4  -4   20.34    1.13
  11  -4  -4   20.74    1.31
  11   4  -4   22.07    1.57
  10  -4  -4    8.72    0.76
  10  -4  -4    7.90    0.63
  10   4  -4    7.92    0.71
   9  -4  -4   11.46    0.84
  -9  -4   4   11.61    0.78
   9  -4  -4   11.14    0.76
   9   4  -4   12.06    0.84
   8  -4  -4    3.65    0.45
  -8  -4   4    3.97    0.45
   8  -4  -4    3.42    0.41
   8   4  -4    4.39    0.49
   7  -4  -4    5.43    0.49
   7  -4  -4    5.75    0.51
  -7  -4   4    5.25    0.50
   7   4  -4    5.88    0.53
   6  -4  -4   30.09    1.30
   6  -4  -4   25.69    1.25
  -6  -4   4   24.59    1.26
   6   4  -4   27.20    1.31
   5  -4  -4   71.41    2.71
  -5  -4   4   69.19    2.73
   5  -4  -4   71.93    2.68
   5   4  -4   65.28    2.73
  -5   4   4   66.67    2.62
  -4  -4   4  101.02    3.83
   4  -4  -4  105.27    3.74
  -4   4   4   97.52    3.69
   4   4  -4  103.13    3.87
   3  -4  -4  135.23    4.97
  -3   4   4  138.68    4.99
   3   4  -4  146.47    5.17
   3   4  -4  139.01    4.89
  -2  -4   4  191.92    7.02
   2  -4  -4  189.43    6.82
   2  -4  -4  196.57    6.99
  -2   4   4  197.93    6.92
   2   4  -4  209.10    7.12
   2   4  -4  192.81    6.83
   1  -4  -4  268.97    9.40
  -1  -4   4  262.83    9.42
   1   4  -4  263.41    9.28
   1   4  -4  272.61    9.55
  -1   4   4  268.01    9.36
   0  -4  -4  193.40    6.57
   0  -4   4  186.10    6.77
   0  -4   4  186.16    6.58
   0   4  -4  177.65    6.48
   0   4   4  179.89    6.55
   1  -4   4  152.00    5.61
  -1  -4  -4  152.86    5.61
   1  -4   4  153.81    5.85
  -1   4  -4  162.50    5.59
   1   4   4  164.41    5.65
  -2  -4  -4  122.01    4.38
   2  -4   4  119.07    4.37
   2  -4   4  122.12    4.64
   2   4   4  118.86    4.24
  -2   4  -4  123.32    4.38
   3  -4   4   19.00    1.10
   3  -4   4   18.42    0.86
  -3  -4  -4   20.75    0.92
   3   4   4   20.45    0.84
   3   4   4   20.82    0.96
  -3   4  -4   19.56    0.92
   4  -4   4    1.69    0.35
   4  -4   4    0.79    0.18
  -4  -4  -4    0.74    0.17
   4   4   4    1.46    0.25
   4   4   4    1.18    0.18
  -4   4  -4    0.83    0.19
  -5  -4  -4    4.95    0.39
   5  -4   4    4.77    0.53
  -5   4  -4    4.94    0.41
   5   4   4    5.23    0.44
   5   4   4    5.33    0.40
   6  -4   4   29.60    1.52
   6   4   4   27.24    1.27
  -6   4  -4   28.85    1.30
   6   4   4   27.85    1.30
   7  -4   4   53.52    2.42
   7   4   4   52.40    2.17
   7   4   4   52.64    2.18
  -7   4  -4   52.12    2.17
   8  -4   4   84.71    3.58
   8   4   4   86.59    3.29
  -8   4  -4   84.79    3.30
   8   4   4   81.67    3.31
   9  -4   4   35.94    2.02
  -9   4  -4   43.50    1.85
   9   4   4   43.19    1.90
  10  -4   4   74.56    3.48
 -10   4  -4   69.90    2.90
  10   4   4   70.34    3.63
  11  -5  -4   12.92    0.94
  10  -5  -4   23.84    1.30
  10   5  -4   26.47    1.42
   9  -5  -4   31.17    1.50
   9   5  -4   29.69    1.54
   8  -5  -4   69.73    3.04
   8  -5  -4   66.75    2.76
  -8  -5   4   63.86    2.77
   8   5  -4   69.94    2.84
   7  -5  -4  112.96    4.35
  -7  -5   4  113.51    4.39
   7  -5  -4  119.93    4.49
   7   5  -4  110.86    4.39
   6  -5  -4   64.45    2.63
  -6  -5   4   61.46    2.56
   6  -5  -4   62.67    2.53
   6   5  -4   59.51    2.55
   5  -5  -4   97.28    4.30
  -5  -5   4  102.62    3.99
   5  -5  -4  105.01    3.96
   5   5  -4  110.51    4.02
  -4  -5   4   22.05    1.10
   4  -5  -4   22.80    1.07
  -4   5   4   19.43    0.92
   4   5  -4   20.75    1.09
   3  -5  -4   35.06    1.53
   3   5  -4   35.74    1.59
  -3   5   4   34.87    1.42
   2  -5  -4    3.53    0.34
  -2  -5   4    2.58    0.32
  -2   5   4    2.44    0.26
   2   5  -4    2.34    0.34
   2   5  -4    2.44    0.20
  -1  -5   4    6.45    0.48
   1  -5  -4    6.85    0.47
   1   5  -4    6.14    0.36
  -1   5   4    6.79    0.44
   1   5  -4    6.61    0.54
   0  -5  -4   25.35    1.16
   0  -5   4   24.95    1.19
   0  -5   4   25.44    1.34
   0   5  -4   28.34    1.11
   0   5   4   29.25    1.20
  -1  -5  -4   65.73    2.41
   1  -5   4   67.73    2.70
   1  -5   4   64.67    2.43
   1   5   4   57.10    2.41
  -1   5  -4   57.78    2.35
  -2  -5  -4  109.38    4.01
   2  -5   4  109.03    4.03
   2  -5   4  109.75    4.33
  -2   5  -4  111.56    4.02
   3  -5   4  215.03    7.59
  -3  -5  -4  216.00    7.60
   3  -5   4  215.27    7.95
   3   5   4  215.51    7.69
  -3   5  -4  211.68    7.63
  -4  -5  -4  136.19    4.81
   4  -5   4  130.62    5.15
  -4   5  -4  132.54    4.86
   4   5   4  132.06    4.90
   5  -5   4  102.51    4.06
   5   5   4   99.01    3.78
  -5   5  -4   97.17    3.75
   6  -5   4  100.38    4.17
  -6   5  -4  103.44    3.90
   6   5   4  104.55    3.92
   7  -5   4   37.75    1.96
  -7   5  -4   39.52    1.71
   7   5   4   38.48    1.72
   8  -5   4   24.39    1.48
   8   5   4   23.91    1.22
  -8   5  -4   24.35    1.23
   9  -5   4    7.15    0.78
   9   5   4    7.74    0.66
  -9   5  -4    8.55    0.65
  10  -6  -4   14.47    1.08
  10   6  -4   15.29    1.10
  10   6  -4   14.42    0.96
   9  -6  -4    6.42    0.62
   9   6  -4    7.08    0.68
   9   6  -4    7.34    0.65
   8  -6  -4   12.86    0.84
  -8  -6   4   12.46    0.87
   8   6  -4   10.99    0.83
   7  -6  -4    4.56    0.50
  -7  -6   4    4.39    0.51
   7   6  -4    4.32    0.50
   6  -6  -4    9.61    0.68
  -6  -6   4    9.32    0.71
   6   6  -4    9.40    0.70
  -5  -6   4   33.48    1.63
   5  -6  -4   34.82    1.60
   5   6  -4   36.10    1.64
   4  -6  -4  102.14    3.87
  -4  -6   4   99.49    3.92
   4   6  -4  101.69    3.92
   3  -6  -4  133.30    4.93
  -3  -6   4  136.83    5.00
  -3   6   4  127.89    4.78
   3   6  -4  133.28    5.00
   2  -6  -4   97.58    3.76
  -2  -6   4   96.84    3.81
   2   6  -4  100.82    3.74
   2   6  -4  101.00    3.87
  -2   6   4  101.90    3.68
  -1  -6   4  114.75    4.26
   1  -6  -4  112.77    4.19
   1   6  -4  110.39    4.33
   1   6  -4  114.56    4.05
  -1   6   4  111.09    4.15
   0  -6  -4   73.44    2.85
   0  -6   4   74.40    2.90
   0  -6   4   72.35    3.07
   0   6  -4   77.06    2.77
   0   6   4   73.66    2.85
   1  -6   4  165.94    5.83
  -1  -6  -4  166.47    5.79
   1  -6   4  162.63    6.09
   1   6   4  153.21    5.81
  -1   6  -4  152.42    5.72
  -2  -6  -4   86.64    3.42
   2  -6   4   90.47    3.77
   2  -6   4   87.54    3.45
  -2   6  -4   97.46    3.46
   2   6   4   98.77    3.54
   3  -6   4   25.49    1.42
  -3  -6  -4   26.13    1.11
   3   6   4   23.36    1.18
  -3   6  -4   23.42    1.13
   4  -6   4    0.57    0.26
  -4   6  -4    0.65    0.20
   4   6   4    0.35    0.18
   5  -6   4    3.45    0.52
   5   6   4    3.41    0.41
  -5   6  -4    3.87    0.40
   6  -6   4   33.18    1.76
  -6   6  -4   30.23    1.44
   6   6   4   30.26    1.47
   7  -6   4    7.45    0.80
   7   6   4   10.81    0.73
  -7   6  -4   10.79    0.71
   8  -6   4   62.66    2.93
   8   6   4   62.29    2.59
  -8   6  -4   61.55    2.58
   9   6   4   51.30    2.23
   9   7  -4   37.22    1.84
   9   7  -4   38.08    1.85
   8  -7  -4   29.34    1.48
   8   7  -4   27.01    1.46
   7  -7  -4   75.80    3.12
  -7  -7   4   72.21    3.14
   7   7  -4   79.45    3.15
   6  -7  -4   45.33    2.00
  -6  -7   4   45.83    2.05
   6   7  -4   41.51    1.97
  -5  -7   4   50.94    2.29
   5  -7  -4   52.57    2.25
   5   7  -4   52.65    2.26
  -4  -7   4   34.39    1.63
   4  -7  -4   33.39    1.56
   4   7  -4   32.10    1.58
  -3  -7   4   16.72    0.99
   3  -7  -4   16.23    0.94
  -3   7   4   17.26    0.84
   3   7  -4   16.99    0.99
   2  -7  -4    0.41    0.18
  -2  -7   4    0.55    0.22
   2   7  -4    0.62    0.22
  -2   7   4    0.70    0.19
  -1  -7   4   11.53    0.76
   1  -7  -4   11.75    0.72
  -1   7   4   12.01    0.70
   1   7  -4   11.95    0.64
   1   7  -4   11.73    0.81
   0  -7   4   14.53    0.83
   0  -7  -4   15.10    0.78
   0   7   4   12.33    0.75
   0   7  -4   12.05    0.86
   0   7  -4   11.87    0.66
  -1  -7  -4   19.69    0.98
   1  -7   4   19.41    1.02
   1  -7   4   18.55    1.19
  -1   7  -4   20.09    0.95
   1   7   4   21.86    1.06
   2  -7   4   56.22    2.25
  -2  -7  -4   55.65    2.20
   2  -7   4   55.86    2.56
   2   7   4   54.28    2.28
  -2   7  -4   54.59    2.21
   3  -7   4  153.11    5.94
  -3   7  -4  152.28    5.53
   3   7   4  147.88    5.59
   4  -7   4   79.77    3.62
   4   7   4   86.56    3.35
  -4   7  -4   87.64    3.30
   5  -7   4   75.38    3.34
   5   7   4   73.62    3.00
  -5   7  -4   73.93    2.95
   6  -7   4   18.38    1.29
  -6   7  -4   18.64    1.03
   6   7   4   18.91    1.07
   7  -7   4   60.62    2.89
  -7   7  -4   60.90    2.53
   7   7   4   59.00    2.54
   8  -7   4   25.01    1.59
   8   7   4   23.39    1.28
   8   8  -4    0.57    0.27
   7  -8  -4    0.15    0.20
   7   8  -4   -0.04    0.20
   7   8  -4    0.26    0.22
   6  -8  -4   14.49    0.96
  -6  -8   4   14.63    0.99
   6   8  -4   15.50    0.97
   5  -8  -4    9.32    0.72
  -5  -8   4    9.36    0.75
   5   8  -4    8.66    0.70
  -4  -8   4   47.13    2.15
   4  -8  -4   48.68    2.09
   4   8  -4   45.04    2.07
  -3  -8   4   59.31    2.61
   3  -8  -4   61.11    2.55
   3   8  -4   62.70    2.60
   2  -8  -4  102.40    3.89
  -2  -8   4   99.99    3.95
  -2   8   4   98.47    3.77
   2   8  -4   99.81    3.96
  -1  -8   4   62.53    2.55
   1  -8  -4   62.96    2.48
  -1   8   4   57.11    2.41
   1   8  -4   57.28    2.57
   0  -8   4   58.23    2.62
   0  -8  -4   58.56    2.56
   0   8  -4   67.72    2.79
   0   8  -4   68.35    2.73
   0   8   4   69.26    2.63
   1  -8   4   78.66    3.11
  -1  -8  -4   76.38    3.03
   1   8   4   79.10    3.11
  -1   8  -4   78.97    3.00
   2  -8   4   34.10    1.77
   2   8   4   30.69    1.50
  -2   8  -4   30.25    1.40
   3  -8   4   34.83    1.89
   3   8   4   34.37    1.63
  -3   8  -4   34.52    1.55
   4  -8   4   14.37    1.12
   4   8   4   13.26    0.88
  -4   8  -4   13.78    0.83
   5  -8   4    2.57    0.55
   5   8   4    2.33    0.41
  -5   8  -4    2.53    0.40
   6  -8   4    9.18    0.95
  -6   8  -4   11.63    0.78
   6   8   4   11.24    0.81
   7  -8   4   19.87    1.44
   6  -9  -4   21.82    1.55
   6   9  -4   24.13    1.45
   6   9  -4   22.23    1.77
   5  -9  -4   28.06    1.47
   5   9  -4   28.08    1.45
   4  -9  -4   24.84    1.30
   4   9  -4   22.04    1.25
   3  -9  -4   11.04    0.77
  -3  -9   4   10.04    0.80
   3   9  -4    9.42    0.75
  -2  -9   4    0.66    0.26
   2  -9  -4    0.31    0.21
   2   9  -4    0.73    0.26
  -1  -9   4    5.75    0.58
   1  -9  -4    5.85    0.53
  -1   9   4    5.29    0.50
   1   9  -4    5.15    0.57
   0  -9   4   11.49    0.81
   0  -9  -4   11.27    0.76
   0   9  -4   11.13    0.85
   0   9   4   11.55    0.77
   1   9   4   18.75    1.06
  -1   9  -4   18.67    1.18
   2  -9   4   61.73    2.91
  -2   9  -4   63.86    2.56
   2   9   4   64.75    2.68
   3  -9   4   41.40    2.19
  -3   9  -4   42.33    1.85
   3   9   4   42.85    1.96
   4  -9   4   55.50    2.78
   4   9   4   57.56    2.49
  -4   9  -4   57.72    2.40
   5  -9   4   45.18    2.46
   5   9   4   51.01    2.33
  -5   9  -4   47.28    2.11
   6  -9   4   26.54    1.75
   4 -10  -4   18.66    1.26
   3 -10  -4   61.62    2.48
   3  10  -4   49.90    2.44
   2 -10  -4   36.69    1.75
   2  10  -4   37.40    1.82
   1  10  -4   50.14    2.27
  -1  10   4   51.75    2.25
   0  10  -4   39.66    1.89
   0  10   4   42.71    1.90
   1  10   4   26.20    1.37
   2  10   4   17.55    1.07
  -3  10  -4    3.30    0.43
  -4  10  -4    0.43    0.31
  11   0  -5   83.44    3.48
  10   0  -5   36.90    1.79
   9   0  -5   53.10    2.31
   8   0  -5   23.01    1.19
  -7   0   5   24.75    1.09
   7   0  -5   24.72    1.22
   7   0  -5   25.29    1.07
  -6   0   5  104.27    3.78
   6   0  -5  102.98    3.89
   6   0  -5  103.26    3.75
  -5   0   5    2.77    0.27
   5   0  -5    2.64    0.25
   5   0  -5    2.65    0.30
   4   0  -5    4.08    0.35
  -4   0   5    4.05    0.32
   4   0  -5    4.15    0.30
   3   0  -5  132.32    4.70
  -3   0   5  132.42    4.74
   3   0  -5  131.46    4.76
  -2   0   5  253.61    9.12
   2   0  -5  266.31    9.09
  -1   0   5  337.06   11.76
   1   0  -5  335.98   11.71
   0   0  -5  227.71    7.91
   0   0   5  232.32    7.94
   0   0   5  213.22    7.93
   1   0   5  608.36   21.27
   1   0   5  607.99   21.63
  -2   0  -5  221.89    7.75
   2   0   5  215.49    7.77
   2   0   5  219.85    7.77
   3   0   5  321.93   11.26
   3   0   5  319.72   11.22
  -3   0  -5  318.99   11.21
  -4   0  -5   90.22    3.35
   4   0   5   89.48    3.34
   4   0   5   89.77    3.42
   5   0   5    1.23    0.26
  -5   0  -5    1.80    0.25
   5   0   5    1.48    0.24
   6   0   5    1.52    0.31
   6   0   5    1.78    0.27
  -6   0  -5    1.97    0.27
  -7   0  -5    0.76    0.20
   7   0   5    0.73    0.25
   8   0   5   15.72    1.01
  -8   0  -5   14.99    0.85
  -9   0  -5    8.80    0.63
   9   0   5    9.65    0.80
  10   0   5   54.11    2.51
  11  -1  -5    4.01    0.55
  11   1  -5    2.87    0.49
  10  -1  -5   11.41    0.84
  10   1  -5   11.18    0.85
   9  -1  -5   17.93    1.03
   9   1  -5   15.75    1.00
   8  -1  -5   27.35    1.34
  -8  -1   5   27.87    1.23
   8  -1  -5   28.55    1.22
   8   1  -5   25.12    1.33
   7  -1  -5   83.06    3.31
   7  -1  -5   82.12    3.19
  -7  -1   5   83.33    3.21
   7   1  -5   94.10    3.38
  -6  -1   5  117.40    4.23
   6  -1  -5  116.84    4.20
   6  -1  -5  116.40    4.29
   6   1  -5  111.08    4.30
  -6   1   5  118.18    4.16
   6   1  -5  112.24    4.11
   5  -1  -5  256.67    9.22
   5  -1  -5  264.04    9.18
  -5  -1   5  262.26    9.20
   5   1  -5  263.01    9.10
  -5   1   5  262.19    9.14
   5   1  -5  259.89    9.27
   4  -1  -5  267.11    9.27
   4  -1  -5  260.97    9.28
  -4  -1   5  272.51    9.31
   4   1  -5  260.61    9.19
   4   1  -5  264.91    9.36
  -4   1   5  261.09    9.26
   3  -1  -5  346.61   14.02
  -3  -1   5  416.01   14.09
   3  -1  -5  411.28   14.06
  -3   1   5  402.22   14.08
   3   1  -5  420.51   14.14
   3   1  -5  433.19   14.01
   2  -1  -5  176.32    5.92
  -2  -1   5  181.30    6.01
   2  -1  -5  184.67    5.98
  -2   1   5  159.85    6.00
   2   1  -5  155.17    6.01
   2   1  -5  152.18    5.91
   1  -1  -5  109.50    3.85
   1  -1  -5  106.63    3.91
   1   1  -5  106.46    3.97
   1   1  -5  105.60    3.88
  -1   1   5  111.39    3.97
   0  -1   5    0.87    0.20
   0  -1   5    1.43    0.21
   0   1  -5    1.40    0.20
   1  -1   5    4.97    0.39
   1  -1   5    5.85    0.45
  -1  -1  -5    6.13    0.41
  -1   1  -5    6.23    0.39
   1   1   5    6.85    0.42
   1   1   5    6.42    0.39
  -2  -1  -5   10.55    0.58
   2  -1   5   10.28    0.62
   2  -1   5   10.21    0.57
   2   1   5    9.67    0.53
   2   1   5    8.73    0.53
  -3  -1  -5  189.21    6.83
   3  -1   5  194.39    6.82
   3  -1   5  195.82    6.91
   3   1   5  193.81    6.79
   3   1   5  188.08    6.80
  -3   1  -5  185.18    6.77
   4  -1   5  164.07    5.52
  -4  -1  -5  156.41    5.54
   4  -1   5  152.11    5.61
  -4   1  -5  146.65    5.48
   4   1   5  147.02    5.47
   4   1   5  149.56    5.52
   5  -1   5  289.52   10.59
   5  -1   5  301.85   10.44
  -5  -1  -5  288.47   10.47
  -5   1  -5  295.11   10.44
   5   1   5  301.59   10.42
   5   1   5  303.53   10.52
   6  -1   5   46.71    2.05
  -6  -1  -5   47.11    1.91
  -6   1  -5   44.07    1.88
   6   1   5   46.84    1.86
   6   1   5   45.67    1.97
  -7  -1  -5  135.47    5.04
   7  -1   5  137.52    5.24
   7   1   5  139.03    5.16
  -7   1  -5  136.29    5.03
   7   1   5  135.76    5.38
  -8  -1  -5   66.81    2.63
   8  -1   5   67.20    2.85
  -8   1  -5   63.93    2.60
   8   1   5   64.25    2.75
   9  -1   5   64.70    2.88
  -9   1  -5   63.28    2.61
   9   1   5   68.04    2.84
  10  -1   5   13.42    1.04
  10   1   5   13.89    1.00
  11  -2  -5   46.92    2.22
  11   2  -5   47.51    2.23
  10  -2  -5   31.59    1.64
  10   2  -5   33.52    1.66
   9  -2  -5   66.61    2.59
   9  -2  -5   63.30    2.72
   9   2  -5   65.42    2.75
  -8  -2   5   46.32    1.97
   8  -2  -5   46.59    2.06
   8  -2  -5   45.53    1.94
   8   2  -5   51.57    2.12
   7  -2  -5   63.18    2.58
  -7  -2   5   63.97    2.54
   7  -2  -5   65.87    2.53
   7   2  -5   64.91    2.64
   6  -2  -5    4.93    0.41
  -6  -2   5    5.67    0.44
   6  -2  -5    5.23    0.44
  -6   2   5    5.89    0.36
   6   2  -5    5.65    0.49
  -5  -2   5   13.48    0.73
   5  -2  -5   14.09    0.72
   5  -2  -5   13.64    0.72
   5   2  -5   13.95    0.59
  -5   2   5   13.89    0.65
   4  -2  -5   32.17    1.30
  -4  -2   5   32.64    1.35
   4  -2  -5   32.27    1.33
   4   2  -5   31.60    1.40
   4   2  -5   31.12    1.20
  -4   2   5   29.48    1.28
  -3  -2   5   65.53    2.69
   3  -2  -5   67.70    2.67
   3   2  -5   74.41    2.78
  -3   2   5   73.30    2.70
   3   2  -5   75.63    2.59
   2  -2  -5  300.56   10.06
   2  -2  -5  303.42   10.18
  -2  -2   5  306.61   10.22
  -2   2   5  273.14   10.19
   2   2  -5  273.07   10.10
   2   2  -5  287.19   10.27
   1  -2  -5  209.50    6.94
  -1  -2   5  203.43    7.10
   1   2  -5  192.10    7.03
  -1   2   5  195.47    7.08
   0  -2   5  332.42   11.48
   0  -2  -5  321.75   11.46
   0  -2   5  328.81   11.60
   0   2  -5  326.63   11.41
   0   2   5  329.59   11.46
  -1  -2  -5  231.44    8.39
   1  -2   5  237.76    8.52
   1  -2   5  234.33    8.38
  -1   2  -5  245.60    8.34
   1   2   5  238.60    8.28
  -2  -2  -5  281.06   10.63
   2  -2   5  315.40   10.78
   2  -2   5  289.97   10.61
  -2   2  -5  322.14   10.60
   2   2   5  305.14   10.60
   2   2   5  303.79   10.54
   3  -2   5  193.25    7.25
   3  -2   5  212.59    7.43
  -3  -2  -5  206.79    7.30
   3   2   5  201.80    7.21
   3   2   5  208.02    7.26
   4  -2   5   85.77    3.51
   4  -2   5   96.82    3.72
  -4  -2  -5   97.99    3.59
   4   2   5  101.19    3.56
   4   2   5  103.10    3.56
  -4   2  -5   88.41    3.52
  -5  -2  -5   38.41    1.72
   5  -2   5   36.38    1.82
   5   2   5   43.66    1.71
  -5   2  -5   44.73    1.73
   5   2   5   42.91    1.73
   6  -2   5    1.44    0.31
  -6  -2  -5    2.16    0.32
   6   2   5    1.37    0.26
   6   2   5    1.14    0.23
  -6   2  -5    0.91    0.21
  -7  -2  -5   11.69    0.72
   7  -2   5   10.63    0.83
  -7   2  -5   11.85    0.71
   7   2   5   12.35    0.69
   7   2   5   11.39    0.75
   8  -2   5    1.87    0.41
   8   2   5    2.09    0.37
  -8   2  -5    2.51    0.34
   9  -2   5   37.07    1.89
   9   2   5   35.05    1.73
  -9   2  -5   35.51    1.62
  10  -2   5   38.94    2.01
 -10   2  -5   37.93    1.72
  10   2   5   36.18    1.84
  11  -3  -5    1.04    0.34
  11   3  -5    1.17    0.35
  10  -3  -5    1.28    0.34
  10  -3  -5    1.38    0.30
  10   3  -5    1.11    0.34
   9  -3  -5    7.23    0.64
   9  -3  -5    7.02    0.55
  -9  -3   5    6.80    0.56
   9   3  -5    6.66    0.63
   8  -3  -5   47.96    2.11
  -8  -3   5   48.31    2.06
   8  -3  -5   47.67    2.03
   8   3  -5   49.47    2.15
  -7  -3   5   70.23    2.78
   7  -3  -5   72.03    2.81
   7  -3  -5   70.10    2.75
   7   3  -5   66.71    2.82
  -6  -3   5  150.49    5.63
   6  -3  -5  153.36    5.61
   6  -3  -5  153.08    5.61
   6   3  -5  158.34    5.71
   5  -3  -5  158.47    5.63
  -5  -3   5  152.10    5.69
   5  -3  -5  153.02    5.66
  -5   3   5  161.48    5.56
  -4  -3   5  230.82    8.33
   4  -3  -5  238.71    8.24
   4  -3  -5  232.54    8.31
   4   3  -5  245.57    8.12
  -4   3   5  223.41    8.25
   3  -3  -5  121.15    4.36
   3  -3  -5  122.61    4.24
  -3  -3   5  119.43    4.39
   3   3  -5  117.31    4.22
  -3   3   5  115.68    4.34
   2  -3  -5  141.48    4.91
  -2   3   5  140.91    5.06
   2   3  -5  140.24    4.99
   1  -3  -5   87.17    3.20
  -1  -3   5   84.45    3.21
   1   3  -5   85.94    3.11
  -1   3   5   85.55    3.17
   0  -3  -5   26.15    1.11
   0  -3   5   25.92    1.12
   0   3   5   24.11    1.08
   0   3  -5   23.68    1.03
   1  -3   5    6.51    0.43
  -1  -3  -5    5.63    0.41
   1   3   5    5.06    0.39
  -1   3  -5    5.70    0.37
   1   3   5    6.18    0.29
  -2  -3  -5   35.15    1.50
   2  -3   5   35.27    1.46
  -2   3  -5   37.25    1.46
   2   3   5   36.32    1.36
   2   3   5   34.06    1.47
  -3  -3  -5   42.67    1.71
   3  -3   5   44.17    1.66
   3   3   5   41.64    1.60
  -3   3  -5   34.60    1.63
   3   3   5   42.38    1.69
   4  -3   5   97.85    3.39
  -4  -3  -5   81.48    3.44
   4   3   5   93.05    3.39
   4   3   5   94.77    3.45
   5  -3   5  140.30    5.34
  -5  -3  -5  130.60    5.14
  -5   3  -5  146.29    5.13
   5   3   5  142.17    5.12
   5   3   5  141.08    5.10
  -6  -3  -5  175.77    6.56
   6  -3   5  179.66    6.78
   6   3   5  180.72    6.55
  -6   3  -5  183.00    6.55
   6   3   5  185.46    6.54
   7  -3   5  103.73    4.38
   7   3   5  110.65    4.20
  -7   3  -5  110.80    4.16
   7   3   5  116.55    4.16
   8  -3   5   42.44    2.05
  -8   3  -5   39.50    1.78
   8   3   5   42.63    1.82
   8   3   5   39.24    1.84
   9  -3   5   71.44    3.13
   9   3   5   68.83    2.90
  -9   3  -5   68.84    2.81
  10  -3   5   12.46    1.12
 -10   3  -5   13.88    0.87
  10   3   5   13.94    0.95
  11  -4  -5   27.26    1.64
  10  -4  -5   40.70    1.83
  10  -4  -5   41.23    1.99
  10   4  -5   39.24    1.94
  -9  -4   5   53.24    2.29
   9  -4  -5   52.93    2.27
   9  -4  -5   56.11    2.41
   9   4  -5   51.50    2.36
   8  -4  -5   35.79    1.66
   8  -4  -5   34.28    1.58
  -8  -4   5   32.89    1.59
   8   4  -5   34.26    1.66
   7  -4  -5   87.03    3.42
  -7  -4   5   88.89    3.46
   7  -4  -5   90.77    3.47
   7   4  -5   86.38    3.50
  -6  -4   5    5.36    0.49
   6  -4  -5    5.17    0.47
   6  -4  -5    4.74    0.44
   6   4  -5    7.02    0.56
   5  -4  -5    1.97    0.31
  -5  -4   5    1.52    0.28
   5  -4  -5    2.14    0.27
  -5   4   5    2.00    0.26
   5   4  -5    1.90    0.33
   4  -4  -5    9.63    0.61
   4  -4  -5    9.88    0.54
  -4  -4   5    9.06    0.63
   4   4  -5    9.58    0.66
  -4   4   5   10.86    0.60
   3  -4  -5   52.28    1.88
   3   4  -5   48.32    2.05
  -3   4   5   46.09    1.89
   3   4  -5   46.17    1.78
   2  -4  -5   39.24    1.73
  -2  -4   5   39.35    1.75
  -2   4   5   43.39    1.70
   2   4  -5   43.48    1.62
   2   4  -5   47.21    1.90
   1  -4  -5  341.63   11.83
  -1  -4   5  334.88   11.85
  -1   4   5  332.53   11.78
   1   4  -5  341.68   11.99
   1   4  -5  334.76   11.70
   0  -4   5  172.97    6.47
   0  -4  -5  173.84    6.26
   0  -4   5  169.65    6.27
   0   4   5  179.05    6.25
   0   4  -5  177.81    6.18
   1  -4   5  247.02    8.77
  -1  -4  -5  255.23    8.79
   1  -4   5  234.70    8.99
  -1   4  -5  248.67    8.72
   1   4   5  255.16    8.78
   2  -4   5  127.25    4.75
  -2  -4  -5  130.34    4.78
   2   4   5  129.76    4.70
  -2   4  -5  137.06    4.75
   3  -4   5  190.93    6.68
  -3  -4  -5  195.89    6.74
   3  -4   5  175.87    6.95
   3   4   5  189.83    6.74
  -3   4  -5  189.00    6.71
   3   4   5  183.89    6.58
   4  -4   5   37.76    1.82
  -4  -4  -5   37.52    1.60
   4   4   5   37.53    1.51
  -4   4  -5   37.75    1.59
   4   4   5   37.46    1.61
   5  -4   5   63.65    2.71
  -5  -4  -5   59.45    2.45
   5   4   5   62.07    2.46
   5   4   5   60.32    2.38
  -5   4  -5   63.21    2.46
   6  -4   5    1.43    0.36
   6   4   5    0.85    0.21
  -6   4  -5    0.69    0.21
   6   4   5    0.75    0.22
   7  -4   5    0.38    0.23
   7   4   5    0.44    0.25
   7   4   5    0.79    0.23
  -7   4  -5    0.33    0.18
   8  -4   5   23.00    1.45
  -8   4  -5   24.86    1.25
   8   4   5   27.29    1.26
   9  -4   5   25.75    1.54
  -9   4  -5   23.96    1.26
  10  -5  -5    1.10    0.30
  10   5  -5    0.45    0.28
  -9  -5   5    2.26    0.40
   9  -5  -5    2.65    0.42
   9   5  -5    2.05    0.41
  -8  -5   5   20.79    1.16
   8  -5  -5   20.86    1.13
   8   5  -5   20.10    1.17
  -7  -5   5   84.63    3.39
   7  -5  -5   83.85    3.35
   7   5  -5   85.75    3.42
   6  -5  -5   70.35    2.81
  -6  -5   5   70.10    2.83
   6   5  -5   67.12    2.84
   5  -5  -5  140.55    5.27
  -5  -5   5  140.86    5.32
   5   5  -5  145.35    5.36
   4  -5  -5   69.84    2.80
  -4  -5   5   66.93    2.83
  -4   5   5   73.21    2.70
   4   5  -5   73.51    2.90
  -3  -5   5  180.55    6.68
   3  -5  -5  184.87    6.65
  -3   5   5  183.56    6.55
   3   5  -5  185.65    6.76
  -2  -5   5  109.66    4.08
   2  -5  -5  110.29    4.04
   2   5  -5  108.23    4.17
  -2   5   5  107.12    3.95
   2   5  -5  104.22    3.85
   1  -5  -5   47.85    1.98
  -1  -5   5   48.52    2.01
  -1   5   5   48.23    1.94
   1   5  -5   49.53    2.14
   1   5  -5   49.39    1.86
   0  -5   5   39.38    1.88
   0  -5   5   38.87    1.70
   0  -5  -5   38.67    1.68
   0   5   5   42.01    1.68
   0   5  -5   43.64    1.62
   1  -5   5   20.12    1.18
   1  -5   5   20.93    0.99
  -1  -5  -5   20.59    0.98
   1   5   5   19.26    0.98
  -1   5  -5   20.94    0.93
   2  -5   5   38.26    1.86
  -2  -5  -5   38.11    1.60
   2  -5   5   36.02    1.58
   2   5   5   39.69    1.64
  -2   5  -5   39.21    1.58
   3  -5   5   43.14    1.75
  -3  -5  -5   46.87    1.81
   3  -5   5   44.74    2.09
  -3   5  -5   40.67    1.77
   3   5   5   42.28    1.82
   4  -5   5   76.78    3.31
  -4  -5  -5   79.69    3.01
  -4   5  -5   77.59    3.02
   4   5   5   80.38    3.07
   5  -5   5   86.77    3.62
  -5   5  -5   85.90    3.31
   5   5   5   85.92    3.34
   6  -5   5   86.75    3.70
   6   5   5   88.15    3.40
  -6   5  -5   87.44    3.38
   7  -5   5   99.02    4.10
  -7   5  -5   96.42    3.77
   7   5   5   98.15    3.78
   8  -5   5   48.08    2.37
  -8   5  -5   45.68    2.05
   8   5   5   48.28    2.06
   9  -5   5   23.20    1.51
  -9   5  -5   22.18    1.21
  10   6  -5   12.23    0.88
  -9  -6   5   57.95    2.56
   9  -6  -5   59.28    2.53
   9   6  -5   57.95    2.58
  -8  -6   5   23.60    1.29
   8  -6  -5   22.88    1.25
   8   6  -5   22.47    1.28
   7  -6  -5   23.50    1.25
  -7  -6   5   23.01    1.28
   7   6  -5   24.25    1.30
  -6  -6   5    2.73    0.43
   6  -6  -5    2.91    0.40
   6   6  -5    2.35    0.39
   5  -6  -5    6.10    0.54
  -5  -6   5    4.98    0.53
   5   6  -5    6.44    0.58
   4  -6  -5    9.41    0.64
  -4  -6   5    9.19    0.67
   4   6  -5    7.86    0.65
  -4   6   5    7.07    0.53
  -3  -6   5   33.31    1.59
   3  -6  -5   31.52    1.52
   3   6  -5   35.49    1.65
  -3   6   5   36.23    1.46
  -2  -6   5   56.03    2.33
   2  -6  -5   56.04    2.28
   2   6  -5   54.87    2.39
  -2   6   5   54.88    2.19
  -1  -6   5   99.38    3.84
   1  -6  -5   98.26    3.78
   1   6  -5  101.46    3.64
   1   6  -5  102.35    3.97
  -1   6   5   99.15    3.73
   0  -6  -5  166.53    5.93
   0  -6   5  165.42    5.98
   0  -6   5  163.99    6.20
   0   6  -5  159.18    5.81
   0   6   5  159.96    5.91
  -1  -6  -5  294.35   10.65
   1  -6   5  297.42   10.69
   1  -6   5  295.74   10.98
   1   6   5  309.26   10.69
  -1   6  -5  312.01   10.60
  -2  -6  -5   89.95    3.37
   2  -6   5   89.50    3.71
   2  -6   5   90.70    3.39
   2   6   5   87.39    3.41
  -2   6  -5   86.89    3.34
   3  -6   5   32.59    1.77
  -3  -6  -5   34.37    1.47
   3   6   5   35.37    1.55
  -3   6  -5   34.07    1.48
   4  -6   5   44.49    2.15
   4   6   5   41.15    1.84
  -4   6  -5   41.96    1.80
   5  -6   5   29.69    1.67
  -5   6  -5   29.58    1.39
   5   6   5   30.29    1.43
   6  -6   5    1.95    0.44
  -6   6  -5    1.38    0.28
   6   6   5    1.15    0.29
   7  -6   5    2.88    0.56
  -7   6  -5    2.69    0.40
   7   6   5    3.01    0.43
   8  -6   5    8.77    0.88
  -8   6  -5    9.50    0.71
   8   6   5    8.34    0.69
   9   6   5   12.07    0.84
   9   7  -5    5.56    0.81
   8  -7  -5   26.61    1.39
  -8  -7   5   26.53    1.42
   8   7  -5   23.17    1.36
  -7  -7   5   30.40    1.59
   7  -7  -5   29.91    1.54
   7   7  -5   31.42    1.57
  -6  -7   5   47.69    2.17
   6  -7  -5   45.60    2.10
   6   7  -5   48.33    2.15
   5  -7  -5   77.08    3.08
  -5  -7   5   72.46    3.11
   5   7  -5   76.46    3.12
  -4  -7   5   65.57    2.74
   4  -7  -5   66.03    2.68
   4   7  -5   62.51    2.72
  -3  -7   5   88.75    3.58
   3  -7  -5   88.54    3.51
   3   7  -5   93.15    3.62
  -3   7   5   88.73    3.38
   2  -7  -5   59.21    2.44
  -2  -7   5   57.65    2.49
   2   7  -5   60.54    2.57
  -2   7   5   58.96    2.35
   1  -7  -5   35.38    1.59
  -1  -7   5   35.22    1.64
  -1   7   5   34.96    1.54
   1   7  -5   36.29    1.75
   0  -7  -5    7.32    0.53
   0  -7   5    6.33    0.54
   0   7   5    6.30    0.51
   0   7  -5    6.55    0.44
   0   7  -5    5.84    0.62
   1  -7   5    0.34    0.25
  -1  -7  -5    0.22    0.15
   1  -7   5    0.44    0.18
  -1   7  -5    0.28    0.15
   1   7   5    0.57    0.20
   2  -7   5   34.41    1.52
   2  -7   5   33.91    1.81
  -2  -7  -5   35.05    1.50
   2   7   5   32.34    1.53
  -2   7  -5   32.87    1.46
   3  -7   5   63.55    2.94
  -3   7  -5   66.22    2.58
   3   7   5   64.59    2.65
   4  -7   5   24.15    1.52
   4   7   5   26.95    1.31
  -4   7  -5   25.61    1.24
   5  -7   5   52.93    2.48
  -5   7  -5   45.98    2.04
   5   7   5   46.51    2.09
   6  -7   5   55.06    2.73
   6   7   5   56.42    2.40
  -6   7  -5   56.96    2.37
   7  -7   5   78.07    3.48
  -7   7  -5   74.89    3.05
   7   7   5   72.94    3.06
   8   8  -5   25.39    1.49
   7  -8  -5    5.15    0.57
  -7  -8   5    4.95    0.59
   7   8  -5    4.24    0.55
  -6  -8   5    9.35    0.79
   6  -8  -5   10.27    0.78
   6   8  -5   10.20    0.80
  -5  -8   5    0.17    0.19
   5  -8  -5    0.19    0.20
   5   8  -5    0.23    0.20
   4  -8  -5    6.64    0.61
  -4  -8   5    6.82    0.65
   4   8  -5    8.50    0.70
   3  -8  -5    9.48    0.70
  -3  -8   5    8.74    0.72
   3   8  -5    8.99    0.74
   2  -8  -5   50.81    2.16
  -2  -8   5   48.42    2.21
  -2   8   5   49.31    2.06
   2   8  -5   50.25    2.27
  -1  -8   5   46.19    2.08
   1  -8  -5   46.46    2.01
   1   8  -5   46.59    2.17
  -1   8   5   45.83    1.96
   0  -8   5   94.04    3.78
   0  -8  -5   98.52    3.73
   0   8  -5   95.37    3.94
   0   8   5   97.79    3.72
  -1  -8  -5   83.16    3.24
   1  -8   5   86.73    3.32
   1   8   5   81.31    3.27
  -1   8  -5   81.11    3.16
   2  -8   5   68.08    3.09
  -2   8  -5   67.95    2.69
   2   8   5   68.85    2.80
   3  -8   5   65.16    3.03
   3   8   5   64.54    2.70
  -3   8  -5   65.67    2.62
   4  -8   5    5.83    0.73
  -4   8  -5    5.97    0.52
   4   8   5    5.79    0.56
   5  -8   5   14.47    1.15
   5   8   5   13.30    0.89
  -5   8  -5   13.05    0.84
   6  -8   5    5.12    0.72
   6   8   5    4.44    0.53
  -6   8  -5    4.95    0.52
   6   9  -5   21.17    1.24
   5  -9  -5   34.84    1.74
  -5  -9   5   36.96    1.84
   5   9  -5   34.92    1.76
  -4  -9   5   66.74    2.88
   4  -9  -5   64.61    2.79
   4   9  -5   66.79    2.84
   3  -9  -5   35.69    1.71
  -3  -9   5   35.43    1.78
   3   9  -5   35.69    1.77
  -2  -9   5    5.18    0.58
   2  -9  -5    4.96    0.53
   2   9  -5    6.56    0.64
  -1  -9   5   44.92    2.09
   1  -9  -5   44.70    2.01
   1   9  -5   46.79    2.17
  -1   9   5   45.62    1.97
   0  -9  -5    2.87    0.39
   0  -9   5    2.70    0.43
   0   9   5    2.06    0.37
   0   9  -5    1.84    0.41
   1   9   5    1.04    0.29
  -1   9  -5    1.02    0.35
   2  -9   5   11.47    0.99
   2   9   5   11.69    0.82
  -2   9  -5   11.41    0.73
   3  -9   5   13.93    1.13
  -3   9  -5   13.60    0.84
   3   9   5   13.78    0.91
   4  -9   5   18.00    1.37
   4   9   5   20.78    1.18
  -4   9  -5   20.23    1.09
   5  -9   5   44.48    2.39
  -5   9  -5   43.14    2.13
   3 -10  -5   19.59    1.16
   2 -10  -5   17.90    1.08
  -1  10   5   38.44    1.78
   0  10   5   23.86    1.27
  -1  10  -5   52.52    3.30
   1  10   5   56.68    2.41
   2  10   5   29.77    1.79
  -3  10  -5   34.46    1.77
  11   0  -6   36.75    1.86
  10   0  -6   34.75    1.73
   9   0  -6   66.31    2.79
   8   0  -6   94.75    3.71
   7   0  -6  201.53    7.19
  -7   0   6  205.77    7.23
   7   0  -6  201.46    7.36
   6   0  -6   57.02    2.20
  -6   0   6   59.18    2.25
   6   0  -6   56.06    2.32
   5   0  -6   50.83    2.09
  -5   0   6   54.17    2.06
   5   0  -6   50.22    1.99
   4   0  -6   13.06    0.73
   4   0  -6   14.40    0.68
  -4   0   6   14.23    0.73
   3   0  -6    1.20    0.20
  -3   0   6    1.80    0.24
   3   0  -6    1.08    0.21
   2   0  -6   39.29    1.59
   2   0  -6   39.87    1.57
  -2   0   6   37.63    1.61
   1   0  -6    1.09    0.19
   0   0   6   42.88    1.76
   0   0   6   42.64    1.74
   0   0  -6   42.46    1.71
   1   0   6  235.11    8.17
   1   0   6  224.08    8.16
  -2   0  -6  257.29    9.11
   2   0   6  259.69    9.14
   2   0   6  255.34    9.13
   3   0   6  202.85    7.32
   3   0   6  207.70    7.31
  -3   0  -6  200.31    7.28
  -4   0  -6  143.14    5.20
   4   0   6  141.70    5.26
   4   0   6  142.73    5.21
  -5   0  -6  122.80    4.57
   5   0   6  123.26    4.66
   5   0   6  124.65    4.57
   6   0   6  157.91    5.74
  -6   0  -6  155.13    5.76
   6   0   6  159.88    5.90
  -7   0  -6   37.20    1.67
   7   0   6   39.35    1.83
  -8   0  -6   18.96    1.01
   8   0   6   18.45    1.15
   9   0   6    3.96    0.56
  -9   0  -6    4.10    0.44
  10   0   6    0.15    0.24
  11  -1  -6   15.20    1.06
  11   1  -6   15.28    1.06
  10  -1  -6   13.59    0.93
  10   1  -6   12.39    0.92
   9  -1  -6    7.52    0.65
   9   1  -6    8.65    0.70
  -8  -1   6    0.93    0.22
   8  -1  -6    0.91    0.26
   8  -1  -6    0.78    0.20
   8   1  -6    1.39    0.32
   7  -1  -6   20.37    1.05
  -7  -1   6   19.46    0.97
   7  -1  -6   19.80    0.96
  -7   1   6   20.36    0.94
   7   1  -6   19.78    1.08
   6  -1  -6   85.35    3.30
  -6  -1   6   84.78    3.26
   6  -1  -6   85.87    3.23
   6   1  -6   84.41    3.14
  -6   1   6   91.78    3.23
   6   1  -6   85.75    3.35
  -5  -1   6  164.24    5.89
   5  -1  -6  161.72    5.89
   5  -1  -6  163.90    5.85
   5   1  -6  160.01    5.77
  -5   1   6  170.84    5.87
   5   1  -6  159.53    5.94
   4  -1  -6  104.26    4.04
   4  -1  -6  106.85    4.04
  -4  -1   6  110.79    4.10
   4   1  -6  114.86    4.15
  -4   1   6  114.86    4.07
   4   1  -6  114.37    3.99
   3  -1  -6  310.76   10.43
  -3  -1   6  309.84   10.47
   3  -1  -6  303.73   10.40
  -3   1   6  261.84   10.41
   3   1  -6  290.17   10.49
   3   1  -6  307.04   10.38
  -2  -1   6   99.21    3.77
   2  -1  -6  101.02    3.73
   2   1  -6  102.51    3.80
   2   1  -6  100.04    3.70
  -2   1   6  105.57    3.78
   1  -1  -6  277.34   10.63
   1  -1  -6  316.31   10.73
   1   1  -6  311.11   10.69
  -1   1   6  322.53   10.77
   1   1  -6  300.11   10.77
   0  -1   6  122.67    4.45
   0  -1   6  108.60    4.37
   0   1   6  122.31    4.32
   0   1  -6  124.49    4.36
   1  -1   6  137.02    5.21
   1  -1   6  144.43    5.28
  -1  -1  -6  149.84    5.22
   1   1   6  140.46    5.15
   1   1   6  142.62    5.21
  -1   1  -6  146.61    5.18
  -2  -1  -6   37.42    1.56
   2  -1   6   36.78    1.62
   2  -1   6   36.15    1.56
   2   1   6   36.73    1.54
   2   1   6   36.57    1.52
  -3  -1  -6    5.97    0.44
   3  -1   6    4.56    0.44
   3  -1   6    4.50    0.39
   3   1   6    4.80    0.40
   3   1   6    4.71    0.39
  -3   1  -6    3.90    0.35
  -4  -1  -6    9.41    0.61
   4  -1   6    9.93    0.59
   4  -1   6    9.49    0.67
   4   1   6    8.86    0.59
   4   1   6    9.25    0.58
  -4   1  -6    9.42    0.58
  -5  -1  -6   57.75    2.49
   5  -1   6   61.58    2.46
   5  -1   6   55.76    2.56
   5   1   6   66.49    2.47
   5   1   6   68.46    2.57
  -5   1  -6   66.82    2.50
  -6  -1  -6   44.66    1.75
   6  -1   6   44.01    1.88
  -6   1  -6   35.34    1.65
   6   1   6   36.59    1.74
   6   1   6   35.88    1.63
  -7  -1  -6  113.06    4.24
   7  -1   6  112.64    4.42
  -7   1  -6  110.54    4.21
   7   1   6  110.51    4.32
   8  -1   6   94.31    3.92
  -8  -1  -6   94.12    3.71
  -8   1  -6   96.41    3.71
   8   1   6   98.47    3.85
   9  -1   6   95.55    3.95
   9   1   6   95.69    3.85
  -9   1  -6   92.15    3.67
  10  -1   6   42.67    2.17
  10   1   6   41.95    2.09
 -10   1  -6   43.17    2.33
  11  -2  -6   23.63    1.39
  11   2  -6   24.18    1.39
  10  -2  -6   23.87    1.31
  10   2  -6   20.86    1.26
   9  -2  -6   77.19    3.03
   9  -2  -6   79.43    3.20
   9   2  -6   76.85    3.20
  -8  -2   6   90.13    3.48
   8  -2  -6   90.65    3.56
   8  -2  -6   87.45    3.44
   8   2  -6   93.34    3.61
   7  -2  -6  112.68    4.14
  -7  -2   6  110.22    4.16
   7  -2  -6  112.21    4.20
   7   2  -6  108.42    4.25
   6  -2  -6  104.13    3.90
   6  -2  -6   99.44    3.86
  -6  -2   6  100.97    3.89
  -6   2   6  109.71    3.81
   6   2  -6  105.22    3.99
  -5  -2   6   77.60    3.09
   5  -2  -6   80.43    3.06
   5  -2  -6   80.93    3.08
  -5   2   6   83.69    3.04
   5   2  -6   82.72    2.93
   5   2  -6   81.56    3.18
  -4  -2   6    4.95    0.42
   4  -2  -6    4.40    0.35
   4  -2  -6    4.57    0.39
   4   2  -6    6.54    0.50
  -4   2   6    5.84    0.41
   4   2  -6    6.40    0.35
  -3  -2   6   11.49    0.65
   3  -2  -6   12.61    0.64
   3   2  -6   10.11    0.53
   3   2  -6   10.02    0.65
  -3   2   6   10.03    0.61
  -2  -2   6    1.53    0.24
   2  -2  -6    2.22    0.27
   2  -2  -6    2.01    0.19
   2   2  -6    2.52    0.24
  -2   2   6    2.73    0.32
   2   2  -6    2.58    0.32
  -1  -2   6   82.16    3.02
   1  -2  -6   80.69    2.83
   1   2  -6   75.23    2.92
  -1   2   6   76.97    2.99
   0  -2   6  117.59    4.34
   0  -2  -6  117.38    4.32
   0  -2   6  117.02    4.44
   0   2  -6  118.57    4.27
   0   2   6  117.71    4.31
   1  -2   6  119.45    4.56
  -1  -2  -6  113.55    4.55
   1  -2   6  129.70    4.71
   1   2   6  119.74    4.53
  -1   2  -6  134.71    4.53
   1   2   6  129.83    4.46
   2  -2   6  192.40    6.75
   2  -2   6  169.22    6.58
  -2  -2  -6  180.48    6.61
   2   2   6  189.07    6.58
   2   2   6  184.24    6.50
  -2   2  -6  186.12    6.55
   3  -2   6  206.88    8.59
   3  -2   6  252.95    8.79
  -3  -2  -6  250.04    8.66
   3   2   6  252.83    8.61
   3   2   6  250.86    8.57
   4  -2   6  126.33    4.93
  -4  -2  -6  133.18    4.82
   4   2   6  126.58    4.75
  -4   2  -6  133.57    4.77
   4   2   6  130.62    4.76
   5  -2   6  112.54    4.81
   5  -2   6  134.94    5.07
  -5  -2  -6  141.07    4.93
   5   2   6  134.53    4.86
  -5   2  -6  135.92    4.88
   5   2   6  135.32    4.89
  -6  -2  -6   54.73    2.18
   6  -2   6   52.41    2.33
  -6   2  -6   50.72    2.13
   6   2   6   49.94    2.16
   6   2   6   51.99    2.11
   7  -2   6   75.76    3.17
  -7  -2  -6   80.21    2.99
   7   2   6   74.46    2.91
  -7   2  -6   70.99    2.93
   7   2   6   72.18    3.01
   8  -2   6   11.85    0.94
   8   2   6   13.81    0.90
  -8   2  -6   13.77    0.82
   9  -2   6    1.05    0.34
  -9   2  -6    2.08    0.34
   9   2   6    1.29    0.34
  10  -2   6    4.06    0.84
  10   2   6    4.14    0.56
 -10   2  -6    4.28    0.48
  11  -3  -6   12.58    0.96
  11   3  -6   12.01    1.18
  10  -3  -6   17.28    1.11
  10  -3  -6   17.24    0.98
  10   3  -6   18.03    1.13
  -9  -3   6    2.89    0.41
   9  -3  -6    2.81    0.39
   9  -3  -6    3.32    0.45
   9   3  -6    2.64    0.45
  -8  -3   6    2.03    0.34
   8  -3  -6    2.02    0.36
   8  -3  -6    1.86    0.33
   8   3  -6    2.11    0.39
   7  -3  -6   30.12    1.42
   7  -3  -6   30.11    1.40
  -7  -3   6   28.92    1.41
   7   3  -6   32.68    1.53
   6  -3  -6   10.78    0.65
  -6  -3   6   10.16    0.66
   6  -3  -6    9.57    0.64
   6   3  -6    9.82    0.70
   5  -3  -6  150.23    5.38
  -5  -3   6  143.01    5.46
   5  -3  -6  144.23    5.44
   5   3  -6  158.31    5.57
  -5   3   6  149.35    5.36
  -4  -3   6  108.36    4.17
   4  -3  -6  114.68    4.05
   4  -3  -6  106.76    4.14
  -4   3   6  113.83    4.12
   4   3  -6  114.68    3.97
   3  -3  -6  232.29    7.85
   3  -3  -6  229.49    8.01
   3   3  -6  222.18    7.86
  -3   3   6  214.21    7.99
   2  -3  -6  225.91    7.68
   2   3  -6  218.65    7.79
  -2   3   6  219.95    7.88
   1  -3  -6  231.66    8.10
  -1  -3   6  235.02    8.13
   1   3  -6  222.08    8.00
  -1   3   6  221.56    8.06
   0  -3  -6   97.28    3.53
   0  -3   6  101.86    3.56
   0  -3   6   88.15    3.64
   0   3   6   90.97    3.47
   0   3  -6   89.01    3.42
   1  -3   6  128.04    4.57
  -1  -3  -6  120.77    4.56
   1  -3   6  108.87    4.68
  -1   3  -6  129.17    4.49
   1   3   6  131.26    4.36
   2  -3   6    7.98    0.65
  -2  -3  -6    8.85    0.58
   2  -3   6   10.07    0.57
  -2   3  -6    8.71    0.52
   2   3   6    6.96    0.50
   2   3   6    8.55    0.45
   3  -3   6    6.39    0.58
   3  -3   6    7.48    0.48
  -3  -3  -6    6.33    0.49
   3   3   6    6.88    0.42
  -3   3  -6    6.00    0.45
   3   3   6    5.82    0.47
   4  -3   6    2.04    0.36
   4  -3   6    2.86    0.29
  -4  -3  -6    2.72    0.33
  -4   3  -6    1.99    0.28
   4   3   6    2.38    0.28
   4   3   6    2.12    0.31
   5  -3   6   17.27    1.08
  -5  -3  -6   17.52    0.96
   5   3   6   18.14    0.91
   5   3   6   18.36    0.95
  -5   3  -6   18.70    0.94
   6  -3   6   61.45    2.80
  -6  -3  -6   66.93    2.65
   6   3   6   65.89    2.59
  -6   3  -6   63.69    2.59
   6   3   6   66.18    2.60
   7  -3   6   44.39    2.17
   7   3   6   44.46    1.96
   7   3   6   47.10    1.94
  -7   3  -6   45.33    1.95
   8  -3   6   65.12    2.86
   8   3   6   60.46    2.60
  -8   3  -6   61.46    2.56
   9  -3   6   55.64    2.64
  -9   3  -6   54.77    2.34
 -10   3  -6   69.32    2.91
  10  -4  -6   33.62    1.63
  10   4  -6   35.50    1.77
  -9  -4   6   53.18    2.30
   9  -4  -6   52.40    2.27
   9   4  -6   53.29    2.39
  -8  -4   6   52.93    2.28
   8  -4  -6   52.89    2.25
   8   4  -6   53.28    2.35
   7  -4  -6  123.91    4.61
  -7  -4   6  120.97    4.63
   7   4  -6  120.59    4.69
   6  -4  -6   39.45    1.79
  -6  -4   6   39.21    1.82
   6   4  -6   46.34    1.93
  -5  -4   6   60.17    2.45
   5  -4  -6   62.05    2.43
   5   4  -6   58.72    2.50
  -5   4   6   57.63    2.31
   4  -4  -6   28.12    1.30
  -4  -4   6   27.48    1.32
   4   4  -6   28.86    1.39
  -4   4   6   27.65    1.26
  -3   4   6   16.59    0.84
   3   4  -6   15.67    0.72
  -2  -4   6   12.38    0.74
  -2   4   6   12.97    0.70
   2   4  -6   12.02    0.61
  -1  -4   6   57.05    2.28
   1  -4  -6   56.69    2.25
   1   4  -6   56.93    2.14
  -1   4   6   54.49    2.20
   0  -4  -6   70.98    2.72
   0  -4   6   69.82    2.72
   0   4  -6   68.77    2.61
   0   4   6   68.40    2.67
  -1  -4  -6  119.87    4.22
   1  -4   6  122.26    4.23
  -1   4  -6  113.86    4.12
   1   4   6   95.91    4.13
   2  -4   6  127.92    4.70
  -2  -4  -6  130.97    4.74
  -2   4  -6  125.01    4.65
  -3  -4  -6  141.47    5.50
   3  -4   6  148.45    5.45
   3  -4   6  151.54    5.76
   3   4   6  158.15    5.51
  -3   4  -6  152.08    5.46
  -4  -4  -6  145.98    5.69
   4  -4   6  163.30    5.96
  -4   4  -6  152.93    5.65
   4   4   6  158.77    5.69
  -5  -4  -6   74.27    3.37
   5  -4   6   89.36    3.67
  -5   4  -6   94.43    3.41
   5   4   6   94.60    3.42
   6  -4   6   56.43    2.57
  -6   4  -6   54.75    2.30
   6   4   6   56.38    2.31
   7  -4   6   19.74    1.31
  -7   4  -6   22.63    1.15
   7   4   6   22.92    1.15
   8  -4   6   11.33    0.95
  -8   4  -6   10.59    0.74
   8   4   6   11.22    0.76
   9  -4   6    8.10    0.85
  -9   4  -6    8.16    0.66
 -10  -5   6    4.95    0.57
  10  -5  -6    4.94    0.55
  10   5  -6    6.77    0.73
  -9  -5   6    4.50    0.54
   9  -5  -6    4.87    0.53
   9   5  -6    4.33    0.58
   8  -5  -6    5.86    0.56
  -8  -5   6    5.43    0.57
   8   5  -6    5.64    0.59
   7  -5  -6   13.79    0.87
  -7  -5   6   13.30    0.88
   7   5  -6   13.36    0.91
   6  -5  -6   27.26    1.36
  -6  -5   6   28.08    1.39
   6   5  -6   27.29    1.42
   5  -5  -6   46.12    2.00
  -5  -5   6   45.61    2.03
   5   5  -6   47.32    2.08
  -4  -5   6  101.43    4.07
   4  -5  -6  104.35    4.03
   4   5  -6  109.34    4.15
  -4   5   6  109.20    3.97
  -3  -5   6  176.28    6.44
   3  -5  -6  179.34    6.40
  -3   5   6  169.64    6.30
   3   5  -6  176.04    6.52
   2  -5  -6  117.05    4.18
  -2  -5   6  116.61    4.22
   2   5  -6  107.94    3.98
   2   5  -6  104.19    4.28
  -2   5   6  107.85    4.09
   1  -5  -6  146.86    5.20
  -1  -5   6  145.61    5.23
   1   5  -6  138.44    5.04
  -1   5   6  136.42    5.13
   1   5  -6  137.46    5.35
   0  -5   6   98.96    4.14
   0  -5   6  101.18    3.95
   0  -5  -6  100.86    3.93
   0   5   6  111.31    3.93
   0   5  -6  110.86    3.84
   1  -5   6   42.34    1.77
  -1  -5  -6   45.15    1.78
   1  -5   6   44.68    2.02
  -1   5  -6   38.34    1.66
   1   5   6   36.58    1.71
  -2  -5  -6   23.06    1.12
   2  -5   6   21.78    1.32
   2  -5   6   22.88    1.10
   2   5   6   23.55    1.13
  -2   5  -6   24.11    1.08
   3  -5   6   10.50    0.84
  -3  -5  -6   10.10    0.64
   3  -5   6    9.64    0.60
  -3   5  -6    9.61    0.61
   3   5   6   10.31    0.66
  -4  -5  -6    0.78    0.22
   4  -5   6    0.68    0.28
  -4   5  -6    0.24    0.16
   4   5   6    0.47    0.20
   5  -5   6   41.40    2.05
   5   5   6   40.58    1.79
  -5   5  -6   39.86    1.75
   6  -5   6   30.29    1.70
   6   5   6   31.51    1.46
  -6   5  -6   30.31    1.44
   7  -5   6   41.34    2.13
   7   5   6   39.51    1.81
  -7   5  -6   41.08    1.82
   8  -5   6   51.02    2.58
  -8   5  -6   52.61    2.27
   8   5   6   54.25    2.27
 -10  -6   6   29.01    1.71
   9  -6  -6   99.87    3.97
  -9  -6   6   97.96    3.99
   9   6  -6   99.72    4.05
   8  -6  -6   23.87    1.31
  -8  -6   6   24.67    1.36
   8   6  -6   25.37    1.40
  -7  -6   6   38.86    1.86
   7  -6  -6   38.87    1.82
   7   6  -6   39.02    1.88
  -6  -6   6   32.71    1.63
   6  -6  -6   33.67    1.60
   6   6  -6   32.18    1.64
   5  -6  -6   54.95    2.35
  -5  -6   6   53.54    2.39
   5   6  -6   57.76    2.44
  -4  -6   6   18.09    1.05
   4  -6  -6   18.37    1.01
   4   6  -6   17.76    1.06
  -4   6   6   17.36    0.91
   3  -6  -6    8.31    0.60
  -3  -6   6    7.88    0.62
   3   6  -6    7.13    0.64
  -3   6   6    7.02    0.52
  -2  -6   6    1.34    0.28
   2  -6  -6    1.58    0.29
   2   6  -6    1.58    0.33
  -2   6   6    1.13    0.23
   1  -6  -6   16.65    0.91
  -1  -6   6   16.39    0.94
  -1   6   6   16.85    0.88
   1   6  -6   16.79    1.04
   1   6  -6   16.53    0.79
   0  -6   6   29.73    1.37
   0  -6   6   29.24    1.56
   0  -6  -6   28.39    1.33
   0   6   6   27.39    1.30
   0   6  -6   26.82    1.21
   1  -6   6   99.80    4.10
   1  -6   6   99.72    3.82
  -1  -6  -6  100.47    3.81
  -1   6  -6  100.76    3.72
   1   6   6   99.45    3.80
   2  -6   6   40.45    1.97
  -2  -6  -6   37.78    1.65
   2  -6   6   36.80    1.64
   2   6   6   38.04    1.67
  -2   6  -6   36.55    1.60
   3  -6   6  130.00    5.17
  -3  -6  -6  133.02    4.81
  -3   6  -6  128.19    4.78
   3   6   6  126.16    4.83
   4  -6   6   90.40    3.86
   4   6   6   92.02    3.55
  -4   6  -6   90.24    3.49
   5  -6   6   87.27    3.71
  -5   6  -6   84.99    3.32
   5   6   6   82.66    3.34
   6  -6   6   58.15    2.75
  -6   6  -6   56.86    2.39
   6   6   6   57.33    2.42
   7   6   6    9.23    0.71
  -7   6  -6    8.97    0.69
   8   6   6   10.27    0.77
  -8  -7   6    3.98    0.56
   8  -7  -6    4.45    0.56
   8   7  -6    3.91    0.55
  -7  -7   6    3.46    0.49
   7  -7  -6    3.36    0.49
   7   7  -6    2.16    0.42
  -6  -7   6   13.16    0.93
   6  -7  -6   13.31    0.89
   6   7  -6   14.72    0.98
   5  -7  -6   55.54    2.39
  -5  -7   6   53.94    2.43
   5   7  -6   55.30    2.44
  -4  -7   6   58.20    2.50
   4  -7  -6   57.88    2.44
   4   7  -6   55.61    2.50
  -3  -7   6   82.22    3.38
   3  -7  -6   82.71    3.32
  -3   7   6   84.94    3.21
   3   7  -6   83.56    3.44
  -2  -7   6   62.43    2.66
   2  -7  -6   61.41    2.60
  -2   7   6   64.89    2.53
   2   7  -6   64.11    2.76
  -1  -7   6   94.54    3.71
   1  -7  -6   94.78    3.65
   1   7  -6   92.59    3.83
  -1   7   6   93.80    3.59
   0  -7   6   18.27    1.02
   0  -7  -6   19.12    0.99
   0   7  -6   16.91    1.13
   0   7  -6   16.69    0.85
   0   7   6   17.36    0.95
   1  -7   6   61.81    2.50
   1  -7   6   59.63    2.74
  -1  -7  -6   59.88    2.45
  -1   7  -6   59.44    2.36
   1   7   6   58.15    2.44
  -2  -7  -6   10.55    0.68
   2  -7   6    9.79    0.88
   2  -7   6   10.05    0.69
   2   7   6   10.66    0.72
  -2   7  -6   10.67    0.66
   3  -7   6    9.39    0.86
   3   7   6    8.27    0.64
  -3   7  -6    7.70    0.58
   4  -7   6    4.70    0.65
  -4   7  -6    4.63    0.45
   4   7   6    3.95    0.48
   5  -7   6    4.63    0.65
  -5   7  -6    3.41    0.42
   5   7   6    3.18    0.45
   6  -7   6   29.49    1.74
  -6   7  -6   25.50    1.35
   6   7   6   27.64    1.40
   7  -7   6   49.07    2.67
   7   7   6   48.09    2.16
  -7  -8   6   21.66    1.60
   7   8  -6   21.14    1.28
  -6  -8   6   41.97    2.05
   6  -8  -6   42.03    1.99
   6   8  -6   42.93    2.04
   5  -8  -6   18.96    1.12
  -5  -8   6   18.56    1.16
   5   8  -6   18.51    1.16
  -4  -8   6   11.06    0.86
   4  -8  -6   10.68    0.80
   4   8  -6   11.81    0.87
  -3  -8   6    1.64    0.38
   3  -8  -6    1.49    0.33
   3   8  -6    1.16    0.34
   2  -8  -6    4.03    0.46
  -2  -8   6    4.53    0.52
  -2   8   6    4.10    0.43
   2   8  -6    4.17    0.54
  -1  -8   6   27.51    1.46
   1  -8  -6   27.60    1.40
   1   8  -6   29.36    1.58
  -1   8   6   29.56    1.37
   0  -8   6   23.00    1.21
   0  -8  -6   23.07    1.15
   0   8  -6   18.74    1.25
   0   8   6   20.07    1.10
  -1  -8  -6   40.02    1.83
   1  -8   6   40.13    1.88
  -1   8  -6   42.82    1.76
   1   8   6   43.40    1.87
   2  -8   6   56.64    2.78
   2   8   6   59.96    2.50
  -2   8  -6   60.81    2.41
   3  -8   6   57.49    2.67
   3   8   6   50.52    2.27
  -3   8  -6   51.39    2.20
   4  -8   6   48.18    2.42
   4   8   6   44.14    2.04
  -4   8  -6   44.88    1.98
   5  -8   6   57.06    2.88
  -5   8  -6   59.55    2.47
   5   8   6   58.56    2.52
   6  -8   6   19.13    1.80
   6   9  -6    8.12    0.76
   5  -9  -6   17.65    1.21
   5   9  -6   14.86    1.05
   4  -9  -6   58.05    2.53
  -4  -9   6   56.26    2.59
   4   9  -6   58.54    2.61
  -3  -9   6   50.31    2.31
   3  -9  -6   47.99    2.22
   3   9  -6   49.87    2.32
  -2  -9   6   39.57    1.97
   2  -9  -6   40.20    1.90
  -2   9   6   41.33    2.06
   2   9  -6   43.65    2.07
  -1  -9   6   32.19    1.61
   1  -9  -6   30.52    1.52
  -1   9   6   29.63    1.46
   1   9  -6   30.55    1.67
   0  -9   6   58.00    2.49
   0  -9  -6   57.42    2.41
   0   9   6   55.32    2.39
   0   9  -6   55.16    2.61
   1   9   6   14.36    0.92
  -1   9  -6   14.52    1.09
   2  -9   6    4.24    0.71
  -2   9  -6    3.24    0.40
   2   9   6    2.86    0.46
   3  -9   6    1.42    0.46
   3   9   6    1.74    0.38
  -3   9  -6    1.84    0.33
   4  -9   6    0.03    0.24
  -4   9  -6    0.33    0.21
   4  10  -6    4.63    0.67
   3  10  -6    1.61    0.40
   2 -10  -6    0.73    0.27
  -2 -10   6    1.08    0.39
   2  10  -6    1.04    0.35
  -1 -10   6    5.63    0.62
   1 -10  -6    5.79    0.72
   1  10  -6    5.73    0.67
  -1  10   6    5.28    0.56
   0  10   6   21.05    1.19
   0  10  -6   21.36    1.36
  -1  10  -6   27.25    1.61
   1  10   6   27.57    1.64
  -2  10  -6   26.80    1.63
  11   0  -7    1.56    0.40
  10   0  -7    3.75    0.53
   9   0  -7   48.17    2.17
   8   0  -7   25.77    1.33
   7   0  -7   95.63    3.54
  -7   0   7   95.52    3.59
   7   0  -7   95.13    3.71
  -6   0   7   62.67    2.44
   6   0  -7   62.20    2.38
   6   0  -7   60.17    2.49
   5   0  -7  251.29    8.76
  -5   0   7  251.99    8.82
   5   0  -7  241.59    8.85
  -4   0   7  157.02    5.76
   4   0  -7  162.27    5.71
   4   0  -7  157.44    5.77
   3   0  -7  162.16    5.80
   3   0  -7  163.63    5.75
  -3   0   7  154.21    5.80
  -2   0   7   44.78    1.90
   2   0  -7   46.39    1.88
   2   0  -7   47.37    1.87
   1   0  -7   32.99    1.41
  -1   0   7   31.17    1.43
   1   0  -7   33.86    1.41
   0   0  -7    8.90    0.57
   0   0   7    9.06    0.59
   0   0   7   10.37    0.62
   1   0   7   33.73    1.48
   2   0   7   51.74    2.18
   2   0   7   55.24    2.18
   3   0   7  292.31   10.31
  -3   0  -7  283.82   10.26
   3   0   7  291.88   10.27
   4   0   7    5.43    0.49
   4   0   7    4.80    0.44
  -4   0  -7    5.37    0.45
   5   0   7  282.33    9.90
  -5   0  -7  273.33    9.91
   5   0   7  278.63   10.00
   6   0   7  115.39    4.51
  -6   0  -7  114.48    4.40
   6   0   7  119.75    4.38
  -7   0  -7  107.57    4.14
   7   0   7  108.92    4.29
  -8   0  -7   63.37    2.61
   8   0   7   62.36    2.76
   9   0   7   12.77    0.98
  -9   0  -7   13.07    0.84
  10   0   7   14.95    1.18
  11  -1  -7   28.91    1.57
  11   1  -7   26.85    1.54
  10  -1  -7   45.11    2.18
  10   1  -7   51.20    2.26
   9  -1  -7   27.12    1.39
   9   1  -7   24.77    1.37
   8  -1  -7   34.69    1.61
   8  -1  -7   33.48    1.47
  -8  -1   7   33.42    1.51
   8   1  -7   33.40    1.63
   7  -1  -7    2.55    0.31
  -7  -1   7    2.73    0.35
   7  -1  -7    2.54    0.37
  -7   1   7    2.83    0.32
   7   1  -7    3.00    0.42
  -6  -1   7   12.82    0.75
   6  -1  -7   13.43    0.77
   6  -1  -7   13.04    0.72
   6   1  -7   12.70    0.65
  -6   1   7   13.46    0.72
   6   1  -7   12.45    0.80
   5  -1  -7    9.90    0.60
   5  -1  -7    9.61    0.62
  -5  -1   7    9.41    0.63
   5   1  -7   10.73    0.69
  -5   1   7   12.18    0.65
   5   1  -7   10.84    0.57
   4  -1  -7   29.47    1.26
   4  -1  -7   30.77    1.27
  -4  -1   7   30.58    1.32
   4   1  -7   26.87    1.19
   4   1  -7   27.09    1.31
  -4   1   7   26.73    1.27
   3  -1  -7  110.21    3.94
   3  -1  -7  109.05    3.91
  -3  -1   7  118.04    4.04
  -3   1   7   97.30    3.94
   3   1  -7  101.25    3.99
   3   1  -7  102.49    3.88
   2  -1  -7  156.72    5.58
  -2  -1   7  154.57    5.62
   2  -1  -7  155.84    5.52
  -2   1   7  155.04    5.61
   2   1  -7  153.70    5.53
   2   1  -7  148.99    5.62
   1  -1  -7  247.11    9.77
   1  -1  -7  284.08    9.88
   1   1  -7  278.60    9.92
   1   1  -7  285.27    9.84
  -1   1   7  302.35    9.93
   0  -1  -7  167.05    6.70
   0  -1   7  187.75    6.78
   0  -1   7  200.65    6.83
   0   1  -7  196.00    6.72
   0   1   7  185.41    6.67
   1  -1   7  335.40   11.94
   1  -1   7  329.09   11.88
  -1   1  -7  344.60   11.85
   1   1   7  338.02   11.89
   1   1   7  337.38   11.82
   2  -1   7  130.31    4.77
  -2  -1  -7  131.93    4.69
   2  -1   7  129.32    4.69
   2   1   7  121.76    4.67
   2   1   7  119.55    4.63
  -3  -1  -7  132.80    5.00
   3  -1   7  137.30    5.01
   3  -1   7  132.10    5.09
   3   1   7  138.23    5.01
   3   1   7  138.47    5.00
   4  -1   7   22.97    1.20
  -4  -1  -7   24.14    1.13
  -4   1  -7   22.12    1.09
   4   1   7   21.19    1.08
   4   1   7   22.38    1.12
   5  -1   7   15.62    0.83
  -5  -1  -7   14.63    0.86
   5  -1   7   14.58    0.94
  -5   1  -7   15.89    0.86
   5   1   7   14.58    0.83
   5   1   7   16.39    0.91
   6  -1   7    0.93    0.28
  -6  -1  -7    1.00    0.24
   6   1   7    1.12    0.27
   6   1   7    1.14    0.25
  -6   1  -7    0.92    0.23
  -7  -1  -7   10.22    0.70
   7  -1   7    9.86    0.80
  -7   1  -7    9.70    0.68
   7   1   7    9.87    0.76
   8  -1   7   42.44    2.08
  -8  -1  -7   43.15    1.91
   8   1   7   43.54    2.02
  -8   1  -7   40.61    1.87
   9  -1   7   35.15    1.89
  -9   1  -7   36.22    1.70
   9   1   7   37.55    1.86
  10   1   7   42.90    2.14
 -10   1  -7   43.51    2.28
  11  -2  -7    2.57    0.50
  11   2  -7    2.37    0.51
  10  -2  -7    8.94    0.76
  10   2  -7    8.03    0.75
   9  -2  -7   20.43    1.06
   9  -2  -7   19.14    1.15
   9   2  -7   21.49    1.22
   8  -2  -7   58.95    2.47
   8  -2  -7   57.79    2.37
  -8  -2   7   57.48    2.40
   8   2  -7   58.95    2.53
   7  -2  -7   75.81    3.04
   7  -2  -7   81.39    3.12
  -7  -2   7   76.59    3.08
   7   2  -7   80.59    3.20
   6  -2  -7   82.89    3.23
   6  -2  -7   86.26    3.25
  -6  -2   7   85.46    3.28
   6   2  -7   81.99    3.33
  -6   2   7   85.05    3.18
  -5  -2   7   85.12    3.35
   5  -2  -7   88.49    3.29
   5  -2  -7   85.87    3.31
  -5   2   7   88.85    3.29
   5   2  -7   85.73    3.41
   5   2  -7   88.85    3.18
  -4  -2   7  231.64    8.06
   4  -2  -7  230.10    8.01
   4  -2  -7  239.58    7.95
   4   2  -7  212.69    8.08
  -4   2   7  212.51    7.97
   4   2  -7  219.31    7.88
   3  -2  -7  110.31    4.24
  -3  -2   7  114.40    4.31
   3  -2  -7  110.95    4.14
   3   2  -7  117.54    4.35
   3   2  -7  115.20    4.16
  -3   2   7  121.04    4.28
   2  -2  -7   88.96    3.26
   2   2  -7   85.28    3.17
  -2   2   7   85.74    3.27
   2   2  -7   82.17    3.32
  -1  -2   7   27.60    1.28
   1  -2  -7   27.20    1.09
   1   2  -7   25.50    1.28
   1   2  -7   27.12    1.17
  -1   2   7   26.11    1.24
   0  -2  -7    7.49    0.42
   0  -2   7    7.45    0.60
   0  -2   7    6.96    0.53
   0   2  -7    7.82    0.50
   1  -2   7   30.18    1.48
  -1  -2  -7   34.06    1.50
   1  -2   7   34.42    1.61
   1   2   7   36.10    1.40
  -1   2  -7   35.75    1.46
   2  -2   7   29.74    1.41
  -2  -2  -7   31.44    1.31
   2  -2   7   25.25    1.26
  -2   2  -7   26.15    1.21
   2   2   7   26.57    1.18
   2   2   7   25.84    1.24
   3  -2   7   99.30    4.15
  -3  -2  -7  120.92    4.22
   3  -2   7  116.09    4.33
  -3   2  -7   93.96    4.09
   3   2   7  116.00    4.17
   3   2   7  121.23    4.13
   4  -2   7  138.92    5.49
   4  -2   7  151.77    5.68
  -4  -2  -7  159.01    5.55
   4   2   7  151.30    5.47
  -4   2  -7  151.46    5.49
   4   2   7  147.05    5.49
   5  -2   7  144.07    5.72
   5  -2   7  141.67    5.83
  -5  -2  -7  155.56    5.59
   5   2   7  156.24    5.56
  -5   2  -7  151.93    5.55
   5   2   7  155.99    5.57
   6  -2   7  110.46    4.45
  -6  -2  -7  113.48    4.26
   6   2   7  111.74    4.28
   6   2   7  115.05    4.23
  -6   2  -7  108.98    4.23
   7  -2   7  110.39    4.53
  -7  -2  -7  118.28    4.32
   7   2   7  112.17    4.36
   7   2   7  111.24    4.26
  -7   2  -7  111.75    4.29
   8  -2   7   48.56    2.35
   8   2   7   48.28    2.19
  -8   2  -7   48.64    2.11
   9  -2   7   20.43    1.32
  -9   2  -7   18.24    1.08
   9   2   7   19.16    1.18
 -10   2  -7    7.96    0.97
  10  -3  -7   27.42    1.68
  10   3  -7   25.94    1.46
   9  -3  -7   43.60    2.00
  -9  -3   7   41.43    1.90
   9  -3  -7   42.94    1.88
   9   3  -7   41.70    2.01
   8  -3  -7   16.90    0.98
  -8  -3   7   17.24    1.01
   8  -3  -7   18.41    1.04
   8   3  -7   18.96    1.11
   7  -3  -7    4.41    0.44
   7  -3  -7    3.48    0.41
  -7  -3   7    3.76    0.43
   7   3  -7    3.03    0.44
  -6  -3   7    6.53    0.54
   6  -3  -7    6.17    0.51
   6  -3  -7    7.02    0.51
   6   3  -7    7.12    0.60
  -6   3   7    5.58    0.52
   5  -3  -7    5.72    0.48
  -5  -3   7    5.93    0.51
   5  -3  -7    6.11    0.44
  -5   3   7    5.55    0.43
   5   3  -7    5.07    0.53
  -4  -3   7    3.44    0.40
   4  -3  -7    3.54    0.37
   4   3  -7    5.43    0.34
  -4   3   7    5.16    0.43
   4   3  -7    5.36    0.50
   3  -3  -7  164.07    5.72
  -3  -3   7  151.41    5.74
   3   3  -7  155.88    5.82
  -3   3   7  153.91    5.70
   3   3  -7  156.09    5.57
  -2   3   7   89.83    3.41
   2   3  -7   87.38    3.50
   2   3  -7   90.01    3.29
  -1  -3   7  139.41    4.95
   1   3  -7  131.50    4.80
   1   3  -7  130.69    5.00
  -1   3   7  128.59    4.87
   0  -3  -7  235.28    8.49
   0  -3   7  241.35    8.53
   0  -3   7  227.68    8.63
   0   3   7  240.35    8.46
   0   3  -7  242.74    8.41
   1  -3   7  252.58    9.17
  -1  -3  -7  249.80    9.02
   1  -3   7  258.79    9.03
  -1   3  -7  247.87    8.92
   2  -3   7  157.66    5.80
  -2  -3  -7  144.22    5.78
   2  -3   7  156.69    5.96
  -2   3  -7  162.74    5.72
   2   3   7  168.48    5.78
  -3  -3  -7   72.87    3.05
   3  -3   7   79.96    3.24
   3  -3   7   77.24    3.05
  -3   3  -7   77.40    2.99
   3   3   7   82.39    3.04
  -4  -3  -7   47.93    2.07
   4  -3   7   44.84    2.01
   4  -3   7   47.83    2.22
   4   3   7   52.43    2.06
  -4   3  -7   50.65    2.03
   5  -3   7    9.48    0.80
  -5  -3  -7    9.86    0.68
  -5   3  -7   10.59    0.67
   5   3   7    9.88    0.67
   6  -3   7    2.69    0.49
  -6  -3  -7    2.27    0.37
  -6   3  -7    2.45    0.36
   6   3   7    2.04    0.33
   7  -3   7   21.80    1.34
  -7   3  -7   21.97    1.14
   7   3   7   20.95    1.12
   8  -3   7   22.41    1.44
  -8   3  -7   24.26    1.24
   9  -3   7   27.50    1.66
  -9   3  -7   27.93    1.40
  10  -4  -7    4.77    0.53
  10   4  -7    5.28    0.63
  -9  -4   7   22.40    1.24
   9  -4  -7   22.39    1.20
   9   4  -7   21.85    1.31
  -8  -4   7   38.61    1.83
   8  -4  -7   41.68    1.83
   8   4  -7   38.86    1.90
  -7  -4   7   43.29    1.99
   7  -4  -7   43.80    1.96
   7   4  -7   47.41    2.09
  -6  -4   7   98.14    3.84
   6  -4  -7   96.34    3.80
   6   4  -7  101.45    3.93
  -5  -4   7   85.64    3.47
   5  -4  -7   90.51    3.46
   5   4  -7   90.44    3.55
  -5   4   7   88.16    3.35
  -4  -4   7   64.67    2.71
   4  -4  -7   66.83    2.69
   4   4  -7   68.62    2.80
  -4   4   7   68.01    2.65
   3  -4  -7  111.46    4.14
  -3  -4   7  110.12    4.18
   3   4  -7  112.68    4.27
  -3   4   7  107.04    4.10
   3   4  -7  106.15    3.95
   2  -4  -7   95.37    3.70
  -2  -4   7   96.28    3.73
   2   4  -7   99.67    3.58
   2   4  -7   97.93    3.83
  -2   4   7   95.70    3.66
  -1  -4   7    5.92    0.51
   1  -4  -7    6.40    0.52
  -1   4   7    7.55    0.53
   1   4  -7    6.80    0.60
   1   4  -7    7.60    0.47
   0  -4   7   20.49    1.19
   0  -4  -7   20.82    1.06
   0  -4   7   21.01    1.08
   0   4   7   21.22    1.04
   0   4  -7   21.16    0.98
  -1  -4  -7    9.10    0.66
   1  -4   7    9.66    0.66
   1  -4   7    9.60    0.78
  -1   4  -7   12.91    0.65
   1   4   7   11.46    0.68
   2  -4   7   32.13    1.44
  -2  -4  -7   30.38    1.44
   2  -4   7   30.93    1.60
   2   4   7   32.73    1.43
  -2   4  -7   29.50    1.35
   3  -4   7   76.34    2.77
  -3  -4  -7   63.95    2.76
   3  -4   7   70.33    2.99
   3   4   7   68.85    2.74
  -3   4  -7   65.56    2.68
  -4  -4  -7  133.78    5.73
   4  -4   7  153.13    5.99
   4   4   7  169.71    5.77
  -4   4  -7  166.47    5.73
  -5  -4  -7   95.95    4.05
   5  -4   7  108.35    4.32
  -5   4  -7  107.86    4.02
   5   4   7  110.44    4.05
   6  -4   7   87.91    3.72
  -6   4  -7   88.74    3.43
   6   4   7   85.93    3.42
   7  -4   7   82.56    3.63
   7   4   7   83.79    3.31
  -7   4  -7   84.30    3.32
   8  -4   7   22.92    1.55
  -8   4  -7   28.56    1.38
   8   4   7   28.26    1.37
  10  -5  -7   21.90    1.24
 -10  -5   7   21.67    1.27
   9  -5  -7   24.11    1.31
  -9  -5   7   24.19    1.34
   9   5  -7   24.00    1.39
  -8  -5   7    8.19    0.71
   8  -5  -7    8.60    0.69
   8   5  -7    8.68    0.75
   7  -5  -7   20.63    1.15
  -7  -5   7   20.08    1.17
   7   5  -7   22.12    1.25
  -6  -5   7    3.47    0.46
   6  -5  -7    3.08    0.41
   6   5  -7    3.12    0.47
   5  -5  -7   12.67    0.81
  -5  -5   7   12.67    0.84
   5   5  -7   12.83    0.88
   4  -5  -7    7.22    0.57
  -4  -5   7    6.66    0.58
  -4   5   7    6.71    0.53
   4   5  -7    6.37    0.61
  -3  -5   7   76.38    3.10
   3  -5  -7   79.68    3.08
   3   5  -7   77.02    3.20
  -3   5   7   76.11    3.00
  -2  -5   7   23.55    1.17
   2  -5  -7   22.56    1.12
   2   5  -7   20.52    0.96
   2   5  -7   20.79    1.21
  -2   5   7   20.88    1.06
   1  -5  -7  315.92   11.14
  -1  -5   7  315.94   11.18
   1   5  -7  309.40   11.30
   1   5  -7  312.92   10.98
  -1   5   7  312.26   11.08
   0  -5  -7   71.94    2.89
   0  -5   7   72.53    2.92
   0  -5   7   73.03    3.11
   0   5   7   72.88    2.85
   0   5  -7   74.15    2.77
   1  -5   7  142.54    5.22
  -1  -5  -7  139.73    5.21
   1  -5   7  140.85    5.46
  -1   5  -7  140.89    5.10
   1   5   7  136.15    5.16
   2  -5   7   94.85    3.64
   2  -5   7   97.52    3.93
  -2  -5  -7   95.52    3.67
  -2   5  -7   92.50    3.56
   2   5   7   93.05    3.63
   3  -5   7  108.94    4.31
   3  -5   7  107.59    3.98
  -3  -5  -7  104.65    4.02
  -3   5  -7   99.46    3.92
   3   5   7  103.35    3.99
   4  -5   7   25.20    1.50
  -4  -5  -7   24.58    1.28
   4   5   7   25.95    1.28
  -4   5  -7   26.96    1.25
   5  -5   7    1.79    0.42
   5   5   7    2.60    0.39
  -5   5  -7    2.75    0.39
   6  -5   7    3.61    0.55
  -6   5  -7    2.92    0.39
   6   5   7    2.79    0.42
   7  -5   7    3.28    0.58
   7   5   7    3.06    0.45
  -7   5  -7    3.47    0.44
   8  -5   7   11.18    1.13
  -8   5  -7   10.20    0.77
   8   5   7    9.32    0.74
   9  -6  -7    2.04    0.42
  -9  -6   7    1.82    0.40
  -8  -6   7   22.64    1.30
   8  -6  -7   23.89    1.29
   8   6  -7   21.06    1.31
  -7  -6   7   49.02    2.28
   7  -6  -7   51.05    2.26
   7   6  -7   50.71    2.31
  -6  -6   7   49.93    2.27
   6  -6  -7   50.01    2.23
   6   6  -7   51.82    2.32
   5  -6  -7   98.33    3.94
  -5  -6   7  100.06    4.01
   5   6  -7  104.62    4.07
  -4  -6   7   66.67    2.79
   4  -6  -7   67.20    2.74
  -4   6   7   64.81    2.64
   4   6  -7   65.97    2.84
   3  -6  -7   43.48    1.98
  -3  -6   7   43.64    2.03
  -3   6   7   45.16    1.91
   3   6  -7   48.91    2.16
   2  -6  -7   33.57    1.58
  -2  -6   7   32.95    1.61
  -2   6   7   33.56    1.51
   2   6  -7   35.28    1.73
  -1  -6   7   14.77    0.91
   1  -6  -7   15.15    0.89
   1   6  -7   14.84    0.76
   1   6  -7   15.06    1.01
  -1   6   7   15.20    0.85
   0  -6  -7    0.47    0.19
   0  -6   7    1.25    0.28
   0   6   7    0.55    0.21
   1  -6   7   18.35    1.00
   1  -6   7   18.22    1.19
  -1  -6  -7   18.02    0.99
  -1   6  -7   16.77    0.88
   1   6   7   16.77    0.96
  -2  -6  -7   30.35    1.46
   2  -6   7   29.45    1.70
   2  -6   7   29.35    1.44
   2   6   7   32.96    1.49
  -2   6  -7   34.19    1.43
   3  -6   7   59.33    2.75
  -3  -6  -7   60.57    2.45
   3   6   7   57.56    2.42
  -3   6  -7   56.50    2.36
   4  -6   7   52.85    2.49
  -4   6  -7   48.76    2.10
   4   6   7   49.37    2.16
   5  -6   7   95.69    4.08
  -5   6  -7   94.98    3.69
   5   6   7   94.39    3.72
   6  -6   7   57.77    2.88
  -6   6  -7   62.90    2.56
   6   6   7   62.44    2.59
   7  -6   7   44.86    2.33
  -7   6  -7   43.26    1.96
   7   6   7   42.77    1.98
  -8  -7   7   38.80    2.08
   8   7  -7   36.00    2.05
  -7  -7   7   14.31    1.02
   7  -7  -7   14.79    0.99
   7   7  -7   16.04    1.06
  -6  -7   7    0.10    0.21
   6  -7  -7   -0.08    0.18
   6   7  -7    0.17    0.22
  -5  -7   7    2.23    0.42
   5  -7  -7    2.39    0.43
   5   7  -7    2.45    0.46
  -4  -7   7   16.52    1.05
   4  -7  -7   16.62    1.01
   4   7  -7   16.18    1.07
  -3  -7   7   23.92    1.29
   3  -7  -7   22.90    1.22
   3   7  -7   21.58    1.31
  -3   7   7   22.25    1.13
   2  -7  -7   63.44    2.62
  -2  -7   7   62.76    2.67
  -2   7   7   61.25    2.51
   2   7  -7   61.11    2.75
  -1  -7   7   65.25    2.75
   1  -7  -7   66.09    2.71
   1   7  -7   63.01    2.86
  -1   7   7   66.50    2.64
   0  -7   7   99.63    3.86
   0  -7  -7   99.24    3.82
   0   7  -7   96.71    3.65
   0   7   7   95.88    3.76
   0   7  -7   96.99    4.04
  -1  -7  -7   84.83    3.37
   1  -7   7   85.99    3.40
   1  -7   7   83.46    3.66
   1   7   7   84.44    3.35
  -1   7  -7   86.62    3.26
  -2  -7  -7   65.83    2.65
   2  -7   7   61.99    2.94
   2   7   7   63.76    2.64
  -2   7  -7   64.61    2.56
   3  -7   7   27.93    1.70
   3   7   7   29.22    1.44
  -3   7  -7   31.14    1.40
   4  -7   7   20.06    1.36
  -4   7  -7   18.29    1.02
   4   7   7   19.03    1.09
   5  -7   7    9.35    0.91
   5   7   7    8.14    0.68
  -5   7  -7    8.13    0.64
   6  -7   7    3.08    0.62
   6   7   7    2.40    0.42
  -6   7  -7    2.96    0.44
  -6  -8   7   57.86    2.61
   6  -8  -7   57.90    2.55
   6   8  -7   55.80    2.59
   5  -8  -7   41.46    1.98
  -5  -8   7   40.80    2.03
   5   8  -7   42.79    2.05
   4  -8  -7   30.66    1.60
  -4  -8   7   31.88    1.69
   4   8  -7   34.24    1.73
   3  -8  -7   25.65    1.36
  -3  -8   7   26.80    1.44
   3   8  -7   24.53    1.45
   2  -8  -7   25.21    1.31
  -2  -8   7   25.90    1.38
   2   8  -7   22.94    1.40
  -2   8   7   22.98    1.20
  -1  -8   7   16.39    1.06
   1  -8  -7   16.52    1.01
   1   8  -7   17.79    1.18
  -1   8   7   18.18    0.99
   0  -8   7    0.37    0.22
   0  -8  -7    0.52    0.22
   0   8   7    0.35    0.21
   0   8  -7    0.11    0.22
   1  -8   7    5.77    0.57
  -1  -8  -7    5.37    0.52
  -1   8  -7    5.76    0.47
   1   8   7    5.41    0.54
   2  -8   7   10.30    0.95
  -2   8  -7    8.92    0.64
   2   8   7    9.00    0.71
   3  -8   7   38.94    2.10
   3   8   7   35.69    1.74
  -3   8  -7   37.45    1.68
   4  -8   7   47.82    2.54
  -4   8  -7   51.12    2.16
   4   8   7   51.08    2.24
   5  -8   7   57.96    3.09
  -5   8  -7   55.51    2.42
   5   9  -7   10.96    0.92
   4  -9  -7    9.27    0.79
  -4  -9   7    9.18    0.95
   4   9  -7    9.49    0.84
   3  -9  -7   11.23    0.85
  -3  -9   7   12.25    0.92
   3   9  -7   11.66    0.94
  -2  -9   7   26.93    1.53
   2  -9  -7   25.81    1.45
   2   9  -7   31.63    1.68
  -2   9   7   30.20    1.64
   1  -9  -7   40.26    1.82
  -1  -9   7   41.71    1.92
   1   9  -7   33.95    1.92
  -1   9   7   35.07    1.72
   0  -9   7   58.16    2.59
   0  -9  -7   59.76    2.53
   0   9  -7   57.13    2.74
   0   9   7   59.44    2.50
   1   9   7   60.03    2.58
  -1   9  -7   61.47    2.86
   2   9   7   26.14    1.39
   3  -9   7   40.17    2.24
  -3   9  -7   40.25    1.81
   1 -10  -7    8.95    0.78
   1  10  -7    7.20    0.99
  -1  10   7    6.57    0.63
  11   0  -8    7.86    0.76
  10   0  -8    1.27    0.36
   9   0  -8    0.13    0.21
   8   0  -8    8.98    0.71
   7   0  -8    6.83    0.49
   7   0  -8    6.72    0.60
  -7   0   8    7.54    0.56
   6   0  -8  116.80    4.43
   6   0  -8  113.44    4.29
  -6   0   8  120.08    4.39
   5   0  -8   78.33    3.11
   5   0  -8   79.99    3.02
  -5   0   8   80.55    3.11
   4   0  -8  136.90    5.04
  -4   0   8  135.10    5.04
   4   0  -8  136.79    4.97
   3   0  -8  215.31    7.46
  -3   0   8  198.52    7.50
   3   0  -8  211.42    7.49
   2   0  -8  165.34    6.02
   2   0  -8  168.67    6.04
  -2   0   8  165.03    6.08
   1   0  -8  110.96    4.09
   1   0  -8  109.01    4.10
   0   0   8  136.88    5.12
   0   0  -8  141.54    5.11
   1   0   8   36.77    1.62
   1   0   8   36.20    1.61
   2   0   8    0.80    0.22
  -2   0  -8    0.37    0.15
   2   0   8    0.66    0.20
   3   0   8   20.14    1.10
   3   0   8   22.31    1.09
  -3   0  -8   21.68    1.09
   4   0   8    3.85    0.40
   4   0   8    3.94    0.45
  -4   0  -8    3.66    0.41
   5   0   8   77.55    3.17
  -5   0  -8   76.60    3.09
   5   0   8   78.66    3.06
  -6   0  -8  107.86    4.30
   6   0   8  111.97    4.42
   6   0   8  118.05    4.31
   7   0   8  128.39    4.98
  -7   0  -8  125.71    4.84
   8   0   8   13.97    1.01
  -8   0  -8   14.84    0.93
   9   0   8   46.53    2.28
  -9   0  -8   46.88    2.11
  11  -1  -8   42.80    2.09
  11   1  -8   41.73    2.26
  10  -1  -8   34.41    1.75
  10   1  -8   34.52    1.77
   9  -1  -8   54.62    2.41
   9   1  -8   54.48    2.42
   8  -1  -8   58.46    2.35
   8  -1  -8   61.42    2.50
  -8  -1   8   56.69    2.38
   8   1  -8   55.19    2.49
   7  -1  -8   77.66    3.12
   7  -1  -8   76.96    3.02
  -7  -1   8   77.34    3.08
   7   1  -8   79.74    3.18
  -7   1   8   79.48    3.04
   6  -1  -8   63.57    2.59
   6  -1  -8   66.37    2.66
  -6  -1   8   64.34    2.65
   6   1  -8   67.08    2.73
   6   1  -8   66.53    2.52
  -6   1   8   68.17    2.62
   5  -1  -8   35.72    1.58
   5  -1  -8   34.58    1.55
  -5  -1   8   35.88    1.62
   5   1  -8   36.01    1.50
  -5   1   8   36.83    1.59
   5   1  -8   37.37    1.66
   4  -1  -8    1.88    0.28
   4  -1  -8    2.40    0.31
  -4  -1   8    1.43    0.27
   4   1  -8    1.02    0.25
   4   1  -8    1.22    0.23
  -4   1   8    1.73    0.29
  -3  -1   8    1.11    0.26
   3  -1  -8    1.88    0.27
   3  -1  -8    1.36    0.25
   3   1  -8    1.25    0.25
  -3   1   8    1.20    0.25
   3   1  -8    1.82    0.27
   2  -1  -8   17.79    0.95
   2  -1  -8   18.85    0.92
  -2   1   8   20.53    1.01
   2   1  -8   18.78    1.00
   2   1  -8   20.22    0.94
   1  -1  -8  100.77    3.68
   1  -1  -8   98.80    3.59
   1   1  -8   99.03    3.62
   1   1  -8   97.06    3.70
  -1   1   8   87.41    3.65
   0  -1   8  127.28    4.80
   0  -1   8  127.27    4.82
   0   1  -8  131.80    4.73
   0   1   8  127.26    4.69
   1  -1   8  231.50    8.27
   1  -1   8  238.56    8.23
  -1   1  -8  220.96    8.15
   1   1   8  228.59    8.21
   1   1   8  221.69    8.13
   2  -1   8  136.16    5.00
  -2  -1  -8  137.54    4.91
   2  -1   8  140.35    4.93
  -2   1  -8  116.62    4.84
   2   1   8  130.44    4.87
   2   1   8  129.65    4.91
   3  -1   8  133.00    5.27
  -3  -1  -8  139.82    5.19
   3  -1   8  140.84    5.19
   3   1   8  137.03    5.20
   3   1   8  142.92    5.19
  -3   1  -8  146.47    5.20
   4  -1   8  160.96    5.64
  -4  -1  -8  152.50    5.64
   4  -1   8  148.05    5.75
   4   1   8  149.78    5.64
  -4   1  -8  151.47    5.63
   4   1   8  153.72    5.66
  -5  -1  -8   88.59    3.42
   5  -1   8   92.82    3.40
   5  -1   8   87.56    3.56
   5   1   8   85.70    3.45
   5   1   8   85.68    3.41
  -5   1  -8   83.49    3.40
   6  -1   8   44.15    2.07
  -6  -1  -8   42.85    1.92
  -6   1  -8   43.09    1.92
   6   1   8   43.94    1.98
   6   1   8   43.80    1.91
  -7  -1  -8    2.45    0.40
   7  -1   8    2.06    0.43
   7   1   8    1.18    0.31
  -7   1  -8    1.27    0.30
   8  -1   8   16.01    1.12
  -8  -1  -8   15.51    0.95
  -8   1  -8   15.39    0.96
   8   1   8   16.03    1.05
   9  -1   8    8.55    0.84
  -9   1  -8    8.84    0.71
   9   1   8    9.44    0.81
  11  -2  -8    7.24    0.74
  10  -2  -8   15.51    1.05
  10   2  -8   15.54    1.07
   9  -2  -8    1.20    0.33
   9   2  -8    1.16    0.34
  -8  -2   8    1.27    0.29
   8  -2  -8    1.70    0.35
   8  -2  -8    1.14    0.27
   8   2  -8    1.53    0.35
  -7  -2   8   35.42    1.61
   7  -2  -8   35.98    1.61
   7  -2  -8   34.40    1.56
   7   2  -8   33.03    1.67
   6  -2  -8   29.28    1.38
   6  -2  -8   30.73    1.39
  -6  -2   8   29.38    1.42
   6   2  -8   29.81    1.48
  -6   2   8   30.60    1.36
   5  -2  -8  187.60    6.56
   5  -2  -8  181.84    6.59
  -5  -2   8  187.42    6.67
  -5   2   8  175.41    6.56
   5   2  -8  175.93    6.69
   5   2  -8  181.71    6.45
   4  -2  -8  187.67    6.79
  -4  -2   8  185.77    6.95
   4  -2  -8  184.77    6.88
   4   2  -8  192.99    6.99
  -4   2   8  195.18    6.89
   4   2  -8  196.38    6.78
   3  -2  -8  151.43    5.40
   3  -2  -8  145.65    5.52
  -3  -2   8  146.69    5.58
  -3   2   8  153.50    5.53
   3   2  -8  154.48    5.43
   3   2  -8  151.59    5.61
   2  -2  -8  134.87    5.03
   2  -2  -8  146.11    5.21
  -2   2   8  142.08    5.20
   2   2  -8  140.98    5.10
   2   2  -8  139.59    5.26
  -1  -2   8  185.63    6.65
   1   2  -8  181.24    6.49
  -1   2   8  178.88    6.59
   1   2  -8  177.91    6.64
   0  -2   8   85.80    3.41
   0  -2   8   91.36    3.49
   0   2  -8   84.95    3.31
   1  -2   8    7.54    0.62
  -1  -2  -8    7.10    0.54
   2  -2   8   16.19    1.00
   2  -2   8   15.08    0.91
  -2  -2  -8   17.63    0.94
   2   2   8   17.29    0.93
   2   2   8   16.99    0.84
  -2   2  -8   16.64    0.89
   3  -2   8    1.52    0.34
  -3  -2  -8    2.26    0.36
   3  -2   8    1.65    0.30
   3   2   8    1.77    0.28
   3   2   8    1.76    0.31
  -3   2  -8    1.63    0.29
   4  -2   8   25.65    1.28
   4  -2   8   26.45    1.42
  -4  -2  -8   27.61    1.31
  -4   2  -8   27.14    1.28
   4   2   8   26.31    1.25
   4   2   8   25.40    1.27
   5  -2   8   57.65    2.64
  -5  -2  -8   60.83    2.50
   5   2   8   62.08    2.49
   5   2   8   61.25    2.49
  -5   2  -8   59.67    2.48
  -6  -2  -8   42.58    1.83
   6  -2   8   39.53    1.98
  -6   2  -8   39.52    1.79
   6   2   8   39.56    1.78
   6   2   8   38.55    1.80
  -7  -2  -8   72.92    2.83
   7  -2   8   71.02    3.06
  -7   2  -8   65.42    2.80
   7   2   8   66.13    2.78
   7   2   8   66.31    3.18
   8  -2   8   76.49    3.35
  -8   2  -8   74.45    3.08
   9  -2   8   48.38    2.60
  -9   2  -8   46.18    2.12
  10   3  -8   25.68    1.47
  -9  -3   8   79.31    3.21
   9  -3  -8   78.94    3.16
   9   3  -8   78.22    3.33
  -8  -3   8   51.80    2.28
   8  -3  -8   51.86    2.24
   8   3  -8   54.54    2.39
   7  -3  -8   74.57    2.95
  -7  -3   8   72.68    2.98
   7   3  -8   72.52    3.06
   6  -3  -8   40.87    1.81
  -6  -3   8   41.34    1.86
  -6   3   8   41.10    1.74
   6   3  -8   41.70    1.93
  -5  -3   8   34.15    1.60
   5  -3  -8   34.20    1.56
  -5   3   8   34.19    1.50
   5   3  -8   34.14    1.64
  -4  -3   8   40.09    1.81
   4  -3  -8   38.40    1.75
  -4   3   8   40.81    1.74
   4   3  -8   41.83    1.87
   4   3  -8   41.23    1.62
   3  -3  -8   35.69    1.60
  -3  -3   8   36.87    1.67
  -3   3   8   35.81    1.59
   3   3  -8   35.82    1.48
   3   3  -8   35.98    1.71
  -2  -3   8   35.11    1.65
   2  -3  -8   33.71    1.59
   2   3  -8   36.96    1.70
   2   3  -8   38.44    1.51
  -2   3   8   34.34    1.60
   1  -3  -8   72.00    2.83
  -1  -3   8   70.66    2.87
  -1   3   8   69.91    2.81
   1   3  -8   72.07    2.73
   1   3  -8   69.14    2.91
   0  -3   8  126.05    4.63
   0  -3  -8  122.54    4.59
   0  -3   8  125.90    4.73
   0   3   8  117.58    4.54
   0   3  -8  116.40    4.47
   1  -3   8  113.17    4.45
  -1  -3  -8  113.45    4.43
   1  -3   8  123.17    4.61
   1   3   8  121.26    4.42
  -1   3  -8  114.86    4.34
  -2  -3  -8  138.49    5.13
   2  -3   8  128.82    5.11
   2  -3   8  141.37    5.28
  -2   3  -8  136.62    5.03
   2   3   8  136.94    5.07
  -3  -3  -8  129.32    4.96
   3  -3   8  114.77    4.92
   3  -3   8  128.73    5.13
   3   3   8  145.05    4.97
  -3   3  -8  141.98    4.93
   4  -3   8   69.47    3.07
   4  -3   8   81.88    3.33
  -4  -3  -8   80.98    3.14
   4   3   8   80.21    3.11
  -4   3  -8   78.65    3.08
   5  -3   8   69.83    3.05
  -5  -3  -8   68.98    2.86
   5   3   8   71.69    2.85
  -5   3  -8   69.62    2.82
  -6  -3  -8   35.07    1.60
   6  -3   8   32.59    1.78
   6   3   8   33.80    1.58
  -6   3  -8   32.48    1.56
   7  -3   8    9.47    0.88
   7   3   8   10.70    0.75
  -7   3  -8    9.43    0.71
   8  -3   8    2.96    0.56
  -8   3  -8    2.85    0.45
  10  -4  -8    1.40    0.34
   9  -4  -8    3.19    0.48
  -9  -4   8    2.75    0.44
   9   4  -8    2.83    0.51
  -8  -4   8    1.79    0.37
   8  -4  -8    1.41    0.32
   8   4  -8    0.64    0.28
  -7  -4   8   28.52    1.48
   7  -4  -8   28.57    1.44
   7   4  -8   31.52    1.57
  -6  -4   8   53.55    2.32
   6  -4  -8   54.10    2.28
   6   4  -8   51.91    2.36
   5  -4  -8   84.71    3.39
  -5  -4   8   85.49    3.43
  -5   4   8   86.65    3.30
   5   4  -8   86.89    3.51
   4  -4  -8  102.76    3.95
  -4  -4   8  102.95    4.01
  -4   4   8  100.73    3.88
   4   4  -8  104.04    4.07
   3  -4  -8  159.01    5.93
  -3  -4   8  163.34    5.99
  -3   4   8  158.84    5.90
   3   4  -8  161.04    5.74
   3   4  -8  160.31    6.05
   2  -4  -8  180.55    6.78
  -2  -4   8  190.58    6.86
   2   4  -8  187.90    6.93
   2   4  -8  186.57    6.64
  -2   4   8  183.65    6.77
   1  -4  -8   32.33    1.45
  -1  -4   8   35.14    1.52
   1   4  -8   27.69    1.29
  -1   4   8   26.46    1.36
   1   4  -8   28.08    1.50
   0  -4   8   57.84    2.53
   0  -4   8   60.17    2.43
   0  -4  -8   59.59    2.40
   0   4  -8   53.86    2.24
   0   4   8   53.59    2.31
   1  -4   8   22.57    1.31
   1  -4   8   23.31    1.20
  -1  -4  -8   22.34    1.19
  -1   4  -8   23.69    1.10
   1   4   8   22.38    1.15
   2  -4   8   15.79    0.92
  -2  -4  -8   12.67    0.86
   2  -4   8   15.33    1.04
  -2   4  -8   15.05    0.83
   2   4   8   15.91    0.89
   3  -4   8   25.84    1.44
  -3  -4  -8   21.84    1.24
   3  -4   8   26.38    1.28
   3   4   8   24.31    1.23
  -3   4  -8   24.72    1.19
   4  -4   8   21.17    1.34
  -4  -4  -8   19.54    1.17
   4   4   8   25.38    1.22
  -4   4  -8   25.18    1.18
  -5  -4  -8   31.26    1.58
   5  -4   8   33.57    1.79
  -5   4  -8   32.68    1.53
   5   4   8   34.51    1.58
   6  -4   8   39.73    2.05
  -6   4  -8   38.39    1.77
   6   4   8   38.83    1.79
   7  -4   8   46.69    2.34
   7   4   8   46.41    2.06
  -7   4  -8   45.07    2.03
   8  -4   8   42.92    2.45
  -8   4  -8   47.57    2.07
 -10  -5   8   27.43    1.50
  -9  -5   8   47.64    2.24
   9  -5  -8   48.53    2.21
   9   5  -8   50.05    2.32
   8  -5  -8   31.62    1.61
  -8  -5   8   33.02    1.66
   8   5  -8   32.45    1.71
  -7  -5   8   57.77    2.51
   7  -5  -8   57.37    2.47
   7   5  -8   55.79    2.54
   6  -5  -8   33.60    1.63
  -6  -5   8   33.31    1.67
   6   5  -8   34.52    1.72
   5  -5  -8    9.76    0.73
  -5  -5   8   10.35    0.77
   5   5  -8   11.32    0.84
  -4  -5   8    5.57    0.55
   4  -5  -8    6.07    0.55
   4   5  -8    5.32    0.59
  -4   5   8    6.26    0.53
  -3  -5   8    0.43    0.22
   3  -5  -8    0.09    0.15
   3   5  -8    0.15    0.18
  -3   5   8    0.36    0.19
  -2  -5   8   23.87    1.28
   2  -5  -8   24.39    1.24
  -2   5   8   23.96    1.20
   2   5  -8   24.36    1.35
   2   5  -8   23.59    1.09
  -1  -5   8   52.13    2.24
   1  -5  -8   51.63    2.20
  -1   5   8   50.05    2.13
   1   5  -8   50.26    2.32
   1   5  -8   51.22    2.05
   0  -5  -8   55.73    2.31
   0  -5   8   55.18    2.49
   0  -5   8   53.31    2.31
   0   5   8   53.62    2.25
   0   5  -8   51.80    2.15
   1  -5   8   75.61    3.30
  -1  -5  -8   77.05    3.11
   1  -5   8   77.16    3.10
   1   5   8   76.06    3.04
  -1   5  -8   78.15    2.97
   2  -5   8  140.57    5.18
  -2  -5  -8  134.93    5.19
   2  -5   8  137.52    5.42
  -2   5  -8  133.53    5.05
   2   5   8  139.88    5.14
  -3  -5  -8  103.41    4.22
   3  -5   8  111.55    4.49
   3  -5   8  112.70    4.21
   3   5   8  110.61    4.18
  -3   5  -8  107.07    4.12
  -4  -5  -8   66.29    2.92
   4  -5   8   69.08    3.16
   4   5   8   74.09    2.90
  -4   5  -8   74.71    2.87
   5  -5   8   21.39    1.39
   5   5   8   21.78    1.16
  -5   5  -8   20.60    1.12
   6  -5   8   28.41    1.67
   6   5   8   27.45    1.40
  -6   5  -8   27.29    1.38
   7  -5   8    8.81    0.89
   7   5   8    8.30    0.70
  -7   5  -8    9.64    0.71
   8   5   8   10.29    0.79
   8  -6  -8    9.96    0.80
  -8  -6   8    9.38    0.82
   8   6  -8   10.18    0.87
   7  -6  -8   19.28    1.14
  -7  -6   8   18.99    1.17
   7   6  -8   17.67    1.17
  -6  -6   8   15.31    1.05
   6  -6  -8   16.20    1.02
   6   6  -8   18.79    1.14
   5  -6  -8   60.46    2.57
  -5  -6   8   59.25    2.62
   5   6  -8   59.85    2.67
  -4  -6   8   62.25    2.67
   4  -6  -8   62.96    2.62
   4   6  -8   61.60    2.72
  -4   6   8   58.39    2.51
   3  -6  -8  103.99    4.09
  -3  -6   8  104.72    4.15
   3   6  -8  106.94    4.25
  -3   6   8  103.49    4.01
   2  -6  -8   47.95    2.14
  -2  -6   8   48.77    2.19
   2   6  -8   49.40    2.29
  -2   6   8   48.61    2.07
   1  -6  -8   79.14    3.16
  -1  -6   8   80.85    3.21
   1   6  -8   76.01    3.30
  -1   6   8   78.28    3.10
   1   6  -8   75.35    2.96
   0  -6   8   41.70    1.90
   0  -6  -8   40.23    1.87
   0   6   8   41.05    1.82
   0   6  -8   41.70    1.74
  -1  -6  -8   27.55    1.38
   1  -6   8   27.94    1.39
   1  -6   8   27.08    1.56
  -1   6  -8   26.33    1.24
   1   6   8   25.38    1.31
   2  -6   8    2.42    0.38
  -2  -6  -8    2.14    0.38
   2  -6   8    1.88    0.44
   2   6   8    1.67    0.32
  -2   6  -8    2.16    0.33
   3  -6   8    2.39    0.49
  -3  -6  -8    3.06    0.41
  -3   6  -8    2.69    0.36
   3   6   8    2.44    0.39
   4  -6   8   12.67    1.04
   4   6   8   12.18    0.83
  -4   6  -8   12.86    0.80
   5  -6   8   52.82    2.54
   5   6   8   49.34    2.20
  -5   6  -8   47.92    2.14
   6  -6   8    9.30    0.96
  -6   6  -8   12.78    0.83
   6   6   8   12.95    0.86
   7   6   8   58.98    2.65
  -7  -7   8   22.19    1.38
   7  -7  -8   22.79    1.34
   7   7  -8   25.88    1.45
  -6  -7   8   24.26    1.43
   6  -7  -8   26.23    1.42
   6   7  -8   26.61    1.49
   5  -7  -8    4.00    0.51
  -5  -7   8    4.34    0.56
   5   7  -8    3.52    0.57
  -4  -7   8    7.26    0.69
   4  -7  -8    6.79    0.63
   4   7  -8    6.74    0.69
   3  -7  -8    2.14    0.40
  -3  -7   8    2.07    0.40
  -3   7   8    2.13    0.36
   3   7  -8    1.86    0.41
   2  -7  -8    2.62    0.43
  -2  -7   8    2.70    0.45
   2   7  -8    2.10    0.43
  -2   7   8    2.39    0.38
   1  -7  -8   33.13    1.66
  -1  -7   8   34.76    1.73
  -1   7   8   35.20    1.62
   1   7  -8   36.22    1.85
   0  -7  -8   34.98    1.68
   0  -7   8   34.08    1.70
   0   7  -8   34.81    1.54
   0   7   8   34.76    1.63
   0   7  -8   36.41    1.88
   1  -7   8   78.60    3.17
  -1  -7  -8   77.60    3.15
   1  -7   8   77.66    3.43
  -1   7  -8   74.37    2.99
   1   7   8   76.14    3.09
   2  -7   8   62.76    2.94
  -2  -7  -8   64.02    2.66
  -2   7  -8   60.90    2.52
   2   7   8   61.57    2.61
   3  -7   8   79.60    3.50
   3   7   8   75.94    3.13
  -3   7  -8   75.77    3.05
   4  -7   8   51.01    2.52
   4   7   8   48.98    2.18
  -4   7  -8   46.94    2.10
   5  -7   8   15.64    1.25
  -5   7  -8   17.13    1.00
   5   7   8   17.22    1.05
   6   8  -8   32.50    2.11
   5  -8  -8   35.96    1.82
  -5  -8   8   35.49    1.88
   5   8  -8   38.25    1.92
   4  -8  -8   31.74    1.63
  -4  -8   8   31.32    1.69
   4   8  -8   32.78    1.75
  -3  -8   8   46.58    2.22
   3  -8  -8   45.78    2.15
   3   8  -8   47.61    2.29
  -2  -8   8   62.03    2.64
   2  -8  -8   61.25    2.56
   2   8  -8   53.60    2.65
  -2   8   8   55.29    2.43
  -1  -8   8   52.21    2.43
   1  -8  -8   51.37    2.37
   1   8  -8   57.69    2.61
  -1   8   8   54.90    2.32
   0  -8  -8   18.54    1.09
   0  -8   8   19.85    1.15
   0   8  -8   16.63    1.20
   0   8   8   16.25    1.01
  -1  -8  -8    8.48    0.70
   1  -8   8    8.20    0.83
   1   8   8    7.82    0.66
   2  -8   8    5.61    0.75
  -2   8  -8    6.42    0.54
   2   8   8    5.88    0.60
   3  -8   8    3.98    0.68
  -3   8  -8    5.26    0.50
   3   8   8    4.49    0.54
   4  -8   8    8.99    1.62
  -4   8  -8    6.92    0.61
  -3  -9   8    4.52    0.86
   3  -9  -8    4.12    0.64
   3   9  -8    4.11    0.61
   2  -9  -8    4.97    0.56
  -2  -9   8    5.08    0.62
   2   9  -8    4.19    0.62
  -2   9   8    3.15    0.61
  -1  -9   8   21.34    1.30
   1  -9  -8   20.94    1.23
  -1   9   8   20.81    1.18
   1   9  -8   21.79    1.40
   0  -9  -8   21.79    1.26
   0  -9   8   21.93    1.32
   0   9   8   22.37    1.23
   0   9  -8   22.38    1.44
  -1   9  -8   35.39    1.98
   1   9   8   36.65    1.77
  -3   9  -8   25.72    1.40
  10   0  -9   30.11    1.62
   9   0  -9   17.20    1.10
   8   0  -9   19.61    1.15
  -7   0   9    1.06    0.27
   7   0  -9    0.47    0.23
   6   0  -9    1.59    0.31
   6   0  -9    1.09    0.23
  -6   0   9    1.02    0.26
   5   0  -9   14.05    0.78
   5   0  -9   13.74    0.83
  -5   0   9   13.74    0.84
   4   0  -9   79.98    3.03
  -4   0   9   74.94    3.09
   4   0  -9   79.25    3.08
   3   0  -9  134.54    4.94
   3   0  -9  136.51    4.97
  -3   0   9  130.15    5.00
   2   0  -9   63.39    2.54
   2   0  -9   62.67    2.55
  -2   0   9   65.11    2.61
   1   0  -9  159.41    5.90
   1   0  -9  159.84    5.89
  -1   0   9  165.75    5.96
   0   0  -9  117.19    4.46
   0   0   9  123.34    4.51
   0   0   9  117.36    4.48
   1   0   9  217.44    7.70
   1   0   9  208.23    7.69
  -1   0  -9  211.30    7.65
   2   0   9   30.10    1.47
  -2   0  -9   31.09    1.44
   2   0   9   32.91    1.48
   3   0   9  131.86    4.85
   3   0   9  124.04    4.89
  -3   0  -9  130.88    4.84
   4   0   9    4.43    0.49
  -4   0  -9    4.93    0.48
   4   0   9    4.19    0.44
   5   0   9    0.86    0.24
   5   0   9    0.72    0.25
  -5   0  -9    0.77    0.25
   6   0   9    6.83    0.66
  -6   0  -9    6.75    0.60
  -7   0  -9   24.80    1.32
   7   0   9   25.06    1.42
  -8   0  -9   15.42    0.98
   8   0   9   14.74    1.07
   9   0   9   48.85    2.37
  -9   0  -9   46.62    2.16
  11  -1  -9   11.68    0.96
  10  -1  -9   10.19    0.84
  10   1  -9    8.93    0.81
   9  -1  -9   39.74    1.91
   9   1  -9   39.48    1.93
   8  -1  -9   28.67    1.46
  -8  -1   9   28.28    1.40
   8   1  -9   28.97    1.51
  -7  -1   9   91.39    3.53
   7  -1  -9   88.38    3.44
   7  -1  -9   91.44    3.55
  -7   1   9   89.52    3.48
   7   1  -9   87.03    3.59
   6  -1  -9  108.02    4.16
   6  -1  -9  105.08    4.10
  -6  -1   9  112.90    4.21
   6   1  -9  108.15    4.24
   6   1  -9  108.86    4.20
  -6   1   9  111.80    4.16
  -5  -1   9   87.86    3.41
   5  -1  -9   82.18    3.29
   5  -1  -9   81.81    3.30
   5   1  -9   87.70    3.25
   5   1  -9   89.16    3.42
  -5   1   9   85.01    3.34
   4  -1  -9   77.58    2.92
  -4  -1   9   77.17    3.02
   4  -1  -9   78.30    2.95
   4   1  -9   74.45    2.88
  -4   1   9   70.23    2.95
   4   1  -9   70.65    2.98
   3  -1  -9   24.28    1.19
   3  -1  -9   24.84    1.15
  -3  -1   9   24.38    1.25
   3   1  -9   24.05    1.14
  -3   1   9   25.61    1.22
   3   1  -9   23.35    1.22
   2  -1  -9   33.78    1.49
  -2  -1   9   32.15    1.58
   2  -1  -9   31.50    1.53
  -2   1   9   39.02    1.61
   2   1  -9   36.08    1.61
   2   1  -9   36.24    1.52
   1  -1  -9    1.46    0.28
   1  -1  -9    1.51    0.25
  -1  -1   9    1.49    0.31
   1   1  -9    1.26    0.25
  -1   1   9    1.07    0.25
   1   1  -9    1.05    0.25
   0  -1   9    6.18    0.53
   0  -1   9    5.67    0.52
   0  -1  -9    5.75    0.49
   0   1   9    5.78    0.51
   0   1  -9    6.44    0.49
   1  -1   9   32.80    1.58
  -1  -1  -9   35.14    1.53
   1  -1   9   33.61    1.55
  -1   1  -9   31.98    1.48
   1   1   9   32.97    1.48
   1   1   9   33.36    1.53
  -2  -1  -9   25.84    1.20
   2  -1   9   24.60    1.25
   2  -1   9   26.84    1.22
   2   1   9   20.02    1.14
   2   1   9   20.70    1.11
  -2   1  -9   21.22    1.13
   3  -1   9  162.71    5.87
   3  -1   9  148.71    5.94
  -3  -1  -9  158.82    5.85
   3   1   9  156.54    5.87
   3   1   9  162.78    5.87
  -3   1  -9  160.88    5.87
   4  -1   9  140.21    5.38
   4  -1   9  144.51    5.24
  -4  -1  -9  141.94    5.26
   4   1   9  137.23    5.26
   4   1   9  139.36    5.28
  -4   1  -9  139.18    5.26
   5  -1   9  118.75    4.32
   5  -1   9  115.52    4.51
  -5  -1  -9  111.55    4.34
   5   1   9  114.10    4.36
  -5   1  -9  109.33    4.35
   5   1   9  111.43    4.40
   6  -1   9   92.04    3.74
  -6  -1  -9   91.46    3.56
  -6   1  -9   86.89    3.56
   6   1   9   88.93    3.54
   6   1   9   89.13    3.62
  -7  -1  -9   35.65    1.75
   7  -1   9   37.81    1.95
  -7   1  -9   38.43    1.80
   7   1   9   40.88    1.91
   8  -1   9   73.56    3.30
  -8  -1  -9   78.58    3.10
  -8   1  -9   72.86    3.10
   8   1   9   74.97    3.36
  10   2  -9   23.69    1.40
   9   2  -9    1.59    0.38
  -8  -2   9    8.46    0.67
   8  -2  -9    8.08    0.62
   8   2  -9    7.74    0.71
  -7  -2   9    3.51    0.45
   7  -2  -9    3.42    0.42
   7   2  -9    3.57    0.49
   6  -2  -9    1.77    0.32
  -6  -2   9    2.00    0.37
  -6   2   9    1.94    0.32
   6   2  -9    2.15    0.39
   5  -2  -9   67.52    2.67
  -5  -2   9   70.26    2.76
   5   2  -9   63.72    2.63
   5   2  -9   63.02    2.74
  -5   2   9   64.85    2.65
   4  -2  -9   32.78    1.61
  -4  -2   9   34.22    1.70
  -4   2   9   39.09    1.65
   4   2  -9   39.35    1.56
   4   2  -9   38.80    1.75
   3  -2  -9   58.88    2.36
  -3  -2   9   57.23    2.42
   3   2  -9   57.23    2.25
  -3   2   9   55.32    2.33
   3   2  -9   55.17    2.40
   2  -2  -9  154.81    5.70
  -2  -2   9  153.91    5.77
  -2   2   9  152.84    5.69
   2   2  -9  152.62    5.76
   2   2  -9  155.60    5.60
  -1  -2   9  125.83    4.91
   1  -2  -9  128.63    4.86
   1   2  -9  128.90    4.92
  -1   2   9  131.43    4.86
   1   2  -9  132.50    4.77
   0  -2   9  118.71    4.86
   0  -2  -9  133.32    4.86
   0  -2   9  130.50    4.94
   0   2  -9  126.77    4.76
   0   2   9  135.02    4.87
   1  -2   9  127.99    5.05
   1  -2   9  120.05    4.95
  -1  -2  -9  130.85    4.95
  -1   2  -9  138.09    4.93
   1   2   9  143.34    5.01
   2  -2   9  140.13    5.30
   2  -2   9  143.26    5.42
  -2  -2  -9  144.12    5.28
   2   2   9  139.47    5.29
  -2   2  -9  138.55    5.24
   3  -2   9   34.93    1.73
  -3  -2  -9   35.00    1.60
   3  -2   9   35.62    1.63
  -3   2  -9   35.39    1.60
   3   2   9   32.60    1.60
   4  -2   9   21.92    1.27
   4  -2   9   22.04    1.14
  -4  -2  -9   22.40    1.16
   4   2   9   20.03    1.13
  -4   2  -9   19.67    1.10
   5  -2   9    5.21    0.59
  -5  -2  -9    5.03    0.50
  -5   2  -9    4.95    0.49
   5   2   9    4.45    0.50
  -6  -2  -9    3.48    0.43
   6  -2   9    2.75    0.50
   6   2   9    3.74    0.46
  -6   2  -9    3.83    0.45
   7  -2   9   12.38    1.00
  -7  -2  -9   12.78    0.84
  -7   2  -9   12.14    0.85
   8  -2   9   35.06    1.92
  -8   2  -9   34.03    1.69
   9  -3  -9   25.75    1.32
  -9  -3   9   24.60    1.34
   9   3  -9   24.33    1.42
   8  -3  -9   37.36    1.75
  -8  -3   9   37.38    1.80
   8   3  -9   38.94    1.90
  -7  -3   9   48.51    2.15
   7  -3  -9   47.24    2.10
   7   3  -9   48.86    2.23
   6  -3  -9   51.16    2.23
  -6  -3   9   51.29    2.29
  -6   3   9   53.35    2.17
   6   3  -9   52.99    2.35
  -5  -3   9   65.96    2.69
   5  -3  -9   63.82    2.62
   5   3  -9   62.35    2.70
  -5   3   9   62.17    2.55
   4  -3  -9   84.12    3.33
  -4  -3   9   84.77    3.40
  -4   3   9   86.20    3.29
   4   3  -9   82.04    3.41
   4   3  -9   83.34    3.23
   3  -3  -9   39.87    1.77
  -3  -3   9   40.94    1.84
   3   3  -9   38.39    1.62
  -3   3   9   38.36    1.73
   3   3  -9   38.01    1.83
   2  -3  -9   24.90    1.25
  -2  -3   9   27.07    1.34
  -2   3   9   23.63    1.23
   2   3  -9   23.85    1.12
   2   3  -9   23.17    1.29
   1  -3  -9    1.30    0.29
  -1  -3   9    0.61    0.23
   1   3  -9    0.68    0.23
  -1   3   9    0.55    0.22
   1   3  -9    0.79    0.20
   0  -3  -9   25.06    1.27
   0  -3   9   23.49    1.28
   0  -3   9   26.02    1.36
   0   3  -9   23.58    1.16
   0   3   9   23.65    1.24
   1  -3   9   20.01    1.22
  -1  -3  -9   18.95    1.11
   1  -3   9   18.27    1.12
  -1   3  -9   23.65    1.10
   1   3   9   24.48    1.17
  -2  -3  -9  127.53    4.77
   2  -3   9  127.20    4.91
   2  -3   9  106.21    4.73
  -2   3  -9  131.35    4.70
   2   3   9  131.68    4.75
  -3  -3  -9   62.45    2.50
   3  -3   9   60.91    2.65
   3  -3   9   49.30    2.44
  -3   3  -9   61.42    2.44
   3   3   9   59.23    2.46
  -4  -3  -9  118.07    4.46
   4  -3   9  113.97    4.64
  -4   3  -9  114.25    4.40
   4   3   9  115.62    4.43
  -5  -3  -9   88.93    3.48
   5  -3   9   86.89    3.68
   5   3   9   85.23    3.45
  -5   3  -9   86.29    3.44
  -6  -3  -9   96.55    3.79
   6  -3   9   93.03    4.01
   6   3   9   94.72    3.77
  -6   3  -9   97.70    3.78
   7  -3   9   45.64    2.28
   7   3   9   43.82    2.01
  -7   3  -9   43.73    2.02
   8  -3   9   28.48    1.98
  -8   3  -9   27.29    1.72
  10  -4  -9   13.46    0.95
   9  -4  -9   10.53    0.80
  -9  -4   9    9.19    0.78
   9   4  -9   11.43    0.90
   8  -4  -9   10.44    0.78
  -8  -4   9   11.18    0.83
   8   4  -9   10.01    0.85
  -7  -4   9   10.34    0.81
   7  -4  -9   10.29    0.77
   7   4  -9   11.19    0.86
   6  -4  -9    6.90    0.60
  -6  -4   9    5.51    0.58
   6   4  -9    7.00    0.67
   5  -4  -9   20.03    1.16
  -5  -4   9   20.57    1.20
  -5   4   9   22.50    1.11
   5   4  -9   23.49    1.29
   4  -4  -9   11.33    0.80
  -4  -4   9   11.55    0.84
  -4   4   9   14.59    0.82
   4   4  -9   13.43    0.92
   3  -4  -9  119.27    4.48
  -3  -4   9  119.73    4.55
   3   4  -9  116.84    4.35
   3   4  -9  111.58    4.55
  -3   4   9  114.47    4.42
  -2  -4   9   43.70    1.94
   2  -4  -9   41.45    1.86
   2   4  -9   40.09    1.93
   2   4  -9   38.90    1.68
  -2   4   9   39.42    1.82
   1  -4  -9  155.95    5.51
  -1  -4   9  150.11    5.55
  -1   4   9  141.28    5.42
   1   4  -9  139.63    5.31
   1   4  -9  140.39    5.56
   0  -4   9  126.82    4.92
   0  -4   9  127.44    5.02
   0  -4  -9  120.56    4.85
   0   4  -9  132.10    4.75
   0   4   9  131.00    4.83
   1  -4   9   91.36    3.65
   1  -4   9   95.50    3.78
  -1  -4  -9   90.73    3.61
  -1   4  -9   86.00    3.45
   1   4   9   88.02    3.53
  -2  -4  -9   84.29    3.63
   2  -4   9   87.63    3.67
   2  -4   9   91.16    3.82
  -2   4  -9   96.82    3.57
   2   4   9   99.70    3.64
  -3  -4  -9   18.02    1.08
   3  -4   9   18.63    1.09
   3  -4   9   20.36    1.25
   3   4   9   18.79    1.07
  -3   4  -9   18.67    1.02
   4  -4   9   12.85    1.00
  -4  -4  -9   12.47    0.87
   4   4   9   14.08    0.89
  -4   4  -9   13.43    0.84
   5  -4   9    0.29    0.24
  -5  -4  -9    0.12    0.18
   5   4   9    0.26    0.21
  -5   4  -9    0.28    0.20
   6  -4   9    6.46    0.74
  -6   4  -9    5.95    0.57
   6   4   9    5.85    0.60
   7  -4   9   11.11    1.00
  -7   4  -9   11.13    0.82
   7   4   9   12.17    0.86
  -9  -5   9   22.49    1.32
   9  -5  -9   21.21    1.25
   8  -5  -9   49.79    2.28
  -8  -5   9   51.62    2.35
   8   5  -9   50.40    2.38
  -7  -5   9   31.04    1.64
   7  -5  -9   31.08    1.59
   7   5  -9   33.51    1.72
  -6  -5   9   40.34    1.94
   6  -5  -9   38.40    1.87
   6   5  -9   41.53    2.00
  -5  -5   9   74.54    3.11
   5  -5  -9   72.30    3.04
   5   5  -9   74.00    3.16
   4  -5  -9   32.09    1.58
  -4  -5   9   32.29    1.62
  -4   5   9   31.64    1.50
   4   5  -9   31.76    1.67
   3  -5  -9   29.23    1.42
  -3  -5   9   29.70    1.49
  -3   5   9   25.78    1.35
   3   5  -9   25.02    1.46
   2  -5  -9   14.22    0.92
  -2  -5   9   13.96    0.95
  -2   5   9   14.27    0.89
   2   5  -9   14.21    0.83
   2   5  -9   14.84    1.01
  -1  -5   9    5.76    0.59
   1  -5  -9    6.41    0.59
  -1   5   9    6.34    0.57
   1   5  -9    6.76    0.66
   1   5  -9    6.46    0.50
   0  -5   9    9.15    0.73
   0  -5  -9   10.69    0.76
   0   5   9    9.30    0.70
   0   5  -9    9.24    0.63
   1  -5   9   26.74    1.55
  -1  -5  -9   27.42    1.42
   1  -5   9   29.40    1.47
   1   5   9   27.18    1.38
  -1   5  -9   27.26    1.30
   2  -5   9   19.48    1.26
  -2  -5  -9   17.61    1.09
   2  -5   9   19.75    1.12
  -2   5  -9   18.57    1.01
   2   5   9   18.86    1.08
  -3  -5  -9   51.87    2.55
   3  -5   9   63.52    2.83
  -3   5  -9   61.90    2.50
   3   5   9   63.65    2.58
   4  -5   9   80.38    3.41
  -4  -5  -9   64.47    3.10
  -4   5  -9   78.16    3.06
   4   5   9   80.36    3.13
   5  -5   9   64.63    3.05
  -5   5  -9   66.19    2.74
   5   5   9   68.27    2.81
   6  -5   9   52.04    2.66
  -6   5  -9   55.21    2.36
   6   5   9   56.02    2.42
   7   5   9   90.02    3.66
  -8  -6   9    5.37    0.66
   8  -6  -9    4.79    0.82
   7  -6  -9    1.15    0.34
  -7  -6   9    1.42    0.38
   7   6  -9    0.95    0.35
  -6  -6   9    4.85    0.59
   6  -6  -9    4.90    0.56
   6   6  -9    4.70    0.62
  -5  -6   9    8.05    0.75
   5  -6  -9    6.90    0.67
   5   6  -9    9.36    0.81
   4  -6  -9   17.38    1.04
  -4  -6   9   16.93    1.08
  -4   6   9   14.65    0.93
   4   6  -9   14.91    1.07
  -3  -6   9   59.77    2.61
   3  -6  -9   59.08    2.54
   3   6  -9   58.87    2.66
  -3   6   9   55.69    2.45
   2  -6  -9   60.11    2.56
  -2  -6   9   61.10    2.62
  -2   6   9   57.59    2.47
   2   6  -9   57.33    2.67
  -1  -6   9   61.90    2.71
   1  -6  -9   64.84    2.69
   1   6  -9   61.27    2.71
  -1   6   9   61.89    2.59
   1   6  -9   61.39    2.80
   0  -6  -9   89.30    3.61
   0  -6   9   90.20    3.65
   0   6  -9   86.66    3.41
   0   6   9   87.34    3.53
   0   6  -9   92.69    3.79
   1  -6   9   52.79    2.37
   1  -6   9   55.08    2.57
  -1  -6  -9   52.12    2.34
   1   6   9   51.86    2.29
  -1   6  -9   53.40    2.21
  -2  -6  -9   39.63    1.91
   2  -6   9   39.39    2.09
   2  -6   9   42.95    1.92
  -2   6  -9   39.60    1.77
   2   6   9   38.44    1.83
   3  -6   9   10.71    0.96
  -3  -6  -9   10.89    0.82
  -3   6  -9   11.52    0.75
   3   6   9   11.56    0.81
   4  -6   9   12.85    1.08
  -4   6  -9   13.77    0.86
   4   6   9   13.12    0.89
   5  -6   9    5.42    0.71
  -5   6  -9    5.29    0.53
   5   6   9    5.05    0.58
   6   6   9    0.82    0.35
  -6  -7   9   43.98    2.12
   6  -7  -9   41.15    2.02
   6   7  -9   40.86    2.10
   5  -7  -9   10.03    0.81
  -5  -7   9   10.16    0.85
   5   7  -9    8.78    0.84
   4  -7  -9   33.90    1.69
  -4  -7   9   33.30    1.75
   4   7  -9   32.06    1.77
   3  -7  -9   32.51    1.66
  -3  -7   9   32.93    1.72
   3   7  -9   31.88    1.76
  -3   7   9   32.76    1.58
  -2  -7   9    6.40    0.66
   2  -7  -9    6.26    0.63
   2   7  -9    6.88    0.71
  -2   7   9    6.54    0.60
  -1  -7   9    0.76    0.27
   1  -7  -9    0.95    0.29
   1   7  -9    1.05    0.34
  -1   7   9    0.99    0.28
   0  -7  -9    1.28    0.33
   0  -7   9    1.22    0.34
   0   7  -9    2.05    0.46
   0   7   9    1.97    0.37
  -1  -7  -9   19.59    1.16
   1  -7   9   20.22    1.18
   1  -7   9   19.55    1.34
   1   7   9   18.65    1.10
  -1   7  -9   18.12    1.01
   2  -7   9   25.82    1.62
  -2  -7  -9   28.15    1.45
   2   7   9   25.03    1.36
  -2   7  -9   26.07    1.29
   3  -7   9   28.91    1.77
  -3   7  -9   30.35    1.45
   3   7   9   30.14    1.52
   4  -7   9   23.64    1.55
   4   7   9   22.55    1.27
  -4   7  -9   22.17    1.20
   4  -8  -9   13.22    0.97
  -4  -8   9   13.69    1.03
   4   8  -9   12.83    1.03
   3  -8  -9   18.10    1.13
  -3  -8   9   19.02    1.21
   3   8  -9   14.34    1.14
  -2  -8   9   52.54    2.51
   2  -8  -9   52.28    2.44
  -2   8   9   55.35    2.37
   2   8  -9   56.48    2.62
  -1  -8   9   53.79    2.45
   1  -8  -9   53.48    2.38
   1   8  -9   49.92    2.51
  -1   8   9   50.63    2.28
   0  -8   9   54.57    2.49
   0  -8  -9   53.61    2.44
   0   8  -9   55.20    2.63
   0   8   9   52.72    2.36
  -1  -8  -9   36.27    1.78
  -1   8  -9   35.05    1.95
   1   8   9   34.37    1.71
   2  -8   9   20.16    1.42
   2   8   9   19.97    1.17
  -2   8  -9   19.62    1.07
  -3   8  -9   10.16    0.73
   1  -9  -9    1.99    0.55
  -1  -9   9    1.97    0.48
  -1   9   9    1.21    0.33
   0  -9   9    1.68    0.55
   0  -9  -9    2.01    0.43
  10   0 -10   21.02    1.30
   9   0 -10   14.22    0.99
   8   0 -10  123.14    4.80
  -7   0  10   29.45    1.43
   7   0 -10   26.86    1.43
   6   0 -10    9.01    0.63
  -6   0  10   10.34    0.74
   6   0 -10    9.66    0.72
   5   0 -10   11.43    0.77
  -5   0  10   10.63    0.77
   5   0 -10   11.15    0.71
  -4   0  10    1.89    0.35
   4   0 -10    1.91    0.31
   4   0 -10    1.97    0.34
   3   0 -10    0.24    0.18
   3   0 -10    0.19    0.16
  -3   0  10    0.41    0.21
   2   0 -10   41.94    1.85
  -2   0  10   44.10    1.93
   2   0 -10   42.13    1.86
   1   0 -10  118.43    4.54
  -1   0  10  124.39    4.61
   1   0 -10  120.98    4.56
   0   0 -10  127.24    4.90
   0   0  10  136.45    4.98
   1   0  10  145.31    5.49
  -1   0 -10  145.10    5.46
   1   0  10  151.46    5.50
   2   0  10  189.77    7.10
   2   0  10  194.38    7.08
  -2   0 -10  196.25    7.07
   3   0  10   55.04    2.39
  -3   0 -10   54.39    2.31
   3   0  10   55.42    2.32
  -4   0 -10   63.66    2.66
   4   0  10   64.31    2.75
   4   0  10   65.31    2.65
   5   0  10   28.06    1.36
  -5   0 -10   26.55    1.38
   5   0  10   27.87    1.47
   6   0  10   25.99    1.45
  -6   0 -10   24.71    1.32
  -7   0 -10    0.34    0.23
   7   0  10    0.22    0.23
   8   0  10    1.86    0.45
  -8   0 -10    2.25    0.41
  10  -1 -10    0.93    0.53
  10   1 -10    0.72    0.32
   9  -1 -10    0.71    0.30
   9   1 -10    0.73    0.31
   8  -1 -10   16.39    1.03
  -8  -1  10   14.73    0.97
   8   1 -10   17.57    1.09
  -7  -1  10   31.06    1.50
   7  -1 -10   31.28    1.49
   7  -1 -10   30.90    1.42
   7   1 -10   25.86    1.47
  -7   1  10   27.18    1.42
   6  -1 -10  111.64    4.43
  -6  -1  10  117.82    4.52
   6  -1 -10  114.59    4.41
   6   1 -10  119.90    4.54
  -6   1  10  119.22    4.47
  -5  -1  10   45.22    2.03
   5  -1 -10   44.46    1.93
   5  -1 -10   42.84    1.92
   5   1 -10   44.63    2.01
   5   1 -10   46.19    1.89
  -5   1  10   44.95    1.97
   4  -1 -10  106.58    3.99
  -4  -1  10  100.36    4.05
   4  -1 -10  104.57    3.93
   4   1 -10  102.81    4.03
   4   1 -10  102.41    3.91
  -4   1  10  104.59    4.01
  -3  -1  10  108.09    4.25
   3  -1 -10  112.95    4.19
   3  -1 -10  111.17    4.10
   3   1 -10  105.83    4.19
  -3   1  10  107.93    4.18
   3   1 -10  108.59    4.11
   2  -1 -10  167.15    6.21
   2  -1 -10  169.98    6.14
  -2  -1  10  164.04    6.27
  -2   1  10  172.16    6.24
   2   1 -10  169.43    6.25
   2   1 -10  170.39    6.16
   1  -1 -10   89.36    3.45
  -1  -1  10   91.72    3.60
   1  -1 -10   86.43    3.53
   1   1 -10   91.21    3.57
   1   1 -10   93.47    3.50
  -1   1  10   92.63    3.56
   0  -1  10   26.84    1.30
   0  -1 -10   24.14    1.16
   0  -1 -10   24.30    1.22
   0  -1  10   24.64    1.27
   0   1  10   21.85    1.19
   0   1 -10   22.19    1.16
  -1  -1 -10    0.71    0.24
   1  -1  10    0.24    0.17
   1  -1  10    0.16    0.16
   1   1  10    0.15    0.16
  -1   1 -10    0.44    0.19
   1   1  10    0.37    0.18
   2  -1  10    0.42    0.21
   2   1  10    0.56    0.22
   2   1  10    1.11    0.25
  -2   1 -10    0.39    0.19
   3  -1  10   35.16    1.76
   3  -1  10   36.33    1.66
  -3  -1 -10   37.69    1.69
   3   1  10   38.64    1.70
  -3   1 -10   35.28    1.66
   3   1  10   34.09    1.66
   4  -1  10   28.54    1.58
  -4  -1 -10   30.12    1.48
   4  -1  10   32.02    1.48
   4   1  10   30.51    1.49
   4   1  10   32.00    1.64
  -4   1 -10   31.53    1.51
   5  -1  10   56.33    2.58
   5  -1  10   60.97    2.43
  -5  -1 -10   57.62    2.44
   5   1  10   55.70    2.42
  -5   1 -10   56.53    2.47
   6  -1  10   61.24    2.66
  -6  -1 -10   58.64    2.46
  -6   1 -10   55.52    2.47
   6   1  10   53.55    2.40
  -7  -1 -10   70.06    2.96
   7  -1  10   70.94    3.18
  -7   1 -10   73.96    3.03
  -8  -1 -10   48.66    2.21
   8  -1  10   50.34    2.46
  -8   1 -10   49.77    2.89
   9   2 -10   43.12    2.12
   8  -2 -10   48.99    2.13
  -8  -2  10   49.17    2.20
   8   2 -10   48.36    2.27
   7  -2 -10   31.80    1.52
  -7  -2  10   32.85    1.60
   7   2 -10   30.48    1.62
  -6  -2  10   38.47    1.85
   6  -2 -10   39.54    1.78
   6   2 -10   38.91    1.87
  -6   2  10   39.51    1.76
  -5  -2  10   -0.02    0.18
   5  -2 -10    0.24    0.19
   5   2 -10    0.33    0.23
  -5   2  10    0.78    0.25
   4  -2 -10    3.18    0.42
  -4  -2  10    3.74    0.49
   4   2 -10    3.36    0.45
   4   2 -10    3.75    0.38
  -4   2  10    3.75    0.43
  -3  -2  10   14.59    0.96
   3  -2 -10   15.98    0.94
  -3   2  10   15.82    0.91
   3   2 -10   15.45    0.96
   3   2 -10   15.36    0.83
  -2  -2  10   13.52    0.94
   2  -2 -10   14.19    0.91
  -2   2  10   16.48    0.93
   2   2 -10   16.89    0.99
   2   2 -10   17.11    0.87
   1  -2 -10  129.21    4.82
  -1  -2  10  127.48    4.90
  -1   2  10  128.60    4.80
   1   2 -10  127.02    4.71
   1   2 -10  122.24    4.84
   0  -2  10   99.32    3.92
   0  -2  10   93.20    3.86
   0  -2 -10  101.27    3.85
   0   2 -10   98.02    3.74
   0   2  10   98.64    3.82
   1  -2  10  150.23    5.78
  -1  -2 -10  155.93    5.75
   1  -2  10  151.43    5.84
   1   2  10  158.92    5.78
  -1   2 -10  153.33    5.69
   2  -2  10   94.69    3.66
   2  -2  10   88.30    3.72
  -2  -2 -10   93.77    3.62
  -2   2 -10   91.55    3.60
   2   2  10   91.12    3.64
  -3  -2 -10  100.12    3.91
   3  -2  10  104.76    3.95
   3  -2  10  102.00    4.07
  -3   2 -10   97.92    3.90
   3   2  10   96.14    3.93
  -4  -2 -10   78.36    3.11
   4  -2  10   80.52    3.13
   4  -2  10   75.81    3.27
  -4   2 -10   74.87    3.10
   4   2  10   72.73    3.11
  -5  -2 -10   22.20    1.21
   5  -2  10   22.64    1.37
  -5   2 -10   22.31    1.22
   5   2  10   21.52    1.22
  -6  -2 -10   15.49    0.99
   6  -2  10   15.59    1.14
   6   2  10   18.64    1.07
  -6   2 -10   17.45    1.05
   7  -2  10    7.56    0.81
  -7  -2 -10    8.42    0.69
  -7   2 -10    7.04    0.66
   9  -3 -10    2.03    0.39
  -9  -3  10    1.73    0.39
   9   3 -10    2.15    0.47
  -8  -3  10    7.90    0.71
   8  -3 -10    7.60    0.66
   8   3 -10    7.50    0.74
   7  -3 -10   39.88    1.88
  -7  -3  10   41.50    1.96
   7   3 -10   41.43    1.99
   6  -3 -10   35.91    1.71
  -6  -3  10   37.06    1.79
   6   3 -10   36.12    1.80
  -6   3  10   35.25    1.63
  -5  -3  10   76.33    3.17
   5  -3 -10   74.56    3.08
  -5   3  10   76.76    3.02
   5   3 -10   75.34    3.17
  -4  -3  10  129.04    4.92
   4  -3 -10  126.74    4.82
   4   3 -10  124.69    4.89
  -4   3  10  123.56    4.73
   3  -3 -10   83.68    3.40
  -3  -3  10   84.12    3.49
  -3   3  10   85.97    3.36
   3   3 -10   85.70    3.49
   3   3 -10   85.65    3.23
   2  -3 -10   91.87    3.58
  -2  -3  10   95.03    3.70
   2   3 -10   88.15    3.63
  -2   3  10   86.07    3.50
   2   3 -10   87.41    3.40
   1  -3 -10   11.59    0.83
  -1  -3  10   11.45    0.86
  -1   3  10   13.96    0.86
   1   3 -10   13.23    0.90
   1   3 -10   13.35    0.76
   0  -3  10   85.81    3.80
   0  -3  10   99.22    3.91
   0  -3 -10   99.30    3.81
   0   3  10   97.09    3.79
   0   3 -10   97.52    3.68
   1  -3  10    3.45    0.51
   1  -3  10    3.03    0.44
  -1  -3 -10    3.47    0.45
  -1   3 -10    4.93    0.47
   1   3  10    4.80    0.52
   2  -3  10   12.95    0.93
  -2  -3 -10   11.57    0.81
   2  -3  10   10.24    0.81
  -2   3 -10   12.34    0.79
   2   3  10   12.51    0.85
   3  -3  10   12.98    0.98
  -3  -3 -10   13.05    0.87
   3  -3  10   12.25    0.88
   3   3  10   14.32    0.92
  -3   3 -10   12.97    0.84
   4  -3  10   25.98    1.48
   4  -3  10   23.23    1.58
  -4  -3 -10   26.30    1.33
   4   3  10   23.04    1.30
  -4   3 -10   23.53    1.27
   5  -3  10   44.20    2.19
  -5  -3 -10   43.11    1.97
   5   3  10   42.01    1.99
  -5   3 -10   42.67    1.97
   6  -3  10   65.77    3.04
  -6  -3 -10   67.03    2.80
  -6   3 -10   66.52    2.81
   6   3  10   65.87    2.82
   7  -3  10   58.39    2.77
   7   3  10   56.99    2.51
  -7   3 -10   55.68    2.54
  -9  -4  10   31.65    1.66
   9  -4 -10   31.09    1.60
  -8  -4  10   22.05    1.28
   8  -4 -10   21.27    1.21
   8   4 -10   19.79    1.28
   7  -4 -10   35.59    1.74
  -7  -4  10   36.38    1.81
   7   4 -10   35.71    1.84
  -6  -4  10   29.44    1.56
   6  -4 -10   29.51    1.51
   6   4 -10   29.62    1.59
   5  -4 -10    2.77    0.44
  -5  -4  10    2.45    0.44
   5   4 -10    2.97    0.49
  -5   4  10    2.72    0.38
  -4  -4  10    0.81    0.28
   4  -4 -10    1.07    0.31
   4   4 -10    1.37    0.36
  -4   4  10    0.90    0.26
  -3  -4  10   17.43    1.10
   3  -4 -10   16.70    1.02
  -3   4  10   16.82    0.97
   3   4 -10   15.86    1.06
   2  -4 -10   39.69    1.83
  -2  -4  10   40.94    1.91
   2   4 -10   37.95    1.88
   2   4 -10   36.29    1.62
  -2   4  10   36.47    1.76
  -1  -4  10   36.73    1.89
   1  -4 -10   37.34    1.84
   1   4 -10   40.95    1.94
  -1   4  10   40.07    1.84
   1   4 -10   41.36    1.72
   0  -4  10   85.76    3.64
   0  -4 -10   86.08    3.57
   0   4  10   90.62    3.56
   0   4 -10   92.23    3.46
   1  -4  10   69.70    3.18
   1  -4  10   76.87    3.29
  -1  -4 -10   72.67    3.15
  -1   4 -10   82.10    3.07
   1   4  10   80.43    3.15
   2  -4  10  115.69    4.53
  -2  -4 -10  106.31    4.33
   2  -4  10   98.12    4.34
  -2   4 -10  115.65    4.25
   2   4  10  116.14    4.33
   3  -4  10   72.01    3.42
  -3  -4 -10   83.85    3.46
   3  -4  10   89.76    3.67
   3   4  10   91.19    3.47
  -3   4 -10   86.77    3.38
  -4  -4 -10   38.87    1.84
   4  -4  10   36.39    1.97
   4   4  10   38.01    1.81
  -4   4 -10   37.89    1.76
  -5  -4 -10   28.13    1.44
   5  -4  10   26.93    1.60
  -5   4 -10   23.95    1.33
   5   4  10   25.83    1.40
   6  -4  10   17.51    1.25
  -6   4 -10   16.55    1.03
   6   4  10   15.83    1.05
   7   4  10    0.23    0.24
   8  -5 -10    4.06    0.55
  -8  -5  10    4.65    0.60
   8   5 -10    3.10    0.68
  -7  -5  10    4.36    0.59
   7  -5 -10    4.86    0.57
   7   5 -10    6.15    0.68
  -6  -5  10   37.11    1.81
   6  -5 -10   33.28    1.70
   6   5 -10   31.72    1.76
   5  -5 -10   77.97    3.19
  -5  -5  10   76.52    3.24
   5   5 -10   73.27    3.25
  -4  -5  10  103.52    4.24
   4  -5 -10  104.69    4.17
  -4   5  10  104.80    4.05
   4   5 -10  107.00    4.28
  -3  -5  10   38.22    1.84
   3  -5 -10   35.40    1.74
   3   5 -10   34.93    1.82
  -3   5  10   33.65    1.66
  -2  -5  10  109.37    4.46
   2  -5 -10  113.69    4.41
  -2   5  10  109.15    4.33
   2   5 -10  114.43    4.52
  -1  -5  10   22.87    1.35
   1  -5 -10   22.78    1.30
   1   5 -10   24.70    1.41
   1   5 -10   23.18    1.16
  -1   5  10   24.48    1.29
   0  -5 -10   16.49    1.05
   0  -5  10   15.76    1.07
   0   5  10   16.78    1.02
   0   5 -10   16.52    0.93
  -1  -5 -10    5.56    0.59
   1  -5  10    6.55    0.70
   1  -5  10    5.52    0.60
  -1   5 -10    6.00    0.53
   1   5  10    6.45    0.61
   2  -5  10    2.00    0.45
   2  -5  10    2.26    0.44
  -2  -5 -10    2.62    0.47
  -2   5 -10    2.30    0.36
   2   5  10    2.53    0.43
  -3  -5 -10   18.51    1.19
   3  -5  10   21.88    1.39
   3   5  10   21.35    1.20
  -3   5 -10   21.19    1.14
   4  -5  10   31.23    1.80
  -4  -5 -10   28.91    1.61
   4   5  10   32.16    1.60
  -4   5 -10   32.65    1.56
   5  -5  10   39.54    2.12
   5   5  10   39.13    1.89
  -5   5 -10   39.14    1.84
   6   5  10   33.46    1.72
  -7  -6  10    7.46    0.81
   7  -6 -10    7.00    0.72
   7   6 -10    8.21    1.20
   6  -6 -10   28.28    1.52
  -6  -6  10   29.20    1.60
   6   6 -10   26.16    1.58
  -5  -6  10   19.98    1.29
   5  -6 -10   21.97    1.28
   5   6 -10   21.80    1.35
  -4  -6  10    0.42    0.26
   4  -6 -10    0.50    0.25
  -4   6  10    0.53    0.25
   4   6 -10    0.53    0.31
   3  -6 -10   11.36    0.85
  -3  -6  10   11.57    0.91
  -3   6  10   10.32    0.79
   3   6 -10   10.71    0.91
  -2  -6  10   26.68    1.52
   2  -6 -10   27.20    1.47
  -2   6  10   27.17    1.42
   2   6 -10   27.33    1.56
  -1  -6  10   29.15    1.60
   1  -6 -10   29.47    1.55
   1   6 -10   29.12    1.64
  -1   6  10   28.27    1.47
   0  -6 -10   64.67    2.85
   0  -6  10   62.97    2.88
   0   6 -10   66.23    2.67
   0   6 -10   68.98    3.01
   0   6  10   66.22    2.78
  -1  -6 -10   60.86    2.78
   1  -6  10   67.08    2.86
   1  -6  10   65.23    2.99
   1   6  10   64.15    2.73
  -1   6 -10   63.86    2.63
   2  -6  10   84.54    3.67
  -2  -6 -10   76.18    3.44
   2  -6  10   85.25    3.56
  -2   6 -10   85.67    3.32
   2   6  10   84.92    3.42
   3  -6  10   55.80    2.64
  -3  -6 -10   48.28    2.38
  -3   6 -10   53.52    2.28
   3   6  10   53.09    2.36
   4  -6  10   32.47    1.90
   4   6  10   33.43    1.68
  -4   6 -10   33.60    1.62
   5  -7 -10   34.22    1.82
  -5  -7  10   36.58    1.92
   5   7 -10   35.35    1.90
  -4  -7  10   70.88    3.06
   4  -7 -10   68.11    2.95
   4   7 -10   63.10    3.01
   3  -7 -10   70.33    3.08
  -3  -7  10   72.90    3.18
   3   7 -10   73.94    3.22
  -3   7  10   69.67    2.98
  -2  -7  10   23.52    1.41
   2  -7 -10   23.19    1.35
   2   7 -10   23.67    1.45
  -2   7  10   22.51    1.27
  -1  -7  10   26.71    1.54
   1  -7 -10   26.51    1.48
  -1   7  10   27.04    1.43
   1   7 -10   27.49    1.60
   0  -7 -10   17.82    1.13
   0  -7  10   18.23    1.18
   0   7  10   16.03    1.05
   0   7 -10   17.59    1.22
  -1  -7 -10    0.85    0.33
   1  -7  10    1.67    0.40
   1   7  10    0.56    0.27
  -1   7 -10    1.30    0.30
   2  -7  10    0.57    0.31
  -2  -7 -10    0.75    0.30
  -2   7 -10    0.45    0.23
   2   7  10    0.51    0.26
   3  -7  10    5.65    1.01
   3   7  10    6.51    0.78
  -3   7 -10    5.76    0.57
   2  -8 -10   12.87    0.99
  -2  -8  10   13.00    1.04
  -2   8  10   13.80    0.94
   2   8 -10   13.54    1.36
   1  -8 -10   30.16    1.64
  -1  -8  10   32.63    1.74
   1   8 -10   28.88    1.84
  -1   8  10   29.19    1.55
   0  -8 -10   34.63    1.80
   0  -8  10   35.25    1.85
   0   8 -10   33.63    2.55
   0   8  10   34.54    1.73
  -1  -8 -10   35.30    1.83
  -2   8 -10   39.99    1.93
  10   0 -11   12.91    0.99
   9   0 -11   43.05    2.08
   8   0 -11   97.51    3.94
   7   0 -11   32.64    1.63
  -7   0  11   32.80    1.63
  -6   0  11   20.00    1.17
   6   0 -11   20.89    1.16
   6   0 -11   20.56    1.09
  -5   0  11   33.02    1.64
   5   0 -11   32.74    1.59
   5   0 -11   34.06    1.56
   4   0 -11   93.04    3.66
  -4   0  11   94.61    3.76
   4   0 -11   95.68    3.71
   3   0 -11    8.68    0.65
  -3   0  11    8.45    0.69
   3   0 -11    8.54    0.64
  -2   0  11   15.31    0.95
   2   0 -11   14.70    0.89
   2   0 -11   16.24    0.92
  -1   0  11    0.39    0.20
   1   0 -11    0.43    0.19
   1   0 -11    0.26    0.17
   0   0 -11    2.77    0.38
   0   0  11    2.88    0.39
   0   0 -11    2.34    0.35
   1   0  11   36.98    1.71
  -1   0 -11   36.22    1.68
   1   0  11   36.98    1.71
   2   0  11   81.91    3.27
  -2   0 -11   82.41    3.27
   2   0  11   81.04    3.31
  -3   0 -11   39.93    1.80
   3   0  11   38.71    1.78
   3   0  11   38.72    1.86
   4   0  11  128.34    4.97
   4   0  11  128.89    4.85
  -4   0 -11  124.80    4.86
  -5   0 -11   98.46    3.92
   5   0  11   97.91    4.04
   5   0  11  101.81    3.89
   6   0  11   53.96    2.98
  -6   0 -11   50.95    2.30
  -7   0 -11   21.77    1.23
   9   1 -11   15.71    1.10
  -8  -1  11    2.83    0.48
   8   1 -11    4.42    0.57
  -7  -1  11   11.78    0.87
   7  -1 -11   11.40    0.78
  -7   1  11   11.32    0.82
   7   1 -11   11.47    0.87
  -6  -1  11   14.08    0.96
   6  -1 -11   14.08    0.88
   6   1 -11   15.28    0.97
  -6   1  11   14.80    0.94
   5  -1 -11   16.72    0.96
  -5  -1  11   15.06    1.00
  -5   1  11   15.40    0.96
   5   1 -11   16.11    0.99
   5   1 -11   15.36    0.88
  -4  -1  11   56.46    2.53
   4  -1 -11   59.88    2.47
   4   1 -11   57.09    2.49
  -4   1  11   59.64    2.49
   4   1 -11   58.65    2.40
   3  -1 -11   90.53    3.53
  -3  -1  11   86.77    3.59
   3   1 -11   87.78    3.54
   3   1 -11   89.27    3.45
  -3   1  11   90.46    3.54
   2  -1 -11  127.89    4.76
  -2  -1  11  126.33    4.82
   2   1 -11  121.20    4.67
   2   1 -11  124.48    4.77
  -2   1  11  124.29    4.74
  -1  -1  11   80.83    3.40
   1  -1 -11   76.18    3.32
  -1   1  11   88.44    3.38
   1   1 -11   89.86    3.41
   1   1 -11   87.82    3.32
   0  -1 -11   72.76    2.89
   0  -1  11   73.87    2.96
   0   1  11   69.23    2.88
   0   1 -11   67.14    2.83
   1  -1  11   67.25    2.87
  -1  -1 -11   66.37    2.79
   1  -1  11   72.66    2.88
  -1   1 -11   69.29    2.78
   1   1  11   67.11    2.81
  -2  -1 -11   41.96    1.85
   2  -1  11   42.36    1.94
   2  -1  11   41.96    1.87
  -2   1 -11   37.47    1.80
   2   1  11   38.96    1.84
   3  -1  11   22.82    1.23
  -3  -1 -11   24.21    1.26
   3  -1  11   23.37    1.34
  -3   1 -11   23.54    1.24
   3   1  11   23.60    1.25
   4  -1  11    4.16    0.46
  -4  -1 -11    4.29    0.49
   4  -1  11    4.40    0.56
  -4   1 -11    3.84    0.46
   4   1  11    3.69    0.46
  -5  -1 -11    9.45    0.72
   5  -1  11    9.71    0.83
  -5   1 -11    9.28    0.73
   5   1  11    9.42    0.71
   6  -1  11    6.66    0.72
  -6  -1 -11    6.26    0.59
  -6   1 -11    6.88    0.64
   6   1  11    6.54    0.70
   7  -1  11   34.57    1.86
  -7  -1 -11   32.90    1.65
  -7   1 -11   33.47    2.26
   9   2 -11   44.76    2.20
   8  -2 -11   27.42    1.42
  -8  -2  11   27.44    1.50
   8   2 -11   29.07    1.57
   7  -2 -11   35.97    1.70
  -7  -2  11   36.36    1.79
   7   2 -11   34.83    1.80
   6  -2 -11   70.60    2.89
  -6  -2  11   71.12    3.01
   6   2 -11   68.39    2.97
  -6   2  11   69.20    2.87
  -5  -2  11   52.99    2.37
   5  -2 -11   52.95    2.28
  -5   2  11   52.36    2.24
   5   2 -11   49.30    2.30
   4  -2 -11   19.32    1.14
  -4  -2  11   20.29    1.24
   4   2 -11   20.76    1.20
  -4   2  11   22.36    1.17
   4   2 -11   22.27    1.08
  -3  -2  11   11.53    0.87
   3  -2 -11   13.57    0.87
   3   2 -11   12.57    0.76
   3   2 -11   12.91    0.88
  -3   2  11   12.32    0.82
  -2  -2  11    5.76    0.60
   2  -2 -11    5.96    0.57
  -2   2  11    6.08    0.56
   2   2 -11    6.30    0.60
   2   2 -11    7.02    0.54
   1  -2 -11    9.03    0.70
  -1  -2  11    8.66    0.74
   1   2 -11    9.45    0.65
  -1   2  11    8.93    0.69
   1   2 -11    8.61    0.70
   0  -2  11   38.79    1.87
   0  -2 -11   39.68    1.83
   0   2  11   38.92    1.80
   0   2 -11   39.97    1.75
   1  -2  11   11.34    0.84
  -1  -2 -11   11.81    0.82
   1  -2  11   11.20    0.87
   1   2  11   14.12    0.87
  -1   2 -11   14.28    0.83
  -2  -2 -11   75.77    3.01
   2  -2  11   74.80    3.13
   2  -2  11   75.44    3.04
  -2   2 -11   69.52    2.95
   2   2  11   69.78    2.99
  -3  -2 -11   93.38    3.59
   3  -2  11   92.58    3.61
   3  -2  11   89.79    3.73
   3   2  11   87.16    3.59
  -3   2 -11   84.76    3.55
  -4  -2 -11   91.08    3.61
   4  -2  11   91.25    3.79
   4  -2  11   93.22    3.61
  -4   2 -11   87.74    3.61
   4   2  11   86.41    3.61
  -5  -2 -11   29.39    1.52
   5  -2  11   29.89    1.70
   5   2  11   32.95    1.60
  -5   2 -11   31.97    1.60
   6  -2  11  102.92    4.35
  -6  -2 -11  102.43    4.10
  -6   2 -11  104.03    4.16
   6   2  11  106.30    4.14
   7  -2  11   20.15    1.42
  -7  -2 -11   22.88    1.25
  -9  -3  11    5.30    0.62
  -8  -3  11    3.46    0.53
   8  -3 -11    3.48    0.51
   8   3 -11    2.55    0.49
  -7  -3  11    1.90    0.42
   7  -3 -11    2.02    0.41
   7   3 -11    1.64    0.40
  -6  -3  11    4.63    0.58
   6  -3 -11    4.38    0.52
  -6   3  11    4.88    0.50
   6   3 -11    4.80    0.59
  -5  -3  11   22.62    1.32
   5  -3 -11   22.24    1.23
  -5   3  11   21.72    1.17
   5   3 -11   20.66    1.26
  -4  -3  11   59.61    2.71
   4  -3 -11   60.24    2.63
   4   3 -11   61.61    2.69
  -4   3  11   63.70    2.57
   3  -3 -11   73.12    3.04
  -3  -3  11   70.93    3.12
  -3   3  11   74.25    2.96
   3   3 -11   70.94    3.07
   3   3 -11   73.62    2.85
   2  -3 -11   84.69    3.51
  -2  -3  11   84.44    3.62
   2   3 -11   91.97    3.37
  -2   3  11   87.56    3.46
   2   3 -11   85.24    3.56
  -1  -3  11   60.57    2.94
   1  -3 -11   66.80    2.92
  -1   3  11   73.44    2.91
   1   3 -11   73.47    3.00
   1   3 -11   74.78    2.81
   0  -3 -11  115.74    4.38
   0  -3  11  100.15    4.38
   0   3  11  115.53    4.35
   0   3 -11  112.97    4.23
  -1  -3 -11   28.95    1.41
   1  -3  11   24.62    1.40
   1  -3  11   25.77    1.45
  -1   3 -11   23.93    1.27
   1   3  11   24.12    1.35
  -2  -3 -11   65.37    2.72
   2  -3  11   60.68    2.75
   2  -3  11   64.59    2.84
  -2   3 -11   61.87    2.64
   2   3  11   63.80    2.73
  -3  -3 -11    2.14    0.40
   3  -3  11    1.88    0.40
   3  -3  11    2.15    0.44
   4  -3  11    8.58    0.82
  -4  -3 -11    8.30    0.69
  -4   3 -11    8.62    0.71
   4   3  11    8.70    0.76
  -5  -3 -11    0.28    0.20
   5  -3  11    0.18    0.25
  -5   3 -11    0.40    0.23
   5   3  11    0.61    0.28
  -6  -3 -11   12.61    0.88
   6  -3  11   11.65    1.02
  -6   3 -11   13.08    0.98
   6   3  11   12.40    0.92
  -8  -4  11   26.36    1.53
   8  -4 -11   27.51    1.48
   8   4 -11   28.78    1.69
   7  -4 -11   65.50    2.77
  -7  -4  11   63.96    2.83
   7   4 -11   60.61    2.82
  -6  -4  11   39.89    1.99
   6  -4 -11   39.97    1.91
   6   4 -11   39.18    1.98
   5  -4 -11   36.45    1.79
  -5  -4  11   38.37    1.89
  -5   4  11   35.88    1.67
   5   4 -11   34.66    1.83
  -4  -4  11   33.14    1.68
   4  -4 -11   31.97    1.59
   4   4 -11   27.80    1.59
  -4   4  11   28.52    1.45
  -3  -4  11    5.53    0.64
   3  -4 -11    4.87    0.56
  -3   4  11    5.47    0.55
   3   4 -11    4.96    0.60
  -2  -4  11    5.29    0.62
   2  -4 -11    5.44    0.59
   2   4 -11    6.11    0.49
   2   4 -11    5.75    0.63
  -2   4  11    5.30    0.55
  -1  -4  11    2.47    0.48
   1  -4 -11    2.87    0.49
   1   4 -11    3.65    0.40
  -1   4  11    3.88    0.51
   1   4 -11    3.65    0.52
   0  -4  11   13.30    1.02
   0  -4 -11   14.99    1.00
   0   4  11   15.60    1.00
   0   4 -11   16.25    1.07
   0   4 -11   15.70    0.90
   1  -4  11   45.29    2.43
  -1  -4 -11   56.34    2.47
   1  -4  11   57.67    2.57
  -1   4 -11   55.53    2.33
   1   4  11   57.82    2.45
   2  -4  11   46.95    2.48
  -2  -4 -11   57.70    2.51
   2  -4  11   61.28    2.68
  -2   4 -11   56.00    2.40
   2   4  11   58.35    2.51
  -3  -4 -11   33.38    1.67
   3  -4  11   35.11    1.85
  -3   4 -11   30.44    1.58
   3   4  11   31.93    1.66
   4  -4  11   70.44    3.27
  -4  -4 -11   73.48    3.10
  -4   4 -11   73.76    3.04
   4   4  11   74.07    3.11
   5  -4  11   64.55    3.06
  -5  -4 -11   69.32    2.89
   5   4  11   65.34    2.87
  -5   4 -11   65.18    2.82
   6   4  11   31.09    1.69
   7  -5 -11    2.13    0.43
  -7  -5  11    1.99    0.44
   7   5 -11    1.91    0.46
   6  -5 -11   12.52    0.93
  -6  -5  11   13.07    1.00
   6   5 -11   12.22    0.99
   5  -5 -11   37.61    1.88
  -5  -5  11   36.54    1.92
   5   5 -11   38.22    1.95
   4  -5 -11   43.00    2.01
  -4  -5  11   43.77    2.10
  -4   5  11   37.54    1.84
   4   5 -11   40.11    2.04
   3  -5 -11   24.22    1.41
  -3  -5  11   26.33    1.51
   3   5 -11   26.80    1.51
  -3   5  11   25.56    1.34
  -2  -5  11   59.55    2.76
   2  -5 -11   59.80    2.68
  -2   5  11   62.07    2.63
   2   5 -11   61.43    2.77
  -1  -5  11   49.81    2.43
   1  -5 -11   53.29    2.38
  -1   5  11   50.87    2.31
   1   5 -11   51.24    2.15
   1   5 -11   52.20    2.44
   0  -5 -11   82.06    3.56
   0  -5  11   83.67    3.65
   0   5  11   88.69    3.55
   0   5 -11   87.17    3.41
   0   5 -11   89.57    3.69
   1  -5  11   31.69    1.73
   1  -5  11   27.48    1.62
  -1  -5 -11   28.04    1.57
   1   5  11   30.77    1.57
  -1   5 -11   30.89    1.48
   2  -5  11   11.42    0.93
  -2  -5 -11   12.06    0.91
   2  -5  11   12.69    1.02
   2   5  11   13.89    0.95
  -2   5 -11   12.42    0.84
   3  -5  11   13.20    1.06
  -3  -5 -11   11.07    0.90
  -3   5 -11   12.94    0.87
   3   5  11   13.22    0.94
  -4  -5 -11    0.75    0.30
   4  -5  11    0.89    0.37
   4   5  11    0.72    0.30
  -4   5 -11    0.82    0.27
   5  -6 -11   18.96    1.19
  -5  -6  11   18.24    1.23
   5   6 -11   15.88    1.18
   4  -6 -11    3.20    0.54
  -4  -6  11    3.34    0.57
  -4   6  11    4.27    0.51
   4   6 -11    4.80    0.64
   3  -6 -11    8.47    0.76
  -3  -6  11    8.31    0.80
   3   6 -11    8.17    0.81
  -3   6  11    8.24    0.72
   2  -6 -11    4.69    0.59
  -2  -6  11    4.38    0.61
   2   6 -11    4.93    0.64
  -2   6  11    4.75    0.58
  -1  -6  11    1.92    0.46
   1  -6 -11    1.84    0.42
   1   6 -11    1.85    0.43
  -1   6  11    2.18    0.42
   0  -6  11    5.04    0.64
   0  -6 -11    5.29    0.62
   0   6 -11    5.58    0.68
   0   6  11    5.78    0.63
   0   6 -11    5.67    0.54
  -1  -6 -11   16.17    1.12
   1  -6  11   17.09    1.17
   1   6  11   17.62    1.11
  -1   6 -11   17.69    1.02
   2  -6  11   37.90    2.02
  -2  -6 -11   32.87    1.83
   2   6  11   37.75    1.83
  -2   6 -11   36.09    1.71
   3  -6  11   40.40    2.17
  -3  -6 -11   32.33    1.89
  -3   6 -11   41.45    1.86
   3   6  11   41.77    1.95
   3  -7 -11    7.99    0.78
  -3  -7  11    8.17    0.83
   3   7 -11    7.72    0.84
  -3   7  11    8.41    0.74
   2  -7 -11   51.01    2.46
  -2  -7  11   53.55    2.57
   2   7 -11   55.78    2.60
  -2   7  11   51.09    2.38
   1  -7 -11   43.59    2.13
  -1  -7  11   41.90    2.17
   1   7 -11   42.98    2.20
  -1   7  11   41.10    2.01
   0  -7  11   36.26    1.94
   0  -7 -11   35.50    1.88
   0   7 -11   37.95    2.00
   0   7  11   35.85    1.81
  -1  -7 -11   16.78    1.17
   1  -7  11   18.08    1.22
  -1   7 -11   17.28    1.12
  -1   7 -11   18.28    1.59
   1   7  11   17.31    1.14
  -2  -7 -11   22.84    1.41
  -2   7 -11   23.01    1.25
  -2   8  11    4.57    0.84
  -7   0  12    7.07    0.68
  -6   0  12   63.08    2.77
   6   0 -12   65.72    2.68
  -5   0  12   51.41    2.32
   5   0 -12   51.14    2.21
  -4   0  12  101.87    4.05
   4   0 -12  101.31    3.95
  -3   0  12   85.25    3.45
   3   0 -12   84.63    3.38
  -2   0  12   18.12    1.08
   2   0 -12   17.78    1.02
   1   0 -12   45.36    2.02
  -1   0  12   46.49    2.09
   0   0 -12   11.00    0.76
   0   0  12   10.98    0.79
   1   0  12    2.20    0.38
  -1   0 -12    1.83    0.34
  -2   0 -12    4.82    0.51
   2   0  12    4.34    0.48
   3   0  12   29.18    1.45
  -3   0 -12   28.90    1.46
  -4   0 -12   50.66    2.24
   4   0  12   50.28    2.21
  -5   0 -12   41.89    1.99
   5   0  12   44.30    1.96
  -6   0 -12   66.43    3.18
   9   1 -12    7.16    0.75
  -8  -1  12   32.11    1.66
   8   1 -12   31.26    1.67
   7  -1 -12   10.49    0.92
  -7  -1  12   10.36    0.84
   7   1 -12    9.81    0.82
  -7   1  12    9.20    0.77
   6  -1 -12   19.43    1.09
  -6  -1  12   17.91    1.16
  -6   1  12   18.66    1.12
   6   1 -12   17.74    1.12
   5  -1 -12    0.35    0.23
  -5  -1  12    0.75    0.29
   5   1 -12    0.91    0.26
   5   1 -12    0.74    0.27
  -5   1  12    0.66    0.27
  -4  -1  12    7.32    0.71
   4  -1 -12    7.03    0.64
   4   1 -12    8.57    0.64
   4   1 -12    8.71    0.71
  -4   1  12    8.29    0.68
  -3  -1  12   20.45    1.18
   3  -1 -12   20.93    1.12
   3   1 -12   16.81    1.05
   3   1 -12   16.63    0.99
  -3   1  12   17.30    1.07
  -2  -1  12   42.17    2.01
   2  -1 -12   39.85    1.92
   2   1 -12   44.74    1.98
   2   1 -12   43.58    1.90
  -2   1  12   43.68    1.96
   1  -1 -12   64.73    2.67
  -1  -1  12   69.79    2.76
   1   1 -12   58.61    2.57
   1   1 -12   63.40    2.67
  -1   1  12   60.71    2.64
   0  -1  12  110.26    4.32
   0  -1 -12  110.96    4.28
   0   1 -12  111.26    4.30
   0   1 -12  108.08    4.22
   0   1  12  110.11    4.27
   1  -1  12   88.93    3.40
  -1  -1 -12   83.90    3.32
   1  -1  12   80.45    3.37
   1   1  12   78.80    3.30
  -1   1 -12   78.49    3.26
   2  -1  12   91.80    3.84
  -2  -1 -12   93.48    3.75
   2  -1  12  100.73    3.83
  -2   1 -12   96.86    3.76
   2   1  12   92.47    3.75
   3  -1  12   59.37    2.45
   3  -1  12   55.68    2.52
  -3  -1 -12   54.82    2.39
   3   1  12   55.07    2.40
  -3   1 -12   52.74    2.38
   4  -1  12   45.48    2.23
   4  -1  12   46.20    2.08
  -4  -1 -12   46.21    2.10
  -4   1 -12   47.12    2.11
   4   1  12   46.78    2.09
  -5  -1 -12   11.16    0.82
   5  -1  12   10.99    0.91
   5   1  12   10.62    0.78
  -5   1 -12   10.95    0.82
   6  -1  12    1.21    0.39
  -6  -1 -12    1.62    0.41
  -8  -2  12    9.62    0.85
   8   2 -12   11.15    0.90
  -7  -2  12   23.30    1.37
   7  -2 -12   23.28    1.29
   7   2 -12   22.90    1.36
   6  -2 -12   44.02    1.97
  -6  -2  12   42.18    2.06
  -6   2  12   40.37    1.91
   6   2 -12   39.75    1.99
   5  -2 -12   65.19    2.78
  -5  -2  12   63.31    2.87
   5   2 -12   64.44    2.82
  -5   2  12   68.05    2.76
  -4  -2  12   48.51    2.37
   4  -2 -12   48.90    2.27
  -4   2  12   54.02    2.28
   4   2 -12   50.80    2.31
   4   2 -12   53.02    2.16
   3  -2 -12   51.96    2.36
  -3  -2  12   51.48    2.44
  -3   2  12   53.98    2.32
   3   2 -12   55.28    2.41
   3   2 -12   56.02    2.27
   2  -2 -12   51.92    2.27
  -2  -2  12   52.16    2.34
  -2   2  12   48.29    2.18
   2   2 -12   48.51    2.24
   2   2 -12   50.31    2.12
   1  -2 -12   30.51    1.54
  -1  -2  12   31.54    1.64
   1   2 -12   29.74    1.55
  -1   2  12   30.34    1.50
   1   2 -12   29.97    1.44
   0  -2 -12    9.11    0.73
   0  -2  12    9.50    0.78
   0   2 -12    9.67    0.77
   0   2  12    9.96    0.74
   0   2 -12    9.77    0.69
  -1  -2 -12    3.00    0.46
   1  -2  12    2.72    0.47
   1  -2  12    3.16    0.45
   1   2  12    3.15    0.46
  -1   2 -12    3.01    0.42
  -2  -2 -12    9.25    0.73
   2  -2  12   10.61    0.78
   2  -2  12    9.44    0.81
  -2   2 -12    9.29    0.70
   2   2  12    8.64    0.72
   3  -2  12   23.20    1.27
  -3  -2 -12   23.47    1.26
   3  -2  12   21.39    1.34
  -3   2 -12   22.26    1.23
   3   2  12   22.29    1.25
   4  -2  12   40.45    2.05
   4  -2  12   40.74    1.89
  -4  -2 -12   40.32    1.88
   4   2  12   39.43    1.89
  -4   2 -12   39.07    1.88
  -5  -2 -12   58.50    2.59
   5  -2  12   57.78    2.78
  -5   2 -12   63.48    2.67
   5   2  12   61.49    2.63
   6  -2  12   71.92    3.30
  -6  -2 -12   76.38    3.32
   6   2  12   72.81    3.07
  -8  -3  12   19.81    1.27
   8  -3 -12   19.87    1.20
   8   3 -12   20.53    1.39
   7  -3 -12    4.96    0.58
  -7  -3  12    5.08    0.65
   7   3 -12    5.14    0.63
   6  -3 -12    5.79    0.62
  -6  -3  12    5.22    0.64
  -6   3  12    6.50    0.58
   6   3 -12    5.66    0.65
   5  -3 -12    0.27    0.23
  -5  -3  12    0.18    0.25
   5   3 -12    0.16    0.22
  -5   3  12    0.22    0.20
  -4  -3  12    0.27    0.24
   4  -3 -12    0.15    0.20
  -4   3  12    0.21    0.19
   4   3 -12   -0.04    0.17
   3  -3 -12   20.04    1.22
  -3  -3  12   20.57    1.31
   3   3 -12   22.12    1.09
   3   3 -12   21.43    1.27
  -3   3  12   21.49    1.17
  -2  -3  12   14.06    1.07
   2  -3 -12   15.37    1.02
   2   3 -12   16.06    0.90
  -2   3  12   16.83    0.99
   2   3 -12   16.94    1.07
   1  -3 -12   55.63    2.49
  -1  -3  12   54.05    2.55
   1   3 -12   56.80    2.52
  -1   3  12   56.91    2.44
   1   3 -12   56.71    2.34
   0  -3  12   53.36    2.54
   0  -3 -12   59.19    2.52
   0   3 -12   55.67    2.36
   0   3  12   54.72    2.44
   0   3 -12   58.74    2.56
  -1  -3 -12  131.44    4.91
   1  -3  12  119.94    4.94
   1  -3  12  128.65    5.00
   1   3  12  123.46    4.85
  -1   3 -12  123.22    4.77
   2  -3  12   70.79    3.13
  -2  -3 -12   73.51    3.09
   2  -3  12   70.80    3.19
   2   3  12   77.55    3.12
  -2   3 -12   74.40    3.03
   3  -3  12   48.89    2.38
  -3  -3 -12   47.92    2.23
   3  -3  12   49.55    2.29
  -3   3 -12   49.48    2.21
   3   3  12   49.17    2.26
  -4  -3 -12   35.09    1.74
   4  -3  12   35.55    1.91
   4   3  12   34.35    1.76
  -4   3 -12   34.14    1.73
  -5  -3 -12   22.36    1.29
   5  -3  12   24.15    1.51
   5   3  12   22.89    1.34
  -7  -4  12   20.17    1.29
   7  -4 -12   18.29    1.17
   7   4 -12   18.05    1.25
   6  -4 -12   38.00    1.91
  -6  -4  12   38.72    2.00
   6   4 -12   38.63    1.97
   5  -4 -12   32.26    1.67
  -5  -4  12   29.90    1.72
   5   4 -12   32.64    1.73
  -5   4  12   32.72    1.55
  -4  -4  12   60.60    2.81
   4  -4 -12   62.31    2.73
  -4   4  12   62.19    2.59
   4   4 -12   60.56    2.76
   3  -4 -12   17.64    1.17
  -3  -4  12   17.64    1.26
  -3   4  12   22.32    1.17
   3   4 -12   21.04    1.27
  -2  -4  12   73.93    3.41
   2  -4 -12   77.08    3.33
  -2   4  12   81.98    3.26
   2   4 -12   82.89    3.14
   2   4 -12   79.88    3.39
  -1  -4  12   13.96    1.07
   1  -4 -12   15.23    1.03
   1   4 -12   15.53    0.89
  -1   4  12   14.80    0.97
   1   4 -12   15.42    1.06
   0  -4 -12    8.68    0.75
   0  -4  12    7.72    0.77
   0   4 -12    7.75    0.75
   0   4 -12    7.65    0.62
   0   4  12    8.52    0.74
   1  -4  12    1.08    0.35
   1  -4  12    1.22    0.38
  -1  -4 -12    1.39    0.37
  -1   4 -12    1.23    0.30
   1   4  12    2.86    0.49
  -2  -4 -12   18.04    1.15
   2  -4  12   17.18    1.19
   2  -4  12   19.23    1.27
   2   4  12   18.53    1.17
  -2   4 -12   17.88    1.07
   3  -4  12    9.59    0.92
  -3  -4 -12    9.85    0.82
   3   4  12   12.99    0.95
  -3   4 -12   11.36    0.84
   4  -4  12   54.22    2.67
  -4  -4 -12   55.44    2.49
  -4   4 -12   56.12    2.47
   4   4  12   54.08    2.52
  -5  -4 -12   45.03    2.15
  -6  -5  12    7.01    1.12
   6  -5 -12    5.87    0.72
   6   5 -12    5.77    1.12
  -5  -5  12    1.80    0.46
   5  -5 -12    1.85    0.43
   5   5 -12    1.44    0.40
  -4  -5  12    1.77    0.46
   4  -5 -12    1.84    0.41
  -4   5  12    1.46    0.33
   4   5 -12    1.04    0.37
  -3  -5  12    4.83    0.67
   3  -5 -12    4.81    0.62
   3   5 -12    6.22    0.69
  -3   5  12    6.79    0.62
  -2  -5  12   36.25    2.03
   2  -5 -12   38.77    1.98
   2   5 -12   43.11    2.07
  -2   5  12   40.90    1.91
  -1  -5  12   34.52    1.92
   1  -5 -12   35.48    1.84
   1   5 -12   36.07    1.65
   1   5 -12   35.74    1.88
  -1   5  12   36.05    1.79
   0  -5  12   75.71    3.54
   0  -5 -12   79.54    3.47
   0   5  12   86.30    3.47
   0   5 -12   84.81    3.56
   0   5 -12   84.34    3.29
   1  -5  12   27.01    1.72
  -1  -5 -12   33.17    1.75
  -1   5 -12   35.97    1.64
   1   5  12   35.30    1.75
   2  -5  12   55.96    2.77
  -2  -5 -12   55.69    2.67
   2   5  12   64.37    2.72
  -2   5 -12   62.26    2.60
  -3  -5 -12   57.15    2.68
   3  -5  12   61.80    2.88
  -3   5 -12   59.73    2.60
   3   5  12   59.67    2.83
  -4  -5 -12   12.35    0.95
   4  -6 -12   71.33    3.92
   4   6 -12   68.05    3.58
  -4   6  12   68.76    2.90
   3  -6 -12   42.10    2.11
  -3  -6  12   43.31    2.22
   3   6 -12   42.57    2.16
  -3   6  12   40.64    1.96
  -2  -6  12   28.46    1.70
   2  -6 -12   28.95    1.61
   2   6 -12   28.50    1.65
  -2   6  12   27.94    1.52
  -1  -6  12    6.95    0.80
   1  -6 -12    8.54    0.81
  -1   6  12    7.32    0.74
   1   6 -12    7.87    0.80
   0  -6  12    2.56    0.53
   0  -6 -12    2.95    0.55
   0   6  12    3.21    0.53
   0   6 -12    4.17    0.66
   1  -6  12    0.40    0.28
  -1  -6 -12    0.28    0.25
  -1   6 -12    0.30    0.27
  -1   6 -12    0.23    0.22
   1   6  12    0.92    0.34
  -2  -6 -12    5.43    0.67
  -2   6 -12    7.21    0.65
  -3   7  12   11.93    0.89
  -2   7  12   32.08    1.89
   0  -7  12   29.42    2.11
  -7   0  13    2.81    0.51
  -6   0  13   10.79    0.87
  -5   0  13   25.11    1.40
   5   0 -13   23.45    1.28
  -4   0  13   70.50    2.93
   4   0 -13   64.75    2.80
  -3   0  13   53.15    2.37
   3   0 -13   52.46    2.30
  -2   0  13   72.92    3.09
   2   0 -13   75.22    3.05
  -1   0  13   47.16    2.16
   1   0 -13   47.63    2.12
   0   0 -13   49.56    2.22
   0   0  13   52.70    2.30
   1   0  13   48.63    2.17
  -1   0 -13   47.59    2.13
   2   0  13   10.95    0.79
  -2   0 -13   10.92    0.79
   3   0  13    0.82    0.26
  -3   0 -13    1.05    0.30
   4   0  13    2.59    0.41
  -4   0 -13    2.71    0.46
   5   0  13    7.73    0.80
  -8  -1  13   30.88    1.67
  -7  -1  13   30.36    1.67
   7   1 -13   31.10    1.71
  -7   1  13   30.94    1.62
   6  -1 -13   45.88    2.17
  -6  -1  13   45.83    2.29
   6   1 -13   51.26    2.27
  -6   1  13   50.83    2.26
  -5  -1  13   28.38    1.55
   5  -1 -13   26.78    1.42
  -5   1  13   27.35    1.46
   5   1 -13   26.74    1.45
  -4  -1  13   10.83    0.86
   4  -1 -13   11.03    0.80
   4   1 -13    9.15    0.76
  -4   1  13    9.97    0.78
   4   1 -13    9.48    0.72
  -3  -1  13    4.23    0.56
   3  -1 -13    3.53    0.49
   3   1 -13    4.70    0.54
   3   1 -13    4.52    0.49
  -3   1  13    4.86    0.54
  -2  -1  13    0.93    0.31
   2  -1 -13    0.70    0.26
   2   1 -13    0.89    0.28
  -2   1  13    0.60    0.25
   2   1 -13    0.42    0.23
  -1  -1  13   10.12    0.81
   1  -1 -13   10.75    0.80
   1   1 -13   11.58    0.82
  -1   1  13   11.55    0.80
   1   1 -13   11.19    0.77
   0  -1  13   35.43    1.73
   0  -1 -13   35.32    1.70
   0   1  13   35.60    1.70
   0   1 -13   34.40    1.65
   0   1 -13   34.60    1.76
  -1  -1 -13   30.02    1.50
   1  -1  13   32.10    1.56
   1   1  13   27.88    1.48
  -1   1 -13   28.73    1.47
  -2  -1 -13   81.98    3.31
   2  -1  13   81.93    3.34
   2  -1  13   80.95    3.54
   2   1  13   79.54    3.29
  -2   1 -13   80.02    3.29
  -3  -1 -13   60.61    2.66
   3  -1  13   66.24    2.72
  -3   1 -13   63.56    2.68
   3   1  13   59.73    2.65
   4  -1  13   58.19    2.50
  -4  -1 -13   56.24    2.48
   4   1  13   55.92    2.47
  -4   1 -13   57.47    2.51
   5   1  13   34.08    1.67
  -8  -2  13    1.03    0.41
   7  -2 -13    0.23    0.23
  -7  -2  13    0.13    0.24
   7   2 -13    0.46    0.28
   6  -2 -13   30.12    1.63
  -6  -2  13   32.66    1.78
   6   2 -13   32.60    1.71
  -6   2  13   35.34    1.68
  -5  -2  13   25.10    1.54
   5  -2 -13   26.95    1.47
   5   2 -13   28.66    1.52
  -5   2  13   28.84    1.45
  -4  -2  13   62.07    2.82
   4  -2 -13   61.65    2.70
  -4   2  13   62.71    2.67
   4   2 -13   60.74    2.70
  -3  -2  13   40.33    2.08
   3  -2 -13   40.89    2.01
  -3   2  13   46.32    2.02
   3   2 -13   42.92    2.03
   3   2 -13   44.58    1.92
   2  -2 -13   82.18    3.39
  -2  -2  13   83.29    3.49
  -2   2  13   80.85    3.33
   2   2 -13   81.62    3.39
   2   2 -13   82.77    3.26
   1  -2 -13   44.91    2.12
  -1  -2  13   45.92    2.23
   1   2 -13   47.96    2.17
   1   2 -13   48.91    2.06
  -1   2  13   44.45    2.07
   0  -2 -13   62.01    2.66
   0  -2  13   63.25    2.74
   0   2 -13   61.06    2.68
   0   2  13   58.63    2.61
   0   2 -13   61.32    2.58
   1  -2  13    6.25    0.64
  -1  -2 -13    5.78    0.60
  -1   2 -13    5.47    0.54
   1   2  13    5.91    0.59
   2  -2  13   17.18    1.14
   2  -2  13   18.29    1.12
  -2  -2 -13   19.17    1.12
   2   2  13   16.74    1.06
  -2   2 -13   15.42    1.01
   3  -2  13    3.18    0.45
   3  -2  13    2.31    0.47
  -3  -2 -13    3.26    0.50
  -3   2 -13    2.14    0.40
   3   2  13    2.37    0.43
   4  -2  13    1.97    0.45
  -4  -2 -13    1.96    0.39
   4   2  13    2.14    0.41
  -4   2 -13    1.47    0.44
   5  -2  13   17.69    1.25
  -7  -3  13   40.85    2.54
   7  -3 -13   40.58    1.99
   7   3 -13   40.78    2.15
  -6  -3  13   31.10    1.71
   6  -3 -13   31.66    1.62
   6   3 -13   27.41    1.60
  -6   3  13   29.12    1.53
  -5  -3  13   21.06    1.36
   5  -3 -13   19.77    1.24
   5   3 -13   19.67    1.25
  -5   3  13   21.80    1.21
   4  -3 -13    7.48    0.70
  -4  -3  13    6.76    0.76
   4   3 -13    7.35    0.72
  -4   3  13    7.53    0.66
   3  -3 -13    2.48    0.47
  -3  -3  13    1.97    0.45
  -3   3  13    2.94    0.45
   3   3 -13    2.59    0.47
  -2  -3  13    8.49    0.83
   2  -3 -13    8.24    0.75
   2   3 -13    8.95    0.65
  -2   3  13    8.52    0.71
   2   3 -13    8.18    0.74
  -1  -3  13    8.62    0.79
   1  -3 -13    7.94    0.72
  -1   3  13    7.42    0.67
   1   3 -13    7.00    0.70
   1   3 -13    7.55    0.62
   0  -3 -13   32.46    1.68
   0  -3  13   32.34    1.74
   0   3 -13   32.28    1.69
   0   3  13   32.27    1.63
   0   3 -13   31.82    1.55
  -1  -3 -13   53.21    2.44
   1  -3  13   52.26    2.50
  -1   3 -13   54.30    2.35
   1   3  13   57.16    2.45
   2  -3  13   31.62    1.73
  -2  -3 -13   33.92    1.67
   2  -3  13   31.90    1.69
   2   3  13   29.93    1.61
  -2   3 -13   29.97    1.55
   3  -3  13   53.39    2.36
   3  -3  13   49.50    2.42
  -3  -3 -13   52.68    2.31
  -3   3 -13   45.94    2.20
   3   3  13   46.26    2.25
   4  -3  13   52.14    2.55
   6  -4 -13   16.72    1.28
   6   4 -13   15.56    1.40
  -5  -4  13   21.71    1.41
   5  -4 -13   20.88    1.32
  -5   4  13   23.28    1.24
   5   4 -13   22.13    1.37
  -4  -4  13   43.95    2.28
   4  -4 -13   45.52    2.20
  -4   4  13   46.31    2.06
   4   4 -13   44.80    2.20
   3  -4 -13   33.12    1.80
  -3  -4  13   34.42    1.93
   3   4 -13   36.31    1.86
  -3   4  13   37.66    1.74
   2  -4 -13   71.72    3.07
  -2  -4  13   63.81    3.11
   2   4 -13   70.40    3.07
  -2   4  13   72.51    2.95
  -1  -4  13   36.34    2.06
   1  -4 -13   39.90    2.01
   1   4 -13   43.24    2.07
  -1   4  13   40.64    1.94
   1   4 -13   42.67    1.84
   0  -4 -13   31.13    1.70
   0  -4  13   30.21    1.78
   0   4 -13   33.68    1.58
   0   4  13   34.40    1.69
   0   4 -13   33.54    1.77
  -1  -4 -13   11.06    0.89
   1  -4  13   10.44    0.93
  -1   4 -13   11.08    0.80
   1   4  13   11.89    0.90
  -2  -4 -13    3.63    0.57
   2  -4  13    4.45    0.68
   2  -4  13    3.60    0.61
   2   4  13    3.42    0.55
  -2   4 -13    3.28    0.49
  -3  -4 -13    5.52    0.72
   3  -4  13    5.85    0.75
   4   5 -13    8.10    0.87
  -4   5  13    8.18    0.69
  -3  -5  13    3.12    0.61
   3  -5 -13    2.39    0.50
  -3   5  13    2.59    0.43
   3   5 -13    3.08    0.56
  -2  -5  13    0.58    0.34
   2  -5 -13    0.20    0.26
  -2   5  13    1.05    0.32
   2   5 -13    0.17    0.25
  -1  -5  13    8.69    0.91
   1  -5 -13   11.48    0.93
   1   5 -13   12.08    0.97
  -1   5  13   11.91    0.88
   0  -5  13   17.08    1.30
   0  -5 -13   21.38    1.31
   0   5 -13   20.19    1.11
   0   5 -13   19.08    1.28
   0   5  13   20.82    1.25
  -1  -5 -13   20.04    1.35
   1  -5  13   17.38    1.30
  -1   5 -13   20.60    1.38
  -1   5 -13   21.57    1.17
   2  -5  13   38.80    2.59
  -2   5 -13   54.89    2.34
  -4   6  13   43.80    2.11
  -3   6  13   27.32    1.63
  -1   6 -13   24.29    1.46
  -7   0  14    1.99    0.44
  -6   0  14    0.51    0.28
  -5   0  14    0.16    0.22
   5   0 -14    0.13    0.20
  -4   0  14   28.03    1.53
   4   0 -14   25.93    1.40
   3   0 -14    1.98    0.41
  -3   0  14    2.59    0.46
  -2   0  14   66.67    2.85
   2   0 -14   66.19    2.80
   1   0 -14   35.09    1.70
  -1   0  14   34.66    1.73
   0   0 -14   64.85    2.81
   0   0  14   69.30    2.89
  -1   0 -14   38.65    1.86
   1   0  14   40.81    1.92
  -2   0 -14   53.30    2.36
   2   0  14   53.46    2.38
   3   0  14   23.24    1.29
  -7   1  14   32.63    1.72
   6  -1 -14   31.84    1.64
  -6  -1  14   33.36    1.78
  -6   1  14   31.43    1.67
  -5  -1  14   41.88    2.05
   5  -1 -14   37.81    1.88
  -5   1  14   38.92    1.93
   4  -1 -14   16.59    1.10
  -4  -1  14   17.63    1.19
   4   1 -14   20.77    1.13
  -4   1  14   19.95    1.17
  -3  -1  14   45.49    2.16
   3  -1 -14   43.52    2.04
  -3   1  14   42.70    2.04
   3   1 -14   43.10    1.97
   2  -1 -14   16.43    1.06
  -2  -1  14   16.43    1.11
   2   1 -14   17.81    1.04
  -2   1  14   17.13    1.08
   1  -1 -14    9.70    0.76
  -1  -1  14    9.17    0.78
  -1   1  14    8.35    0.72
   1   1 -14    8.66    0.70
   0  -1 -14    0.58    0.27
   0  -1  14    0.97    0.29
   0   1 -14    1.46    0.33
   0   1  14    0.97    0.29
  -1  -1 -14    4.35    0.53
   1  -1  14    4.61    0.53
   1   1  14    4.41    0.51
  -1   1 -14    4.54    0.51
   2  -1  14    9.49    0.76
  -2  -1 -14   10.18    0.78
   2   1  14    9.19    0.75
  -2   1 -14    9.46    0.75
   3  -1  14   16.38    1.03
   3   1  14   15.53    1.01
   4  -1  14   46.12    2.29
   7  -2 -14    4.51    0.67
   6  -2 -14    3.47    0.55
   6   2 -14    2.62    0.47
  -6   2  14    3.05    0.50
  -5  -2  14    5.60    0.68
   5  -2 -14    5.46    0.63
   5   2 -14    5.10    0.63
  -5   2  14    5.33    0.59
  -4  -2  14    2.68    0.54
   4  -2 -14    2.70    0.49
   4   2 -14    2.10    0.43
  -4   2  14    2.62    0.45
  -3  -2  14   14.55    1.07
   3  -2 -14   13.99    0.99
  -3   2  14   15.73    1.01
   3   2 -14   14.79    0.92
   3   2 -14   14.74    1.01
   2  -2 -14   34.88    1.77
  -2  -2  14   34.32    1.84
   2   2 -14   35.89    1.80
   2   2 -14   35.42    1.68
  -2   2  14   37.00    1.75
   1  -2 -14   55.51    2.51
  -1  -2  14   60.22    2.63
  -1   2  14   55.23    2.46
   1   2 -14   53.81    2.38
   1   2 -14   56.01    2.52
   0  -2  14   51.00    2.36
   0  -2 -14   47.70    2.23
   0   2  14   49.09    2.21
   0   2 -14   48.04    2.16
   0   2 -14   49.25    2.27
  -1  -2 -14   70.22    2.95
   1  -2  14   70.70    3.00
  -1   2 -14   67.81    2.87
  -1   2 -14   66.18    2.96
   1   2  14   66.65    2.89
   2  -2  14   34.17    1.83
  -2  -2 -14   36.04    1.84
   2  -2  14   34.12    1.78
   2   2  14   36.52    1.79
  -2   2 -14   36.27    1.75
   3  -2  14   32.36    1.66
   3  -2  14   31.01    2.06
  -6   3  14   17.49    1.34
   5  -3 -14   23.91    1.45
   5   3 -14   25.48    1.46
  -5   3  14   26.47    1.39
   4  -3 -14   32.69    1.74
  -4  -3  14   32.49    1.94
  -4   3  14   34.54    1.68
   4   3 -14   32.07    1.73
   3  -3 -14   39.04    1.95
  -3  -3  14   38.93    2.05
  -3   3  14   38.22    1.83
   3   3 -14   38.04    1.93
   2  -3 -14   10.81    0.90
  -2  -3  14   12.42    1.02
   2   3 -14   12.62    0.94
  -2   3  14   12.00    0.86
   2   3 -14   12.19    0.80
  -1  -3  14   17.92    1.22
   1  -3 -14   17.20    1.12
   1   3 -14   16.99    1.01
   1   3 -14   17.00    1.13
  -1   3  14   16.47    1.06
   0  -3  14    2.06    0.46
   0  -3 -14    2.02    0.44
   0   3 -14    2.14    0.40
   0   3  14    3.07    0.49
   0   3 -14    1.28    0.35
  -1  -3 -14    3.79    0.62
   1  -3  14    4.20    0.66
  -1   3 -14    5.19    0.63
  -1   3 -14    4.70    0.53
   1   3  14    4.63    0.64
   2  -3  14   26.65    1.50
   2  -3  14   24.21    1.50
   3  -3  14   25.58    1.67
   3  -3  14   23.98    2.13
  -5   4  14    1.22    0.33
  -4   4  14    6.41    0.62
   4   4 -14    6.41    0.92
   3   4 -14   11.67    0.94
  -3   4  14   11.69    0.84
  -2  -4  14   22.61    1.87
   2   4 -14   23.04    1.40
  -2   4  14   23.29    1.32
  -1  -4  14   39.44    2.27
  -1   4  14   41.88    2.26
   1   4 -14   42.12    1.89
   1   4 -14   42.93    2.12
   0  -4  14   64.67    2.97
   0   4 -14   60.31    2.61
   0   4 -14   61.66    2.83
   1  -4  14   24.72    1.63
  -1   4 -14   25.36    1.82
  -1   4 -14   24.54    1.40
   0   5 -14    1.87    0.38
   5   0 -15   19.66    1.34
   4   0 -15   14.81    0.99
   3   0 -15    8.56    0.74
  -3   0  15    9.80    1.06
  -2   0  15    3.94    0.69
   2   0 -15    3.85    0.51
   1   0 -15   15.99    1.05
  -1   0  15   18.79    1.40
   0   0 -15   25.61    1.56
   5  -1 -15   26.66    1.49
   4  -1 -15   45.81    2.21
   4   1 -15   49.95    2.20
   3  -1 -15   61.88    2.71
  -3   1  15   63.64    3.12
   3   1 -15   60.19    2.63
   2  -1 -15   33.87    1.72
   2   1 -15   32.70    1.65
  -2   1  15   35.93    2.35
   1  -1 -15   28.84    1.62
   1   1 -15   30.48    1.53
   0   1 -15   24.48    1.46
   3   2 -15    0.16    0.21
   2   2 -15    9.67    0.75
   1   2 -15   18.59    1.09
   3   3 -15   34.85    1.84
   2   3 -15   48.84    2.30
   2   3 -15   46.88    2.22
   1   3 -15   19.96    1.14
   1   3 -15   20.88    1.28
   0   3 -15    7.41    0.79
   0   0   0    0.00    0.00
;
_shelx_hkl_checksum              10344
loop_
_space_group_symop_operation_xyz
'x, y, z'
'-x, y+1/2, -z'
loop_
_atom_site_label
_atom_site_type_symbol
_atom_site_fract_x
_atom_site_fract_y
_atom_site_fract_z
_atom_site_U_iso_or_equiv
_atom_site_adp_type
_atom_site_occupancy
_atom_site_site_symmetry_order
_atom_site_calc_flag
_atom_site_refinement_flags_posn
_atom_site_refinement_flags_adp
I1 I 0.95672(2) 0.55055(3) 0.60767(2) 0.01458(4) Uani 1 1 d . .
O1 O 0.7473(2) 0.2265(2) 0.63420(16) 0.0205(4) Uani 1 1 d . .
O2 O 0.54290(17) 0.0452(4) 0.47682(12) 0.0192(3) Uani 1 1 d . .
O3 O 0.4850(2) 0.7672(2) 0.10776(15) 0.0175(3) Uani 1 1 d . .
N1 N 0.5689(2) 0.2322(2) 0.32185(17) 0.0113(3) Uani 1 1 d . .
C1 C 0.7203(3) 0.2743(3) 0.5277(2) 0.0127(4) Uani 1 1 d . .
C2 C 0.7940(3) 0.4229(3) 0.47928(19) 0.0117(4) Uani 1 1 d . .
C3 C 0.7579(3) 0.4747(3) 0.36233(19) 0.0110(4) Uani 1 1 d . .
C4 C 0.8292(3) 0.6270(3) 0.3065(2) 0.0135(4) Uani 1 1 d . .
H12 H 0.9076 0.6796 0.3710 0.016 Uiso 1 1 calc R U
C5 C 0.9126(3) 0.5680(5) 0.19952(19) 0.0155(5) Uani 1 1 d . .
H11 H 0.9535 0.6696 0.1607 0.019 Uiso 1 1 calc R U
H5 H 1.0017 0.4946 0.2322 0.019 Uiso 1 1 calc R U
C6 C 0.8055(3) 0.4677(3) 0.1017(2) 0.0136(4) Uani 1 1 d . .
H8 H 0.7253 0.5482 0.0604 0.016 Uiso 1 1 calc R U
C7 C 0.8944(3) 0.3923(3) 0.0041(2) 0.0180(5) Uani 1 1 d . .
H6 H 0.9443 0.4850 -0.0361 0.027 Uiso 1 1 calc R U
H1 H 0.8224 0.3306 -0.0574 0.027 Uiso 1 1 calc R U
H7 H 0.9737 0.3128 0.0430 0.027 Uiso 1 1 calc R U
C8 C 0.6395(3) 0.3840(3) 0.2712(2) 0.0102(4) Uani 1 1 d . .
C9 C 0.6020(3) 0.1726(3) 0.43823(19) 0.0129(4) Uani 1 1 d . .
C10 C 0.4419(3) 0.1488(3) 0.2387(2) 0.0145(4) Uani 1 1 d . .
H18 H 0.4005 0.0509 0.2813 0.017 Uiso 1 1 calc R U
H17 H 0.4822 0.1044 0.1650 0.017 Uiso 1 1 calc R U
C11 C 0.3128(3) 0.2777(3) 0.2000(2) 0.0170(4) Uani 1 1 d . .
H15 H 0.2320 0.2231 0.1400 0.020 Uiso 1 1 calc R U
H16 H 0.2644 0.3109 0.2729 0.020 Uiso 1 1 calc R U
C12 C 0.3724(3) 0.4374(3) 0.1428(2) 0.0143(4) Uani 1 1 d . .
H13 H 0.2876 0.5220 0.1247 0.017 Uiso 1 1 calc R U
H14 H 0.4102 0.4074 0.0647 0.017 Uiso 1 1 calc R U
C13 C 0.5046(2) 0.5146(2) 0.23279(19) 0.0106(4) Uani 1 1 d . .
H2 H 0.4590 0.5381 0.3097 0.013 Uiso 1 1 calc R U
C14 C 0.5586(3) 0.6874(3) 0.1919(2) 0.0129(4) Uani 1 1 d . .
C15 C 0.7016(3) 0.7615(3) 0.2665(2) 0.0150(4) Uani 1 1 d . .
H3 H 0.6718 0.8169 0.3408 0.018 Uiso 1 1 calc R U
H4 H 0.7445 0.8514 0.2174 0.018 Uiso 1 1 calc R U
C16 C 0.7226(3) 0.3241(3) 0.16275(19) 0.0121(4) Uani 1 1 d . .
H10 H 0.7996 0.2352 0.1932 0.015 Uiso 1 1 calc R U
H9 H 0.6452 0.2703 0.0996 0.015 Uiso 1 1 calc R U
loop_
_atom_site_aniso_label
_atom_site_aniso_U_11
_atom_site_aniso_U_22
_atom_site_aniso_U_33
_atom_site_aniso_U_23
_atom_site_aniso_U_13
_atom_site_aniso_U_12
I1 0.01470(7) 0.01544(7) 0.01238(6) -0.00143(8) -0.00227(4) -0.00124(8)
O1 0.0215(9) 0.0267(10) 0.0127(7) 0.0054(7) -0.0002(6) -0.0061(7)
O2 0.0236(7) 0.0181(7) 0.0159(6) 0.0014(12) 0.0026(5) -0.0066(12)
O3 0.0201(8) 0.0173(9) 0.0146(8) 0.0025(6) 0.0010(6) 0.0037(7)
N1 0.0119(9) 0.0106(8) 0.0112(8) 0.0002(6) 0.0009(6) -0.0024(7)
C1 0.0109(10) 0.0150(10) 0.0123(9) 0.0007(8) 0.0014(7) -0.0010(8)
C2 0.0107(10) 0.0119(10) 0.0122(9) -0.0016(7) 0.0005(7) -0.0005(7)
C3 0.0105(10) 0.0109(9) 0.0114(9) -0.0009(7) 0.0011(7) 0.0015(8)
C4 0.0134(10) 0.0121(10) 0.0141(9) 0.0013(8) -0.0007(8) -0.0021(8)
C5 0.0157(9) 0.0153(14) 0.0162(8) 0.0021(10) 0.0044(7) -0.0017(11)
C6 0.0137(10) 0.0151(10) 0.0123(9) 0.0011(8) 0.0032(7) 0.0021(8)
C7 0.0179(11) 0.0207(12) 0.0169(10) -0.0001(9) 0.0074(8) 0.0025(9)
C8 0.0106(10) 0.0092(10) 0.0107(9) 0.0002(7) 0.0008(8) -0.0002(8)
C9 0.0126(10) 0.0149(10) 0.0112(9) -0.0008(8) 0.0021(8) 0.0006(8)
C10 0.0143(10) 0.0138(11) 0.0145(9) -0.0005(8) -0.0014(8) -0.0029(8)
C11 0.0138(11) 0.0177(11) 0.0185(10) -0.0003(9) -0.0017(8) -0.0013(9)
C12 0.0123(10) 0.0163(11) 0.0133(9) 0.0000(8) -0.0016(8) 0.0008(8)
C13 0.0110(9) 0.0099(13) 0.0106(8) 0.0008(6) 0.0001(6) 0.0013(7)
C14 0.0148(10) 0.0121(10) 0.0124(9) -0.0011(8) 0.0037(8) 0.0025(8)
C15 0.0180(12) 0.0106(11) 0.0159(10) 0.0008(8) 0.0003(9) -0.0005(9)
C16 0.0126(10) 0.0130(10) 0.0106(9) -0.0011(7) 0.0013(7) 0.0019(8)
loop_
_atom_type_symbol
_atom_type_description
_atom_type_scat_dispersion_real
_atom_type_scat_dispersion_imag
_atom_type_scat_source
C C 0.0033 0.0016 'International Tables Vol C Tables 4.2.6.8 and 6.1.1.4'
H H 0.0000 0.0000 'International Tables Vol C Tables 4.2.6.8 and 6.1.1.4'
N N 0.0061 0.0033 'International Tables Vol C Tables 4.2.6.8 and 6.1.1.4'
O O 0.0106 0.0060 'International Tables Vol C Tables 4.2.6.8 and 6.1.1.4'
I I -0.4742 1.8119 'International Tables Vol C Tables 4.2.6.8 and 6.1.1.4'
loop_
_geom_angle_atom_site_label_1
_geom_angle_atom_site_label_2
_geom_angle_atom_site_label_3
_geom_angle
C9 N1 C8 125.92(19)
C9 N1 C10 118.19(18)
C8 N1 C10 115.69(17)
O1 C1 C2 123.9(2)
O1 C1 C9 118.4(2)
C2 C1 C9 117.72(19)
C3 C2 C1 122.2(2)
C3 C2 I1 122.94(17)
C1 C2 I1 114.87(15)
C2 C3 C8 122.7(2)
C2 C3 C4 124.9(2)
C8 C3 C4 112.44(18)
C3 C4 C5 109.9(2)
C3 C4 C15 109.18(19)
C5 C4 C15 112.6(2)
C3 C4 H12 108.3
C5 C4 H12 108.3
C15 C4 H12 108.3
C6 C5 C4 112.44(18)
C6 C5 H11 109.1
C4 C5 H11 109.1
C6 C5 H5 109.1
C4 C5 H5 109.1
H11 C5 H5 107.8
C7 C6 C5 111.68(19)
C7 C6 C16 110.04(19)
C5 C6 C16 110.05(19)
C7 C6 H8 108.3
C5 C6 H8 108.3
C16 C6 H8 108.3
C6 C7 H6 109.5
C6 C7 H1 109.5
H6 C7 H1 109.5
C6 C7 H7 109.5
H6 C7 H7 109.5
H1 C7 H7 109.5
N1 C8 C3 114.07(18)
N1 C8 C16 108.22(18)
C3 C8 C16 107.48(19)
N1 C8 C13 106.57(18)
C3 C8 C13 106.90(18)
C16 C8 C13 113.76(17)
O2 C9 N1 124.3(2)
O2 C9 C1 118.31(19)
N1 C9 C1 117.4(2)
N1 C10 C11 109.88(19)
N1 C10 H18 109.7
C11 C10 H18 109.7
N1 C10 H17 109.7
C11 C10 H17 109.7
H18 C10 H17 108.2
C12 C11 C10 111.93(19)
C12 C11 H15 109.2
C10 C11 H15 109.2
C12 C11 H16 109.2
C10 C11 H16 109.2
H15 C11 H16 107.9
C11 C12 C13 109.01(17)
C11 C12 H13 109.9
C13 C12 H13 109.9
C11 C12 H14 109.9
C13 C12 H14 109.9
H13 C12 H14 108.3
C14 C13 C12 113.27(17)
C14 C13 C8 113.88(17)
C12 C13 C8 112.67(17)
C14 C13 H2 105.3
C12 C13 H2 105.3
C8 C13 H2 105.3
O3 C14 C15 121.5(2)
O3 C14 C13 121.8(2)
C15 C14 C13 116.57(19)
C14 C15 C4 113.6(2)
C14 C15 H3 108.8
C4 C15 H3 108.8
C14 C15 H4 108.8
C4 C15 H4 108.8
H3 C15 H4 107.7
C6 C16 C8 114.55(18)
C6 C16 H10 108.6
C8 C16 H10 108.6
C6 C16 H9 108.6
C8 C16 H9 108.6
H10 C16 H9 107.6
loop_
_geom_bond_atom_site_label_1
_geom_bond_atom_site_label_2
_geom_bond_distance
I1 C2 2.104(2)
O1 C1 1.218(3)
O2 C9 1.222(4)
O3 C14 1.218(3)
N1 C9 1.353(3)
N1 C8 1.479(3)
N1 C10 1.482(3)
C1 C2 1.461(3)
C1 C9 1.540(3)
C2 C3 1.341(3)
C3 C8 1.509(3)
C3 C4 1.510(3)
C4 C5 1.538(3)
C4 C15 1.547(3)
C4 H12 1.0000
C5 C6 1.534(3)
C5 H11 0.9900
C5 H5 0.9900
C6 C7 1.527(3)
C6 C16 1.537(3)
C6 H8 1.0000
C7 H6 0.9800
C7 H1 0.9800
C7 H7 0.9800
C8 C16 1.552(3)
C8 C13 1.568(3)
C10 C11 1.524(3)
C10 H18 0.9900
C10 H17 0.9900
C11 C12 1.519(3)
C11 H15 0.9900
C11 H16 0.9900
C12 C13 1.531(3)
C12 H13 0.9900
C12 H14 0.9900
C13 C14 1.517(3)
C13 H2 1.0000
C14 C15 1.506(4)
C15 H3 0.9900
C15 H4 0.9900
C16 H10 0.9900
C16 H9 0.9900
loop_
_geom_hbond_atom_site_label_D
_geom_hbond_atom_site_label_H
_geom_hbond_atom_site_label_A
_geom_hbond_distance_DH
_geom_hbond_distance_HA
_geom_hbond_distance_DA
_geom_hbond_angle_DHA
_geom_hbond_site_symmetry_A
C16 H9 O3 0.99 2.40 3.283(3) 148.6 2_645
C16 H10 I1 0.99 3.17 4.090(2) 155.1 2_746
C13 H2 O2 1.00 2.35 3.283(2) 155.2 2_656
C13 H2 O1 1.00 2.47 3.255(3) 135.3 2_656
C11 H16 I1 0.99 3.21 3.811(2) 120.9 2_646
C16 H9 O3 0.99 2.40 3.283(3) 148.6 2_645
C16 H10 I1 0.99 3.17 4.090(2) 155.1 2_746
C13 H2 O2 1.00 2.35 3.283(2) 155.2 2_656
C13 H2 O1 1.00 2.47 3.255(3) 135.3 2_656
C11 H16 I1 0.99 3.21 3.811(2) 120.9 2_646
C16 H9 O3 0.99 2.40 3.283(3) 148.6 2_645
C16 H10 I1 0.99 3.17 4.090(2) 155.1 2_746
C13 H2 O2 1.00 2.35 3.283(2) 155.2 2_656
C13 H2 O1 1.00 2.47 3.255(3) 135.3 2_656
C11 H16 I1 0.99 3.21 3.811(2) 120.9 2_646
C16 H9 O3 0.99 2.40 3.283(3) 148.6 2_645
C16 H10 I1 0.99 3.17 4.090(2) 155.1 2_746
C13 H2 O2 1.00 2.35 3.283(2) 155.2 2_656
C13 H2 O1 1.00 2.47 3.255(3) 135.3 2_656
C11 H16 I1 0.99 3.21 3.811(2) 120.9 2_646
C16 H9 O3 0.99 2.40 3.283(3) 148.6 2_645
C16 H10 I1 0.99 3.17 4.090(2) 155.1 2_746
C13 H2 O2 1.00 2.35 3.283(2) 155.2 2_656
C13 H2 O1 1.00 2.47 3.255(3) 135.3 2_656
C11 H16 I1 0.99 3.21 3.811(2) 120.9 2_646
C11 H16 I1 0.99 3.21 3.811(2) 120.9 2_646
C13 H2 O1 1.00 2.47 3.255(3) 135.3 2_656
C13 H2 O2 1.00 2.35 3.283(2) 155.2 2_656
C16 H10 I1 0.99 3.17 4.090(2) 155.1 2_746
C16 H9 O3 0.99 2.40 3.283(3) 148.6 2_645
C11 H16 I1 0.99 3.21 3.811(2) 120.9 2_646
C13 H2 O1 1.00 2.47 3.255(3) 135.3 2_656
C13 H2 O2 1.00 2.35 3.283(2) 155.2 2_656
C16 H10 I1 0.99 3.17 4.090(2) 155.1 2_746
C16 H9 O3 0.99 2.40 3.283(3) 148.6 2_645
C11 H16 I1 0.99 3.21 3.811(2) 120.9 2_646
C13 H2 O1 1.00 2.47 3.255(3) 135.3 2_656
C13 H2 O2 1.00 2.35 3.283(2) 155.2 2_656
C16 H10 I1 0.99 3.17 4.090(2) 155.1 2_746
C16 H9 O3 0.99 2.40 3.283(3) 148.6 2_645
C11 H16 I1 0.99 3.21 3.811(2) 120.9 2_646
C13 H2 O1 1.00 2.47 3.255(3) 135.3 2_656
C13 H2 O2 1.00 2.35 3.283(2) 155.2 2_656
C16 H10 I1 0.99 3.17 4.090(2) 155.1 2_746
C16 H9 O3 0.99 2.40 3.283(3) 148.6 2_645
loop_
_geom_torsion_atom_site_label_1
_geom_torsion_atom_site_label_2
_geom_torsion_atom_site_label_3
_geom_torsion_atom_site_label_4
_geom_torsion
O1 C1 C2 C3 -178.0(2)
C9 C1 C2 C3 2.2(3)
O1 C1 C2 I1 0.9(3)
C9 C1 C2 I1 -178.90(15)
C1 C2 C3 C8 -0.3(3)
I1 C2 C3 C8 -179.12(17)
C1 C2 C3 C4 179.8(2)
I1 C2 C3 C4 1.0(3)
C2 C3 C4 C5 119.1(2)
C8 C3 C4 C5 -60.7(2)
C2 C3 C4 C15 -116.9(2)
C8 C3 C4 C15 63.2(2)
C3 C4 C5 C6 55.6(3)
C15 C4 C5 C6 -66.4(3)
C4 C5 C6 C7 -173.3(2)
C4 C5 C6 C16 -50.8(3)
C9 N1 C8 C3 -0.1(3)
C10 N1 C8 C3 174.69(19)
C9 N1 C8 C16 119.5(2)
C10 N1 C8 C16 -65.8(2)
C9 N1 C8 C13 -117.8(2)
C10 N1 C8 C13 57.0(2)
C2 C3 C8 N1 -0.9(3)
C4 C3 C8 N1 179.03(19)
C2 C3 C8 C16 -120.8(2)
C4 C3 C8 C16 59.1(2)
C2 C3 C8 C13 116.7(2)
C4 C3 C8 C13 -63.4(2)
C8 N1 C9 O2 -179.0(2)
C10 N1 C9 O2 6.4(3)
C8 N1 C9 C1 1.9(3)
C10 N1 C9 C1 -172.71(19)
O1 C1 C9 O2 -1.9(3)
C2 C1 C9 O2 177.9(2)
O1 C1 C9 N1 177.3(2)
C2 C1 C9 N1 -2.9(3)
C9 N1 C10 C11 117.3(2)
C8 N1 C10 C11 -57.9(3)
N1 C10 C11 C12 54.9(3)
C10 C11 C12 C13 -55.2(3)
C11 C12 C13 C14 -172.45(18)
C11 C12 C13 C8 56.5(2)
N1 C8 C13 C14 173.42(17)
C3 C8 C13 C14 51.1(2)
C16 C8 C13 C14 -67.4(2)
N1 C8 C13 C12 -55.8(2)
C3 C8 C13 C12 -178.16(18)
C16 C8 C13 C12 63.4(2)
C12 C13 C14 O3 12.0(3)
C8 C13 C14 O3 142.5(2)
C12 C13 C14 C15 -172.3(2)
C8 C13 C14 C15 -41.8(3)
O3 C14 C15 C4 -144.1(2)
C13 C14 C15 C4 40.3(3)
C3 C4 C15 C14 -48.9(3)
C5 C4 C15 C14 73.5(3)
C7 C6 C16 C8 175.17(19)
C5 C6 C16 C8 51.7(3)
N1 C8 C16 C6 -178.69(18)
C3 C8 C16 C6 -55.1(2)
C13 C8 C16 C6 63.1(2)
