#------------------------------------------------------------------------------
#$Date: 2019-11-11 19:03:49 +0200 (Mon, 11 Nov 2019) $
#$Revision: 226991 $
#$URL: file:///home/coder/svn-repositories/cod/cif/4/03/55/4035543.cif $
#------------------------------------------------------------------------------
#
# This file is available in the Crystallography Open Database (COD),
# http://www.crystallography.net/
#
# All data on this site have been placed in the public domain by the
# contributors.
#
data_4035543
loop_
_publ_author_name
'Li, Huaqiang'
'Sun, Weiguang'
'Deng, Mengyi'
'Zhou, Qun'
'Wang, Jianping'
'Liu, Junjun'
'Chen, Chunmei'
'Qi, Changxing'
'Luo, Zengwei'
'Xue, Yongbo'
'Zhu, Hucheng'
'Zhang, Yonghui'
_publ_section_title
;
 Asperversiamides, Linearly Fused Prenylated Indole Alkaloids from the
 Marine-Derived Fungus Aspergillus versicolor.
;
_journal_issue                   15
_journal_name_full               'The Journal of organic chemistry'
_journal_page_first              8483
_journal_page_last               8492
_journal_paper_doi               10.1021/acs.joc.8b01087
_journal_volume                  83
_journal_year                    2018
_chemical_absolute_configuration ad
_chemical_formula_moiety         'C26 H29 N3 O4, C H4 O'
_chemical_formula_sum            'C27 H33 N3 O5'
_chemical_formula_weight         479.56
_space_group_crystal_system      triclinic
_space_group_IT_number           1
_space_group_name_Hall           'P 1'
_space_group_name_H-M_alt        'P 1'
_atom_sites_solution_hydrogens   geom
_audit_creation_date             2017-12-18
_audit_creation_method
;
Olex2 1.2
(compiled 2017.08.10 svn.r3458 for OlexSys, GUI svn.r5381)
;
_cell_angle_alpha                93.959(2)
_cell_angle_beta                 106.285(2)
_cell_angle_gamma                95.686(2)
_cell_formula_units_Z            1
_cell_length_a                   7.01728(18)
_cell_length_b                   8.2752(2)
_cell_length_c                   10.7566(3)
_cell_measurement_reflns_used    10511
_cell_measurement_temperature    100.00(10)
_cell_measurement_theta_max      73.3290
_cell_measurement_theta_min      4.2850
_cell_volume                     593.54(3)
_computing_cell_refinement       'CrysAlisPro 1.171.38.43f (Rigaku OD, 2015)'
_computing_data_collection       'CrysAlisPro 1.171.38.43f (Rigaku OD, 2015)'
_computing_data_reduction        'CrysAlisPro 1.171.38.43f (Rigaku OD, 2015)'
_computing_molecular_graphics    'Olex2 (Dolomanov et al., 2009)'
_computing_publication_material  'Olex2 (Dolomanov et al., 2009)'
_computing_structure_refinement  'ShelXL (Sheldrick, 2015)'
_computing_structure_solution    'SHELXT 2014/5 (Sheldrick, 2014)'
_diffrn_ambient_environment      N~2~
_diffrn_ambient_temperature      100.00(10)
_diffrn_detector                 'CCD plate'
_diffrn_detector_area_resol_mean 5.2684
_diffrn_detector_type            AtlasS2
_diffrn_measured_fraction_theta_full 0.996
_diffrn_measured_fraction_theta_max 0.975
_diffrn_measurement_details
;
List of Runs (angles in degrees, time in seconds):

  # Type    Start    End  Width  t~exp~   \w     \q     \k     \f   Frames
--------------------------------------------------------------------------
  1  \w   -116.00 -17.00   1.00    1.00    --  -41.11 -37.00-150.00   99
  2  \w   -113.00 -13.00   1.00    1.00    --  -41.11 -57.00  60.00  100
  3  \w     13.00 113.00   1.00    1.00    --   41.11  57.00 -60.00  100
  4  \w     23.00  97.00   1.00    1.00    --   41.11-125.00 120.00   74
  5  \w     23.00  97.00   1.00    1.00    --   41.11-125.00 -90.00   74
  6  \w      6.00  33.00   1.00    1.00    --   42.00  88.00  87.84   27
  7  \w     17.00  47.00   1.00    1.00    --   50.00  79.00  85.62   30
  8  \w     16.00  45.00   1.00    1.00    --   50.00  82.00 -72.67   29
  9  \w     21.00  47.00   1.00    1.00    --   54.00  79.00-141.50   26
 10  \w     21.00  49.00   1.00    1.00    --   54.00  78.00  25.22   28
 11  \w     20.00  46.00   1.00    1.00    --   54.00  81.00 -52.03   26
 12  \w     26.00 133.00   1.00    1.00    --   58.00  75.00 -12.83  107
 13  \w     25.00 134.00   1.00    1.00    --   58.00  77.00-173.95  109
 14  \w     29.00 138.00   1.00    1.00    --   62.00  77.00-111.04  109
 15  \w     30.00 137.00   1.00    1.00    --   62.00  75.00 138.23  107
 16  \w     34.00 142.00   1.00    1.00    --   66.00  76.00 152.10  108
 17  \w     33.00 142.00   1.00    1.00    --   66.00  77.00  42.51  109
 18  \w     33.00 142.00   1.00    1.00    --   66.00  77.00  75.18  109
 19  \w     33.00 142.00   1.00    1.00    --   66.00  77.00-160.92  109
 20  \w     34.00 142.00   1.00    1.00    --   66.00  76.00 -58.47  108
 21  \w     37.00 146.00   1.00    1.00    --   70.00  77.00  99.86  109
 22  \w     74.00 178.00   1.00    1.00    --  106.95  77.00   0.00  104
 23  \w     81.00 171.00   1.00    1.00    --  106.95  61.00 150.00   90
 24  \w    145.00 172.00   1.00    1.00    --  106.95  77.00 -30.00   27
 25  \w    113.00 139.00   1.00    1.00    --  106.95  77.00 -30.00   26
 26  \w     75.00 101.00   1.00    1.00    --  106.95  77.00 -30.00   26
 27  \w     74.00  99.00   1.00    1.00    --  106.95  77.00 150.00   25
 28  \w     76.00 102.00   1.00    1.00    --  106.95  77.00 -60.00   26
 29  \w     79.00 114.00   1.00    1.00    --  106.95  61.00  90.00   35
 30  \w     77.00 158.00   1.00    1.00    --  106.95  77.00-180.00   81
 31  \w    105.00 155.00   1.00    1.00    --  106.95  77.00-120.00   50
 32  \w     74.00 101.00   1.00    1.00    --  106.95  77.00-120.00   27
 33  \w     94.00 178.00   1.00    1.00    --  106.95 125.00  60.00   84
 34  \w     79.00 111.00   1.00    1.00    --  106.95  77.00 120.00   32
 35  \w     79.00 104.00   1.00    1.00    --  106.95  61.00   0.00   25
 36  \w     78.00 105.00   1.00    1.00    --  106.95  61.00-180.00   27
 37  \w     36.00 110.00   1.00    1.00    --  106.95 -61.00  30.00   74
 38  \w     68.00 121.00   1.00    1.00    --  106.95-125.00  90.00   53
 39  \w    116.00 143.00   1.00    1.00    --  106.95  77.00 120.00   27
 40  \w     76.00 178.00   1.00    1.00    --  106.95  77.00  30.00  102
 41  \w     56.00 137.00   1.00    1.00    --  106.95 -77.00 120.00   81
 42  \w     78.00 111.00   1.00    1.00    --  106.95  77.00 -90.00   33
 43  \w    115.00 162.00   1.00    1.00    --  106.95  77.00 -90.00   47
 44  \w     78.00 111.00   1.00    1.00    --  106.95  61.00 120.00   33
 45  \w    112.00 177.00   1.00    1.00    --  106.95  77.00 -60.00   65
 46  \w     24.00  82.00   1.00    1.00    --  106.95 -94.00   0.00   58
 47  \w     88.00 113.00   1.00    1.00    --  106.95-125.00-120.00   25
 48  \w    113.00 139.00   1.00    1.00    --  106.95  77.00  60.00   26
 49  \w     75.00 101.00   1.00    1.00    --  106.95  77.00  60.00   26
 50  \w     75.00 150.00   1.00    1.00    --  106.95  77.00-150.00   75
 51  \w     79.00 106.00   1.00    1.00    --  106.95  61.00 -30.00   27
;
_diffrn_measurement_device       'four-circle diffractometer'
_diffrn_measurement_device_type  'SuperNova, Dual, Cu at zero, AtlasS2'
_diffrn_measurement_method       '\w scans'
_diffrn_orient_matrix_type
'CrysAlisPro convention (1999,Acta A55,543-557)'
_diffrn_orient_matrix_UB_11      0.1659651000
_diffrn_orient_matrix_UB_12      0.0912580000
_diffrn_orient_matrix_UB_13      -0.0460704000
_diffrn_orient_matrix_UB_21      -0.1577152000
_diffrn_orient_matrix_UB_22      0.0350028000
_diffrn_orient_matrix_UB_23      -0.1238447000
_diffrn_orient_matrix_UB_31      -0.0265442000
_diffrn_orient_matrix_UB_32      0.1606587000
_diffrn_orient_matrix_UB_33      0.0709480000
_diffrn_radiation_monochromator  mirror
_diffrn_radiation_probe          x-ray
_diffrn_radiation_type           CuK\a
_diffrn_radiation_wavelength     1.54184
_diffrn_reflns_av_R_equivalents  0.0161
_diffrn_reflns_av_unetI/netI     0.0150
_diffrn_reflns_Laue_measured_fraction_full 0.996
_diffrn_reflns_Laue_measured_fraction_max 0.975
_diffrn_reflns_limit_h_max       8
_diffrn_reflns_limit_h_min       -8
_diffrn_reflns_limit_k_max       10
_diffrn_reflns_limit_k_min       -10
_diffrn_reflns_limit_l_max       13
_diffrn_reflns_limit_l_min       -13
_diffrn_reflns_number            11144
_diffrn_reflns_point_group_measured_fraction_full 0.951
_diffrn_reflns_point_group_measured_fraction_max 0.917
_diffrn_reflns_theta_full        67.684
_diffrn_reflns_theta_max         73.507
_diffrn_reflns_theta_min         4.304
_diffrn_source                   'micro-focus sealed X-ray tube'
_diffrn_source_type              'SuperNova (Cu) X-ray Source'
_exptl_absorpt_coefficient_mu    0.756
_exptl_absorpt_correction_T_max  1.00000
_exptl_absorpt_correction_T_min  0.69750
_exptl_absorpt_correction_type   multi-scan
_exptl_absorpt_process_details
;
CrysAlisPro 1.171.38.43f (Rigaku Oxford Diffraction, 2015)
Empirical absorption correction using spherical harmonics,
 implemented in SCALE3 ABSPACK scaling algorithm.
;
_exptl_crystal_colour            colourless
_exptl_crystal_colour_primary    colourless
_exptl_crystal_density_diffrn    1.342
_exptl_crystal_description       block
_exptl_crystal_F_000             256
_exptl_crystal_size_max          0.15
_exptl_crystal_size_mid          0.13
_exptl_crystal_size_min          0.12
_refine_diff_density_max         0.190
_refine_diff_density_min         -0.147
_refine_diff_density_rms         0.032
_refine_ls_abs_structure_details
;
 Flack x determined using 2036 quotients [(I+)-(I-)]/[(I+)+(I-)]
 (Parsons, Flack and Wagner, Acta Cryst. B69 (2013) 249-259).
;
_refine_ls_abs_structure_Flack   0.09(7)
_refine_ls_extinction_coef       0.037(3)
_refine_ls_extinction_expression Fc^*^=kFc[1+0.001xFc^2^\l^3^/sin(2\q)]^-1/4^
_refine_ls_extinction_method     'SHELXL-2017/1 (Sheldrick 2017)'
_refine_ls_goodness_of_fit_ref   1.038
_refine_ls_hydrogen_treatment    constr
_refine_ls_matrix_type           full
_refine_ls_number_parameters     323
_refine_ls_number_reflns         4395
_refine_ls_number_restraints     3
_refine_ls_restrained_S_all      1.037
_refine_ls_R_factor_all          0.0267
_refine_ls_R_factor_gt           0.0266
_refine_ls_shift/su_max          0.000
_refine_ls_shift/su_mean         0.000
_refine_ls_structure_factor_coef Fsqd
_refine_ls_weighting_details
'w=1/[\s^2^(Fo^2^)+(0.0443P)^2^+0.1184P] where P=(Fo^2^+2Fc^2^)/3'
_refine_ls_weighting_scheme      calc
_refine_ls_wR_factor_gt          0.0710
_refine_ls_wR_factor_ref         0.0711
_reflns_Friedel_coverage         0.881
_reflns_Friedel_fraction_full    0.905
_reflns_Friedel_fraction_max     0.859
_reflns_number_gt                4389
_reflns_number_total             4395
_reflns_threshold_expression     'I > 2\s(I)'
_iucr_refine_instructions_details
;
TITL 420_6_a.res in P1
    420_6.res
    created by SHELXL-2017/1 at 20:45:54 on 18-Dec-2017
REM Old TITL 420_6 in P1 #1
REM SHELXT solution in P1
REM R1 0.077, Rweak 0.038, Alpha 0.000, Orientation as input
REM Flack x = 0.175 ( 0.068 ) from Parsons' quotients
REM Formula found by SHELXT: C27 N3 O5
CELL 1.54184 7.017279 8.275244 10.756643 93.9593 106.2851 95.6856
ZERR 1 0.000181 0.00023 0.000264 0.0021 0.0022 0.0022
LATT -1
SFAC C H N O
UNIT 27 33 3 5

L.S. 20
PLAN  20
SIZE 0.12 0.13 0.15
BOND $H
LIST 6
MORE -1
CONF
fmap 2 53
ACTA
REM <olex2.extras>
REM <HklSrc "%.\\420_6.hkl">
REM </olex2.extras>

WGHT    0.044300    0.118400
EXTI    0.036655
FVAR       1.76006
O3    4    0.611999    0.892806    0.663482    11.00000    0.02358    0.01787 =
         0.01880   -0.00024    0.00821   -0.00203
O2    4    0.292899    0.697093    0.295411    11.00000    0.03070    0.01689 =
         0.02281    0.00635    0.00936    0.00802
O1    4    0.645122   -0.025623    0.120174    11.00000    0.02884    0.03169 =
         0.01383   -0.00080    0.00499    0.01602
O4    4    0.353759    0.464623    0.915262    11.00000    0.03390    0.02904 =
         0.01668    0.00709    0.00945    0.00192
O5    4    0.712869    1.241891    0.759015    11.00000    0.04055    0.02133 =
         0.03026    0.00308    0.00396    0.00865
AFIX 147
H     2    0.687976    1.143241    0.737906    11.00000   -1.50000
AFIX   0

N19   3    0.472367    0.514111    0.742263    11.00000    0.01827    0.01791 =
         0.01349    0.00322    0.00316    0.00500
AFIX  43
H19   2    0.558314    0.445334    0.756916    11.00000   -1.20000
AFIX   0
N13   3    0.364055    0.815609    0.754902    11.00000    0.02328    0.01721 =
         0.01603   -0.00089    0.00683    0.00213
N1    3    0.353853    0.467632    0.187778    11.00000    0.02572    0.02160 =
         0.01138    0.00619    0.00656    0.00750
AFIX  43
H1    2    0.318852    0.495782    0.109879    11.00000   -1.20000
AFIX   0
C6    1    0.588000    0.085101    0.199192    11.00000    0.01567    0.02069 =
         0.01530   -0.00209    0.00615    0.00349
C4    1    0.549050    0.178489    0.406874    11.00000    0.01886    0.01625 =
         0.01276    0.00267    0.00686    0.00217
AFIX  43
H4    2    0.566903    0.166605    0.494606    11.00000   -1.20000
AFIX   0
C12   1    0.487282    0.788158    0.682965    11.00000    0.01760    0.01844 =
         0.01059    0.00139    0.00200    0.00353
C21   1    0.216298    0.582985    0.548605    11.00000    0.01313    0.01721 =
         0.01350    0.00078    0.00314    0.00282
AFIX  13
H21   2    0.194750    0.672370    0.492991    11.00000   -1.20000
AFIX   0
C10   1    0.547777    0.548306    0.530801    11.00000    0.01466    0.01585 =
         0.01480   -0.00055    0.00461    0.00240
AFIX  23
H10A  2    0.644156    0.476912    0.570511    11.00000   -1.20000
H10B  2    0.618263    0.640061    0.503921    11.00000   -1.20000
AFIX   0
C8    1    0.432360    0.322310    0.220575    11.00000    0.01519    0.01812 =
         0.01488    0.00229    0.00426    0.00271
C3    1    0.385341    0.453674    0.410760    11.00000    0.01567    0.01319 =
         0.01204    0.00155    0.00513    0.00315
C18   1    0.360332    0.540836    0.821857    11.00000    0.02127    0.02013 =
         0.01247    0.00002    0.00370   -0.00018
C2    1    0.339593    0.559041    0.294097    11.00000    0.01606    0.02004 =
         0.01569    0.00399    0.00514    0.00164
C5    1    0.617551    0.067281    0.331445    11.00000    0.01648    0.01763 =
         0.01559    0.00157    0.00544    0.00117
C27   1    0.810895   -0.117804    0.176717    11.00000    0.02171    0.01932 =
         0.01784   -0.00024    0.00732    0.00777
C24   1   -0.005601    0.413320    0.346613    11.00000    0.01671    0.01837 =
         0.01924   -0.00115    0.00082    0.00068
AFIX 137
H24A  2   -0.117232    0.395120    0.381128    11.00000   -1.50000
H24B  2   -0.010525    0.324265    0.283221    11.00000   -1.50000
H24C  2   -0.011460    0.513295    0.306190    11.00000   -1.50000
AFIX   0
C11   1    0.441632    0.608420    0.627687    11.00000    0.01445    0.01717 =
         0.01108    0.00305    0.00249    0.00201
C9    1    0.454498    0.306695    0.352124    11.00000    0.01520    0.01610 =
         0.01291   -0.00025    0.00498    0.00079
C22   1    0.189983    0.424951    0.457336    11.00000    0.01471    0.01653 =
         0.01371    0.00042    0.00499    0.00185
C20   1    0.087895    0.602043    0.641910    11.00000    0.01665    0.02204 =
         0.01896   -0.00015    0.00708    0.00244
AFIX  23
H20A  2    0.020520    0.496755    0.649791    11.00000   -1.20000
H20B  2   -0.012397    0.673672    0.609716    11.00000   -1.20000
AFIX   0
C7    1    0.494651    0.213174    0.141276    11.00000    0.02071    0.02312 =
         0.01012   -0.00064    0.00376    0.00398
AFIX  43
H7    2    0.475084    0.224807    0.053355    11.00000   -1.20000
AFIX   0
C25   1    0.725860   -0.066038    0.384048    11.00000    0.02768    0.01969 =
         0.01682    0.00421    0.00943    0.00583
AFIX  43
H25   2    0.732946   -0.090617    0.468174    11.00000   -1.20000
AFIX   0
C23   1    0.187911    0.267754    0.525420    11.00000    0.01873    0.01783 =
         0.01833    0.00174    0.00747    0.00079
AFIX 137
H23A  2    0.315910    0.265869    0.587592    11.00000   -1.50000
H23B  2    0.160415    0.174714    0.461839    11.00000   -1.50000
H23C  2    0.086112    0.264498    0.569352    11.00000   -1.50000
AFIX   0
C17   1    0.231549    0.676227    0.775947    11.00000    0.02160    0.02229 =
         0.01661    0.00029    0.01033    0.00155
C29   1    0.771595   -0.272779    0.085064    11.00000    0.03248    0.02375 =
         0.02539   -0.00345    0.00917    0.00708
AFIX 137
H29A  2    0.657144   -0.340053    0.093388    11.00000   -1.50000
H29B  2    0.886284   -0.331041    0.106637    11.00000   -1.50000
H29C  2    0.746457   -0.245438   -0.002907    11.00000   -1.50000
AFIX   0
C14   1    0.339346    0.971625    0.817484    11.00000    0.03330    0.02014 =
         0.01923   -0.00313    0.00867    0.00857
AFIX  23
H14A  2    0.333685    1.056993    0.759590    11.00000   -1.20000
H14B  2    0.446856    1.004690    0.897030    11.00000   -1.20000
AFIX   0
C28   1    1.005272   -0.018669    0.176968    11.00000    0.02890    0.02315 =
         0.02984    0.00470    0.01005    0.00474
AFIX 137
H28A  2    0.998787    0.005326    0.089931    11.00000   -1.50000
H28B  2    1.114792   -0.080182    0.208969    11.00000   -1.50000
H28C  2    1.025026    0.081473    0.232164    11.00000   -1.50000
AFIX   0
C26   1    0.814260   -0.152498    0.313236    11.00000    0.02835    0.02154 =
         0.02109    0.00520    0.00760    0.00975
AFIX  43
H26   2    0.880846   -0.237704    0.348922    11.00000   -1.20000
AFIX   0
C16   1    0.134799    0.752255    0.872465    11.00000    0.03190    0.03474 =
         0.02521   -0.00190    0.01690    0.00525
AFIX  23
H16A  2    0.210396    0.741504    0.961395    11.00000   -1.20000
H16B  2   -0.001544    0.701585    0.857143    11.00000   -1.20000
AFIX   0
C15   1    0.139659    0.932001    0.845744    11.00000    0.03817    0.03381 =
         0.02762   -0.00239    0.01721    0.01257
AFIX  23
H15A  2    0.028997    0.947033    0.771534    11.00000   -1.20000
H15B  2    0.133231    1.000576    0.920966    11.00000   -1.20000
AFIX   0

C00Z  1    0.840817    1.271471    0.888921    11.00000    0.04124    0.03624 =
         0.04191    0.00435   -0.00226    0.01455
AFIX 137
HA    2    0.977753    1.277427    0.888050    11.00000   -1.50000
HB    2    0.812381    1.184191    0.937870    11.00000   -1.50000
HC    2    0.818650    1.372755    0.928496    11.00000   -1.50000
AFIX   0
HKLF 4




REM  420_6_a.res in P1
REM R1 =  0.0266 for    4389 Fo > 4sig(Fo)  and  0.0267 for all    4395 data
REM    323 parameters refined using      3 restraints

END  
     
WGHT      0.0437      0.1195 

REM Highest difference peak  0.190,  deepest hole -0.147,  1-sigma level  0.032
Q1    1   0.3614  0.5121  0.3611  11.00000  0.05    0.19
Q2    1   0.5065  0.5909  0.5837  11.00000  0.05    0.18
Q3    1   0.3010  0.6219  0.8135  11.00000  0.05    0.18
Q4    1   0.4467  0.3168  0.2838  11.00000  0.05    0.18
Q5    1   0.4599  0.6985  0.6433  11.00000  0.05    0.18
Q6    1   0.7879 -0.1383  0.2374  11.00000  0.05    0.17
Q7    1   0.5198  0.2977  0.1919  11.00000  0.05    0.17
Q8    1   0.5916  0.0803  0.2678  11.00000  0.05    0.16
Q9    1   0.2828  0.4333  0.4252  11.00000  0.05    0.16
Q10   1   0.4176  0.3810  0.3917  11.00000  0.05    0.15
Q11   1   0.6745  0.0189  0.3605  11.00000  0.05    0.15
Q12   1   0.1558  0.5883  0.5976  11.00000  0.05    0.15
Q13   1   0.6212  0.1568  0.3674  11.00000  0.05    0.14
Q14   1   0.4744  0.4106  0.7283  11.00000  0.05    0.14
Q15   1   0.1686  0.7049  0.8196  11.00000  0.05    0.13
Q16   1   0.1905  0.4982  0.5082  11.00000  0.05    0.13
Q17   1   0.3275  0.5957  0.5827  11.00000  0.05    0.13
Q18   1   0.7050 -0.1405  0.3195  11.00000  0.05    0.13
Q19   1   0.0932  0.4240  0.4021  11.00000  0.05    0.13
Q20   1   0.3795  0.8147  0.6894  11.00000  0.05    0.13

  REM The information below was added by Olex2.
  REM
  REM R1 = 0.0266 for 4389 Fo > 4sig(Fo) and 0.0267 for all 11144 data
  REM n/a parameters refined using n/a restraints
  REM Highest difference peak 0.19, deepest hole -0.15
  REM Mean Shift 0, Max Shift 0.000.

  REM +++ Tabular Listing of Refinement Information +++
  REM R1_all = 0.0267
  REM R1_gt = 0.0266
  REM wR_ref = 0.0711
  REM GOOF = 1.038
  REM Shift_max = 0.000
  REM Shift_mean = 0
  REM Reflections_all = 11144
  REM Reflections_gt = 4389
  REM Parameters = n/a
  REM Hole = -0.15
  REM Peak = 0.19
  REM Flack = 0.09(7)

  
;
_cod_data_source_file            jo8b01087_si_002.cif
_cod_data_source_block           420_6
_cod_original_cell_volume        593.55(3)
_cod_database_code               4035543
_shelx_shelxl_version_number     2017/1
_shelx_space_group_comment
;
The symmetry employed for this shelxl refinement is uniquely defined
by the following loop, which should always be used as a source of
symmetry information in preference to the above space-group names.
They are only intended as comments.
;
_shelx_estimated_absorpt_t_max   0.915
_shelx_estimated_absorpt_t_min   0.895
_reflns_odcompleteness_completeness 99.62
_reflns_odcompleteness_iscentric 1
_reflns_odcompleteness_theta     66.97
_olex2_refinement_description
;
1. Fixed Uiso
 At 1.2 times of:
  All C(H) groups, All C(H,H) groups, All N(H) groups
 At 1.5 times of:
  All C(H,H,H) groups, All O(H) groups
2.a Ternary CH refined with riding coordinates:
 C21(H21)
2.b Secondary CH2 refined with riding coordinates:
 C10(H10A,H10B), C20(H20A,H20B), C14(H14A,H14B), C16(H16A,H16B), C15(H15A,H15B)
2.c Aromatic/amide H refined with riding coordinates:
 N19(H19), N1(H1), C4(H4), C7(H7), C25(H25), C26(H26)
2.d Idealised Me refined as rotating group:
 C24(H24A,H24B,H24C), C23(H23A,H23B,H23C), C29(H29A,H29B,H29C), C28(H28A,H28B,
 H28C), C00Z(HA,HB,HC)
2.e Idealised tetrahedral OH refined as rotating group:
 O5(H)
;
_olex2_submission_special_instructions 'No special instructions were received'
_oxdiff_exptl_absorpt_empirical_details
;
Empirical correction (ABSPACK) includes:
- Absorption correction using spherical harmonics
- Frame scaling
- Detector area scaling
;
_oxdiff_exptl_absorpt_empirical_full_max 1.635
_oxdiff_exptl_absorpt_empirical_full_min 0.594
loop_
_space_group_symop_operation_xyz
'x, y, z'
loop_
_atom_site_label
_atom_site_type_symbol
_atom_site_fract_x
_atom_site_fract_y
_atom_site_fract_z
_atom_site_U_iso_or_equiv
_atom_site_adp_type
_atom_site_occupancy
_atom_site_site_symmetry_order
_atom_site_calc_flag
_atom_site_refinement_flags_posn
O3 O 0.6120(2) 0.89281(17) 0.66348(13) 0.0201(3) Uani 1 1 d .
O2 O 0.2929(2) 0.69709(17) 0.29541(14) 0.0226(3) Uani 1 1 d .
O1 O 0.6451(2) -0.02562(19) 0.12017(13) 0.0243(3) Uani 1 1 d .
O4 O 0.3538(2) 0.46462(19) 0.91526(14) 0.0260(3) Uani 1 1 d .
O5 O 0.7129(2) 1.2419(2) 0.75901(16) 0.0316(4) Uani 1 1 d .
H H 0.687976 1.143241 0.737906 0.047 Uiso 1 1 calc GR
N19 N 0.4724(2) 0.5141(2) 0.74226(15) 0.0166(3) Uani 1 1 d .
H19 H 0.558314 0.445334 0.756916 0.020 Uiso 1 1 calc R
N13 N 0.3641(2) 0.8156(2) 0.75490(16) 0.0188(3) Uani 1 1 d .
N1 N 0.3539(2) 0.4676(2) 0.18778(15) 0.0188(3) Uani 1 1 d .
H1 H 0.318852 0.495782 0.109879 0.023 Uiso 1 1 calc R
C6 C 0.5880(3) 0.0851(2) 0.19919(18) 0.0170(4) Uani 1 1 d .
C4 C 0.5490(3) 0.1785(2) 0.40687(18) 0.0154(4) Uani 1 1 d .
H4 H 0.566903 0.166605 0.494606 0.019 Uiso 1 1 calc R
C12 C 0.4873(3) 0.7882(2) 0.68297(17) 0.0159(4) Uani 1 1 d .
C21 C 0.2163(3) 0.5830(2) 0.54861(18) 0.0147(4) Uani 1 1 d .
H21 H 0.194750 0.672370 0.492991 0.018 Uiso 1 1 calc R
C10 C 0.5478(3) 0.5483(2) 0.53080(18) 0.0151(4) Uani 1 1 d .
H10A H 0.644156 0.476912 0.570511 0.018 Uiso 1 1 calc R
H10B H 0.618263 0.640061 0.503921 0.018 Uiso 1 1 calc R
C8 C 0.4324(3) 0.3223(2) 0.22058(18) 0.0160(4) Uani 1 1 d .
C3 C 0.3853(3) 0.4537(2) 0.41076(17) 0.0133(4) Uani 1 1 d .
C18 C 0.3603(3) 0.5408(2) 0.82186(18) 0.0185(4) Uani 1 1 d .
C2 C 0.3396(3) 0.5590(2) 0.29410(18) 0.0171(4) Uani 1 1 d .
C5 C 0.6176(3) 0.0673(2) 0.33144(18) 0.0165(4) Uani 1 1 d .
C27 C 0.8109(3) -0.1178(2) 0.17672(19) 0.0190(4) Uani 1 1 d .
C24 C -0.0056(3) 0.4133(2) 0.34661(19) 0.0193(4) Uani 1 1 d .
H24A H -0.117232 0.395120 0.381128 0.029 Uiso 1 1 calc GR
H24B H -0.010525 0.324265 0.283221 0.029 Uiso 1 1 calc GR
H24C H -0.011460 0.513295 0.306190 0.029 Uiso 1 1 calc GR
C11 C 0.4416(3) 0.6084(2) 0.62769(17) 0.0144(4) Uani 1 1 d .
C9 C 0.4545(3) 0.3067(2) 0.35212(17) 0.0147(4) Uani 1 1 d .
C22 C 0.1900(3) 0.4250(2) 0.45734(18) 0.0149(4) Uani 1 1 d .
C20 C 0.0879(3) 0.6020(2) 0.64191(19) 0.0189(4) Uani 1 1 d .
H20A H 0.020520 0.496755 0.649791 0.023 Uiso 1 1 calc R
H20B H -0.012397 0.673672 0.609716 0.023 Uiso 1 1 calc R
C7 C 0.4947(3) 0.2132(2) 0.14128(18) 0.0182(4) Uani 1 1 d .
H7 H 0.475084 0.224807 0.053355 0.022 Uiso 1 1 calc R
C25 C 0.7259(3) -0.0660(2) 0.38405(19) 0.0205(4) Uani 1 1 d .
H25 H 0.732946 -0.090617 0.468174 0.025 Uiso 1 1 calc R
C23 C 0.1879(3) 0.2678(2) 0.52542(19) 0.0180(4) Uani 1 1 d .
H23A H 0.315910 0.265869 0.587592 0.027 Uiso 1 1 calc GR
H23B H 0.160415 0.174714 0.461839 0.027 Uiso 1 1 calc GR
H23C H 0.086112 0.264498 0.569352 0.027 Uiso 1 1 calc GR
C17 C 0.2315(3) 0.6762(2) 0.77595(19) 0.0193(4) Uani 1 1 d .
C29 C 0.7716(3) -0.2728(3) 0.0851(2) 0.0271(5) Uani 1 1 d .
H29A H 0.657144 -0.340053 0.093388 0.041 Uiso 1 1 calc GR
H29B H 0.886284 -0.331041 0.106637 0.041 Uiso 1 1 calc GR
H29C H 0.746457 -0.245438 -0.002907 0.041 Uiso 1 1 calc GR
C14 C 0.3393(3) 0.9716(3) 0.8175(2) 0.0239(4) Uani 1 1 d .
H14A H 0.333685 1.056993 0.759590 0.029 Uiso 1 1 calc R
H14B H 0.446856 1.004690 0.897030 0.029 Uiso 1 1 calc R
C28 C 1.0053(3) -0.0187(3) 0.1770(2) 0.0268(5) Uani 1 1 d .
H28A H 0.998787 0.005326 0.089931 0.040 Uiso 1 1 calc GR
H28B H 1.114792 -0.080182 0.208969 0.040 Uiso 1 1 calc GR
H28C H 1.025026 0.081473 0.232164 0.040 Uiso 1 1 calc GR
C26 C 0.8143(3) -0.1525(3) 0.3132(2) 0.0230(4) Uani 1 1 d .
H26 H 0.880846 -0.237704 0.348922 0.028 Uiso 1 1 calc R
C16 C 0.1348(3) 0.7523(3) 0.8725(2) 0.0290(5) Uani 1 1 d .
H16A H 0.210396 0.741504 0.961395 0.035 Uiso 1 1 calc R
H16B H -0.001544 0.701585 0.857143 0.035 Uiso 1 1 calc R
C15 C 0.1397(4) 0.9320(3) 0.8457(2) 0.0313(5) Uani 1 1 d .
H15A H 0.028997 0.947033 0.771534 0.038 Uiso 1 1 calc R
H15B H 0.133231 1.000576 0.920966 0.038 Uiso 1 1 calc R
C00Z C 0.8408(4) 1.2715(3) 0.8889(3) 0.0420(6) Uani 1 1 d .
HA H 0.977753 1.277427 0.888050 0.063 Uiso 1 1 calc GR
HB H 0.812381 1.184191 0.937870 0.063 Uiso 1 1 calc GR
HC H 0.818650 1.372755 0.928496 0.063 Uiso 1 1 calc GR
loop_
_atom_site_aniso_label
_atom_site_aniso_U_11
_atom_site_aniso_U_22
_atom_site_aniso_U_33
_atom_site_aniso_U_23
_atom_site_aniso_U_13
_atom_site_aniso_U_12
O3 0.0236(7) 0.0179(7) 0.0188(7) -0.0002(5) 0.0082(5) -0.0020(5)
O2 0.0307(7) 0.0169(7) 0.0228(7) 0.0064(6) 0.0094(6) 0.0080(6)
O1 0.0288(7) 0.0317(9) 0.0138(6) -0.0008(6) 0.0050(5) 0.0160(6)
O4 0.0339(8) 0.0290(8) 0.0167(7) 0.0071(6) 0.0094(6) 0.0019(6)
O5 0.0405(9) 0.0213(8) 0.0303(8) 0.0031(6) 0.0040(7) 0.0087(7)
N19 0.0183(7) 0.0179(8) 0.0135(7) 0.0032(6) 0.0032(6) 0.0050(6)
N13 0.0233(8) 0.0172(8) 0.0160(7) -0.0009(6) 0.0068(6) 0.0021(6)
N1 0.0257(8) 0.0216(9) 0.0114(7) 0.0062(6) 0.0066(6) 0.0075(6)
C6 0.0157(8) 0.0207(10) 0.0153(9) -0.0021(8) 0.0061(7) 0.0035(7)
C4 0.0189(9) 0.0162(9) 0.0128(8) 0.0027(7) 0.0069(7) 0.0022(7)
C12 0.0176(8) 0.0184(10) 0.0106(8) 0.0014(7) 0.0020(7) 0.0035(7)
C21 0.0131(8) 0.0172(9) 0.0135(8) 0.0008(7) 0.0031(6) 0.0028(6)
C10 0.0147(8) 0.0158(9) 0.0148(8) -0.0005(7) 0.0046(6) 0.0024(7)
C8 0.0152(8) 0.0181(10) 0.0149(8) 0.0023(7) 0.0043(7) 0.0027(7)
C3 0.0157(8) 0.0132(9) 0.0120(8) 0.0015(7) 0.0051(7) 0.0032(7)
C18 0.0213(9) 0.0201(10) 0.0125(9) 0.0000(7) 0.0037(7) -0.0002(7)
C2 0.0161(8) 0.0200(10) 0.0157(9) 0.0040(7) 0.0051(7) 0.0016(7)
C5 0.0165(8) 0.0176(10) 0.0156(8) 0.0016(7) 0.0054(7) 0.0012(7)
C27 0.0217(9) 0.0193(10) 0.0178(9) -0.0002(8) 0.0073(7) 0.0078(7)
C24 0.0167(8) 0.0184(10) 0.0192(9) -0.0012(8) 0.0008(7) 0.0007(7)
C11 0.0144(8) 0.0172(9) 0.0111(8) 0.0031(7) 0.0025(7) 0.0020(7)
C9 0.0152(8) 0.0161(9) 0.0129(8) -0.0003(7) 0.0050(6) 0.0008(7)
C22 0.0147(8) 0.0165(10) 0.0137(8) 0.0004(7) 0.0050(7) 0.0018(7)
C20 0.0166(8) 0.0220(10) 0.0190(9) -0.0001(8) 0.0071(7) 0.0024(7)
C7 0.0207(9) 0.0231(11) 0.0101(8) -0.0006(7) 0.0038(7) 0.0040(7)
C25 0.0277(10) 0.0197(10) 0.0168(9) 0.0042(8) 0.0094(8) 0.0058(8)
C23 0.0187(9) 0.0178(10) 0.0183(9) 0.0017(8) 0.0075(7) 0.0008(7)
C17 0.0216(9) 0.0223(10) 0.0166(9) 0.0003(8) 0.0103(7) 0.0015(8)
C29 0.0325(11) 0.0237(11) 0.0254(10) -0.0034(9) 0.0092(9) 0.0071(9)
C14 0.0333(11) 0.0201(11) 0.0192(9) -0.0031(8) 0.0087(8) 0.0086(8)
C28 0.0289(11) 0.0232(11) 0.0298(11) 0.0047(9) 0.0101(9) 0.0047(9)
C26 0.0284(10) 0.0215(11) 0.0211(10) 0.0052(8) 0.0076(8) 0.0098(8)
C16 0.0319(11) 0.0347(13) 0.0252(11) -0.0019(9) 0.0169(9) 0.0053(9)
C15 0.0382(12) 0.0338(13) 0.0276(11) -0.0024(10) 0.0172(10) 0.0126(10)
C00Z 0.0412(14) 0.0362(14) 0.0419(14) 0.0044(11) -0.0023(11) 0.0146(11)
loop_
_atom_type_symbol
_atom_type_description
_atom_type_scat_dispersion_real
_atom_type_scat_dispersion_imag
_atom_type_scat_source
C C 0.0181 0.0091 'International Tables Vol C Tables 4.2.6.8 and 6.1.1.4'
H H 0.0000 0.0000 'International Tables Vol C Tables 4.2.6.8 and 6.1.1.4'
N N 0.0311 0.0180 'International Tables Vol C Tables 4.2.6.8 and 6.1.1.4'
O O 0.0492 0.0322 'International Tables Vol C Tables 4.2.6.8 and 6.1.1.4'
loop_
_geom_angle_atom_site_label_1
_geom_angle_atom_site_label_2
_geom_angle_atom_site_label_3
_geom_angle
C6 O1 C27 119.42(14)
C00Z O5 H 109.5
C18 N19 H19 121.6
C18 N19 C11 116.89(15)
C11 N19 H19 121.6
C12 N13 C17 118.84(16)
C12 N13 C14 127.84(17)
C14 N13 C17 113.32(15)
C8 N1 H1 124.1
C2 N1 H1 124.1
C2 N1 C8 111.75(15)
O1 C6 C5 121.26(17)
O1 C6 C7 117.07(16)
C7 C6 C5 121.64(17)
C5 C4 H4 119.8
C9 C4 H4 119.8
C9 C4 C5 120.46(16)
O3 C12 N13 125.02(18)
O3 C12 C11 127.13(17)
N13 C12 C11 107.83(16)
C11 C21 H21 106.7
C22 C21 H21 106.7
C22 C21 C11 105.04(14)
C20 C21 H21 106.7
C20 C21 C11 109.50(15)
C20 C21 C22 121.38(15)
H10A C10 H10B 108.5
C3 C10 H10A 110.2
C3 C10 H10B 110.2
C11 C10 H10A 110.2
C11 C10 H10B 110.2
C11 C10 C3 107.70(14)
C9 C8 N1 109.53(17)
C7 C8 N1 127.09(17)
C7 C8 C9 123.22(17)
C10 C3 C22 104.91(14)
C2 C3 C10 110.98(15)
C2 C3 C22 108.23(14)
C9 C3 C10 113.56(14)
C9 C3 C2 101.23(14)
C9 C3 C22 117.86(15)
O4 C18 N19 125.82(18)
O4 C18 C17 124.34(17)
N19 C18 C17 109.77(15)
O2 C2 N1 125.52(17)
O2 C2 C3 126.66(17)
N1 C2 C3 107.79(15)
C6 C5 C25 117.34(17)
C4 C5 C6 119.36(17)
C4 C5 C25 123.28(17)
O1 C27 C29 104.48(16)
O1 C27 C28 108.41(16)
O1 C27 C26 110.66(15)
C29 C27 C28 110.38(17)
C26 C27 C29 112.09(18)
C26 C27 C28 110.60(17)
H24A C24 H24B 109.5
H24A C24 H24C 109.5
H24B C24 H24C 109.5
C22 C24 H24A 109.5
C22 C24 H24B 109.5
C22 C24 H24C 109.5
N19 C11 C12 105.53(14)
N19 C11 C21 109.60(14)
N19 C11 C10 112.82(15)
C12 C11 C21 105.81(14)
C10 C11 C12 118.61(15)
C10 C11 C21 104.09(14)
C4 C9 C8 118.35(17)
C4 C9 C3 132.29(16)
C8 C9 C3 108.95(16)
C21 C22 C3 100.15(14)
C24 C22 C21 110.15(15)
C24 C22 C3 113.74(15)
C24 C22 C23 108.02(15)
C23 C22 C21 114.17(15)
C23 C22 C3 110.61(14)
C21 C20 H20A 110.3
C21 C20 H20B 110.3
C21 C20 C17 106.99(14)
H20A C20 H20B 108.6
C17 C20 H20A 110.3
C17 C20 H20B 110.3
C6 C7 H7 121.5
C8 C7 C6 116.94(17)
C8 C7 H7 121.5
C5 C25 H25 119.7
C26 C25 C5 120.67(18)
C26 C25 H25 119.7
C22 C23 H23A 109.5
C22 C23 H23B 109.5
C22 C23 H23C 109.5
H23A C23 H23B 109.5
H23A C23 H23C 109.5
H23B C23 H23C 109.5
N13 C17 C18 107.80(15)
N13 C17 C20 108.53(15)
N13 C17 C16 103.01(16)
C18 C17 C20 104.07(16)
C16 C17 C18 116.68(16)
C16 C17 C20 116.37(16)
C27 C29 H29A 109.5
C27 C29 H29B 109.5
C27 C29 H29C 109.5
H29A C29 H29B 109.5
H29A C29 H29C 109.5
H29B C29 H29C 109.5
N13 C14 H14A 111.4
N13 C14 H14B 111.4
N13 C14 C15 102.04(17)
H14A C14 H14B 109.2
C15 C14 H14A 111.4
C15 C14 H14B 111.4
C27 C28 H28A 109.5
C27 C28 H28B 109.5
C27 C28 H28C 109.5
H28A C28 H28B 109.5
H28A C28 H28C 109.5
H28B C28 H28C 109.5
C27 C26 H26 118.8
C25 C26 C27 122.42(18)
C25 C26 H26 118.8
C17 C16 H16A 111.0
C17 C16 H16B 111.0
C17 C16 C15 103.69(17)
H16A C16 H16B 109.0
C15 C16 H16A 111.0
C15 C16 H16B 111.0
C14 C15 C16 104.08(18)
C14 C15 H15A 110.9
C14 C15 H15B 110.9
C16 C15 H15A 110.9
C16 C15 H15B 110.9
H15A C15 H15B 109.0
O5 C00Z HA 109.5
O5 C00Z HB 109.5
O5 C00Z HC 109.5
HA C00Z HB 109.5
HA C00Z HC 109.5
HB C00Z HC 109.5
loop_
_geom_bond_atom_site_label_1
_geom_bond_atom_site_label_2
_geom_bond_distance
O3 C12 1.240(2)
O2 C2 1.220(2)
O1 C6 1.371(2)
O1 C27 1.466(2)
O4 C18 1.232(2)
O5 H 0.8200
O5 C00Z 1.423(3)
N19 H19 0.8600
N19 C18 1.336(2)
N19 C11 1.480(2)
N13 C12 1.337(2)
N13 C17 1.479(2)
N13 C14 1.463(3)
N1 H1 0.8600
N1 C8 1.398(3)
N1 C2 1.360(3)
C6 C5 1.399(3)
C6 C7 1.393(3)
C4 H4 0.9300
C4 C5 1.393(3)
C4 C9 1.385(3)
C12 C11 1.531(3)
C21 H21 0.9800
C21 C11 1.557(2)
C21 C22 1.543(3)
C21 C20 1.535(3)
C10 H10A 0.9700
C10 H10B 0.9700
C10 C3 1.561(3)
C10 C11 1.525(2)
C8 C9 1.396(3)
C8 C7 1.384(3)
C3 C2 1.555(2)
C3 C9 1.515(3)
C3 C22 1.589(2)
C18 C17 1.531(3)
C5 C25 1.458(3)
C27 C29 1.515(3)
C27 C28 1.520(3)
C27 C26 1.510(3)
C24 H24A 0.9600
C24 H24B 0.9600
C24 H24C 0.9600
C24 C22 1.534(2)
C22 C23 1.537(3)
C20 H20A 0.9700
C20 H20B 0.9700
C20 C17 1.553(3)
C7 H7 0.9300
C25 H25 0.9300
C25 C26 1.325(3)
C23 H23A 0.9600
C23 H23B 0.9600
C23 H23C 0.9600
C17 C16 1.525(3)
C29 H29A 0.9600
C29 H29B 0.9600
C29 H29C 0.9600
C14 H14A 0.9700
C14 H14B 0.9700
C14 C15 1.525(3)
C28 H28A 0.9600
C28 H28B 0.9600
C28 H28C 0.9600
C26 H26 0.9300
C16 H16A 0.9700
C16 H16B 0.9700
C16 C15 1.533(3)
C15 H15A 0.9700
C15 H15B 0.9700
C00Z HA 0.9600
C00Z HB 0.9600
C00Z HC 0.9600
loop_
_geom_torsion_atom_site_label_1
_geom_torsion_atom_site_label_2
_geom_torsion_atom_site_label_3
_geom_torsion_atom_site_label_4
_geom_torsion
O3 C12 C11 N19 123.31(19)
O3 C12 C11 C21 -120.56(19)
O3 C12 C11 C10 -4.3(3)
O1 C6 C5 C4 -177.10(17)
O1 C6 C5 C25 4.8(3)
O1 C6 C7 C8 178.33(16)
O1 C27 C26 C25 -20.8(3)
O4 C18 C17 N13 132.90(19)
O4 C18 C17 C20 -112.0(2)
O4 C18 C17 C16 17.7(3)
N19 C18 C17 N13 -49.8(2)
N19 C18 C17 C20 65.30(18)
N19 C18 C17 C16 -165.03(17)
N13 C12 C11 N19 -58.27(18)
N13 C12 C11 C21 57.87(18)
N13 C12 C11 C10 174.14(15)
N13 C17 C16 C15 26.8(2)
N13 C14 C15 C16 32.6(2)
N1 C8 C9 C4 -173.63(16)
N1 C8 C9 C3 -0.1(2)
N1 C8 C7 C6 173.26(17)
C6 O1 C27 C29 154.48(17)
C6 O1 C27 C28 -87.8(2)
C6 O1 C27 C26 33.6(2)
C6 C5 C25 C26 8.5(3)
C4 C5 C25 C26 -169.49(19)
C12 N13 C17 C18 50.0(2)
C12 N13 C17 C20 -62.1(2)
C12 N13 C17 C16 173.97(17)
C12 N13 C14 C15 162.94(18)
C21 C20 C17 N13 47.1(2)
C21 C20 C17 C18 -67.52(18)
C21 C20 C17 C16 162.63(17)
C10 C3 C2 O2 -53.2(2)
C10 C3 C2 N1 128.93(16)
C10 C3 C9 C4 48.6(3)
C10 C3 C9 C8 -123.72(16)
C10 C3 C22 C21 34.04(16)
C10 C3 C22 C24 151.49(16)
C10 C3 C22 C23 -86.74(17)
C8 N1 C2 O2 173.22(17)
C8 N1 C2 C3 -8.9(2)
C3 C10 C11 N19 105.90(16)
C3 C10 C11 C12 -130.02(16)
C3 C10 C11 C21 -12.84(18)
C18 N19 C11 C12 59.22(19)
C18 N19 C11 C21 -54.3(2)
C18 N19 C11 C10 -169.78(16)
C18 C17 C16 C15 144.69(18)
C2 N1 C8 C9 5.9(2)
C2 N1 C8 C7 -169.62(18)
C2 C3 C9 C4 167.58(18)
C2 C3 C9 C8 -4.71(18)
C2 C3 C22 C21 -84.51(16)
C2 C3 C22 C24 32.9(2)
C2 C3 C22 C23 154.71(15)
C5 C6 C7 C8 0.0(3)
C5 C4 C9 C8 -0.8(3)
C5 C4 C9 C3 -172.53(17)
C5 C25 C26 C27 0.8(3)
C27 O1 C6 C5 -27.4(3)
C27 O1 C6 C7 154.32(17)
C11 N19 C18 O4 173.73(18)
C11 N19 C18 C17 -3.5(2)
C11 C21 C22 C3 -42.72(16)
C11 C21 C22 C24 -162.81(15)
C11 C21 C22 C23 75.47(18)
C11 C21 C20 C17 12.0(2)
C11 C10 C3 C2 103.28(16)
C11 C10 C3 C9 -143.47(15)
C11 C10 C3 C22 -13.40(18)
C9 C4 C5 C6 -0.7(3)
C9 C4 C5 C25 177.23(18)
C9 C8 C7 C6 -1.7(3)
C9 C3 C2 O2 -174.04(18)
C9 C3 C2 N1 8.09(18)
C9 C3 C22 C21 161.53(15)
C9 C3 C22 C24 -81.0(2)
C9 C3 C22 C23 40.8(2)
C22 C21 C11 N19 -85.45(17)
C22 C21 C11 C12 161.20(14)
C22 C21 C11 C10 35.46(17)
C22 C21 C20 C17 134.60(17)
C22 C3 C2 O2 61.4(2)
C22 C3 C2 N1 -116.45(17)
C22 C3 C9 C4 -74.7(2)
C22 C3 C9 C8 113.05(17)
C20 C21 C11 N19 46.4(2)
C20 C21 C11 C12 -66.95(18)
C20 C21 C11 C10 167.31(15)
C20 C21 C22 C3 -167.37(16)
C20 C21 C22 C24 72.5(2)
C20 C21 C22 C23 -49.2(2)
C20 C17 C16 C15 -91.8(2)
C7 C6 C5 C4 1.1(3)
C7 C6 C5 C25 -176.94(18)
C7 C8 C9 C4 2.1(3)
C7 C8 C9 C3 175.60(16)
C17 N13 C12 O3 -176.31(17)
C17 N13 C12 C11 5.2(2)
C17 N13 C14 C15 -16.4(2)
C17 C16 C15 C14 -37.6(2)
C29 C27 C26 C25 -137.0(2)
C14 N13 C12 O3 4.4(3)
C14 N13 C12 C11 -174.06(17)
C14 N13 C17 C18 -130.57(17)
C14 N13 C17 C20 117.29(17)
C14 N13 C17 C16 -6.6(2)
C28 C27 C26 C25 99.3(2)
loop_
_refln_index_h
_refln_index_k
_refln_index_l
_refln_F_squared_meas
_refln_F_squared_sigma
-8 -2 1 10.67 0.96
-8 -2 2 21.93 1.42
-8 -2 3 6.16 0.79
-8 -2 4 3.54 0.62
-8 -2 5 2.32 0.52
-8 -2 6 1.39 0.39
-8 -1 0 21.2 1.37
-8 -1 1 26.06 1.63
-8 -1 2 51.25 2.36
-8 -1 3 98.39 3.29
-8 -1 4 76.87 2.91
-8 -1 5 260.99 5.25
-8 -1 6 37.32 1.93
-8 -1 7 78.73 2.6
-8 0 0 236.33 4.51
-8 0 0 239.96 4.72
-8 0 1 344.84 5.73
-8 0 1 343.64 6.07
-8 0 2 199.63 4.46
-8 0 2 204.41 4.89
-8 0 3 161.88 4.43
-8 0 4 58.99 2.68
-8 0 5 27.98 1.81
-8 0 6 22.51 1.55
-8 0 7 146.82 3.69
-8 0 8 11.52 0.95
-8 1 -1 29.58 1.55
-8 1 0 154.74 3.82
-8 1 1 402.41 6.47
-8 1 1 397.49 6.45
-8 1 2 125.78 3.8
-8 1 2 126.96 3.72
-8 1 3 59.07 2.57
-8 1 3 59.42 2.68
-8 1 4 27.29 1.83
-8 1 5 60.84 2.66
-8 1 6 56.88 2.47
-8 1 7 22.29 1.45
-8 1 8 6.72 0.73
-8 2 -1 57.29 2.12
-8 2 0 18.67 1.33
-8 2 1 301.64 5.59
-8 2 2 219.7 4.71
-8 2 2 238.39 5.08
-8 2 3 99.57 3.31
-8 2 3 97.79 3.28
-8 2 4 82.98 3.01
-8 2 5 17.75 1.39
-8 2 6 70.07 2.62
-8 2 7 121.49 3.23
-8 2 8 169.03 3.43
-8 3 -1 107.9 2.75
-8 3 0 32.07 1.66
-8 3 1 116.12 3.3
-8 3 2 99.31 3.13
-8 3 3 91.07 2.76
-8 3 4 99.26 2.87
-8 3 5 31.05 1.65
-8 3 5 31.3 1.53
-8 3 6 113.66 3.01
-8 3 6 104.18 2.58
-8 4 3 182.15 3.73
-8 4 4 4.16 0.58
-8 4 5 36.82 1.57
-7 -5 2 19.91 1.29
-7 -5 3 85.01 2.76
-7 -5 4 15.56 1.21
-7 -5 5 106.49 3.04
-7 -5 6 187.28 3.84
-7 -4 0 46.26 2.05
-7 -4 1 200.56 4.51
-7 -4 2 131.84 3.74
-7 -4 3 47.87 2.28
-7 -4 4 7.92 0.94
-7 -4 4 6.03 0.92
-7 -4 5 93.1 3.42
-7 -4 6 5.73 0.85
-7 -4 7 158.3 4.05
-7 -3 -2 29.18 1.59
-7 -3 -1 124.22 3.59
-7 -3 0 112.18 3.67
-7 -3 1 138.47 4.25
-7 -3 2 165.07 4.77
-7 -3 3 2.07 0.62
-7 -3 4 64.51 2.98
-7 -3 4 63.66 3.17
-7 -3 5 14.68 1.53
-7 -3 5 12.72 1.31
-7 -3 6 38.86 2.4
-7 -3 6 41.23 2.2
-7 -3 7 30.43 1.73
-7 -3 7 33.26 2.14
-7 -3 8 110.16 3.57
-7 -3 9 103.63 3.08
-7 -2 -3 29.73 1.6
-7 -2 -2 40.95 2.14
-7 -2 -1 16.33 1.48
-7 -2 0 24.19 1.87
-7 -2 1 240.44 5.96
-7 -2 2 291.46 6.73
-7 -2 3 97.37 3.93
-7 -2 4 190.93 5.48
-7 -2 4 179.76 5.54
-7 -2 5 29.83 2.16
-7 -2 5 27.42 2.17
-7 -2 6 104.51 4.17
-7 -2 6 111.24 3.98
-7 -2 7 283.94 5.98
-7 -2 7 276.86 6.57
-7 -2 8 91.71 3.08
-7 -2 9 65.07 2.73
-7 -2 10 377.23 5.57
-7 -1 -3 26.47 1.62
-7 -1 -3 26.51 1.65
-7 -1 -2 60.11 2.75
-7 -1 -2 58.02 2.63
-7 -1 -1 100.3 3.81
-7 -1 -1 97.64 3.62
-7 -1 0 111.47 4
-7 -1 0 113.48 4.24
-7 -1 1 17.23 1.61
-7 -1 1 17.7 1.73
-7 -1 2 30.05 2.27
-7 -1 2 28.93 2.08
-7 -1 2 28.66 2.44
-7 -1 3 30.84 2.12
-7 -1 3 32.23 2.34
-7 -1 3 29.95 2.48
-7 -1 4 144.45 5.42
-7 -1 4 157.03 5.11
-7 -1 4 144.71 5.04
-7 -1 5 15.64 1.8
-7 -1 5 17.19 1.77
-7 -1 5 19.77 1.81
-7 -1 6 15.07 1.64
-7 -1 6 18.46 1.73
-7 -1 7 127.04 4.56
-7 -1 7 136.49 4.4
-7 -1 8 174.02 4.63
-7 -1 9 420.86 6.37
-7 -1 9 411.38 7.16
-7 -1 10 104.55 3.16
-7 0 -4 3.1 0.57
-7 0 -3 21.99 1.53
-7 0 -3 25.34 1.7
-7 0 -2 168.06 4.73
-7 0 -2 165.56 4.65
-7 0 -1 37.37 2.39
-7 0 -1 38.74 2.42
-7 0 0 111.84 4.17
-7 0 0 112.67 4.29
-7 0 1 102.12 4.61
-7 0 1 105.75 4.28
-7 0 1 111.66 4.23
-7 0 2 36.92 2.58
-7 0 2 38.58 2.5
-7 0 2 41.72 2.95
-7 0 3 190.95 5.5
-7 0 3 199.17 5.91
-7 0 3 196.5 6.4
-7 0 4 17.68 1.68
-7 0 4 16.03 1.87
-7 0 4 16.58 1.73
-7 0 5 223.52 6.22
-7 0 5 232.83 6.86
-7 0 5 235.15 6.21
-7 0 6 21.91 1.94
-7 0 6 22.55 1.89
-7 0 7 114.93 4.07
-7 0 8 29.92 1.98
-7 0 8 28.25 2.06
-7 0 9 50.11 2.51
-7 0 9 58.65 2.51
-7 0 10 1.77 0.48
-7 1 -4 83.28 2.75
-7 1 -3 60.23 2.65
-7 1 -2 19.69 1.66
-7 1 -1 7.4 1.13
-7 1 -1 7.11 1.07
-7 1 0 142.86 4.74
-7 1 0 145.07 4.79
-7 1 1 14.32 1.59
-7 1 1 12.55 1.65
-7 1 1 13.78 1.56
-7 1 2 200.76 5.88
-7 1 2 204.19 5.85
-7 1 3 499.67 9.1
-7 1 3 487.42 9.2
-7 1 4 134.29 5.27
-7 1 4 142.11 4.74
-7 1 4 138.89 4.93
-7 1 5 180.19 5.46
-7 1 6 36.2 2.39
-7 1 7 157.99 4.71
-7 1 7 150.35 4.8
-7 1 8 3.45 0.71
-7 1 8 3.84 0.76
-7 1 9 9.7 1.06
-7 1 9 9.85 1.1
-7 1 10 27.88 1.59
-7 2 -4 21.72 1.41
-7 2 -3 7.32 0.95
-7 2 -2 40.12 2.32
-7 2 -1 121.14 4.22
-7 2 0 90.74 3.7
-7 2 1 31.11 2.2
-7 2 1 31.13 2.28
-7 2 2 409.85 8.15
-7 2 2 394.22 7.94
-7 2 3 10.61 1.37
-7 2 3 11.9 1.59
-7 2 3 11.93 1.42
-7 2 4 73.68 3.4
-7 2 4 67.77 3.32
-7 2 5 111.63 4.2
-7 2 5 103.1 3.61
-7 2 6 19.25 1.73
-7 2 6 20 1.55
-7 2 7 83.76 2.96
-7 2 7 90.17 3.51
-7 2 8 93.74 3.34
-7 2 8 92.23 2.84
-7 2 9 96.43 3.1
-7 2 9 85.69 2.42
-7 3 -4 112.18 2.91
-7 3 -3 92.58 3.11
-7 3 -2 21.24 1.64
-7 3 -1 7.21 1.03
-7 3 0 233.99 5.82
-7 3 0 213.32 5.55
-7 3 1 235.28 6
-7 3 1 224.7 5.75
-7 3 2 379.61 7.49
-7 3 2 384.09 7.7
-7 3 3 128.17 4.29
-7 3 3 135.11 4.54
-7 3 3 125.36 4.31
-7 3 4 33.61 2.23
-7 3 5 57.15 2.68
-7 3 5 62.91 2.99
-7 3 6 186.04 5.01
-7 3 6 179.91 4.57
-7 3 7 404.6 7.05
-7 3 7 414.3 6.46
-7 3 8 180.98 4.41
-7 3 8 177.95 3.89
-7 3 9 42.22 1.67
-7 4 -3 62.52 2.23
-7 4 -2 204.2 4.55
-7 4 -1 36.95 2.1
-7 4 -1 41.9 2.27
-7 4 0 58.19 2.74
-7 4 0 58.12 2.86
-7 4 1 130.07 4.36
-7 4 1 123.29 4.08
-7 4 2 167.72 4.97
-7 4 2 166.91 4.8
-7 4 3 192.65 5.22
-7 4 4 308.13 6.57
-7 4 5 11.02 1.16
-7 4 5 10.87 1.15
-7 4 6 5.52 0.82
-7 4 6 7.23 0.89
-7 4 7 6.11 0.78
-7 4 8 94.16 2.62
-7 5 -1 28.65 1.76
-7 5 -1 24.7 1.49
-7 5 0 82.36 3.17
-7 5 0 76.67 2.78
-7 5 1 26.43 1.86
-7 5 2 53.03 2.62
-7 5 3 151.05 4.42
-7 5 4 81.43 2.89
-7 5 4 92.65 3.42
-7 5 5 64.24 2.48
-7 5 6 44.92 1.94
-7 5 7 0.9 0.31
-7 5 8 20.16 1.04
-7 6 -1 168.73 3.63
-7 6 0 83.4 2.82
-7 6 1 35.07 1.91
-7 6 2 81.72 2.94
-7 6 3 35.13 1.72
-7 6 3 41.25 2.07
-7 6 4 23.12 1.36
-7 6 5 38.16 1.63
-7 6 6 56.89 1.81
-6 -6 0 28.52 1.48
-6 -6 1 14.54 1.16
-6 -6 2 135 3.66
-6 -6 3 28.14 1.72
-6 -6 4 4.64 0.72
-6 -6 5 102.16 3.22
-6 -6 5 125.53 3.7
-6 -6 6 58.24 2.35
-6 -6 6 73.3 2.71
-6 -5 -2 6.97 0.8
-6 -5 -2 7.59 0.83
-6 -5 -1 122.19 3.66
-6 -5 -1 128.14 3.62
-6 -5 -1 126.1 3.52
-6 -5 0 107.67 3.53
-6 -5 0 107.76 3.51
-6 -5 0 106.88 3.69
-6 -5 0 105.77 3.51
-6 -5 1 276.53 5.85
-6 -5 1 271.98 5.87
-6 -5 1 276.77 6.15
-6 -5 2 43.65 2.53
-6 -5 2 44.22 2.38
-6 -5 2 40.99 2.36
-6 -5 3 19.63 1.68
-6 -5 4 16.65 1.56
-6 -5 5 32.01 2.15
-6 -5 6 406.69 7.56
-6 -5 6 386.17 7.28
-6 -5 7 47.91 2.48
-6 -5 7 46.08 2.44
-6 -5 8 130.75 3.73
-6 -5 8 115.16 3.53
-6 -4 -3 71.52 2.64
-6 -4 -2 32.37 1.96
-6 -4 -2 32.81 2
-6 -4 -1 42.1 2.37
-6 -4 -1 36.6 2.29
-6 -4 0 267.61 6.14
-6 -4 0 275.26 6.53
-6 -4 0 274.9 6.19
-6 -4 1 146.09 4.68
-6 -4 1 148.78 4.96
-6 -4 1 152.72 4.78
-6 -4 2 60.34 3.1
-6 -4 2 62.33 3.18
-6 -4 2 64.59 3.34
-6 -4 3 36.68 2.46
-6 -4 3 36.76 2.44
-6 -4 4 493.77 8.79
-6 -4 4 493.12 8.99
-6 -4 6 15.23 1.61
-6 -4 6 10.51 1.39
-6 -4 7 253.54 6.32
-6 -4 7 259.31 6.41
-6 -4 8 258.59 6.06
-6 -4 8 249.63 5.99
-6 -4 9 71.5 2.92
-6 -4 10 16.52 1.22
-6 -3 -4 239.67 4.77
-6 -3 -3 86.34 3.25
-6 -3 -2 21.99 1.78
-6 -3 -2 20.85 1.78
-6 -3 -2 24.48 1.87
-6 -3 -1 129.9 4.54
-6 -3 -1 131.2 4.45
-6 -3 0 159.5 5.12
-6 -3 0 149.46 5.09
-6 -3 0 149.62 5.5
-6 -3 1 344.76 8.44
-6 -3 1 333.63 7.41
-6 -3 1 349.76 8.04
-6 -3 1 336.78 7.63
-6 -3 2 316.85 8.07
-6 -3 2 328.08 7.64
-6 -3 2 328.1 7.5
-6 -3 2 329.97 7.99
-6 -3 3 206.47 6.23
-6 -3 3 203.7 6.46
-6 -3 3 203.46 6.01
-6 -3 4 279.76 7.14
-6 -3 4 284.5 7.13
-6 -3 4 272.56 7.49
-6 -3 5 18.2 1.99
-6 -3 5 20.84 1.93
-6 -3 6 49.36 2.81
-6 -3 6 43.11 2.97
-6 -3 6 49.38 3.12
-6 -3 7 118.09 4.12
-6 -3 7 119.27 4.6
-6 -3 8 10.34 1.34
-6 -3 9 106.7 3.94
-6 -3 10 147.77 4.16
-6 -2 -5 12.69 1.11
-6 -2 -4 4.17 0.72
-6 -2 -4 3.92 0.74
-6 -2 -3 34.63 2.23
-6 -2 -3 37.09 2.38
-6 -2 -3 37.96 2.28
-6 -2 -2 3.31 0.78
-6 -2 -2 2.36 0.73
-6 -2 -2 2.41 0.74
-6 -2 -2 2.38 0.68
-6 -2 -1 38.21 2.54
-6 -2 -1 34.49 2.44
-6 -2 -1 35.32 2.53
-6 -2 -1 36.2 2.72
-6 -2 0 41.45 2.74
-6 -2 0 40.12 2.73
-6 -2 0 38.8 2.64
-6 -2 0 43.51 2.97
-6 -2 1 322.17 8.02
-6 -2 1 335.89 7.88
-6 -2 1 347.67 8.19
-6 -2 2 280.59 7.54
-6 -2 2 301.27 7.54
-6 -2 2 288.61 7.6
-6 -2 3 108.15 4.69
-6 -2 3 109.65 4.69
-6 -2 4 36.2 2.74
-6 -2 4 36.92 2.72
-6 -2 5 167.19 5.86
-6 -2 5 171.15 5.69
-6 -2 6 167.18 5.9
-6 -2 6 161 5.74
-6 -2 6 163.28 6.5
-6 -2 6 164.84 5.46
-6 -2 7 328.66 7.34
-6 -2 7 332.47 8.09
-6 -2 8 1 0.49
-6 -2 8 0.81 0.5
-6 -2 9 39.37 2.18
-6 -2 10 42.93 2.43
-6 -2 11 138.52 3.7
-6 -1 -6 64.67 2.33
-6 -1 -5 92.68 3.29
-6 -1 -4 12.02 1.36
-6 -1 -3 183.46 5.43
-6 -1 -3 185.47 5.48
-6 -1 -2 102.83 4.06
-6 -1 -2 109.51 4.45
-6 -1 -2 105.69 4.66
-6 -1 -2 106.4 4.34
-6 -1 -1 76.63 3.68
-6 -1 -1 78.54 3.82
-6 -1 -1 73.79 3.9
-6 -1 0 254.8 6.83
-6 -1 0 249.75 6.87
-6 -1 0 252.05 7.15
-6 -1 1 8.84 1.31
-6 -1 1 10.3 1.45
-6 -1 1 10.69 1.47
-6 -1 2 29.49 2.38
-6 -1 2 27.75 2.37
-6 -1 2 26.46 2.28
-6 -1 3 36.84 2.77
-6 -1 3 34.21 2.56
-6 -1 3 35.66 2.56
-6 -1 4 101.81 4.47
-6 -1 4 106.27 4.61
-6 -1 5 229.8 7
-6 -1 5 237.36 6.83
-6 -1 5 239.05 6.93
-6 -1 6 101.17 4.39
-6 -1 6 93.64 4.37
-6 -1 6 97.84 4.58
-6 -1 7 2.58 0.77
-6 -1 7 1.36 0.68
-6 -1 8 593.62 9.73
-6 -1 8 614.75 10.82
-6 -1 9 264.86 6
-6 -1 10 309.4 6.67
-6 -1 11 160.52 4.18
-6 0 -6 162.64 3.95
-6 0 -5 34.02 2.09
-6 0 -4 154.7 4.85
-6 0 -3 410.38 8.33
-6 0 -2 55.34 3.23
-6 0 -2 49.91 3.23
-6 0 -1 287.79 7.6
-6 0 -1 284.67 7.47
-6 0 0 213.76 6.53
-6 0 0 226.15 6.65
-6 0 1 108.74 4.58
-6 0 1 115.93 4.75
-6 0 2 655.23 11.1
-6 0 2 669.41 11.54
-6 0 2 657.08 11.19
-6 0 3 338.34 8
-6 0 3 357.23 8.11
-6 0 3 344.55 8.29
-6 0 4 204.57 6.36
-6 0 4 214.6 6.36
-6 0 4 215.8 6.2
-6 0 4 208.42 6.58
-6 0 5 1125.76 14.7
-6 0 5 1148.53 15.56
-6 0 5 1147.46 14.13
-6 0 6 379.53 8.48
-6 0 6 347.78 8.56
-6 0 7 128.37 4.83
-6 0 7 124.44 5.05
-6 0 8 96.38 4.01
-6 0 9 227.51 5.69
-6 0 9 243.59 6.49
-6 0 10 10.81 1.3
-6 0 10 11.79 1.21
-6 0 11 37.64 2.08
-6 1 -6 145.23 3.84
-6 1 -5 237.09 5.58
-6 1 -4 34.41 2.33
-6 1 -4 35.07 2.37
-6 1 -3 181.94 5.55
-6 1 -3 178.4 5.62
-6 1 -2 17.09 1.99
-6 1 -2 18.58 1.89
-6 1 -2 19.02 1.95
-6 1 -1 28.97 2.46
-6 1 -1 27.89 2.37
-6 1 -1 28.96 2.38
-6 1 0 328.15 8.34
-6 1 0 336.55 8
-6 1 0 350.1 8.31
-6 1 0 342.21 8.12
-6 1 0 360.86 8.18
-6 1 1 68.03 3.66
-6 1 1 65.51 3.48
-6 1 1 75.55 3.83
-6 1 1 69.36 3.62
-6 1 2 717.74 11.87
-6 1 2 727.92 11.67
-6 1 2 751.22 12.05
-6 1 3 110.45 4.67
-6 1 3 117.05 4.65
-6 1 3 107.92 4.54
-6 1 4 265.52 7.13
-6 1 4 261.61 7.14
-6 1 4 263.78 6.89
-6 1 5 20.73 2.04
-6 1 5 19.8 2.04
-6 1 5 24.25 2.1
-6 1 5 23.32 2.14
-6 1 6 51.91 3.25
-6 1 6 54.46 3.2
-6 1 6 46.68 2.61
-6 1 7 315.29 6.44
-6 1 7 337.81 7.69
-6 1 8 90.88 4.11
-6 1 8 95.2 3.92
-6 1 8 93.05 3.31
-6 1 9 50.09 2.27
-6 1 9 48.86 2.87
-6 1 9 51.3 2.69
-6 1 10 24.74 1.43
-6 1 10 25.32 1.92
-6 1 11 16.13 1.35
-6 2 -6 85.54 2.89
-6 2 -6 79.41 2.83
-6 2 -5 4.43 0.84
-6 2 -5 3.63 0.76
-6 2 -4 13.08 1.46
-6 2 -4 14.92 1.6
-6 2 -3 5.49 1.06
-6 2 -3 4.51 0.93
-6 2 -2 28.85 2.34
-6 2 -2 31.89 2.55
-6 2 -2 31.71 2.69
-6 2 -1 0.99 0.5
-6 2 -1 1.58 0.69
-6 2 -1 2.53 0.83
-6 2 0 511.62 9.92
-6 2 0 511.62 9.93
-6 2 0 498.35 9.68
-6 2 0 499.19 10.25
-6 2 1 298.28 7.43
-6 2 1 290.26 7.45
-6 2 1 296.5 7.57
-6 2 1 307.58 7.62
-6 2 2 146.59 5.21
-6 2 2 143.95 5.15
-6 2 2 151.62 5.4
-6 2 2 143.3 5.21
-6 2 3 552.36 10.09
-6 2 3 528.99 9.95
-6 2 3 535.06 9.95
-6 2 3 534.53 10.04
-6 2 4 255.55 6.96
-6 2 4 270.3 7.15
-6 2 4 275.46 7.04
-6 2 4 266.88 6.91
-6 2 5 104.9 4.41
-6 2 5 104.2 4.31
-6 2 6 184.09 5.17
-6 2 6 196.4 5.96
-6 2 7 5.44 1.02
-6 2 7 4.32 0.81
-6 2 7 4.98 0.99
-6 2 8 170.29 5.35
-6 2 8 165.39 5
-6 2 8 170.55 4.52
-6 2 9 2.27 0.55
-6 2 9 2.33 0.67
-6 2 9 2.68 0.69
-6 2 10 51.01 2.06
-6 2 10 51.11 2.56
-6 2 11 60.24 1.89
-6 3 -6 11.09 0.95
-6 3 -6 11.8 1.11
-6 3 -5 101.5 3.7
-6 3 -5 97.55 3.38
-6 3 -4 160.65 5.12
-6 3 -4 161.15 4.79
-6 3 -3 46.38 2.73
-6 3 -3 45.82 2.89
-6 3 -2 5.15 1.03
-6 3 -2 5.07 0.99
-6 3 -2 4.92 1.05
-6 3 -1 157.33 5.36
-6 3 -1 143.5 5.21
-6 3 -1 154.32 5.64
-6 3 0 273.03 7.25
-6 3 0 279.55 7.22
-6 3 0 294.57 7.91
-6 3 1 191.5 5.96
-6 3 1 188.75 6.06
-6 3 2 246.33 6.7
-6 3 2 246.11 6.63
-6 3 2 257.2 7.05
-6 3 3 261.41 6.96
-6 3 3 279.44 7.03
-6 3 3 275.35 7.06
-6 3 4 514.89 9.73
-6 3 4 519.2 9.56
-6 3 4 526.96 9.67
-6 3 5 173.42 5.53
-6 3 5 181.76 5.71
-6 3 6 157.62 4.8
-6 3 6 167.03 5.31
-6 3 7 149.42 4.42
-6 3 7 150.44 4.88
-6 3 8 8.22 1.13
-6 3 8 6.78 0.94
-6 3 9 200.58 4.45
-6 3 10 56.34 2.07
-6 4 -6 95.56 2.86
-6 4 -5 148.35 4.23
-6 4 -4 77.27 3.39
-6 4 -4 78.56 3.08
-6 4 -3 356.46 7.7
-6 4 -3 348.57 7.02
-6 4 -2 273 6.5
-6 4 -2 264.7 6.76
-6 4 -2 279.04 7.12
-6 4 -1 173.76 5.82
-6 4 -1 168.48 5.26
-6 4 -1 167.11 5.56
-6 4 0 261.38 7.07
-6 4 0 253.42 6.54
-6 4 1 387.51 8.7
-6 4 1 422.4 8.49
-6 4 2 447.73 9.28
-6 4 2 474.12 9.03
-6 4 3 760.15 12.04
-6 4 3 777.08 11.48
-6 4 4 259.11 6.95
-6 4 4 258.92 6.42
-6 4 5 219.29 6.09
-6 4 5 216.44 5.79
-6 4 6 433.62 7.95
-6 4 6 412.72 7.36
-6 4 7 123.38 4.13
-6 4 7 120.95 3.76
-6 4 8 246.92 5.03
-6 4 9 25.79 1.48
-6 4 10 139.82 2.97
-6 5 -4 14.06 1.34
-6 5 -3 366.19 7.25
-6 5 -3 373.26 7.08
-6 5 -2 134.07 4.09
-6 5 -2 145.95 4.82
-6 5 -1 124.73 4.13
-6 5 -1 134.58 4.86
-6 5 0 253.6 6.79
-6 5 0 255.2 6.05
-6 5 1 83.39 3.53
-6 5 1 80.74 3.87
-6 5 2 426.33 8.03
-6 5 2 415.34 8.66
-6 5 3 132.24 4.87
-6 5 4 279.22 6.9
-6 5 5 9.09 1.22
-6 5 5 7.38 1
-6 5 6 113.04 3.61
-6 5 7 26.64 1.65
-6 5 8 5.51 0.71
-6 5 9 47.55 1.76
-6 5 9 42.46 1.75
-6 6 -3 6.52 0.87
-6 6 -2 97.16 3.6
-6 6 -1 112.23 4.14
-6 6 0 3.4 0.82
-6 6 1 347.17 7.34
-6 6 2 139.9 4.74
-6 6 3 24.68 1.97
-6 6 4 200.32 4.8
-6 6 4 219.14 5.57
-6 6 5 145.28 3.91
-6 6 5 158.93 4.47
-6 6 6 89.91 2.89
-6 6 7 27.98 1.43
-6 6 7 32.63 1.6
-6 6 8 10.57 0.8
-6 7 -2 64.82 2.55
-6 7 -1 125.27 3.77
-6 7 0 210.39 5.04
-6 7 1 827.14 10.24
-6 7 2 157.79 4.47
-6 7 2 143.18 3.6
-6 7 3 2.12 0.48
-6 7 3 2.05 0.54
-6 7 4 5.74 0.7
-6 7 4 6.33 0.83
-6 7 5 42.71 1.73
-6 8 0 113.71 2.9
-6 8 1 80.96 2.5
-5 -7 -1 11.2 0.95
-5 -7 -1 8.4 0.85
-5 -7 0 31.04 1.77
-5 -7 0 32.08 1.74
-5 -7 1 19.41 1.44
-5 -7 1 23.68 1.58
-5 -7 1 21.4 1.56
-5 -7 2 45 2.22
-5 -7 2 43.73 2.24
-5 -7 3 98.19 3.3
-5 -7 3 92.3 3.29
-5 -7 4 124.11 3.84
-5 -7 4 127.98 3.77
-5 -7 5 68.77 2.84
-5 -7 5 73.15 2.83
-5 -7 6 59.84 2.56
-5 -7 7 30.58 1.72
-5 -6 -3 6.1 0.74
-5 -6 -3 5.01 0.7
-5 -6 -2 10.03 1.05
-5 -6 -2 9.08 1.03
-5 -6 -1 14.55 1.35
-5 -6 -1 14.82 1.36
-5 -6 0 29.82 2
-5 -6 0 27.83 1.96
-5 -6 1 18.46 1.63
-5 -6 1 16.76 1.58
-5 -6 1 18.69 1.68
-5 -6 1 17.14 1.58
-5 -6 2 110 4.09
-5 -6 2 113.18 4.15
-5 -6 2 115 4.09
-5 -6 3 19.13 1.77
-5 -6 3 17.48 1.64
-5 -6 3 18.8 1.73
-5 -6 4 49.77 2.72
-5 -6 4 48 2.75
-5 -6 5 69.81 3.18
-5 -6 5 71.64 3.36
-5 -6 6 161.7 4.95
-5 -6 6 164.95 4.95
-5 -6 7 6.71 0.97
-5 -6 7 6.27 1
-5 -6 8 3.62 0.74
-5 -6 8 2.24 0.54
-5 -6 9 34.88 1.88
-5 -5 -4 188.78 4.29
-5 -5 -4 185.05 4.37
-5 -5 -4 193.38 4.27
-5 -5 -3 31.16 1.98
-5 -5 -3 31.37 1.94
-5 -5 -3 31.47 1.99
-5 -5 -2 21.6 1.76
-5 -5 -2 22.62 1.76
-5 -5 -2 19 1.67
-5 -5 -1 19.72 1.72
-5 -5 -1 15.71 1.58
-5 -5 -1 16.74 1.63
-5 -5 0 149.25 4.93
-5 -5 0 147.29 4.82
-5 -5 1 131.59 4.74
-5 -5 1 131.99 4.71
-5 -5 2 116.85 4.54
-5 -5 2 107.27 4.37
-5 -5 2 114.47 4.44
-5 -5 2 110.68 4.36
-5 -5 3 37.11 2.61
-5 -5 3 38.29 2.61
-5 -5 3 38.26 2.67
-5 -5 4 61.15 3.42
-5 -5 4 65.85 3.42
-5 -5 4 58.28 3.3
-5 -5 5 93.3 4.14
-5 -5 5 103.02 4.26
-5 -5 6 203.59 6.03
-5 -5 6 193.47 5.92
-5 -5 7 152.69 5.2
-5 -5 7 149.82 5.02
-5 -5 8 46.09 2.65
-5 -5 8 43.53 2.69
-5 -5 9 61.52 2.96
-5 -5 10 23.53 1.63
-5 -4 -6 99.67 2.78
-5 -4 -5 35.28 1.91
-5 -4 -5 33.61 1.89
-5 -4 -4 184.38 4.83
-5 -4 -4 187.24 4.82
-5 -4 -4 181.85 4.87
-5 -4 -3 52.57 2.74
-5 -4 -3 52.84 2.8
-5 -4 -2 80.46 3.94
-5 -4 -2 76.35 3.55
-5 -4 -2 82.4 3.56
-5 -4 -1 27.21 2.13
-5 -4 -1 23.04 2.04
-5 -4 -1 21.96 2.01
-5 -4 -1 24.06 2.2
-5 -4 0 430.21 9.15
-5 -4 0 432.76 8.89
-5 -4 0 421.94 8.47
-5 -4 0 440.8 8.99
-5 -4 0 414.37 9.05
-5 -4 1 286 7.37
-5 -4 1 304.82 7.41
-5 -4 1 313.46 7.89
-5 -4 1 292.74 7.54
-5 -4 1 302.08 7.57
-5 -4 2 182.19 5.93
-5 -4 2 178.39 5.93
-5 -4 2 190.83 6.18
-5 -4 2 180.18 5.77
-5 -4 3 89.47 4.12
-5 -4 3 83.41 4.15
-5 -4 3 91.39 4.2
-5 -4 3 85.99 4.12
-5 -4 3 82.78 3.95
-5 -4 3 92.27 4.21
-5 -4 3 90.64 4.22
-5 -4 4 354.99 8.45
-5 -4 4 347.35 8.12
-5 -4 4 363.99 8.54
-5 -4 4 345.91 8.64
-5 -4 4 353.46 8.16
-5 -4 5 267.11 7.37
-5 -4 5 277.49 7.35
-5 -4 5 277.38 7.93
-5 -4 6 49.5 3.45
-5 -4 6 46.48 3.09
-5 -4 7 288.09 7.64
-5 -4 7 290.62 7.57
-5 -4 8 10.14 1.38
-5 -4 8 10.96 1.49
-5 -4 9 23.11 1.92
-5 -4 9 27.72 2.2
-5 -4 10 79.18 3.4
-5 -4 10 80.59 3.2
-5 -4 11 65.39 2.65
-5 -3 -6 11.27 1.06
-5 -3 -6 12.14 1.16
-5 -3 -5 51.03 2.6
-5 -3 -5 52.29 2.56
-5 -3 -4 275.94 6.43
-5 -3 -4 262.21 6.31
-5 -3 -3 192.81 5.59
-5 -3 -3 192.86 5.64
-5 -3 -3 196.35 6.05
-5 -3 -2 257.2 6.86
-5 -3 -2 255.97 6.78
-5 -3 -1 49.65 3.05
-5 -3 -1 49.16 3.03
-5 -3 0 715.4 11.62
-5 -3 0 719.16 11.52
-5 -3 0 746.23 11.62
-5 -3 0 719.76 11.37
-5 -3 0 704.22 11.57
-5 -3 1 579.38 10.25
-5 -3 1 591.96 10.27
-5 -3 1 571.3 10.44
-5 -3 1 562.77 10.09
-5 -3 1 584.07 10.53
-5 -3 2 660.07 11.37
-5 -3 2 668.86 11.01
-5 -3 2 637.99 10.79
-5 -3 2 640.81 10.78
-5 -3 3 36.21 2.63
-5 -3 3 33.11 2.6
-5 -3 3 36.68 2.64
-5 -3 3 38.08 2.71
-5 -3 3 35.29 2.55
-5 -3 4 144.79 5.49
-5 -3 4 167.38 5.71
-5 -3 4 161.16 5.42
-5 -3 4 170.75 5.81
-5 -3 4 157.24 5.67
-5 -3 4 159.9 5.58
-5 -3 5 381.66 8.98
-5 -3 5 383.48 8.54
-5 -3 5 369.99 8.54
-5 -3 5 379.81 8.38
-5 -3 5 372.49 8.85
-5 -3 6 518.39 10.57
-5 -3 6 510.88 9.76
-5 -3 6 514.77 10.82
-5 -3 6 500.86 9.71
-5 -3 7 523.06 10.51
-5 -3 7 495.76 10.39
-5 -3 7 533.35 11.62
-5 -3 8 176.1 5.95
-5 -3 8 174.16 6.07
-5 -3 9 76.08 3.69
-5 -3 9 74.46 3.83
-5 -3 10 13.56 1.48
-5 -3 10 13.51 1.54
-5 -3 11 65.13 2.95
-5 -3 11 68.19 2.82
-5 -2 -7 64.68 2.41
-5 -2 -6 86.39 3.13
-5 -2 -6 80.11 3.22
-5 -2 -6 78.32 3.15
-5 -2 -5 11.89 1.39
-5 -2 -5 10.83 1.31
-5 -2 -4 110.29 4.28
-5 -2 -4 113.19 4.66
-5 -2 -4 107.49 4.29
-5 -2 -3 70.29 3.67
-5 -2 -3 65.7 3.49
-5 -2 -3 71.37 3.59
-5 -2 -2 293.12 7.26
-5 -2 -2 280.8 7.17
-5 -2 -2 279.27 7.28
-5 -2 -1 438.42 9.6
-5 -2 -1 475.02 9.43
-5 -2 -1 453.09 9
-5 -2 -1 463.48 8.88
-5 -2 -1 464.29 9.22
-5 -2 0 564.37 10.55
-5 -2 0 546.98 10.07
-5 -2 0 577.43 10.47
-5 -2 0 551.39 9.92
-5 -2 0 539.21 9.48
-5 -2 1 415.34 8.22
-5 -2 1 415.2 8.86
-5 -2 1 398.78 7.88
-5 -2 1 428.24 9.1
-5 -2 1 412.92 8.63
-5 -2 2 89.55 4.05
-5 -2 2 78.44 3.63
-5 -2 2 89.71 4.2
-5 -2 2 86.91 3.72
-5 -2 3 208.59 5.9
-5 -2 3 217.55 6.03
-5 -2 3 218.04 6.37
-5 -2 3 221.92 6.69
-5 -2 3 198.59 6.23
-5 -2 4 118.78 4.84
-5 -2 4 125.68 4.63
-5 -2 4 128.77 4.83
-5 -2 4 129.57 5.03
-5 -2 5 105.58 4.53
-5 -2 5 96.19 4.35
-5 -2 5 107.02 4.33
-5 -2 5 100.42 4.5
-5 -2 6 584.27 10.33
-5 -2 6 577.92 11.27
-5 -2 6 593.55 11.29
-5 -2 6 551.9 11.05
-5 -2 6 584.59 10.56
-5 -2 7 90.6 4.71
-5 -2 7 98.54 4.25
-5 -2 7 104.01 4.72
-5 -2 7 98.87 4.71
-5 -2 8 710.32 11
-5 -2 8 722.47 12.63
-5 -2 8 736.18 13.79
-5 -2 8 729.79 12.47
-5 -2 9 6.04 1.18
-5 -2 10 8.89 1.31
-5 -2 10 8.13 1.23
-5 -2 11 136.29 4.52
-5 -2 11 146.46 4.46
-5 -2 12 17.01 1.34
-5 -2 12 18.28 1.31
-5 -1 -7 67.42 2.78
-5 -1 -6 12.03 1.33
-5 -1 -6 11.72 1.29
-5 -1 -5 213.66 5.94
-5 -1 -5 210.79 5.78
-5 -1 -4 147.47 5.23
-5 -1 -4 152.09 5.16
-5 -1 -4 151.22 5.39
-5 -1 -3 407.93 8.69
-5 -1 -3 420.8 8.97
-5 -1 -3 426.92 8.83
-5 -1 -2 592.96 10.17
-5 -1 -2 593.43 10.63
-5 -1 -2 590.3 10.54
-5 -1 -1 411.67 8.89
-5 -1 -1 426.15 8.44
-5 -1 -1 431.09 9.02
-5 -1 -1 425.15 8.73
-5 -1 -1 408.88 8.74
-5 -1 0 60.9 3.12
-5 -1 0 59.77 3.27
-5 -1 0 62.48 3.39
-5 -1 0 64.06 3.44
-5 -1 1 338.39 7.84
-5 -1 1 313.9 7.84
-5 -1 1 324.63 7.69
-5 -1 1 318.51 6.96
-5 -1 1 311.14 7.74
-5 -1 2 640.14 10.91
-5 -1 2 598.11 10.95
-5 -1 2 601.56 10.77
-5 -1 2 632.32 9.8
-5 -1 3 71.47 3.33
-5 -1 3 76.18 3.35
-5 -1 3 72.79 3.85
-5 -1 3 79.92 3.87
-5 -1 3 77.31 3.8
-5 -1 4 77.38 3.5
-5 -1 4 81.5 3.96
-5 -1 4 79.36 3.58
-5 -1 5 324.21 7.83
-5 -1 5 309.81 7.22
-5 -1 5 317.89 7.68
-5 -1 6 639.59 11.54
-5 -1 6 651.35 11.12
-5 -1 6 638.15 11.66
-5 -1 6 668.26 10.86
-5 -1 7 92.73 4.16
-5 -1 7 88.93 4.4
-5 -1 7 94.41 4.65
-5 -1 8 870.33 13.59
-5 -1 8 877.57 14.94
-5 -1 8 852.1 13.78
-5 -1 8 877.39 12.4
-5 -1 9 273.27 6.58
-5 -1 9 250.93 7.21
-5 -1 10 344.14 8.01
-5 -1 10 355.5 7.84
-5 -1 11 9.78 1.26
-5 -1 11 10.43 1.27
-5 -1 12 158.26 4.17
-5 -1 12 182.45 4.38
-5 0 -8 39.56 1.84
-5 0 -7 167.88 4.55
-5 0 -6 165.13 4.96
-5 0 -5 118.17 4.48
-5 0 -5 117.67 4.35
-5 0 -4 55.36 3.16
-5 0 -4 54.75 3.23
-5 0 -4 47.5 3.19
-5 0 -4 49.25 3.1
-5 0 -3 121.07 4.85
-5 0 -3 121.5 4.72
-5 0 -3 130.62 5.03
-5 0 -3 127.34 4.87
-5 0 -2 150.87 5.25
-5 0 -2 147.77 5.01
-5 0 -2 144.88 5.28
-5 0 -2 160.38 5.67
-5 0 -2 154.82 5.4
-5 0 -1 216.54 6.31
-5 0 -1 219.49 6.41
-5 0 -1 206.08 5.76
-5 0 -1 201.37 5.78
-5 0 0 397.79 8.62
-5 0 0 380.91 8.52
-5 0 0 381.37 8.1
-5 0 0 370.02 7.56
-5 0 0 372.24 7.53
-5 0 1 297.75 7.45
-5 0 1 297 6.62
-5 0 2 923.92 12.91
-5 0 2 905.01 11.4
-5 0 3 727.59 11.43
-5 0 3 733.52 10.31
-5 0 3 702.81 11.36
-5 0 4 2.77 0.79
-5 0 4 1.59 0.62
-5 0 4 2.35 0.68
-5 0 5 7.27 1.15
-5 0 5 6.66 1.12
-5 0 5 10.77 1.45
-5 0 5 7.2 1.1
-5 0 5 9.37 1.44
-5 0 6 8.38 1.3
-5 0 6 8.19 1.23
-5 0 6 7.6 1.26
-5 0 7 169.73 6.06
-5 0 7 175.06 5.72
-5 0 7 175.14 6.28
-5 0 8 572.77 8.76
-5 0 8 595.12 10.33
-5 0 9 879.92 10.3
-5 0 9 884.38 12.07
-5 0 9 848.78 13.07
-5 0 10 134.85 4.95
-5 0 10 137.12 3.75
-5 0 10 135.35 4.84
-5 0 11 0.84 0.45
-5 0 11 0.61 0.44
-5 0 12 135.41 3.73
-5 1 -8 127.32 3.36
-5 1 -7 168.79 4.76
-5 1 -6 208.67 5.69
-5 1 -6 205.09 5.9
-5 1 -5 87.95 4.12
-5 1 -5 98.44 4.16
-5 1 -5 83.71 4.29
-5 1 -4 4.07 0.97
-5 1 -4 3.5 0.95
-5 1 -4 3.26 0.9
-5 1 -3 264.34 6.79
-5 1 -3 261.27 6.96
-5 1 -3 266.69 7.2
-5 1 -3 265.76 7.54
-5 1 -3 260.08 7.16
-5 1 -2 701.3 11.75
-5 1 -2 706.46 11.39
-5 1 -2 693.21 11.43
-5 1 -2 670.63 12.06
-5 1 -2 696.36 10.63
-5 1 -2 667.14 11.32
-5 1 -1 448.78 9
-5 1 -1 440.98 8.7
-5 1 -1 429.76 8.14
-5 1 0 27.73 2.43
-5 1 0 31.3 2.24
-5 1 0 33.78 2.6
-5 1 0 29.9 2.12
-5 1 1 564.42 10.28
-5 1 1 586.23 9.12
-5 1 1 568.52 10.22
-5 1 2 24.57 2.14
-5 1 2 27.48 1.99
-5 1 2 25.08 2.13
-5 1 2 25.67 2.21
-5 1 3 69.67 3.46
-5 1 3 69.44 3.53
-5 1 3 67.15 3.13
-5 1 3 68.25 3.58
-5 1 4 78.85 3.73
-5 1 4 75.27 3.57
-5 1 4 73.72 3.34
-5 1 4 75.69 3.72
-5 1 5 730.14 11.22
-5 1 5 713.41 10.62
-5 1 5 744.05 11.64
-5 1 6 50.03 2.74
-5 1 6 52.57 3.33
-5 1 6 51.41 3.07
-5 1 7 110.89 3.98
-5 1 7 114.4 4.58
-5 1 8 162.93 5.86
-5 1 8 159.73 5.34
-5 1 8 150.71 4.51
-5 1 9 163.06 5.66
-5 1 9 168.93 5.3
-5 1 9 165.49 4.52
-5 1 10 44.12 2.77
-5 1 10 41.34 2.1
-5 1 11 6.82 1.05
-5 1 11 6.82 0.79
-5 1 12 91.76 2.38
-5 2 -8 143.88 3.69
-5 2 -7 189.11 4.81
-5 2 -7 188.07 5.09
-5 2 -6 306.29 7.22
-5 2 -5 142.14 5.53
-5 2 -5 146.12 5.34
-5 2 -4 30.4 2.55
-5 2 -4 30.74 2.57
-5 2 -3 267.88 7.55
-5 2 -3 282.34 7.52
-5 2 -2 421.88 9.47
-5 2 -2 439.59 9.1
-5 2 -2 406.95 8.94
-5 2 -1 76.04 3.37
-5 2 -1 71.45 3.88
-5 2 -1 76.87 3.7
-5 2 -1 69.61 3.83
-5 2 -1 78.99 3.89
-5 2 0 247.31 6.97
-5 2 0 262.38 6.15
-5 2 0 261.05 7.35
-5 2 0 272.31 6.71
-5 2 0 252.88 7.1
-5 2 0 266.74 7.05
-5 2 1 0.64 0.41
-5 2 1 0.84 0.43
-5 2 1 0.44 0.5
-5 2 1 0.89 0.49
-5 2 2 139.35 4.95
-5 2 2 147.28 5.19
-5 2 2 134.76 4.38
-5 2 2 134.11 5.07
-5 2 3 331.22 7.54
-5 2 3 320.15 7.52
-5 2 3 334.68 7.03
-5 2 4 228.69 6.52
-5 2 4 224.52 5.9
-5 2 4 227.54 6.43
-5 2 4 226.09 6.21
-5 2 5 96.33 4.21
-5 2 5 93.73 3.99
-5 2 5 91.77 4.03
-5 2 6 112.85 4.13
-5 2 6 133.86 4.93
-5 2 7 199.71 6.39
-5 2 7 202.1 6.02
-5 2 7 188.59 5.22
-5 2 8 102.19 3.74
-5 2 8 96.16 4.36
-5 2 8 100.35 4.14
-5 2 9 119.76 3.86
-5 2 9 122.57 4.73
-5 2 9 124.64 4.4
-5 2 10 136.54 4.7
-5 2 10 135.88 3.78
-5 2 11 62.84 2.29
-5 2 12 24.39 1.2
-5 3 -8 101.86 3.02
-5 3 -7 142.38 3.85
-5 3 -7 152.11 4.49
-5 3 -6 11.79 1.3
-5 3 -6 13 1.5
-5 3 -5 69.43 3.62
-5 3 -5 67.68 3.32
-5 3 -4 212.03 6.2
-5 3 -4 216.02 6.68
-5 3 -4 215.1 6.7
-5 3 -3 59.31 3.36
-5 3 -3 55.46 3.36
-5 3 -3 64.9 3.74
-5 3 -2 67.05 3.6
-5 3 -2 66.79 3.57
-5 3 -2 63.47 3.69
-5 3 -2 67.9 3.84
-5 3 -1 19.57 1.98
-5 3 -1 24.07 2.27
-5 3 -1 17.41 1.94
-5 3 -1 19.55 1.91
-5 3 0 255.1 7.31
-5 3 0 261.75 7.11
-5 3 0 265.61 7.46
-5 3 1 29.63 2.48
-5 3 1 30.61 2.4
-5 3 1 26.09 2.29
-5 3 2 24.79 1.92
-5 3 2 21.68 2.04
-5 3 2 24.02 2.1
-5 3 3 668.75 11.24
-5 3 3 651.56 11.06
-5 3 4 244.93 6.69
-5 3 4 242.71 6.81
-5 3 4 239.16 6.41
-5 3 5 4.38 0.95
-5 3 5 3.01 0.81
-5 3 6 76.84 3.42
-5 3 6 86.58 3.97
-5 3 6 80.69 3.78
-5 3 7 123.31 4.22
-5 3 7 130.92 5.01
-5 3 7 126.22 4.71
-5 3 8 299.82 6.99
-5 3 8 286.44 6.16
-5 3 8 285.12 7.25
-5 3 9 107.3 3.54
-5 3 10 10.86 1.06
-5 3 11 73.6 2.33
-5 4 -7 32.25 1.94
-5 4 -6 32.15 2.19
-5 4 -5 32.8 2.15
-5 4 -5 33.4 2.41
-5 4 -4 103.64 4.72
-5 4 -4 105.94 4.13
-5 4 -4 102.25 4.42
-5 4 -3 197.61 5.91
-5 4 -3 183.64 6.26
-5 4 -3 183.43 6.25
-5 4 -3 183.89 6.16
-5 4 -2 166.9 5.58
-5 4 -2 156.1 5.64
-5 4 -2 155.39 5.82
-5 4 -2 153.95 5.67
-5 4 -1 38.58 2.87
-5 4 -1 39.6 2.95
-5 4 -1 39.01 2.72
-5 4 0 212.83 6.69
-5 4 0 213.96 6.83
-5 4 0 212.17 6.32
-5 4 1 152.79 5.28
-5 4 1 131.73 5.25
-5 4 2 716.2 11.34
-5 4 2 674.39 11.78
-5 4 3 448.65 9.55
-5 4 3 482.3 9.18
-5 4 4 1030.82 14.36
-5 4 4 1044.24 13.52
-5 4 5 355.63 7.81
-5 4 5 351.45 8.2
-5 4 5 349.04 8.2
-5 4 6 348.54 7.66
-5 4 6 338.65 7.14
-5 4 7 181.37 5.4
-5 4 7 172.18 4.87
-5 4 8 209.3 4.98
-5 4 9 22.9 1.54
-5 4 10 120.78 3.14
-5 4 11 36.45 1.59
-5 4 11 43.49 1.6
-5 5 -7 237.82 4.63
-5 5 -6 31.44 2.01
-5 5 -5 41.29 2.53
-5 5 -4 237.15 6.38
-5 5 -4 252.91 6.71
-5 5 -3 133.41 5.18
-5 5 -3 133.41 5.06
-5 5 -2 441.07 9.7
-5 5 -2 452.05 9.49
-5 5 -1 214.64 6.66
-5 5 -1 206.46 6.72
-5 5 0 233.98 7.15
-5 5 0 238.87 6.39
-5 5 1 224.98 6.95
-5 5 1 229.07 6.28
-5 5 2 2085.1 18.72
-5 5 2 1937.57 20.5
-5 5 3 95.9 4.46
-5 5 4 1041.28 14.27
-5 5 4 1029.6 14.07
-5 5 5 15.37 1.69
-5 5 5 13.26 1.43
-5 5 6 17.28 1.93
-5 5 6 9.47 1.19
-5 5 7 5.68 0.87
-5 5 8 36.43 1.97
-5 5 9 32.5 1.68
-5 5 10 3.82 0.55
-5 5 10 4.55 0.56
-5 6 -6 89.48 2.88
-5 6 -5 220.16 5.21
-5 6 -4 3.63 0.79
-5 6 -4 3.76 0.83
-5 6 -3 76 3.55
-5 6 -3 75.03 3.68
-5 6 -2 89.42 4.15
-5 6 -1 18.31 1.95
-5 6 0 98.63 4.5
-5 6 1 512.64 10.31
-5 6 2 268.37 7.35
-5 6 3 179.41 5.79
-5 6 3 184.24 5.99
-5 6 4 311.83 7.45
-5 6 4 316.48 6.56
-5 6 5 16.21 1.41
-5 6 5 15.23 1.4
-5 6 6 99.38 3.37
-5 6 6 89.98 3.23
-5 6 7 34.26 1.95
-5 6 7 39.62 1.99
-5 6 8 9.96 0.91
-5 6 8 10.32 0.99
-5 6 9 134.39 2.78
-5 6 9 134.64 3.03
-5 7 -4 12.65 1.23
-5 7 -3 6.76 1.02
-5 7 -2 52.6 2.88
-5 7 -1 145.49 4.93
-5 7 0 247.48 6.53
-5 7 1 226.15 6.34
-5 7 2 41.5 2.69
-5 7 3 95.21 3.3
-5 7 3 94.76 3.85
-5 7 4 173.06 4.23
-5 7 4 180.61 5.19
-5 7 5 38.84 1.91
-5 7 5 38.85 1.87
-5 7 6 208 4.13
-5 7 6 202.68 4.01
-5 7 7 15.03 0.97
-5 7 7 17.3 1.12
-5 8 -3 19.05 1.35
-5 8 -2 15.61 1.33
-5 8 -1 48.95 2.46
-5 8 0 71.74 3.05
-5 8 1 109.86 3.75
-5 8 2 13.93 1.32
-5 8 3 14.89 1.31
-5 8 4 108.31 3.31
-4 -8 -1 2.73 0.5
-4 -8 -1 2.66 0.51
-4 -8 0 30.56 1.73
-4 -8 0 33.91 1.81
-4 -8 0 29.91 1.7
-4 -8 1 65.3 2.62
-4 -8 1 66.9 2.69
-4 -8 1 73.65 2.81
-4 -8 2 128.51 3.78
-4 -8 2 118.61 3.67
-4 -8 3 7.54 0.97
-4 -8 3 9.76 1.1
-4 -8 4 25.19 1.61
-4 -8 4 31.82 1.91
-4 -8 5 87.85 3.09
-4 -8 6 50.22 2.24
-4 -7 -3 123.97 3.27
-4 -7 -3 132.35 3.5
-4 -7 -2 75.94 2.86
-4 -7 -2 80.03 3.01
-4 -7 -1 237.67 5.54
-4 -7 -1 237.51 5.41
-4 -7 0 19.73 1.69
-4 -7 0 18.81 1.61
-4 -7 1 12.68 1.41
-4 -7 1 9.1 1.18
-4 -7 2 7.01 1.08
-4 -7 2 7.31 1.12
-4 -7 2 7.17 1.13
-4 -7 3 198.28 5.6
-4 -7 3 194.35 5.47
-4 -7 3 204.86 5.56
-4 -7 4 366.67 7.5
-4 -7 4 379.07 7.61
-4 -7 5 13.86 1.49
-4 -7 5 15.86 1.55
-4 -7 5 13.48 1.43
-4 -7 5 15.2 1.53
-4 -7 6 26.98 2
-4 -7 7 82.69 3.3
-4 -7 8 257.99 5.47
-4 -7 9 47.43 2.08
-4 -6 -5 96.06 2.82
-4 -6 -5 90.93 2.79
-4 -6 -4 50.18 2.35
-4 -6 -4 57.3 2.51
-4 -6 -3 205.84 5.16
-4 -6 -3 194.59 4.99
-4 -6 -2 46.76 2.61
-4 -6 -2 46.53 2.61
-4 -6 -1 250.49 6.19
-4 -6 -1 255.56 6.27
-4 -6 0 211.23 5.95
-4 -6 0 210.14 5.9
-4 -6 1 175.3 5.86
-4 -6 1 175.02 5.47
-4 -6 1 175.9 5.55
-4 -6 2 330.61 7.72
-4 -6 2 324.24 7.53
-4 -6 2 306.1 7.81
-4 -6 3 90.15 4.32
-4 -6 3 94.4 4.21
-4 -6 3 91.45 4.13
-4 -6 3 91.14 4.06
-4 -6 4 59.66 3.29
-4 -6 4 59.29 3.36
-4 -6 4 58.41 3.32
-4 -6 4 58.45 3.55
-4 -6 5 65.76 3.5
-4 -6 5 70.63 3.51
-4 -6 6 166.44 5.4
-4 -6 6 161.07 5.33
-4 -6 7 10.56 1.38
-4 -6 7 10.36 1.32
-4 -6 8 105.27 4.04
-4 -6 9 45.18 2.48
-4 -6 10 46.47 2.23
-4 -5 -6 180.11 4.02
-4 -5 -6 175.65 4.09
-4 -5 -5 41.25 2.25
-4 -5 -4 192.02 5.15
-4 -5 -3 104 4.01
-4 -5 -3 99.87 4.28
-4 -5 -2 284.35 7.32
-4 -5 -2 290.29 6.9
-4 -5 -2 286.76 7.22
-4 -5 -1 4.17 0.97
-4 -5 -1 5.16 1.06
-4 -5 -1 5 1.01
-4 -5 -1 4.76 0.98
-4 -5 0 164.33 5.45
-4 -5 0 152.77 5.19
-4 -5 0 162.43 5.43
-4 -5 0 155.49 5.31
-4 -5 1 374.97 8.27
-4 -5 1 366.64 8.18
-4 -5 1 357.75 7.99
-4 -5 1 362.94 8.06
-4 -5 2 119.59 4.68
-4 -5 2 113.66 4.55
-4 -5 2 114.22 4.64
-4 -5 3 21.61 2.07
-4 -5 3 19.99 1.96
-4 -5 3 17.69 1.85
-4 -5 3 19.65 1.93
-4 -5 4 237.47 6.87
-4 -5 4 229.65 6.6
-4 -5 4 228.37 6.76
-4 -5 4 226.99 6.67
-4 -5 5 19.86 2.08
-4 -5 5 18.54 1.9
-4 -5 5 18.79 1.99
-4 -5 6 42.35 2.97
-4 -5 6 40.21 3.05
-4 -5 6 37.31 2.67
-4 -5 7 193.82 6.91
-4 -5 7 186.75 6.12
-4 -5 7 190.88 6.07
-4 -5 8 325.41 7.52
-4 -5 8 310.15 7.69
-4 -5 9 46.68 2.83
-4 -5 10 77.87 3.36
-4 -5 11 2.07 0.51
-4 -4 -7 29.91 1.68
-4 -4 -6 12.99 1.26
-4 -4 -6 14.36 1.35
-4 -4 -5 102.53 3.8
-4 -4 -5 109.96 3.91
-4 -4 -4 172.16 5.46
-4 -4 -4 173.98 5.25
-4 -4 -3 411.4 8.55
-4 -4 -3 427.04 8.6
-4 -4 -2 1098.12 13.73
-4 -4 -2 1113.56 13.67
-4 -4 -2 1074.87 13.41
-4 -4 -1 31.2 2.33
-4 -4 -1 33.73 2.37
-4 -4 0 156.13 5
-4 -4 0 147.04 5.05
-4 -4 0 149.37 4.86
-4 -4 0 154.11 5.25
-4 -4 1 135.06 4.61
-4 -4 1 146.42 4.76
-4 -4 1 141.32 4.97
-4 -4 1 137.75 5.06
-4 -4 2 38.34 2.64
-4 -4 2 36.7 2.58
-4 -4 2 38.35 2.73
-4 -4 2 39.04 2.51
-4 -4 2 36.15 2.39
-4 -4 3 49.22 2.8
-4 -4 3 51.81 3.09
-4 -4 3 46.47 2.97
-4 -4 4 10.07 1.44
-4 -4 4 10.18 1.5
-4 -4 4 9.11 1.37
-4 -4 4 9.49 1.32
-4 -4 5 197.2 6.38
-4 -4 5 209.3 6.28
-4 -4 5 202.56 6.27
-4 -4 6 142.6 5.45
-4 -4 6 153.31 5.74
-4 -4 6 139.57 5.24
-4 -4 7 386.03 9.51
-4 -4 7 383.78 9.22
-4 -4 7 385.96 9.01
-4 -4 8 144.75 6.02
-4 -4 8 132.32 5.14
-4 -4 8 131.77 5.34
-4 -4 9 81.77 4.02
-4 -4 10 34.13 2.27
-4 -4 10 31.42 2.35
-4 -4 11 63.56 2.99
-4 -4 12 109.24 3.21
-4 -3 -8 18.34 1.27
-4 -3 -8 20.47 1.33
-4 -3 -7 82.64 3.17
-4 -3 -7 92.58 3.33
-4 -3 -6 198.31 5.35
-4 -3 -6 215.82 5.51
-4 -3 -5 204.21 5.93
-4 -3 -5 197.2 5.66
-4 -3 -4 88.97 3.84
-4 -3 -4 76.5 3.65
-4 -3 -3 92.46 3.81
-4 -3 -3 89.72 4.04
-4 -3 -3 86.19 3.73
-4 -3 -2 261.07 6.68
-4 -3 -2 268.06 6.28
-4 -3 -2 265.84 7.02
-4 -3 -2 279.53 6.43
-4 -3 -1 282.37 6.91
-4 -3 -1 282.31 6.27
-4 -3 -1 291.24 7
-4 -3 -1 293.41 6.44
-4 -3 0 385.93 7.75
-4 -3 0 389.35 7.26
-4 -3 0 384.37 7.16
-4 -3 1 505.79 8.11
-4 -3 1 481.1 8.82
-4 -3 1 474.58 9.06
-4 -3 1 496.41 8.24
-4 -3 1 487.25 8.47
-4 -3 2 72.66 3.56
-4 -3 2 71.25 3.14
-4 -3 2 72.35 3.46
-4 -3 3 330.19 6.81
-4 -3 3 316.08 7.35
-4 -3 3 331.98 7.6
-4 -3 4 189.99 5.19
-4 -3 4 181.43 6.05
-4 -3 4 197.66 6.07
-4 -3 4 201.93 5.57
-4 -3 4 194.1 6.05
-4 -3 5 1581.03 15.17
-4 -3 5 1653.87 17.69
-4 -3 5 1603.28 18.25
-4 -3 5 1652.94 16.77
-4 -3 6 443.71 9.74
-4 -3 6 429.33 9.23
-4 -3 6 421.87 8.1
-4 -3 6 453.62 9.34
-4 -3 7 137.09 5.42
-4 -3 7 135.64 5.52
-4 -3 7 150.07 5.76
-4 -3 8 688.76 12.61
-4 -3 8 664.52 11.88
-4 -3 8 658.6 12.61
-4 -3 9 36.23 2.71
-4 -3 9 43.21 3.1
-4 -3 9 38.42 3.18
-4 -3 10 105.75 4.29
-4 -3 10 113.46 4.69
-4 -3 11 83.93 3.4
-4 -3 11 83.07 3.69
-4 -3 12 15.49 1.4
-4 -2 -8 6.17 0.87
-4 -2 -8 6.97 0.88
-4 -2 -7 90.85 3.51
-4 -2 -7 93.59 3.64
-4 -2 -6 93.25 4.07
-4 -2 -6 88.32 3.77
-4 -2 -6 95.03 3.86
-4 -2 -5 47.83 2.91
-4 -2 -5 47.71 2.89
-4 -2 -4 168.65 5.17
-4 -2 -4 165.09 5.4
-4 -2 -3 479.11 8.36
-4 -2 -3 487.09 9.4
-4 -2 -3 461.09 8.99
-4 -2 -2 25.19 2.14
-4 -2 -2 21.25 1.63
-4 -2 -2 20.85 1.84
-4 -2 -2 24.37 1.81
-4 -2 -1 483.62 8.35
-4 -2 -1 487.81 7.48
-4 -2 0 1374.84 13.49
-4 -2 0 1379.58 12.3
-4 -2 1 1184.09 12.27
-4 -2 1 1176.56 11.42
-4 -2 2 516.92 7.98
-4 -2 2 514.62 7.64
-4 -2 3 220.64 5.32
-4 -2 3 209.85 5.06
-4 -2 4 156.88 4.61
-4 -2 4 156.41 4.54
-4 -2 5 270.72 6.11
-4 -2 5 281.38 6.57
-4 -2 6 102.95 4.57
-4 -2 6 92.34 4.49
-4 -2 6 96.96 3.79
-4 -2 6 105.39 4.39
-4 -2 6 94.02 4.25
-4 -2 7 858.78 13.89
-4 -2 7 881.46 13.55
-4 -2 7 845.02 13.38
-4 -2 8 685.57 12.76
-4 -2 8 703.01 12.31
-4 -2 8 677.55 12.54
-4 -2 9 162.39 6.13
-4 -2 9 165.99 6.51
-4 -2 10 113.83 4.64
-4 -2 10 119.1 5.02
-4 -2 11 73.32 3.63
-4 -2 11 72.32 3.36
-4 -2 12 79.34 2.97
-4 -2 12 76.44 3.27
-4 -1 -9 69.79 2.48
-4 -1 -8 129.81 3.83
-4 -1 -8 136.6 4.12
-4 -1 -7 101.52 3.79
-4 -1 -7 95.02 3.77
-4 -1 -6 20.35 1.83
-4 -1 -6 20.84 1.93
-4 -1 -6 18.99 1.85
-4 -1 -6 17.6 1.95
-4 -1 -5 182.32 5.74
-4 -1 -5 173.87 5.7
-4 -1 -5 177.48 5.45
-4 -1 -4 106.97 5.02
-4 -1 -4 96.2 3.86
-4 -1 -4 109.78 4.54
-4 -1 -4 101.9 4.25
-4 -1 -4 112.54 4.33
-4 -1 -3 245.31 6.33
-4 -1 -3 263.7 6.73
-4 -1 -3 246.53 5.96
-4 -1 -3 263.38 6
-4 -1 -2 240.1 5.51
-4 -1 -2 255.9 5.54
-4 -1 -2 238.06 5.82
-4 -1 -1 208.07 5.14
-4 -1 -1 195.41 4.72
-4 -1 -1 204.77 4.89
-4 -1 0 264.66 5.56
-4 -1 0 266.17 4.98
-4 -1 0 271.49 5.49
-4 -1 0 253.04 5.19
-4 -1 1 988.37 10.42
-4 -1 1 1017.94 9.82
-4 -1 2 79.42 2.83
-4 -1 2 80.97 3.07
-4 -1 3 120.1 3.61
-4 -1 3 155.34 4.27
-4 -1 4 85.27 3.24
-4 -1 4 90.67 3.34
-4 -1 5 161.45 4.61
-4 -1 5 149.03 4.6
-4 -1 6 69.73 3.15
-4 -1 6 70.84 3.71
-4 -1 6 64.8 3.4
-4 -1 6 69.96 3.44
-4 -1 7 92.13 4.6
-4 -1 7 105.38 4.57
-4 -1 7 101.51 4.28
-4 -1 7 99.61 4.52
-4 -1 8 359.57 7.96
-4 -1 8 357.71 8.71
-4 -1 8 373.79 9.22
-4 -1 8 354.4 9.04
-4 -1 9 292.85 7.05
-4 -1 9 283.71 8.06
-4 -1 10 409.31 8.97
-4 -1 10 393.71 9.22
-4 -1 11 53.74 3.19
-4 -1 11 55.55 3.03
-4 -1 12 60.04 2.97
-4 -1 13 43.4 1.98
-4 0 -9 48.28 2.2
-4 0 -8 229.96 5.55
-4 0 -8 219.79 5.64
-4 0 -7 13.47 1.51
-4 0 -7 13.19 1.57
-4 0 -6 97.53 4.46
-4 0 -6 104.45 4.53
-4 0 -6 98.66 4.17
-4 0 -6 91.03 3.9
-4 0 -5 328.02 7.77
-4 0 -5 333.71 8.29
-4 0 -5 346.42 7.53
-4 0 -5 358.71 7.85
-4 0 -5 334.18 7.71
-4 0 -4 113.68 4.56
-4 0 -4 109.65 3.95
-4 0 -4 109.45 4.33
-4 0 -4 111.97 4.42
-4 0 -4 110.8 4.28
-4 0 -4 98.73 4.57
-4 0 -3 755.29 10.83
-4 0 -3 778.4 9.93
-4 0 -3 737.13 10.27
-4 0 -3 736.43 11.22
-4 0 -3 754.81 11.19
-4 0 -2 33.28 2.13
-4 0 -2 34.69 2.13
-4 0 -2 40.06 2.17
-4 0 -1 938.95 10.16
-4 0 -1 924.79 10.39
-4 0 0 160.85 4.21
-4 0 0 152.89 4.08
-4 0 1 7.72 0.91
-4 0 1 7.63 0.92
-4 0 2 557.98 7.79
-4 0 2 564.07 7.05
-4 0 3 249.34 5.03
-4 0 3 249.59 5.23
-4 0 4 578.87 8.23
-4 0 4 583.21 8.28
-4 0 5 333.08 7.28
-4 0 5 336.93 6.8
-4 0 5 335.66 6.52
-4 0 6 207.6 6.5
-4 0 6 227.26 6.71
-4 0 6 210.49 5.84
-4 0 7 43.86 2.52
-4 0 7 43.74 2.93
-4 0 7 46.42 2.87
-4 0 7 45.15 3.06
-4 0 7 41.3 3.08
-4 0 7 43.93 3.33
-4 0 8 974.71 14.97
-4 0 8 984.12 11.77
-4 0 8 990.42 13.16
-4 0 9 448.79 10.05
-4 0 9 462.03 8.89
-4 0 9 482.48 8.02
-4 0 9 453.82 9.74
-4 0 10 900.12 13.16
-4 0 10 886 10.35
-4 0 11 206.51 5.84
-4 0 11 205.67 6.14
-4 0 11 207.97 4.66
-4 0 12 124.43 3.17
-4 0 12 127.44 4.24
-4 1 -9 146.44 3.83
-4 1 -9 152.08 4.13
-4 1 -8 3.37 0.74
-4 1 -8 6.98 1.07
-4 1 -7 64.72 3.26
-4 1 -7 62.13 3.38
-4 1 -6 230.74 6.83
-4 1 -6 239.31 6.9
-4 1 -6 241.37 6.55
-4 1 -5 541.13 9.95
-4 1 -5 541.43 9.89
-4 1 -4 296.89 7.22
-4 1 -4 277.39 7.54
-4 1 -4 275.6 7
-4 1 -4 287.07 6.31
-4 1 -4 284.35 6.82
-4 1 -4 287.23 7.41
-4 1 -3 90.52 3.64
-4 1 -3 86.01 3.73
-4 1 -3 90.48 3.35
-4 1 -3 90.72 3.68
-4 1 -3 85.99 4.17
-4 1 -3 92.99 3.99
-4 1 -2 297.92 6.22
-4 1 -2 293.08 5.83
-4 1 -2 303.98 6.28
-4 1 -1 216.39 4.92
-4 1 -1 225.7 5.15
-4 1 -1 217.95 5.15
-4 1 0 633.15 8.33
-4 1 0 631.41 8.49
-4 1 1 420.17 6.71
-4 1 1 438.49 6.93
-4 1 2 782.92 9.15
-4 1 3 177.86 4.44
-4 1 4 2819.02 18.21
-4 1 4 2773.22 18.08
-4 1 5 622.65 8.83
-4 1 5 628.98 9.29
-4 1 6 256.65 7.19
-4 1 6 259.39 7.26
-4 1 6 247.7 6.44
-4 1 7 116.39 4
-4 1 7 123.15 4.62
-4 1 7 122.42 5.54
-4 1 8 1019.73 14.71
-4 1 8 1038.12 11.89
-4 1 8 1032.89 13.46
-4 1 9 358.72 8.57
-4 1 9 369.38 7.04
-4 1 9 371.79 9.13
-4 1 9 381.58 8.1
-4 1 10 450.08 9.14
-4 1 10 437.38 9.46
-4 1 11 59.12 3.21
-4 1 11 66.57 2.63
-4 1 11 65.2 3.21
-4 1 12 32.46 1.62
-4 1 12 29.82 1.97
-4 2 -9 29.99 1.65
-4 2 -9 37.16 2.07
-4 2 -8 359.89 6.88
-4 2 -8 387.04 7.74
-4 2 -7 172.13 5.64
-4 2 -7 182.82 5.36
-4 2 -6 1098.33 14.95
-4 2 -6 1113.01 14.76
-4 2 -6 1130.64 14.19
-4 2 -5 108.2 4.44
-4 2 -5 104.82 4.38
-4 2 -5 109.49 4.79
-4 2 -4 60.84 3.19
-4 2 -4 54.64 3.38
-4 2 -4 56.53 3.23
-4 2 -3 149.64 5.46
-4 2 -3 135.51 4.49
-4 2 -3 133.14 4.44
-4 2 -3 139.81 5.05
-4 2 -2 575.64 8.69
-4 2 -2 558.98 8.7
-4 2 -1 753.53 9.15
-4 2 -1 747.87 9.35
-4 2 -1 734.45 9.59
-4 2 0 394.23 6.94
-4 2 0 404.57 6.58
-4 2 1 268.56 5.36
-4 2 1 259.99 5.28
-4 2 2 90.96 3.16
-4 2 2 86.41 2.93
-4 2 3 117.3 3.67
-4 2 3 103.27 3.28
-4 2 4 409.54 7.42
-4 2 4 387.23 6.73
-4 2 4 405.1 7.03
-4 2 5 22.66 1.95
-4 2 6 32.1 2.13
-4 2 6 28.99 2.46
-4 2 6 33.3 2.62
-4 2 6 37.49 2.54
-4 2 7 513.48 8.53
-4 2 7 540.21 9.61
-4 2 7 535.35 11.61
-4 2 8 34.65 2.7
-4 2 8 36.45 2.53
-4 2 8 37.27 2.29
-4 2 9 72.75 3.89
-4 2 9 71.79 3.81
-4 2 9 73.61 3.12
-4 2 10 45.66 2.88
-4 2 10 46.85 2.93
-4 2 10 47.54 2.37
-4 2 11 172.6 4.08
-4 2 11 166.39 5.03
-4 2 12 8.81 0.84
-4 3 -9 133.87 3.75
-4 3 -8 37.16 2.33
-4 3 -7 604.11 10.19
-4 3 -6 156.83 5.67
-4 3 -6 154.26 5.51
-4 3 -6 161.88 5.22
-4 3 -5 448.76 10.66
-4 3 -5 454.43 9.09
-4 3 -5 461.81 9.46
-4 3 -5 462.76 9.74
-4 3 -4 248.3 6.64
-4 3 -4 256.02 6.94
-4 3 -4 231.9 7.74
-4 3 -4 247.17 7.18
-4 3 -3 105.82 5.18
-4 3 -3 115.3 4.81
-4 3 -3 106.89 4.66
-4 3 -3 118.15 4.37
-4 3 -3 106.69 4.97
-4 3 -2 7.76 1.17
-4 3 -2 9.07 1.36
-4 3 -2 10.08 1.26
-4 3 -2 7.1 1.3
-4 3 -1 43.07 2.66
-4 3 -1 42.4 2.44
-4 3 0 520.49 8.87
-4 3 0 491.04 8.04
-4 3 1 29.91 2.11
-4 3 1 29.74 1.83
-4 3 2 459.82 7.26
-4 3 2 461.57 8.07
-4 3 3 37.51 2.35
-4 3 4 63.89 3.06
-4 3 4 65.63 3.18
-4 3 5 431.22 8.86
-4 3 5 432.96 8.7
-4 3 5 405.4 8.68
-4 3 6 510.61 10.13
-4 3 6 500.17 8.43
-4 3 6 509.39 10.72
-4 3 6 533.92 9.94
-4 3 7 0.53 0.44
-4 3 7 1.21 0.54
-4 3 7 0.28 0.52
-4 3 7 0.45 0.46
-4 3 8 11.41 1.29
-4 3 8 12.13 1.59
-4 3 9 63.95 2.83
-4 3 10 13.01 1.2
-4 3 11 25.71 1.5
-4 3 12 103.44 2.55
-4 4 -9 46.03 2.02
-4 4 -8 43.92 2.4
-4 4 -7 43.35 2.65
-4 4 -6 207.64 6.19
-4 4 -6 205.93 6.78
-4 4 -6 203.86 6.53
-4 4 -5 68.29 3.74
-4 4 -5 69.94 4.16
-4 4 -5 72.52 3.88
-4 4 -4 43.77 2.93
-4 4 -4 41.41 2.94
-4 4 -4 41.82 3.26
-4 4 -4 43.53 3.18
-4 4 -3 255.65 7.99
-4 4 -3 255.92 7.3
-4 4 -3 260.23 7.72
-4 4 -3 264.22 6.95
-4 4 -2 118.2 5.16
-4 4 -2 125.1 4.62
-4 4 -2 115.55 5.06
-4 4 -2 125.64 5.09
-4 4 -2 118.26 4.79
-4 4 -1 188.58 6.15
-4 4 -1 193.36 5.56
-4 4 -1 188.74 6.27
-4 4 -1 182.57 5.89
-4 4 -1 187.6 6.37
-4 4 0 3.33 0.86
-4 4 0 4.69 1
-4 4 0 3.65 0.92
-4 4 1 83.52 4.01
-4 4 1 81.2 3.98
-4 4 1 74.9 3.9
-4 4 2 784.92 12.71
-4 4 2 803.23 12.24
-4 4 3 155.15 5.12
-4 4 3 154.74 5.4
-4 4 3 143.78 5.44
-4 4 4 723.89 10.99
-4 4 4 712.08 11.96
-4 4 4 729.43 11.24
-4 4 5 24.74 1.93
-4 4 5 28.45 2.25
-4 4 5 27.91 2.4
-4 4 5 27.92 2.45
-4 4 5 22.97 2.19
-4 4 6 53.14 3.27
-4 4 6 59.29 3.19
-4 4 6 60.11 3.71
-4 4 7 233.65 6.76
-4 4 7 207.43 5.46
-4 4 8 4.02 0.8
-4 4 9 54.6 2.5
-4 4 10 187.67 4.22
-4 4 11 57.06 2.04
-4 4 11 46.37 1.96
-4 5 -8 158.03 4.08
-4 5 -7 12.46 1.37
-4 5 -6 52.76 2.99
-4 5 -5 78.09 4.08
-4 5 -5 90.14 4.29
-4 5 -5 85.8 4.05
-4 5 -4 240.74 7.02
-4 5 -4 241.21 7.39
-4 5 -4 241.88 7.07
-4 5 -3 75.53 3.88
-4 5 -3 68.5 3.99
-4 5 -3 80.18 4.1
-4 5 -2 92.08 5
-4 5 -2 99.85 4.8
-4 5 -2 102.47 4.63
-4 5 -1 39.58 2.88
-4 5 -1 34.51 3
-4 5 -1 33.83 2.78
-4 5 0 48.58 3.28
-4 5 0 56.29 3.44
-4 5 0 54.89 3.72
-4 5 1 659.83 12.71
-4 5 1 658.3 12.11
-4 5 2 190.34 6.73
-4 5 2 206.86 7.03
-4 5 2 204.24 6.69
-4 5 3 1022.24 14.8
-4 5 3 1017.99 15.67
-4 5 3 1003.16 15.05
-4 5 4 1216.86 17.42
-4 5 4 1236.42 16.5
-4 5 5 125.41 5.06
-4 5 5 116.48 4.19
-4 5 6 1734.19 18.47
-4 5 6 1628.33 15.35
-4 5 7 244.3 5.73
-4 5 7 269.21 7.08
-4 5 8 96.14 3.35
-4 5 9 91.07 2.98
-4 5 10 30.99 1.67
-4 5 10 36.27 1.66
-4 6 -7 79.89 2.94
-4 6 -6 175.97 4.96
-4 6 -5 124.17 4.5
-4 6 -5 134.37 4.97
-4 6 -4 88.78 4.3
-4 6 -4 88.15 4
-4 6 -3 43.66 2.91
-4 6 -3 40.9 3.04
-4 6 -2 7.44 1.24
-4 6 -2 7.42 1.36
-4 6 -1 75.12 3.91
-4 6 -1 65.41 3.85
-4 6 0 371.27 9.25
-4 6 1 1014.66 15.66
-4 6 1 991.08 15.06
-4 6 2 359.56 9.23
-4 6 2 332.7 8.6
-4 6 3 475.45 8.06
-4 6 3 470.04 10.35
-4 6 4 0.8 0.4
-4 6 4 0.49 0.42
-4 6 5 65.59 2.99
-4 6 5 62.16 2.96
-4 6 6 297.05 6.02
-4 6 6 269.86 6.03
-4 6 7 6.92 0.97
-4 6 7 7.08 0.91
-4 6 8 168.74 4.24
-4 6 8 186.42 4.14
-4 6 9 119.92 2.9
-4 6 9 111.65 3.09
-4 7 -6 9.77 1.04
-4 7 -5 95.41 3.75
-4 7 -4 39.14 2.63
-4 7 -3 196.78 6.09
-4 7 -2 134.09 5.16
-4 7 -1 19.31 2.03
-4 7 0 198.04 6.76
-4 7 0 205.64 6.63
-4 7 1 10.43 1.54
-4 7 1 10.34 1.57
-4 7 2 234.91 7.17
-4 7 2 235.42 6.9
-4 7 3 105.15 4.39
-4 7 3 107.38 4.67
-4 7 3 112.58 3.58
-4 7 4 42.43 2.21
-4 7 4 30.53 2.42
-4 7 5 6.37 0.88
-4 7 5 8.76 1.29
-4 7 6 11.21 1.12
-4 7 6 17.48 1.87
-4 7 7 59.04 2.35
-4 7 8 96.56 2.66
-4 8 -5 3.99 0.65
-4 8 -4 38.74 2.21
-4 8 -3 16.67 1.57
-4 8 -2 67.67 3.27
-4 8 -1 3.61 0.85
-4 8 -1 5.31 0.97
-4 8 0 70.18 3.51
-4 8 0 70.29 3.49
-4 8 1 86.03 3.87
-4 8 1 89.96 3.88
-4 8 2 11.23 1.35
-4 8 2 12.08 1.45
-4 8 3 100.9 4
-4 8 4 46.65 2.6
-4 8 5 163 4.49
-4 8 6 65.58 2.64
-4 9 -3 36.98 1.78
-4 9 -2 82.46 2.87
-4 9 -1 14.49 1.27
-4 9 0 2.2 0.54
-4 9 0 2.5 0.55
-4 9 1 25.85 1.69
-4 9 2 1.16 0.43
-4 9 3 8.91 0.97
-4 9 4 34.72 1.72
-3 -9 0 6.32 0.77
-3 -9 1 135.47 3.6
-3 -9 2 125.01 3.57
-3 -9 3 31.58 1.81
-3 -9 4 68.29 2.6
-3 -9 4 59.73 2.35
-3 -8 -3 78.87 2.63
-3 -8 -2 60.88 2.55
-3 -8 -1 92.49 3.37
-3 -8 0 33.54 2.12
-3 -8 0 36.02 2.23
-3 -8 1 26.23 1.93
-3 -8 1 25.33 1.92
-3 -8 2 157.38 4.8
-3 -8 2 144.26 4.63
-3 -8 3 13.59 1.44
-3 -8 3 12.33 1.41
-3 -8 4 138.94 4.54
-3 -8 5 103 3.81
-3 -8 5 106.14 3.91
-3 -8 6 112.08 3.87
-3 -8 6 107.24 3.73
-3 -8 7 72.41 2.87
-3 -8 7 77.55 3.05
-3 -7 -4 49.36 2.29
-3 -7 -3 254.97 5.71
-3 -7 -2 176.97 5.02
-3 -7 -1 54.74 2.91
-3 -7 0 174.78 5.37
-3 -7 0 156.46 5.62
-3 -7 1 176.12 5.54
-3 -7 1 168.04 5.77
-3 -7 2 114.86 4.77
-3 -7 2 126.52 4.75
-3 -7 2 128.17 4.81
-3 -7 3 35.21 2.54
-3 -7 3 33.54 2.5
-3 -7 3 30.48 2.57
-3 -7 3 35.32 2.54
-3 -7 4 58.2 3.25
-3 -7 4 50.51 3.41
-3 -7 4 61.12 3.28
-3 -7 5 21.88 1.99
-3 -7 5 19.57 1.84
-3 -7 6 49.23 2.91
-3 -7 6 49.58 2.94
-3 -7 7 301.39 6.99
-3 -7 7 285.65 6.78
-3 -7 8 71.75 3.24
-3 -7 8 67.37 3.12
-3 -7 9 49.25 2.4
-3 -7 9 55.32 2.58
-3 -6 -6 160.74 3.92
-3 -6 -5 23.53 1.71
-3 -6 -4 122.25 4.13
-3 -6 -3 36.27 2.57
-3 -6 -3 43.9 2.57
-3 -6 -2 73.86 3.67
-3 -6 -2 80.56 3.62
-3 -6 -1 279.57 7.06
-3 -6 -1 295.75 7.22
-3 -6 -1 270.52 7.27
-3 -6 0 371.24 8.36
-3 -6 0 374.78 8.21
-3 -6 0 378.03 8.21
-3 -6 1 75.3 3.74
-3 -6 1 73.25 3.67
-3 -6 1 75.91 3.72
-3 -6 2 97.95 4.19
-3 -6 2 99.28 4.32
-3 -6 2 95.14 4.22
-3 -6 3 1023.07 14.12
-3 -6 3 1002.56 13.85
-3 -6 3 990.94 13.92
-3 -6 3 993.97 13.59
-3 -6 4 305.29 7.91
-3 -6 4 313.32 7.97
-3 -6 4 300.92 7.57
-3 -6 4 293.66 7.54
-3 -6 4 295.23 7.74
-3 -6 5 389.58 8.76
-3 -6 5 391.5 8.68
-3 -6 5 407.8 9.47
-3 -6 6 236.12 6.87
-3 -6 6 232.78 6.78
-3 -6 6 236.73 7.53
-3 -6 7 6.36 1.22
-3 -6 7 7.16 1.25
-3 -6 8 525.39 9.73
-3 -6 8 514.53 9.69
-3 -6 9 302.87 7
-3 -6 9 297.51 6.98
-3 -6 10 37.64 2.24
-3 -6 10 36.35 2.18
-3 -5 -8 86.31 2.43
-3 -5 -7 230.97 4.85
-3 -5 -5 28.34 2.18
-3 -5 -4 205.39 6.05
-3 -5 -4 199.51 5.77
-3 -5 -3 366.73 7.64
-3 -5 -3 355.87 7.83
-3 -5 -2 526.18 9.23
-3 -5 -2 520.4 8.88
-3 -5 -1 855.5 11.39
-3 -5 -1 860.95 11.15
-3 -5 -1 839.45 11.95
-3 -5 -1 869.77 11.92
-3 -5 0 70.97 3.21
-3 -5 0 73.07 3.33
-3 -5 0 69.83 3.2
-3 -5 1 85.53 3.57
-3 -5 1 85.69 3.89
-3 -5 1 88.53 3.59
-3 -5 2 56.18 2.9
-3 -5 2 57.87 3.23
-3 -5 2 53.2 3.12
-3 -5 2 52.95 2.78
-3 -5 3 288.77 7.36
-3 -5 3 265.25 7.08
-3 -5 3 276.11 6.35
-3 -5 4 159.42 5.54
-3 -5 4 161.41 5.49
-3 -5 4 168.56 5.38
-3 -5 4 165.87 5.21
-3 -5 4 169.54 5.8
-3 -5 5 50.52 3.1
-3 -5 5 50.98 3.12
-3 -5 5 47.57 3.08
-3 -5 5 52.08 3.17
-3 -5 6 153.53 5.48
-3 -5 6 152.07 5.6
-3 -5 6 161.84 5.85
-3 -5 7 268.05 7.98
-3 -5 7 254.92 7.37
-3 -5 7 272.33 7.68
-3 -5 8 751.41 12.54
-3 -5 8 738.1 12.45
-3 -5 9 173.61 5.82
-3 -5 9 177.84 5.83
-3 -5 10 57.67 3.11
-3 -5 10 60.89 3.24
-3 -5 11 42.04 2.34
-3 -4 -8 63.39 2.5
-3 -4 -8 68.38 2.63
-3 -4 -7 41.49 2.3
-3 -4 -6 54.46 2.95
-3 -4 -6 55.32 2.85
-3 -4 -5 40.01 2.69
-3 -4 -5 45.01 2.69
-3 -4 -5 48.48 2.79
-3 -4 -4 88.45 3.82
-3 -4 -4 80.86 3.51
-3 -4 -3 1307.46 13.56
-3 -4 -3 1280.05 13.85
-3 -4 -2 205.08 5.66
-3 -4 -2 215.03 5.25
-3 -4 -1 799.82 10.55
-3 -4 -1 814.93 9.86
-3 -4 0 14.26 1.37
-3 -4 0 14.67 1.32
-3 -4 0 12.28 1.21
-3 -4 1 78.12 3.01
-3 -4 1 80.68 3.04
-3 -4 1 84.6 3.15
-3 -4 2 47.32 2.33
-3 -4 2 46.71 2.36
-3 -4 2 50.94 2.47
-3 -4 3 19.38 1.53
-3 -4 3 20.08 1.62
-3 -4 4 236.22 5.59
-3 -4 4 237.79 5.8
-3 -4 4 220.3 6.13
-3 -4 5 651.13 11.23
-3 -4 5 653.25 10.84
-3 -4 5 679.08 10.39
-3 -4 6 191.81 6.53
-3 -4 6 185.99 6.19
-3 -4 6 173.46 5.76
-3 -4 6 188.68 5.9
-3 -4 7 77.87 4.11
-3 -4 7 74.28 4.01
-3 -4 7 73.55 4
-3 -4 7 73.43 4.09
-3 -4 8 524.37 11.28
-3 -4 8 503.49 10.34
-3 -4 8 487.79 10.35
-3 -4 8 520.64 10.97
-3 -4 9 125.84 5.29
-3 -4 9 130.78 5.3
-3 -4 9 131.37 5.92
-3 -4 10 100.03 4.35
-3 -4 10 96.77 4.39
-3 -4 11 411.81 8.05
-3 -4 11 387.87 7.93
-3 -4 12 40.78 2.18
-3 -3 -9 4.77 0.7
-3 -3 -9 4.82 0.7
-3 -3 -8 8.88 1.1
-3 -3 -7 29.66 2.22
-3 -3 -7 27.65 2.05
-3 -3 -6 93.37 3.93
-3 -3 -6 90.86 3.85
-3 -3 -5 167.58 5.39
-3 -3 -5 175.9 5.12
-3 -3 -5 168.38 5.32
-3 -3 -4 93.44 3.79
-3 -3 -4 97.46 4.19
-3 -3 -4 105.29 4.2
-3 -3 -4 97.69 3.62
-3 -3 -3 612.37 9.64
-3 -3 -3 613.25 8.93
-3 -3 -3 607.56 8.51
-3 -3 -2 770.41 9.28
-3 -3 -2 741.93 9.76
-3 -3 -2 744.47 8.95
-3 -3 -1 551.67 7.86
-3 -3 -1 550.72 7.4
-3 -3 0 302.43 5.35
-3 -3 0 284.95 5.3
-3 -3 0 288.54 5.46
-3 -3 1 1320.25 11.25
-3 -3 1 1298.6 11.28
-3 -3 2 682.45 8.32
-3 -3 2 658.95 7.69
-3 -3 3 441.11 6.82
-3 -3 3 449.12 6.88
-3 -3 3 425.35 6.32
-3 -3 4 459.87 7.3
-3 -3 4 487.4 7.32
-3 -3 5 193.09 5.1
-3 -3 5 197.87 4.84
-3 -3 6 2069.46 20.4
-3 -3 6 2119.34 18.47
-3 -3 7 668.84 11.87
-3 -3 7 655.11 11.9
-3 -3 8 175.52 6.13
-3 -3 8 176.08 6.3
-3 -3 8 168.45 6.43
-3 -3 8 172.23 6.26
-3 -3 9 183.29 6.45
-3 -3 9 177.79 6.58
-3 -3 9 187.66 6.95
-3 -3 10 289.43 7.7
-3 -3 10 285.14 7.16
-3 -3 10 279.24 7.78
-3 -3 11 157.79 5.28
-3 -3 12 114.66 3.98
-3 -2 -10 339.67 4.99
-3 -2 -9 83.46 2.99
-3 -2 -9 81.87 3.03
-3 -2 -8 231.97 5.72
-3 -2 -7 37.64 2.52
-3 -2 -7 38.42 2.53
-3 -2 -6 690.4 10.41
-3 -2 -6 706.6 11.01
-3 -2 -5 366.73 9.15
-3 -2 -5 335.39 7.16
-3 -2 -5 359.14 7.5
-3 -2 -5 333.36 6.89
-3 -2 -5 338.51 7.87
-3 -2 -4 375.22 7.07
-3 -2 -4 428.58 8.08
-3 -2 -3 111.49 3.46
-3 -2 -3 107.23 3.44
-3 -2 -3 112.16 3.8
-3 -2 -3 121.22 3.58
-3 -2 -2 1042.57 10.78
-3 -2 -2 1024.74 9.78
-3 -2 -1 1699.08 12.27
-3 -2 -1 1682.35 12.57
-3 -2 0 3929.52 17.57
-3 -2 0 3938.7 18.32
-3 -2 1 2921.41 15.93
-3 -2 1 2940.72 15.57
-3 -2 2 1629.98 11.75
-3 -2 2 1644.93 12.15
-3 -2 2 1650.71 10.39
-3 -2 3 1579.62 12.13
-3 -2 3 1605.48 12.29
-3 -2 4 434.57 6.58
-3 -2 4 454.27 6.87
-3 -2 5 932.46 10.55
-3 -2 5 950.76 10.19
-3 -2 6 147.02 4.65
-3 -2 7 478.95 9.87
-3 -2 7 505.59 9.39
-3 -2 7 491.91 10.28
-3 -2 8 585.39 11.11
-3 -2 8 598.19 11.22
-3 -2 9 522.81 11.07
-3 -2 10 497.98 9.85
-3 -2 10 511.24 10.65
-3 -2 11 34.63 2.58
-3 -2 11 36.73 2.45
-3 -2 12 32.03 2.21
-3 -2 13 13.26 1.15
-3 -1 -10 21.89 1.44
-3 -1 -9 16.79 1.54
-3 -1 -9 17.92 1.54
-3 -1 -8 299.11 7.11
-3 -1 -8 308.01 6.73
-3 -1 -7 6.56 1.11
-3 -1 -7 9.58 1.39
-3 -1 -7 8.31 1.2
-3 -1 -6 116.98 4.8
-3 -1 -6 123.07 4.54
-3 -1 -6 125.39 4.61
-3 -1 -6 123.53 4.29
-3 -1 -5 83.91 4.21
-3 -1 -5 82.55 3.45
-3 -1 -5 81.77 3.3
-3 -1 -5 87.76 3.84
-3 -1 -4 372.91 7.14
-3 -1 -4 380.67 6.52
-3 -1 -4 383.96 6.76
-3 -1 -4 399.51 6.68
-3 -1 -3 239.1 4.78
-3 -1 -3 232.95 4.86
-3 -1 -3 231.98 4.73
-3 -1 -3 231.35 5.03
-3 -1 -2 1135 10.31
-3 -1 -2 1162.85 9.55
-3 -1 -2 1155.75 9.92
-3 -1 -1 215.03 3.84
-3 -1 -1 215.86 4.16
-3 -1 -1 214.8 4.07
-3 -1 -1 212.17 4.09
-3 -1 0 423.43 5.64
-3 -1 0 400.96 5.35
-3 -1 0 397.77 5.43
-3 -1 0 413.75 5.14
-3 -1 1 854.69 8.16
-3 -1 1 832.32 7.49
-3 -1 1 845.03 7.45
-3 -1 2 421.34 5.5
-3 -1 2 392.9 5.69
-3 -1 3 1727.58 11.88
-3 -1 3 1784.71 12.45
-3 -1 4 562.73 7.25
-3 -1 4 556.74 7.35
-3 -1 5 134.71 3.75
-3 -1 5 136.5 3.96
-3 -1 6 104.21 3.83
-3 -1 7 95.45 4.57
-3 -1 7 96.19 4.36
-3 -1 8 179.66 6.02
-3 -1 8 167.21 5.43
-3 -1 8 180.96 6.46
-3 -1 8 177.88 5.02
-3 -1 9 84.76 4.26
-3 -1 9 82.64 4.44
-3 -1 10 525.35 10.25
-3 -1 10 535.66 10.94
-3 -1 11 8.26 1.23
-3 -1 11 7.17 1.23
-3 -1 11 10.3 1.13
-3 -1 12 26.2 1.56
-3 -1 12 25.95 2.06
-3 -1 13 94.03 3.13
-3 0 -10 46.5 2.18
-3 0 -10 41.15 2.13
-3 0 -9 44.84 2.47
-3 0 -9 41.38 2.53
-3 0 -8 115.81 4.79
-3 0 -8 123.08 4.42
-3 0 -7 164.75 5.34
-3 0 -7 168.66 5.6
-3 0 -6 544.62 11.03
-3 0 -6 517.73 9.38
-3 0 -6 553.9 9.53
-3 0 -6 523.6 10.06
-3 0 -6 548.93 8.66
-3 0 -6 530.46 10.12
-3 0 -5 38.69 2.69
-3 0 -5 42.43 2.6
-3 0 -5 39.01 2.17
-3 0 -5 39.17 2.51
-3 0 -5 39.93 2.36
-3 0 -5 44.57 2.87
-3 0 -4 30.3 1.79
-3 0 -4 31.24 2.02
-3 0 -4 32.3 1.94
-3 0 -4 35.67 2.33
-3 0 -3 49.58 2.29
-3 0 -3 51.23 2.28
-3 0 -3 54.77 2.21
-3 0 -2 984.49 9.24
-3 0 -2 964.95 9.22
-3 0 -1 1567.82 10.78
-3 0 -1 1544.83 10.99
-3 0 -1 1567.87 10.78
-3 0 0 361.51 4.98
-3 0 0 359.07 5.11
-3 0 0 351.43 4.29
-3 0 1 27.09 1.36
-3 0 1 28.07 1.4
-3 0 1 26.58 1.23
-3 0 1 31.04 1.53
-3 0 2 1728.3 9.82
-3 0 2 1724.67 10.48
-3 0 3 501.36 6.18
-3 0 3 483.47 6.35
-3 0 4 817.56 8.81
-3 0 4 808.12 8.56
-3 0 5 908.41 10.21
-3 0 5 908.22 9.63
-3 0 6 61.84 2.92
-3 0 6 63.4 3.28
-3 0 7 118.38 4.47
-3 0 7 119.37 5.1
-3 0 8 432.36 9.39
-3 0 8 456.64 7.82
-3 0 8 447.17 11.05
-3 0 8 454.32 10.19
-3 0 8 439.42 8.65
-3 0 9 282.52 6.13
-3 0 9 266.15 7.48
-3 0 9 264.36 7.81
-3 0 10 193.39 6.25
-3 0 10 189.9 6.54
-3 0 10 197.4 5.03
-3 0 11 157.41 4.24
-3 0 11 165.64 5.34
-3 0 11 161.72 5.61
-3 0 12 49.37 2.79
-3 0 12 47.03 2.12
-3 0 13 144.72 3.84
-3 1 -10 62.19 2.49
-3 1 -10 62.67 2.75
-3 1 -9 52.09 2.67
-3 1 -9 50.97 2.86
-3 1 -8 28.96 2.18
-3 1 -8 29.97 2.4
-3 1 -8 30.88 2.45
-3 1 -7 35.59 2.49
-3 1 -7 33.96 2.49
-3 1 -6 78.44 3.55
-3 1 -6 72.85 3.53
-3 1 -6 75.22 3.98
-3 1 -6 74.22 3.7
-3 1 -5 488.04 9.02
-3 1 -5 570.55 9.67
-3 1 -5 559.41 9.15
-3 1 -5 518.12 8.38
-3 1 -4 415.66 7.1
-3 1 -4 410.46 7.42
-3 1 -4 403.49 6.8
-3 1 -3 63.4 2.32
-3 1 -3 61.75 2.52
-3 1 -3 62.83 2.51
-3 1 -3 60.91 2.59
-3 1 -2 1596.76 11.08
-3 1 -2 1585.83 11.44
-3 1 -1 1001.03 8.56
-3 1 -1 1013.32 9.23
-3 1 0 125.34 2.92
-3 1 0 118.26 3.06
-3 1 0 117.5 2.96
-3 1 0 121.84 2.71
-3 1 1 89.17 1.63
-3 1 1 89 2.45
-3 1 1 94.11 2.32
-3 1 1 90.39 2.66
-3 1 2 725.87 6.48
-3 1 2 737.57 6.86
-3 1 2 745.51 7.61
-3 1 3 2080.05 13.24
-3 1 3 2105.77 12.78
-3 1 4 2519.91 15.63
-3 1 4 2540.59 16.64
-3 1 5 320.23 6.16
-3 1 5 322.14 6.73
-3 1 6 106.56 4.36
-3 1 7 638.57 11.07
-3 1 7 606.7 8.87
-3 1 7 638.9 10.13
-3 1 8 573.04 11.41
-3 1 8 569.55 12.44
-3 1 8 593.32 10.02
-3 1 9 925.81 11.14
-3 1 9 913.27 13.71
-3 1 10 396.37 9.4
-3 1 10 391.9 7.09
-3 1 10 392.04 8.79
-3 1 11 5 1.05
-3 1 11 4.65 0.77
-3 1 12 213.53 4.41
-3 1 12 209.75 5.51
-3 1 13 445.74 5.16
-3 2 -10 37.48 2.12
-3 2 -9 3.35 0.83
-3 2 -9 4.62 0.82
-3 2 -8 420.09 8.99
-3 2 -8 411.36 7.92
-3 2 -8 419.27 8.71
-3 2 -7 114.33 4.76
-3 2 -7 123.26 4.77
-3 2 -7 110.21 4.31
-3 2 -6 773.3 11.29
-3 2 -6 837.24 12.03
-3 2 -5 905.59 12.05
-3 2 -5 899.03 11.22
-3 2 -5 933.36 12.64
-3 2 -5 890.76 11.52
-3 2 -4 1200.68 11.93
-3 2 -4 1186.88 12.19
-3 2 -3 48.39 2.21
-3 2 -3 50.66 2.2
-3 2 -2 877.71 8.36
-3 2 -2 889.38 8.31
-3 2 -2 863.02 9.16
-3 2 -2 871.93 8.4
-3 2 -1 1331.61 10.93
-3 2 -1 1339.26 10.22
-3 2 -1 1308.64 10.9
-3 2 0 566.57 6.9
-3 2 0 553.3 6.94
-3 2 0 556.63 6.23
-3 2 1 37.68 1.34
-3 2 1 40.3 1.83
-3 2 1 38.88 1.74
-3 2 1 35.45 1.75
-3 2 2 120.45 3.14
-3 2 2 127.33 2.99
-3 2 2 119.61 3.19
-3 2 3 246.64 4.69
-3 2 3 257.22 4.77
-3 2 4 4422.51 20.83
-3 2 4 4450.54 22.67
-3 2 5 394.8 7.7
-3 2 6 466.85 9.38
-3 2 7 374.74 7.78
-3 2 7 386.8 8.69
-3 2 7 364.47 6.87
-3 2 7 348.47 8.98
-3 2 7 339.84 8.74
-3 2 8 339.63 8.75
-3 2 8 333.83 8.18
-3 2 8 331.47 6.67
-3 2 8 355.14 9.98
-3 2 9 726.51 9.84
-3 2 9 724.11 12.08
-3 2 9 703.82 12.52
-3 2 10 99.77 4.54
-3 2 10 101.65 3.51
-3 2 11 153.6 5.11
-3 2 11 154.79 3.98
-3 2 12 92.3 3.42
-3 2 12 87.8 2.7
-3 3 -10 65.52 2.67
-3 3 -9 22.9 1.84
-3 3 -8 75.05 3.99
-3 3 -8 77.43 3.7
-3 3 -7 1440.62 16.74
-3 3 -7 1480 19
-3 3 -7 1435.69 16.6
-3 3 -6 23.43 2.07
-3 3 -6 27.22 2.36
-3 3 -5 1808.94 18.64
-3 3 -5 1766.92 21
-3 3 -5 1743.3 17.77
-3 3 -4 26.22 1.91
-3 3 -4 22.54 2.05
-3 3 -4 24.01 2.42
-3 3 -3 511.47 7.84
-3 3 -2 755.98 9.92
-3 3 -2 742.94 9.09
-3 3 -1 139.73 4.06
-3 3 -1 127.31 3.68
-3 3 0 502.34 7.16
-3 3 0 489.05 7.41
-3 3 1 284.68 5.69
-3 3 1 292.77 4.4
-3 3 2 893.54 10.18
-3 3 2 866.48 8.5
-3 3 3 2.11 0.54
-3 3 3 4.87 0.75
-3 3 4 282.65 6.17
-3 3 4 266.27 5.91
-3 3 5 177.52 5.49
-3 3 5 181.15 5.15
-3 3 6 2.3 0.72
-3 3 6 4.5 1
-3 3 6 3.1 0.78
-3 3 6 5.03 1.09
-3 3 7 260.52 7.2
-3 3 7 244.95 7.25
-3 3 7 285.59 8.42
-3 3 7 250.99 5.84
-3 3 7 279.39 7.15
-3 3 8 310.23 6.5
-3 3 8 311.03 7.92
-3 3 8 315.39 8.19
-3 3 9 138.55 4.22
-3 3 9 134.96 5.25
-3 3 10 14.79 1.66
-3 3 10 16.59 1.39
-3 3 11 37.55 1.9
-3 3 12 28.4 1.42
-3 4 -10 74.31 2.6
-3 4 -9 70.23 3.07
-3 4 -9 74.54 3.43
-3 4 -8 104.86 4.6
-3 4 -8 102.03 4.09
-3 4 -7 2.35 0.81
-3 4 -7 3.38 0.98
-3 4 -7 2.44 0.84
-3 4 -6 919.99 13.64
-3 4 -6 922.96 13.26
-3 4 -6 941.5 15.31
-3 4 -5 459.44 9.65
-3 4 -5 462.55 10.63
-3 4 -5 463.02 10.71
-3 4 -5 476.82 9.08
-3 4 -4 62.19 3.9
-3 4 -4 64.81 3.61
-3 4 -4 59 3.04
-3 4 -4 62.42 3.88
-3 4 -3 46 2.89
-3 4 -3 49.33 3.11
-3 4 -3 52.17 3.44
-3 4 -3 45.05 3.25
-3 4 -3 49.15 2.64
-3 4 -2 451.71 8.67
-3 4 -2 464.3 7.77
-3 4 -1 134.57 4.56
-3 4 -1 137.26 4.1
-3 4 0 1342.57 14.19
-3 4 1 56.46 2.93
-3 4 2 738.75 8.74
-3 4 2 767.89 10.85
-3 4 3 7.17 0.96
-3 4 3 8.25 1.15
-3 4 4 37.81 2.52
-3 4 4 34.25 2.27
-3 4 5 103.59 4.38
-3 4 5 97.85 3.77
-3 4 5 106.87 4.4
-3 4 5 104.28 4.51
-3 4 5 103.59 4.29
-3 4 5 101.46 4.12
-3 4 6 1161.26 16.14
-3 4 6 1153.33 12.82
-3 4 6 1090.34 14.33
-3 4 6 1065.33 13.93
-3 4 7 362.98 8.32
-3 4 7 348.9 7.92
-3 4 7 358.1 7.05
-3 4 8 88.06 3.43
-3 4 9 46.21 2.36
-3 4 10 19.54 1.44
-3 4 11 42.92 1.9
-3 4 11 50.05 2.02
-3 5 -9 95.57 3.2
-3 5 -8 4.63 0.87
-3 5 -8 1.44 0.6
-3 5 -7 54.46 3.05
-3 5 -7 55.08 3.41
-3 5 -6 606.28 11.99
-3 5 -6 616.25 11.62
-3 5 -6 592.97 10.66
-3 5 -5 631.42 12.3
-3 5 -5 596.76 10.97
-3 5 -5 605.11 10.76
-3 5 -5 617.67 12.36
-3 5 -4 13.23 1.66
-3 5 -4 14.29 1.92
-3 5 -4 13.49 1.58
-3 5 -4 15.91 1.96
-3 5 -3 256.36 7.86
-3 5 -3 258.47 6.52
-3 5 -3 250.59 7.49
-3 5 -3 245.22 7.6
-3 5 -3 255.13 7.28
-3 5 -2 268.96 7.61
-3 5 -2 275.56 6.49
-3 5 -2 272.35 7.5
-3 5 -2 262.2 7.85
-3 5 -2 273.82 7.86
-3 5 -1 59.35 3.5
-3 5 -1 59.77 3.59
-3 5 -1 62.38 3.57
-3 5 0 5.62 1.09
-3 5 0 5.35 1.1
-3 5 1 9.85 1.49
-3 5 1 11.15 1.5
-3 5 2 296.41 7.64
-3 5 2 291.7 8.38
-3 5 3 399.33 8.97
-3 5 3 406.44 9.57
-3 5 3 382.19 7.61
-3 5 4 221.33 6.23
-3 5 4 227.02 7.01
-3 5 4 210.95 5.64
-3 5 5 550.72 9.88
-3 5 5 503.2 10.22
-3 5 5 545.02 11.18
-3 5 5 487.28 8.48
-3 5 5 525.07 10.64
-3 5 6 1391.64 13.88
-3 5 6 1361.53 15.57
-3 5 7 35.33 2.48
-3 5 7 34.09 2.14
-3 5 8 447.37 7.26
-3 5 9 46.03 2.18
-3 5 9 40.16 2.23
-3 5 10 8.74 0.93
-3 5 10 8.91 0.88
-3 6 -8 106.51 3.4
-3 6 -7 20.05 1.96
-3 6 -7 18.56 1.65
-3 6 -6 86.96 3.8
-3 6 -6 86.67 4.21
-3 6 -6 84.46 4.09
-3 6 -5 227.6 6.49
-3 6 -5 222.52 7.1
-3 6 -5 242.64 7.35
-3 6 -4 212.53 6.49
-3 6 -4 210.08 7.1
-3 6 -4 201.66 6.94
-3 6 -3 1131 16.42
-3 6 -3 1139.58 16.65
-3 6 -3 1150.37 15.3
-3 6 -2 197.12 6.37
-3 6 -2 187.99 7.05
-3 6 -2 185.87 6.61
-3 6 -1 49.57 3.6
-3 6 -1 47.92 3.16
-3 6 -1 46.14 3.3
-3 6 0 146.9 6.07
-3 6 0 140.51 5.74
-3 6 0 144.42 6.23
-3 6 1 1428.21 19.27
-3 6 1 1402.76 18.72
-3 6 1 1426.29 18.16
-3 6 2 805.39 14.12
-3 6 2 785.07 13.45
-3 6 2 799.65 14
-3 6 3 1340.19 18.27
-3 6 3 1361.25 18.13
-3 6 4 174.38 5.05
-3 6 4 170.75 4.98
-3 6 5 711.17 12.27
-3 6 5 741.29 10.02
-3 6 6 73.98 3.25
-3 6 6 79.71 3.18
-3 6 7 284.54 5.54
-3 6 7 282.25 6.98
-3 6 8 13.18 1.26
-3 6 8 14.92 1.21
-3 6 9 2.6 0.54
-3 6 9 6.56 0.72
-3 6 10 63.4 1.95
-3 7 -7 18.13 1.49
-3 7 -6 128.16 4.57
-3 7 -5 141.84 5.22
-3 7 -4 365.09 8.7
-3 7 -3 58.54 3.6
-3 7 -2 92.67 4.59
-3 7 -1 278 8.51
-3 7 -1 296.59 8.33
-3 7 0 194.54 7.12
-3 7 0 185.58 6.53
-3 7 1 395.82 10.08
-3 7 1 382.19 9.23
-3 7 2 534.7 8.27
-3 7 2 511.64 10.56
-3 7 2 537.73 11.58
-3 7 3 52.59 3.51
-3 7 3 53.82 2.69
-3 7 4 43.26 3.03
-3 7 4 44.27 2.43
-3 7 5 6.98 0.98
-3 7 5 5.33 1.08
-3 7 6 92.99 3.29
-3 7 6 93.47 3.87
-3 7 7 29.81 1.75
-3 7 7 41.63 2.56
-3 7 8 50.38 2.05
-3 8 -6 19.83 1.51
-3 8 -5 90.24 3.61
-3 8 -4 74.61 3.59
-3 8 -4 85.92 3.74
-3 8 -3 138.24 5.19
-3 8 -3 138.22 4.94
-3 8 -2 3.86 0.98
-3 8 -2 2.64 0.8
-3 8 -1 59.07 3.59
-3 8 -1 59.66 3.42
-3 8 0 483.49 10.33
-3 8 0 466.76 9.48
-3 8 1 11.01 1.56
-3 8 1 9.59 1.35
-3 8 2 49.52 3.16
-3 8 3 249.73 6.76
-3 8 4 59.92 3.12
-3 8 5 2.04 0.67
-3 8 6 78.14 3.05
-3 9 -5 53.27 2.1
-3 9 -4 103 3.32
-3 9 -3 24.49 1.78
-3 9 -3 27.72 1.88
-3 9 -2 10.31 1.25
-3 9 -2 11.87 1.3
-3 9 -1 28.55 2.09
-3 9 -1 27.45 1.97
-3 9 0 132.11 4.54
-3 9 0 140.33 4.35
-3 9 1 56.65 2.94
-3 9 2 39.94 2.37
-3 9 3 92.47 3.36
-3 9 4 5.63 0.81
-3 9 5 15.05 1.19
-2 -9 0 298.24 6.05
-2 -9 1 164.69 4.58
-2 -9 2 197.54 5.09
-2 -9 3 31.66 2.04
-2 -9 4 102.48 3.59
-2 -9 4 96.85 3.52
-2 -9 5 29.35 1.83
-2 -9 5 32.27 1.97
-2 -9 6 125.85 3.65
-2 -8 -1 109.11 3.99
-2 -8 0 151.74 4.96
-2 -8 1 9.61 1.3
-2 -8 2 172.82 5.38
-2 -8 3 138.45 4.88
-2 -8 3 136.18 4.75
-2 -8 4 78.97 3.68
-2 -8 5 164.22 5.21
-2 -8 6 11.83 1.39
-2 -8 6 12.06 1.41
-2 -8 7 9.05 1.15
-2 -8 7 9.56 1.2
-2 -8 8 48.16 2.3
-2 -8 8 51.99 2.51
-2 -7 -6 25.26 1.44
-2 -7 -1 207.29 6.45
-2 -7 0 88.51 4.24
-2 -7 0 94.63 4.36
-2 -7 1 583.88 10.48
-2 -7 1 573.45 10.64
-2 -7 1 577.48 10.64
-2 -7 1 589.4 10.83
-2 -7 2 176.99 6.02
-2 -7 2 191.76 6.05
-2 -7 2 179.41 5.94
-2 -7 3 3.15 0.83
-2 -7 3 4.04 1.01
-2 -7 3 3.56 0.93
-2 -7 4 282.68 7.8
-2 -7 4 293.29 7.58
-2 -7 4 269.05 7.76
-2 -7 4 301.24 7.6
-2 -7 4 273.67 7.55
-2 -7 5 547.67 11.34
-2 -7 5 585.58 10.71
-2 -7 6 620.33 10.79
-2 -7 6 606.58 10.68
-2 -7 7 447 8.99
-2 -7 7 470.63 9.14
-2 -7 8 351.1 7.59
-2 -7 8 343.07 7.53
-2 -7 9 2.3 0.62
-2 -7 9 1.61 0.57
-2 -7 10 75.21 2.81
-2 -6 -4 58.31 3.24
-2 -6 -4 50.42 2.91
-2 -6 -3 301.25 7.28
-2 -6 -3 318.97 8.11
-2 -6 -2 573.14 10.5
-2 -6 -2 563.17 9.74
-2 -6 -1 105.65 4.14
-2 -6 -1 103.68 4.3
-2 -6 0 674.48 10.42
-2 -6 0 668.66 10.55
-2 -6 1 13.2 1.48
-2 -6 1 15.08 1.58
-2 -6 2 369.39 8.39
-2 -6 2 378.41 7.88
-2 -6 2 376.59 7.8
-2 -6 2 386.5 7.93
-2 -6 3 255.07 6.55
-2 -6 3 265.44 6.78
-2 -6 3 277.33 7.21
-2 -6 4 206.08 6.19
-2 -6 4 201.62 6.09
-2 -6 4 207.66 6.32
-2 -6 4 209.92 6.42
-2 -6 5 52.95 3.3
-2 -6 5 48.37 3.24
-2 -6 5 51.7 3.27
-2 -6 5 53.61 3.25
-2 -6 6 140.69 5.73
-2 -6 6 147.03 5.57
-2 -6 6 142.69 5.68
-2 -6 7 183.03 6.58
-2 -6 7 205.29 6.54
-2 -6 7 200.44 6.43
-2 -6 8 293.18 7.6
-2 -6 8 297.82 7.7
-2 -6 9 15.61 1.68
-2 -6 9 14.73 1.68
-2 -6 10 61.23 3.1
-2 -6 10 65.87 3.05
-2 -6 11 67.62 2.69
-2 -5 -9 207.74 3.72
-2 -5 -8 256.17 4.91
-2 -5 -7 131.4 4
-2 -5 -6 4.57 0.92
-2 -5 -5 60.06 3.31
-2 -5 -5 49.3 2.83
-2 -5 -4 1431.03 15.44
-2 -5 -4 1348.31 14.23
-2 -5 -3 4.04 0.83
-2 -5 -3 3.4 0.76
-2 -5 -2 222.43 5.46
-2 -5 -2 219.38 5.22
-2 -5 -1 436.38 7.38
-2 -5 -1 437.95 6.97
-2 -5 0 484.65 7.58
-2 -5 0 468.82 7.78
-2 -5 1 836.05 10.18
-2 -5 1 909.04 10.4
-2 -5 2 154.11 4.38
-2 -5 2 162.61 4.49
-2 -5 3 37.73 2.25
-2 -5 3 38.2 2.24
-2 -5 4 726.07 11.46
-2 -5 4 716.22 10.32
-2 -5 4 738.45 10.51
-2 -5 4 735.43 11.22
-2 -5 5 3.82 0.91
-2 -5 5 3.93 0.87
-2 -5 5 4.94 1.07
-2 -5 5 2.44 0.75
-2 -5 5 3.49 0.86
-2 -5 6 77.8 4.05
-2 -5 6 81.54 4.1
-2 -5 6 79.76 3.98
-2 -5 6 72.38 4.04
-2 -5 7 13.8 1.77
-2 -5 7 13.23 1.76
-2 -5 7 13.74 1.78
-2 -5 7 11.97 1.67
-2 -5 8 365.53 9.09
-2 -5 8 333.48 9.23
-2 -5 8 363.24 8.91
-2 -5 8 353.35 9.24
-2 -5 9 8.53 1.38
-2 -5 9 8.39 1.39
-2 -5 10 234.01 6.67
-2 -5 10 238.6 6.48
-2 -5 11 154.7 4.6
-2 -5 11 150.28 4.76
-2 -4 -9 64.18 2.52
-2 -4 -8 119.89 3.91
-2 -4 -7 96.65 3.92
-2 -4 -6 61.19 3.43
-2 -4 -6 58.33 3.03
-2 -4 -5 20.71 1.91
-2 -4 -5 18.82 1.94
-2 -4 -5 19.53 1.74
-2 -4 -5 18.87 2.16
-2 -4 -4 34 2.27
-2 -4 -4 29.3 2
-2 -4 -4 31.9 2.31
-2 -4 -3 227.71 5.38
-2 -4 -3 212.43 4.92
-2 -4 -3 230.27 5.53
-2 -4 -2 276.89 5.3
-2 -4 -2 289.04 5.69
-2 -4 -2 292.23 5.73
-2 -4 -1 111.39 3.27
-2 -4 -1 112.96 3.25
-2 -4 -1 112.24 3.22
-2 -4 0 85.4 2.64
-2 -4 0 82.84 2.66
-2 -4 1 64.31 2.41
-2 -4 1 75.73 2.55
-2 -4 2 240.83 4.82
-2 -4 2 219.52 4.55
-2 -4 3 521.81 7.42
-2 -4 3 509.46 7.31
-2 -4 3 495.01 7.45
-2 -4 4 478.97 7.68
-2 -4 4 470.66 7.46
-2 -4 5 86.62 3.48
-2 -4 5 88.99 3.68
-2 -4 6 1.84 0.74
-2 -4 6 1.86 0.75
-2 -4 6 1.66 0.82
-2 -4 6 2.51 0.71
-2 -4 7 389.19 9.2
-2 -4 7 385.39 8.64
-2 -4 7 397.13 8.96
-2 -4 7 387.43 9.17
-2 -4 7 392.86 9.41
-2 -4 8 295.6 8.2
-2 -4 8 293.44 8.21
-2 -4 8 292.53 8.29
-2 -4 8 301.74 8.4
-2 -4 9 28.68 2.57
-2 -4 9 27.36 2.6
-2 -4 10 270.63 7.38
-2 -4 10 279.28 7.79
-2 -4 11 208.63 6.18
-2 -4 11 215.93 6.01
-2 -4 12 174.54 4.55
-2 -4 12 166.98 4.62
-2 -3 -10 33.13 1.74
-2 -3 -9 21.95 1.66
-2 -3 -8 6.38 1.08
-2 -3 -7 133.38 4.64
-2 -3 -6 78.55 3.55
-2 -3 -6 85 3.58
-2 -3 -5 671.4 11.8
-2 -3 -5 692.13 10.85
-2 -3 -5 682.8 9.75
-2 -3 -4 134.41 3.96
-2 -3 -4 145.83 4.48
-2 -3 -4 149.67 4.16
-2 -3 -3 275.02 5.31
-2 -3 -3 265.96 5.05
-2 -3 -3 270.12 5.5
-2 -3 -2 315.62 5.27
-2 -3 -2 304.24 5.23
-2 -3 -1 38.52 1.72
-2 -3 -1 36.73 1.73
-2 -3 -1 36.32 1.65
-2 -3 0 576.08 6.45
-2 -3 0 561.83 6.08
-2 -3 0 560.03 6.15
-2 -3 1 78.33 2.36
-2 -3 1 78.65 2.39
-2 -3 1 78.4 2.21
-2 -3 2 1310.63 10.02
-2 -3 2 1292.93 9.68
-2 -3 3 196.74 4.12
-2 -3 3 186.86 4.1
-2 -3 3 187.17 3.94
-2 -3 3 183.97 3.84
-2 -3 4 455.77 6.68
-2 -3 4 454.28 6.73
-2 -3 5 619.1 8.86
-2 -3 5 645.73 9.04
-2 -3 5 647.2 8.75
-2 -3 6 213.37 5.64
-2 -3 6 227.92 5.78
-2 -3 6 211.36 5.67
-2 -3 7 144.83 5.47
-2 -3 7 135.92 4.79
-2 -3 7 138.61 5.09
-2 -3 7 135.33 5.53
-2 -3 7 141.3 5.02
-2 -3 8 100.11 4.59
-2 -3 8 100.65 4.78
-2 -3 8 99.38 4.95
-2 -3 8 99.15 4.61
-2 -3 9 13.02 1.86
-2 -3 9 17.91 2.09
-2 -3 10 47.52 3.25
-2 -3 10 51.38 3.51
-2 -3 11 237.78 6.64
-2 -3 11 235 6.87
-2 -3 12 206.05 5.61
-2 -3 12 208.09 5.43
-2 -2 -10 121.2 3.58
-2 -2 -9 53.02 2.79
-2 -2 -8 260.54 6.59
-2 -2 -8 256.17 6.63
-2 -2 -8 257.61 6.89
-2 -2 -7 25.89 2.07
-2 -2 -7 31.63 2.42
-2 -2 -7 27.69 2.14
-2 -2 -6 98.59 4.21
-2 -2 -6 109.45 3.99
-2 -2 -6 104.68 3.83
-2 -2 -6 106.77 3.96
-2 -2 -6 105.11 4.77
-2 -2 -5 308.03 6.1
-2 -2 -5 296.79 6.55
-2 -2 -5 289.75 5.78
-2 -2 -5 279.74 5.83
-2 -2 -5 300.18 7.37
-2 -2 -4 561.78 7.64
-2 -2 -4 551.38 7.2
-2 -2 -4 541.8 7.45
-2 -2 -4 549.91 7.98
-2 -2 -3 60.58 2.22
-2 -2 -3 59.17 2.28
-2 -2 -3 64.1 2.22
-2 -2 -2 1305.63 9.86
-2 -2 -2 1286.63 8.98
-2 -2 -2 1291.98 9.84
-2 -2 -1 1591.73 10.33
-2 -2 -1 1590.86 9.85
-2 -2 -1 1605.9 10.06
-2 -2 0 52.55 1.7
-2 -2 0 46.93 1.65
-2 -2 1 1217.68 8.31
-2 -2 1 1232.53 8.05
-2 -2 1 1210.63 7.91
-2 -2 1 1241.64 8.43
-2 -2 2 371.72 4.81
-2 -2 2 373.46 4.48
-2 -2 3 138.02 3.15
-2 -2 3 134.16 3.06
-2 -2 3 134.85 3.22
-2 -2 3 131.3 2.95
-2 -2 4 1930.09 12.95
-2 -2 4 1948.02 12.24
-2 -2 4 1924.78 13.13
-2 -2 5 488.47 7.18
-2 -2 5 490.21 7.18
-2 -2 6 841.88 10.4
-2 -2 6 875.43 10.8
-2 -2 7 78.82 3.52
-2 -2 7 82.82 3.65
-2 -2 8 114.74 5.05
-2 -2 8 108.54 4.55
-2 -2 8 111.86 5.26
-2 -2 8 121.57 4.96
-2 -2 9 407.95 10.15
-2 -2 9 428.08 8.16
-2 -2 9 418.71 9.4
-2 -2 9 411.91 9.76
-2 -2 10 1.09 0.64
-2 -2 10 0.81 0.48
-2 -2 10 1.2 0.72
-2 -2 11 75.72 3.05
-2 -2 11 74.79 3.82
-2 -2 11 69.18 3.85
-2 -2 12 160.8 5.01
-2 -2 12 158.48 5.09
-2 -2 13 79.58 2.8
-2 -1 -11 134.38 3.35
-2 -1 -10 13.27 1.31
-2 -1 -9 208.73 5.81
-2 -1 -8 29.42 2.32
-2 -1 -8 28.29 2.29
-2 -1 -7 43.25 3.12
-2 -1 -7 42.66 2.93
-2 -1 -7 47.77 2.76
-2 -1 -7 43.81 2.58
-2 -1 -7 48.45 2.99
-2 -1 -6 83.02 3.27
-2 -1 -6 72.69 3.6
-2 -1 -6 78.14 3.22
-2 -1 -6 78.28 3.58
-2 -1 -6 92.6 3.5
-2 -1 -6 86.32 4.05
-2 -1 -5 394.84 6.43
-2 -1 -5 402.54 6.59
-2 -1 -5 385.48 7.76
-2 -1 -5 404.82 6.68
-2 -1 -4 2771.47 15.75
-2 -1 -4 2733.71 15.48
-2 -1 -4 2784.73 16.63
-2 -1 -3 698.1 7.39
-2 -1 -3 707.78 7.09
-2 -1 -3 716.93 7.45
-2 -1 -2 2479.52 11.91
-2 -1 -2 2472.89 11.81
-2 -1 -2 2442.49 12.43
-2 -1 -1 2612.39 11.79
-2 -1 -1 2596.4 11.73
-2 -1 -1 2627.23 11.3
-2 -1 0 6923.7 18.11
-2 -1 0 6761.88 17.42
-2 -1 1 9999 21.55
-2 -1 2 1487.5 8.85
-2 -1 2 1577 9.57
-2 -1 3 1962.79 11.25
-2 -1 3 1995.91 11.36
-2 -1 4 539.04 6.55
-2 -1 4 536.33 6.28
-2 -1 5 791.71 8.57
-2 -1 5 817.96 9.17
-2 -1 6 127.45 3.98
-2 -1 6 134.99 4
-2 -1 7 88.14 3.64
-2 -1 7 86.3 3.67
-2 -1 8 350.5 6.87
-2 -1 8 341.44 8.38
-2 -1 8 344.15 8.64
-2 -1 9 226.07 6.87
-2 -1 9 214.74 6.99
-2 -1 9 206.41 7.89
-2 -1 9 235.71 5.71
-2 -1 9 212.14 7.37
-2 -1 10 776.66 12.45
-2 -1 10 782.84 10.42
-2 -1 10 752.92 13.67
-2 -1 10 755.24 13.1
-2 -1 11 124.33 5.16
-2 -1 11 131.89 5.14
-2 -1 11 128.34 4
-2 -1 12 59.48 2.44
-2 -1 12 64.44 3.21
-2 -1 12 60.62 3.16
-2 -1 13 83.68 2.95
-2 0 -11 181.21 4.38
-2 0 -11 179.01 4.02
-2 0 -10 34.72 2.12
-2 0 -9 309.74 6.9
-2 0 -9 303.19 7.27
-2 0 -9 303.61 7.52
-2 0 -8 110.09 4.54
-2 0 -8 101.89 4.23
-2 0 -7 88.66 3.65
-2 0 -7 84.58 4.04
-2 0 -7 88.63 3.49
-2 0 -7 86.26 3.97
-2 0 -7 88.98 4.39
-2 0 -6 704.77 10.89
-2 0 -6 696.47 10.86
-2 0 -6 677.39 10.2
-2 0 -6 705.04 9.27
-2 0 -6 664.69 8.74
-2 0 -6 691.52 8.62
-2 0 -5 43.98 2.47
-2 0 -5 38.79 1.97
-2 0 -5 41.02 2.25
-2 0 -5 37.93 1.96
-2 0 -5 39.26 1.87
-2 0 -4 1151.7 11.31
-2 0 -4 1149.31 9.77
-2 0 -4 1138.59 10.3
-2 0 -4 1137.7 9.72
-2 0 -3 145.6 3.17
-2 0 -3 140.1 3.18
-2 0 -3 149.11 3.16
-2 0 -2 4173.1 15.44
-2 0 -2 4164.08 15.59
-2 0 -2 4186.37 15.26
-2 0 -1 504.61 4.51
-2 0 -1 517.04 4.94
-2 0 -1 512.92 4.97
-2 0 0 130.03 2.36
-2 0 0 128.73 2.07
-2 0 0 128.25 2.44
-2 0 0 136.24 2.52
-2 0 1 2017.55 9.29
-2 0 1 2013.38 9.66
-2 0 1 1990.52 8.69
-2 0 1 1996.3 9.95
-2 0 2 520.87 5.34
-2 0 2 556.18 5.15
-2 0 3 1054.4 8.11
-2 0 3 1067.89 8.14
-2 0 4 1269.95 9.62
-2 0 4 1121.92 9.55
-2 0 5 794.33 8.93
-2 0 6 405.62 6.87
-2 0 6 445.82 7.36
-2 0 7 640.14 11.09
-2 0 8 470.76 9.62
-2 0 8 456.26 10.57
-2 0 8 469.5 10.19
-2 0 8 481.6 7.89
-2 0 9 133.06 5.84
-2 0 9 132.22 5.25
-2 0 9 152.24 4.52
-2 0 9 131.39 5.51
-2 0 9 132.55 6.4
-2 0 10 839.31 12.93
-2 0 10 833.13 13.72
-2 0 10 866.86 10.84
-2 0 10 813.07 14.13
-2 0 11 28 2.42
-2 0 11 24.11 1.74
-2 0 11 24.77 2.23
-2 0 12 195.33 5.46
-2 0 12 193.7 5.45
-2 0 12 195.2 4.41
-2 0 13 16.04 1.29
-2 1 -11 43.54 1.95
-2 1 -11 55.93 2.52
-2 1 -10 2.7 0.62
-2 1 -9 20.61 1.79
-2 1 -9 20.86 1.93
-2 1 -9 21.21 2.01
-2 1 -8 461.72 8.84
-2 1 -8 480.86 8.83
-2 1 -8 456.89 9.23
-2 1 -7 128.37 4.83
-2 1 -7 112.01 4.55
-2 1 -7 122.3 4.22
-2 1 -7 111.31 4.7
-2 1 -6 284.79 6.87
-2 1 -6 295.73 6.59
-2 1 -6 291.77 5.88
-2 1 -5 231.7 5.36
-2 1 -5 250.31 4.62
-2 1 -5 235.27 5.17
-2 1 -5 240.55 4.83
-2 1 -4 3121.42 17.66
-2 1 -4 3011.67 18
-2 1 -4 3038.71 14.76
-2 1 -4 3095.82 16.48
-2 1 -4 3070.6 15.87
-2 1 -3 112.1 2.76
-2 1 -3 99.57 2.64
-2 1 -3 96.3 2.39
-2 1 -3 92.47 2.88
-2 1 -3 106.85 2.9
-2 1 -2 94.5 2.69
-2 1 -2 96.89 2.32
-2 1 -2 99.07 2.23
-2 1 -1 1656.49 9.56
-2 1 -1 1676.81 8.72
-2 1 0 689.99 5.32
-2 1 0 703.12 6.06
-2 1 1 1596.63 8.23
-2 1 1 1572.15 9.12
-2 1 1 1579.15 9.15
-2 1 2 578.49 5.23
-2 1 2 574.42 5.75
-2 1 2 581.97 5.39
-2 1 3 820.69 7.01
-2 1 3 832.36 7.4
-2 1 4 740.89 8.35
-2 1 4 789.16 8.16
-2 1 5 149.16 4.3
-2 1 6 338.2 7.34
-2 1 7 337.88 8.27
-2 1 8 539.03 10.92
-2 1 8 531.01 8.25
-2 1 8 526.28 10.18
-2 1 8 524.34 11.55
-2 1 9 77.22 4.24
-2 1 9 83.72 4.18
-2 1 9 82.33 3.31
-2 1 9 76.52 4.37
-2 1 10 478.75 10.3
-2 1 10 489.28 7.96
-2 1 10 481.98 10.42
-2 1 11 102.91 4.39
-2 1 11 104.14 3.45
-2 1 11 104.69 4.42
-2 1 12 85.38 2.83
-2 1 12 87.35 3.54
-2 2 -11 110.63 3.48
-2 2 -10 93.06 3.69
-2 2 -9 24.98 2.32
-2 2 -9 23.39 1.84
-2 2 -9 21.71 2.06
-2 2 -8 220.67 6.35
-2 2 -8 228.9 7.39
-2 2 -8 222.94 6.27
-2 2 -8 235.95 6.13
-2 2 -7 573.85 11.77
-2 2 -7 553.1 10.22
-2 2 -7 571.36 9.69
-2 2 -7 583.17 9.54
-2 2 -7 555.64 10.03
-2 2 -6 388.42 8.11
-2 2 -6 379.42 8.04
-2 2 -6 361.55 7.11
-2 2 -6 364.76 9.11
-2 2 -6 396.21 8.01
-2 2 -6 387.47 7.08
-2 2 -5 2460.79 16.23
-2 2 -5 2502.87 17.5
-2 2 -5 2453.57 16.16
-2 2 -5 2514.66 18.96
-2 2 -4 170.88 3.97
-2 2 -4 159.81 3.62
-2 2 -4 165.15 4
-2 2 -4 153.31 4.32
-2 2 -3 717.64 7.54
-2 2 -3 692.52 7.06
-2 2 -3 694.44 6.57
-2 2 -3 714.61 8.56
-2 2 -2 1402.2 8.39
-2 2 -2 1422.21 11.46
-2 2 -1 260.7 4.13
-2 2 -1 265.03 3.15
-2 2 -1 271.23 4.78
-2 2 0 1631.26 5.3
-2 2 0 1668.23 10.26
-2 2 1 421.98 5.25
-2 2 1 427 4.67
-2 2 2 217.57 3.88
-2 2 2 228.29 3.88
-2 2 2 219.72 3.71
-2 2 3 746.27 7.54
-2 2 3 792.48 8.04
-2 2 4 3598.64 17.7
-2 2 4 3531.92 19.42
-2 2 5 219.48 5.44
-2 2 6 448.53 8.77
-2 2 7 1523.09 16.64
-2 2 7 1522.3 13.69
-2 2 7 1545.51 18.05
-2 2 8 167.78 4.66
-2 2 8 165.18 5.71
-2 2 8 171.86 6.17
-2 2 8 150.92 6.38
-2 2 9 2589.01 24.21
-2 2 9 2680.55 24.68
-2 2 10 172.73 4.61
-2 2 10 174.11 6.01
-2 2 10 171.2 5.87
-2 2 11 29.63 1.8
-2 2 11 27.79 2.2
-2 2 12 354.98 5.44
-2 3 -11 42.89 2.08
-2 3 -10 20.51 1.72
-2 3 -10 19.36 1.84
-2 3 -9 26.99 2.17
-2 3 -9 27.11 2.4
-2 3 -8 530.3 9.81
-2 3 -8 523.32 11.06
-2 3 -7 1051.03 15.27
-2 3 -7 1028.48 15.6
-2 3 -6 1052.36 12.19
-2 3 -6 1073.55 15.63
-2 3 -6 1032.07 13.97
-2 3 -5 203.45 5.77
-2 3 -5 207.29 4.96
-2 3 -5 222.11 5.16
-2 3 -4 23.64 1.85
-2 3 -4 26.02 1.56
-2 3 -4 25.54 1.64
-2 3 -3 1488.65 11.66
-2 3 -3 1507.22 13.77
-2 3 -2 790.09 8.15
-2 3 -2 796.31 9.5
-2 3 -1 3003.79 15.31
-2 3 -1 3024.62 16.1
-2 3 0 880.96 8.69
-2 3 0 872.58 8.13
-2 3 1 675.58 7.71
-2 3 1 643.94 6.42
-2 3 2 418.03 5.74
-2 3 2 433.05 6.31
-2 3 3 608.59 7.75
-2 3 3 640.24 7.97
-2 3 4 286.58 5.69
-2 3 4 289.8 5.97
-2 3 5 451.14 8.25
-2 3 6 130.55 4.93
-2 3 7 879.9 10.84
-2 3 7 859.19 13.51
-2 3 7 891.35 12.85
-2 3 8 800.87 13.13
-2 3 8 807.77 10.41
-2 3 9 162.5 4.59
-2 3 9 159.84 5.81
-2 3 10 71.8 2.9
-2 3 10 71.16 3.68
-2 3 11 304.54 5.46
-2 3 12 60.69 2.08
-2 4 -10 38.33 2.21
-2 4 -10 39.95 2.49
-2 4 -9 6.1 1.04
-2 4 -9 7.9 1.31
-2 4 -8 512.3 9.95
-2 4 -8 521.71 11.59
-2 4 -8 596.23 11.66
-2 4 -8 580.74 10.27
-2 4 -7 430.41 8.8
-2 4 -7 441.52 10.27
-2 4 -7 426.63 10.15
-2 4 -7 444.96 9.22
-2 4 -6 200.54 6.56
-2 4 -6 206.5 6.34
-2 4 -6 216.18 7.16
-2 4 -6 208.52 5.76
-2 4 -5 503.74 9.83
-2 4 -5 523.2 10.86
-2 4 -5 499.83 9.7
-2 4 -5 509.19 8.38
-2 4 -4 375.78 7.82
-2 4 -4 386.35 6.8
-2 4 -3 483.86 8.48
-2 4 -3 492.84 7.32
-2 4 -2 568.05 8.42
-2 4 -2 589.96 7.7
-2 4 -1 678.65 8.88
-2 4 -1 679.89 8.09
-2 4 0 1502.36 13.36
-2 4 1 309.99 6.13
-2 4 1 303.13 5.01
-2 4 2 418.93 7.26
-2 4 2 397.12 6.17
-2 4 3 69.86 3.05
-2 4 3 67.49 2.81
-2 4 4 303.48 6.64
-2 4 4 292.23 6.41
-2 4 5 436.96 8.52
-2 4 5 419.8 8.53
-2 4 6 267.74 7.39
-2 4 6 281.73 6.19
-2 4 6 270.96 7.26
-2 4 6 264.52 7.39
-2 4 6 269.72 7.02
-2 4 7 218.55 5.4
-2 4 7 211.47 6.4
-2 4 7 223.12 6.75
-2 4 7 199.97 7.03
-2 4 7 211.16 6.21
-2 4 8 273.72 7.52
-2 4 8 268.56 5.94
-2 4 8 263.61 6.82
-2 4 9 51.5 2.49
-2 4 10 101.05 3.38
-2 4 10 110.36 3.4
-2 4 11 31.28 1.59
-2 5 -10 7.58 0.87
-2 5 -10 9.48 1.15
-2 5 -9 66.45 3.01
-2 5 -9 69.02 3.51
-2 5 -8 133.6 4.69
-2 5 -8 143.09 5.41
-2 5 -7 299.76 7.47
-2 5 -7 300.14 8.29
-2 5 -7 300.03 8.7
-2 5 -6 580.02 10.7
-2 5 -6 596.42 12.03
-2 5 -6 604.43 12.21
-2 5 -6 581.9 11.79
-2 5 -5 129.28 5.63
-2 5 -5 120.56 5.4
-2 5 -5 123.64 5.41
-2 5 -5 118.53 5.15
-2 5 -5 119.79 5.06
-2 5 -5 115.85 4.83
-2 5 -4 528.01 10.39
-2 5 -4 532.42 10.22
-2 5 -4 563.04 11.44
-2 5 -4 511.66 9.97
-2 5 -4 543.88 11.3
-2 5 -3 234.95 6.5
-2 5 -3 236.08 7.29
-2 5 -3 232.63 5.5
-2 5 -3 256.69 7.7
-2 5 -3 229.98 6.32
-2 5 -2 84.97 3.82
-2 5 -2 92.24 3.33
-2 5 -1 297.58 6.89
-2 5 0 393.86 7.95
-2 5 1 65.5 3.3
-2 5 2 248.42 5.45
-2 5 2 262.23 6.6
-2 5 3 430.43 8.76
-2 5 3 403.63 7.35
-2 5 4 80.02 4.15
-2 5 4 74.26 3.56
-2 5 4 73.14 3.87
-2 5 4 69.75 3.34
-2 5 4 71.63 3.7
-2 5 5 195.86 5.91
-2 5 5 188.44 5.99
-2 5 5 184.02 5.06
-2 5 5 190.11 6.36
-2 5 5 204.45 6.53
-2 5 6 254.19 5.88
-2 5 6 242.19 6.97
-2 5 6 242.63 6.61
-2 5 7 44.18 2.83
-2 5 7 46.91 3.09
-2 5 7 48.94 2.53
-2 5 8 16.28 1.65
-2 5 8 17.16 1.58
-2 5 8 16.27 1.4
-2 5 9 92.02 3.07
-2 5 9 82.92 3.16
-2 5 9 88.13 3.47
-2 5 10 51.63 2.07
-2 5 10 50.87 2.07
-2 6 -9 95.42 3.66
-2 6 -8 1.5 0.62
-2 6 -7 67.6 3.7
-2 6 -7 60.21 3.52
-2 6 -6 254.86 7.58
-2 6 -6 253.37 7.66
-2 6 -5 46.67 3.35
-2 6 -5 48.17 3.44
-2 6 -5 53.17 3.6
-2 6 -4 468.75 10.56
-2 6 -4 497.61 11.01
-2 6 -4 487.97 10.95
-2 6 -3 356.25 9.3
-2 6 -3 373.55 9.56
-2 6 -3 368.14 9.33
-2 6 -2 41.37 3.1
-2 6 -2 40.49 3.11
-2 6 -2 43.97 3.29
-2 6 -1 347.46 8.36
-2 6 -1 336.09 8.61
-2 6 -1 353.84 9.11
-2 6 0 653.76 11.96
-2 6 0 669.31 12.57
-2 6 0 668.99 11.49
-2 6 1 191.96 5.1
-2 6 1 208.12 6.75
-2 6 1 193.81 6.79
-2 6 1 199.55 6.24
-2 6 2 201.29 6.67
-2 6 2 198.92 6.33
-2 6 2 213.93 6.06
-2 6 2 208.23 5.32
-2 6 2 218.81 7.47
-2 6 3 84.1 4.16
-2 6 3 75.27 3.26
-2 6 3 77.11 4.3
-2 6 3 85.01 4.45
-2 6 3 80.11 3.74
-2 6 4 169.89 5.86
-2 6 4 156.38 4.73
-2 6 4 171.15 6.46
-2 6 4 162.43 6.15
-2 6 4 153.64 5.35
-2 6 4 164.04 5.37
-2 6 5 201.69 6.7
-2 6 5 206.8 6.08
-2 6 5 200.12 5.38
-2 6 6 1022.7 13.32
-2 6 6 1029.65 12.15
-2 6 7 21.79 1.72
-2 6 7 22.84 1.93
-2 6 8 87.1 3.17
-2 6 8 87.83 3.47
-2 6 9 45.73 2.02
-2 7 -8 61.76 2.71
-2 7 -7 7.79 1.18
-2 7 -7 8.95 1.28
-2 7 -6 16.58 1.84
-2 7 -6 14.39 1.71
-2 7 -5 203.81 6.68
-2 7 -5 194.51 6.51
-2 7 -4 242.11 7.46
-2 7 -4 241.33 7.5
-2 7 -3 175.39 6.44
-2 7 -2 553.98 11.5
-2 7 -1 166.77 6.28
-2 7 0 506.02 10.18
-2 7 0 513.67 10.97
-2 7 1 463.86 9.62
-2 7 1 482.97 11.27
-2 7 1 476.44 10.5
-2 7 2 1413.45 18.91
-2 7 2 1404.05 16.91
-2 7 2 1418.43 13.6
-2 7 3 341.99 8.29
-2 7 3 349.92 6.82
-2 7 3 351.52 9.21
-2 7 4 305.71 7.12
-2 7 4 307.55 6.42
-2 7 4 306.25 8.25
-2 7 5 122.44 3.96
-2 7 5 129.79 5.04
-2 7 5 124.47 4.45
-2 7 6 245.85 5.28
-2 7 6 230.69 5.76
-2 7 6 242.88 6.38
-2 7 7 39.58 2.04
-2 7 7 49.22 2.7
-2 8 -7 10.71 1.14
-2 8 -6 90.22 3.67
-2 8 -5 135.75 4.82
-2 8 -4 101.19 4.34
-2 8 -3 106.99 4.64
-2 8 -2 125.51 5.13
-2 8 -1 43.28 3.29
-2 8 -1 39.36 2.91
-2 8 0 34.83 2.96
-2 8 0 38.12 2.82
-2 8 1 108.4 5
-2 8 2 29.39 2.54
-2 8 3 6.19 1.2
-2 8 4 27.55 2.21
-2 8 5 33.87 2.26
-2 8 6 124.01 3.9
-2 9 -6 30.18 1.63
-2 9 -5 118.13 3.64
-2 9 -5 111.98 3.69
-2 9 -4 227.76 5.8
-2 9 -4 237.61 5.66
-2 9 -3 2.88 0.76
-2 9 -3 2.67 0.69
-2 9 -2 8.18 1.27
-2 9 -2 8.36 1.17
-2 9 -1 28.8 2.3
-2 9 -1 26.59 2.05
-2 9 0 104.57 4.28
-2 9 1 23.62 2.01
-2 9 2 74.36 3.37
-2 9 3 14.93 1.46
-2 9 4 35.8 2.03
-2 9 5 260.8 4.77
-2 10 -2 10.01 1
-2 10 -1 15.42 1.26
-2 10 0 50.64 2.23
-2 10 1 31.68 1.72
-2 10 2 91.18 2.66
-1 -10 2 19.47 1.39
-1 -9 1 166.49 4.91
-1 -9 2 136.96 4.47
-1 -9 3 159.66 4.75
-1 -9 4 70.27 3.22
-1 -9 5 101.54 3.73
-1 -9 6 27.91 1.72
-1 -9 6 32.32 2
-1 -9 7 92.81 3.05
-1 -8 -1 363.53 8.65
-1 -8 0 332.56 8.27
-1 -8 1 63.9 3.66
-1 -8 2 327.52 8.43
-1 -8 3 69.37 3.97
-1 -8 3 67.26 3.54
-1 -8 3 66.63 3.89
-1 -8 4 108.52 5.1
-1 -8 4 117.8 4.61
-1 -8 4 100.78 4.73
-1 -8 5 74.86 3.61
-1 -8 5 74.92 3.62
-1 -8 6 201.88 5.76
-1 -8 7 17.56 1.56
-1 -8 7 14.11 1.49
-1 -8 8 161.37 4.55
-1 -8 9 19.8 1.42
-1 -7 -3 16.6 1.85
-1 -7 -2 98.09 4.33
-1 -7 -2 96.71 4.49
-1 -7 -1 92.95 4.19
-1 -7 -1 93.81 4.31
-1 -7 0 146.72 5.19
-1 -7 0 142.11 5.24
-1 -7 1 84 3.98
-1 -7 1 91.1 4.14
-1 -7 1 89.56 4.06
-1 -7 2 271.63 7.19
-1 -7 3 196.64 6.32
-1 -7 3 189.6 6.59
-1 -7 4 584.93 11.39
-1 -7 4 609.91 11.1
-1 -7 4 602.16 11.18
-1 -7 5 40.2 3.12
-1 -7 5 42.32 2.95
-1 -7 5 36.33 2.83
-1 -7 6 43.78 2.96
-1 -7 6 42.42 2.94
-1 -7 6 40.23 3.17
-1 -7 7 28.77 2.62
-1 -7 7 34.19 2.56
-1 -7 7 30.59 2.4
-1 -7 8 19.5 1.8
-1 -7 8 18.54 1.82
-1 -7 9 18.43 1.7
-1 -7 10 21.71 1.6
-1 -6 -5 271.78 7.24
-1 -6 -5 228.72 6.16
-1 -6 -4 125.87 4.43
-1 -6 -4 142.19 5.12
-1 -6 -3 140.61 4.88
-1 -6 -2 40.64 2.53
-1 -6 -2 35.93 2.53
-1 -6 -1 96.11 3.76
-1 -6 -1 90.86 3.83
-1 -6 0 69.28 3.11
-1 -6 0 69.1 3.19
-1 -6 1 186.99 5.08
-1 -6 1 178.35 5.09
-1 -6 2 1151.96 12.96
-1 -6 2 1191.43 13.41
-1 -6 3 321.35 7.68
-1 -6 3 348.29 7.35
-1 -6 3 326.56 7.23
-1 -6 3 320.4 7.98
-1 -6 4 369.2 7.94
-1 -6 4 359.48 8.17
-1 -6 4 367.34 8.56
-1 -6 4 370.96 8.22
-1 -6 4 342.68 8.19
-1 -6 4 342.49 8.3
-1 -6 5 133.94 5.3
-1 -6 5 132.61 5.4
-1 -6 5 138.24 5.37
-1 -6 5 135.94 5.02
-1 -6 6 324.76 8.69
-1 -6 6 335.09 8.43
-1 -6 6 327.99 8.35
-1 -6 7 620.27 11.6
-1 -6 7 615.83 11.48
-1 -6 7 610.47 12.02
-1 -6 8 353.22 9.3
-1 -6 8 369.69 8.71
-1 -6 8 373.38 8.64
-1 -6 9 101.31 4.23
-1 -6 9 93.67 4.21
-1 -6 10 119.39 4.4
-1 -6 11 40.76 2.17
-1 -5 -9 29.47 1.64
-1 -5 -7 82.28 3.71
-1 -5 -6 350.1 8.23
-1 -5 -6 346.12 7.88
-1 -5 -6 332.57 7.56
-1 -5 -5 14.7 1.66
-1 -5 -5 14.06 1.56
-1 -5 -5 13.11 1.47
-1 -5 -4 103.89 4.1
-1 -5 -4 104.32 3.91
-1 -5 -4 110.53 3.97
-1 -5 -3 288.36 6.45
-1 -5 -3 280.71 5.97
-1 -5 -2 1242.29 11.54
-1 -5 -2 1224.28 11.4
-1 -5 -1 218.01 4.83
-1 -5 -1 201.7 4.32
-1 -5 0 156.63 3.99
-1 -5 0 147.75 4.03
-1 -5 1 484.28 7.02
-1 -5 1 458.1 6.94
-1 -5 2 781.69 9.6
-1 -5 2 767.73 9.05
-1 -5 2 784.98 9
-1 -5 2 797.59 9.16
-1 -5 3 606.68 8.37
-1 -5 3 607.01 8.55
-1 -5 3 608.39 8.69
-1 -5 4 201.37 5.37
-1 -5 4 202.45 5.18
-1 -5 4 213.4 5.4
-1 -5 5 62.99 3.35
-1 -5 5 68.93 3.28
-1 -5 5 74.52 3.88
-1 -5 5 65.39 3.28
-1 -5 5 67.19 3.15
-1 -5 6 531.94 10.36
-1 -5 6 509.07 10.42
-1 -5 6 514.76 10.39
-1 -5 6 531.98 10.18
-1 -5 6 535.21 10.05
-1 -5 7 543.72 10.97
-1 -5 7 556.77 11.16
-1 -5 7 556.9 11.17
-1 -5 8 333.12 8.98
-1 -5 8 329.86 8.57
-1 -5 8 335.43 8.8
-1 -5 9 145.62 5.46
-1 -5 9 144.54 6.15
-1 -5 9 155.61 5.85
-1 -5 10 102.16 4.22
-1 -5 10 103.61 4.49
-1 -5 11 39.19 2.24
-1 -5 11 44.67 2.63
-1 -5 12 5.39 0.76
-1 -4 -10 81.16 2.72
-1 -4 -8 796.83 11.36
-1 -4 -7 609.33 10.69
-1 -4 -7 537.96 9.47
-1 -4 -6 84.78 4.43
-1 -4 -6 100.27 4.08
-1 -4 -6 91.05 4.29
-1 -4 -6 102.4 4.05
-1 -4 -5 337.1 7.48
-1 -4 -5 358.64 7.21
-1 -4 -5 356.99 7.08
-1 -4 -5 361.1 7.14
-1 -4 -4 727.13 9.76
-1 -4 -4 717.82 9.5
-1 -4 -4 727.69 9.22
-1 -4 -4 696.25 9.22
-1 -4 -3 751.57 8.91
-1 -4 -3 748 8.77
-1 -4 -3 765.21 8.56
-1 -4 -3 748.5 8.85
-1 -4 -2 100.18 3.01
-1 -4 -2 96.21 2.77
-1 -4 -2 102.85 2.88
-1 -4 -2 95.93 2.96
-1 -4 -1 184.79 4
-1 -4 -1 178.45 3.65
-1 -4 -1 188.84 3.44
-1 -4 -1 182.3 3.74
-1 -4 0 136.21 3.23
-1 -4 0 127.46 2.88
-1 -4 1 193.18 3.83
-1 -4 1 185.25 3.84
-1 -4 2 990.75 8.49
-1 -4 2 972.69 8.93
-1 -4 2 965.3 8.91
-1 -4 3 820.32 8.63
-1 -4 3 793.03 8.88
-1 -4 3 794.86 8.26
-1 -4 4 506.9 6.69
-1 -4 4 532.72 8.03
-1 -4 4 528.51 7.52
-1 -4 4 529.84 7.17
-1 -4 4 513.86 7.4
-1 -4 5 577.46 9.26
-1 -4 5 581.97 8.61
-1 -4 5 592.11 8.67
-1 -4 6 123.29 4.45
-1 -4 6 119.63 4.94
-1 -4 6 128.59 5.11
-1 -4 6 123.8 4.42
-1 -4 6 125.08 4.59
-1 -4 7 110.43 4.66
-1 -4 7 112.58 4.99
-1 -4 7 110.16 4.95
-1 -4 7 112.9 4.66
-1 -4 7 115.52 4.7
-1 -4 8 257.65 7.68
-1 -4 8 257.04 7.67
-1 -4 8 277.47 8.14
-1 -4 9 69.66 4.29
-1 -4 9 72.15 4.07
-1 -4 9 74.94 4.28
-1 -4 10 462.93 10
-1 -4 10 463.3 9.57
-1 -4 11 18.85 1.76
-1 -4 11 18.29 1.88
-1 -4 12 131.17 4.13
-1 -3 -11 105.53 2.85
-1 -3 -8 191.75 6.12
-1 -3 -8 184.71 5.73
-1 -3 -8 189.49 5.81
-1 -3 -7 225.81 6.3
-1 -3 -7 236.88 6.07
-1 -3 -6 636.39 9.76
-1 -3 -6 634.68 9.35
-1 -3 -6 648.81 9.08
-1 -3 -6 634.63 10.5
-1 -3 -6 616.77 9.28
-1 -3 -6 639.52 11.21
-1 -3 -5 8.75 1.07
-1 -3 -5 6.77 0.92
-1 -3 -5 7.68 0.9
-1 -3 -5 5.36 0.88
-1 -3 -5 7.27 0.98
-1 -3 -5 4.39 0.87
-1 -3 -4 591.41 7.63
-1 -3 -4 590.34 7.48
-1 -3 -4 588 8
-1 -3 -4 586.5 7.85
-1 -3 -3 168.3 3.77
-1 -3 -3 166.3 3.57
-1 -3 -3 170.75 3.78
-1 -3 -3 169.28 3.29
-1 -3 -3 168.7 3.87
-1 -3 -2 167.9 3.49
-1 -3 -2 169.53 3.29
-1 -3 -2 163.4 3.28
-1 -3 -2 159.23 2.83
-1 -3 -2 168.99 3.54
-1 -3 -1 1877.87 9.79
-1 -3 -1 2000.51 11.06
-1 -3 -1 1908.4 9.93
-1 -3 -1 1966.45 11.08
-1 -3 0 405.52 3.99
-1 -3 0 411.24 4.61
-1 -3 0 414.45 3.84
-1 -3 1 98.7 2.37
-1 -3 1 95.73 1.82
-1 -3 1 92.02 2.35
-1 -3 1 94.58 2.07
-1 -3 2 956.66 7.77
-1 -3 2 979.92 7.86
-1 -3 3 474.01 5.88
-1 -3 3 463.42 6.03
-1 -3 3 453.39 5.54
-1 -3 4 1367.08 11.01
-1 -3 4 1365.86 10.7
-1 -3 4 1373.91 9.88
-1 -3 4 1360.78 8.87
-1 -3 5 117.85 3.87
-1 -3 5 124.43 3.69
-1 -3 5 127.65 3.62
-1 -3 5 122.08 3.59
-1 -3 6 159.57 4.83
-1 -3 6 156.18 4.54
-1 -3 6 157.27 4.66
-1 -3 7 153.95 5.2
-1 -3 7 159.26 5.21
-1 -3 7 148.2 5.64
-1 -3 7 157.32 5.9
-1 -3 7 153.96 5.12
-1 -3 8 63.14 3.73
-1 -3 8 64.16 3.83
-1 -3 8 73.81 4.01
-1 -3 8 62.67 3.91
-1 -3 9 224.5 7.5
-1 -3 9 203.21 6.89
-1 -3 9 209.49 7.33
-1 -3 10 302.69 8.06
-1 -3 10 293.37 8.94
-1 -3 10 312.48 8.6
-1 -3 11 3.63 0.88
-1 -3 11 4.31 1.01
-1 -3 12 90.3 3.42
-1 -3 12 85.03 3.6
-1 -2 -11 173.23 4.1
-1 -2 -10 26.95 1.97
-1 -2 -9 171.12 5.33
-1 -2 -9 164.88 5.49
-1 -2 -9 167.36 5.44
-1 -2 -8 569.18 10.32
-1 -2 -8 565.46 9.74
-1 -2 -8 534.1 9.63
-1 -2 -8 550.79 9.86
-1 -2 -7 30.19 2.22
-1 -2 -7 27.26 2.43
-1 -2 -7 28.92 2.12
-1 -2 -7 28.3 2.01
-1 -2 -7 25.48 2.21
-1 -2 -7 35.03 2.33
-1 -2 -6 33.89 2.44
-1 -2 -6 31.91 2.19
-1 -2 -6 32.15 2.07
-1 -2 -6 34.21 2.07
-1 -2 -6 33.28 1.97
-1 -2 -6 33.6 2.08
-1 -2 -5 77.9 2.85
-1 -2 -5 79.13 2.77
-1 -2 -5 84.57 3.5
-1 -2 -5 76.29 2.65
-1 -2 -5 80.57 3.06
-1 -2 -4 1063.79 9.52
-1 -2 -4 1073.47 8.94
-1 -2 -4 1071.23 8.73
-1 -2 -4 1089.86 9.84
-1 -2 -3 538.27 6.08
-1 -2 -3 541.12 5.49
-1 -2 -3 528.44 6
-1 -2 -3 538.23 5.81
-1 -2 -2 2.75 0.42
-1 -2 -2 2.55 0.38
-1 -2 -2 2.45 0.35
-1 -2 -2 1.92 0.35
-1 -2 -1 4098.2 12.86
-1 -2 -1 4081.08 14.4
-1 -2 0 1309.64 7.05
-1 -2 0 1312.91 6.39
-1 -2 1 1829.37 8.74
-1 -2 1 1815.42 8
-1 -2 2 121.7 2.37
-1 -2 2 125.55 2.34
-1 -2 3 737.34 6.46
-1 -2 3 724.03 6.63
-1 -2 4 763.13 7.7
-1 -2 4 750.56 8.16
-1 -2 4 749.29 6.01
-1 -2 4 711.98 6.98
-1 -2 4 701.07 6.89
-1 -2 5 1309.21 10.83
-1 -2 5 1337.07 11.75
-1 -2 6 845.36 10.56
-1 -2 6 818.9 9.84
-1 -2 6 830.02 10.24
-1 -2 7 296.39 6.97
-1 -2 7 278.89 6.56
-1 -2 7 290.77 6.77
-1 -2 8 52.9 3.27
-1 -2 8 53.15 3.48
-1 -2 8 49.79 3.2
-1 -2 8 54.27 2.83
-1 -2 8 52.69 3.63
-1 -2 9 99.49 5.08
-1 -2 9 90.96 4.6
-1 -2 9 91.3 3.71
-1 -2 9 98.78 4.96
-1 -2 10 163.57 6.7
-1 -2 10 171.18 5.05
-1 -2 10 172.34 6.24
-1 -2 10 168.62 6.49
-1 -2 11 236.98 6.76
-1 -2 11 242.62 7.19
-1 -2 12 29.66 2.08
-1 -2 12 28.6 2.19
-1 -1 -11 97.03 3.26
-1 -1 -11 88.83 3.3
-1 -1 -10 49.71 2.8
-1 -1 -9 603.13 10.27
-1 -1 -9 598.66 10.19
-1 -1 -9 572.92 9.98
-1 -1 -8 332.94 7.55
-1 -1 -8 338.4 7.33
-1 -1 -8 322.84 7.27
-1 -1 -8 323.38 7.52
-1 -1 -7 878.71 11.2
-1 -1 -7 909.45 13.29
-1 -1 -7 860.23 12.03
-1 -1 -7 852.52 10.72
-1 -1 -7 898.79 10.78
-1 -1 -7 818.82 10.89
-1 -1 -6 390.84 7.76
-1 -1 -6 371.09 6.5
-1 -1 -6 372.42 6.34
-1 -1 -6 392.21 6.34
-1 -1 -6 368.69 6.94
-1 -1 -5 637.37 7.61
-1 -1 -5 636.06 7.24
-1 -1 -5 621.74 7.89
-1 -1 -4 1185.04 8.98
-1 -1 -4 1272.12 9.09
-1 -1 -4 1268.69 9.6
-1 -1 -4 1190.32 9.37
-1 -1 -4 1230.24 10.71
-1 -1 -3 525.41 5.24
-1 -1 -3 547.31 5.62
-1 -1 -3 538.04 5.2
-1 -1 -3 542.71 5.64
-1 -1 -2 2412.36 10.42
-1 -1 -2 2427.86 9.61
-1 -1 1 4751.69 11.26
-1 -1 2 4173.15 12.64
-1 -1 3 1631.08 9.35
-1 -1 3 1625.98 5.98
-1 -1 4 3419.01 14.82
-1 -1 4 3472.89 16.2
-1 -1 5 825.58 8.98
-1 -1 5 827.57 8.89
-1 -1 6 552.99 8.34
-1 -1 6 554.65 7.74
-1 -1 7 417.75 8.16
-1 -1 7 433.69 7.85
-1 -1 8 37.53 2.8
-1 -1 8 43.54 2.43
-1 -1 8 39.93 2.99
-1 -1 8 42.98 3.28
-1 -1 8 39.79 2.82
-1 -1 9 238.61 7.04
-1 -1 9 229.67 7.34
-1 -1 9 230.14 5.73
-1 -1 9 232.64 7.79
-1 -1 9 227.56 8.56
-1 -1 9 243.35 7.63
-1 -1 10 31.85 2.74
-1 -1 10 33.36 2.94
-1 -1 10 33.03 2.2
-1 -1 10 32.7 3
-1 -1 11 75.19 4.02
-1 -1 11 76.67 3.87
-1 -1 11 78.33 3.16
-1 -1 12 37.48 2.51
-1 -1 12 38.62 2.4
-1 -1 13 15.52 1.18
-1 -1 13 13.34 1.13
-1 0 -12 21.19 1.4
-1 0 -11 10.39 1.12
-1 0 -11 9.36 1.15
-1 0 -10 313.05 7.07
-1 0 -9 12.82 1.56
-1 0 -9 11.82 1.44
-1 0 -8 322.44 8.08
-1 0 -8 325.91 8.12
-1 0 -8 321.06 6.96
-1 0 -8 328.39 7.59
-1 0 -8 312.77 6.8
-1 0 -7 209.44 5.07
-1 0 -7 220.29 6.18
-1 0 -7 204.79 5.77
-1 0 -7 210.36 5.06
-1 0 -7 210.24 5.81
-1 0 -7 196.46 4.98
-1 0 -6 205.67 4.48
-1 0 -6 209.65 5.32
-1 0 -6 195.3 4.32
-1 0 -6 205.15 4.44
-1 0 -6 207.28 5.07
-1 0 -5 764.25 8.97
-1 0 -5 715.58 7.5
-1 0 -5 748.87 8.25
-1 0 -5 695.23 7.18
-1 0 -5 779.84 7.85
-1 0 -5 691.89 7.81
-1 0 -4 1479.2 11.03
-1 0 -4 1514.14 9.59
-1 0 -4 1477.6 10.02
-1 0 -4 1496.68 9.35
-1 0 -4 1509.51 9.71
-1 0 -3 3179.8 12.9
-1 0 -3 3110.57 12.18
-1 0 -3 3075.95 11.71
-1 0 -3 3005.05 12.11
-1 0 -3 3204.84 14.24
-1 0 -2 4327.5 12.4
-1 0 -2 4225.8 12.87
-1 0 -1 2790.16 8.54
-1 0 -1 2674.01 8.71
-1 0 1 886.19 3.7
-1 0 2 124.58 2.19
-1 0 3 1876.21 9.37
-1 0 3 1856.84 10.11
-1 0 4 108.14 2.59
-1 0 4 108.4 2.87
-1 0 4 101.72 2.75
-1 0 5 208.17 4.46
-1 0 5 214.76 4.6
-1 0 6 4.62 0.8
-1 0 7 92.32 3.84
-1 0 7 105.27 4.47
-1 0 8 55.51 3.3
-1 0 8 58.59 3.43
-1 0 8 60.69 3.65
-1 0 8 64.97 2.87
-1 0 8 58.21 3.82
-1 0 8 55.47 3.75
-1 0 9 80 4.33
-1 0 9 82.74 3.39
-1 0 9 76.5 4.45
-1 0 9 83.55 5.2
-1 0 9 82.64 4.46
-1 0 10 116.07 5.54
-1 0 10 125.57 5.33
-1 0 10 119.1 5.45
-1 0 10 122.38 4.15
-1 0 11 400.96 8.71
-1 0 11 381.2 8.88
-1 0 11 385.67 6.87
-1 0 12 101.73 3.98
-1 0 12 104.54 3.9
-1 1 -12 70.4 2.58
-1 1 -11 552 8.48
-1 1 -11 538.71 7.67
-1 1 -10 12.84 1.47
-1 1 -9 376.45 7.94
-1 1 -9 365.46 7.95
-1 1 -8 46.35 3.2
-1 1 -8 46.15 2.83
-1 1 -8 43.53 2.52
-1 1 -8 38.25 2.77
-1 1 -8 41.58 2.89
-1 1 -7 6.33 1.07
-1 1 -7 7.2 0.97
-1 1 -7 8.04 1.17
-1 1 -7 7.61 1.1
-1 1 -7 6.19 1.16
-1 1 -6 281.94 6.03
-1 1 -6 287.3 5.29
-1 1 -6 280.49 5.72
-1 1 -6 280.11 5.2
-1 1 -6 281.54 5.83
-1 1 -5 365.67 4.91
-1 1 -5 359.59 6.01
-1 1 -5 371.45 5.49
-1 1 -5 369.04 5.37
-1 1 -5 365.96 5.67
-1 1 -5 370.77 5.62
-1 1 -4 319.86 4.92
-1 1 -4 328.66 4.62
-1 1 -4 319.6 4.54
-1 1 -4 338.16 4.75
-1 1 -4 342.14 5.09
-1 1 -3 1990.94 10.89
-1 1 -3 2005.17 9.84
-1 1 -3 2001.06 10.3
-1 1 -3 2001.84 11.1
-1 1 -2 3025.41 11.37
-1 1 -2 2912.92 11.3
-1 1 -2 2913.85 10.03
-1 1 0 3964.66 8.72
-1 1 1 83.7 1.68
-1 1 1 99.37 1.82
-1 1 2 968.31 6.38
-1 1 2 985.29 6.95
-1 1 3 544.45 5.45
-1 1 3 526.92 5.89
-1 1 4 577.26 6.87
-1 1 4 589.61 7.13
-1 1 5 653.68 8.73
-1 1 5 622.04 8.08
-1 1 6 768.66 10.16
-1 1 6 842.77 11.39
-1 1 7 67.73 3.34
-1 1 7 70.07 3.8
-1 1 8 1046.61 14.28
-1 1 8 962.32 14.48
-1 1 8 992.83 15.7
-1 1 8 980.76 16
-1 1 8 1016.79 11.24
-1 1 8 962.14 13.75
-1 1 9 225.65 5.45
-1 1 9 214.79 6.98
-1 1 9 213.43 7.27
-1 1 10 283.37 7.83
-1 1 10 275.22 7.94
-1 1 10 280.62 6.06
-1 1 11 18.17 1.84
-1 1 11 18.66 1.91
-1 1 11 18.08 1.47
-1 1 12 19.12 1.62
-1 1 12 16.44 1.24
-1 1 12 19.2 1.64
-1 2 -12 7.3 0.85
-1 2 -11 178.67 5.31
-1 2 -10 197.16 5.56
-1 2 -10 199.71 6.31
-1 2 -9 74.89 3.63
-1 2 -9 78.21 4.17
-1 2 -9 79.27 3.69
-1 2 -8 8.15 1.29
-1 2 -8 9.68 1.33
-1 2 -8 5.79 1.1
-1 2 -8 10.54 1.28
-1 2 -8 10.18 1.53
-1 2 -7 160.98 5.12
-1 2 -7 168.39 5.28
-1 2 -7 165.05 4.55
-1 2 -7 162.66 5.74
-1 2 -7 157.85 4.83
-1 2 -7 158.85 4.95
-1 2 -6 624.45 8.72
-1 2 -6 659.21 8.53
-1 2 -6 646.33 8.06
-1 2 -6 654.59 9.03
-1 2 -6 651.6 9.35
-1 2 -5 82.37 2.62
-1 2 -5 81.35 2.58
-1 2 -5 81.11 2.88
-1 2 -5 81.42 2.97
-1 2 -5 85.66 2.87
-1 2 -4 179.05 3.68
-1 2 -4 189.29 3.59
-1 2 -4 181.11 3.32
-1 2 -4 189.14 3.99
-1 2 -4 195.49 4.22
-1 2 -3 1643.46 9.63
-1 2 -3 1711.22 9.94
-1 2 -3 1681.48 8.62
-1 2 -3 1729.22 10.98
-1 2 -3 1751.43 11.62
-1 2 -2 803.3 7.41
-1 2 -2 745.02 4.58
-1 2 -2 753.33 5.54
-1 2 -2 787.07 6.21
-1 2 -2 747.95 6.73
-1 2 -1 2393.88 6.51
-1 2 -1 2371.78 7.52
-1 2 -1 2360.67 11.32
-1 2 0 1244.75 7.45
-1 2 0 1271.95 6.87
-1 2 1 391.14 4.52
-1 2 1 426.69 4.53
-1 2 2 3667.9 14.69
-1 2 2 3625.14 14.78
-1 2 3 1944.76 11.51
-1 2 3 2005.67 12.38
-1 2 4 72.66 2.68
-1 2 5 120.33 3.97
-1 2 6 413.8 8.4
-1 2 7 378.09 8.8
-1 2 7 404.31 7.05
-1 2 7 388.2 9.23
-1 2 8 830.7 13.44
-1 2 8 856.87 10.54
-1 2 8 828.8 14.11
-1 2 8 867.41 15.21
-1 2 9 438.02 7.69
-1 2 9 413.47 9.54
-1 2 9 411.43 9.8
-1 2 10 338.45 6.58
-1 2 10 349.1 8.55
-1 2 10 358.13 8.35
-1 2 11 235.3 6.16
-1 2 11 232.57 6.21
-1 2 11 224.43 4.93
-1 2 12 157.33 3.55
-1 2 12 160.17 4.2
-1 3 -11 21.51 1.65
-1 3 -11 22.72 1.88
-1 3 -10 78.12 3.92
-1 3 -9 87.53 3.95
-1 3 -9 93.33 4.55
-1 3 -9 84.66 4.57
-1 3 -9 94.87 4.07
-1 3 -8 72.71 3.6
-1 3 -8 74.82 3.47
-1 3 -8 71.2 3.93
-1 3 -8 75.72 4.11
-1 3 -7 212.88 6.09
-1 3 -7 220.05 6.06
-1 3 -7 222.68 6.89
-1 3 -7 214.64 5.43
-1 3 -7 223.37 6.39
-1 3 -7 208.27 6.18
-1 3 -6 690.36 10.23
-1 3 -6 670.61 9.34
-1 3 -6 681.66 8.69
-1 3 -6 674.08 10.01
-1 3 -5 45.41 2.06
-1 3 -5 46.77 2.38
-1 3 -5 46.98 2.5
-1 3 -5 49.84 2.27
-1 3 -4 919.21 10.13
-1 3 -4 903.38 8.38
-1 3 -3 1239.08 10.61
-1 3 -3 1221.62 8.68
-1 3 -3 1207.85 10.81
-1 3 -2 944.82 6.56
-1 3 -2 938.67 9.14
-1 3 -1 1450.61 9.22
-1 3 -1 1464.28 11.16
-1 3 -1 1441.52 6.57
-1 3 0 2680.37 13.74
-1 3 0 2785.24 12.02
-1 3 1 280.28 4.61
-1 3 1 287.65 4.21
-1 3 2 442.05 5.97
-1 3 2 433.17 5.58
-1 3 3 1900.76 13.03
-1 3 3 1864.68 13.03
-1 3 4 4804.88 23.67
-1 3 4 4735.38 22.28
-1 3 5 468.32 8.32
-1 3 6 207.14 6.28
-1 3 7 509.24 9.86
-1 3 7 472.23 9.9
-1 3 7 506.04 11
-1 3 7 465.94 10.19
-1 3 7 492.44 8.01
-1 3 7 467.82 9.44
-1 3 8 1952.48 20.41
-1 3 8 1892.6 20.45
-1 3 8 1990.08 16.12
-1 3 8 1870.19 18.78
-1 3 9 210.46 6.64
-1 3 9 226.24 6.85
-1 3 9 214.76 5.28
-1 3 10 531.17 7.89
-1 3 10 514.01 9.54
-1 3 11 202.29 5.26
-1 3 11 197.25 4.35
-1 4 -11 43.15 2.12
-1 4 -11 41.86 2.41
-1 4 -10 49.68 2.66
-1 4 -10 52.78 3.1
-1 4 -9 57.62 3.12
-1 4 -9 58.07 3.52
-1 4 -9 55.8 3.75
-1 4 -8 780.66 13.3
-1 4 -8 763.52 13.34
-1 4 -7 761.89 12.94
-1 4 -7 732.53 13.31
-1 4 -7 746 10.6
-1 4 -7 731.97 12.3
-1 4 -7 751.1 12.56
-1 4 -6 1679.93 19.64
-1 4 -6 1716.17 15.89
-1 4 -6 1797.98 15.04
-1 4 -6 1761.25 17.71
-1 4 -6 1742.96 17.63
-1 4 -6 1708.91 18.87
-1 4 -5 230.51 4.99
-1 4 -5 225.62 5.86
-1 4 -5 225.01 5.11
-1 4 -5 219.55 5.74
-1 4 -4 198.4 4.34
-1 4 -4 192.27 4.15
-1 4 -4 189.24 5.09
-1 4 -3 683.64 7.64
-1 4 -3 660.56 8.67
-1 4 -3 671.16 9.13
-1 4 -2 730.38 8.72
-1 4 -2 703.63 7.41
-1 4 -2 720.01 9.19
-1 4 -1 614.85 7.9
-1 4 -1 611.78 8.28
-1 4 0 1110.81 10.58
-1 4 1 12.39 1.18
-1 4 1 11.66 0.95
-1 4 2 2312.74 14.23
-1 4 2 2511.78 16.8
-1 4 3 143.62 4.19
-1 4 3 144.68 3.96
-1 4 4 115.23 3.96
-1 4 4 117.92 4.05
-1 4 5 15.89 1.63
-1 4 6 414.05 9.13
-1 4 6 381.47 8.77
-1 4 6 407.8 8.69
-1 4 6 385.88 8.9
-1 4 6 371.42 7.02
-1 4 6 398.75 8.88
-1 4 7 13.56 1.72
-1 4 7 15.12 1.42
-1 4 7 16.1 2.03
-1 4 7 14.87 1.72
-1 4 8 258.44 7.21
-1 4 8 259.96 5.79
-1 4 8 244.45 6.7
-1 4 9 24.35 2.13
-1 4 9 22.06 1.62
-1 4 9 24.64 1.98
-1 4 10 29.02 1.74
-1 4 11 23.05 1.31
-1 5 -11 190.76 4.58
-1 5 -10 126.57 4.47
-1 5 -9 48.59 2.68
-1 5 -9 48.64 3
-1 5 -8 30.97 2.32
-1 5 -8 32.83 2.71
-1 5 -8 35.69 2.78
-1 5 -8 32.55 2.82
-1 5 -7 939.35 14.63
-1 5 -7 945.87 14.94
-1 5 -7 939.41 14.57
-1 5 -6 263.29 7.79
-1 5 -6 257.58 7.75
-1 5 -6 255.51 7.26
-1 5 -5 7.79 1.38
-1 5 -5 5.86 1.2
-1 5 -4 1183.21 15.83
-1 5 -4 1182 14.1
-1 5 -4 1267.06 14.89
-1 5 -4 1253.89 16.81
-1 5 -3 105.4 4.12
-1 5 -3 103.6 4
-1 5 -2 56.88 2.93
-1 5 -2 63.4 3.09
-1 5 -1 546.17 8.95
-1 5 0 80.25 3.44
-1 5 1 847.47 11.3
-1 5 2 518.6 8.92
-1 5 2 498.8 7.42
-1 5 3 60.52 3.21
-1 5 3 57.52 2.74
-1 5 4 274.4 6.81
-1 5 4 250.88 5.84
-1 5 4 276.29 7.59
-1 5 4 261.32 6.42
-1 5 4 282.51 8.06
-1 5 4 290.38 7.29
-1 5 5 398.83 8.82
-1 5 5 418.04 9.45
-1 5 5 407.68 8.57
-1 5 6 63.86 3.13
-1 5 6 73.87 3.7
-1 5 6 70.57 3.78
-1 5 7 83.03 3.52
-1 5 7 85.18 3.96
-1 5 8 7.37 1.02
-1 5 8 7.87 1.17
-1 5 9 3.06 0.69
-1 5 9 2.73 0.57
-1 6 -10 246.6 5.47
-1 6 -9 10.98 1.39
-1 6 -8 147.49 5.35
-1 6 -8 148.47 5.38
-1 6 -8 159.66 5.62
-1 6 -7 99.22 4.73
-1 6 -7 91.43 4.66
-1 6 -7 103.87 4.79
-1 6 -6 190.5 6.7
-1 6 -6 183.36 6.54
-1 6 -5 40.47 3.14
-1 6 -5 45.96 3.31
-1 6 -5 42.73 3.1
-1 6 -4 425.34 10.07
-1 6 -4 413.58 9.32
-1 6 -4 398.97 9.55
-1 6 -3 41.28 3.09
-1 6 -3 36.65 2.79
-1 6 -3 42.45 3.08
-1 6 -3 39.69 3.11
-1 6 -3 40.99 2.85
-1 6 -2 142.85 5.44
-1 6 -2 139.41 5.83
-1 6 -2 138.96 5.35
-1 6 -2 141.73 5.74
-1 6 -1 292.07 8.21
-1 6 -1 306.4 7.93
-1 6 -1 311.83 7.89
-1 6 0 812.99 12.87
-1 6 0 826.58 10.51
-1 6 0 800.05 12.5
-1 6 1 36.22 2.73
-1 6 1 38.16 2.73
-1 6 1 36.79 2.48
-1 6 2 506.99 10.3
-1 6 2 500.18 8.18
-1 6 2 516.06 10.25
-1 6 2 514.02 9.36
-1 6 3 327.54 8.48
-1 6 3 338.62 9.12
-1 6 3 331.57 8.29
-1 6 3 337.21 7.65
-1 6 4 44.14 3.23
-1 6 4 41.62 2.44
-1 6 4 41.36 2.74
-1 6 4 41.9 2.75
-1 6 4 47.17 3.15
-1 6 4 44.56 3.26
-1 6 5 132.91 4.83
-1 6 5 129.25 4.34
-1 6 5 129.9 5.11
-1 6 5 137.92 5.47
-1 6 6 176.66 5.58
-1 6 6 179.24 5.02
-1 6 6 177.53 5.75
-1 6 7 187.22 4.83
-1 6 7 183.36 5.36
-1 6 8 22.69 1.55
-1 6 8 18.72 1.61
-1 6 9 110.75 3.37
-1 7 -9 49.43 2.47
-1 7 -8 76.48 3.51
-1 7 -8 79.21 3.56
-1 7 -7 53.87 3.21
-1 7 -7 56.11 3.3
-1 7 -7 51.85 3.13
-1 7 -6 177.95 6.1
-1 7 -6 184.21 6.24
-1 7 -5 7.51 1.34
-1 7 -5 4.54 1.07
-1 7 -4 505.39 10.81
-1 7 -4 529.84 11.17
-1 7 -3 112.39 5.15
-1 7 -3 112.84 4.81
-1 7 -3 123.44 5.4
-1 7 -2 259.49 7.28
-1 7 -1 382.96 10.18
-1 7 -1 396.48 9.06
-1 7 0 330.16 9.32
-1 7 0 338.36 8.98
-1 7 0 339.88 8.36
-1 7 1 973.52 14.17
-1 7 1 1038.01 16.58
-1 7 2 120.74 5.57
-1 7 2 115.66 4.89
-1 7 2 125.87 4.1
-1 7 2 119.3 4.54
-1 7 3 196.03 6.36
-1 7 3 207.21 7.04
-1 7 3 217.03 5.35
-1 7 3 203.23 5.95
-1 7 4 409.74 8.97
-1 7 4 436.89 7.5
-1 7 4 412.82 9.5
-1 7 4 410.8 8.31
-1 7 5 354.34 7.82
-1 7 5 342.06 8.04
-1 7 5 328.78 7.2
-1 7 6 68.84 2.81
-1 7 6 65.33 3.22
-1 7 7 232.64 5.38
-1 7 8 87.24 2.91
-1 8 -8 6.58 0.85
-1 8 -7 138.52 4.45
-1 8 -6 128.3 4.64
-1 8 -5 94.88 4.19
-1 8 -4 41.11 2.91
-1 8 -3 297.85 8.01
-1 8 -2 73.77 4.04
-1 8 -2 73.7 3.7
-1 8 -1 85.84 4.31
-1 8 -1 85.28 4.04
-1 8 0 512.03 11.3
-1 8 0 488.94 9.65
-1 8 1 580.06 10.29
-1 8 1 605.11 11.97
-1 8 2 198.56 6.04
-1 8 2 215.41 7.01
-1 8 3 31.1 2.31
-1 8 3 29.03 2.44
-1 8 4 78.3 3.7
-1 8 4 70.58 3.35
-1 8 5 15.37 1.51
-1 9 -6 60.08 2.55
-1 9 -5 202.62 5.2
-1 9 -4 19.83 1.76
-1 9 -3 18.56 1.76
-1 9 -2 121.92 4.79
-1 9 -2 126.02 4.55
-1 9 -1 181.42 5.89
-1 9 -1 178.46 5.34
-1 9 0 8.64 1.33
-1 9 1 101 4.18
-1 9 2 155.87 4.94
-1 9 3 86.7 3.37
-1 9 4 27.33 1.7
-1 10 -3 18.91 1.4
-1 10 -2 57.32 2.54
-1 10 -1 15.86 1.36
-1 10 0 15.57 1.3
-1 10 1 44.48 2.05
0 -10 2 208.2 4.64
0 -10 3 265.67 5.15
0 -9 4 275.87 6.56
0 -9 5 13.02 1.41
0 -9 6 76.4 3.01
0 -9 6 79.05 3.22
0 -9 7 18.44 1.4
0 -8 -2 642.16 11.62
0 -8 -1 1172.96 15.82
0 -8 0 289.32 7.9
0 -8 1 26.57 2.44
0 -8 2 257.98 7.68
0 -8 2 265.27 7.7
0 -8 3 68.22 4.04
0 -8 3 79.72 4.26
0 -8 4 173.19 6.48
0 -8 4 168.3 6.23
0 -8 5 48.16 3.03
0 -8 6 100.95 4.22
0 -8 7 105.26 4.09
0 -8 7 98.21 3.79
0 -8 8 33.41 1.96
0 -8 8 34.04 2.15
0 -7 -4 452.1 9.5
0 -7 -3 114.43 4.68
0 -7 -3 119.75 5.11
0 -7 -2 78.28 4.03
0 -7 -2 73.6 3.63
0 -7 -1 280.55 7.4
0 -7 0 90.95 4.14
0 -7 0 92.43 4.16
0 -7 1 238.64 6.66
0 -7 1 223.87 7.16
0 -7 2 583.05 10.52
0 -7 2 583.55 11.23
0 -7 3 605.3 11.15
0 -7 3 607.09 11.63
0 -7 3 630.29 11.34
0 -7 4 1509.05 18.38
0 -7 4 1474.78 18.48
0 -7 5 76.58 4.26
0 -7 5 77.7 4.11
0 -7 5 79.94 4.32
0 -7 6 131.89 5.58
0 -7 6 141.11 5.45
0 -7 6 127.27 5.7
0 -7 7 59.4 3.75
0 -7 7 59.62 3.34
0 -7 7 59.51 3.4
0 -7 8 110.58 4.24
0 -7 8 116.43 4.53
0 -7 9 37.51 2.38
0 -7 9 31.82 2
0 -7 10 7.33 0.92
0 -6 -6 8.88 1.28
0 -6 -5 294.85 7.68
0 -6 -5 285.74 7.39
0 -6 -5 268.64 6.71
0 -6 -4 117.78 4.66
0 -6 -4 111.18 4.39
0 -6 -3 237.61 6.22
0 -6 -3 219.71 5.65
0 -6 -2 235.09 5.8
0 -6 -2 221.97 6.15
0 -6 -1 39.29 2.26
0 -6 -1 36.78 2.37
0 -6 0 235.63 5.34
0 -6 0 233.79 5.74
0 -6 1 450.19 8.01
0 -6 1 443.8 7.89
0 -6 1 455.21 7.46
0 -6 2 152.85 4.71
0 -6 2 151.5 5.11
0 -6 3 2.12 0.65
0 -6 3 4.59 0.84
0 -6 3 5.99 1.05
0 -6 3 2.48 0.7
0 -6 4 1055.78 13.93
0 -6 4 1075.73 13.39
0 -6 4 1078.37 14.1
0 -6 4 1083.01 13.81
0 -6 5 12.81 1.71
0 -6 5 10.72 1.45
0 -6 5 12.41 1.63
0 -6 5 13.31 1.67
0 -6 6 537.09 11.03
0 -6 6 556.19 11.05
0 -6 6 538.55 11.21
0 -6 7 64.55 3.73
0 -6 7 64.11 3.91
0 -6 7 68.6 3.92
0 -6 8 36.59 3.05
0 -6 8 34.79 2.62
0 -6 8 35.68 2.78
0 -6 9 134.91 4.73
0 -6 9 137.71 5.07
0 -6 10 71.44 3.31
0 -6 11 91.11 3.05
0 -5 -8 3.08 0.8
0 -5 -7 376.08 8.23
0 -5 -6 287 7.27
0 -5 -6 283.97 7.01
0 -5 -6 270.26 6.81
0 -5 -5 196.48 5.68
0 -5 -5 199.06 5.5
0 -5 -5 189.65 5.43
0 -5 -4 61.47 2.95
0 -5 -4 64.13 2.86
0 -5 -4 66.5 3.01
0 -5 -3 386.23 6.8
0 -5 -3 378.2 6.37
0 -5 -3 374.91 6.6
0 -5 -2 240.58 5.27
0 -5 -2 241.47 4.91
0 -5 -2 234.71 4.49
0 -5 -2 238.96 4.9
0 -5 -1 372.4 6.01
0 -5 -1 388.84 5.77
0 -5 0 154.33 3.68
0 -5 0 154.61 3.98
0 -5 1 95.59 3.14
0 -5 1 92.13 2.62
0 -5 2 499.3 6.95
0 -5 2 474.29 7.05
0 -5 2 479.77 6.42
0 -5 2 475.17 7.31
0 -5 3 66.51 2.91
0 -5 3 60.25 2.45
0 -5 3 61.56 2.83
0 -5 3 60.83 2.77
0 -5 4 578.67 9.31
0 -5 4 578.35 8.21
0 -5 4 600.92 9.16
0 -5 4 612.02 9.14
0 -5 4 585.78 9.1
0 -5 5 88.02 3.97
0 -5 5 92.92 3.65
0 -5 5 93.9 3.87
0 -5 5 89.07 3.79
0 -5 6 132.96 5.19
0 -5 6 137.41 5.45
0 -5 6 136.27 5.25
0 -5 6 122.28 4.63
0 -5 7 1314.81 17.4
0 -5 7 1310.45 16.85
0 -5 7 1319.87 17.16
0 -5 8 235.16 7.64
0 -5 8 252.49 7.7
0 -5 8 241.36 7.25
0 -5 9 10.71 1.46
0 -5 9 10.58 1.59
0 -5 10 108.45 4.45
0 -5 11 39.51 2.37
0 -4 -8 123.53 4.6
0 -4 -8 125.56 4.74
0 -4 -7 121.61 4.65
0 -4 -7 130.77 4.72
0 -4 -7 129.62 4.38
0 -4 -7 130.04 4.72
0 -4 -6 836.42 11.42
0 -4 -6 795.04 11.91
0 -4 -6 814.37 10.98
0 -4 -6 846.72 10.21
0 -4 -5 522.06 8.05
0 -4 -5 526.83 8.4
0 -4 -5 512.47 7.24
0 -4 -5 523.04 8.61
0 -4 -4 1037.81 10.78
0 -4 -4 1054 9.56
0 -4 -4 1064.3 10.8
0 -4 -3 668.39 7.4
0 -4 -3 686.41 7.98
0 -4 -3 682.35 7.55
0 -4 -2 690.85 6.79
0 -4 -2 701.11 7.43
0 -4 -2 702.08 6.56
0 -4 -1 2501.34 13.91
0 -4 -1 2535.22 12.95
0 -4 0 1311.86 9.15
0 -4 0 1363.59 8.55
0 -4 0 1360.99 7.84
0 -4 0 1314.26 10.07
0 -4 1 386.52 4.93
0 -4 1 379.48 5.3
0 -4 2 152.94 3.31
0 -4 2 160.99 3.76
0 -4 2 161.13 3.58
0 -4 2 147.68 3
0 -4 3 3060.21 17.77
0 -4 3 3016.22 14.91
0 -4 3 3036.04 16.93
0 -4 4 793.43 8.96
0 -4 4 748.07 9.71
0 -4 4 760.99 8.23
0 -4 4 782.24 8.98
0 -4 4 797.09 8.79
0 -4 4 803.17 9.59
0 -4 5 555.89 9.13
0 -4 5 574.69 8.11
0 -4 5 561.32 8.83
0 -4 5 544.05 8.07
0 -4 6 6.68 1.22
0 -4 6 11.24 1.42
0 -4 6 7.18 1.04
0 -4 6 12.92 1.54
0 -4 7 180.25 6.03
0 -4 7 179.19 6.35
0 -4 7 166.13 6.23
0 -4 7 178.69 6.36
0 -4 7 191.17 5.95
0 -4 8 26.49 2.48
0 -4 8 25.84 2.48
0 -4 8 25.94 2.54
0 -4 9 155.97 6.45
0 -4 9 158.21 6.1
0 -4 9 161.96 5.92
0 -4 10 240.25 6.97
0 -4 11 31.71 2.32
0 -4 12 67.2 2.74
0 -3 -11 129.45 3.54
0 -3 -10 150.71 4.52
0 -3 -9 218.92 6.21
0 -3 -9 225.28 6.42
0 -3 -8 1145.7 14.64
0 -3 -8 1173.95 14.41
0 -3 -8 1143.36 13.37
0 -3 -7 730.31 10.9
0 -3 -7 738.42 9.93
0 -3 -7 749.68 11.87
0 -3 -7 724.58 10.4
0 -3 -6 335.8 6.45
0 -3 -6 355.77 7.22
0 -3 -6 330.43 7.28
0 -3 -6 344.43 6.13
0 -3 -5 27.35 1.86
0 -3 -5 23.58 1.56
0 -3 -5 25.51 1.53
0 -3 -5 27.61 1.78
0 -3 -4 1006.68 8.35
0 -3 -4 958.55 8.24
0 -3 -4 970.42 9.22
0 -3 -4 926.16 9.77
0 -3 -4 973.51 8.83
0 -3 -3 129.21 2.77
0 -3 -3 124.3 2.87
0 -3 -2 951.13 7.13
0 -3 -2 978.17 6.88
0 -3 -1 1766.69 8.48
0 -3 -1 1787.1 7.78
0 -3 0 1364.16 6.3
0 -3 0 1346.17 6.64
0 -3 0 1371.94 8.12
0 -3 1 2203.89 9.24
0 -3 1 2245.8 10.93
0 -3 2 800.48 7.35
0 -3 2 806.58 6.09
0 -3 2 796.29 6.9
0 -3 3 838.09 7.43
0 -3 3 798.62 8.15
0 -3 3 794.77 6.66
0 -3 3 826.93 7.58
0 -3 3 822.27 7.19
0 -3 4 1323.14 11.96
0 -3 4 1358.12 9.71
0 -3 4 1344.74 10.38
0 -3 4 1354.51 10.75
0 -3 5 336.53 6.63
0 -3 5 319.54 5.34
0 -3 5 343.12 6.54
0 -3 5 336.88 6.08
0 -3 6 144.83 4.52
0 -3 6 132.7 4.07
0 -3 6 142.47 4.66
0 -3 6 135.74 4.35
0 -3 7 88.65 4.1
0 -3 7 85.42 4.41
0 -3 7 88.84 4.41
0 -3 7 77.94 4.24
0 -3 7 87.67 3.85
0 -3 8 98.44 4.83
0 -3 8 103.14 4.99
0 -3 8 96.98 4.77
0 -3 8 104.76 4.99
0 -3 8 111.46 4.93
0 -3 9 144.54 5.76
0 -3 9 140.51 5.9
0 -3 9 139.13 6.07
0 -3 10 149.41 5.49
0 -3 10 141.14 6.21
0 -3 10 146.61 5.75
0 -3 11 7.7 1.12
0 -3 11 6 1.13
0 -3 12 33.24 2.1
0 -2 -12 150.52 3.5
0 -2 -12 177.71 3.71
0 -2 -11 569.8 8.44
0 -2 -10 289.95 7.25
0 -2 -10 320.12 7.01
0 -2 -9 10.18 1.49
0 -2 -9 10.91 1.39
0 -2 -9 14.72 1.66
0 -2 -8 485.5 9.18
0 -2 -8 474.98 8.81
0 -2 -8 485.82 8.38
0 -2 -8 479.4 9.83
0 -2 -8 464.75 10
0 -2 -7 3.02 0.8
0 -2 -7 1.53 0.53
0 -2 -7 1.34 0.5
0 -2 -6 747.09 8.89
0 -2 -6 772.71 10.46
0 -2 -6 753.92 8.55
0 -2 -5 220.8 4.98
0 -2 -5 218.88 4.58
0 -2 -5 213.98 4.12
0 -2 -5 221.06 4.24
0 -2 -4 1959.12 11.91
0 -2 -4 1974.36 10.73
0 -2 -4 2007.21 13.17
0 -2 -4 1988.72 11.02
0 -2 -3 127.37 2.48
0 -2 -3 132.57 2.7
0 -2 -2 696.09 5.25
0 -2 -1 74.83 1.39
0 -2 -1 78.6 1.16
0 -2 0 793.74 4.54
0 -2 0 797.28 3.07
0 -2 1 843.25 5.04
0 -2 1 836.57 4.81
0 -2 1 852.7 5.55
0 -2 2 686.74 5.26
0 -2 2 688.99 6.06
0 -2 2 682.7 4.88
0 -2 2 689.74 5.19
0 -2 3 1241.54 9.64
0 -2 3 1232.05 8.28
0 -2 3 1237.79 7.9
0 -2 3 1243.09 7.45
0 -2 4 1043.15 9.84
0 -2 4 1022.02 7.7
0 -2 4 1053.76 9.61
0 -2 4 1054.29 9.01
0 -2 5 342.11 5.24
0 -2 5 330.22 6.14
0 -2 5 341.23 6.03
0 -2 5 334.59 5.76
0 -2 6 101.82 3.82
0 -2 6 94.87 3.25
0 -2 6 99.63 3.54
0 -2 7 90.19 3.99
0 -2 7 100.93 3.86
0 -2 7 90.95 4.45
0 -2 8 83.9 4.43
0 -2 8 83.83 4.3
0 -2 8 83.22 3.47
0 -2 8 86.69 4.21
0 -2 8 83.28 4.51
0 -2 9 496.39 8.66
0 -2 9 514.14 10.97
0 -2 9 502.99 11.39
0 -2 9 505.52 11.42
0 -2 10 182.19 6.23
0 -2 10 181.6 6.59
0 -2 10 181.19 7.07
0 -2 11 329.38 8.06
0 -2 11 326.27 7.45
0 -2 12 54.11 2.79
0 -1 -12 39.18 1.99
0 -1 -12 38.72 1.85
0 -1 -11 44.64 2.49
0 -1 -10 182.94 5.47
0 -1 -10 185.16 5.67
0 -1 -9 192.64 6.01
0 -1 -9 187.81 5.74
0 -1 -9 208.38 5.75
0 -1 -8 60.4 3
0 -1 -8 61.85 3.41
0 -1 -8 62.44 2.89
0 -1 -7 235.68 6.12
0 -1 -7 247.37 5.1
0 -1 -7 236.01 5.84
0 -1 -7 240.88 5.35
0 -1 -6 153.24 4.43
0 -1 -6 141.68 3.62
0 -1 -6 141.82 3.52
0 -1 -6 143.61 3.95
0 -1 -6 139.56 3.44
0 -1 -5 1082.63 8.86
0 -1 -5 1059.26 8.17
0 -1 -5 1081.46 9.29
0 -1 -5 1067.62 8.63
0 -1 -4 49.26 1.92
0 -1 -4 35.03 1.32
0 -1 -4 29.93 1.28
0 -1 -4 28.01 1.31
0 -1 -4 54.45 1.46
0 -1 -3 201.74 2.81
0 -1 -3 204.2 2.94
0 -1 -2 1644.77 6.97
0 -1 -2 1606.46 7.18
0 -1 -1 234.31 2.12
0 -1 0 1248.8 3.76
0 -1 1 4773.42 10.4
0 -1 2 2791.23 8.98
0 -1 2 2759.66 8.12
0 -1 3 2527.37 12.71
0 -1 3 2540.54 9.75
0 -1 3 2532.18 11.62
0 -1 4 2088.43 12.56
0 -1 4 2090.26 12.54
0 -1 5 497.43 7.33
0 -1 5 509.48 6.9
0 -1 6 1808.76 15.99
0 -1 6 1792.22 14.47
0 -1 7 157.1 4.7
0 -1 7 147.39 5.1
0 -1 8 223.6 5.56
0 -1 8 226.33 7.19
0 -1 8 232.68 7.07
0 -1 8 227.63 7.47
0 -1 8 216.76 7.47
0 -1 9 188.39 5.29
0 -1 9 199.89 6.8
0 -1 9 183.29 6.86
0 -1 9 189.63 6.94
0 -1 10 250.83 7.81
0 -1 10 250.64 7.35
0 -1 10 247.66 5.96
0 -1 10 251.88 8.32
0 -1 11 534.58 10.32
0 -1 11 520.47 9.52
0 -1 12 19.61 1.55
0 -1 12 17.05 1.6
0 0 -12 5.11 0.8
0 0 -12 4.19 0.65
0 0 -11 189.49 5.13
0 0 -10 38.65 2.53
0 0 -10 39.26 2.79
0 0 -9 735.24 12.03
0 0 -9 702.58 10.39
0 0 -8 287.41 7.29
0 0 -8 300.26 6.37
0 0 -8 296.39 6.18
0 0 -8 307.18 7.48
0 0 -8 307.82 7.38
0 0 -8 302.52 6.65
0 0 -7 324.79 6.04
0 0 -7 321.5 5.66
0 0 -7 331.67 6.91
0 0 -7 318.84 6.61
0 0 -7 314.43 5.69
0 0 -6 111.52 3.59
0 0 -6 114.98 3.13
0 0 -6 106.59 2.92
0 0 -6 110.05 2.94
0 0 -6 109.57 3.35
0 0 -6 102.41 2.87
0 0 -5 1065.91 8.2
0 0 -5 1062.91 9.68
0 0 -5 1051.07 8.86
0 0 -5 1044.53 8.17
0 0 -5 1055.83 7.81
0 0 -4 943.99 6.81
0 0 -4 986.53 8.05
0 0 -4 906.32 6.75
0 0 -4 924.65 6.26
0 0 -4 972.36 7.33
0 0 -3 756.91 6.11
0 0 -3 760.86 5.34
0 0 -3 763.76 4.8
0 0 -1 697.46 3.46
0 0 1 684.49 2.6
0 0 3 759.06 7
0 0 3 751.92 5.07
0 0 4 957.39 9.11
0 0 4 965.85 7.12
0 0 5 1040.26 8.56
0 0 5 1034.79 9.65
0 0 5 1059.15 10.91
0 0 6 108.77 3.46
0 0 6 109.71 3.25
0 0 6 113.06 4.1
0 0 6 113.72 4.02
0 0 7 314.9 7.96
0 0 7 308.6 7.31
0 0 8 292.28 6.2
0 0 8 301.52 8.25
0 0 8 285.89 8.77
0 0 8 306.51 8.74
0 0 8 297.66 8.1
0 0 9 695.08 12.59
0 0 9 667.6 9.73
0 0 9 682.57 13.25
0 0 9 685.9 13.23
0 0 10 26.5 2.74
0 0 10 22.87 1.81
0 0 10 25.48 2.37
0 0 10 27.16 2.57
0 0 11 194.53 6.1
0 0 11 194.83 5.79
0 0 12 5.63 0.91
0 1 -12 17.39 1.41
0 1 -11 534.74 8.66
0 1 -11 548.69 9.79
0 1 -10 249.2 6.38
0 1 -10 240.68 6.38
0 1 -10 254.76 7.11
0 1 -9 196.53 5.77
0 1 -9 195.67 5.52
0 1 -9 196.61 6.1
0 1 -9 202.45 6.37
0 1 -8 234.48 6.56
0 1 -8 239.64 5.53
0 1 -8 232.2 6.3
0 1 -8 230.76 5.99
0 1 -8 233.42 6.32
0 1 -7 141.78 3.59
0 1 -7 147.17 3.87
0 1 -7 151.52 4.57
0 1 -7 153.25 4.46
0 1 -7 147.96 4.21
0 1 -7 152.9 4.16
0 1 -6 1847.81 13.09
0 1 -6 1840 11.35
0 1 -6 1884.11 14.13
0 1 -6 1845.44 12.2
0 1 -6 1886.1 12.84
0 1 -6 1850.78 13.46
0 1 -5 479.69 5.1
0 1 -5 482.23 6.2
0 1 -5 480.23 5.69
0 1 -5 488.9 5.55
0 1 -5 487.69 5.92
0 1 -5 474.93 5.8
0 1 -4 2198.59 10.83
0 1 -4 2256.56 12.02
0 1 -4 2248.27 11.29
0 1 -4 2202.55 10.6
0 1 -4 2195.46 9.27
0 1 -3 2575.81 10.59
0 1 -3 2549.11 11.06
0 1 -3 2562.26 9.79
0 1 -2 2800.98 9.56
0 1 -2 2663 8.99
0 1 0 1339.73 5.11
0 1 1 229.54 2.54
0 1 1 237.98 2.68
0 1 2 1749.37 8.95
0 1 2 1684.89 8.24
0 1 3 214.56 3.73
0 1 3 213.51 3.95
0 1 4 30.26 1.51
0 1 4 31.31 1.72
0 1 5 1079.94 11.37
0 1 5 1077.53 10.03
0 1 5 1061.56 11.36
0 1 6 140.82 4
0 1 6 140.43 4.74
0 1 6 142.22 4.62
0 1 7 234.84 6.99
0 1 7 228.73 5.29
0 1 7 237.25 7.42
0 1 7 242.8 6.67
0 1 8 60.08 3.67
0 1 8 63.14 3.95
0 1 8 62.41 2.88
0 1 8 59.67 4.06
0 1 8 72.72 4.01
0 1 9 192.81 6.58
0 1 9 195.21 5.27
0 1 9 205.07 7.11
0 1 10 187.99 6.18
0 1 10 187.36 6.43
0 1 10 187.67 5
0 1 11 47.58 2.79
0 1 11 44.52 2.22
0 1 11 46.28 2.87
0 1 12 39.52 2.18
0 2 -12 51.22 2.61
0 2 -11 317.38 6.62
0 2 -11 330.19 7.69
0 2 -10 190.67 5.53
0 2 -10 191.94 6.21
0 2 -10 164.62 6.18
0 2 -10 163.87 5.26
0 2 -9 497.05 9.11
0 2 -9 523.33 10.33
0 2 -9 497.45 8.72
0 2 -9 507 10.1
0 2 -8 91.64 4.04
0 2 -8 88.47 3.81
0 2 -8 83.21 3.98
0 2 -8 84.7 3.77
0 2 -8 85.38 3.79
0 2 -8 88.16 3.42
0 2 -7 101.72 3.57
0 2 -7 90.72 3.46
0 2 -7 93.17 3.53
0 2 -7 105.42 3.86
0 2 -6 96.68 3.14
0 2 -6 89.18 2.88
0 2 -6 95.25 2.84
0 2 -6 101.58 3.33
0 2 -6 82.85 3
0 2 -5 331.02 5.23
0 2 -5 322.82 4.67
0 2 -5 330.32 5.32
0 2 -5 336.72 4.78
0 2 -5 341.52 5.33
0 2 -4 1021.21 8.47
0 2 -4 1044.1 8.58
0 2 -4 1066.01 8.36
0 2 -4 1067.22 7.53
0 2 -4 1042.52 7.17
0 2 -4 1046.14 8.3
0 2 -3 1208.68 8.09
0 2 -3 1219.76 7.24
0 2 -3 1228.66 8.53
0 2 -3 1245.89 6.31
0 2 -3 1254.07 8.05
0 2 -3 1254.69 8.58
0 2 -2 674.82 5.85
0 2 -2 672.23 5.15
0 2 -2 693.15 5.97
0 2 -2 674.9 5.54
0 2 -2 679.02 3.44
0 2 -1 809.34 5
0 2 -1 860.87 6.04
0 2 0 812.76 5.74
0 2 0 807.67 5.74
0 2 1 76.1 1.9
0 2 1 77.93 1.9
0 2 2 692.94 6.18
0 2 2 738.37 6.72
0 2 3 138.88 3.23
0 2 3 131.23 3.03
0 2 4 2075.12 13.05
0 2 4 2038.54 14.05
0 2 5 210.95 4.65
0 2 5 222.24 5.45
0 2 5 211.41 5.27
0 2 6 779.18 9.7
0 2 6 727.39 11.05
0 2 7 2.2 0.71
0 2 7 1.59 0.62
0 2 7 0.93 0.59
0 2 7 1.67 0.62
0 2 7 1.46 0.49
0 2 8 469.65 9.6
0 2 8 458.66 10.46
0 2 8 465.86 10.06
0 2 8 473.25 8.03
0 2 9 8.64 1.47
0 2 9 8.92 1.43
0 2 9 7.02 1.03
0 2 10 351.52 8.08
0 2 10 329.67 7.99
0 2 10 329.03 6.42
0 2 11 598.94 9.55
0 2 12 195.68 4.34
0 3 -12 30.66 1.73
0 3 -12 32.96 2.04
0 3 -11 5.99 1.06
0 3 -10 144.24 4.71
0 3 -10 135.56 5.65
0 3 -10 147.25 5.4
0 3 -9 139.79 4.87
0 3 -9 130.32 4.56
0 3 -9 141.03 5.44
0 3 -9 135.53 5.35
0 3 -8 103.67 4.21
0 3 -8 99.97 4.48
0 3 -8 101.14 4.43
0 3 -8 100.91 3.72
0 3 -8 107.84 4.52
0 3 -8 98.16 4.25
0 3 -7 83.89 4.19
0 3 -7 81.11 3.5
0 3 -7 85.9 3.79
0 3 -7 83.11 3.6
0 3 -7 86.5 3.63
0 3 -7 86.03 3.11
0 3 -7 89.71 4.04
0 3 -6 126.3 3.92
0 3 -6 138.28 4.17
0 3 -6 130.68 4.03
0 3 -6 135.9 3.52
0 3 -5 325.92 5.59
0 3 -5 352.05 5.11
0 3 -5 344.71 6.06
0 3 -5 324.58 5.79
0 3 -4 1353.65 10.16
0 3 -4 1362.96 9.09
0 3 -4 1345.59 11.08
0 3 -4 1333.67 10.7
0 3 -3 827.41 8.1
0 3 -3 800.35 6.39
0 3 -3 821.92 8.11
0 3 -3 799.94 7.67
0 3 -2 820.86 7.69
0 3 -2 862.68 6.76
0 3 -2 844.44 7.91
0 3 -2 810.55 7.42
0 3 -1 2249.23 12.25
0 3 -1 2239.63 11.86
0 3 0 1353.63 9.43
0 3 0 1364.28 9.37
0 3 1 1770.48 11.24
0 3 1 1822.79 10.41
0 3 2 937.56 8.54
0 3 2 919.4 8.16
0 3 3 133.87 3.42
0 3 3 134.3 3.5
0 3 4 995.81 10.92
0 3 5 26.22 1.99
0 3 6 355.81 8.14
0 3 6 330.62 7.88
0 3 6 334.85 8.37
0 3 6 346.68 8.14
0 3 7 734.27 11.91
0 3 7 724.44 12.67
0 3 7 713.78 12.06
0 3 7 724.04 9.89
0 3 7 710.75 13.15
0 3 8 1180.81 15.73
0 3 8 1206.98 15.1
0 3 8 1147.2 12.53
0 3 8 1183.7 16.22
0 3 9 229.88 6.84
0 3 9 217.53 5.27
0 3 9 227.65 6.28
0 3 10 166.83 5.3
0 3 10 153.11 4.14
0 3 11 160.24 4.46
0 4 -12 69.36 2.71
0 4 -11 28.34 1.81
0 4 -11 29.46 2.14
0 4 -10 248.94 6.71
0 4 -9 162.34 5.89
0 4 -9 159.36 5.72
0 4 -9 151.1 5.86
0 4 -8 27.2 2.19
0 4 -8 28.86 2.56
0 4 -8 23.42 2.25
0 4 -8 24.53 2.25
0 4 -8 27.96 2.45
0 4 -7 187.93 6.32
0 4 -7 171.49 5.9
0 4 -7 189.49 5.78
0 4 -7 184.14 5.79
0 4 -7 177.77 5.59
0 4 -6 12.58 1.59
0 4 -6 11.35 1.49
0 4 -6 7.62 1.13
0 4 -6 6.42 1.01
0 4 -6 6.88 1.03
0 4 -5 555.43 8.44
0 4 -5 559.16 8.56
0 4 -4 814.35 8.81
0 4 -4 842.37 9.97
0 4 -3 2971.22 17.25
0 4 -3 2977.25 18.05
0 4 -2 160.94 3.9
0 4 -2 144.26 3.17
0 4 -2 151.14 3.76
0 4 -2 163.93 4.09
0 4 -1 385.74 5.94
0 4 -1 370.61 5.81
0 4 -1 385.64 6.2
0 4 0 1303.05 11.09
0 4 1 2620.15 16.15
0 4 1 2531.87 14.01
0 4 2 673.41 8.55
0 4 2 677.15 7.98
0 4 3 685.98 9.09
0 4 3 658.91 8.57
0 4 4 1036.2 12
0 4 5 511.55 9.5
0 4 5 521.54 10.05
0 4 6 820.55 12.96
0 4 6 817.96 12.4
0 4 7 118.74 5.01
0 4 7 131.82 5.02
0 4 8 140.9 5.05
0 4 8 137.28 4.21
0 4 8 148.87 5.45
0 4 9 126.85 4.71
0 4 9 117.44 3.65
0 4 9 113.58 4.17
0 4 10 25.3 1.71
0 5 -11 40.71 2.29
0 5 -10 107.93 4.23
0 5 -9 13.03 1.65
0 5 -9 11.97 1.59
0 5 -9 14.4 1.87
0 5 -8 240.54 7.22
0 5 -8 241.22 7.24
0 5 -8 238.25 7.48
0 5 -8 231.08 7.18
0 5 -7 1305.15 16.75
0 5 -7 1345.26 17.29
0 5 -7 1297.19 16.47
0 5 -7 1278.55 16.09
0 5 -6 138.3 5.44
0 5 -6 135.32 5.46
0 5 -6 124.66 4.78
0 5 -6 132.74 4.99
0 5 -5 103.7 4.61
0 5 -5 89.29 4.27
0 5 -5 94.58 4.59
0 5 -5 96.27 3.92
0 5 -5 87.51 3.84
0 5 -4 596.57 9.77
0 5 -4 571.12 9.11
0 5 -4 593.62 9.56
0 5 -3 65.92 3.09
0 5 -3 68.62 3.16
0 5 -3 61.02 2.87
0 5 -2 501.88 8.37
0 5 -2 477.49 8.06
0 5 -1 97.2 3.63
0 5 -1 101.19 3.64
0 5 0 152.57 4.59
0 5 1 330.69 6.86
0 5 2 250.35 5.39
0 5 2 236.19 5.94
0 5 3 376.83 7.78
0 5 3 353.53 6.87
0 5 4 59.82 2.91
0 5 4 62.3 3.31
0 5 4 55.36 3.4
0 5 4 59.29 3.08
0 5 4 52.51 3.47
0 5 5 172.31 5.75
0 5 5 187.04 5.19
0 5 5 184.5 6.2
0 5 5 187.15 5.85
0 5 6 279.72 6.4
0 5 6 275.8 7.15
0 5 7 404.55 7.35
0 5 7 378.17 8.29
0 5 8 4.38 0.9
0 5 9 182.47 4.79
0 5 10 36.7 1.73
0 6 -11 84.41 2.81
0 6 -10 68 2.99
0 6 -10 69.31 3.14
0 6 -9 136.45 4.89
0 6 -9 126.88 4.72
0 6 -8 35.36 2.7
0 6 -8 35.53 2.9
0 6 -8 37.1 2.73
0 6 -7 72.64 3.99
0 6 -7 66.5 3.83
0 6 -7 63.85 3.84
0 6 -6 572.76 11.39
0 6 -6 542.48 10.94
0 6 -6 554.58 11.21
0 6 -5 16.61 1.96
0 6 -5 11.08 1.64
0 6 -5 13.64 1.82
0 6 -5 14.42 1.78
0 6 -4 1040.65 15.23
0 6 -4 1003.41 14.93
0 6 -4 1023.01 14.44
0 6 -4 1026.89 15.72
0 6 -4 1029.69 14.18
0 6 -3 4.52 0.96
0 6 -3 4.38 0.98
0 6 -3 2.35 0.72
0 6 -2 149.95 5.85
0 6 -2 151.76 5.47
0 6 -2 139.57 5.28
0 6 -2 145.07 5.4
0 6 -1 427.98 10.03
0 6 -1 415.96 9.19
0 6 -1 438.24 9.26
0 6 0 224.61 6.53
0 6 0 217.66 6.49
0 6 1 33.42 2.55
0 6 1 36.12 2.65
0 6 1 33.21 2.38
0 6 2 193.75 6.24
0 6 2 210.14 7.35
0 6 2 201.01 5.09
0 6 2 198.89 6.36
0 6 2 195.16 5.82
0 6 3 212.8 6.14
0 6 3 219.73 7.32
0 6 3 215.95 5.41
0 6 3 212.73 6.63
0 6 3 200.13 6.56
0 6 4 106 4.69
0 6 4 108.61 3.88
0 6 4 100.92 4.74
0 6 4 101.6 4.31
0 6 5 293.67 6.37
0 6 5 280.79 7.49
0 6 5 281.94 7.54
0 6 5 274.84 7.02
0 6 6 12.69 1.32
0 6 6 11.87 1.45
0 6 7 64.76 3.13
0 6 8 36.28 2.14
0 6 9 9.25 0.93
0 7 -10 6.06 0.76
0 7 -9 35.77 2.22
0 7 -9 36.33 2.21
0 7 -9 39.17 2.31
0 7 -8 108.68 4.32
0 7 -8 108.16 4.26
0 7 -7 56.91 3.29
0 7 -7 60.38 3.42
0 7 -6 134.96 5.29
0 7 -6 144.74 5.53
0 7 -6 133.78 5.72
0 7 -5 77.01 4.17
0 7 -5 81.38 4.29
0 7 -5 72.52 4.2
0 7 -4 1559.93 18.93
0 7 -3 591.95 11.79
0 7 -3 611.52 11.23
0 7 -2 557.08 11.44
0 7 -2 552.7 10.64
0 7 -1 228.78 6.88
0 7 0 91.38 4.34
0 7 0 82.44 3.8
0 7 1 258.15 7.26
0 7 1 266.04 8.4
0 7 1 256.46 6.64
0 7 2 73.93 4.3
0 7 2 68.96 3.78
0 7 2 64.45 3.33
0 7 3 109.37 4.76
0 7 3 114 5.06
0 7 3 114.02 4.41
0 7 4 488.68 8.98
0 7 4 472.14 9.57
0 7 4 498.26 9.9
0 7 5 485.88 9.04
0 7 5 495.76 8.71
0 7 6 72.05 3.12
0 7 7 36.19 2.03
0 7 8 71.47 2.44
0 8 -8 34.74 2.06
0 8 -7 100.94 3.95
0 8 -6 95.38 4.05
0 8 -5 41.75 2.82
0 8 -4 175.28 5.96
0 8 -3 72.12 3.59
0 8 -2 243.52 6.77
0 8 -1 21.81 2.08
0 8 0 271.73 7.23
0 8 0 281.51 8.34
0 8 1 1077.16 14.1
0 8 1 1114.1 15.96
0 8 2 605.64 10.42
0 8 2 599.28 11.09
0 8 3 83.01 3.76
0 8 3 82.77 3.86
0 8 3 83.21 3.42
0 8 4 8.37 1.15
0 8 4 7.98 1.1
0 8 4 9.07 1.13
0 8 5 24.73 1.7
0 8 6 47.13 2.1
0 9 -7 19.04 1.32
0 9 -6 79.87 3.09
0 9 -5 12.11 1.34
0 9 -4 272.71 6.49
0 9 -3 197.94 5.67
0 9 -2 19.73 1.81
0 9 -2 21.99 1.79
0 9 -2 21.64 2.07
0 9 -1 111.92 4.05
0 9 -1 108.08 4.59
0 9 0 19.32 1.7
0 9 0 20 1.92
0 9 1 218.74 5.48
0 9 1 210.88 5.78
0 9 2 105.69 3.71
0 9 2 106.38 3.79
0 9 3 21.62 1.59
0 10 -3 269.36 5.24
0 10 -2 201.06 4.66
0 10 -1 26.4 1.64
1 -9 3 16.61 1.65
1 -9 4 17.78 1.66
1 -9 5 204.99 5.26
1 -9 5 202.62 5.25
1 -9 6 62.75 2.69
1 -9 6 54.21 2.5
1 -8 -2 200.06 6.4
1 -8 -1 584.51 11.09
1 -8 0 518.33 10.61
1 -8 0 493.79 10.34
1 -8 1 85.94 4.48
1 -8 1 86.68 4.37
1 -8 2 69.95 4.14
1 -8 2 74.9 4.05
1 -8 3 291.59 8.6
1 -8 3 293.55 8.19
1 -8 4 41.98 3.29
1 -8 4 41.47 3.07
1 -8 4 46.26 3
1 -8 4 46.49 3.44
1 -8 5 96.28 4.24
1 -8 6 122.54 4.6
1 -8 6 119 4.43
1 -8 7 139.67 4.46
1 -8 7 148.27 4.72
1 -8 8 3.56 0.63
1 -8 8 5.54 0.84
1 -8 8 3.78 0.7
1 -7 -3 190.33 6.22
1 -7 -2 124.92 4.91
1 -7 -1 1043.59 13.9
1 -7 -1 1041.12 13.98
1 -7 0 364.88 8.3
1 -7 0 368.59 8.23
1 -7 0 345.72 8.41
1 -7 0 335.64 8.5
1 -7 1 415.99 8.93
1 -7 1 399.89 9.07
1 -7 1 407.94 9.55
1 -7 2 279.94 7.66
1 -7 2 273.96 7.7
1 -7 2 286.02 7.49
1 -7 3 106.58 4.93
1 -7 3 114.52 5.12
1 -7 3 107.05 4.72
1 -7 4 488.57 10.87
1 -7 4 477.66 10.75
1 -7 5 4.03 1.11
1 -7 5 3.6 0.87
1 -7 5 4.66 1.07
1 -7 5 6.01 1.39
1 -7 6 185.51 6.68
1 -7 6 181.93 6.2
1 -7 7 53.24 3.24
1 -7 7 52.59 3.12
1 -7 8 79.14 3.46
1 -7 8 84.55 3.81
1 -7 8 77.5 3.49
1 -7 9 52.35 2.64
1 -6 -7 148.69 5.18
1 -6 -6 155.74 5.31
1 -6 -5 130.45 4.98
1 -6 -5 134.11 4.8
1 -6 -4 46.94 2.93
1 -6 -4 60.37 3.18
1 -6 -3 351.02 7.39
1 -6 -3 341.92 7.64
1 -6 -2 561.14 9.24
1 -6 -1 36.97 2.31
1 -6 0 822.83 10.86
1 -6 0 837.19 10.68
1 -6 1 313.79 6.78
1 -6 1 306.34 5.92
1 -6 1 306.14 6.95
1 -6 1 307.99 7.18
1 -6 2 146.18 4.85
1 -6 2 134.94 4.09
1 -6 2 142.94 4.92
1 -6 2 142.01 4.99
1 -6 2 149.77 4.89
1 -6 3 38.74 2.68
1 -6 3 37.06 2.25
1 -6 3 42.54 2.87
1 -6 3 40.3 2.72
1 -6 3 41.83 2.7
1 -6 4 406.09 9.18
1 -6 4 387.79 7.77
1 -6 4 409.42 9.08
1 -6 4 416.87 8.9
1 -6 5 47.95 3.29
1 -6 5 40.28 2.82
1 -6 5 47.14 3.3
1 -6 5 41.16 3.02
1 -6 6 190.36 6.64
1 -6 6 196.32 6.69
1 -6 6 189.39 6.8
1 -6 7 96.16 4.86
1 -6 7 94.2 4.5
1 -6 7 99.26 4.72
1 -6 7 91.33 4.75
1 -6 8 148.29 5.21
1 -6 8 148.26 5.32
1 -6 8 152.41 5.61
1 -6 9 12.62 1.54
1 -6 10 216.11 4.98
1 -6 10 265.73 5.94
1 -5 -8 8.48 1.29
1 -5 -7 92.57 4.27
1 -5 -6 73.35 3.63
1 -5 -6 68.68 3.37
1 -5 -5 417.2 7.75
1 -5 -4 292.55 5.98
1 -5 -3 61.67 2.51
1 -5 -2 563.46 7.77
1 -5 -2 561.22 7.33
1 -5 -1 885.13 8.89
1 -5 -1 864.28 9.36
1 -5 0 76.11 2.45
1 -5 0 74.71 2.71
1 -5 1 538.21 7.82
1 -5 1 524.3 6.59
1 -5 1 533.65 7.31
1 -5 1 535.86 7.94
1 -5 1 549.55 8.2
1 -5 2 59.79 2.77
1 -5 2 59.66 2.75
1 -5 2 58.96 2.76
1 -5 3 102.63 3.89
1 -5 3 102.35 3.25
1 -5 3 102.05 3.77
1 -5 3 101 3.8
1 -5 3 106.19 3.84
1 -5 4 1195.34 14.21
1 -5 4 1216.08 11.96
1 -5 4 1237.86 14
1 -5 4 1195.46 13.67
1 -5 5 2.02 0.8
1 -5 5 1.5 0.51
1 -5 5 3.98 1.01
1 -5 5 3.31 0.9
1 -5 6 256.35 7.36
1 -5 6 253.86 6.59
1 -5 6 252.61 7.61
1 -5 6 241.5 7.3
1 -5 7 941.78 14.59
1 -5 7 940.49 14.93
1 -5 7 972.83 15.02
1 -5 8 32.66 2.89
1 -5 8 32.2 2.6
1 -5 8 31.85 2.67
1 -5 8 34.69 2.89
1 -5 9 64 3.67
1 -5 10 129.75 4.68
1 -5 11 197.04 4.75
1 -4 -8 243.98 6.81
1 -4 -8 251.82 6.27
1 -4 -7 13.56 1.51
1 -4 -7 14.34 1.46
1 -4 -7 11.86 1.56
1 -4 -6 391.58 6.86
1 -4 -6 403.4 8.05
1 -4 -6 398.85 7.47
1 -4 -5 11.75 1.16
1 -4 -5 11.96 1.12
1 -4 -5 11.02 1.21
1 -4 -4 121.03 3.57
1 -4 -4 121.22 3.45
1 -4 -3 147.69 3.31
1 -4 -2 2465.32 12
1 -4 -1 12.47 0.85
1 -4 0 1115.62 7.82
1 -4 0 1129.81 8.92
1 -4 1 625.89 7.35
1 -4 1 605.08 6.65
1 -4 1 619.41 7.34
1 -4 2 709.36 6.97
1 -4 2 699.21 8.13
1 -4 2 688.43 8.08
1 -4 3 628.05 8.78
1 -4 3 645.78 7.06
1 -4 3 680.97 8.48
1 -4 3 676.73 8.42
1 -4 3 664.54 8.72
1 -4 4 173.22 5
1 -4 4 175.39 4.02
1 -4 4 171.78 4.63
1 -4 4 184.29 5.03
1 -4 5 222.51 5.94
1 -4 5 206.88 4.84
1 -4 5 215.81 5.58
1 -4 5 215.34 6.02
1 -4 6 1734.99 18.08
1 -4 6 1718.96 15.77
1 -4 6 1801.39 19.7
1 -4 6 1774.84 20.04
1 -4 6 1714.17 17.67
1 -4 7 722.5 12.59
1 -4 7 762.28 12.14
1 -4 7 738.26 12.97
1 -4 7 748.91 13.45
1 -4 7 784.19 12.86
1 -4 8 741.69 13.67
1 -4 8 758.79 12.96
1 -4 8 749.7 13.18
1 -4 8 787.24 13.99
1 -4 9 60.77 3.79
1 -4 9 58.18 3.97
1 -4 10 59.11 3.4
1 -4 10 57.46 3.25
1 -4 11 44.03 2.54
1 -3 -11 192.15 4.7
1 -3 -9 211.74 6.53
1 -3 -9 212.3 5.86
1 -3 -8 1878.39 17.64
1 -3 -8 1898.65 16.7
1 -3 -7 479.1 8.21
1 -3 -7 491.39 7.89
1 -3 -7 494 9.21
1 -3 -6 217.29 5.27
1 -3 -6 217.35 5.41
1 -3 -5 467.28 6.99
1 -3 -5 445.78 6.68
1 -3 -5 440.6 6.48
1 -3 -5 463.06 6.84
1 -3 -4 4490.02 18.57
1 -3 -4 4569.35 19.93
1 -3 -3 1937.84 10.36
1 -3 -2 445.56 3.89
1 -3 -1 227.57 1.89
1 -3 -1 283.03 3.69
1 -3 0 2661.09 9.85
1 -3 0 2672.52 11.28
1 -3 1 1363.89 8.32
1 -3 1 1486.44 9.88
1 -3 1 1405.4 8.6
1 -3 1 1408.18 9.67
1 -3 1 1460.74 9.62
1 -3 2 963.91 8.89
1 -3 2 917.71 7.09
1 -3 2 931.61 8.26
1 -3 2 919.31 8.05
1 -3 2 947.31 8.76
1 -3 3 1203.67 11.18
1 -3 3 1241.9 10.23
1 -3 3 1220 10.78
1 -3 4 893.79 10.51
1 -3 4 905.64 8.12
1 -3 4 885.25 10.43
1 -3 5 42.92 2.48
1 -3 5 46.45 2.1
1 -3 5 48.54 2.54
1 -3 5 45.48 2.59
1 -3 6 645.07 10.37
1 -3 6 658.91 9.04
1 -3 7 207.02 6.52
1 -3 7 202.21 6.86
1 -3 7 216.19 7.06
1 -3 7 231.77 6.31
1 -3 7 206.2 7.03
1 -3 7 212.91 6.41
1 -3 8 73.05 4.21
1 -3 8 68.78 4.04
1 -3 8 71.61 4.27
1 -3 9 93.73 5.02
1 -3 9 94.74 4.85
1 -3 10 77.1 4.05
1 -3 10 76.54 3.88
1 -3 11 24.66 1.86
1 -3 11 23.89 1.99
1 -3 12 80.87 2.82
1 -2 -12 160.77 3.96
1 -2 -11 247.29 5.77
1 -2 -10 370.42 7.87
1 -2 -9 414.82 8.59
1 -2 -9 420.6 8.01
1 -2 -8 825.16 11.29
1 -2 -8 865.28 12.7
1 -2 -8 847.32 10.63
1 -2 -7 415.86 7.91
1 -2 -7 390.79 6.56
1 -2 -7 386.36 6.33
1 -2 -7 406.75 7.72
1 -2 -6 370.94 5.92
1 -2 -6 387.5 6.75
1 -2 -6 368.38 5.75
1 -2 -6 386.74 5.9
1 -2 -6 382.48 6.59
1 -2 -5 113.73 3.18
1 -2 -5 110.49 2.98
1 -2 -5 116.82 3.13
1 -2 -5 113.75 2.97
1 -2 -4 50.74 1.87
1 -2 -4 50.1 1.9
1 -2 -4 51.14 1.95
1 -2 -3 2075.96 9.95
1 -2 -2 3893.9 10.47
1 -2 0 1277.62 6.28
1 -2 0 1198.71 6.7
1 -2 1 2373.68 10.65
1 -2 1 2366.35 10.42
1 -2 2 807.65 7.55
1 -2 2 750.9 5.72
1 -2 2 790.39 7.3
1 -2 2 764.4 6.62
1 -2 3 1715.87 12.19
1 -2 3 1708.23 9.31
1 -2 3 1718.74 11.67
1 -2 3 1702.08 12.28
1 -2 4 200.05 4.58
1 -2 4 189.51 3.41
1 -2 4 194.31 4.4
1 -2 4 193.83 4.56
1 -2 5 83 3.3
1 -2 5 80.82 3.09
1 -2 5 85.72 2.66
1 -2 5 83.1 3.26
1 -2 6 654.72 10.22
1 -2 6 667.28 8.68
1 -2 6 654.14 9.96
1 -2 7 160.01 5.64
1 -2 7 172.93 5.21
1 -2 7 163.58 6.11
1 -2 7 158.91 6.19
1 -2 7 171.25 5.5
1 -2 8 9.12 1.58
1 -2 8 7 1.35
1 -2 9 79.3 4.42
1 -2 9 84.09 4.72
1 -2 9 82.36 4.58
1 -2 10 202.17 6.42
1 -2 10 204.82 6.69
1 -2 10 203.35 7.41
1 -2 11 178.31 5.14
1 -2 11 190.14 5.7
1 -2 12 7.75 0.95
1 -1 -12 17.5 1.43
1 -1 -11 19.81 1.68
1 -1 -11 19.74 1.78
1 -1 -10 282.77 7.01
1 -1 -10 287.52 6.87
1 -1 -9 203.96 5.82
1 -1 -9 213.36 5.54
1 -1 -9 206.99 6.1
1 -1 -8 999.45 10.95
1 -1 -8 1011.02 11.12
1 -1 -8 1019.39 13.2
1 -1 -8 1042.77 13.45
1 -1 -7 68.6 2.6
1 -1 -7 66.04 2.55
1 -1 -7 66.47 3.04
1 -1 -7 67.55 2.98
1 -1 -6 815.13 9.3
1 -1 -6 804.59 8.04
1 -1 -6 814.45 7.69
1 -1 -5 613.59 6.45
1 -1 -5 618.9 7.14
1 -1 -5 615.59 6.49
1 -1 -5 593.58 6.12
1 -1 -4 557.74 5.66
1 -1 -4 566.2 5.91
1 -1 -4 571.39 5.96
1 -1 -4 552.15 5.62
1 -1 -3 535.64 4.77
1 -1 -3 514.03 5.15
1 -1 -2 947.16 4.94
1 -1 -1 84.15 0.93
1 -1 -1 85.03 1.46
1 -1 0 4489.48 11.36
1 -1 0 4302.27 11.04
1 -1 2 2830.24 12.89
1 -1 2 2845.43 9.9
1 -1 3 1958.71 12.38
1 -1 3 1969.8 9.07
1 -1 4 341.15 4.25
1 -1 4 339.15 5.72
1 -1 5 379.85 6.69
1 -1 5 365.92 6.89
1 -1 6 296.4 5.51
1 -1 6 285.47 6.43
1 -1 7 6.27 1.17
1 -1 7 7.92 1.04
1 -1 7 7.16 1.34
1 -1 7 7.14 1.12
1 -1 8 42.46 3.15
1 -1 8 43.1 3.34
1 -1 8 37.95 2.36
1 -1 8 45.84 3.41
1 -1 8 43.87 3.26
1 -1 9 386.78 9.24
1 -1 9 387.62 9.89
1 -1 9 397.41 9.71
1 -1 9 382.34 10.13
1 -1 10 14.09 1.7
1 -1 10 13.06 1.57
1 -1 10 12.78 1.73
1 -1 10 12.67 1.9
1 -1 11 551.47 9.64
1 -1 12 77.59 2.9
1 0 -13 68.65 2.31
1 0 -12 98.33 3.39
1 0 -12 93.22 3.58
1 0 -11 394.04 7.46
1 0 -11 386.83 8.08
1 0 -10 116.33 4.62
1 0 -10 120.19 4.44
1 0 -9 83.4 4.2
1 0 -9 81.07 4.11
1 0 -9 82.55 3.42
1 0 -9 90.81 3.78
1 0 -9 95.87 4.13
1 0 -8 61.6 2.77
1 0 -8 59.83 2.73
1 0 -8 60.62 2.66
1 0 -8 63.08 3.2
1 0 -8 63.07 3.27
1 0 -7 92.38 2.93
1 0 -7 100.12 3.14
1 0 -7 87.68 3.36
1 0 -7 97.38 3.03
1 0 -7 94.4 3.44
1 0 -6 6.28 0.71
1 0 -6 5.1 0.64
1 0 -6 5.33 0.74
1 0 -6 5.27 0.63
1 0 -5 197.97 3.88
1 0 -5 208.88 3.55
1 0 -4 106.49 2.28
1 0 -4 108.17 2.52
1 0 -4 103.85 2.35
1 0 -4 105.06 2.25
1 0 -3 1857.78 9.14
1 0 -3 1872.62 8.71
1 0 -2 122.13 1.9
1 0 -2 94.61 1.82
1 0 -1 797.29 4.09
1 0 1 2674.22 7.45
1 0 1 3155.08 6.77
1 0 2 4253.46 10.29
1 0 2 3953.92 15.27
1 0 3 3151.43 15.87
1 0 3 3157.09 10.02
1 0 4 1593.34 8.59
1 0 4 1458.43 10.79
1 0 4 1538.89 12.05
1 0 4 1616.48 11.66
1 0 4 1496.18 12.51
1 0 5 701.46 8.98
1 0 5 688.71 9.45
1 0 6 194.49 5.6
1 0 6 197.14 5.25
1 0 6 211.8 5.82
1 0 7 198.97 6.95
1 0 7 204.75 6.93
1 0 7 189.4 6.53
1 0 7 204.01 5.17
1 0 7 203.69 5.77
1 0 7 193.63 6.18
1 0 8 325.88 8.91
1 0 8 323.21 8.6
1 0 8 320.62 8.97
1 0 8 304.43 6.59
1 0 8 343.37 9.07
1 0 9 14.55 1.78
1 0 9 12.01 1.78
1 0 9 11.61 1.34
1 0 9 13.49 1.82
1 0 9 12.4 1.86
1 0 10 317.18 7.59
1 0 10 318.93 8.07
1 0 11 12.41 1.44
1 0 12 23.95 1.55
1 1 -12 38.42 2.13
1 1 -12 37.57 2.36
1 1 -11 72.63 3.23
1 1 -11 71.4 3.52
1 1 -10 42.09 2.83
1 1 -10 38.34 2.53
1 1 -10 35.59 2.68
1 1 -9 235.6 6.98
1 1 -9 242.26 6.53
1 1 -9 230.77 5.68
1 1 -9 231.4 6.18
1 1 -9 218.27 6.62
1 1 -8 39.14 2.56
1 1 -8 46.62 2.31
1 1 -8 45.04 2.44
1 1 -8 42.94 2.37
1 1 -8 39.6 2.51
1 1 -8 51.64 2.91
1 1 -7 425.21 6.15
1 1 -7 424.29 6.47
1 1 -7 430.94 6.04
1 1 -7 425.63 6.57
1 1 -7 447.66 7.56
1 1 -6 569.84 6.45
1 1 -6 593.64 6.95
1 1 -6 579.88 6.76
1 1 -6 571.28 7.52
1 1 -5 802.1 6.96
1 1 -5 801.57 6.72
1 1 -5 835.43 7.4
1 1 -5 851.23 7.24
1 1 -5 776.05 7.63
1 1 -4 3341.4 12.86
1 1 -4 3326.65 12.28
1 1 -4 3482.68 12.36
1 1 -4 3439.23 13.27
1 1 -4 3372.65 12.79
1 1 -4 3358.19 14.08
1 1 -3 1673.69 8.27
1 1 -3 1659.52 8
1 1 -2 4344.44 10.57
1 1 -2 4093.1 12.21
1 1 2 2447.35 12.58
1 1 2 2438.28 13.04
1 1 3 519.23 5.92
1 1 3 532.78 3.62
1 1 3 545.1 6.59
1 1 3 555.03 6.04
1 1 3 522.3 6.81
1 1 4 1263.01 11.07
1 1 4 1295.09 10.88
1 1 4 1256.14 11.84
1 1 5 654.42 8.81
1 1 5 643.23 9.48
1 1 6 368.41 7.28
1 1 6 380.44 7.88
1 1 6 370.24 7.89
1 1 7 855.36 13.29
1 1 7 866.74 14.27
1 1 7 847.87 13.45
1 1 7 857.01 10.79
1 1 7 848.82 14.07
1 1 7 880.09 12.03
1 1 7 857.61 13.26
1 1 8 327.65 8.17
1 1 8 344.88 8.97
1 1 8 342 8.59
1 1 8 331.26 8.93
1 1 8 322.62 6.85
1 1 8 347.48 9.15
1 1 9 617.33 10.59
1 1 9 627.47 11.44
1 1 9 579.03 9.11
1 1 9 592.99 11.68
1 1 10 46.72 2.98
1 1 11 95.64 3.69
1 1 12 65.29 2.33
1 2 -12 31.53 1.89
1 2 -12 27.97 2.01
1 2 -11 244.69 5.83
1 2 -11 247.75 6.52
1 2 -10 161.54 5.04
1 2 -10 164.2 5.59
1 2 -10 150.76 4.96
1 2 -10 167.02 5.87
1 2 -9 105.43 4.12
1 2 -9 106.15 4.39
1 2 -9 94.81 3.72
1 2 -9 108.56 4.43
1 2 -9 93.13 4.14
1 2 -8 51.99 2.79
1 2 -8 50.46 3.12
1 2 -8 53.71 2.77
1 2 -8 55.34 3.06
1 2 -8 51.25 2.46
1 2 -8 53.66 3
1 2 -8 54.59 2.93
1 2 -7 277.55 6.1
1 2 -7 278.27 5.09
1 2 -7 294.7 5.76
1 2 -7 287.89 5.7
1 2 -7 290.24 5.86
1 2 -6 806.92 9.26
1 2 -6 825.09 8.66
1 2 -6 802.91 7.65
1 2 -6 813.64 8.53
1 2 -5 1340.58 10.06
1 2 -5 1291.11 10.45
1 2 -5 1328.37 8.7
1 2 -5 1275.23 9.69
1 2 -5 1328.98 9.77
1 2 -4 793.46 7.04
1 2 -4 776.07 6.95
1 2 -4 739.74 7.04
1 2 -4 786.77 5.87
1 2 -4 747.37 6.66
1 2 -4 771.43 6.87
1 2 -3 776.01 6.47
1 2 -3 772.51 6.46
1 2 -3 743.17 6.47
1 2 -3 765.36 6.28
1 2 -3 739.84 6.02
1 2 -2 125.13 2.44
1 2 -2 124.62 2.29
1 2 -2 129.42 2.48
1 2 -2 129.04 2.57
1 2 -2 121.85 2.33
1 2 -1 1872.58 9.09
1 2 -1 1845.68 7.64
1 2 -1 1846.53 9
1 2 -1 1862.44 8.33
1 2 0 1310.17 6.78
1 2 0 1308.83 7.59
1 2 1 3980.39 12.97
1 2 1 4123.42 13.74
1 2 1 4003.92 15.08
1 2 1 4119.57 13.57
1 2 1 4030.93 15.82
1 2 2 2.46 0.37
1 2 2 1.97 0.38
1 2 2 2.91 0.43
1 2 2 2.53 0.45
1 2 3 556.18 6.43
1 2 3 553.49 6.61
1 2 3 538.95 6.92
1 2 4 1122.6 9.78
1 2 4 1091.02 10.77
1 2 4 1106.58 10.78
1 2 5 79.13 3.17
1 2 5 92.9 3.58
1 2 6 32.05 2.68
1 2 6 36.88 2.7
1 2 6 30.8 2.49
1 2 6 42.26 3
1 2 6 33.77 2.25
1 2 6 34.07 2.47
1 2 7 31.78 2.55
1 2 7 28.6 2.49
1 2 7 27.07 1.96
1 2 7 26.78 2.47
1 2 7 26.77 2.17
1 2 8 551.66 10.46
1 2 8 537.89 8.76
1 2 8 550.06 11.26
1 2 9 175.75 5.56
1 2 9 156.2 4.59
1 2 9 168.19 5.93
1 2 10 32.42 2.35
1 2 11 193.8 4.79
1 3 -12 79.33 3.29
1 3 -11 6.76 0.96
1 3 -11 5.06 0.99
1 3 -10 316.17 6.86
1 3 -10 310.33 7.54
1 3 -10 300.03 7.97
1 3 -9 222.92 5.98
1 3 -9 216.48 6.67
1 3 -9 217.39 6.39
1 3 -9 216.13 6.63
1 3 -9 217.83 6.44
1 3 -8 58.71 3.09
1 3 -8 63.3 3.55
1 3 -8 61.22 3.36
1 3 -8 71.05 3.61
1 3 -8 62.23 3.17
1 3 -8 63.87 3.29
1 3 -7 149.12 5.12
1 3 -7 156.38 5.15
1 3 -7 160.64 4.89
1 3 -7 150.16 4.45
1 3 -7 153.65 4.58
1 3 -6 155.22 4.28
1 3 -6 164.73 4.19
1 3 -6 149.3 4.26
1 3 -6 157.41 4.2
1 3 -5 125.83 3.47
1 3 -5 129.34 3.61
1 3 -5 120.52 3.3
1 3 -4 1360.73 10.72
1 3 -4 1349.6 10.57
1 3 -4 1334.02 10.44
1 3 -4 1368.27 10.26
1 3 -3 482.24 5.95
1 3 -3 486.77 5.99
1 3 -3 486.78 5.77
1 3 -3 472.07 5.89
1 3 -3 499.26 6.03
1 3 -2 989.62 8.13
1 3 -2 984.91 8.14
1 3 -2 1019.72 7.73
1 3 -2 1042.61 8.37
1 3 -2 1049.41 8.38
1 3 -2 1004.97 7.89
1 3 -1 95.66 2.5
1 3 -1 96.22 2.34
1 3 -1 91.82 2.43
1 3 -1 93.69 2.49
1 3 -1 98.25 2.41
1 3 0 399.45 4.84
1 3 0 382.83 4.97
1 3 0 390.68 5.2
1 3 0 383.65 4.73
1 3 1 1907.19 11.13
1 3 1 1915.96 11.59
1 3 1 1940.2 11.44
1 3 1 1935.43 11.96
1 3 1 1964.09 11
1 3 2 170.17 3.7
1 3 2 169.04 3.54
1 3 2 163.75 3.52
1 3 3 165.71 3.99
1 3 3 163.76 3.84
1 3 4 614.49 7.95
1 3 4 570.91 8.14
1 3 5 5.19 0.82
1 3 5 5.37 0.9
1 3 6 637.57 11.13
1 3 6 593.59 11.03
1 3 7 217.69 6.59
1 3 7 215.41 5.5
1 3 7 224.84 6.98
1 3 8 196.48 6.11
1 3 8 189.28 5.09
1 3 8 186.96 6.27
1 3 9 190.5 5.82
1 3 9 184.02 5.41
1 3 10 17.89 1.62
1 3 10 15.75 1.39
1 4 -12 119.55 3.72
1 4 -11 19.81 1.76
1 4 -10 459.62 9.18
1 4 -10 443.63 9.74
1 4 -10 452.32 8.94
1 4 -9 70.33 3.77
1 4 -9 74.8 3.84
1 4 -9 74.64 4.08
1 4 -9 74.91 3.9
1 4 -8 267.13 7.26
1 4 -8 287.06 7.9
1 4 -8 261.92 7.23
1 4 -8 277.3 7.29
1 4 -8 265.95 6.91
1 4 -7 109.78 4.59
1 4 -7 120.02 4.61
1 4 -7 109.18 4.17
1 4 -7 111.27 4.27
1 4 -7 123.11 4.9
1 4 -6 123.35 4.16
1 4 -6 129.55 4.81
1 4 -6 119.61 4.19
1 4 -6 127.25 4.91
1 4 -6 133.52 4.28
1 4 -6 127.27 4.15
1 4 -5 590.64 8.53
1 4 -5 596.01 8.65
1 4 -5 591.03 8.53
1 4 -5 572.98 8.16
1 4 -4 513.63 7.52
1 4 -4 530.32 7.67
1 4 -4 517.37 7.56
1 4 -3 824.44 9.02
1 4 -3 791.13 8.62
1 4 -3 823.44 8.94
1 4 -3 787.91 8.9
1 4 -3 790.43 8.7
1 4 -2 999.05 9.64
1 4 -2 976.29 9.29
1 4 -2 974.96 9.41
1 4 -1 189.56 4.19
1 4 -1 187.12 4.06
1 4 -1 186 4.06
1 4 -1 177.36 4.07
1 4 -1 191.43 4.08
1 4 0 119.38 3.24
1 4 0 119.25 3.36
1 4 1 167.79 3.94
1 4 1 173.32 4.07
1 4 2 99.71 3.21
1 4 2 104.63 3.18
1 4 3 710.02 9.01
1 4 4 699.47 11.07
1 4 4 717.28 10.06
1 4 4 699.6 11.12
1 4 5 359.89 8.11
1 4 5 337.99 8.04
1 4 6 94.5 4.29
1 4 6 95.97 4.41
1 4 7 563.58 10.37
1 4 7 592.33 10.94
1 4 8 881.64 12.68
1 4 8 822.41 11.83
1 4 9 243.05 5.82
1 4 10 75.31 2.64
1 5 -12 6.35 0.78
1 5 -11 39.08 2.25
1 5 -11 44.27 2.47
1 5 -10 100.28 4.17
1 5 -10 98 4.07
1 5 -9 149.9 5.39
1 5 -9 149.74 5.37
1 5 -9 137.58 5.45
1 5 -8 338.28 8.32
1 5 -8 345.32 8.54
1 5 -8 319.24 8.25
1 5 -8 320.22 8.19
1 5 -7 558.76 10.8
1 5 -7 555.62 10.61
1 5 -7 557.63 11.01
1 5 -7 544.42 10.97
1 5 -7 542.63 10.21
1 5 -7 554.48 10.42
1 5 -6 532.44 10.19
1 5 -6 525.9 10.59
1 5 -6 508.36 10.17
1 5 -6 503.87 9.81
1 5 -6 507.64 9.35
1 5 -6 523.74 9.71
1 5 -5 67.94 3.2
1 5 -5 66.33 3.58
1 5 -5 65.24 3.35
1 5 -5 63.56 3.49
1 5 -5 66.93 3.33
1 5 -5 62.9 3.15
1 5 -5 64.45 3.23
1 5 -4 209.08 5.33
1 5 -4 210.01 5.63
1 5 -4 205.1 5.39
1 5 -4 216.52 5.67
1 5 -3 587.27 8.62
1 5 -3 616.18 9.25
1 5 -3 597.52 8.83
1 5 -3 621.93 9.36
1 5 -2 773.55 9.77
1 5 -2 777.69 10.08
1 5 -2 761.78 9.7
1 5 -2 788.38 10.22
1 5 -1 445.79 7.39
1 5 -1 473.29 7.76
1 5 0 144.8 4.24
1 5 1 193.07 5.02
1 5 3 274.98 6.14
1 5 3 270.16 7.28
1 5 3 279.19 7.03
1 5 4 106.83 3.9
1 5 4 98.76 4.53
1 5 4 104.78 4.43
1 5 5 14.15 1.66
1 5 6 323.68 7.72
1 5 7 85.15 3.78
1 5 8 282.01 6.3
1 5 9 29.67 1.79
1 6 -11 38.32 1.96
1 6 -10 120.37 4.19
1 6 -10 115.61 4.06
1 6 -9 92.23 4.02
1 6 -9 89.38 3.94
1 6 -8 371.07 8.5
1 6 -8 350.29 8.95
1 6 -8 351.49 8.3
1 6 -7 625.03 11.29
1 6 -7 642.05 11.72
1 6 -7 623.73 11.77
1 6 -7 611.45 11.75
1 6 -6 338.6 8.45
1 6 -6 335.95 8.3
1 6 -6 361.09 9
1 6 -6 329.32 8.34
1 6 -6 337.09 8.55
1 6 -5 135.27 5.4
1 6 -5 131.8 5.14
1 6 -5 130.35 5.12
1 6 -5 141.11 5.42
1 6 -4 382.6 9.01
1 6 -4 347.79 8.23
1 6 -4 352.98 8.19
1 6 -4 378.14 8.47
1 6 -3 331.41 8.59
1 6 -3 325.53 7.91
1 6 -3 316.02 8.05
1 6 -2 1133.19 16.08
1 6 -2 1150.78 14.98
1 6 -2 1188.77 15.19
1 6 -1 154.86 5.52
1 6 -1 170.22 5.71
1 6 0 57.01 3.41
1 6 0 69.9 3.66
1 6 1 83.74 4.05
1 6 1 83.48 3.88
1 6 2 34.39 2.66
1 6 2 34.93 2.51
1 6 3 128.05 5.11
1 6 3 128.1 4.82
1 6 4 131.96 5.17
1 6 4 132.96 4.96
1 6 5 255.12 6.73
1 6 6 81.9 3.58
1 6 7 345.05 6.74
1 6 8 73.3 2.77
1 7 -10 21.69 1.5
1 7 -9 17.42 1.59
1 7 -9 18.26 1.58
1 7 -8 20.44 1.87
1 7 -8 17.25 1.68
1 7 -7 35.01 2.57
1 7 -6 45.98 3.08
1 7 -6 38 3.05
1 7 -5 46.02 3.18
1 7 -5 35.47 2.65
1 7 -4 583.67 11.49
1 7 -4 551.99 10.57
1 7 -3 184.05 6.11
1 7 -3 190.79 6.22
1 7 -2 258.33 7.76
1 7 -2 240.95 6.96
1 7 -2 258.67 7.23
1 7 -1 84.55 4.18
1 7 -1 95.34 4.42
1 7 0 120.82 4.95
1 7 0 133.44 5.2
1 7 1 84.68 4.14
1 7 1 92.08 4.81
1 7 1 80.41 3.72
1 7 2 83.4 4.14
1 7 2 84.19 3.75
1 7 3 13.8 1.69
1 7 3 12.61 1.49
1 7 4 208.29 6.09
1 7 4 211.81 5.74
1 7 5 45.81 2.56
1 7 6 171.67 4.54
1 7 7 91.88 2.9
1 8 -8 157.55 4.36
1 8 -7 14.85 1.52
1 8 -6 197.99 5.85
1 8 -5 70.86 3.65
1 8 -4 107.87 4.6
1 8 -3 64.36 3.35
1 8 -2 309.19 7.52
1 8 -1 56.37 3.26
1 8 0 326.16 7.68
1 8 0 317.64 8.38
1 8 1 335.64 7.65
1 8 1 336.12 8.15
1 8 2 23.18 2.01
1 8 2 23.83 1.79
1 8 3 200.48 5.62
1 8 3 203.71 5.08
1 8 4 296.03 6.26
1 8 4 303.64 5.9
1 8 5 80.67 2.79
1 9 -7 93.15 2.9
1 9 -6 31.25 1.91
1 9 -5 105.9 3.76
1 9 -4 74.18 3.29
1 9 -3 161.6 4.45
1 9 -3 170.39 5.02
1 9 -2 128.16 4.16
1 9 -2 127.87 4.71
1 9 -1 144.48 4.49
1 9 -1 145.07 4.9
1 9 0 260.47 5.93
1 9 0 245.93 6.01
1 9 1 67.88 2.95
1 9 2 149.79 4.16
1 9 3 61.9 2.43
2 -10 2 9.57 0.95
2 -9 4 245.07 5.8
2 -9 5 122.73 3.85
2 -9 6 32.45 1.78
2 -9 6 30.49 1.72
2 -8 -2 25.08 2.29
2 -8 -1 100.11 4.61
2 -8 0 31.03 2.72
2 -8 0 42.88 3.08
2 -8 1 37.99 3.05
2 -8 1 43.58 3.16
2 -8 2 106.89 5.17
2 -8 2 124.97 5.2
2 -8 2 119.96 5.32
2 -8 3 99.38 5
2 -8 3 108.89 4.96
2 -8 3 112.88 5.35
2 -8 4 105.26 4.97
2 -8 5 135.44 4.76
2 -8 5 129.8 4.66
2 -8 6 87.71 3.62
2 -8 7 13.82 1.32
2 -8 7 10.35 1.18
2 -7 -3 263.39 7.43
2 -7 -2 1328.04 15.64
2 -7 -2 1228.94 16.06
2 -7 -1 491.19 9.58
2 -7 -1 456.69 9.81
2 -7 -1 467.35 9.53
2 -7 0 510.52 10.02
2 -7 0 495.85 10.3
2 -7 0 498.85 9.97
2 -7 1 165.44 5.97
2 -7 1 162.87 5.97
2 -7 1 168.59 5.87
2 -7 2 554.95 11.26
2 -7 2 559.25 11.27
2 -7 2 577.81 11.03
2 -7 3 176.06 6.53
2 -7 3 176.5 6.17
2 -7 3 175.96 6.21
2 -7 3 182.92 6.58
2 -7 4 239.3 7.67
2 -7 4 244.29 7.46
2 -7 4 250.93 7.37
2 -7 4 234.05 7.72
2 -7 5 184.36 6.81
2 -7 5 183.66 6.74
2 -7 5 194.3 6.35
2 -7 5 186.68 6.94
2 -7 6 17.37 1.86
2 -7 6 16.2 1.8
2 -7 7 8.97 1.29
2 -7 7 9.32 1.3
2 -7 7 8 1.23
2 -7 8 70.97 3.05
2 -7 8 71.4 3.13
2 -7 8 66.35 3
2 -6 -6 870.39 13.41
2 -6 -4 120.57 4.86
2 -6 -3 67.82 3.42
2 -6 -3 66.64 3.53
2 -6 -2 203.94 5.47
2 -6 -2 185.55 5.58
2 -6 -2 189.09 5.82
2 -6 -1 209.97 5.53
2 -6 -1 200.94 5.83
2 -6 -1 190.88 5.79
2 -6 0 662.58 9.98
2 -6 0 661.27 9.36
2 -6 0 650.36 10.48
2 -6 0 660.36 10.41
2 -6 1 335.27 7.52
2 -6 1 347.48 6.82
2 -6 1 331.1 7.64
2 -6 1 334.43 7.94
2 -6 1 339.37 7.58
2 -6 2 43.11 2.89
2 -6 2 48.72 2.62
2 -6 2 42.67 2.84
2 -6 2 39.55 2.83
2 -6 2 44.33 2.84
2 -6 3 357.17 8.64
2 -6 3 363.36 7.35
2 -6 3 346.28 8.46
2 -6 3 343.99 8.8
2 -6 3 367.97 8.51
2 -6 4 476.57 10.24
2 -6 4 468.43 8.88
2 -6 4 474.65 9.89
2 -6 4 482.05 10.5
2 -6 4 480.99 10.57
2 -6 5 48.91 3.42
2 -6 5 47.37 3.32
2 -6 5 49.61 3.42
2 -6 5 47.15 3.46
2 -6 6 264.26 8.23
2 -6 6 263.04 7.77
2 -6 6 253.04 7.38
2 -6 6 256.18 7.95
2 -6 7 60.71 4.01
2 -6 7 62.23 3.53
2 -6 7 62.06 3.64
2 -6 7 65.54 3.62
2 -6 7 58.54 3.81
2 -6 8 0.68 0.53
2 -6 8 0.45 0.45
2 -6 9 86.42 3.2
2 -6 9 96.4 3.7
2 -5 -8 13.13 1.47
2 -5 -7 39.29 2.68
2 -5 -7 38.68 2.45
2 -5 -6 238.01 5.8
2 -5 -6 254.6 6.51
2 -5 -5 189.88 5.44
2 -5 -4 67.84 3.23
2 -5 -3 394.93 7.25
2 -5 -3 387.32 7.48
2 -5 -2 260.07 5.25
2 -5 -2 245.78 5.65
2 -5 -2 246.88 5.81
2 -5 -1 64.11 2.59
2 -5 -1 69.16 2.8
2 -5 -1 63.06 2.52
2 -5 -1 61.87 2.82
2 -5 -1 63.93 2.92
2 -5 0 382.01 6.21
2 -5 0 388.41 6.79
2 -5 0 375.76 6.98
2 -5 0 373.39 7.04
2 -5 1 316.13 6.49
2 -5 1 310.31 5.73
2 -5 1 313.1 6.62
2 -5 1 303.15 6.38
2 -5 1 314.94 6.52
2 -5 2 81.5 3.55
2 -5 2 92.86 3.18
2 -5 2 84.95 3.63
2 -5 2 90.57 3.66
2 -5 2 89.78 3.61
2 -5 3 249.03 6.54
2 -5 3 233.75 5.23
2 -5 3 240.19 6.27
2 -5 3 237.85 6.23
2 -5 4 530.12 10.04
2 -5 4 544.16 8.38
2 -5 4 537.49 9.71
2 -5 4 525.89 11
2 -5 4 551.46 10.49
2 -5 5 118.7 5.07
2 -5 5 121.13 4.31
2 -5 5 119.32 4.99
2 -5 5 115.51 5.26
2 -5 5 121.31 5.19
2 -5 6 587.45 11.87
2 -5 6 605.09 12.11
2 -5 6 590.23 11.76
2 -5 7 301.18 8.86
2 -5 7 302.1 8.17
2 -5 7 296.68 8.17
2 -5 7 306.9 8.54
2 -5 7 312.96 8.78
2 -5 8 138.61 5.16
2 -5 8 132.58 5.16
2 -5 8 136.51 5.41
2 -5 8 135.91 5.99
2 -5 9 69.07 3.24
2 -5 9 70.48 3.56
2 -5 10 8.63 1.08
2 -5 10 9.7 1.14
2 -4 -9 45.45 2.73
2 -4 -8 253.48 6.69
2 -4 -8 264.56 6.42
2 -4 -7 206.23 5.66
2 -4 -7 200.33 5.27
2 -4 -7 189.36 6.05
2 -4 -6 271.7 6.26
2 -4 -6 270.78 6.23
2 -4 -6 287.13 6.71
2 -4 -5 427.34 7.63
2 -4 -5 438.07 8.06
2 -4 -4 289.96 5.77
2 -4 -4 292.3 5.42
2 -4 -3 84.58 3.02
2 -4 -3 74.88 2.68
2 -4 -2 394.81 6.16
2 -4 -2 398.23 6.38
2 -4 -2 395.5 5.97
2 -4 -1 305.58 5.16
2 -4 -1 297.73 5.31
2 -4 -1 292.38 5.34
2 -4 -1 302.88 5.04
2 -4 0 1518.32 12.13
2 -4 0 1505.31 12.19
2 -4 0 1486.7 11.02
2 -4 1 693.08 8.56
2 -4 1 683.04 8.3
2 -4 1 694.09 8.58
2 -4 1 704.82 8.81
2 -4 2 547.1 8.28
2 -4 2 564.59 7.06
2 -4 2 565.68 7.99
2 -4 2 579.81 8.42
2 -4 3 480.78 8.41
2 -4 3 483.75 8.14
2 -4 3 483.17 8.35
2 -4 4 394.5 7.92
2 -4 4 361.16 6.2
2 -4 4 373.32 7.63
2 -4 4 382.1 8.09
2 -4 5 495.06 9.66
2 -4 5 475.74 9.33
2 -4 5 498.58 8.04
2 -4 5 488.55 10.08
2 -4 5 467.14 10.59
2 -4 5 494.86 9.6
2 -4 6 209.5 6.83
2 -4 6 200.91 5.75
2 -4 6 198.13 6.74
2 -4 6 209.73 7.21
2 -4 6 209.21 6.72
2 -4 7 438.6 10.61
2 -4 7 427.57 9.89
2 -4 7 431.13 10.01
2 -4 7 427.89 10.44
2 -4 7 434.05 10.16
2 -4 8 583.84 11.11
2 -4 8 588.35 11.86
2 -4 8 550.71 11.71
2 -4 8 587.48 12.63
2 -4 9 5.26 1.11
2 -4 10 39.6 2.52
2 -4 10 37.74 2.41
2 -3 -12 53.42 2.11
2 -3 -9 148.84 4.86
2 -3 -8 802.09 10.72
2 -3 -8 731.59 12.22
2 -3 -7 855.47 10.83
2 -3 -7 839.77 10.24
2 -3 -7 847.04 10.44
2 -3 -7 871.77 11.94
2 -3 -6 122.59 3.91
2 -3 -6 128.24 4.02
2 -3 -6 129.7 4.03
2 -3 -5 427.16 7.03
2 -3 -5 449.16 7.43
2 -3 -4 298.95 5.03
2 -3 -3 566.44 6.75
2 -3 -2 424.45 5.48
2 -3 -2 422.16 5.59
2 -3 -1 632.53 6.33
2 -3 -1 657.63 5.48
2 -3 -1 653.64 6.89
2 -3 -1 626.43 6.79
2 -3 0 845.93 7.67
2 -3 0 851 8.07
2 -3 0 859.59 7.98
2 -3 0 867.72 8.39
2 -3 1 3103.97 16.35
2 -3 1 2935.76 15.48
2 -3 1 3037.53 15.92
2 -3 1 3025.51 16.5
2 -3 1 2921.95 13.81
2 -3 2 781.83 8.96
2 -3 2 749.02 7.24
2 -3 2 778.48 8.98
2 -3 2 800.78 9.19
2 -3 2 724.64 8.22
2 -3 3 1495.44 13.31
2 -3 3 1491.47 10.85
2 -3 3 1503.25 13.4
2 -3 4 26.03 1.54
2 -3 4 26.6 1.99
2 -3 4 24.99 1.96
2 -3 5 211.21 6.03
2 -3 5 213.08 4.84
2 -3 5 219.6 6.01
2 -3 5 209.06 5.9
2 -3 6 1080.42 15.04
2 -3 6 1086.64 15.69
2 -3 6 1067.55 15.38
2 -3 6 1089.96 12.42
2 -3 6 1075.06 14.52
2 -3 7 1030.07 15.76
2 -3 7 1028.44 15.4
2 -3 7 993.95 14.07
2 -3 7 1015.43 16
2 -3 7 1033.3 15.13
2 -3 7 989.08 15.24
2 -3 8 530.48 10.81
2 -3 8 535.39 11.56
2 -3 8 514.04 11.17
2 -3 8 524.69 11.8
2 -3 9 26.52 2.43
2 -3 9 26.21 2.44
2 -3 9 25.75 2.66
2 -3 10 22.88 2.01
2 -3 10 21.55 1.98
2 -3 11 42.44 2.12
2 -3 11 47.86 2.34
2 -2 -12 338.68 5.89
2 -2 -11 27.31 1.96
2 -2 -10 175.03 5.24
2 -2 -9 2705.1 21.94
2 -2 -9 2740.81 20.06
2 -2 -8 165.62 4.61
2 -2 -8 164.55 4.61
2 -2 -8 178.78 5.67
2 -2 -7 1549.47 13.58
2 -2 -7 1521.25 13.09
2 -2 -7 1563.1 13.15
2 -2 -6 427.79 6.62
2 -2 -6 437.47 6.77
2 -2 -6 429.71 6.66
2 -2 -5 211.94 4.51
2 -2 -5 220.69 4.67
2 -2 -5 222.37 4.14
2 -2 -4 3580.85 14.01
2 -2 -4 3610.36 18.02
2 -2 -4 3591.74 17.16
2 -2 -4 3556.24 18.07
2 -2 -3 745.36 5.14
2 -2 -3 753.44 6.38
2 -2 -2 210.57 3.25
2 -2 -2 212.59 3.36
2 -2 -1 416.06 4.71
2 -2 -1 411.77 4.81
2 -2 0 1699.31 10.16
2 -2 0 1709.57 10.71
2 -2 1 250.5 4.26
2 -2 1 257.52 4.52
2 -2 1 258.89 4.64
2 -2 1 245.86 3.71
2 -2 2 1372.76 10.82
2 -2 2 1383.7 9.06
2 -2 2 1382.53 11.32
2 -2 2 1346.18 11.59
2 -2 3 695.62 6.85
2 -2 3 678.93 8.75
2 -2 3 690.43 8.64
2 -2 4 158.17 4.59
2 -2 4 160.54 3.53
2 -2 4 162.43 4.58
2 -2 4 156.31 4.54
2 -2 5 2491.47 20.19
2 -2 5 2500.38 15.44
2 -2 5 2475.18 19.6
2 -2 6 353.67 8.98
2 -2 6 356.2 6.77
2 -2 6 361.43 9.43
2 -2 6 380.97 8.28
2 -2 6 381.81 9.13
2 -2 6 374.71 8.59
2 -2 7 557.52 11.46
2 -2 7 560.24 11.97
2 -2 7 585.82 11.16
2 -2 7 590 11.78
2 -2 8 217.49 6.95
2 -2 8 214.67 7.42
2 -2 8 229.2 7.31
2 -2 8 216.27 7.49
2 -2 9 22.96 2.31
2 -2 9 22.26 2.53
2 -2 10 94.58 4.19
2 -2 10 92.76 4.07
2 -2 11 116.7 3.81
2 -1 -13 39.74 1.75
2 -1 -12 82.15 3.05
2 -1 -12 75.69 3.1
2 -1 -11 97.94 3.85
2 -1 -10 477.32 8.66
2 -1 -10 453.12 8.84
2 -1 -9 81.24 4.26
2 -1 -9 77.2 3.63
2 -1 -9 81.35 3.41
2 -1 -9 86.35 3.57
2 -1 -8 541.85 9.57
2 -1 -8 518.79 7.89
2 -1 -8 525.24 7.98
2 -1 -8 539.87 8.03
2 -1 -8 517.97 9.31
2 -1 -7 351.52 6.83
2 -1 -7 345.62 5.84
2 -1 -7 352.06 6
2 -1 -7 342.76 5.86
2 -1 -6 364.04 6.08
2 -1 -6 360.45 5.55
2 -1 -6 376.38 5.95
2 -1 -6 368.84 5.64
2 -1 -5 139.02 3.26
2 -1 -5 132.43 3.15
2 -1 -5 137.45 3.21
2 -1 -5 137.46 3.4
2 -1 -5 144.74 3.41
2 -1 -4 755.89 7.39
2 -1 -4 734.13 6.98
2 -1 -4 747.56 7.54
2 -1 -3 792.39 7.4
2 -1 -3 778.74 6.99
2 -1 -2 590.53 4.41
2 -1 -2 558.07 5.8
2 -1 -1 1585.19 9.67
2 -1 0 698.99 6.5
2 -1 1 1674.88 11.35
2 -1 1 1710.33 10.52
2 -1 1 1636.51 8.83
2 -1 1 1755.51 11.25
2 -1 2 98.31 2.84
2 -1 2 95.15 2.17
2 -1 2 93.98 2.57
2 -1 2 97.18 2.98
2 -1 2 96.98 2.88
2 -1 3 91.67 3.1
2 -1 3 96.58 3.15
2 -1 3 92.1 2.65
2 -1 3 97.34 3.15
2 -1 4 3114.26 20.14
2 -1 4 3107.76 14.04
2 -1 4 3145.05 18.75
2 -1 4 3152.64 19.76
2 -1 5 245.97 5.63
2 -1 5 249.44 4.6
2 -1 5 253.76 6.17
2 -1 5 245.5 6.28
2 -1 6 276.25 8.13
2 -1 6 297.48 7.2
2 -1 6 287.79 7.37
2 -1 7 124.02 5.08
2 -1 7 109.19 5.04
2 -1 7 117.39 5.43
2 -1 7 117.81 4.93
2 -1 7 117.5 5.22
2 -1 8 473.25 9.88
2 -1 8 484.26 10.91
2 -1 8 444.23 10.66
2 -1 8 482.64 10.51
2 -1 8 465.06 11.03
2 -1 9 22.19 2.29
2 -1 9 22.66 2.29
2 -1 9 21.61 2.45
2 -1 10 6.66 1.14
2 -1 10 3.09 0.82
2 -1 11 55.08 2.63
2 0 -13 12.61 1.05
2 0 -12 198.56 4.87
2 0 -12 198.08 5.25
2 0 -11 30.68 2.24
2 0 -10 830.14 11.28
2 0 -10 866.76 12.2
2 0 -10 867.57 12.26
2 0 -9 130.38 5.2
2 0 -9 140.14 4.37
2 0 -9 140.81 4.55
2 0 -9 143.81 4.63
2 0 -9 132.94 5.15
2 0 -8 467.21 8.77
2 0 -8 465.81 7.28
2 0 -8 465.93 7.45
2 0 -8 460.44 7.4
2 0 -7 663.52 7.78
2 0 -7 686.73 8.08
2 0 -7 673.63 7.91
2 0 -6 424.84 5.76
2 0 -6 439.1 6.02
2 0 -6 440.48 5.91
2 0 -5 752.49 7.07
2 0 -5 773.72 7.8
2 0 -5 769.81 7.16
2 0 -5 763.63 7.31
2 0 -4 1230.36 8.64
2 0 -4 1232.54 8.24
2 0 -4 1296.53 8.76
2 0 -4 1319.29 9.01
2 0 -4 1219.43 8.82
2 0 -4 1253.2 8.79
2 0 -3 1042.3 7.79
2 0 -3 1066.15 7.58
2 0 -3 1065.15 7.3
2 0 -3 1026.96 7.69
2 0 -2 521.1 5.38
2 0 -2 535.24 5.37
2 0 -2 534.46 5.25
2 0 -1 2018.38 10.47
2 0 -1 1916.06 10.13
2 0 0 137.78 2.8
2 0 1 525.35 5.6
2 0 1 505.96 5.92
2 0 1 519.19 6
2 0 2 4194.99 13.01
2 0 2 4145.79 15.87
2 0 2 4298.76 18.77
2 0 2 4153.07 9.53
2 0 2 4106.3 18.61
2 0 2 4368.47 19.06
2 0 3 152.85 3.79
2 0 3 146.01 3.85
2 0 3 145 3.9
2 0 4 1170.85 11.15
2 0 4 1154.93 11.93
2 0 4 1152.81 12.25
2 0 5 45.73 2.35
2 0 5 38.47 2.4
2 0 5 40.76 2.59
2 0 6 749.5 12.2
2 0 6 659.73 12.13
2 0 6 603.87 8.97
2 0 6 658.34 12.49
2 0 6 690.46 10.91
2 0 6 715.15 12.8
2 0 6 699.38 11.61
2 0 7 87.98 4.66
2 0 7 96.32 4.49
2 0 7 88.29 4.7
2 0 7 87.26 4.21
2 0 7 85.48 4.48
2 0 8 109.03 4.73
2 0 8 107.03 5.09
2 0 8 107.58 5.14
2 0 8 107.11 4.93
2 0 8 103.87 5.17
2 0 9 298.86 7.15
2 0 9 306.76 8.14
2 0 9 295.61 8.02
2 0 10 32.61 2.39
2 0 11 187.53 4.66
2 1 -13 76.56 2.52
2 1 -13 80.25 2.87
2 1 -12 64.72 2.75
2 1 -12 64.26 3.03
2 1 -11 134 4.35
2 1 -11 135.52 4.68
2 1 -10 739.64 10.66
2 1 -10 755.51 11.68
2 1 -10 777.95 11.56
2 1 -9 212.86 6.16
2 1 -9 227.73 6.1
2 1 -9 235.77 6.99
2 1 -9 217.88 5.34
2 1 -9 221.98 5.8
2 1 -9 227.38 5.94
2 1 -9 208.7 6.46
2 1 -8 357.21 7.71
2 1 -8 340.55 6.1
2 1 -8 351.2 6.55
2 1 -8 349.82 6.61
2 1 -7 80.32 3.25
2 1 -7 82.2 2.7
2 1 -7 86.59 2.9
2 1 -7 91.42 3
2 1 -6 143.18 3.41
2 1 -6 133.78 3.73
2 1 -6 127.99 3
2 1 -6 134.73 3.27
2 1 -6 133.56 3.25
2 1 -5 845.73 7.41
2 1 -5 822.77 7.18
2 1 -5 841.44 7.54
2 1 -5 829.88 7.35
2 1 -4 518.5 5.45
2 1 -4 539.36 5.46
2 1 -4 535.22 5.24
2 1 -4 531.54 5.54
2 1 -4 537.32 6.12
2 1 -4 510.53 5.37
2 1 -3 2003.34 10.44
2 1 -3 2045.6 10.25
2 1 -3 1989.74 9.16
2 1 -3 2044.93 11.13
2 1 -3 2084.33 10.35
2 1 -3 1978.42 9.86
2 1 -2 1517.18 8.67
2 1 -2 1500.58 8.67
2 1 -2 1519.48 7.24
2 1 -2 1498.18 8.25
2 1 0 6982.63 18.45
2 1 0 6946.37 20.68
2 1 0 6944.52 20.76
2 1 1 2593.86 11.64
2 1 1 2570.78 13.84
2 1 2 2326.1 7.53
2 1 2 2411.01 11.25
2 1 2 2376.8 13.85
2 1 2 2381.72 8.78
2 1 2 2374.69 14.42
2 1 2 2460.36 15.04
2 1 3 692.63 7.99
2 1 3 705.38 8.59
2 1 3 687.74 8.86
2 1 4 2754.13 16.93
2 1 4 2748.06 18.58
2 1 4 2727.52 19.56
2 1 5 412.83 7.03
2 1 5 396.18 7.73
2 1 5 392.53 8.11
2 1 6 83.89 4.15
2 1 6 80.34 4.3
2 1 6 80.04 4.18
2 1 6 89.9 3.57
2 1 6 80.96 4.32
2 1 6 85.89 3.9
2 1 6 88.64 4.2
2 1 7 49.81 3.25
2 1 7 43.42 3.25
2 1 7 46.45 3.36
2 1 7 46.81 3.11
2 1 7 46.13 3.29
2 1 8 31.29 2.53
2 1 8 29.64 2.65
2 1 8 29.93 2.66
2 1 8 28.88 2.54
2 1 9 204.16 5.86
2 1 9 209.36 6.47
2 1 10 10.08 1.31
2 1 11 145.77 3.8
2 2 -13 73.9 2.74
2 2 -12 156.37 4.13
2 2 -12 162.35 4.77
2 2 -11 66.21 2.98
2 2 -11 70.17 3.35
2 2 -10 1.09 0.55
2 2 -10 0.64 0.47
2 2 -10 0.39 0.45
2 2 -10 0.81 0.5
2 2 -10 0.48 0.45
2 2 -9 426.99 8.71
2 2 -9 419.96 8.4
2 2 -9 414.86 8.16
2 2 -9 418.97 8.4
2 2 -8 107.22 4.23
2 2 -8 107.34 3.38
2 2 -8 109.46 3.78
2 2 -8 111.32 3.92
2 2 -8 115.52 4.5
2 2 -8 114.94 4.25
2 2 -7 86.45 2.72
2 2 -7 81.47 3.39
2 2 -7 82.22 2.93
2 2 -7 80.26 2.97
2 2 -6 849.86 7.71
2 2 -6 849.08 8.72
2 2 -6 836.13 8.55
2 2 -6 855.46 9.94
2 2 -5 485.57 6.14
2 2 -5 490.82 6.15
2 2 -5 460.91 5.06
2 2 -5 466.2 5.92
2 2 -5 479.29 5.89
2 2 -5 455.62 6.55
2 2 -4 1974.64 11.53
2 2 -4 1964.44 12.52
2 2 -4 1995.01 11.19
2 2 -3 129.29 3.07
2 2 -3 137 2.87
2 2 -3 134.5 2.85
2 2 -3 141.46 2.76
2 2 -3 130.45 2.67
2 2 -2 393.04 4.66
2 2 -2 380.01 4.67
2 2 -2 391.53 4.89
2 2 -2 379.32 4.21
2 2 -2 387.26 4.22
2 2 -1 1216.62 8.26
2 2 -1 1229.73 7.07
2 2 0 49.23 1.64
2 2 0 51.91 1.73
2 2 0 50.47 1.87
2 2 1 1599.29 9.71
2 2 1 1564.73 11.05
2 2 1 1567.58 11.49
2 2 2 1305.54 9.14
2 2 2 1310.87 10.78
2 2 2 1310.46 11.26
2 2 3 60.01 2.45
2 2 3 53.68 2.49
2 2 4 544.42 7.77
2 2 4 545.22 8.62
2 2 5 299.59 7.54
2 2 5 305.92 6.19
2 2 5 298.61 7.89
2 2 5 284.48 7.73
2 2 5 302.82 6.88
2 2 6 84.69 3.54
2 2 6 96.94 4.63
2 2 6 96.3 4.22
2 2 7 30.71 2.54
2 2 7 26.49 2.49
2 2 7 25.91 2.32
2 2 8 260.28 7.03
2 2 8 275.94 7.67
2 2 9 53.01 2.88
2 2 9 51.62 3.04
2 2 10 129.88 4.12
2 2 10 118.52 3.58
2 3 -13 12.92 1.09
2 3 -12 188.35 4.94
2 3 -11 233.87 6.17
2 3 -11 214.46 5.77
2 3 -10 45.64 2.89
2 3 -10 45.24 2.82
2 3 -10 46.04 3.01
2 3 -10 45.9 3.13
2 3 -9 12.74 1.56
2 3 -9 15.15 1.69
2 3 -9 13.91 1.65
2 3 -8 103.3 4.23
2 3 -8 97.19 4.33
2 3 -8 109.46 4.36
2 3 -8 97.01 3.81
2 3 -8 99.48 3.91
2 3 -7 140.47 4.72
2 3 -7 141.09 4.32
2 3 -7 140.25 4.75
2 3 -7 142.76 4.27
2 3 -7 132.6 4.06
2 3 -7 142.2 4.86
2 3 -6 224.4 5.02
2 3 -6 220.27 5.52
2 3 -6 220.14 4.85
2 3 -6 219.5 4.8
2 3 -5 649.48 7.98
2 3 -5 657.3 8.08
2 3 -5 666.21 8.85
2 3 -5 640.8 7.58
2 3 -4 456.99 6.25
2 3 -4 458.06 6.38
2 3 -4 456.19 6.03
2 3 -4 465.9 6.12
2 3 -3 197.64 3.92
2 3 -3 199.2 3.97
2 3 -3 189.31 4.2
2 3 -3 197.98 3.76
2 3 -3 191.87 3.7
2 3 -2 1279.94 9.73
2 3 -2 1301.42 9.81
2 3 -2 1292.98 9.13
2 3 -1 83.17 2.46
2 3 -1 83.61 2.48
2 3 -1 82.03 2.55
2 3 0 564.44 6.4
2 3 0 554.36 6.47
2 3 0 563.84 6.85
2 3 1 37.11 1.7
2 3 1 38.38 1.76
2 3 1 35.09 1.79
2 3 2 312.41 5.19
2 3 2 296.98 5.47
2 3 2 303.86 5.77
2 3 3 265.87 5.48
2 3 3 263.39 5.78
2 3 4 140.35 5.04
2 3 4 146.16 4.3
2 3 4 149.74 4.67
2 3 5 663.78 11.32
2 3 5 666.88 9.63
2 3 5 678.49 11.81
2 3 6 82.94 4.12
2 3 6 77.51 4.08
2 3 7 133.66 5.14
2 3 7 138.64 5.36
2 3 8 7.24 1.16
2 3 8 22.61 2.06
2 3 9 19.86 1.76
2 3 9 20.47 1.69
2 3 10 30.42 1.63
2 4 -12 163.18 4.36
2 4 -11 214.56 5.72
2 4 -11 199.55 5.45
2 4 -10 270.27 6.88
2 4 -10 271.43 6.84
2 4 -10 263 7.2
2 4 -9 27.33 2.28
2 4 -9 25.69 2.21
2 4 -9 24.5 2.19
2 4 -9 29 2.44
2 4 -8 296.57 7.44
2 4 -8 293.99 7.25
2 4 -8 282.95 7.11
2 4 -8 298.5 7.47
2 4 -7 385.79 7.84
2 4 -7 373.21 8.1
2 4 -7 372.23 8.62
2 4 -7 390.48 8.57
2 4 -7 381.63 7.79
2 4 -7 380.08 7.71
2 4 -7 392.57 8.74
2 4 -6 1.11 0.55
2 4 -6 1.42 0.52
2 4 -6 2.63 0.71
2 4 -6 2.45 0.73
2 4 -6 2.34 0.72
2 4 -6 2.49 0.68
2 4 -5 81.27 3.17
2 4 -5 77.72 3.12
2 4 -5 75.25 3.05
2 4 -5 79.24 3.1
2 4 -4 477.45 7.27
2 4 -4 474.49 7.33
2 4 -4 482.51 7.2
2 4 -3 510.44 7.16
2 4 -3 513.27 7.29
2 4 -3 510.21 7.12
2 4 -2 230.69 4.79
2 4 -2 227.63 4.7
2 4 -2 231.22 4.66
2 4 -1 81.01 2.82
2 4 -1 62.39 2.49
2 4 0 82.17 2.91
2 4 0 86.21 2.99
2 4 0 89.74 3.07
2 4 1 111.48 3.47
2 4 1 108.41 3.42
2 4 1 108.17 3.48
2 4 2 286.32 5.92
2 4 3 229.96 6.46
2 4 3 222.34 5.48
2 4 4 26.19 2.26
2 4 4 30.82 2.49
2 4 5 19.49 1.98
2 4 5 30.66 2.5
2 4 6 60.89 3.42
2 4 6 61.33 3.56
2 4 7 100.34 4.16
2 4 8 120.62 4.19
2 4 9 68.56 2.73
2 5 -11 155.11 4.54
2 5 -11 139.85 4.29
2 5 -10 242.21 6.28
2 5 -10 234 6.13
2 5 -9 8.63 1.29
2 5 -9 7.26 1.19
2 5 -9 8.04 1.36
2 5 -8 371.25 8.62
2 5 -8 361.23 8.5
2 5 -8 356.44 8.55
2 5 -8 371.98 8.71
2 5 -7 11.66 1.5
2 5 -7 15.39 1.76
2 5 -7 12.59 1.6
2 5 -7 18.07 1.94
2 5 -7 13.32 1.62
2 5 -7 15.94 1.77
2 5 -6 84.27 4.04
2 5 -6 79.77 3.75
2 5 -6 86.56 4.06
2 5 -6 84.83 3.88
2 5 -6 80.02 3.77
2 5 -5 4.37 0.9
2 5 -5 4.36 0.96
2 5 -5 2.42 0.75
2 5 -5 4.22 0.87
2 5 -5 3.06 0.76
2 5 -4 714.57 11.82
2 5 -4 710.43 10.03
2 5 -4 734.15 11.05
2 5 -4 711.79 10.2
2 5 -4 711.99 10.28
2 5 -3 34.81 2.16
2 5 -3 33.63 2.16
2 5 -2 151.2 4.51
2 5 -1 805.36 10.38
2 5 0 436.98 7.69
2 5 0 440.32 8.66
2 5 1 419.81 8.67
2 5 2 209.22 6.21
2 5 2 217.68 6.47
2 5 3 2.23 0.72
2 5 3 2.12 0.73
2 5 4 1341.04 16.04
2 5 4 1361.35 16.54
2 5 5 51.55 3.11
2 5 6 3.83 0.9
2 5 7 129.08 4.3
2 5 8 340.41 6.18
2 6 -11 69.15 2.62
2 6 -10 61.61 2.92
2 6 -10 59.39 2.81
2 6 -9 14.9 1.61
2 6 -9 12.39 1.44
2 6 -8 285.7 7.12
2 6 -8 276.4 6.96
2 6 -8 260.69 7.7
2 6 -7 203.24 6.28
2 6 -7 201.09 6.23
2 6 -7 197.56 6.65
2 6 -7 187.65 6.55
2 6 -6 151.17 5.57
2 6 -6 143.36 5.28
2 6 -6 143.75 5.56
2 6 -6 146.07 5.68
2 6 -5 51.42 3.09
2 6 -5 50.18 3.24
2 6 -5 51.87 3.15
2 6 -5 60.04 3.54
2 6 -4 209.25 6.66
2 6 -4 197.72 5.89
2 6 -4 197.75 6.1
2 6 -4 209.97 6.41
2 6 -3 250.8 7.41
2 6 -3 268.09 6.77
2 6 -3 253.63 6.88
2 6 -3 268.39 7.28
2 6 -2 363.37 7.9
2 6 -2 354.54 8.15
2 6 -1 12.83 1.61
2 6 -1 13.67 1.67
2 6 0 644.95 11.1
2 6 1 95.11 4.33
2 6 2 510.09 10.04
2 6 2 507.68 9.61
2 6 3 271.83 7.33
2 6 3 278.12 7.06
2 6 4 52.17 3.14
2 6 4 53.04 3.08
2 6 5 0.74 0.49
2 6 6 59.05 2.85
2 6 7 377.44 6.34
2 6 8 32.2 1.51
2 7 -10 74.18 2.71
2 7 -9 3.49 0.74
2 7 -8 329.27 7.15
2 7 -7 466.09 9.14
2 7 -7 431.42 8.44
2 7 -6 641.38 11.23
2 7 -6 601.46 10.28
2 7 -5 600.56 11.13
2 7 -5 558.34 10.16
2 7 -4 293.56 7.91
2 7 -4 289.87 7.42
2 7 -4 291 7.42
2 7 -3 4.64 1.01
2 7 -3 3.42 0.89
2 7 -2 172.9 5.84
2 7 -2 177.64 5.88
2 7 -1 548.65 10.41
2 7 -1 565.39 10.53
2 7 0 86.77 4.12
2 7 1 189.61 6.01
2 7 2 22 2.05
2 7 2 23.3 1.91
2 7 3 142.39 4.99
2 7 3 136.06 4.45
2 7 4 16 1.59
2 7 4 14.47 1.43
2 7 5 135.39 4.01
2 7 6 31.24 1.71
2 8 -8 50.91 2.42
2 8 -7 7.87 1.09
2 8 -6 10.31 1.32
2 8 -5 160.91 5.28
2 8 -4 68.5 3.35
2 8 -4 70.35 3.27
2 8 -3 123.37 4.57
2 8 -3 127.23 4.53
2 8 -2 154.46 5.11
2 8 -1 4.58 0.93
2 8 0 136.22 4.69
2 8 1 88.09 3.74
2 8 2 21.08 1.79
2 8 3 116.07 3.9
2 8 3 106.71 3.25
2 8 4 83.72 2.88
2 8 4 82.36 2.62
2 9 -6 132.77 3.6
2 9 -5 29.84 1.85
2 9 -4 81.18 3.29
2 9 -3 31.3 1.84
2 9 -2 183.13 4.6
2 9 -1 142.06 4.09
2 9 0 296.75 5.81
2 9 1 398.59 6.43
2 9 2 67.87 2.45
3 -9 2 10.82 1.22
3 -9 3 27.04 1.85
3 -9 4 100.87 3.39
3 -9 4 100.73 3.35
3 -9 5 55.41 2.25
3 -8 -2 39.11 2.81
3 -8 -1 7.94 1.33
3 -8 -1 7.31 1.33
3 -8 0 459.69 9.8
3 -8 0 410.32 9.98
3 -8 1 54.64 3.45
3 -8 1 53.91 3.71
3 -8 2 3.03 0.9
3 -8 3 142.82 5
3 -8 4 82.73 3.71
3 -8 5 90.27 3.63
3 -8 5 85.76 3.58
3 -8 6 19.4 1.57
3 -8 6 17.58 1.49
3 -7 -3 42.38 2.88
3 -7 -2 454.82 9.55
3 -7 -1 341.06 8.9
3 -7 -1 378.73 8.9
3 -7 0 177.1 6.48
3 -7 0 183.45 6.14
3 -7 0 190.82 6.53
3 -7 1 271.23 7.6
3 -7 1 276.01 8.16
3 -7 2 87.1 4.41
3 -7 2 89.15 4.8
3 -7 3 54.37 3.63
3 -7 3 51.11 3.69
3 -7 4 359.29 8.51
3 -7 4 365.57 9.48
3 -7 4 355.1 9.23
3 -7 5 142.48 5.19
3 -7 6 132.47 4.69
3 -7 6 132.19 4.73
3 -7 7 20.84 1.72
3 -6 -5 572.55 10.6
3 -6 -4 162.28 5.88
3 -6 -3 1125.75 15.54
3 -6 -2 743.59 11.97
3 -6 -2 735.3 12.44
3 -6 -2 774.27 11.65
3 -6 -1 1377.49 15.35
3 -6 -1 1339.77 16.15
3 -6 -1 1361.93 16.91
3 -6 -1 1324.45 15.37
3 -6 0 147.48 4.98
3 -6 0 136.75 5.25
3 -6 0 137.95 5.12
3 -6 1 48.67 2.84
3 -6 1 42.23 2.97
3 -6 1 48.39 3.02
3 -6 1 46.65 3.11
3 -6 2 189.84 6.32
3 -6 2 197.69 5.75
3 -6 2 194.36 6.23
3 -6 2 198.45 6.75
3 -6 3 1113.67 15.77
3 -6 3 1166.65 16.22
3 -6 3 1125.94 16.5
3 -6 4 209.19 7.16
3 -6 4 211.7 6.9
3 -6 4 209.42 7.14
3 -6 4 205.79 6.96
3 -6 5 235.2 7.2
3 -6 5 234.58 7.62
3 -6 5 229.06 7.54
3 -6 6 86.97 4.21
3 -6 6 90.91 4.28
3 -6 6 94.54 4.83
3 -6 7 22.76 2.04
3 -6 7 19.21 1.85
3 -6 8 117.22 3.98
3 -6 9 66.94 2.59
3 -5 -8 340.92 7.3
3 -5 -7 28.34 2.28
3 -5 -7 40.14 2.48
3 -5 -6 1257.72 15.28
3 -5 -6 1272.58 15.18
3 -5 -5 512.68 10.23
3 -5 -4 228.43 6.57
3 -5 -4 206.02 6.04
3 -5 -3 374.73 7.53
3 -5 -3 385.18 8.06
3 -5 -2 291.14 6.64
3 -5 -2 289.98 6.95
3 -5 -2 289.06 6.45
3 -5 -1 11.31 1.27
3 -5 -1 10.58 1.33
3 -5 -1 11.88 1.35
3 -5 0 5.48 0.88
3 -5 0 5.56 0.99
3 -5 0 5.14 0.94
3 -5 1 66.2 2.96
3 -5 1 61.58 3.15
3 -5 1 64.34 3.41
3 -5 2 267.77 6.76
3 -5 2 291.61 6.35
3 -5 2 275.79 6.94
3 -5 2 275.82 7.38
3 -5 3 259.39 7.08
3 -5 3 247.29 5.91
3 -5 3 257.17 7.18
3 -5 3 251.88 7.32
3 -5 4 14.26 1.81
3 -5 4 14.69 1.53
3 -5 4 13.06 1.77
3 -5 4 14.34 1.88
3 -5 4 14.34 1.85
3 -5 5 635.47 12.63
3 -5 5 610.14 11.9
3 -5 5 620.99 12.12
3 -5 5 628.46 12.18
3 -5 6 585.41 12.48
3 -5 6 582.94 11.51
3 -5 6 598.87 11.55
3 -5 6 590.66 12.1
3 -5 7 60.26 3.48
3 -5 7 53.98 3.32
3 -5 7 55.3 3.69
3 -5 8 2.1 0.69
3 -5 9 88.15 3.14
3 -5 9 97.8 3.66
3 -4 -9 37.66 2.45
3 -4 -8 80.23 3.79
3 -4 -8 77.02 3.43
3 -4 -8 78.69 3.56
3 -4 -7 352.62 7.83
3 -4 -7 359.99 7.82
3 -4 -7 343.98 7.79
3 -4 -6 1102.5 13.54
3 -4 -6 1060.41 13.3
3 -4 -5 113.78 4.41
3 -4 -5 107.44 4.37
3 -4 -4 38.9 2.49
3 -4 -4 38.13 2.27
3 -4 -3 6.5 0.87
3 -4 -3 6.67 0.96
3 -4 -2 739.97 9.72
3 -4 -2 751.41 9.67
3 -4 -2 754.69 9.43
3 -4 -1 51.9 2.5
3 -4 -1 55.17 2.51
3 -4 -1 52.2 2.53
3 -4 0 1281.1 12.72
3 -4 0 1321.37 13.27
3 -4 0 1303.82 13.29
3 -4 0 1295.71 11.97
3 -4 1 135.26 3.83
3 -4 1 125.62 4.1
3 -4 1 128.32 4.25
3 -4 1 127.93 4.43
3 -4 2 463.9 8.27
3 -4 2 463.03 7.18
3 -4 2 455.23 8.37
3 -4 2 457.39 8.78
3 -4 3 44.68 2.76
3 -4 3 47.75 2.41
3 -4 3 43.93 3.03
3 -4 3 44.94 2.88
3 -4 4 59.65 3.45
3 -4 4 64.76 2.97
3 -4 4 60.65 3.51
3 -4 4 56.98 3.17
3 -4 4 59.33 3.65
3 -4 4 61.26 3.45
3 -4 5 477.6 10.52
3 -4 5 489.38 10.28
3 -4 5 481.17 10.59
3 -4 5 500.42 8.95
3 -4 5 460.77 10.37
3 -4 5 495.87 10.4
3 -4 6 922.93 15.42
3 -4 6 923.24 14.68
3 -4 6 928.2 14.71
3 -4 6 937.3 14.11
3 -4 6 967.01 15.25
3 -4 7 3.95 1.16
3 -4 7 2.29 0.8
3 -4 7 2.81 0.98
3 -4 8 108.71 4.54
3 -4 8 104.75 4.55
3 -4 9 74.72 3.49
3 -4 10 77.94 2.86
3 -3 -11 39.42 2.16
3 -3 -9 129.52 4.47
3 -3 -9 132.28 4.57
3 -3 -8 315.55 7.25
3 -3 -8 303.44 6.61
3 -3 -8 312.2 6.9
3 -3 -7 266.54 6.39
3 -3 -7 276.11 6.56
3 -3 -7 265.83 6.42
3 -3 -6 4.27 0.8
3 -3 -6 2.23 0.61
3 -3 -6 4.1 0.84
3 -3 -5 182.72 5.18
3 -3 -5 185.79 5.03
3 -3 -5 186.04 5.18
3 -3 -4 287.49 6.1
3 -3 -3 3.21 0.66
3 -3 -3 2.73 0.53
3 -3 -3 4.17 0.73
3 -3 -2 856.37 8.88
3 -3 -2 878.46 9.41
3 -3 -1 288.26 5.64
3 -3 -1 273.61 5.32
3 -3 0 493.68 7.63
3 -3 0 486.83 6.66
3 -3 1 128.38 3.72
3 -3 1 129.52 4.18
3 -3 1 132.03 3.46
3 -3 2 736.8 8.41
3 -3 2 706.4 10.1
3 -3 2 730.57 10.31
3 -3 3 503.9 8.74
3 -3 3 520.43 7.41
3 -3 3 493.03 8.3
3 -3 3 504.9 9.06
3 -3 3 500.94 8.74
3 -3 4 30.71 2.37
3 -3 4 26.43 2.38
3 -3 4 32.48 1.94
3 -3 4 24.22 2.29
3 -3 4 27.6 2.26
3 -3 4 27.21 2.18
3 -3 5 1788.97 19.53
3 -3 5 1838.23 20.37
3 -3 5 1748.38 15.72
3 -3 5 1810.12 20.24
3 -3 5 1813.11 18.32
3 -3 5 1891.34 19.48
3 -3 6 22.99 2.34
3 -3 6 26.03 2.29
3 -3 6 24.09 2.37
3 -3 6 24.41 2.48
3 -3 7 1415.47 17.92
3 -3 7 1449.47 19.04
3 -3 7 1450.69 18.88
3 -3 7 1435.37 19.72
3 -3 8 77.21 3.87
3 -3 8 75.32 4.02
3 -3 8 79.7 4.15
3 -3 8 68.47 4.11
3 -3 8 72.67 4.54
3 -3 9 24.6 2.11
3 -3 9 22.72 1.96
3 -3 10 72.83 3
3 -2 -12 87.36 3.02
3 -2 -11 144.09 4.43
3 -2 -10 101.74 4.02
3 -2 -10 94.67 3.96
3 -2 -9 723.13 10.38
3 -2 -9 726.34 10.53
3 -2 -8 348.14 7.16
3 -2 -8 333.02 6.69
3 -2 -8 347.59 7.02
3 -2 -8 361.91 7.2
3 -2 -7 380.59 7.11
3 -2 -7 378.14 7.06
3 -2 -7 359.26 6.85
3 -2 -6 471.41 7.53
3 -2 -6 472.42 7.52
3 -2 -6 476.35 7.64
3 -2 -6 472.8 7.75
3 -2 -5 362.97 6.52
3 -2 -5 371.51 6.65
3 -2 -4 4593.48 22.09
3 -2 -4 4619.93 22.57
3 -2 -3 255.28 5.23
3 -2 -3 262.61 5.17
3 -2 -2 122.87 3.49
3 -2 -2 114.98 3.35
3 -2 -1 35.98 1.86
3 -2 -1 37.47 1.92
3 -2 -1 36.02 1.84
3 -2 0 575.01 7.55
3 -2 0 563.55 7.81
3 -2 0 550.58 7.37
3 -2 1 1268.39 11.19
3 -2 1 1346.59 11.86
3 -2 1 1290.52 12.33
3 -2 1 1321.29 12.02
3 -2 1 1317.39 10.22
3 -2 2 898.21 10.32
3 -2 2 880.88 8.51
3 -2 2 854.92 9.82
3 -2 2 879.45 10.69
3 -2 2 913.4 10.67
3 -2 3 50.62 2.69
3 -2 3 44.31 2.03
3 -2 3 48.56 2.44
3 -2 3 53.97 2.82
3 -2 3 52.76 2.77
3 -2 4 1175.82 10.85
3 -2 4 1142.18 13.41
3 -2 4 1124.98 13.4
3 -2 4 1131.88 13.91
3 -2 5 933 14.41
3 -2 5 907.17 10.52
3 -2 5 891.17 12.24
3 -2 5 931.86 13.15
3 -2 5 888.14 13.5
3 -2 6 764.28 13.3
3 -2 6 780.97 11.93
3 -2 6 794.73 13.19
3 -2 6 763.45 13.53
3 -2 7 124.6 5.34
3 -2 7 126.66 5.69
3 -2 7 116.85 5.31
3 -2 7 118.23 5.64
3 -2 8 418.05 8.6
3 -2 8 408.54 9.55
3 -2 8 404.91 9.52
3 -2 8 386.59 9.71
3 -2 8 418.93 10.79
3 -2 9 2.09 0.71
3 -2 9 7.71 1.19
3 -2 10 39.91 2.31
3 -2 10 34.08 2.01
3 -1 -13 459.29 5.83
3 -1 -12 220.5 5.16
3 -1 -11 3.95 0.83
3 -1 -10 407.21 7.99
3 -1 -10 422.84 8.32
3 -1 -9 942.37 12.28
3 -1 -9 914.95 11.42
3 -1 -9 945.93 11.77
3 -1 -9 956.68 12.05
3 -1 -8 576.81 8.52
3 -1 -8 592.98 8.75
3 -1 -7 679.63 8.86
3 -1 -7 664.46 8.66
3 -1 -7 663.7 8.84
3 -1 -6 115.11 3.44
3 -1 -6 112.52 3.38
3 -1 -6 115.42 3.51
3 -1 -6 107.23 3.34
3 -1 -6 110.9 3.49
3 -1 -5 312.69 5.18
3 -1 -5 301.68 5.45
3 -1 -5 318.18 5.39
3 -1 -5 321.17 5.49
3 -1 -5 313.23 5.5
3 -1 -5 314.7 5.55
3 -1 -4 2479.54 15.25
3 -1 -4 2499.05 14.86
3 -1 -4 2446.66 13.26
3 -1 -4 2446.96 14.97
3 -1 -3 2044.25 13.51
3 -1 -3 2062.57 13.44
3 -1 -2 711.19 7.85
3 -1 -2 696.46 7.81
3 -1 -1 98.3 2.93
3 -1 -1 90.83 2.77
3 -1 -1 95.06 2.93
3 -1 -1 90.38 2.63
3 -1 0 111.87 3.14
3 -1 0 116.91 3.38
3 -1 0 112.56 3.15
3 -1 0 116.16 3.18
3 -1 1 987.36 9.63
3 -1 1 1007.61 10.04
3 -1 1 998.65 8.39
3 -1 1 989.37 9.46
3 -1 2 1515.74 10.47
3 -1 2 1492.38 11.92
3 -1 2 1581.51 12.57
3 -1 2 1562.41 13.45
3 -1 2 1529.86 13.46
3 -1 3 64.23 2.25
3 -1 3 61.26 2.53
3 -1 3 64.75 2.9
3 -1 3 64.2 2.94
3 -1 3 61.78 2.93
3 -1 4 423.7 6
3 -1 4 406.78 7.7
3 -1 4 404.04 7.92
3 -1 4 406.19 8.15
3 -1 5 517.06 10.72
3 -1 5 527.64 9.16
3 -1 5 522.16 9.78
3 -1 5 507.92 10.07
3 -1 6 71.72 4.05
3 -1 6 76.95 3.59
3 -1 6 70.36 4.19
3 -1 6 70.1 4.3
3 -1 6 71.58 3.93
3 -1 6 72.4 4.2
3 -1 7 38.56 2.83
3 -1 7 35.91 3
3 -1 7 33.77 2.93
3 -1 7 34.8 2.88
3 -1 7 32.85 2.95
3 -1 8 30.67 2.39
3 -1 8 30.73 2.65
3 -1 8 30.66 2.61
3 -1 8 30.58 2.76
3 -1 8 33.78 3.06
3 -1 9 52.62 2.78
3 -1 9 52.6 3.11
3 -1 9 54.89 3.11
3 -1 10 57.74 2.61
3 0 -13 127.87 3.15
3 0 -13 136.63 3.61
3 0 -12 44 2.4
3 0 -11 157.76 4.8
3 0 -10 211.51 5.82
3 0 -10 198.75 5.51
3 0 -10 207.03 5.84
3 0 -9 282.32 6.67
3 0 -9 275.59 6.14
3 0 -9 280.85 6.32
3 0 -9 274.84 6.46
3 0 -8 430.42 7.05
3 0 -8 450.31 7.37
3 0 -8 441.58 7.47
3 0 -8 427.25 8.76
3 0 -8 417.38 8.17
3 0 -7 114.04 3.4
3 0 -7 116.49 3.5
3 0 -7 112.6 4
3 0 -6 55.72 2.55
3 0 -6 56.91 2.27
3 0 -6 58.04 2.32
3 0 -6 57.69 2.29
3 0 -5 890.15 9.2
3 0 -5 890.36 8.38
3 0 -5 863.32 8.35
3 0 -5 873.11 8.73
3 0 -4 793.26 8.05
3 0 -4 792.69 7.76
3 0 -4 792.61 7.66
3 0 -4 795.42 7.93
3 0 -4 786.8 7.79
3 0 -4 785.49 7.91
3 0 -3 503.97 6.04
3 0 -3 493.11 6.17
3 0 -3 499.49 6.11
3 0 -2 1643.29 11.21
3 0 -2 1663.83 11.17
3 0 -2 1662.47 10.8
3 0 -1 29.92 1.53
3 0 -1 25.76 1.38
3 0 -1 27.89 1.37
3 0 0 374.52 5.37
3 0 0 373.96 5.48
3 0 0 379.06 5.78
3 0 0 380.77 5.69
3 0 1 1548.7 11.01
3 0 1 1548.83 11.36
3 0 1 1529.12 12.09
3 0 1 1556.31 12.37
3 0 1 1491.64 9.65
3 0 1 1514.7 11.92
3 0 2 951.05 9.05
3 0 2 943.53 10.21
3 0 2 964.85 10.56
3 0 2 944.76 10.46
3 0 3 53.86 2.6
3 0 3 50.9 2.61
3 0 3 52.66 2.74
3 0 4 31.57 2.1
3 0 4 33.04 2.26
3 0 4 32.98 2.36
3 0 5 42.66 3.07
3 0 5 39.46 2.46
3 0 5 34.73 2.96
3 0 5 39.74 2.7
3 0 5 36.86 2.73
3 0 6 534.84 10.52
3 0 6 531.34 11.27
3 0 6 515.91 11.27
3 0 6 535.75 10.64
3 0 6 534.43 11.22
3 0 7 163.38 5.81
3 0 7 165.72 6.28
3 0 7 165.52 6.31
3 0 7 168.35 6.25
3 0 7 168.14 6.62
3 0 8 114.74 4.6
3 0 8 120.22 5.1
3 0 8 114.63 4.92
3 0 8 117.07 5.26
3 0 9 42.42 2.49
3 0 9 38.23 2.55
3 0 10 40.91 2.13
3 1 -13 101.17 3.18
3 1 -12 22.75 1.6
3 1 -12 21.09 1.69
3 1 -11 8.56 1.17
3 1 -11 6.56 1.12
3 1 -11 6.81 1.08
3 1 -10 560.38 9.59
3 1 -10 571.8 9.5
3 1 -10 542.85 9.45
3 1 -9 96.53 3.93
3 1 -9 99.75 3.66
3 1 -9 96.16 3.74
3 1 -9 91.23 3.78
3 1 -8 174.82 5.69
3 1 -8 197.57 5.42
3 1 -8 176.2 4.45
3 1 -8 179.66 4.64
3 1 -8 189.99 4.94
3 1 -8 181.97 5.33
3 1 -7 96.73 3.85
3 1 -7 102.16 3.31
3 1 -7 101.33 3.03
3 1 -7 92.92 3.06
3 1 -7 96.09 3.14
3 1 -6 103.25 3.06
3 1 -6 108.7 3.1
3 1 -6 100.63 2.99
3 1 -6 96.87 2.87
3 1 -5 129.22 3.23
3 1 -5 139.07 3.34
3 1 -5 129.82 3.1
3 1 -5 139.57 3.88
3 1 -5 132.3 3.25
3 1 -5 133.83 3.21
3 1 -4 549.28 6.44
3 1 -4 561.23 6.46
3 1 -4 568.43 5.94
3 1 -4 555.71 7.14
3 1 -4 551.43 6.22
3 1 -4 535.96 6.16
3 1 -3 1717.24 11.07
3 1 -3 1755.43 11.27
3 1 -3 1768.54 9.68
3 1 -3 1703.44 11.08
3 1 -3 1767.9 10.73
3 1 -3 1740.01 10.54
3 1 -2 400.92 5.34
3 1 -2 414.25 5.54
3 1 -2 397.22 4.91
3 1 -2 399.67 4.84
3 1 -1 859.02 7.69
3 1 -1 837.88 7.75
3 1 -1 853.66 8.24
3 1 -1 845.1 8.09
3 1 -1 863.53 6.75
3 1 0 414.64 5.3
3 1 0 413.37 5.55
3 1 0 402.43 5.92
3 1 1 210.31 4
3 1 1 199.75 4.36
3 1 1 199.75 4.55
3 1 2 1154.44 9.51
3 1 2 1134.33 11.65
3 1 3 229.93 5.33
3 1 3 234.44 5.66
3 1 4 386.27 7.34
3 1 4 386.54 7.77
3 1 5 88.24 4.19
3 1 5 79.31 4.25
3 1 5 81.38 3.52
3 1 5 71.29 4.11
3 1 5 80.71 3.88
3 1 6 121.21 5.06
3 1 6 128.86 5.49
3 1 6 121.87 5.3
3 1 6 121.82 5.1
3 1 7 7.37 1.32
3 1 7 8.64 1.45
3 1 7 9.57 1.53
3 1 7 8.09 1.39
3 1 8 309.48 7.37
3 1 8 297.19 7.53
3 1 9 18.13 1.59
3 1 9 18.06 1.66
3 2 -13 11.59 1.06
3 2 -12 28.79 1.92
3 2 -11 34.64 2.32
3 2 -11 36.11 2.34
3 2 -10 510.13 9.16
3 2 -10 518.22 9.07
3 2 -10 487.67 9.13
3 2 -10 487.21 9.6
3 2 -9 535.61 9.3
3 2 -9 543.61 9.46
3 2 -9 530.14 8.99
3 2 -9 529.36 9.29
3 2 -8 548.89 9.18
3 2 -8 562.06 8.58
3 2 -8 553.82 8.73
3 2 -7 492.65 8.33
3 2 -7 497.56 7.63
3 2 -7 516.97 9.31
3 2 -7 489.22 7.38
3 2 -7 473.34 7.34
3 2 -7 501.23 8.5
3 2 -6 159.93 4.05
3 2 -6 155.84 4.01
3 2 -6 152.69 3.82
3 2 -6 159.3 3.92
3 2 -5 993.12 9.43
3 2 -5 980.61 9.37
3 2 -5 960.83 10.84
3 2 -5 946.34 8.84
3 2 -5 964.47 8.87
3 2 -4 452.55 6.03
3 2 -4 453.33 6.14
3 2 -4 456.89 5.71
3 2 -4 464.15 5.83
3 2 -3 1618.18 11.32
3 2 -3 1614.41 11.45
3 2 -3 1669.83 10.27
3 2 -3 1655.4 10.35
3 2 -2 1607.25 10.68
3 2 -2 1557.82 10.88
3 2 -2 1653.61 11.55
3 2 -2 1709.27 9.94
3 2 -1 3096.58 14.68
3 2 -1 2998.48 15.13
3 2 0 3848.82 16.53
3 2 0 3887.39 17.55
3 2 0 3888.03 19.39
3 2 1 1595.68 12.85
3 2 1 1611.25 13.37
3 2 2 983.08 10.71
3 2 2 1011.72 11.49
3 2 3 111.06 3.8
3 2 3 106.95 3.93
3 2 4 289.46 7.54
3 2 4 299.23 6.59
3 2 4 292.93 6.95
3 2 5 319.88 8.09
3 2 5 349.4 7.4
3 2 5 339.49 8.56
3 2 5 369.66 8.46
3 2 6 682.44 11.86
3 2 6 658.1 11.98
3 2 6 691.42 12.19
3 2 7 36.33 2.7
3 2 7 40.05 2.84
3 2 7 39.54 2.97
3 2 8 222.07 5.98
3 2 8 221.62 6.14
3 2 9 81.94 3.15
3 3 -12 106.14 3.51
3 3 -12 114.87 3.76
3 3 -11 155.42 4.85
3 3 -11 150.46 4.67
3 3 -10 284.06 6.93
3 3 -10 297.5 6.93
3 3 -10 276.07 7.13
3 3 -9 183.46 5.58
3 3 -9 177.61 5.49
3 3 -9 175.85 5.54
3 3 -9 172.77 5.55
3 3 -8 181.59 5.44
3 3 -8 178 5.36
3 3 -8 163.82 5.92
3 3 -8 188.72 5.59
3 3 -8 182.84 5.32
3 3 -8 166.43 5.05
3 3 -7 664.3 10.07
3 3 -7 638.18 9.38
3 3 -7 633.54 10.87
3 3 -7 682.77 10.56
3 3 -7 680.26 9.51
3 3 -7 669.47 9.41
3 3 -6 2116.6 17.43
3 3 -6 2045.31 15.65
3 3 -6 2092.29 16.04
3 3 -6 1959.96 17.74
3 3 -6 1987.62 15.08
3 3 -6 2090.73 15.67
3 3 -6 2029.15 18.34
3 3 -6 1973.63 16.44
3 3 -5 191.35 4.54
3 3 -5 206.23 4.81
3 3 -5 188.34 4.31
3 3 -5 194.83 4.45
3 3 -5 208.25 5.49
3 3 -4 465.86 6.78
3 3 -4 462.64 6.8
3 3 -4 483.4 6.63
3 3 -3 448.86 6.44
3 3 -3 442.88 6.41
3 3 -3 459.94 6.7
3 3 -3 443.4 6.05
3 3 -2 691.15 7.89
3 3 -2 694.45 8.2
3 3 -2 713.54 7.37
3 3 -1 1346.28 10.99
3 3 -1 1379.2 11.21
3 3 0 295.26 5.21
3 3 0 287.71 5.26
3 3 0 296.89 5.6
3 3 1 532.05 7.31
3 3 1 535.93 7.78
3 3 2 733.46 8.99
3 3 2 761.18 9.75
3 3 2 733.34 10.09
3 3 3 605.06 10.83
3 3 3 591.33 9.07
3 3 3 572.96 10.79
3 3 3 595.25 9.65
3 3 4 101.67 4.56
3 3 4 95.6 3.9
3 3 4 91.66 4.36
3 3 4 93.25 4.09
3 3 5 171.14 5.92
3 3 5 171.53 5.39
3 3 5 163.39 5.83
3 3 6 93.01 4.24
3 3 6 89.24 4.24
3 3 7 27.45 2.17
3 3 8 9.84 1.2
3 3 9 4.92 0.72
3 4 -12 37.21 1.97
3 4 -12 37.08 1.98
3 4 -11 403.81 7.48
3 4 -11 396.84 7.41
3 4 -10 94.44 3.9
3 4 -10 90.04 3.77
3 4 -9 118.41 4.53
3 4 -9 111.62 4.4
3 4 -9 111.98 4.64
3 4 -9 118.26 4.76
3 4 -8 514.83 9.73
3 4 -8 484.64 9.16
3 4 -8 514.04 9.86
3 4 -8 512.25 9.62
3 4 -8 479.62 9.29
3 4 -8 498.34 9.43
3 4 -7 80.28 3.71
3 4 -7 73.07 3.47
3 4 -7 73.94 3.67
3 4 -7 82.28 3.69
3 4 -7 74.15 3.5
3 4 -7 77.67 4.13
3 4 -6 191.79 5.68
3 4 -6 188.96 5.27
3 4 -6 183.81 5.27
3 4 -6 186.78 5.64
3 4 -6 196.57 5.36
3 4 -6 192.32 5.34
3 4 -5 657.11 10.54
3 4 -5 665.34 9.23
3 4 -5 654.38 9.48
3 4 -5 678.33 10.33
3 4 -5 661.51 9.3
3 4 -5 642 9.24
3 4 -4 231.62 5.21
3 4 -4 233.63 5.43
3 4 -4 222.61 5.74
3 4 -4 230.37 5.28
3 4 -3 19.95 1.53
3 4 -3 18.32 1.5
3 4 -3 21.04 1.55
3 4 -2 47.68 2.35
3 4 -2 48.92 2.4
3 4 -1 80.4 3.07
3 4 -1 83.34 3.17
3 4 -1 80.53 3.16
3 4 0 14.87 1.37
3 4 0 13.35 1.31
3 4 0 12.45 1.29
3 4 0 14.36 1.49
3 4 1 805.55 10.26
3 4 1 810.94 10.31
3 4 1 827.67 11.43
3 4 2 221.66 6.57
3 4 2 216.86 5.6
3 4 2 208.94 5.91
3 4 3 1300.1 15.86
3 4 3 1309.01 14.49
3 4 4 87.35 4.18
3 4 4 91.81 4.18
3 4 5 41.68 2.84
3 4 6 59.06 3.17
3 4 7 41.79 2.46
3 4 8 67.73 2.72
3 5 -11 40.22 2.2
3 5 -11 35.03 2.01
3 5 -10 57.87 2.91
3 5 -10 55.76 2.84
3 5 -9 175.39 5.28
3 5 -9 171.65 5.31
3 5 -8 725.07 11.97
3 5 -8 729.34 11.41
3 5 -8 728.05 11.56
3 5 -8 694.39 11.88
3 5 -8 716.64 12.23
3 5 -7 260.57 7.01
3 5 -7 253.06 6.91
3 5 -7 242.59 6.66
3 5 -7 256.94 7.1
3 5 -7 256.85 7.15
3 5 -6 148.45 5.29
3 5 -6 154.27 5.2
3 5 -6 153.65 5.26
3 5 -6 151.2 5.33
3 5 -5 53.5 3.22
3 5 -5 54.67 2.99
3 5 -5 51.81 3.01
3 5 -5 52.04 3.03
3 5 -4 164.34 5.67
3 5 -4 166.57 5.03
3 5 -4 169.12 5.2
3 5 -4 160.53 5.19
3 5 -4 156.6 5.51
3 5 -4 170.26 5.29
3 5 -3 291.77 6.62
3 5 -3 287.44 6.55
3 5 -3 290 7.03
3 5 -3 295.34 7.34
3 5 -2 54.88 2.91
3 5 -2 53.51 2.87
3 5 -2 53.17 3.05
3 5 -2 50.26 2.86
3 5 -1 88.47 3.69
3 5 -1 89.76 3.73
3 5 -1 85.79 3.91
3 5 -1 85.35 3.7
3 5 0 67.3 3.26
3 5 0 67.35 3.33
3 5 0 61.8 3.23
3 5 1 822.58 11.85
3 5 2 514.17 9.76
3 5 2 545.33 10.25
3 5 3 344.87 8.05
3 5 3 363.14 8.32
3 5 4 194.2 5.9
3 5 4 203.3 6.09
3 5 5 26.88 2.13
3 5 6 21.77 1.78
3 5 7 227.59 4.99
3 5 8 91.8 2.54
3 6 -11 28.45 1.59
3 6 -10 39.99 2.2
3 6 -9 291.16 6.51
3 6 -8 517.37 9.22
3 6 -8 514.44 9.12
3 6 -7 5.98 1.12
3 6 -7 7.87 1.22
3 6 -6 238.16 6.83
3 6 -6 238.84 6.82
3 6 -6 239.25 6.54
3 6 -5 399.52 8.98
3 6 -5 372.83 8.42
3 6 -5 376.95 8.23
3 6 -4 298.8 7.84
3 6 -4 284.98 7.35
3 6 -4 284.78 7.22
3 6 -4 301.57 7.57
3 6 -3 1018.75 13.91
3 6 -3 1001.54 13.54
3 6 -3 987.35 13.65
3 6 -2 92.78 4.21
3 6 -2 86.54 3.98
3 6 -2 97.07 4.32
3 6 -1 75.98 3.79
3 6 -1 74.74 3.74
3 6 -1 79.29 3.91
3 6 0 377.29 8.51
3 6 1 287.93 7.43
3 6 2 74.51 3.77
3 6 2 74.29 3.52
3 6 3 41.16 2.73
3 6 3 39.65 2.52
3 6 4 123.69 4.42
3 6 4 123.84 4.27
3 6 5 27.88 1.92
3 6 6 160.99 4.05
3 7 -9 55.61 2.55
3 7 -8 67.07 3.09
3 7 -7 301.09 7
3 7 -7 288.78 6.52
3 7 -6 60.8 3.29
3 7 -6 54.06 2.93
3 7 -5 22.46 2.03
3 7 -5 18.06 1.76
3 7 -4 64.96 3.36
3 7 -4 59.18 3.17
3 7 -3 32.76 2.43
3 7 -3 54.77 3.11
3 7 -2 114.13 4.49
3 7 -2 124.75 4.76
3 7 -1 168.92 5.38
3 7 -1 169.77 5.53
3 7 0 160.34 5.24
3 7 1 52.82 2.99
3 7 2 167.93 5.17
3 7 3 242.75 5.93
3 7 3 227.95 5.11
3 7 4 46.98 2.33
3 7 4 48.87 2.22
3 7 5 29.15 1.49
3 8 -7 68.62 2.75
3 8 -6 100.16 3.56
3 8 -5 99.03 3.65
3 8 -4 132.68 4.38
3 8 -4 126.43 4
3 8 -3 13.15 1.42
3 8 -3 12.61 1.35
3 8 -2 143.9 4.54
3 8 -2 149.92 4.67
3 8 -1 22.46 1.81
3 8 0 32.25 2.12
3 8 1 88.85 3.39
3 8 2 55.79 2.54
3 8 3 79.49 2.64
3 9 -2 116.49 3.16
3 9 -1 126.99 3.31
3 9 0 7.26 0.78
4 -8 2 67.24 3.21
4 -8 2 65.21 3.1
4 -8 3 18.5 1.67
4 -8 3 17.73 1.59
4 -8 4 34.64 2.14
4 -8 4 32.48 2.03
4 -8 5 3.9 0.69
4 -7 -4 24.59 2.34
4 -7 -3 83.16 4.4
4 -7 -2 198.67 6.78
4 -7 -2 207.17 6.77
4 -7 -1 13.03 1.75
4 -7 -1 11.8 1.68
4 -7 0 182.18 6.46
4 -7 0 187.9 6.6
4 -7 0 176.62 6.7
4 -7 1 20.57 2.25
4 -7 1 18.71 1.9
4 -7 1 21.58 2.31
4 -7 1 19 2.22
4 -7 2 134.12 5.02
4 -7 2 133.63 5.68
4 -7 2 129.14 5.67
4 -7 3 199.31 6.17
4 -7 3 199.81 6.05
4 -7 3 203.31 6.98
4 -7 4 37.65 2.6
4 -7 4 36.53 2.54
4 -7 5 96.5 3.85
4 -7 5 93.99 3.81
4 -7 6 11.9 1.26
4 -6 -6 218.73 6.4
4 -6 -5 59.89 3.75
4 -6 -4 0.21 0.41
4 -6 -4 0.33 0.54
4 -6 -3 467.89 10.35
4 -6 -3 447.45 9.81
4 -6 -2 324.58 8.53
4 -6 -2 341.65 8.49
4 -6 -1 948.78 14.57
4 -6 -1 951.13 14.74
4 -6 0 365.42 9.03
4 -6 0 380.43 9.26
4 -6 0 370.39 9.49
4 -6 1 65.07 3.9
4 -6 1 64.96 3.91
4 -6 1 64 3.96
4 -6 2 7.62 1.38
4 -6 2 7.98 1.4
4 -6 2 8.25 1.49
4 -6 2 8.78 1.55
4 -6 3 40.01 3.21
4 -6 3 46.36 3.45
4 -6 3 46.65 3.18
4 -6 3 44.67 3.39
4 -6 4 92.41 4.4
4 -6 4 92.87 4.8
4 -6 4 89.65 4.3
4 -6 4 92.39 4.81
4 -6 5 123.95 4.82
4 -6 5 125 4.89
4 -6 6 185.55 5.5
4 -6 7 86.91 3.36
4 -5 -7 226.68 6.48
4 -5 -6 1533.6 17.65
4 -5 -6 1483.98 18.2
4 -5 -5 137.04 5.51
4 -5 -5 125.32 5.32
4 -5 -4 1300.51 16.73
4 -5 -4 1230.45 16.25
4 -5 -3 1033.35 14.77
4 -5 -3 1068.74 14.54
4 -5 -2 205.96 6.51
4 -5 -2 209.74 6.23
4 -5 -1 697.04 11.72
4 -5 -1 683.32 11.62
4 -5 -1 667.73 11.58
4 -5 0 57.37 3.13
4 -5 0 50.92 3.22
4 -5 0 51.95 3.26
4 -5 0 53.27 3.4
4 -5 1 37.47 2.5
4 -5 1 37 2.8
4 -5 1 37.43 2.85
4 -5 1 35.65 2.81
4 -5 2 109.76 4.34
4 -5 2 105.3 4.87
4 -5 2 103.81 4.81
4 -5 2 98.22 4.78
4 -5 2 98.31 4.74
4 -5 3 75.38 4.25
4 -5 3 71.7 4.13
4 -5 3 80.33 4.32
4 -5 3 74.23 4.13
4 -5 3 72.82 4.2
4 -5 4 242.74 7.47
4 -5 4 232 7.25
4 -5 4 241.87 7.6
4 -5 4 238.56 7.65
4 -5 5 84.29 4.24
4 -5 5 83.24 4.27
4 -5 5 87.98 4.54
4 -5 5 85.86 4.61
4 -5 6 54.66 3.26
4 -5 7 14.85 1.57
4 -5 8 172.73 4.47
4 -5 8 164.9 4.62
4 -4 -11 34.66 1.66
4 -4 -8 4.67 0.97
4 -4 -7 210.11 6.29
4 -4 -7 206.28 6.16
4 -4 -7 205.18 6.35
4 -4 -6 51.65 3.19
4 -4 -6 48.46 3.04
4 -4 -6 47.29 3.13
4 -4 -5 31.05 2.49
4 -4 -5 28.26 2.37
4 -4 -5 28.24 2.41
4 -4 -4 773.3 12.15
4 -4 -4 761.17 12.03
4 -4 -3 159.56 5.41
4 -4 -3 159.38 5.29
4 -4 -2 835.79 12.07
4 -4 -2 823.98 11.46
4 -4 -1 79.53 3.67
4 -4 -1 80.89 3.73
4 -4 -1 77.53 3.62
4 -4 -1 87.29 3.62
4 -4 0 4.61 0.98
4 -4 0 4.19 0.91
4 -4 0 4.27 0.83
4 -4 1 191.66 5.26
4 -4 1 185.84 5.84
4 -4 1 186.15 5.92
4 -4 1 199.98 6.1
4 -4 2 119.49 4.21
4 -4 2 127.41 5.4
4 -4 2 121.83 4.88
4 -4 2 112.43 5.13
4 -4 2 121.96 4.96
4 -4 2 127.49 5.06
4 -4 3 272.63 6.62
4 -4 3 261.59 7.81
4 -4 3 275.48 7.52
4 -4 3 262.04 7.83
4 -4 3 271.2 7.71
4 -4 3 264.39 7.59
4 -4 4 45.08 3.28
4 -4 4 40.97 3.12
4 -4 4 40.82 3.08
4 -4 4 45.1 3.28
4 -4 5 69.96 4
4 -4 5 71.44 4.03
4 -4 5 65.7 3.96
4 -4 6 209.42 6.68
4 -4 6 217.46 6.32
4 -4 6 212.4 7.23
4 -4 7 42.06 2.78
4 -4 8 45 2.64
4 -4 9 44.67 2.12
4 -3 -9 55.66 2.93
4 -3 -9 60.25 3.14
4 -3 -8 13.62 1.58
4 -3 -8 14.52 1.66
4 -3 -7 2.56 0.71
4 -3 -7 2.75 0.76
4 -3 -7 0.35 0.33
4 -3 -6 557.14 9.69
4 -3 -6 525.91 9.31
4 -3 -6 539.91 9.4
4 -3 -6 551.96 10.01
4 -3 -5 452.06 8.65
4 -3 -5 474.75 8.87
4 -3 -5 452.59 8.85
4 -3 -4 91.94 3.9
4 -3 -4 71.24 3.37
4 -3 -3 40.04 2.52
4 -3 -3 38.82 2.46
4 -3 -3 35.42 2.37
4 -3 -2 485.48 8.43
4 -3 -2 459.32 8.42
4 -3 -1 28.5 2.03
4 -3 -1 29.29 2.17
4 -3 -1 27.22 1.87
4 -3 -1 34.05 2.18
4 -3 0 479.87 8.51
4 -3 0 493.91 9
4 -3 0 504.84 8.67
4 -3 0 493.56 7.92
4 -3 1 45.58 2.72
4 -3 1 41.58 2.68
4 -3 1 44.8 2.72
4 -3 2 11.33 1.23
4 -3 2 7.18 1.28
4 -3 2 8.07 1.26
4 -3 2 7.85 1.21
4 -3 2 8.43 1.29
4 -3 3 122.78 4.18
4 -3 3 115.75 5.13
4 -3 3 113.2 4.5
4 -3 3 111.12 5.11
4 -3 3 117.67 4.79
4 -3 3 119.48 4.88
4 -3 4 238.42 7.4
4 -3 4 229.38 6.01
4 -3 4 254.89 7.21
4 -3 4 258.11 7.49
4 -3 5 460.47 10.36
4 -3 5 481.7 10.14
4 -3 5 472.51 10.53
4 -3 6 159.55 5.99
4 -3 6 147.73 5.68
4 -3 6 154.08 6.17
4 -3 7 621.24 10.86
4 -3 7 619.07 11.38
4 -3 8 30.04 1.99
4 -3 8 41.13 2.66
4 -3 9 134.29 3.96
4 -2 -12 9.4 0.98
4 -2 -10 49.87 2.57
4 -2 -10 44.08 2.7
4 -2 -9 73.47 3.38
4 -2 -9 73.02 3.41
4 -2 -9 70.79 3.48
4 -2 -8 41.72 2.61
4 -2 -8 39.06 2.49
4 -2 -8 34.39 2.39
4 -2 -7 566.76 9.26
4 -2 -7 559.53 9.24
4 -2 -7 568.22 9.44
4 -2 -6 33.73 2.22
4 -2 -6 33.98 2.23
4 -2 -6 34.31 2.2
4 -2 -6 33.84 2.28
4 -2 -5 34 2.19
4 -2 -5 36.41 2.28
4 -2 -4 417.58 7.59
4 -2 -4 417.38 7.59
4 -2 -4 400.52 7.33
4 -2 -3 113.19 3.9
4 -2 -3 118.82 3.99
4 -2 -3 118.59 3.94
4 -2 -2 91.84 3.48
4 -2 -2 93.19 3.45
4 -2 -2 94.24 3.53
4 -2 -1 276.09 6.03
4 -2 -1 275.39 5.94
4 -2 -1 273.25 6.14
4 -2 -1 280.89 5.86
4 -2 0 406.79 7.38
4 -2 0 388.57 7.22
4 -2 0 406.62 7.67
4 -2 0 381.94 6.61
4 -2 0 400.29 7.3
4 -2 1 748.55 10.17
4 -2 1 720.03 10.05
4 -2 1 737.57 10.5
4 -2 1 734.32 10.42
4 -2 1 733.86 9.05
4 -2 2 537.12 7.83
4 -2 2 567.96 8.96
4 -2 2 563.2 9.1
4 -2 2 571.44 9.51
4 -2 2 565.45 9.67
4 -2 3 134.75 4.11
4 -2 3 128.51 5.27
4 -2 3 132.15 4.78
4 -2 3 138.59 5.04
4 -2 4 54.87 3.53
4 -2 4 56.92 3.28
4 -2 4 63.59 3.75
4 -2 4 56.66 3.45
4 -2 5 101.77 4.87
4 -2 5 104.34 4.69
4 -2 5 107.74 4.68
4 -2 5 101.73 4.81
4 -2 5 101.59 5.04
4 -2 6 1174.57 16.23
4 -2 6 1113.86 15.01
4 -2 6 1149.94 16.76
4 -2 6 1127.37 16.45
4 -2 7 172.74 6.08
4 -2 7 170.26 6.39
4 -2 8 374.15 7.33
4 -2 8 393.34 8.22
4 -2 9 36.38 2.14
4 -1 -12 36.2 1.99
4 -1 -10 465.78 8.11
4 -1 -10 459.89 8.57
4 -1 -9 367.4 7.39
4 -1 -9 383.03 7.57
4 -1 -9 393.08 8
4 -1 -8 1036.95 12.44
4 -1 -8 1042.59 12.12
4 -1 -8 1034.32 12.43
4 -1 -8 1057.49 12.9
4 -1 -7 124.65 4.02
4 -1 -7 118.94 4.04
4 -1 -7 112.38 3.79
4 -1 -7 119.87 4.06
4 -1 -6 259.85 5.68
4 -1 -6 270.83 5.69
4 -1 -6 274.25 5.82
4 -1 -6 257.48 5.62
4 -1 -6 251.6 5.57
4 -1 -5 632.54 8.74
4 -1 -5 640.54 8.73
4 -1 -5 637.42 8.69
4 -1 -5 640.31 8.72
4 -1 -4 2831.68 18.17
4 -1 -4 2796.21 17.85
4 -1 -3 163.15 4.31
4 -1 -3 160.1 4.18
4 -1 -3 170.68 4.36
4 -1 -2 771.29 9.34
4 -1 -2 784.88 9.35
4 -1 -2 768.89 9.28
4 -1 -2 780.61 9.25
4 -1 -1 415.42 6.92
4 -1 -1 434.9 7.09
4 -1 -1 415.91 7.01
4 -1 -1 424.84 6.84
4 -1 0 622.58 8.51
4 -1 0 631.84 8.69
4 -1 0 625.99 8.89
4 -1 0 643.5 8.9
4 -1 1 221.09 5.18
4 -1 1 220.9 5.25
4 -1 1 230.22 5.55
4 -1 1 221 5.55
4 -1 1 210.94 4.63
4 -1 2 297.92 6.22
4 -1 2 301.93 6.87
4 -1 2 296.45 6.58
4 -1 3 84.51 4.21
4 -1 3 88.44 3.81
4 -1 3 85.22 4.19
4 -1 3 90.56 4.02
4 -1 4 275.38 7.8
4 -1 4 285.38 7.1
4 -1 4 285.01 8.32
4 -1 4 289.47 7.78
4 -1 4 280.02 7.45
4 -1 4 288.05 7.77
4 -1 5 527.32 10.98
4 -1 5 520.14 9.9
4 -1 5 546.69 11.53
4 -1 5 533.08 10.76
4 -1 5 529.68 11.38
4 -1 6 239.69 6.85
4 -1 6 239.08 7.6
4 -1 6 240.94 7.54
4 -1 6 235.98 7.9
4 -1 7 69.16 3.56
4 -1 7 64.52 3.71
4 -1 7 73.55 4.2
4 -1 8 2.59 0.68
4 -1 8 6.56 1.12
4 -1 9 125.29 3.47
4 0 -13 205.14 4.1
4 0 -12 141.05 3.97
4 0 -11 217.13 5.43
4 0 -11 218.06 5.35
4 0 -10 893.21 11.46
4 0 -10 869.06 11.73
4 0 -9 474.68 8.5
4 0 -9 457.94 8.09
4 0 -9 469.52 8.24
4 0 -9 460.42 8.51
4 0 -9 487.84 8.74
4 0 -8 1019.28 11.4
4 0 -8 992.56 11.34
4 0 -8 1019.65 12.45
4 0 -7 47 2.36
4 0 -7 47.9 2.75
4 0 -7 48.68 2.47
4 0 -7 44.35 2.84
4 0 -7 49.22 2.43
4 0 -7 49.05 2.44
4 0 -7 47.09 2.61
4 0 -6 213.49 5.62
4 0 -6 202.5 4.73
4 0 -6 214.04 4.85
4 0 -6 204.98 4.73
4 0 -6 209.21 4.74
4 0 -6 201.18 4.67
4 0 -5 337.16 6
4 0 -5 322.11 5.83
4 0 -5 333.89 5.74
4 0 -5 335.15 5.87
4 0 -4 572.41 7.67
4 0 -4 581.68 7.74
4 0 -4 549.26 7.18
4 0 -4 560.34 7.45
4 0 -4 574.49 7.49
4 0 -3 249.3 4.98
4 0 -3 255.64 5.1
4 0 -3 254.39 4.9
4 0 -2 561.51 7.47
4 0 -2 544.03 7.36
4 0 -2 546.27 7.51
4 0 -2 533.04 7.06
4 0 -1 8.72 0.97
4 0 -1 6.33 0.85
4 0 -1 7.63 0.94
4 0 -1 6.82 0.8
4 0 0 151.54 3.92
4 0 0 146.33 3.97
4 0 0 148.73 4.25
4 0 0 152.02 4.26
4 0 1 917.18 9.62
4 0 1 902.58 10.04
4 0 1 907.97 11.14
4 0 1 924.91 9.14
4 0 1 930.18 11.02
4 0 2 37.36 2.05
4 0 2 38.43 2.34
4 0 3 722.23 12.1
4 0 3 735.59 10.57
4 0 3 710.25 12.74
4 0 3 706.97 11.73
4 0 3 718.66 11.26
4 0 4 111.45 4.39
4 0 4 114.45 5.17
4 0 4 110.32 4.68
4 0 4 118.47 4.85
4 0 5 337.58 7.96
4 0 5 335.78 8.97
4 0 5 328.83 8.45
4 0 6 101.62 4.57
4 0 6 89.75 4.16
4 0 6 94.36 4.69
4 0 6 90.6 4.61
4 0 7 12.99 1.69
4 0 7 14.41 1.85
4 0 8 223.37 5.71
4 0 9 45.57 2.09
4 1 -13 36.86 1.77
4 1 -12 56.29 2.55
4 1 -12 62.43 2.7
4 1 -11 54.89 2.78
4 1 -11 59.19 2.85
4 1 -10 412.5 7.9
4 1 -10 393.31 7.89
4 1 -9 305.48 6.86
4 1 -9 285.54 6.52
4 1 -9 294.15 6.87
4 1 -9 297.56 6.81
4 1 -8 354 7.21
4 1 -8 372.44 7.29
4 1 -8 351.63 8.94
4 1 -8 349.81 6.83
4 1 -8 352.31 7.22
4 1 -7 99.15 3.48
4 1 -7 97.56 3.87
4 1 -7 101.1 3.43
4 1 -7 101.88 3.49
4 1 -7 103.04 4.46
4 1 -7 102.65 3.83
4 1 -6 65.21 2.64
4 1 -6 67.63 2.64
4 1 -6 60.77 3.15
4 1 -6 66.49 2.66
4 1 -6 64.81 2.94
4 1 -5 143.35 3.81
4 1 -5 152.92 4
4 1 -5 150.79 3.58
4 1 -5 152.25 3.76
4 1 -5 149.11 3.78
4 1 -4 85.45 2.86
4 1 -4 92.68 3.05
4 1 -4 85.24 2.57
4 1 -4 88.63 2.78
4 1 -4 85.22 2.76
4 1 -3 115.11 3.31
4 1 -3 114.5 3.33
4 1 -3 117.07 3.43
4 1 -3 115.48 3.11
4 1 -3 114.71 3.07
4 1 -2 83.24 2.8
4 1 -2 89.03 2.9
4 1 -2 79.91 2.89
4 1 -2 85.88 2.57
4 1 -1 1033.44 9.86
4 1 -1 1043.01 10.74
4 1 -1 1052.51 10.65
4 1 0 259.41 4.86
4 1 0 261.11 5.2
4 1 0 248.2 5.53
4 1 1 200.42 4.58
4 1 1 204.75 5.11
4 1 1 208.96 5.38
4 1 2 235.72 5.72
4 1 2 260.88 6.39
4 1 3 247.6 6.25
4 1 3 245.15 7.39
4 1 3 235.13 6.62
4 1 3 254.17 6.72
4 1 3 231.63 6.2
4 1 4 91.77 4.35
4 1 4 99.97 4.18
4 1 4 97.1 4.71
4 1 4 101.93 4.52
4 1 5 184.59 6.19
4 1 5 177.26 5.72
4 1 5 174.31 6.36
4 1 5 173.63 6.13
4 1 6 24.52 2.23
4 1 6 20.37 2.17
4 1 7 96.43 4.07
4 1 8 134.85 4.28
4 1 9 66.92 2.38
4 2 -12 74.89 2.93
4 2 -12 76.88 2.98
4 2 -11 62.54 2.96
4 2 -11 57.71 2.79
4 2 -10 126.12 4.35
4 2 -10 123.12 4.51
4 2 -9 167.27 5.11
4 2 -9 164.56 5.03
4 2 -9 162.17 5.05
4 2 -9 153.62 5
4 2 -8 709.51 10.26
4 2 -8 733.24 10.53
4 2 -8 711.87 10.11
4 2 -8 699.54 10.31
4 2 -7 827.02 13.09
4 2 -7 811.41 10.92
4 2 -7 843.28 10.72
4 2 -7 810.55 11.52
4 2 -7 831.87 10.25
4 2 -7 826.3 10.34
4 2 -7 821.87 10.95
4 2 -6 98.76 3.73
4 2 -6 97.28 3.4
4 2 -6 95.2 3.73
4 2 -6 96.43 3.46
4 2 -6 102.21 3.91
4 2 -6 94.21 3.21
4 2 -6 98.7 3.37
4 2 -6 100.73 3.69
4 2 -5 263.1 5.23
4 2 -5 266.45 6.05
4 2 -5 270.04 5.52
4 2 -5 268.42 5.08
4 2 -5 259.11 5.17
4 2 -5 270.2 6.02
4 2 -4 151.55 3.82
4 2 -4 156.6 4.02
4 2 -4 156.79 3.67
4 2 -4 150.84 3.7
4 2 -3 215.45 4.63
4 2 -3 213.69 4.8
4 2 -3 219.58 4.26
4 2 -2 545.55 7.21
4 2 -2 538.23 7.36
4 2 -2 523.8 7.68
4 2 -1 1200.51 10.67
4 2 -1 1204.33 11.14
4 2 -1 1185.45 11.79
4 2 0 1300.88 11.79
4 2 0 1337.44 13.04
4 2 0 1314.35 13.14
4 2 1 489.83 7.4
4 2 1 486 8.04
4 2 1 471.87 8.27
4 2 1 492.03 8.74
4 2 2 37.55 2.72
4 2 2 36.24 2.29
4 2 2 20.35 1.86
4 2 2 21.19 1.88
4 2 3 460.02 9.73
4 2 3 474.32 9.44
4 2 4 174.97 6.06
4 2 4 170.44 5.45
4 2 4 166.7 5.82
4 2 5 44.09 3.05
4 2 5 48.94 3.02
4 2 5 50.91 3.29
4 2 6 92.14 4.08
4 2 6 95.41 4.56
4 2 7 97.07 3.87
4 2 8 5.93 0.88
4 3 -12 14.89 1.27
4 3 -12 14.8 1.25
4 3 -11 76.49 3.23
4 3 -11 74.75 3.11
4 3 -10 101.14 3.86
4 3 -10 111.4 4.02
4 3 -9 42.79 2.64
4 3 -9 45.41 2.69
4 3 -9 40.78 2.67
4 3 -9 41 2.72
4 3 -8 677.94 10.38
4 3 -8 674.41 10.63
4 3 -8 656.01 10.79
4 3 -8 698.14 10.56
4 3 -8 649.55 10.16
4 3 -8 650.62 10.37
4 3 -7 136.69 4.63
4 3 -7 140.64 4.65
4 3 -7 141.78 4.8
4 3 -7 144.67 4.92
4 3 -7 134.9 4.44
4 3 -7 136.19 4.56
4 3 -7 134.89 4.48
4 3 -6 450.08 8.31
4 3 -6 429.3 7.7
4 3 -6 443.9 8.11
4 3 -6 451.1 8.38
4 3 -6 447.83 7.56
4 3 -6 434.81 7.69
4 3 -6 429.21 7.97
4 3 -5 1666.7 16.06
4 3 -5 1626.08 14.19
4 3 -5 1625.99 14.7
4 3 -5 1620.92 15.38
4 3 -5 1605.46 14.09
4 3 -5 1644.61 15.39
4 3 -4 189.13 4.71
4 3 -4 193.35 4.84
4 3 -4 190.14 5.11
4 3 -4 195.15 4.64
4 3 -4 186.29 5.15
4 3 -3 341.77 6.29
4 3 -3 333.13 6.17
4 3 -3 332.74 6.79
4 3 -3 344.98 6.47
4 3 -3 326.21 6.82
4 3 -2 80.39 3.04
4 3 -2 75.38 2.97
4 3 -2 81.49 3.44
4 3 -2 79.77 3.17
4 3 -2 77.49 3.31
4 3 -1 483.08 7.67
4 3 -1 468.36 8.38
4 3 -1 483.23 7.86
4 3 0 371.42 6.61
4 3 0 381.24 6.97
4 3 0 361.7 7.49
4 3 0 374.61 7.07
4 3 0 384.77 7.6
4 3 1 268.26 7.43
4 3 1 281.97 6.17
4 3 1 285.39 6.34
4 3 1 289.49 6.76
4 3 2 278.64 6.62
4 3 2 269.34 6.64
4 3 3 81.93 3.76
4 3 3 78.48 3.61
4 3 4 80.12 4.03
4 3 4 73.15 3.65
4 3 5 202.79 6.14
4 3 5 207.14 6.21
4 3 6 200.49 5.65
4 3 7 86.6 3.32
4 3 8 19.89 1.34
4 4 -12 100.48 2.98
4 4 -11 64.64 2.8
4 4 -11 63.1 2.7
4 4 -10 29.46 2.05
4 4 -10 27.3 1.97
4 4 -9 76.37 3.43
4 4 -9 65.53 3.54
4 4 -8 125.18 4.58
4 4 -8 131.13 4.9
4 4 -8 133.64 4.81
4 4 -8 113.3 4.6
4 4 -8 123.48 4.82
4 4 -7 389.13 8.11
4 4 -7 391.26 8.17
4 4 -7 370.41 8.21
4 4 -7 376.99 8
4 4 -7 390.87 8.41
4 4 -6 159.9 5.19
4 4 -6 147.33 4.84
4 4 -6 144.55 4.96
4 4 -6 144.46 4.89
4 4 -6 150.13 5.02
4 4 -5 208.5 6.03
4 4 -5 206.54 5.5
4 4 -5 211.92 5.82
4 4 -5 211.09 5.83
4 4 -5 200.99 5.59
4 4 -5 205.08 5.85
4 4 -4 9.46 1.2
4 4 -4 11.41 1.33
4 4 -4 8.33 1.17
4 4 -4 8.07 1.19
4 4 -3 52.98 2.74
4 4 -3 46.09 2.6
4 4 -3 49.4 2.8
4 4 -3 50.57 2.81
4 4 -2 38.27 2.35
4 4 -2 39.37 2.44
4 4 -2 41.52 2.57
4 4 -2 34.89 2.26
4 4 -2 38.32 2.45
4 4 -1 145.7 4.56
4 4 -1 136.48 4.6
4 4 -1 143.87 4.84
4 4 -1 144.19 4.61
4 4 -1 144.12 4.72
4 4 0 155.21 4.98
4 4 0 149.82 4.78
4 4 0 145.97 4.88
4 4 1 25.5 2.05
4 4 1 22.61 1.96
4 4 2 1083.91 14.46
4 4 2 1104.85 13.8
4 4 2 1108.48 13.63
4 4 3 425.03 8.98
4 4 3 442.57 9.05
4 4 3 431.31 8.38
4 4 4 199.08 6.1
4 4 4 190.85 5.67
4 4 5 119.7 4.4
4 4 6 15.53 1.46
4 4 7 29.21 1.7
4 5 -11 2.29 0.53
4 5 -10 77.17 3.08
4 5 -9 44.31 2.54
4 5 -9 46.96 2.61
4 5 -8 317.85 7.11
4 5 -8 307.28 6.97
4 5 -7 185.19 5.68
4 5 -7 182.56 5.87
4 5 -7 188 5.58
4 5 -6 42.12 2.79
4 5 -6 43.57 2.82
4 5 -6 39.98 2.63
4 5 -5 20.83 2
4 5 -5 19.05 1.85
4 5 -5 18.42 1.87
4 5 -5 20.02 1.87
4 5 -4 234.88 6.41
4 5 -4 229.91 6.37
4 5 -4 227.73 6.23
4 5 -4 237.08 6.58
4 5 -3 18.04 1.8
4 5 -3 22.9 2.02
4 5 -3 20.51 1.9
4 5 -3 19.77 1.82
4 5 -2 115.89 4.53
4 5 -2 131.41 4.86
4 5 -2 128.04 4.65
4 5 -2 113.39 4.35
4 5 -1 373.83 8.19
4 5 -1 362.63 8.17
4 5 -1 386.38 8.2
4 5 -1 373.39 7.88
4 5 0 151.41 5.36
4 5 0 148.8 5.03
4 5 1 3.96 0.9
4 5 2 288.58 6.98
4 5 2 315.49 7.62
4 5 3 103.04 4.05
4 5 3 107.16 4.25
4 5 4 190.82 5.3
4 5 4 182.65 5.16
4 5 5 41.24 2.28
4 5 6 181.18 4.16
4 6 -10 48.32 2.19
4 6 -9 48.16 2.47
4 6 -9 45.3 2.29
4 6 -8 105.24 3.92
4 6 -8 97.25 3.68
4 6 -7 10.58 1.34
4 6 -7 9.91 1.25
4 6 -6 163.52 5.26
4 6 -6 167.47 5.62
4 6 -6 158.11 4.95
4 6 -5 72.8 3.8
4 6 -5 76.62 3.53
4 6 -4 64 3.58
4 6 -4 64.36 3.29
4 6 -4 64.62 3.34
4 6 -3 93.74 4.37
4 6 -3 94.59 4.02
4 6 -3 95.15 4.1
4 6 -2 296.44 7.77
4 6 -2 314.04 7.29
4 6 -1 173.6 5.37
4 6 -1 182.06 5.69
4 6 0 226.44 6.22
4 6 1 265.07 6.62
4 6 2 47.45 2.76
4 6 3 203.21 5.34
4 6 3 182.57 4.63
4 6 4 51.54 2.41
4 6 4 52.33 2.31
4 7 -8 257.47 5.32
4 7 -8 254.14 5.1
4 7 -7 93.57 3.49
4 7 -7 90.66 3.31
4 7 -6 27.41 1.91
4 7 -5 18.26 1.61
4 7 -4 371.75 7.45
4 7 -4 377.31 7.35
4 7 -3 194.25 5.43
4 7 -3 198.97 5.47
4 7 -2 6.98 1.07
4 7 -2 6.46 1.06
4 7 -1 8.79 1.19
4 7 0 18.56 1.64
4 7 1 234.31 5.63
4 7 2 74.9 3.02
4 7 3 130.05 3.5
4 8 -5 89.7 3.04
4 8 -4 30.2 1.81
4 8 -3 9.16 1
4 8 -2 127.65 3.73
4 8 -1 70.21 2.73
4 8 0 32.03 1.76
4 8 1 3.5 0.58
5 -8 2 11.6 1.09
5 -7 1 139.28 4.71
5 -7 2 49.94 2.79
5 -7 3 6.23 1
5 -7 4 11.05 1.22
5 -7 5 23.14 1.54
5 -7 5 23.29 1.46
5 -6 -4 307.84 8.45
5 -6 -4 267.03 8.07
5 -6 -3 169.9 6.3
5 -6 -3 174.41 6.54
5 -6 -2 246.83 7.51
5 -6 -2 259.24 7.92
5 -6 -1 506.36 10.77
5 -6 -1 511.13 10.97
5 -6 -1 512.4 11.18
5 -6 0 98.68 4.86
5 -6 0 100.02 4.93
5 -6 0 99.74 4.97
5 -6 1 15.7 1.81
5 -6 1 17.7 2.1
5 -6 1 16.55 2.05
5 -6 1 14.84 1.97
5 -6 1 15.62 2.03
5 -6 2 85.32 4.07
5 -6 2 86.29 4.47
5 -6 2 79.52 4.48
5 -6 3 73.97 3.72
5 -6 3 73.75 4.05
5 -6 4 2.36 0.74
5 -6 5 232.49 5.71
5 -6 5 231.24 5.48
5 -6 6 89.82 3.11
5 -6 6 77.28 2.84
5 -5 -7 6.21 1.09
5 -5 -6 14.31 1.82
5 -5 -6 8.79 1.38
5 -5 -5 14.43 1.84
5 -5 -5 17.65 2.13
5 -5 -5 14.83 1.88
5 -5 -4 1077.21 15.88
5 -5 -4 1057.14 16
5 -5 -3 92.36 4.63
5 -5 -3 104.72 5.01
5 -5 -2 1971.34 20.95
5 -5 -2 1979.71 21.46
5 -5 -2 1979.28 21.59
5 -5 -1 220.45 7.11
5 -5 -1 213.44 7.03
5 -5 -1 219.74 7.24
5 -5 0 234.56 7.4
5 -5 0 245.3 7.61
5 -5 0 240.18 7.6
5 -5 1 211.46 6.91
5 -5 1 205.01 6.98
5 -5 1 207.5 7.1
5 -5 1 213.05 7.18
5 -5 1 206.8 7.11
5 -5 2 432.28 9.86
5 -5 2 411.59 9.95
5 -5 2 427.88 10.28
5 -5 2 432.27 10.06
5 -5 2 452.52 10.68
5 -5 3 134.52 5.37
5 -5 3 137.24 5.64
5 -5 3 132.31 5.79
5 -5 4 238.12 6.81
5 -5 4 247 7.37
5 -5 5 42.55 2.74
5 -5 5 40.09 2.52
5 -5 6 30.88 2.08
5 -5 6 32.09 2.17
5 -5 6 31.71 1.91
5 -5 7 226.58 4.76
5 -4 -11 33.4 1.5
5 -4 -8 183.82 5.59
5 -4 -7 171.85 5.71
5 -4 -7 175.14 6.06
5 -4 -6 374.93 8.95
5 -4 -6 355.66 8.32
5 -4 -6 372.8 9.1
5 -4 -5 356.57 8.96
5 -4 -5 349.99 8.81
5 -4 -4 1166.37 15.82
5 -4 -4 1128.56 15.91
5 -4 -3 492.65 10.23
5 -4 -3 474.71 10.01
5 -4 -2 678.63 12
5 -4 -2 738.25 12.52
5 -4 -2 700.25 12.25
5 -4 -2 749.27 12.27
5 -4 -1 150.53 5.67
5 -4 -1 152.97 5.71
5 -4 -1 150.35 5.73
5 -4 -1 142.91 5.16
5 -4 0 238.64 6.71
5 -4 0 226.57 7.04
5 -4 0 221.03 6.94
5 -4 0 224.8 7.08
5 -4 0 219.7 6.82
5 -4 1 40.6 3.11
5 -4 1 37.58 2.87
5 -4 1 44.8 3.21
5 -4 1 40.44 3.03
5 -4 1 40.16 3.03
5 -4 2 153.36 5.99
5 -4 2 155.12 5.86
5 -4 2 163.53 6.16
5 -4 2 157.34 5.88
5 -4 2 157.18 6.11
5 -4 3 184.7 6.53
5 -4 3 190.1 6.56
5 -4 3 190.9 6.93
5 -4 4 105.42 4.79
5 -4 4 99.9 4.73
5 -4 4 107.06 4.65
5 -4 4 110.93 5.32
5 -4 5 32.22 2.47
5 -4 5 32.23 2.64
5 -4 5 37.61 2.79
5 -4 5 34.66 2.47
5 -4 6 34.22 2.36
5 -4 6 33.05 2.39
5 -4 6 34.05 2.12
5 -4 7 30.38 1.79
5 -4 7 35.24 2.14
5 -3 -10 10.75 1.1
5 -3 -8 278.46 6.87
5 -3 -8 272.36 7.15
5 -3 -7 119.38 4.71
5 -3 -7 127.52 4.91
5 -3 -7 124.61 4.74
5 -3 -7 126.07 4.94
5 -3 -6 87.66 4.16
5 -3 -6 89.98 4.2
5 -3 -6 85.1 3.95
5 -3 -6 88.5 4.18
5 -3 -5 3.47 0.92
5 -3 -5 5.57 1.1
5 -3 -5 5.57 1.08
5 -3 -4 255.39 6.94
5 -3 -4 257.18 7.1
5 -3 -4 245.15 6.96
5 -3 -3 706.33 11.31
5 -3 -3 713.42 11.83
5 -3 -3 696.85 11.15
5 -3 -2 26.35 2.23
5 -3 -2 24.19 2.15
5 -3 -2 25.36 2.18
5 -3 -2 20.4 1.93
5 -3 -1 28.5 2.33
5 -3 -1 29.01 2.36
5 -3 -1 31.01 2.44
5 -3 -1 25.76 2.16
5 -3 0 242.67 7.69
5 -3 0 262.59 7.1
5 -3 0 250.62 7.01
5 -3 0 260.9 7.15
5 -3 0 262.9 7.02
5 -3 0 261.53 6.71
5 -3 1 18.17 1.8
5 -3 1 18.87 2.16
5 -3 1 20 1.99
5 -3 1 20.85 2.1
5 -3 1 19.82 2.02
5 -3 1 18.53 1.99
5 -3 2 64.26 3.39
5 -3 2 66.63 3.94
5 -3 2 70.88 3.84
5 -3 2 64.43 3.65
5 -3 2 70.91 4.04
5 -3 3 53.93 3.57
5 -3 3 59.27 3.58
5 -3 3 52.89 3.43
5 -3 3 57.36 3.74
5 -3 4 220.88 7.03
5 -3 4 225.23 7.04
5 -3 4 232.53 7.41
5 -3 4 228.98 6.88
5 -3 4 219.48 7.39
5 -3 5 68.6 3.71
5 -3 5 66.93 3.8
5 -3 5 71.56 3.92
5 -3 5 69.61 3.49
5 -3 5 67.94 4.07
5 -3 6 14.35 1.66
5 -3 7 150.74 4.29
5 -3 7 159.09 4.82
5 -2 -12 26.47 1.45
5 -2 -11 49.18 2.17
5 -2 -10 126.59 3.97
5 -2 -9 112.65 4.24
5 -2 -9 127.09 4.47
5 -2 -9 119.67 3.98
5 -2 -8 102.7 4.28
5 -2 -8 93.74 3.84
5 -2 -8 100.8 4.23
5 -2 -8 101.42 3.94
5 -2 -7 211.42 5.98
5 -2 -7 207.78 6.08
5 -2 -7 209.63 5.88
5 -2 -7 193.82 5.73
5 -2 -6 141.34 4.95
5 -2 -6 141.05 4.88
5 -2 -6 129.95 4.79
5 -2 -6 142.64 4.89
5 -2 -6 136.56 4.82
5 -2 -5 100.14 4.12
5 -2 -5 95.75 4.06
5 -2 -5 96.59 4.12
5 -2 -4 228.41 6.06
5 -2 -4 239.54 6.36
5 -2 -4 230.26 6.29
5 -2 -3 333.75 7.23
5 -2 -3 344.22 7.55
5 -2 -3 343.64 7.36
5 -2 -3 341.68 7.6
5 -2 -2 138.48 4.71
5 -2 -2 142.32 4.8
5 -2 -2 146.31 4.89
5 -2 -2 137.77 5.37
5 -2 -2 145.88 4.93
5 -2 -1 0.24 0.41
5 -2 -1 0.91 0.5
5 -2 -1 0.9 0.42
5 -2 0 253.61 7.7
5 -2 0 264.44 6.58
5 -2 0 267.2 6.8
5 -2 0 268.74 6.87
5 -2 0 262.75 7.36
5 -2 0 262.24 6.76
5 -2 0 272.07 6.49
5 -2 1 78.17 3.52
5 -2 1 79.04 4.26
5 -2 1 76.11 3.57
5 -2 1 74.56 3.66
5 -2 1 76.17 3.74
5 -2 1 72.26 3.88
5 -2 1 76.82 3.86
5 -2 2 437.19 10
5 -2 2 441.66 8.95
5 -2 2 442.43 9.17
5 -2 2 422.87 9.51
5 -2 2 438.05 9.7
5 -2 3 278.17 8.01
5 -2 3 280.89 7.6
5 -2 3 282.42 8.42
5 -2 3 268.62 7.62
5 -2 3 287.58 8.16
5 -2 4 25.71 2.43
5 -2 4 31.88 2.6
5 -2 4 28.91 2.66
5 -2 4 28.64 2.42
5 -2 4 31.2 2.77
5 -2 5 149.59 5.54
5 -2 5 152.18 5.78
5 -2 5 153.81 5.18
5 -2 5 149.78 6.02
5 -2 6 309.11 7.69
5 -2 7 206.71 5.26
5 -2 7 193.32 5.45
5 -2 8 125.2 3.27
5 -1 -12 86.87 2.78
5 -1 -11 8.1 0.99
5 -1 -10 47.19 2.5
5 -1 -9 166.24 5.03
5 -1 -9 166.35 5.29
5 -1 -9 170.33 4.96
5 -1 -8 159.21 5.15
5 -1 -8 160.31 4.92
5 -1 -8 156.47 5.03
5 -1 -8 160.35 4.96
5 -1 -7 111.25 4.12
5 -1 -7 113.11 4.28
5 -1 -7 122.29 4.43
5 -1 -7 113.34 4.12
5 -1 -6 53.48 2.86
5 -1 -6 49.73 2.89
5 -1 -6 53.4 2.83
5 -1 -6 51.62 2.82
5 -1 -6 59.95 3.02
5 -1 -6 52.3 2.83
5 -1 -5 748.72 10.36
5 -1 -5 757.33 10.66
5 -1 -5 753.98 10.62
5 -1 -5 740.27 10.28
5 -1 -5 745.99 10.46
5 -1 -4 76.74 3.27
5 -1 -4 74.58 3.32
5 -1 -4 77.37 3.26
5 -1 -4 75.69 3.32
5 -1 -4 67.21 3.48
5 -1 -3 68.69 3.09
5 -1 -3 71.88 3.23
5 -1 -3 70.89 3.16
5 -1 -3 70.42 3.17
5 -1 -2 27.87 1.99
5 -1 -2 26.48 1.96
5 -1 -2 33.26 2.24
5 -1 -1 560.33 8.9
5 -1 -1 578.72 9.24
5 -1 -1 582.29 9.53
5 -1 -1 562.59 10.37
5 -1 0 27.73 2.49
5 -1 0 28.19 2.03
5 -1 0 29.8 2.16
5 -1 0 29.59 2.21
5 -1 0 35.59 2.63
5 -1 0 31.12 2.27
5 -1 0 32.49 2.2
5 -1 1 451.27 9.88
5 -1 1 439.29 8.32
5 -1 1 444.18 8.74
5 -1 1 433.52 9.23
5 -1 1 448.26 9.04
5 -1 1 434.25 8.88
5 -1 2 704.66 12.5
5 -1 2 698.89 10.54
5 -1 2 694.29 11.16
5 -1 2 688 11.84
5 -1 2 703.28 11.95
5 -1 2 690.49 11.13
5 -1 3 268.29 7.17
5 -1 3 271.56 8.15
5 -1 3 259 7.25
5 -1 3 264.83 7.69
5 -1 3 281.72 7.05
5 -1 4 3.91 1.06
5 -1 4 2.3 0.77
5 -1 4 2.46 0.78
5 -1 4 3.27 0.98
5 -1 5 91.34 4.31
5 -1 5 92.51 4.48
5 -1 5 90.95 3.88
5 -1 5 90.32 4.64
5 -1 6 212.33 5.95
5 -1 6 226.85 6.55
5 -1 7 167.25 4.8
5 -1 8 124.92 3.34
5 0 -12 137.14 3.5
5 0 -12 160.45 3.91
5 0 -11 1.64 0.54
5 0 -11 2.79 0.66
5 0 -10 152.57 4.5
5 0 -10 138.52 4.28
5 0 -9 928.55 11.57
5 0 -9 900.62 11.77
5 0 -9 885.66 11.93
5 0 -9 914.5 11.55
5 0 -8 584.41 9.44
5 0 -8 595.41 9.3
5 0 -8 579.73 9.38
5 0 -8 602.94 9.54
5 0 -7 182.55 5.14
5 0 -7 187.04 5.36
5 0 -7 195.08 5.29
5 0 -7 185.36 5.04
5 0 -7 177.35 5.02
5 0 -7 182.71 5.22
5 0 -6 8.17 1.1
5 0 -6 8.15 1.15
5 0 -6 7.76 1.14
5 0 -6 7.34 1.05
5 0 -6 8.7 1.08
5 0 -6 9.49 1.14
5 0 -6 9.43 1.16
5 0 -5 6.11 0.94
5 0 -5 6.77 1.03
5 0 -5 6.73 1.04
5 0 -5 6.75 0.99
5 0 -5 8.76 1.06
5 0 -5 6.86 0.96
5 0 -5 6.48 0.96
5 0 -4 3.09 0.66
5 0 -4 1.31 0.48
5 0 -4 3.6 0.74
5 0 -4 2.91 0.64
5 0 -4 4.74 0.79
5 0 -4 1.67 0.61
5 0 -3 745.82 9.57
5 0 -3 739.58 9.71
5 0 -3 765.47 10.08
5 0 -3 742.17 9.21
5 0 -3 734.99 9.27
5 0 -2 883.84 10.61
5 0 -2 896.76 10.83
5 0 -2 876.45 11.01
5 0 -2 857.09 12.28
5 0 -2 880.15 11.88
5 0 -1 316.86 6.25
5 0 -1 299.97 7.28
5 0 -1 308.58 6.99
5 0 0 376.39 6.87
5 0 0 383.7 7.28
5 0 0 409.2 7.93
5 0 0 376.22 8.25
5 0 0 400.28 8.03
5 0 0 382.43 7.91
5 0 1 211.02 5.48
5 0 1 192 5.6
5 0 1 196.86 6.1
5 0 1 205.07 6.09
5 0 1 212.7 6.07
5 0 2 156.45 5.18
5 0 2 161.77 5.58
5 0 2 149.33 5.51
5 0 2 149.17 5.08
5 0 3 129.4 4.94
5 0 3 125.63 5.45
5 0 3 126.57 4.9
5 0 3 131.8 5.4
5 0 3 126.76 4.62
5 0 4 50.67 3.17
5 0 4 57.01 3.62
5 0 4 54.62 3.15
5 0 4 51.72 3.45
5 0 5 107.23 4.46
5 0 5 121.96 4.91
5 0 5 114.78 5.15
5 0 6 160.28 5.13
5 0 7 168.66 4.71
5 0 8 41.73 1.88
5 1 -12 166.8 3.99
5 1 -12 161.48 3.96
5 1 -11 8.34 1.04
5 1 -11 9.65 1.12
5 1 -10 370.7 7.04
5 1 -10 393.92 7.26
5 1 -9 251.27 5.97
5 1 -9 257.88 6.3
5 1 -9 268.16 6.27
5 1 -8 868.51 11.19
5 1 -8 903.47 12.08
5 1 -8 842.72 11.1
5 1 -8 856.03 11.52
5 1 -8 908.33 11.59
5 1 -7 92.41 3.66
5 1 -7 88.55 3.67
5 1 -7 92.53 3.76
5 1 -7 96.34 3.92
5 1 -7 87.43 3.43
5 1 -7 90 3.58
5 1 -7 92.75 3.67
5 1 -6 622.26 9.09
5 1 -6 639.39 9.77
5 1 -6 650.01 9.6
5 1 -6 651.76 9.96
5 1 -6 639.39 8.83
5 1 -6 608.43 8.93
5 1 -6 632.83 9.5
5 1 -5 311.58 6.2
5 1 -5 321.09 6.83
5 1 -5 309.19 6.73
5 1 -5 323.2 6.64
5 1 -5 316.22 5.91
5 1 -5 308.26 6.1
5 1 -4 74.44 2.96
5 1 -4 77.63 3.31
5 1 -4 74 3.25
5 1 -4 76.41 3.16
5 1 -4 80.02 3.02
5 1 -4 75.97 3.44
5 1 -3 78.42 3.06
5 1 -3 78.85 3.39
5 1 -3 73.47 3.22
5 1 -3 74.74 3.07
5 1 -3 78.98 3.28
5 1 -3 71.52 3.31
5 1 -2 638.77 8.71
5 1 -2 655.16 9.9
5 1 -2 634.74 9.72
5 1 -2 649.6 9.06
5 1 -2 661.57 9.56
5 1 -2 666.63 10.62
5 1 -2 644.9 9.89
5 1 -1 313.26 6.05
5 1 -1 299.57 6.83
5 1 -1 309.29 6.91
5 1 -1 329.85 6.56
5 1 -1 312.29 6.74
5 1 -1 314.87 7.32
5 1 -1 312.3 6.89
5 1 0 56.91 2.59
5 1 0 58 2.81
5 1 0 57.02 3.03
5 1 0 59.31 3.02
5 1 0 59.82 3.23
5 1 0 64.94 3.25
5 1 0 57.94 3.07
5 1 1 435.72 7.85
5 1 1 426.77 8.31
5 1 1 433.01 8.86
5 1 1 437.7 8.87
5 1 1 426.29 8.34
5 1 2 613.12 10.37
5 1 2 612.8 10.62
5 1 2 586.19 10.95
5 1 2 596.92 9.91
5 1 3 448.85 9.17
5 1 3 429.8 9.66
5 1 3 446.88 8.52
5 1 4 151.66 5.54
5 1 4 167.91 5.7
5 1 4 164.4 6.08
5 1 5 206.6 6.08
5 1 5 220 6.39
5 1 6 9.31 1.25
5 1 7 65.5 2.78
5 2 -12 17.57 1.3
5 2 -12 13.87 1.13
5 2 -11 140.06 4.11
5 2 -11 123.54 3.77
5 2 -10 7.99 1.06
5 2 -10 9.07 1.11
5 2 -9 10.96 1.28
5 2 -9 14.87 1.46
5 2 -8 745.25 10.42
5 2 -8 740.98 11.07
5 2 -8 755.55 11.07
5 2 -8 781.86 10.67
5 2 -8 740.45 10.68
5 2 -8 710.88 10.83
5 2 -8 713.18 10.22
5 2 -7 101.28 3.9
5 2 -7 97.02 3.92
5 2 -7 96.02 3.99
5 2 -7 93.53 3.83
5 2 -7 96.35 3.71
5 2 -7 94.06 3.83
5 2 -7 89.54 3.62
5 2 -6 604.19 9.38
5 2 -6 600.8 9.24
5 2 -6 591.97 9.44
5 2 -6 591.26 9.43
5 2 -6 574.29 9.31
5 2 -6 592.18 8.74
5 2 -6 578.21 9.02
5 2 -6 585.84 9.19
5 2 -5 107.75 4
5 2 -5 100.85 3.64
5 2 -5 104.72 3.95
5 2 -5 105.7 3.88
5 2 -5 99.93 3.86
5 2 -5 107.18 3.73
5 2 -5 95.22 3.88
5 2 -5 103.66 3.87
5 2 -4 125.78 4.35
5 2 -4 131.08 4.06
5 2 -4 127.47 4.34
5 2 -4 131.1 4.23
5 2 -4 124.59 4.24
5 2 -4 129.14 4.3
5 2 -3 213 5.19
5 2 -3 227.02 5.83
5 2 -3 212.52 5.27
5 2 -3 210.92 5.51
5 2 -3 214.9 5.42
5 2 -3 210.71 5.52
5 2 -3 213.27 5.71
5 2 -2 86.08 3.3
5 2 -2 86.03 3.63
5 2 -2 86.8 3.45
5 2 -2 90.91 3.67
5 2 -2 85 3.47
5 2 -2 85.41 3.62
5 2 -1 421.27 7.32
5 2 -1 413.67 8.06
5 2 -1 420.5 7.7
5 2 -1 413.21 7.91
5 2 -1 415.98 7.94
5 2 -1 395.58 7.78
5 2 0 560.4 9.01
5 2 0 554.65 9.43
5 2 0 559.35 9.49
5 2 1 461.24 9.73
5 2 1 462.92 8.38
5 2 1 474.13 8.89
5 2 1 453.24 9.19
5 2 2 315.41 7.41
5 2 2 313.94 7.94
5 2 3 69.26 3.74
5 2 3 71.57 3.65
5 2 3 73.19 3.94
5 2 3 72.39 3.34
5 2 4 111.18 4.57
5 2 4 113.23 4.58
5 2 5 11.68 1.42
5 2 6 82.83 3.35
5 2 7 67.55 2.54
5 3 -11 62.52 2.64
5 3 -10 13.22 1.33
5 3 -9 72.29 3.18
5 3 -8 166.66 5.01
5 3 -8 170.11 5.48
5 3 -8 174.21 5.24
5 3 -7 513.27 8.94
5 3 -7 499.47 9.09
5 3 -7 485.68 9.34
5 3 -7 511.01 8.99
5 3 -7 503.08 8.6
5 3 -6 533.57 9.1
5 3 -6 497.67 8.82
5 3 -6 507.37 9.22
5 3 -6 522.56 9.01
5 3 -6 495.63 8.92
5 3 -6 513.73 8.75
5 3 -5 389.77 7.79
5 3 -5 370.14 7.42
5 3 -5 373.57 7.72
5 3 -5 369.26 7.49
5 3 -5 377.91 7.74
5 3 -5 367.85 7.31
5 3 -4 172.12 5.03
5 3 -4 158.59 4.92
5 3 -4 168.58 5.01
5 3 -4 167.4 5.08
5 3 -4 170.47 5.01
5 3 -3 39.23 2.41
5 3 -3 36.2 2.34
5 3 -3 40.72 2.49
5 3 -3 38.37 2.41
5 3 -3 36.61 2.38
5 3 -2 637.79 9.75
5 3 -2 655.28 9.99
5 3 -2 667.6 10.07
5 3 -2 651.06 10.07
5 3 -2 647.75 10
5 3 -1 593.34 9.43
5 3 -1 589.71 9.62
5 3 -1 589.9 9.51
5 3 -1 581.93 9.66
5 3 -1 559.03 9.27
5 3 0 749.15 11.1
5 3 0 734.02 10.67
5 3 0 748.39 11.21
5 3 0 738.69 10.88
5 3 1 29.45 2.27
5 3 1 26.58 2.1
5 3 2 257.17 7
5 3 2 264.67 6.89
5 3 2 257.73 6.4
5 3 3 196.3 5.96
5 3 3 202.32 6.09
5 3 3 205.11 5.45
5 3 4 267.85 6.62
5 3 4 298.5 7.3
5 3 5 52.07 2.73
5 3 6 10.81 1.11
5 4 -11 63.55 2.45
5 4 -10 71.58 2.91
5 4 -9 25.63 1.88
5 4 -9 24.16 1.82
5 4 -8 9.91 1.25
5 4 -8 13.3 1.42
5 4 -7 277.93 6.63
5 4 -7 307.39 7.36
5 4 -7 266.1 7.13
5 4 -7 309.61 6.95
5 4 -6 48.35 2.84
5 4 -6 48.76 2.86
5 4 -6 50.9 3.11
5 4 -6 47.29 2.74
5 4 -5 265.63 6.71
5 4 -5 266 6.93
5 4 -5 268.48 6.49
5 4 -5 269.6 6.57
5 4 -4 351.76 7.69
5 4 -4 352.09 7.81
5 4 -4 334.73 7.28
5 4 -4 331.08 7.23
5 4 -3 84.91 3.82
5 4 -3 87.57 3.92
5 4 -3 83.75 3.67
5 4 -3 87.57 3.73
5 4 -2 182.69 5.58
5 4 -2 187.11 5.82
5 4 -2 180.95 5.38
5 4 -2 184.92 5.64
5 4 -2 182.36 5.39
5 4 -1 317.33 7.66
5 4 -1 325.54 7.19
5 4 -1 332.47 7.61
5 4 -1 305.61 7.01
5 4 0 435.7 8.8
5 4 0 435.53 8.36
5 4 1 30.73 2.35
5 4 1 29.57 2.2
5 4 2 76.49 3.49
5 4 2 89.06 4.02
5 4 2 81.82 3.51
5 4 3 57.74 2.95
5 4 3 51.18 2.8
5 4 4 181.39 4.89
5 4 5 35.54 1.95
5 5 -10 25.16 1.59
5 5 -9 56.93 2.64
5 5 -9 63.28 2.72
5 5 -8 43.67 2.46
5 5 -8 42.69 2.39
5 5 -7 148.95 4.76
5 5 -7 146.33 4.56
5 5 -6 203.93 5.63
5 5 -6 196.74 5.92
5 5 -6 199.87 5.41
5 5 -5 99.48 4.27
5 5 -5 98.55 4.32
5 5 -5 98.86 3.86
5 5 -4 65.4 3.51
5 5 -4 62.45 3.42
5 5 -4 65.79 3.2
5 5 -4 63.42 3.25
5 5 -3 39.92 2.8
5 5 -3 37.72 2.72
5 5 -3 41.16 2.57
5 5 -3 35.58 2.37
5 5 -2 106.16 4.58
5 5 -2 109.29 4.17
5 5 -2 107.36 4.04
5 5 -1 119.28 4.9
5 5 -1 133.42 4.49
5 5 -1 125.76 4.35
5 5 0 150.69 4.72
5 5 1 20.07 1.8
5 5 2 21.33 1.79
5 5 3 33.69 2.07
5 5 4 159.13 3.69
5 6 -9 30.89 1.66
5 6 -8 2.67 0.61
5 6 -8 5.16 0.78
5 6 -7 7.3 0.97
5 6 -6 163.98 4.54
5 6 -5 68.92 3.06
5 6 -4 51.74 2.69
5 6 -4 49.95 2.69
5 6 -3 19.34 1.69
5 6 -3 20.01 1.75
5 6 -2 116.22 4.04
5 6 -2 119.65 4.21
5 6 -1 18.08 1.65
5 6 0 28.61 2.01
5 6 1 15.62 1.45
5 6 2 9.94 1.08
5 7 -7 34.47 1.71
5 7 -6 60.9 2.44
5 7 -5 76.61 2.88
5 7 -4 127.92 3.79
5 7 -4 117.09 3.44
5 7 -3 99.94 3.33
5 7 -3 100.78 3.33
5 7 -2 45.8 2.28
5 7 -1 25.18 1.66
5 7 0 32.44 1.78
5 7 1 11.77 1.01
6 -7 -1 684.57 8.82
6 -7 0 198.15 4.82
6 -7 1 109.4 3.52
6 -7 2 59.14 2.45
6 -7 3 20.66 1.29
6 -6 -2 119.7 4.28
6 -6 -1 327.72 7.24
6 -6 0 3.4 0.81
6 -6 1 110.62 4.14
6 -6 2 98 3.63
6 -6 2 94.82 3.64
6 -6 3 8.66 1.06
6 -6 3 8 1.01
6 -6 3 10.61 1.06
6 -6 4 11.62 1.06
6 -5 -4 280.61 7.76
6 -5 -3 133.06 5.39
6 -5 -3 137.54 5.72
6 -5 -2 426 9.85
6 -5 -2 409.85 9.88
6 -5 -2 421.29 8.89
6 -5 -1 76.96 4.22
6 -5 -1 85.89 4.56
6 -5 -1 80.72 4.33
6 -5 -1 78.59 3.91
6 -5 0 244.84 7.47
6 -5 0 260.96 7.72
6 -5 0 246.52 6.88
6 -5 1 122.79 4.71
6 -5 1 123.31 5.2
6 -5 1 126.26 4.79
6 -5 2 135.05 4.85
6 -5 2 143.54 4.85
6 -5 3 368.79 7.62
6 -5 3 389.69 7.6
6 -5 3 366.93 6.83
6 -5 4 14.73 1.43
6 -5 4 15.3 1.4
6 -5 5 2.94 0.53
6 -4 -8 219.11 4.68
6 -4 -6 423.59 9.35
6 -4 -6 434.58 9.09
6 -4 -5 220.75 6.88
6 -4 -5 211.87 6.93
6 -4 -4 252.93 7.41
6 -4 -4 265.31 7.91
6 -4 -4 250.36 7.72
6 -4 -3 791.01 13.15
6 -4 -3 787.35 13.81
6 -4 -2 486.99 10.43
6 -4 -2 474.69 10.42
6 -4 -2 482.49 10.33
6 -4 -2 497.73 10.24
6 -4 -2 470.66 10.79
6 -4 -1 409.44 9.59
6 -4 -1 413.32 9.84
6 -4 -1 410.17 9.33
6 -4 0 256.35 7.6
6 -4 0 262.34 7.86
6 -4 0 254.01 7.58
6 -4 0 256.12 7.35
6 -4 1 175.08 5.98
6 -4 1 165.84 6.1
6 -4 1 173.35 5.88
6 -4 2 284.01 7.41
6 -4 2 279.81 7.77
6 -4 2 278.88 7.13
6 -4 3 344.56 7.94
6 -4 3 353.33 7.7
6 -4 3 340.73 6.98
6 -4 4 82.74 3.44
6 -4 5 151.43 3.99
6 -3 -10 56.04 2.23
6 -3 -8 4.78 0.82
6 -3 -8 6.63 0.94
6 -3 -7 132.3 4.96
6 -3 -7 152.19 5.21
6 -3 -6 173.96 5.86
6 -3 -6 158.57 4.99
6 -3 -6 152.28 5.67
6 -3 -6 169.03 5.7
6 -3 -6 168.67 5.86
6 -3 -5 178.83 6
6 -3 -5 186.06 6.33
6 -3 -5 175.03 5.94
6 -3 -5 192.47 6.42
6 -3 -4 520.19 10.26
6 -3 -4 551.36 10.9
6 -3 -4 536.73 10.92
6 -3 -3 268.43 7.45
6 -3 -3 293.84 7.99
6 -3 -3 280.6 7.66
6 -3 -3 283.63 8.02
6 -3 -2 248.43 7.17
6 -3 -2 240.23 7.19
6 -3 -2 255.21 7.39
6 -3 -2 254.21 7.38
6 -3 -2 247.4 7.5
6 -3 -1 178.92 6.12
6 -3 -1 187.59 6.4
6 -3 -1 185.86 6.36
6 -3 -1 187.69 6.33
6 -3 0 281.55 7.64
6 -3 0 278.94 7.82
6 -3 0 287.83 7.97
6 -3 0 290.69 7.92
6 -3 1 153.09 5.76
6 -3 1 150.98 5.75
6 -3 1 160.25 5.96
6 -3 1 152.32 5.6
6 -3 2 4.59 1.07
6 -3 2 4.69 1.07
6 -3 2 4.13 1.12
6 -3 2 4.53 0.93
6 -3 3 48.27 3.18
6 -3 3 50.39 2.97
6 -3 3 47.26 2.64
6 -3 4 167.81 5.04
6 -3 5 104.5 3.46
6 -3 6 13.55 1.19
6 -2 -11 55.3 2.06
6 -2 -10 39.86 2.05
6 -2 -9 1.76 0.5
6 -2 -8 174.5 4.88
6 -2 -8 178.63 5.37
6 -2 -8 177.49 4.9
6 -2 -7 6.31 1.13
6 -2 -7 7.16 1.09
6 -2 -7 7.66 1.2
6 -2 -7 7 1.16
6 -2 -6 197.09 6.02
6 -2 -6 198.39 5.7
6 -2 -6 191.14 6.09
6 -2 -6 181.73 5.96
6 -2 -6 203.67 6.1
6 -2 -6 204.84 6.23
6 -2 -5 101.45 4.31
6 -2 -5 100.47 4.13
6 -2 -5 105.2 4.52
6 -2 -5 98.64 4.49
6 -2 -5 113.34 4.55
6 -2 -5 99.67 4.39
6 -2 -4 267.83 6.98
6 -2 -4 276.57 7.4
6 -2 -4 280.52 7.19
6 -2 -4 268.43 7.26
6 -2 -4 259.2 6.94
6 -2 -3 544.62 9.99
6 -2 -3 541.93 10.23
6 -2 -3 585.02 10.94
6 -2 -3 560.37 10.58
6 -2 -3 519.23 9.84
6 -2 -2 151.17 5.36
6 -2 -2 142.29 5.28
6 -2 -2 154.21 5.53
6 -2 -2 154.38 5.61
6 -2 -1 304.08 7.48
6 -2 -1 312.82 7.82
6 -2 -1 314.85 7.99
6 -2 -1 303.08 7.93
6 -2 0 518.2 9.77
6 -2 0 504.18 10.02
6 -2 0 526.84 10.52
6 -2 0 515.58 10.34
6 -2 0 492.15 9.56
6 -2 1 1.13 0.56
6 -2 1 1.33 0.67
6 -2 1 2.54 0.73
6 -2 2 32.15 2.59
6 -2 2 35.18 2.62
6 -2 2 32.35 2.82
6 -2 2 32.67 2.38
6 -2 3 3.85 0.97
6 -2 3 5.81 1.07
6 -2 3 3.24 0.94
6 -2 3 4.4 0.85
6 -2 4 15.7 1.56
6 -2 5 2.82 0.69
6 -2 6 85.92 3.05
6 -1 -11 14.5 1.16
6 -1 -11 13.31 1.13
6 -1 -10 25.19 1.7
6 -1 -10 24.98 1.63
6 -1 -9 50.1 2.52
6 -1 -8 82.46 3.69
6 -1 -8 89.37 3.57
6 -1 -8 90.31 3.78
6 -1 -7 331.92 7.42
6 -1 -7 330.92 7.1
6 -1 -7 342.1 7.19
6 -1 -7 335.43 7.26
6 -1 -7 326.51 7.44
6 -1 -6 49.63 2.92
6 -1 -6 50.81 2.86
6 -1 -6 49.46 2.82
6 -1 -6 50.91 3.02
6 -1 -6 50.8 2.85
6 -1 -6 48.29 2.89
6 -1 -5 21.81 1.92
6 -1 -5 22.4 1.94
6 -1 -5 25.39 2.13
6 -1 -5 21.95 1.9
6 -1 -5 20.72 1.88
6 -1 -5 20.06 1.88
6 -1 -4 276.44 6.7
6 -1 -4 261.05 6.6
6 -1 -4 280.55 7.02
6 -1 -4 276.9 6.67
6 -1 -4 282.4 6.9
6 -1 -4 279.04 7
6 -1 -3 119.56 4.51
6 -1 -3 117.41 4.53
6 -1 -3 108.39 4.22
6 -1 -3 117.24 4.52
6 -1 -2 757.6 11.3
6 -1 -2 746.43 11.45
6 -1 -2 779.5 11.91
6 -1 -2 761.59 12.1
6 -1 -2 727 11.41
6 -1 -1 67.82 3.34
6 -1 -1 72.77 3.64
6 -1 -1 68.37 3.61
6 -1 -1 67.84 3.64
6 -1 -1 68.88 3.49
6 -1 0 343.84 7.51
6 -1 0 332.52 7.75
6 -1 0 349.62 8.28
6 -1 0 334.16 8.14
6 -1 0 332.83 7.66
6 -1 1 29.1 2.31
6 -1 1 31.88 2.55
6 -1 1 28.75 2.37
6 -1 1 30.35 2.33
6 -1 2 20.31 2.04
6 -1 2 19.94 1.97
6 -1 2 17.92 2.12
6 -1 2 18.83 1.79
6 -1 3 193.77 6.19
6 -1 3 192.67 5.7
6 -1 3 173.39 6.48
6 -1 3 192.6 5.22
6 -1 4 44.5 2.55
6 -1 5 224.84 5.6
6 -1 6 149.66 4.04
6 0 -11 34.57 1.83
6 0 -11 31.9 1.73
6 0 -10 13.12 1.27
6 0 -10 11.6 1.16
6 0 -9 225.34 5.25
6 0 -9 229.44 5.4
6 0 -8 91.74 3.93
6 0 -8 99.25 3.77
6 0 -8 92.45 3.76
6 0 -8 100.45 3.73
6 0 -7 126.14 4.45
6 0 -7 127.65 4.41
6 0 -7 130.82 4.46
6 0 -7 121.95 4.27
6 0 -7 131.81 4.62
6 0 -7 123.16 4.22
6 0 -6 346.8 7.35
6 0 -6 353.58 7.42
6 0 -6 377.81 7.62
6 0 -6 369.7 7.94
6 0 -6 352.57 7.13
6 0 -6 338.73 7.27
6 0 -5 1113.51 13.05
6 0 -5 1145.5 13.34
6 0 -5 1158.86 13.48
6 0 -5 1149.57 13.85
6 0 -5 1129.6 13.1
6 0 -4 195.32 5.44
6 0 -4 189.03 5.45
6 0 -4 214.01 5.79
6 0 -4 205.13 5.81
6 0 -4 216.14 5.96
6 0 -3 345.2 7.35
6 0 -3 344.64 7.34
6 0 -3 331.9 7.21
6 0 -3 345.34 7.46
6 0 -3 337.26 7.44
6 0 -2 640.86 9.85
6 0 -2 630.41 9.96
6 0 -2 624.06 9.97
6 0 -2 659.73 10.51
6 0 -2 684.33 10.9
6 0 -2 644.05 10.88
6 0 -2 658.6 10.55
6 0 -1 109.83 4.09
6 0 -1 107.61 4.09
6 0 -1 98.16 3.98
6 0 -1 109.92 4.28
6 0 -1 108.03 4.45
6 0 -1 110.59 4.54
6 0 -1 106.87 4.24
6 0 0 221.74 6.17
6 0 0 222.56 5.94
6 0 0 230.29 6.61
6 0 0 229.42 6.52
6 0 0 216.17 6.03
6 0 1 309.26 6.86
6 0 1 307.15 7.73
6 0 1 310.15 7.55
6 0 1 300.2 7.04
6 0 2 55.26 3.25
6 0 2 55.73 3.16
6 0 2 54.46 3.56
6 0 2 54.71 2.94
6 0 3 425.2 9.07
6 0 3 431.45 7.67
6 0 4 160.55 5.11
6 0 5 33.03 2.16
6 0 6 162.87 4.04
6 1 -11 140.58 3.68
6 1 -11 108.8 3.14
6 1 -10 303.15 5.83
6 1 -10 297.83 5.67
6 1 -9 258.56 5.66
6 1 -9 269.14 5.7
6 1 -9 272.06 5.86
6 1 -8 618.13 10.31
6 1 -8 636.15 9.39
6 1 -8 613.54 9.03
6 1 -7 3.21 0.78
6 1 -7 3.11 0.79
6 1 -7 2.31 0.68
6 1 -7 4.98 0.91
6 1 -7 2.18 0.68
6 1 -7 2.02 0.63
6 1 -7 1.76 0.59
6 1 -6 93.45 3.79
6 1 -6 102.6 3.94
6 1 -6 99.64 4.11
6 1 -6 95.25 3.8
6 1 -6 84.67 3.65
6 1 -6 98.16 3.75
6 1 -5 223.07 5.69
6 1 -5 222.82 5.8
6 1 -5 238.83 6.27
6 1 -5 233.2 5.97
6 1 -5 227.02 5.75
6 1 -4 102.09 3.85
6 1 -4 104.76 4
6 1 -4 102.92 4.08
6 1 -4 98.56 3.85
6 1 -4 98.79 3.95
6 1 -3 33.13 2.21
6 1 -3 35.84 2.37
6 1 -3 32.81 2.25
6 1 -3 36.29 2.42
6 1 -3 35.69 2.4
6 1 -2 29.19 2.06
6 1 -2 30.05 2.17
6 1 -2 26.53 2.04
6 1 -2 26.35 2.09
6 1 -2 27.23 2.18
6 1 -2 32.52 2.31
6 1 -1 12.18 1.36
6 1 -1 13.2 1.44
6 1 -1 10.26 1.35
6 1 -1 11.35 1.36
6 1 -1 9.97 1.36
6 1 -1 10.02 1.3
6 1 0 253.34 6.56
6 1 0 255.2 6.22
6 1 0 249.47 6.85
6 1 0 248.86 6.36
6 1 1 81.5 3.97
6 1 1 77.64 3.82
6 1 1 77.84 3.52
6 1 2 110.17 4.53
6 1 2 110.59 4.55
6 1 2 100.24 4.7
6 1 3 200 6
6 1 3 195.06 5.01
6 1 4 8.5 1.19
6 1 5 95.99 3.45
6 1 6 60.75 2.28
6 2 -11 134.3 3.52
6 2 -10 36.75 2.02
6 2 -9 35.41 2.1
6 2 -8 1.64 0.55
6 2 -8 1.22 0.5
6 2 -7 330.98 6.8
6 2 -7 335.04 7.47
6 2 -7 330.87 6.89
6 2 -7 331.91 6.7
6 2 -6 165.68 4.85
6 2 -6 164.73 5.15
6 2 -6 162.76 5.36
6 2 -6 172.27 5.03
6 2 -6 163.78 4.8
6 2 -5 170.5 4.97
6 2 -5 169.25 5.21
6 2 -5 169.81 5.35
6 2 -5 167.84 4.97
6 2 -5 174.7 5.14
6 2 -5 168.51 4.88
6 2 -4 36.68 2.4
6 2 -4 36.91 2.39
6 2 -4 34.21 2.37
6 2 -4 38.39 2.4
6 2 -4 37.34 2.39
6 2 -4 37.95 2.31
6 2 -3 113.2 4.19
6 2 -3 116.04 4.23
6 2 -3 112.38 4.29
6 2 -3 116.54 4.18
6 2 -2 313.62 7.09
6 2 -2 302.48 7.14
6 2 -2 305.36 6.79
6 2 -2 312.46 7.37
6 2 -1 338.21 7.65
6 2 -1 350.95 7.22
6 2 -1 346.76 7.83
6 2 0 36.56 2.57
6 2 0 42.57 2.47
6 2 0 43.92 2.82
6 2 1 38.11 2.63
6 2 1 38 2.38
6 2 2 2.82 0.76
6 2 2 2.24 0.69
6 2 2 2.31 0.64
6 2 3 36.99 2.38
6 2 3 37.54 2.15
6 2 4 2.53 0.65
6 2 5 14.33 1.22
6 3 -11 62.54 2.24
6 3 -10 139.5 3.8
6 3 -9 116.35 3.74
6 3 -9 110.24 3.59
6 3 -8 5.63 0.91
6 3 -8 5.02 0.87
6 3 -7 121.71 4.07
6 3 -7 119.05 4.44
6 3 -7 122.32 4.12
6 3 -6 50.33 2.65
6 3 -6 50.08 2.86
6 3 -6 49.85 3.05
6 3 -6 46.83 2.59
6 3 -6 46.38 2.52
6 3 -5 19.16 1.8
6 3 -5 23.8 2.07
6 3 -5 20.32 1.71
6 3 -5 22.28 1.81
6 3 -5 18.18 1.59
6 3 -4 283.61 6.87
6 3 -4 273.9 6.87
6 3 -4 291.15 6.46
6 3 -4 283.05 6.48
6 3 -4 279.41 6.2
6 3 -3 204.35 5.91
6 3 -3 207.26 6.04
6 3 -3 208.89 5.55
6 3 -3 194.97 5.41
6 3 -2 318.6 7.59
6 3 -2 333.36 6.99
6 3 -2 334.54 7.68
6 3 -2 325.36 6.96
6 3 -1 336.98 6.91
6 3 -1 339.57 7.8
6 3 -1 337.65 7.03
6 3 0 173.17 5.57
6 3 0 165.09 4.87
6 3 1 138.36 4.9
6 3 1 137.76 4.34
6 3 2 23.96 1.76
6 3 3 80.51 3.13
6 3 4 219.3 4.63
6 4 -10 18.23 1.28
6 4 -9 76.25 2.83
6 4 -9 76.09 2.77
6 4 -8 242.03 5.43
6 4 -8 266.28 5.64
6 4 -7 280.03 6.01
6 4 -7 257.76 5.78
6 4 -6 10.69 1.23
6 4 -5 139.11 4.31
6 4 -5 141.45 4.36
6 4 -4 517.91 8.47
6 4 -4 515.77 8.47
6 4 -3 38.15 2.34
6 4 -3 38.75 2.35
6 4 -2 62.45 2.95
6 4 -2 59.16 2.86
6 4 -1 192.21 5.07
6 4 -1 148.52 4.47
6 4 0 278.32 6.05
6 4 1 42.5 2.3
6 4 2 36.91 2.12
6 4 3 62.88 2.43
6 5 -8 130.9 3.58
6 5 -7 47.72 2.32
6 5 -6 411.17 6.87
6 5 -5 26.91 1.84
6 5 -4 18.4 1.58
6 5 -4 19.25 1.6
6 5 -3 20 1.62
6 5 -3 26.2 1.89
6 5 -2 43.04 2.31
6 5 -2 46.88 2.52
6 5 -1 308.44 6.28
6 5 0 114.98 3.74
6 5 1 132.21 3.81
6 5 2 8.4 0.88
6 6 -7 52.32 2.05
6 6 -6 70.1 2.55
6 6 -5 122.88 3.47
6 6 -4 6.4 0.83
6 6 -4 4.92 0.71
6 6 -3 27.03 1.64
6 6 -3 30.03 1.76
6 6 -2 147.75 3.89
6 6 -1 15.68 1.23
6 6 0 32.21 1.66
7 -6 -4 17 1.11
7 -6 -3 28.74 1.64
7 -6 -2 78.56 2.77
7 -6 -1 28.74 1.63
7 -6 -1 36.56 1.88
7 -6 0 71.45 2.56
7 -6 0 67.2 2.45
7 -6 1 154.54 3.57
7 -6 1 155.84 3.49
7 -5 -7 1.34 0.33
7 -5 -7 1.45 0.33
7 -5 -6 44.97 2.02
7 -5 -5 57.06 2.28
7 -5 -4 82.69 3.06
7 -5 -3 133.52 4.09
7 -5 -2 52.7 2.57
7 -5 -2 48.17 2.52
7 -5 -1 25.27 1.83
7 -5 -1 22.12 1.68
7 -5 0 73.27 3.06
7 -5 0 73.45 2.93
7 -5 1 25.85 1.75
7 -5 1 26.05 1.68
7 -5 2 136 3.6
7 -5 2 141.9 3.44
7 -5 3 106.02 2.81
7 -4 -8 72.12 2.23
7 -4 -7 4.57 0.69
7 -4 -6 5.08 0.8
7 -4 -5 11.6 1.21
7 -4 -4 289.58 6.31
7 -4 -3 177.75 5.12
7 -4 -2 163.24 5.03
7 -4 -2 158.87 4.88
7 -4 -1 118.62 4.33
7 -4 -1 117.61 4.1
7 -4 0 56.74 2.93
7 -4 0 52.41 2.66
7 -4 1 39.2 2.34
7 -4 1 38.7 2.19
7 -4 2 210.3 4.98
7 -4 2 197.66 4.5
7 -4 3 65.56 2.52
7 -4 3 57.22 2.05
7 -3 -9 35.53 1.68
7 -3 -9 31.71 1.46
7 -3 -8 176.32 4.02
7 -3 -8 175.34 4.01
7 -3 -7 418.04 6.93
7 -3 -6 175.4 4.79
7 -3 -6 185.97 4.73
7 -3 -5 61.6 2.92
7 -3 -5 64.95 2.97
7 -3 -4 30.2 2.38
7 -3 -4 32.44 2.18
7 -3 -4 33.72 2.26
7 -3 -3 128.01 4.92
7 -3 -3 129.61 4.57
7 -3 -3 124.21 4.4
7 -3 -2 394.46 8.12
7 -3 -2 386.18 7.76
7 -3 -1 226.43 6.83
7 -3 -1 232.02 6.22
7 -3 -1 221.6 5.78
7 -3 0 230.42 6.07
7 -3 0 220.07 5.59
7 -3 1 8.05 1.14
7 -3 1 10.28 1.21
7 -3 2 19.94 1.45
7 -3 2 21.66 1.7
7 -3 2 23.09 1.63
7 -3 3 102.68 3.33
7 -3 3 90.6 2.79
7 -3 4 105.28 3.1
7 -2 -10 14.26 1.02
7 -2 -9 94.35 2.92
7 -2 -9 90.56 2.83
7 -2 -8 87.28 3.07
7 -2 -8 94.59 3.19
7 -2 -7 92.22 3.41
7 -2 -7 88.88 3.21
7 -2 -6 16.4 1.53
7 -2 -6 20.84 1.68
7 -2 -5 117.96 4.52
7 -2 -5 115.31 4.02
7 -2 -5 119.19 4.1
7 -2 -5 119.37 4.1
7 -2 -4 73.26 3.6
7 -2 -4 71.34 3.22
7 -2 -4 69.63 3.24
7 -2 -4 73.76 3.36
7 -2 -3 9.84 1.37
7 -2 -3 10.25 1.28
7 -2 -3 8.65 1.3
7 -2 -3 11.46 1.42
7 -2 -3 10.65 1.33
7 -2 -2 379.41 8.28
7 -2 -2 389.35 7.56
7 -2 -2 401 8.84
7 -2 -2 417.2 8.49
7 -2 -2 398.73 7.98
7 -2 -1 26.31 1.9
7 -2 -1 33.07 2.2
7 -2 -1 32.58 2.61
7 -2 -1 34.19 2.43
7 -2 -1 28.17 2.11
7 -2 0 90.07 3.54
7 -2 0 91.06 4.31
7 -2 0 93.84 3.89
7 -2 0 93.85 3.67
7 -2 1 120.77 3.89
7 -2 1 130.61 4.39
7 -2 1 124.3 4.06
7 -2 2 46 2.48
7 -2 2 44.88 2.3
7 -2 3 7.69 0.87
7 -2 4 25.21 1.61
7 -1 -10 27.23 1.48
7 -1 -10 23.7 1.33
7 -1 -9 9.42 0.98
7 -1 -9 11.01 1.06
7 -1 -8 2.34 0.6
7 -1 -8 2.42 0.62
7 -1 -8 3.16 0.67
7 -1 -7 166.67 4.65
7 -1 -7 166.99 4.56
7 -1 -7 169.98 4.5
7 -1 -6 31.26 2.26
7 -1 -6 35.19 2.18
7 -1 -6 31.43 2.08
7 -1 -5 175 5.29
7 -1 -5 170.14 4.81
7 -1 -5 178.48 5.02
7 -1 -5 181.14 5.05
7 -1 -4 136.97 4.82
7 -1 -4 134.15 4.4
7 -1 -4 145.81 4.6
7 -1 -4 133.14 4.93
7 -1 -4 139.26 4.57
7 -1 -3 474.39 8.95
7 -1 -3 491.52 8.44
7 -1 -3 494.27 8.48
7 -1 -3 487.99 9.39
7 -1 -3 502.93 8.8
7 -1 -2 186.95 5.62
7 -1 -2 205.01 5.37
7 -1 -2 195.35 5.36
7 -1 -2 193.89 5.98
7 -1 -2 198.15 5.53
7 -1 -1 11.38 1.3
7 -1 -1 11.98 1.62
7 -1 -1 13.11 1.52
7 -1 -1 11.71 1.35
7 -1 0 143.74 4.4
7 -1 0 149.17 5.42
7 -1 0 152.94 4.91
7 -1 0 148.19 4.53
7 -1 1 6.47 0.9
7 -1 1 7.87 1.05
7 -1 2 17.46 1.64
7 -1 2 21.14 1.58
7 -1 3 60.1 2.78
7 -1 4 76.53 2.79
7 0 -10 1.62 0.42
7 0 -9 58.77 2.43
7 0 -9 57.02 2.39
7 0 -8 28.31 1.8
7 0 -8 28.1 1.78
7 0 -8 29.89 1.83
7 0 -7 109.17 3.62
7 0 -7 107.21 3.71
7 0 -7 112.76 3.76
7 0 -7 112.4 3.65
7 0 -6 20.67 1.67
7 0 -6 22.86 1.76
7 0 -6 22.4 1.7
7 0 -5 250.27 5.83
7 0 -5 250.32 5.85
7 0 -5 248.47 5.7
7 0 -4 16.97 1.66
7 0 -4 20.89 1.74
7 0 -4 17.01 1.55
7 0 -4 15.75 1.68
7 0 -4 18.47 1.66
7 0 -3 193 5.51
7 0 -3 204.62 5.35
7 0 -3 200.08 5.26
7 0 -3 202.42 5.96
7 0 -3 202.42 5.49
7 0 -2 38.28 2.48
7 0 -2 35.97 2.23
7 0 -2 38.1 2.62
7 0 -2 43.93 2.48
7 0 -2 39.41 2.79
7 0 -2 40.02 2.46
7 0 -1 112.83 3.8
7 0 -1 112.24 3.9
7 0 -1 112.9 4.65
7 0 -1 113.42 3.98
7 0 0 110.62 3.71
7 0 0 114.9 4.65
7 0 0 112 3.9
7 0 1 28.36 2.09
7 0 1 40.58 2.29
7 0 2 160.42 4.74
7 0 3 23.22 1.68
7 0 4 3.76 0.61
7 1 -10 109.29 3.03
7 1 -9 390.83 6.22
7 1 -8 193.9 4.61
7 1 -8 186.79 4.58
7 1 -8 181.67 4.43
7 1 -7 140.46 4.16
7 1 -7 134.36 3.94
7 1 -6 14.4 1.34
7 1 -6 18.45 1.55
7 1 -6 16.4 1.42
7 1 -5 13.9 1.49
7 1 -5 14.28 1.39
7 1 -5 15.69 1.45
7 1 -5 15.85 1.46
7 1 -5 16.75 1.46
7 1 -4 143.58 4.81
7 1 -4 150.29 4.52
7 1 -4 152.93 4.46
7 1 -4 151.57 4.3
7 1 -3 28.62 2.17
7 1 -3 28.85 2
7 1 -3 34.82 2.16
7 1 -2 31.03 2.05
7 1 -1 16.65 1.47
7 1 -1 17.12 1.79
7 1 0 122.89 3.79
7 1 1 105.09 3.51
7 1 2 50.45 2.48
7 1 2 66.34 2.61
7 1 3 24.15 1.56
7 2 -10 350.22 5.15
7 2 -9 67.04 2.49
7 2 -8 89.13 3.05
7 2 -8 96.83 3.24
7 2 -7 277.82 5.58
7 2 -7 296.26 5.9
7 2 -7 289.3 5.62
7 2 -6 109.67 3.65
7 2 -6 110.3 3.56
7 2 -5 32.3 1.99
7 2 -5 31.77 2
7 2 -5 29.58 1.86
7 2 -4 200.44 4.98
7 2 -4 193.48 5
7 2 -4 191.02 4.68
7 2 -3 100.14 3.54
7 2 -3 96.41 3.54
7 2 -2 321.86 6.33
7 2 -2 312.67 6.29
7 2 -1 241.74 5.31
7 2 -1 237.95 5.41
7 2 0 32.53 1.97
7 2 1 15.86 1.32
7 2 2 41.34 1.92
7 3 -8 91.17 2.9
7 3 -8 124.45 3.45
7 3 -7 33.01 1.89
7 3 -6 40.19 2.14
7 3 -5 13.36 1.25
7 3 -5 14.29 1.3
7 3 -4 63.82 2.74
7 3 -4 64.95 2.79
7 3 -3 2.19 0.56
7 3 -3 1.13 0.46
7 3 -2 163.33 4.32
7 3 -2 167.2 4.39
7 3 -1 130.53 3.73
7 3 -1 137.55 3.89
7 3 0 126.56 3.64
7 3 1 132.35 3.46
7 4 -7 169.49 3.9
7 4 -6 4.92 0.73
7 4 -5 98.45 3.17
7 4 -4 6.98 0.9
7 4 -4 8.43 0.99
7 4 -3 44.11 2.15
7 4 -3 43.96 2.14
7 4 -2 121.8 3.41
7 4 -2 130.32 3.56
7 4 0 45.12 2.05
7 5 -6 201.12 3.81
7 5 -5 106.79 2.87
7 5 -4 17.55 1.17
7 5 -3 83.84 2.6
7 5 -2 22.05 1.32
8 -4 -6 36.24 1.51
8 -4 -6 36.13 1.48
8 -4 -5 34.53 1.59
8 -4 -5 31.73 1.43
8 -4 -4 6.36 0.73
8 -4 -4 5.56 0.67
8 -4 -4 4.69 0.6
8 -4 -3 194.43 3.94
8 -4 -3 197.23 3.96
8 -4 -3 205.94 4.09
8 -4 -2 91.45 2.61
8 -4 -2 86.3 2.59
8 -4 -2 90.99 2.73
8 -4 -1 245.8 4.24
8 -4 -1 246.97 4.33
8 -4 0 65 2.07
8 -3 -7 166.52 3.36
8 -3 -7 162.04 3.26
8 -3 -6 115.96 3.07
8 -3 -6 113.69 2.95
8 -3 -5 31.92 1.7
8 -3 -5 36.81 1.78
8 -3 -4 110.64 3.22
8 -3 -4 108.16 3.16
8 -3 -4 108.57 3.14
8 -3 -3 106.38 3.16
8 -3 -3 105.56 3.15
8 -3 -3 112.1 3.3
8 -3 -2 96.3 2.92
8 -3 -2 102.31 3.07
8 -3 -2 102.43 3.14
8 -3 -1 113.03 3.13
8 -3 -1 120.16 3.28
8 -3 0 29.63 1.48
8 -3 0 30.2 1.56
8 -2 -8 154.41 3.14
8 -2 -8 163.39 3.19
8 -2 -7 124.44 3.07
8 -2 -7 125.12 3.18
8 -2 -7 121.5 3.05
8 -2 -6 75.17 2.62
8 -2 -6 74.23 2.54
8 -2 -6 74.56 2.55
8 -2 -5 16.2 1.29
8 -2 -5 18.6 1.36
8 -2 -5 17.63 1.31
8 -2 -4 88.37 2.99
8 -2 -4 85.74 2.96
8 -2 -3 101.39 3.19
8 -2 -3 101.52 3.19
8 -2 -3 105.57 3.35
8 -2 -2 230.05 4.65
8 -2 -2 240.07 4.88
8 -2 -2 239.09 4.98
8 -2 -1 308.32 5.32
8 -2 -1 300.77 5.35
8 -2 0 17.79 1.19
8 -2 0 17.59 1.26
8 -1 -8 6.89 0.71
8 -1 -8 7.14 0.72
8 -1 -7 18.52 1.22
8 -1 -7 20.74 1.29
8 -1 -7 22.82 1.38
8 -1 -6 48.14 2.15
8 -1 -6 55.23 2.28
8 -1 -6 54.81 2.23
8 -1 -5 57.61 2.44
8 -1 -5 63.49 2.55
8 -1 -5 61.32 2.42
8 -1 -4 30.05 1.79
8 -1 -4 27.56 1.69
8 -1 -4 26.29 1.6
8 -1 -3 60.11 2.48
8 -1 -3 60.9 2.51
8 -1 -3 60.18 2.36
8 -1 -3 63.47 2.63
8 -1 -2 132.85 3.65
8 -1 -2 133.14 3.74
8 -1 -1 408.19 6.08
8 -1 -1 408.9 6.33
8 -1 0 133.66 3.19
8 -1 1 29.32 1.46
8 0 -8 12.39 0.95
8 0 -7 146.31 3.48
8 0 -7 139.93 3.38
8 0 -6 26.06 1.59
8 0 -6 26.13 1.53
8 0 -5 29.38 1.72
8 0 -5 27.54 1.62
8 0 -5 27.47 1.59
8 0 -4 60.53 2.46
8 0 -4 60.9 2.49
8 0 -4 58.63 2.29
8 0 -3 170.45 4.14
8 0 -2 208.23 4.47
8 0 -1 358.48 5.53
8 0 -1 356.69 5.73
8 0 0 245.06 4.51
8 0 1 4.38 0.57
8 1 -7 78.44 2.54
8 1 -6 39.05 1.87
8 1 -6 38.25 1.77
8 1 -5 244.8 4.66
8 1 -5 231.68 4.32
8 1 -4 78.43 2.71
8 1 -4 79.34 2.77
8 1 -3 101.17 3.08
8 1 -3 101.11 3.13
8 1 -2 52.31 2.13
8 1 -2 53.14 2.21
8 1 -1 20.56 1.24
8 1 -1 25.46 1.49
8 1 0 21.88 1.3
8 2 -7 3.16 0.51
8 2 -6 1.52 0.4
8 2 -5 1.33 0.39
8 2 -5 1.21 0.34
8 2 -4 3.94 0.62
8 2 -4 4.27 0.63
8 2 -3 6.26 0.74
8 2 -3 6.81 0.79
8 2 -2 19.43 1.21
8 2 -2 23.53 1.39
8 2 -1 10.48 0.89
8 3 -5 41.08 1.68
