#------------------------------------------------------------------------------
#$Date: 2019-11-11 19:57:14 +0200 (Mon, 11 Nov 2019) $
#$Revision: 227173 $
#$URL: file:///home/coder/svn-repositories/cod/cif/4/03/57/4035725.cif $
#------------------------------------------------------------------------------
#
# This file is available in the Crystallography Open Database (COD),
# http://www.crystallography.net/
#
# All data on this site have been placed in the public domain by the
# contributors.
#
data_4035725
loop_
_publ_author_name
'Ghosh, Payel'
'Mondal, Susmita'
'Hajra, Alakananda'
_publ_section_title
;
 Metal-Free Trifluoromethylation of Indazoles.
;
_journal_issue                   21
_journal_name_full               'The Journal of organic chemistry'
_journal_page_first              13618
_journal_page_last               13623
_journal_paper_doi               10.1021/acs.joc.8b02312
_journal_volume                  83
_journal_year                    2018
_chemical_formula_moiety         ' C16 H13 F3 N2 O2'
_chemical_formula_sum            'C16 H13 F3 N2 O2'
_chemical_formula_weight         322.28
_chemical_name_common            vbchem314_0m_a
_space_group_crystal_system      triclinic
_space_group_IT_number           2
_space_group_name_Hall           '-P 1'
_space_group_name_H-M_alt        'P -1'
_atom_sites_solution_hydrogens   geom
_audit_creation_method           SHELXL-2014/7
_cell_angle_alpha                114.581(12)
_cell_angle_beta                 115.678(13)
_cell_angle_gamma                92.034(15)
_cell_formula_units_Z            2
_cell_length_a                   9.660(3)
_cell_length_b                   9.728(2)
_cell_length_c                   10.133(2)
_cell_measurement_reflns_used    2269
_cell_measurement_temperature    296(2)
_cell_measurement_theta_max      28.819
_cell_measurement_theta_min      2.386
_cell_volume                     752.9(4)
_computing_structure_refinement  'SHELXL-2014/7 (Sheldrick, 2014)'
_diffrn_ambient_temperature      296(2)
_diffrn_measured_fraction_theta_full 0.978
_diffrn_measured_fraction_theta_max 0.916
_diffrn_measurement_device_type  char
_diffrn_radiation_type           MoK\a
_diffrn_radiation_wavelength     0.71073
_diffrn_reflns_av_R_equivalents  0.0475
_diffrn_reflns_av_unetI/netI     0.0534
_diffrn_reflns_Laue_measured_fraction_full 0.978
_diffrn_reflns_Laue_measured_fraction_max 0.916
_diffrn_reflns_limit_h_max       12
_diffrn_reflns_limit_h_min       -12
_diffrn_reflns_limit_k_max       12
_diffrn_reflns_limit_k_min       -13
_diffrn_reflns_limit_l_max       13
_diffrn_reflns_limit_l_min       -13
_diffrn_reflns_number            12984
_diffrn_reflns_point_group_measured_fraction_full 0.978
_diffrn_reflns_point_group_measured_fraction_max 0.916
_diffrn_reflns_theta_full        25.242
_diffrn_reflns_theta_max         28.819
_diffrn_reflns_theta_min         2.386
_exptl_absorpt_coefficient_mu    0.120
_exptl_crystal_density_diffrn    1.422
_exptl_crystal_description       vbchem314_0m_a
_exptl_crystal_F_000             332
_refine_diff_density_max         0.447
_refine_diff_density_min         -0.541
_refine_diff_density_rms         0.157
_refine_ls_extinction_method     none
_refine_ls_goodness_of_fit_ref   1.096
_refine_ls_hydrogen_treatment    constr
_refine_ls_matrix_type           full
_refine_ls_number_parameters     210
_refine_ls_number_reflns         3935
_refine_ls_number_restraints     0
_refine_ls_restrained_S_all      1.096
_refine_ls_R_factor_all          0.1169
_refine_ls_R_factor_gt           0.0703
_refine_ls_shift/su_max          0.000
_refine_ls_shift/su_mean         0.000
_refine_ls_structure_factor_coef Fsqd
_refine_ls_weighting_details
'w=1/[\s^2^(Fo^2^)+(0.1000P)^2^+0.7540P] where P=(Fo^2^+2Fc^2^)/3'
_refine_ls_weighting_scheme      calc
_refine_ls_wR_factor_gt          0.1868
_refine_ls_wR_factor_ref         0.2451
_reflns_Friedel_coverage         0.000
_reflns_number_gt                2269
_reflns_number_total             3935
_reflns_threshold_expression     'I > 2\s(I)'
_cod_data_source_file            jo8b02312_si_002.cif
_cod_data_source_block           vbchem314_a
_cod_database_code               4035725
_shelx_shelxl_version_number     2014/7
_shelx_space_group_comment
;
The symmetry employed for this shelxl refinement is uniquely defined
by the following loop, which should always be used as a source of
symmetry information in preference to the above space-group names.
They are only intended as comments.
;
_shelx_res_file
;

    vbchem314_a.res created by SHELXL-2014/7

TITL vbchem314_a.res in P-1
CELL  0.71073   9.6600   9.7283  10.1334  114.581  115.678   92.034
ZERR    2.000   0.0026   0.0023   0.0023    0.012    0.013    0.015
LATT 1
SFAC C  H  N  O  F
UNIT 32  26  4  4  6
REM Old TITL vbchem314 in P-1
REM SHELXT solution in P-1
REM R1 0.230,  Rweak 0.021,  Alpha 0.054,  Orientation as input
REM Formula found by SHELXT:  C16 N2 O2 F3
L.S. 10
ACTA
BOND $H
FMAP 2
PLAN 20
TEMP 23.000
WGHT    0.100000    0.753960
FVAR       0.74979
O2    4    0.754078    0.955747   -0.111312    11.00000    0.05098    0.05474 =
         0.05393    0.03786    0.02750    0.01726
O1    4    0.775643    0.305988    0.600480    11.00000    0.07328    0.05311 =
         0.05815    0.03997    0.03195    0.02142
N2    3    0.777993    0.602602    0.205051    11.00000    0.04357    0.03210 =
         0.04086    0.02006    0.01899    0.00891
N1    3    0.809044    0.461400    0.152540    11.00000    0.05171    0.03463 =
         0.04417    0.01989    0.02491    0.01206
F2    5    0.833237    0.917069    0.458278    11.00000    0.17551    0.03518 =
         0.13375    0.02660    0.10317    0.01903
F1    5    0.746989    0.822421    0.568298    11.00000    0.24326    0.07989 =
         0.09728    0.05939    0.12424    0.09526
F3    5    0.591204    0.812949    0.339787    11.00000    0.12225    0.12003 =
         0.12193    0.05557    0.05462    0.09317
C6    1    0.772269    0.522535    0.377728    11.00000    0.03602    0.03129 =
         0.03656    0.01686    0.01258    0.00601
C12   1    0.749919    0.863711   -0.041531    11.00000    0.04222    0.03685 =
         0.03692    0.02027    0.02093    0.01194
C9    1    0.768394    0.689723    0.118041    11.00000    0.04209    0.03413 =
         0.03753    0.01984    0.01709    0.00785
C5    1    0.805018    0.412641    0.257646    11.00000    0.03793    0.03037 =
         0.03907    0.01644    0.01509    0.00613
C7    1    0.761422    0.492616    0.498723    11.00000    0.04890    0.03849 =
         0.04330    0.02275    0.02103    0.01298
AFIX  43
H7    2    0.739445    0.564479    0.577560    11.00000   -1.20000
AFIX   0
C8    1    0.756566    0.644667    0.339245    11.00000    0.04683    0.03410 =
         0.03759    0.01941    0.01887    0.01106
C13   1    0.612879    0.782492   -0.067579    11.00000    0.03681    0.05553 =
         0.05157    0.03505    0.01483    0.01018
AFIX  43
H13   2    0.513881    0.786499   -0.138807    11.00000   -1.20000
AFIX   0
C2    1    0.784609    0.353915    0.494481    11.00000    0.04052    0.04120 =
         0.04153    0.02573    0.01260    0.00661
C11   1    0.897079    0.857316    0.064203    11.00000    0.03774    0.05375 =
         0.05605    0.03392    0.02107    0.00773
AFIX  43
H11   2    0.989559    0.911211    0.080750    11.00000   -1.20000
AFIX   0
C14   1    0.623384    0.694971    0.012809    11.00000    0.03706    0.05470 =
         0.05507    0.03454    0.01606    0.00309
AFIX  43
H14   2    0.531093    0.639410   -0.004983    11.00000   -1.20000
AFIX   0
C10   1    0.906217    0.771097    0.144714    11.00000    0.03604    0.05141 =
         0.05051    0.03156    0.01567    0.00989
AFIX  43
H10   2    1.004944    0.767560    0.216961    11.00000   -1.20000
AFIX   0
C4    1    0.831129    0.270758    0.259329    11.00000    0.05289    0.03260 =
         0.05089    0.01948    0.02335    0.01319
AFIX  43
H4    2    0.856028    0.198590    0.183469    11.00000   -1.20000
AFIX   0
C3    1    0.818622    0.243671    0.375150    11.00000    0.04744    0.03362 =
         0.05371    0.02597    0.01752    0.01172
AFIX  43
H3    2    0.832768    0.150049    0.376342    11.00000   -1.20000
AFIX   0
C16   1    0.730365    0.797079    0.425214    11.00000    0.08397    0.04581 =
         0.05765    0.03234    0.04061    0.03108
C15   1    0.609425    0.985015   -0.202066    11.00000    0.06454    0.08030 =
         0.07583    0.05904    0.03825    0.03623
AFIX 137
H15A  2    0.536762    0.888390   -0.297769    11.00000   -1.50000
H15B  2    0.630237    1.056698   -0.237836    11.00000   -1.50000
H15C  2    0.563372    1.029765   -0.132019    11.00000   -1.50000
AFIX   0
C1    1    0.755595    0.415931    0.733142    11.00000    0.11836    0.08374 =
         0.07615    0.05618    0.06307    0.04122
AFIX 137
H1A   2    0.843267    0.508072    0.801597    11.00000   -1.50000
H1B   2    0.752089    0.369890    0.799411    11.00000   -1.50000
H1C   2    0.657930    0.443860    0.687741    11.00000   -1.50000
AFIX   0
HKLF 4

REM  vbchem314_a.res in P-1
REM R1 =  0.0703 for    2269 Fo > 4sig(Fo)  and  0.1169 for all    3935 data
REM    210 parameters refined using      0 restraints

END

WGHT      0.1350      0.2411

REM Highest difference peak  0.447,  deepest hole -0.541,  1-sigma level  0.157
Q1    1   0.7561  0.5449  0.7938  11.00000  0.05    0.45
Q2    1   0.9630  0.4745  0.9500  11.00000  0.05    0.43
Q3    1   0.7665  0.6364  0.7997  11.00000  0.05    0.42
Q4    1   0.9209  0.5629  0.8666  11.00000  0.05    0.41
Q5    1   0.5986  0.7769  0.4380  11.00000  0.05    0.40
Q6    1   0.7429  0.6744  0.7416  11.00000  0.05    0.40
Q7    1   0.8845  0.4283  0.9433  11.00000  0.05    0.40
Q8    1   0.8368  0.9016  0.5582  11.00000  0.05    0.39
Q9    1   1.0201  0.5701  0.9644  11.00000  0.05    0.37
Q10   1   0.8344  0.4064  0.8339  11.00000  0.05    0.36
Q11   1   0.6267  0.6201  0.6720  11.00000  0.05    0.36
Q12   1   0.9217  0.6548  0.8513  11.00000  0.05    0.32
Q13   1   0.6800  0.7199  0.7011  11.00000  0.05    0.32
Q14   1   0.7452  0.5027  0.8728  11.00000  0.05    0.31
Q15   1   0.6235  1.1381 -0.0202  11.00000  0.05    0.30
Q16   1   0.6826  1.1607 -0.1106  11.00000  0.05    0.28
Q17   1   0.6963  1.1559 -0.0173  11.00000  0.05    0.28
Q18   1   0.7990  0.9960 -0.0699  11.00000  0.05    0.27
Q19   1   0.5169  0.7290  0.2374  11.00000  0.05    0.27
Q20   1   0.8367  0.3670  0.9765  11.00000  0.05    0.27
;
_shelx_res_checksum              47985
_shelx_hkl_file
;
  -1   0   0  -14.30    0.10
  -2   0   0 9999.00  511.95
  -2   0   0 9010.30  514.55
  -3   0   0 1457.15   75.19
  -3   0   0 1389.06   75.89
  -3   0   0 1206.28   75.09
   3   0   0 1467.35   75.09
   3   0   0 1450.45   75.29
  -4   0   0  422.76   25.20
  -4   0   0  445.86   24.40
  -4   0   0  452.85   24.40
  -4   0   0  452.75   24.30
   4   0   0  446.66   24.40
   4   0   0  452.05   24.30
  -5   0   0  916.71   48.30
  -5   0   0  897.01   48.30
  -5   0   0  912.81   48.20
  -5   0   0  861.81   49.30
   5   0   0  868.71   48.10
   5   0   0  867.01   48.30
  -6   0   0  289.27   16.60
  -6   0   0  305.67   16.50
  -6   0   0  294.77   17.90
   6   0   0  286.97   16.50
  -7   0   0  140.39    8.60
  -7   0   0  150.58    8.50
  -7   0   0  146.29   10.10
   7   0   0  134.19    8.50
  -8   0   0   44.50    4.90
  -8   0   0   48.80    3.60
   8   0   0   42.90    3.50
  -9   0   0    5.50    2.30
  -9   0   0    5.80    1.50
 -10   0   0    2.10    2.00
 -10   0   0    1.80    1.20
 -11   0   0    2.10    1.60
 -11   1   0    5.60    1.80
 -11   1   0    4.10    3.00
 -10   1   0    0.30    1.20
 -10   1   0    1.60    2.10
   9  -1   0   -0.80    0.90
  -9   1   0   -0.30    1.00
  -9   1   0    0.30    1.60
   8  -1   0    1.50    1.10
  -8   1   0    2.60    1.60
  -8   1   0    1.90    0.90
   7  -1   0   39.80    3.30
  -7   1   0   48.30    3.40
  -7   1   0   46.10    4.60
   6  -1   0   13.70    1.60
  -6   1   0   11.30    2.20
  -6   1   0   11.20    1.40
  -6   1   0   12.70    1.40
   4  -1   0   82.69    4.80
   4  -1   0   86.49    5.00
  -4   1   0   77.79    5.60
  -4   1   0   84.99    4.80
  -4   1   0   76.99    4.80
   3  -1   0  930.01   48.60
   3  -1   0  926.21   48.70
  -3   1   0  865.01   48.60
  -3   1   0  872.91   49.30
   2  -1   0   33.50    2.10
   2  -1   0   36.80    2.00
  -2   1   0   27.10    2.30
   1  -1   0  280.67   15.20
   0  -1   0   -0.20    0.10
  -2  -1   0 2900.21  152.38
  -2  -1   0 2995.80  153.88
   2   1   0 2595.74  152.88
  -3  -1   0    7.90    0.90
  -3  -1   0    8.40    0.90
  -3  -1   0    6.70    1.20
   3   1   0    8.20    0.80
  -4  -1   0  644.34   34.90
  -4  -1   0  624.84   35.80
  -4  -1   0  673.73   35.00
  -4  -1   0  636.84   35.00
   4   1   0  627.24   34.90
  -5  -1   0  397.46   24.20
  -5  -1   0  425.36   23.20
  -5  -1   0  428.76   23.10
  -5  -1   0  436.86   23.20
   5   1   0  417.66   23.00
   5   1   0  410.56   23.10
  -6  -1   0    0.60    1.10
  -6  -1   0    0.70    0.80
  -6  -1   0    0.60    0.70
   6   1   0    0.70    0.70
  -7  -1   0  429.66   23.60
  -7  -1   0  420.06   25.10
  -7  -1   0  433.76   23.50
   7   1   0  400.16   23.40
  -8  -1   0   14.00    2.90
  -8  -1   0   18.30    2.50
  -8  -1   0   18.70    2.30
  -9  -1   0   33.70    3.30
  -9  -1   0   35.80    4.70
 -10  -1   0    0.80    1.40
 -11   2   0    0.70    2.80
 -11   2   0    0.60    1.40
  10  -2   0    7.20    1.80
 -10   2   0    5.80    2.90
 -10   2   0    7.00    1.70
   9  -2   0   -0.20    1.10
  -9   2   0    0.80    1.00
  -9   2   0    0.30    1.60
   8  -2   0    0.60    1.00
  -8   2   0   -0.90    0.80
  -8   2   0    0.10    1.40
   7  -2   0   13.70    1.90
  -7   2   0   16.40    1.80
  -7   2   0   13.60    2.50
   6  -2   0    1.30    0.60
   6  -2   0    2.00    0.80
  -6   2   0    2.00    1.30
  -6   2   0    2.20    0.80
  -6   2   0    1.60    0.60
   5  -2   0   32.20    2.60
   5  -2   0   35.50    2.40
  -5   2   0   37.50    2.40
  -5   2   0   32.30    2.30
  -5   2   0   30.70    3.30
   4  -2   0    7.70    0.90
   4  -2   0    7.70    1.00
  -4   2   0    8.20    0.90
  -4   2   0    5.60    1.30
  -4   2   0    7.80    0.90
   3  -2   0  110.29    6.30
   3  -2   0  111.39    6.40
  -3   2   0   99.29    6.20
  -3   2   0  116.99    7.00
   2  -2   0   18.40    1.30
   2  -2   0   18.90    1.40
   2  -2   0   18.20    1.20
  -2   2   0   16.90    2.00
   1  -2   0 2746.43  142.09
   1  -2   0 2521.95  141.89
   0  -2   0  155.78    8.70
  -1  -2   0  718.03   38.90
  -2  -2   0  397.86   23.50
  -2  -2   0  427.06   24.10
  -2  -2   0  441.16   23.70
  -2  -2   0  453.45   23.70
  -2  -2   0  449.56   23.70
   2   2   0  434.06   24.10
   2   2   0  437.16   23.50
  -3  -2   0    1.60    0.60
  -3  -2   0    1.20    0.50
  -3  -2   0    1.20    0.80
  -3  -2   0    2.00    0.60
   3   2   0    0.70    0.40
   3   2   0    1.00    0.80
  -4  -2   0  265.37   14.90
  -4  -2   0  274.87   14.90
  -4  -2   0  257.87   15.70
  -4  -2   0  273.37   14.90
   4   2   0  258.47   14.70
  -5  -2   0    0.10    0.60
  -5  -2   0    0.10    0.80
  -5  -2   0   -0.40    0.50
  -5  -2   0    0.00    0.60
   5   2   0   -0.10    0.40
  -6  -2   0    0.60    0.80
  -6  -2   0    0.00    0.90
  -6  -2   0   -0.20    0.70
   6   2   0   -0.60    0.60
  -7  -2   0   -0.30    1.20
  -7  -2   0   -0.40    1.00
  -7  -2   0    0.70    1.10
  -8  -2   0    0.20    1.40
  -8  -2   0    0.00    1.20
  -8  -2   0   -1.10    0.80
  -9  -2   0   13.30    2.20
 -10  -2   0    0.80    1.50
  11  -3   0   11.10    2.20
 -11   3   0   11.20    4.30
 -11   3   0   11.30    2.20
  10  -3   0   -1.70    1.20
 -10   3   0    0.00    2.80
 -10   3   0    1.40    1.30
   9  -3   0   14.00    2.30
  -9   3   0   15.60    3.70
  -9   3   0   14.00    2.00
   8  -3   0    0.90    1.20
  -8   3   0    2.10    1.00
  -8   3   0    2.50    2.10
   7  -3   0   13.00    1.90
  -7   3   0   10.70    1.50
  -7   3   0   10.10    2.50
   6  -3   0    1.80    0.70
   6  -3   0    3.10    1.10
  -6   3   0    2.60    1.60
  -6   3   0    2.10    0.80
   5  -3   0   68.59    4.50
   5  -3   0   68.79    4.30
   5  -3   0   70.79    4.00
  -5   3   0   65.09    4.10
  -5   3   0   69.39    5.50
  -5   3   0   63.79    4.20
   4  -3   0    5.80    0.70
   4  -3   0    5.70    0.90
   4  -3   0    4.70    0.90
  -4   3   0    6.40    1.50
  -4   3   0    6.30    0.90
  -4   3   0    6.40    0.80
   3  -3   0  238.68   13.40
   3  -3   0  234.08   13.30
   3  -3   0  231.48   13.00
  -3   3   0  250.47   14.10
  -3   3   0  228.78   13.10
  -3   3   0  247.58   13.20
   2  -3   0  344.77   18.40
   2  -3   0  329.77   18.40
   2  -3   0  333.77   18.20
  -2   3   0  327.07   18.90
   1  -3   0   38.40    2.50
   1  -3   0   42.20    2.50
   1  -3   0   38.70    2.60
   0  -3   0  117.39    6.70
   0  -3   0  118.39    6.60
   0  -3   0  114.59    6.70
   0  -3   0  119.29    6.60
  -1  -3   0  187.58   10.00
  -1  -3   0  175.98   10.20
  -1  -3   0  176.38   10.10
  -1  -3   0  185.48   10.20
   1   3   0  181.68   10.40
  -2  -3   0  367.26   19.90
  -2  -3   0  359.56   20.40
  -2  -3   0  356.76   19.90
  -2  -3   0  377.36   19.70
  -2  -3   0  357.86   19.90
   2   3   0  362.76   19.60
   2   3   0  349.07   20.30
  -3  -3   0  112.99    7.30
  -3  -3   0   95.29    6.50
  -3  -3   0  129.19    6.80
  -3  -3   0  115.39    6.70
  -3  -3   0  122.89    6.70
   3   3   0  117.59    6.50
   3   3   0  113.29    7.40
  -4  -3   0   76.29    4.60
  -4  -3   0   77.39    4.60
  -4  -3   0   68.99    5.30
  -4  -3   0   72.99    4.60
   4   3   0   73.99    5.50
   4   3   0   67.29    4.30
  -5  -3   0   10.60    1.90
  -5  -3   0   12.70    1.60
  -5  -3   0   15.70    1.70
  -6  -3   0    5.10    1.20
  -6  -3   0    2.80    1.00
  -6  -3   0    3.40    1.50
  -7  -3   0    7.00    1.50
  -7  -3   0    3.40    1.30
  -8  -3   0    1.50    1.40
  -8  -3   0   -0.80    1.10
  -9  -3   0   -0.80    1.20
 -10  -3   0    5.50    1.80
  11  -4   0    0.90    1.70
 -11   4   0    3.70    1.60
 -11   4   0   -6.40    3.40
  10  -4   0   -0.10    1.50
 -10   4   0    1.70    1.30
 -10   4   0   -1.00    3.20
   9  -4   0    3.00    1.60
  -9   4   0    1.40    2.90
  -9   4   0    2.60    1.20
   8  -4   0   -0.30    0.90
  -8   4   0    1.50    1.00
  -8   4   0   -2.40    2.10
   7  -4   0   19.90    2.20
   7  -4   0   19.70    2.50
  -7   4   0   25.30    2.10
  -7   4   0   17.10    3.20
   6  -4   0   20.20    2.00
   6  -4   0   21.60    2.40
  -6   4   0   24.20    2.00
  -6   4   0   26.10    4.00
   5  -4   0    3.50    0.80
   5  -4   0    1.30    0.70
   5  -4   0    2.60    0.70
  -5   4   0    2.70    0.60
  -5   4   0    2.30    0.70
  -5   4   0    4.40    1.70
   4  -4   0  174.28   10.10
   4  -4   0  176.38   10.20
   4  -4   0  175.18    9.70
  -4   4   0  174.88    9.90
  -4   4   0  180.88   11.30
  -4   4   0  166.38    9.70
   3  -4   0    8.70    1.20
   3  -4   0    8.10    1.10
   3  -4   0    8.80    0.90
  -3   4   0   10.10    2.20
  -3   4   0    9.30    1.00
   2  -4   0  229.18   12.50
   2  -4   0  221.88   12.70
   2  -4   0  228.98   12.80
  -2   4   0  231.68   12.40
  -2   4   0  217.38   13.40
   1  -4   0   34.80    2.10
   1  -4   0   34.70    2.40
   1  -4   0   31.40    2.20
   1  -4   0   32.90    2.20
  -1   4   0   33.00    2.70
  -1   4   0   34.40    2.10
   0  -4   0   20.40    1.40
   0  -4   0   16.30    1.40
   0  -4   0   18.70    1.60
   0  -4   0   18.60    1.50
   0   4   0   18.50    1.40
   0   4   0   19.20    1.70
  -1  -4   0   15.10    1.50
  -1  -4   0   15.90    1.50
  -1  -4   0   15.10    1.30
  -1  -4   0   17.40    1.20
   1   4   0   15.80    1.70
  -2  -4   0    1.40    0.50
  -2  -4   0    1.80    0.80
  -2  -4   0    2.60    0.70
  -2  -4   0    1.00    0.60
  -2  -4   0    1.90    0.80
   2   4   0    1.90    0.40
   2   4   0    1.60    0.80
  -3  -4   0   16.00    1.30
  -3  -4   0   17.00    1.60
  -3  -4   0   17.00    1.70
  -3  -4   0   16.60    2.00
  -3  -4   0   14.90    1.60
   3   4   0   15.90    2.10
   3   4   0   14.90    1.20
  -4  -4   0    2.10    0.90
  -4  -4   0    4.20    0.90
  -4  -4   0    4.10    1.00
  -4  -4   0    2.00    1.20
   4   4   0    5.00    1.30
  -5  -4   0   26.10    2.20
  -5  -4   0   21.30    2.30
  -5  -4   0   21.80    4.30
  -6  -4   0   -0.80    0.80
  -6  -4   0    0.60    1.10
  -7  -4   0   -1.00    0.70
  -7  -4   0   -0.40    1.10
  -8  -4   0    2.20    1.40
  -8  -4   0    1.60    1.30
  -9  -4   0    5.10    1.70
  -9  -4   0    7.50    2.00
  11  -5   0    1.00    1.80
  10  -5   0   17.00    2.90
 -10   5   0   23.00    2.70
 -10   5   0   10.60    4.80
   9  -5   0    5.10    1.70
  -9   5   0   -0.20    2.60
  -9   5   0    4.70    1.40
   8  -5   0    9.60    2.00
  -8   5   0    3.60    2.60
  -8   5   0    8.90    1.50
   7  -5   0   -0.70    0.70
   7  -5   0   -0.30    1.00
  -7   5   0    0.30    0.80
  -7   5   0   -1.70    2.60
   6  -5   0   43.40    3.00
   6  -5   0   32.60    3.10
  -6   5   0   32.30    5.00
  -6   5   0   33.30    2.70
   5  -5   0    2.30    1.00
   5  -5   0    0.30    0.70
  -5   5   0    2.00    0.80
  -5   5   0    2.80    2.50
   4  -5   0   10.80    1.40
   4  -5   0   10.90    1.10
  -4   5   0    7.80    2.70
  -4   5   0    8.60    1.10
   3  -5   0  158.98    9.30
   3  -5   0  169.48    9.70
   3  -5   0  166.98    9.70
  -3   5   0  167.28    9.30
  -3   5   0  165.28   10.80
   2  -5   0    0.50    0.60
   2  -5   0   -0.10    0.60
   2  -5   0    0.40    0.60
  -2   5   0    0.10    0.40
  -2   5   0    0.70    1.50
   1  -5   0  332.17   18.20
   1  -5   0  330.67   18.00
   1  -5   0  323.87   18.20
   1  -5   0  327.57   18.40
  -1   5   0  322.47   18.00
  -1   5   0  333.97   18.70
   0  -5   0    1.40    0.80
   0  -5   0    1.10    0.50
   0  -5   0    1.70    0.70
   0  -5   0    1.70    0.50
   0   5   0    1.80    0.60
   0   5   0    1.20    0.50
  -1  -5   0    0.60    0.70
  -1  -5   0   -0.30    0.60
  -1  -5   0    0.60    0.40
  -1  -5   0    1.60    0.60
   1   5   0    0.50    0.60
  -2  -5   0   76.09    4.40
  -2  -5   0   72.09    4.80
  -2  -5   0   75.79    4.60
  -2  -5   0   72.29    4.80
   2   5   0   69.59    4.30
   2   5   0   78.69    5.20
  -3  -5   0    3.10    0.90
  -3  -5   0    1.30    0.80
  -3  -5   0    2.50    1.10
  -3  -5   0    3.00    0.90
  -4  -5   0   18.10    2.10
  -4  -5   0   25.20    2.10
  -4  -5   0   15.70    1.90
  -5  -5   0    5.80    1.30
  -5  -5   0    4.00    1.20
  -6  -5   0   -0.40    1.00
  -6  -5   0   -0.30    0.80
  -7  -5   0    1.90    1.50
  -7  -5   0    3.30    1.40
  -8  -5   0    2.60    1.50
  -8  -5   0   -0.90    1.30
  11  -6   0    6.50    2.40
 -11   6   0  -11.00    4.80
  10  -6   0    4.90    2.00
 -10   6   0   -3.10    3.30
   9  -6   0   -0.40    1.50
  -9   6   0   -4.00    2.80
   8  -6   0   73.49    5.20
  -8   6   0   49.80    7.50
   7  -6   0   12.60    2.20
   7  -6   0   11.60    1.80
  -7   6   0    5.80    3.70
   6  -6   0   77.09    5.40
   6  -6   0   78.69    5.30
  -6   6   0   71.49    7.60
   5  -6   0   29.00    2.40
   5  -6   0   23.70    2.60
  -5   6   0   28.90    2.40
  -5   6   0   17.80    3.50
   4  -6   0    1.70    0.70
   4  -6   0    1.00    0.90
   4  -6   0    2.80    1.00
  -4   6   0    3.30    2.80
   3  -6   0   13.70    1.80
   3  -6   0   16.80    1.50
   3  -6   0   16.20    1.80
  -3   6   0   11.60    2.70
  -3   6   0   14.10    1.30
   2  -6   0   24.60    1.80
   2  -6   0   25.90    2.00
   2  -6   0   24.40    2.30
   2  -6   0   26.40    2.20
  -2   6   0   24.40    1.80
  -2   6   0   26.30    2.90
   1  -6   0   19.30    1.80
   1  -6   0   17.80    2.10
   1  -6   0   16.40    1.60
   1  -6   0   19.00    1.60
  -1   6   0   21.70    2.00
  -1   6   0   19.20    1.50
   0  -6   0    4.00    0.80
   0  -6   0    4.10    1.00
   0  -6   0    4.70    0.80
  -1  -6   0  179.68   10.10
  -1  -6   0  174.98   10.60
  -1  -6   0  180.18   10.30
  -1  -6   0  185.08   10.50
   1   6   0  179.88   10.90
  -2  -6   0   11.10    1.40
  -2  -6   0    9.10    1.50
  -2  -6   0    9.00    1.60
  -3  -6   0   40.40    3.20
  -3  -6   0   39.00    3.00
  -3  -6   0   41.20    3.30
  -4  -6   0   38.50    3.20
  -4  -6   0   46.00    3.50
  -4  -6   0   37.10    3.10
  -5  -6   0    0.80    1.00
  -5  -6   0   -0.30    1.00
  -6  -6   0   17.30    2.30
  -6  -6   0   22.80    2.80
  -7  -6   0    1.30    1.60
  -7  -6   0    2.70    1.60
  -8  -6   0    5.30    2.00
  -8  -6   0    5.40    1.80
  10  -7   0   -0.10    1.60
   9  -7   0    1.80    1.70
  -9   7   0   -6.30    3.00
   8  -7   0    4.90    1.60
  -8   7   0   -3.10    3.90
   7  -7   0   14.70    2.20
   7  -7   0   14.50    2.40
  -7   7   0    3.60    4.10
   6  -7   0   18.50    2.40
   6  -7   0   23.30    2.70
  -6   7   0   13.70    4.40
   5  -7   0    7.60    1.60
   5  -7   0    7.80    1.50
  -5   7   0    4.40    3.50
   4  -7   0   17.30    2.10
   4  -7   0   14.80    2.10
  -4   7   0   13.10    3.50
   3  -7   0    7.20    1.40
   3  -7   0    5.90    1.20
   3  -7   0    6.90    1.50
  -3   7   0    5.10    2.20
   2  -7   0    8.60    1.40
   2  -7   0   10.90    1.50
   2  -7   0    8.70    1.60
   1  -7   0   28.90    2.30
   1  -7   0   26.20    2.40
   1  -7   0   27.60    2.70
   0  -7   0   10.10    1.60
   0  -7   0    8.90    1.60
   0  -7   0   10.70    1.30
  -1  -7   0   11.00    2.10
  -1  -7   0   16.20    2.00
  -1  -7   0   13.40    2.00
  -2  -7   0   12.00    1.90
  -2  -7   0   13.60    1.70
  -2  -7   0   14.90    2.10
  -3  -7   0    2.70    1.10
  -3  -7   0    2.10    1.40
  -3  -7   0    0.90    1.20
  -4  -7   0   -0.90    1.30
  -4  -7   0    0.00    1.00
  -5  -7   0   -0.70    1.10
  -5  -7   0    0.00    1.40
  -6  -7   0   -1.70    1.10
  -6  -7   0   -0.40    1.10
  -7  -7   0   -2.60    1.60
  -7  -7   0   -1.90    1.20
  10  -8   0   -2.70    1.60
   9  -8   0    0.60    1.80
  -9   8   0   -6.90    3.40
   8  -8   0    1.20    1.70
   8  -8   0    1.70    1.40
  -8   8   0   -5.20    3.20
   7  -8   0    1.30    1.60
   7  -8   0    7.30    1.80
  -7   8   0   -6.30    4.00
   6  -8   0    8.20    1.90
   6  -8   0   13.00    2.30
  -6   8   0   -1.30    3.80
   5  -8   0   -1.40    1.10
   5  -8   0    0.70    1.20
  -5   8   0   -6.90    2.80
   4  -8   0    0.30    0.80
   4  -8   0    1.10    1.10
  -4   8   0    1.00    2.50
   3  -8   0   14.80    1.90
   3  -8   0   13.20    1.90
   3  -8   0    7.90    1.60
   2  -8   0    1.30    1.00
   1  -8   0    0.80    0.90
   1  -8   0   -0.60    0.70
   1  -8   0    0.80    1.20
   0  -8   0    0.80    1.30
   0  -8   0    0.60    1.10
  -1  -8   0    8.70    2.00
  -1  -8   0    9.10    1.90
  -2  -8   0   -0.50    1.30
  -2  -8   0   -0.70    0.90
  -3  -8   0   -0.50    1.30
  -3  -8   0   -0.10    1.20
  -4  -8   0   -2.10    1.30
  -5  -8   0   -0.70    1.10
  -6  -8   0    0.20    1.90
   9  -9   0    0.80    1.50
   8  -9   0   14.80    2.60
   8  -9   0   14.50    2.80
   7  -9   0    8.30    2.10
   7  -9   0    8.50    2.20
  -7   9   0   -4.50    4.00
   6  -9   0   -1.50    1.30
   6  -9   0   -1.50    1.30
  -6   9   0   -5.40    3.20
   5  -9   0    6.00    1.70
   5  -9   0    3.80    1.60
  -5   9   0    7.70    3.00
   4  -9   0   -2.10    1.20
   4  -9   0   -1.70    1.10
   2  -9   0    5.80    1.80
   2  -9   0    6.30    1.50
   1  -9   0    5.70    1.60
   1  -9   0    5.30    1.90
   0  -9   0    1.10    1.50
   0  -9   0    0.20    1.00
  -1  -9   0    0.10    1.00
  -1  -9   0   -0.30    1.40
  -2  -9   0    6.80    1.90
  -2  -9   0    4.60    1.80
  -3  -9   0    2.80    1.40
  -3  -9   0    2.40    1.80
  -4  -9   0   12.60    2.60
  -5  -9   0    4.40    2.20
   8 -10   0    3.10    2.20
   8 -10   0    2.90    1.80
   7 -10   0    4.80    2.00
   7 -10   0    1.10    1.30
  -7  10   0   -3.00    3.80
   6 -10   0    7.80    2.40
   6 -10   0   10.40    2.40
  -6  10   0   10.10    3.40
   4 -10   0    4.30    1.90
   4 -10   0    6.90    1.80
   3 -10   0   11.90    2.50
   2 -10   0    2.80    1.80
   2 -10   0    2.40    1.40
   1 -10   0    1.60    1.40
   1 -10   0    2.70    1.80
   0 -10   0    2.50    1.60
   0 -10   0   -0.20    1.70
  -1 -10   0    3.60    2.10
  -1 -10   0    2.10    1.60
  -2 -10   0   -0.50    1.60
  -2 -10   0    0.30    1.70
  -3 -10   0    0.90    1.80
   7 -11   0    3.60    2.20
   7 -11   0    3.00    2.10
   6 -11   0   14.90    2.80
   6 -11   0   11.70    2.70
   5 -11   0    0.80    1.80
   5 -11   0    2.50    2.00
   4 -11   0    7.40    2.10
   3 -11   0    4.70    2.30
   2 -11   0    3.00    2.00
   1 -11   0    4.90    2.30
   1 -11   0    7.00    2.00
   0 -11   0    3.70    1.90
   0 -11   0    3.30    2.10
  -1 -11   0    3.20    1.90
  -1 -11   0    6.40    2.20
   1 -12   1    0.20    2.20
   2 -12   1   -1.00    2.00
   3 -12   1    2.90    2.20
   4 -12   1    1.20    2.10
   5 -12   1   11.20    2.80
  -2 -11   1   10.70    2.50
  -2 -11   1   22.00    3.50
  -1 -11   1    5.90    2.00
  -1 -11   1    2.30    2.20
   0 -11   1   31.40    3.90
   0 -11   1   29.30    3.50
   1 -11   1    1.80    1.90
   2 -11   1    9.20    2.60
   3 -11   1    0.00    1.30
   4 -11   1   13.50    2.80
   4 -11   1   10.60    2.40
   5 -11   1    1.90    1.80
   5 -11   1   -1.30    1.70
   6 -11   1   12.10    2.70
   6 -11   1   10.60    2.40
   7 -11   1    3.40    2.20
   7 -11   1   -0.80    1.70
  -4 -10   1    1.30    1.80
  -3 -10   1    4.60    2.10
  -3 -10   1    5.80    2.00
  -2 -10   1   -0.30    1.40
  -2 -10   1    0.40    1.60
  -1 -10   1   59.89    5.00
  -1 -10   1   47.30    4.40
   0 -10   1    2.20    1.70
   0 -10   1    2.10    1.40
   1 -10   1   13.90    2.50
   1 -10   1   11.90    2.00
   2 -10   1    7.40    1.70
   2 -10   1    9.20    2.20
   3 -10   1    3.10    1.50
   3 -10   1    5.40    1.70
   4 -10   1   11.90    2.30
   4 -10   1   15.10    2.70
  -5  10  -1   50.89    6.60
   5 -10   1   60.49    4.80
   5 -10   1   54.69    4.90
  -6  10  -1   -5.80    3.70
   6 -10   1    5.50    1.90
   6 -10   1    6.70    1.90
   7 -10   1   21.20    3.40
   7 -10   1   22.80    3.30
   8 -10   1    1.20    1.90
  -5  -9   1    1.00    1.70
  -4  -9   1    2.90    1.70
  -4  -9   1    3.10    1.70
  -3  -9   1   -0.10    1.10
  -3  -9   1   -0.70    1.30
  -2  -9   1   26.80    3.10
  -2  -9   1   25.90    3.20
  -1  -9   1    6.30    1.70
  -1  -9   1    4.80    1.80
   0  -9   1   26.60    3.20
   0  -9   1   29.30    3.00
   1  -9   1    3.80    1.20
   1  -9   1    7.20    1.90
   1  -9   1    3.70    1.30
   2  -9   1   -0.30    0.90
   2  -9   1    1.00    1.00
   2  -9   1   -0.90    0.70
   3  -9   1    7.70    1.80
   3  -9   1    7.90    1.70
  -4   9  -1    3.30    3.00
   4  -9   1    6.10    1.70
   4  -9   1    5.80    1.80
   5  -9   1   46.70    4.20
   5  -9   1   49.90    4.30
   6  -9   1   49.60    4.30
   6  -9   1   43.60    4.10
  -7   9  -1   -9.50    4.30
   7  -9   1    2.60    1.70
   7  -9   1    1.70    1.50
   8  -9   1    3.90    2.00
   9  -9   1    1.20    2.00
  -7  -8   1    4.40    2.20
  -6  -8   1    0.40    1.30
  -5  -8   1   16.80    2.70
  -4  -8   1   -0.30    1.30
  -4  -8   1   -0.40    1.10
  -3  -8   1   13.40    2.10
  -3  -8   1   11.10    2.10
  -2  -8   1   25.80    3.00
  -2  -8   1   26.80    2.60
  -1  -8   1   35.00    2.90
  -1  -8   1   35.30    3.30
   0  -8   1   14.40    1.70
   0  -8   1   16.10    2.00
   0  -8   1   14.50    2.20
   1  -8   1  144.79    8.40
   1  -8   1  138.49    8.40
   1  -8   1  134.69    8.80
  -2   8  -1   42.20    3.60
   2  -8   1   28.80    2.80
   2  -8   1   33.20    2.70
   2  -8   1   29.20    2.90
  -3   8  -1   63.09    6.20
   3  -8   1   75.79    4.90
   3  -8   1   63.89    4.80
  -4   8  -1   -5.10    3.00
   4  -8   1   -0.90    1.00
   4  -8   1   -0.70    1.00
   5  -8   1   -0.30    1.20
   5  -8   1    0.20    1.10
   6  -8   1   13.20    2.40
   6  -8   1   12.60    2.10
  -7   8  -1   -5.60    3.80
   7  -8   1    2.40    1.50
   7  -8   1    7.30    1.70
   8  -8   1    4.80    2.00
   9  -8   1    1.40    1.40
  10  -8   1    2.50    1.70
  -8  -7   1   -0.50    1.80
  -8  -7   1    2.10    1.60
  -7  -7   1    0.50    1.60
  -7  -7   1    0.10    1.30
  -6  -7   1   11.10    2.30
  -6  -7   1   11.30    1.90
  -5  -7   1    3.10    1.50
  -5  -7   1    3.50    1.30
  -4  -7   1   18.50    2.20
  -4  -7   1   17.20    2.40
  -4  -7   1   20.80    2.40
  -3  -7   1   10.90    1.90
  -3  -7   1    8.30    1.70
  -3  -7   1    9.00    1.50
  -2  -7   1   52.39    4.00
  -2  -7   1   56.79    4.20
  -1  -7   1   26.10    2.60
  -1  -7   1   31.00    2.20
  -1  -7   1   25.00    2.30
   0   7  -1  152.98    9.20
   0  -7   1  140.59    9.10
   0  -7   1  151.38    8.80
   0  -7   1  156.38    8.90
   1  -7   1   -0.10    0.70
   1  -7   1   -0.60    0.60
  -2   7  -1   84.39    6.60
   2  -7   1   92.99    5.50
   2  -7   1   94.19    6.00
   2  -7   1   89.89    5.80
  -3   7  -1   -1.60    2.40
   3  -7   1   -0.50    0.60
   3  -7   1   -0.10    0.60
   3  -7   1   -1.40    0.60
  -4   7  -1   28.60    4.50
   4  -7   1   36.50    3.10
   4  -7   1   38.20    3.10
  -5   7  -1   29.00    4.90
   5  -7   1   37.00    3.30
   5  -7   1   41.40    3.20
  -6   7  -1    9.40    3.90
   6  -7   1   16.60    2.20
   6  -7   1   10.80    2.10
  -7   7  -1   -3.90    2.30
   7  -7   1   -0.30    1.40
  -8   7  -1   -2.80    3.70
  -9   7  -1   -2.70    4.00
   9  -7   1   14.00    2.70
  10  -7   1    4.20    2.00
  -8  -6   1    2.10    1.30
  -8  -6   1   -0.70    1.20
  -7  -6   1    1.70    1.50
  -7  -6   1    1.60    1.30
  -6  -6   1    0.70    1.40
  -6  -6   1    1.30    1.10
  -5  -6   1    3.80    1.40
  -5  -6   1    5.00    1.40
  -5  -6   1    2.60    1.10
  -4  -6   1   37.90    2.90
  -4  -6   1   39.60    3.20
  -4  -6   1   42.20    3.30
  -3  -6   1    0.60    0.70
  -3  -6   1   -1.70    0.80
  -3  -6   1    0.80    0.70
  -2  -6   1   61.39    3.70
  -2  -6   1   60.69    4.20
  -2  -6   1   53.39    4.00
  -2  -6   1   58.09    3.70
   1   6  -1   79.99    4.70
  -1  -6   1   68.69    4.30
  -1  -6   1   64.19    4.30
  -1  -6   1   68.69    4.70
  -1  -6   1   68.79    4.50
   0   6  -1   28.20    2.10
   0  -6   1   22.70    1.90
   0  -6   1   23.10    1.70
   0  -6   1   23.50    2.10
   0  -6   1   24.10    2.00
  -1   6  -1  100.59    6.70
  -1   6  -1  103.19    5.80
   1  -6   1   97.79    6.00
   1  -6   1  106.79    6.40
   1  -6   1   91.79    6.10
   1  -6   1  109.69    5.80
  -2   6  -1   -0.30    1.90
  -2   6  -1    1.00    0.50
   2  -6   1    0.20    0.60
   2  -6   1    0.10    0.70
   2  -6   1    0.20    0.50
  -3   6  -1   11.60    2.80
   3  -6   1   12.20    1.20
   3  -6   1   15.80    1.80
   3  -6   1   12.50    1.60
  -4   6  -1   24.30    3.80
   4  -6   1   29.00    2.40
   4  -6   1   27.40    2.50
  -5   6  -1    2.60    2.50
   5  -6   1    5.00    1.30
   5  -6   1    4.60    1.20
  -6   6  -1   19.80    4.00
   6  -6   1   29.80    2.50
   6  -6   1   29.70    2.80
  -7   6  -1   -1.40    2.70
   7  -6   1    0.00    1.20
  -8   6  -1   -1.60    2.20
   8  -6   1   -2.30    1.20
  -9   6  -1   -6.80    3.00
   9  -6   1    3.20    1.80
 -10   6  -1   -4.70    3.70
  10  -6   1    2.50    1.50
  11  -6   1   -0.50    1.80
  -9  -5   1    1.30    1.40
  -9  -5   1    1.50    1.70
  -8  -5   1    0.40    1.40
  -8  -5   1    0.20    1.20
  -7  -5   1    3.20    1.20
  -7  -5   1    2.40    1.20
  -6  -5   1   -0.10    0.80
  -6  -5   1    0.00    1.00
  -5  -5   1   19.40    2.30
  -5  -5   1   21.00    2.00
  -5  -5   1   20.10    2.30
   4   5  -1    0.40    0.50
  -4  -5   1   -0.50    0.60
  -4  -5   1   -0.30    0.70
  -4  -5   1   -0.20    0.50
  -4  -5   1    0.40    0.80
   3   5  -1  136.19    7.70
   3   5  -1  134.39    8.40
  -3  -5   1  144.99    7.80
  -3  -5   1  119.39    9.30
  -3  -5   1  134.09    8.10
  -3  -5   1  136.19    7.80
  -3  -5   1  138.19    8.10
   2   5  -1   46.10    3.30
  -2  -5   1   45.80    2.90
  -2  -5   1   44.20    2.90
  -2  -5   1   44.40    3.10
  -2  -5   1   44.90    3.20
   1   5  -1   78.89    4.90
  -1  -5   1   73.19    4.90
  -1  -5   1   77.79    4.70
  -1  -5   1   76.09    4.50
  -1  -5   1   79.99    4.60
   0   5  -1  312.47   16.40
   0  -5   1  288.07   16.20
   0  -5   1  292.97   16.40
   0  -5   1  281.57   16.20
   0  -5   1  282.77   15.90
  -1   5  -1   13.90    2.20
  -1   5  -1   14.10    1.10
   1  -5   1   15.30    1.30
   1  -5   1   14.80    1.40
   1  -5   1   13.90    1.40
   1  -5   1   16.10    1.10
  -2   5  -1  249.68   13.40
  -2   5  -1  244.08   14.60
   2  -5   1  251.67   13.50
   2  -5   1  239.88   13.80
   2  -5   1  239.38   13.90
  -3   5  -1  165.48    9.80
  -3   5  -1  181.38   11.20
   3  -5   1  182.68   10.20
   3  -5   1  174.48    9.70
   3  -5   1  174.88   10.20
  -4   5  -1   -1.00    1.10
  -4   5  -1    1.20    0.60
   4  -5   1    0.40    0.60
   4  -5   1    0.50    0.70
  -5   5  -1  175.98    9.50
  -5   5  -1  169.58   11.00
   5  -5   1  154.68    9.80
   5  -5   1  155.98    9.60
  -6   5  -1    2.00    0.80
  -6   5  -1    0.60    1.50
   6  -5   1    0.10    0.60
   6  -5   1    0.10    0.70
  -7   5  -1   11.00    3.00
  -7   5  -1    8.50    1.40
   7  -5   1   10.70    2.00
  -8   5  -1    0.50    0.90
  -8   5  -1    0.50    2.40
   8  -5   1    0.50    1.00
  -9   5  -1    2.90    1.20
  -9   5  -1    1.00    3.00
   9  -5   1    3.90    1.70
 -10   5  -1   -2.10    2.30
  10  -5   1   -0.50    1.40
 -11   5  -1   -2.50    2.90
  11  -5   1    0.50    1.60
 -10  -4   1    3.30    1.40
  -9  -4   1    1.90    1.50
  -9  -4   1    0.70    1.10
  -8  -4   1   -0.50    1.10
  -8  -4   1    1.20    1.00
  -7  -4   1    0.20    1.10
  -7  -4   1    0.30    1.00
  -6  -4   1   16.30    1.90
  -6  -4   1   13.50    1.90
   5   4  -1   20.50    1.80
  -5  -4   1   24.40    2.10
  -5  -4   1   29.70    2.20
  -5  -4   1   25.30    2.30
   4   4  -1    8.70    1.00
  -4  -4   1    5.60    1.20
  -4  -4   1   10.40    1.40
  -4  -4   1    7.50    1.00
  -4  -4   1    7.80    1.20
  -4  -4   1   10.20    1.20
   3   4  -1  285.37   16.90
   3   4  -1  296.27   16.30
  -3  -4   1  293.97   16.70
  -3  -4   1  307.77   16.60
  -3  -4   1  307.07   16.50
  -3  -4   1  310.17   16.50
  -3  -4   1  283.17   16.90
   2   4  -1   71.29    4.70
  -2  -4   1   74.19    4.60
  -2  -4   1   72.19    4.60
  -2  -4   1   82.29    4.50
  -2  -4   1   75.39    4.80
  -2  -4   1   75.59    4.40
   1   4  -1  658.13   34.70
  -1  -4   1  627.94   34.40
  -1  -4   1  636.54   34.50
  -1  -4   1  641.14   34.80
  -1  -4   1  616.24   34.60
   0   4  -1   -0.20    0.50
   0  -4   1    0.00    0.40
   0  -4   1   -0.10    0.40
   0  -4   1    0.10    0.30
   0  -4   1    0.00    0.40
  -1   4  -1  190.48   11.20
  -1   4  -1  191.28   10.40
   1  -4   1  186.58   10.50
   1  -4   1  188.48   10.80
   1  -4   1  199.68   10.40
   1  -4   1  186.68   10.70
  -2   4  -1  155.58    9.10
  -2   4  -1  139.29    8.00
   2  -4   1  148.99    8.30
   2  -4   1  143.89    8.00
   2  -4   1  136.19    8.30
  -3   4  -1  101.09    5.60
  -3   4  -1  108.79    6.90
   3  -4   1   99.19    5.90
   3  -4   1   93.59    5.40
   3  -4   1   89.29    5.90
  -4   4  -1  279.47   16.10
  -4   4  -1  269.27   14.70
   4  -4   1  256.07   15.00
   4  -4   1  260.77   14.50
   4  -4   1  260.37   14.80
  -5   4  -1   63.19    5.20
  -5   4  -1   59.69    3.70
   5  -4   1   57.09    3.70
   5  -4   1   52.69    4.00
  -6   4  -1    1.20    0.70
  -6   4  -1    1.40    1.20
   6  -4   1    1.00    0.80
   6  -4   1    0.80    0.80
  -7   4  -1   11.40    1.60
  -7   4  -1   11.10    2.40
   7  -4   1   12.30    2.00
  -8   4  -1   -0.90    0.80
  -8   4  -1    1.10    2.00
   8  -4   1   -1.10    0.70
  -9   4  -1    2.30    2.50
  -9   4  -1   -0.40    1.00
   9  -4   1    0.50    1.40
 -10   4  -1   -0.40    1.10
 -10   4  -1    1.60    2.90
  10  -4   1    0.90    1.50
 -11   4  -1    0.90    1.50
 -11   4  -1    2.00    3.30
  11  -4   1    3.60    1.70
 -10  -3   1    3.80    1.60
  -9  -3   1    7.00    1.80
  -9  -3   1    6.50    1.80
  -8  -3   1   -2.00    0.90
  -8  -3   1    0.50    1.10
  -7  -3   1   -1.70    0.70
  -7  -3   1   -0.30    0.60
   6   3  -1    0.00    0.60
  -6  -3   1    0.50    0.80
  -6  -3   1    1.90    1.00
  -6  -3   1    0.60    0.80
   5   3  -1   39.80    2.70
  -5  -3   1   43.10    2.90
  -5  -3   1   41.30    3.00
  -5  -3   1   39.00    3.50
  -5  -3   1   42.30    3.10
   4   3  -1   16.40    1.30
  -4  -3   1   16.40    1.90
  -4  -3   1   19.50    1.60
  -4  -3   1   15.80    1.70
  -4  -3   1   19.10    1.70
  -4  -3   1   14.70    1.40
   3   3  -1  478.55   27.90
   3   3  -1  505.15   27.40
  -3  -3   1  526.65   27.50
  -3  -3   1  529.05   27.70
  -3  -3   1  483.15   27.90
  -3  -3   1  515.35   27.60
  -3  -3   1  496.65   27.50
   2   3  -1   18.20    1.60
   2   3  -1   20.00    1.30
  -2  -3   1   17.90    1.60
  -2  -3   1   19.40    1.60
  -2  -3   1   21.50    1.40
  -2  -3   1   22.50    1.40
  -2  -3   1   19.70    1.50
  -1  -3   1   10.90    0.80
  -1  -3   1   11.60    1.10
  -1  -3   1   10.90    0.90
  -1  -3   1   10.70    1.00
   0  -3   1   89.39    5.50
   0  -3   1  102.29    5.60
   0  -3   1   98.39    5.50
   1  -3   1 1228.88   66.49
   1  -3   1 1221.78   66.69
   1  -3   1 1252.57   66.69
  -2   3  -1   31.70    2.50
  -2   3  -1   26.50    1.70
   2  -3   1   23.50    1.60
   2  -3   1   29.20    1.90
   2  -3   1   29.80    2.00
  -3   3  -1   60.29    4.50
  -3   3  -1   59.89    3.60
   3  -3   1   60.89    3.70
   3  -3   1   61.19    3.80
  -4   3  -1  267.87   15.10
  -4   3  -1  281.47   15.30
  -4   3  -1  279.47   16.50
   4  -3   1  285.07   15.30
   4  -3   1  285.07   15.00
   4  -3   1  260.47   15.50
  -5   3  -1  114.99    6.50
  -5   3  -1  110.49    7.90
   5  -3   1  105.89    6.80
   5  -3   1  110.99    6.40
  -6   3  -1  144.89   10.10
  -6   3  -1  144.79    8.50
   6  -3   1  142.19    8.70
  -7   3  -1    0.40    1.40
  -7   3  -1    1.90    0.90
   7  -3   1   -0.50    0.90
  -8   3  -1    0.60    0.90
  -8   3  -1    1.60    1.70
   8  -3   1   -0.40    1.00
  -9   3  -1    5.00    2.10
  -9   3  -1    7.30    1.60
   9  -3   1    4.40    1.60
 -10   3  -1    2.60    1.30
 -10   3  -1    4.30    2.70
  10  -3   1    0.40    1.20
 -11   3  -1    3.70    3.00
 -11   3  -1    5.90    1.90
 -11  -2   1    3.00    1.70
 -10  -2   1   12.90    2.20
  -9  -2   1    2.60    1.40
  -9  -2   1    2.40    1.30
  -8  -2   1    5.30    1.40
  -8  -2   1    2.50    1.60
  -8  -2   1    4.70    1.40
   7   2  -1   -1.30    0.70
  -7  -2   1    0.30    1.20
  -7  -2   1    0.30    0.90
  -7  -2   1   -1.30    0.80
   6   2  -1   10.90    1.30
  -6  -2   1    9.40    1.50
  -6  -2   1    9.40    1.40
  -6  -2   1    8.50    1.70
  -6  -2   1   10.80    1.40
   5   2  -1    4.30    0.80
  -5  -2   1    4.40    0.90
  -5  -2   1    4.30    1.20
  -5  -2   1    4.40    1.00
  -5  -2   1    4.20    0.80
   4   2  -1  317.57   17.90
  -4  -2   1  317.87   18.50
  -4  -2   1  333.57   18.00
  -4  -2   1  328.27   18.00
  -4  -2   1  331.07   18.10
   3   2  -1    1.30    0.40
  -3  -2   1    0.90    0.50
  -3  -2   1    1.10    0.50
  -3  -2   1    1.00    0.50
  -3  -2   1    1.50    0.60
  -3  -2   1    1.20    0.50
   2   2  -1 1709.93   89.49
  -2  -2   1 1684.23   89.59
  -2  -2   1 1596.14   89.69
  -2  -2   1 1660.93   89.59
  -1  -2   1  796.82   44.10
  -1  -2   1  837.02   44.10
   1  -2   1  925.61   49.99
  -2   2  -1  720.93   42.50
   2  -2   1  807.32   41.90
   2  -2   1  794.52   42.00
  -3   2  -1  114.49    7.60
  -3   2  -1  120.39    6.70
   3  -2   1  120.59    6.90
   3  -2   1  120.39    6.70
  -4   2  -1 1279.17   73.19
  -4   2  -1 1357.36   71.99
  -4   2  -1 1412.56   71.79
   4  -2   1 1329.17   71.89
   4  -2   1 1280.87   72.19
  -5   2  -1   32.30    2.30
  -5   2  -1   35.10    2.20
  -5   2  -1   30.20    3.40
   5  -2   1   31.30    2.50
   5  -2   1   33.50    2.10
  -6   2  -1   32.00    3.60
  -6   2  -1   39.40    2.70
   6  -2   1   29.60    2.60
  -7   2  -1   -0.10    0.70
  -7   2  -1   -0.30    1.20
   7  -2   1   -0.40    0.70
  -8   2  -1    2.50    1.10
  -8   2  -1    1.40    1.60
   8  -2   1    0.40    1.00
  -9   2  -1    1.20    1.20
  -9   2  -1    4.50    2.20
   9  -2   1    0.90    1.20
 -10   2  -1    2.50    2.30
 -11   2  -1    2.30    2.80
 -11   2  -1    1.90    1.50
 -11  -1   1   -0.20    1.30
 -10  -1   1    0.10    1.00
   9   1  -1    0.00    1.10
  -9  -1   1    1.10    1.60
  -9  -1   1    1.30    1.30
   8   1  -1   15.20    1.90
  -8  -1   1    6.70    2.00
  -8  -1   1    7.30    1.50
  -8  -1   1    7.30    1.40
   7   1  -1   13.40    1.70
  -7  -1   1   12.00    1.70
  -7  -1   1   13.90    1.80
  -7  -1   1   11.90    2.30
   6   1  -1    3.10    0.80
   6   1  -1    1.60    0.70
  -6  -1   1    4.70    1.10
  -6  -1   1    1.90    1.20
  -6  -1   1    2.80    0.90
  -6  -1   1    2.10    0.80
   5   1  -1   46.10    3.10
   5   1  -1   45.00    3.10
  -5  -1   1   48.50    3.20
  -5  -1   1   48.70    3.30
  -5  -1   1   44.10    3.10
  -5  -1   1   49.20    3.90
   4   1  -1    1.80    0.50
  -4  -1   1    2.20    0.70
  -4  -1   1    1.90    0.60
  -4  -1   1    1.40    0.70
  -4  -1   1    1.70    0.60
   3   1  -1  569.14   31.30
  -3  -1   1  560.54   31.70
  -3  -1   1  582.64   31.30
  -3  -1   1  596.54   31.40
  -1  -1   1    0.00    0.10
  -1  -1   1    0.20    0.20
   0  -1   1    0.00    0.10
  -2   1  -1   40.40    3.10
   2  -1   1   42.60    2.50
  -3   1  -1  147.09    8.50
  -3   1  -1  148.39    9.40
  -3   1  -1  152.28    8.40
   3  -1   1  152.38    8.60
   3  -1   1  156.88    8.30
  -4   1  -1  190.38   12.50
  -4   1  -1  205.68   11.30
  -4   1  -1  206.58   11.50
   4  -1   1  210.88   11.20
   4  -1   1  202.98   11.50
  -5   1  -1    4.40    0.80
  -5   1  -1    3.30    1.40
  -5   1  -1    3.50    0.90
   5  -1   1    3.20    0.90
  -6   1  -1    0.10    0.70
  -6   1  -1    0.00    1.00
  -6   1  -1   -0.40    0.50
   6  -1   1    0.20    0.60
  -7   1  -1   16.80    2.00
  -7   1  -1   15.70    3.00
   7  -1   1   19.70    2.10
  -8   1  -1   -0.90    1.40
  -8   1  -1    1.50    1.10
   8  -1   1    1.60    1.00
  -9   1  -1    2.90    1.40
  -9   1  -1    4.10    2.10
 -10   1  -1    3.30    1.50
 -10   1  -1    6.00    2.40
 -11   0   1    1.80    1.40
  10   0  -1    0.40    1.10
 -10   0   1    1.00    1.30
 -10   0   1   -1.70    1.70
   9   0  -1    4.90    1.40
  -9   0   1    3.40    2.00
  -9   0   1    4.30    1.40
   8   0  -1   56.79    4.30
  -8   0   1   61.99    5.70
  -8   0   1   59.39    4.30
  -8   0   1   63.19    4.30
   7   0  -1   32.40    2.70
  -7   0   1   35.60    2.70
  -7   0   1   30.20    2.60
  -7   0   1   34.10    3.70
   6   0  -1   59.69    4.10
   6   0  -1   61.09    3.90
  -6   0   1   60.29    4.00
  -6   0   1   63.39    5.00
  -6   0   1   57.99    4.00
  -6   0   1   64.49    4.30
   5   0  -1   16.70    1.50
   5   0  -1   16.30    1.60
  -5   0   1   17.00    2.20
  -5   0   1   17.60    1.60
  -5   0   1   16.80    1.70
  -5   0   1   17.40    1.50
   4   0  -1    1.00    0.50
   4   0  -1    3.10    0.60
  -4   0   1    0.60    0.50
  -4   0   1    3.40    0.80
  -4   0   1   -0.10    0.50
  -4   0   1    0.70    0.70
   3   0  -1  347.37   19.40
   3   0  -1  353.76   19.40
  -3   0   1  355.16   19.40
  -3   0   1  363.36   19.80
   2   0  -1    0.40    0.30
   2   0  -1    0.50    0.30
  -2   0   1    2.40    0.70
  -2   0   1    0.40    0.20
  -2   0   1    0.40    0.30
  -2   0   1    0.10    0.20
   1   0  -1   -2.10    0.10
  -1   0   1   -1.90    0.20
  -1   0   1   -2.00    0.10
  -1   0   1   -2.10    0.20
  -1   0   1   -2.20    0.20
  -1   0   1   -2.20    0.10
   0   0  -1   -0.20    0.10
   0   0  -1   -0.10    0.10
  -1   0  -1  181.28   10.00
  -2   0  -1 3192.78  162.68
  -2   0  -1 3273.07  161.98
   2   0   1 3083.19  162.48
   2   0   1 2493.35  162.48
  -3   0  -1  113.99    6.40
  -3   0  -1  100.99    7.10
  -3   0  -1  112.59    6.20
   3   0   1  111.89    6.30
  -4   0  -1  710.93   37.30
  -4   0  -1  656.53   38.70
  -4   0  -1  687.63   37.40
  -4   0  -1  680.43   37.60
   4   0   1  707.93   37.20
   4   0   1  689.23   37.50
  -5   0  -1   41.70    3.00
  -5   0  -1   41.80    2.80
  -5   0  -1   43.10    4.00
  -6   0  -1    2.80    0.90
  -6   0  -1    0.30    1.10
  -6   0  -1    0.40    0.80
   6   0   1    1.70    0.80
  -7   0  -1    3.60    1.80
  -7   0  -1    4.20    1.20
  -8   0  -1    0.10    1.40
  -8   0  -1   -0.30    1.10
  -9   0  -1   13.40    3.30
  -9   0  -1   20.20    2.50
 -10   0  -1    6.30    2.40
 -10   0  -1    2.10    1.50
  11  -1  -1   -1.30    1.20
 -11   1   1    2.10    1.50
  10  -1  -1    1.00    1.20
 -10   1   1    1.10    1.00
 -10   1   1   -0.90    2.20
   9  -1  -1   68.29    4.90
  -9   1   1   59.89    4.60
  -9   1   1   73.89    6.80
   8  -1  -1    2.40    1.10
  -8   1   1    1.90    1.00
  -8   1   1    1.60    1.80
   7  -1  -1  171.58   10.50
   7  -1  -1  182.58   10.50
  -7   1   1  179.68   11.70
  -7   1   1  176.48   10.40
  -7   1   1  180.78   10.40
   6  -1  -1   37.20    2.80
   6  -1  -1   38.40    3.00
  -6   1   1   39.60    2.80
  -6   1   1   41.60    3.80
  -6   1   1   40.20    2.80
   5  -1  -1   18.50    1.60
   5  -1  -1   18.90    1.80
  -5   1   1   23.90    2.00
  -5   1   1   18.70    2.50
  -5   1   1   19.50    1.60
  -5   1   1   17.70    1.60
   4  -1  -1   18.70    1.40
   4  -1  -1   15.70    1.50
  -4   1   1   16.70    1.40
  -4   1   1   14.90    1.40
  -4   1   1   18.00    2.20
  -4   1   1   18.80    1.70
   3  -1  -1    0.50    0.30
   3  -1  -1    0.40    0.40
  -3   1   1   -0.10    0.30
  -3   1   1    1.50    1.00
  -3   1   1   -0.70    0.30
  -3   1   1   -0.40    0.30
   2  -1  -1   18.80    1.30
   1  -1  -1  717.43   38.90
   0  -1  -1  628.44   34.00
  -1  -1  -1 1803.92  102.49
  -1  -1  -1 1960.00  103.09
  -1  -1  -1 1948.61  102.59
  -2  -1  -1  501.65   27.00
  -2  -1  -1  486.45   26.80
  -2  -1  -1  478.15   27.60
  -2  -1  -1  503.25   26.90
   2   1   1  511.55   26.80
   2   1   1  486.85   27.70
  -3  -1  -1  346.17   19.30
  -3  -1  -1  355.56   19.60
  -3  -1  -1  343.37   20.40
  -3  -1  -1  357.26   19.50
   3   1   1  361.66   19.30
   3   1   1  363.06   20.50
  -4  -1  -1  764.52   44.90
  -4  -1  -1  810.72   43.80
  -4  -1  -1  803.12   43.70
  -4  -1  -1  824.92   43.60
   4   1   1  816.12   43.60
  -5  -1  -1   47.50    4.40
  -5  -1  -1   47.50    3.30
  -5  -1  -1   47.70    3.20
   5   1   1   46.60    3.10
  -6  -1  -1  705.03   42.40
  -6  -1  -1  786.82   40.80
  -6  -1  -1  741.43   40.90
  -7  -1  -1    0.70    1.50
  -7  -1  -1    1.10    1.10
  -7  -1  -1    0.50    0.90
  -8  -1  -1  102.59    8.60
  -8  -1  -1  102.49    6.80
  -9  -1  -1   22.20    2.90
  -9  -1  -1   32.80    4.70
 -10  -1  -1    1.90    1.60
  12  -2  -1    2.80    1.90
  11  -2  -1   -0.30    1.40
 -11   2   1   -5.70    2.90
 -11   2   1    0.10    1.30
  10  -2  -1    1.20    1.30
 -10   2   1   -1.20    1.00
 -10   2   1   -1.90    2.70
   9  -2  -1    3.90    1.40
  -9   2   1    5.20    1.20
  -9   2   1    1.90    2.00
   8  -2  -1   46.90    3.90
  -8   2   1   44.30    3.60
  -8   2   1   56.79    5.60
   7  -2  -1    0.70    0.90
   7  -2  -1   -0.60    0.50
  -7   2   1    0.00    0.80
  -7   2   1    0.00    1.70
  -7   2   1    0.30    0.80
   6  -2  -1    1.20    0.80
   6  -2  -1    0.00    0.50
  -6   2   1    1.10    0.70
  -6   2   1    0.10    1.20
  -6   2   1    0.60    0.70
   5  -2  -1    6.50    1.00
   5  -2  -1    6.50    1.20
  -5   2   1    6.00    0.90
  -5   2   1    7.80    1.90
  -5   2   1    7.00    1.00
   4  -2  -1    0.40    0.40
   4  -2  -1    0.60    0.50
  -4   2   1    3.30    1.50
  -4   2   1    0.20    0.40
  -4   2   1    0.50    0.50
   3  -2  -1  285.47   15.20
   3  -2  -1  272.57   15.20
   3  -2  -1  279.97   15.00
  -3   2   1  239.78   15.00
  -3   2   1  291.87   15.90
  -2   2   1   77.49    5.10
   1  -2  -1   12.00    0.90
   1  -2  -1   12.70    1.00
   1  -2  -1    7.60    0.80
   0  -2  -1   97.49    5.70
   0  -2  -1  102.19    5.60
   0  -2  -1   98.99    5.70
  -1  -2  -1   33.50    2.20
  -1  -2  -1   35.40    2.30
  -1  -2  -1   35.20    2.20
   1   2   1   33.90    2.00
   1   2   1   33.50    2.70
  -2  -2  -1   70.69    5.00
  -2  -2  -1   75.99    4.40
  -2  -2  -1   73.89    4.20
  -2  -2  -1   72.59    4.40
   2   2   1   69.79    4.00
   2   2   1   71.59    5.00
  -3  -2  -1  186.08   10.60
  -3  -2  -1  198.08   10.50
  -3  -2  -1  183.68   11.50
  -3  -2  -1  184.18   10.60
   3   2   1  187.88   10.30
   3   2   1  182.08   11.50
  -4  -2  -1  144.79   10.00
  -4  -2  -1  157.48    9.10
  -4  -2  -1  158.58    9.00
  -4  -2  -1  165.28    8.90
   4   2   1  157.58   10.30
   4   2   1  153.98    8.80
  -5  -2  -1    1.40    0.80
  -5  -2  -1    2.10    1.30
  -5  -2  -1    2.60    0.90
  -6  -2  -1  160.28    9.70
  -6  -2  -1  167.88    9.60
  -6  -2  -1  156.78   11.10
  -7  -2  -1   49.70    3.80
  -7  -2  -1   50.09    3.70
  -7  -2  -1   43.10    4.90
  -8  -2  -1   47.30    5.60
  -8  -2  -1   54.69    4.20
  -9  -2  -1   15.70    2.60
  12  -3  -1    0.70    1.70
 -12   3   1    0.40    1.60
  11  -3  -1    3.10    1.40
 -11   3   1    9.60    1.90
 -11   3   1   -2.20    3.70
  10  -3  -1    4.60    1.70
 -10   3   1    1.00    2.70
 -10   3   1    3.90    1.40
   9  -3  -1    5.70    1.70
  -9   3   1    9.20    1.70
  -9   3   1    3.00    3.10
   8  -3  -1   14.50    2.20
  -8   3   1   14.80    3.60
  -8   3   1   15.70    1.90
   7  -3  -1   14.10    2.00
   7  -3  -1   16.20    1.80
  -7   3   1   12.90    3.00
  -7   3   1   15.60    1.80
   6  -3  -1    9.00    1.10
   6  -3  -1   10.30    1.40
   6  -3  -1    8.00    1.50
  -6   3   1    9.70    1.30
  -6   3   1    8.10    1.20
  -6   3   1    9.60    2.30
   5  -3  -1  214.18   12.10
   5  -3  -1  213.58   12.20
   5  -3  -1  214.78   11.80
  -5   3   1  205.68   13.10
  -5   3   1  202.48   11.90
  -5   3   1  216.28   11.90
   4  -3  -1  117.89    7.10
   4  -3  -1  121.99    6.80
   4  -3  -1  111.89    7.00
  -4   3   1  114.19    6.90
  -4   3   1  120.79    6.90
  -4   3   1  128.89    8.30
   3  -3  -1   58.29    3.40
   3  -3  -1   54.09    3.60
   3  -3  -1   56.29    3.60
  -3   3   1   55.49    3.50
  -3   3   1   53.69    3.50
  -3   3   1   56.99    4.80
   2  -3  -1  855.71   45.90
   2  -3  -1  848.52   45.70
   2  -3  -1  854.71   45.80
  -2   3   1  857.21   45.70
  -2   3   1  803.12   46.30
   1  -3  -1  107.59    6.10
   1  -3  -1  102.79    6.20
   1  -3  -1  108.09    6.10
   1  -3  -1  103.59    6.30
  -1   3   1  108.69    6.50
  -1   3   1  108.99    6.10
   0  -3  -1  141.19    7.90
   0  -3  -1  140.29    8.00
   0  -3  -1  143.89    8.10
   0  -3  -1  137.39    7.80
   0   3   1  139.29    7.90
  -1  -3  -1   53.49    2.90
  -1  -3  -1   48.50    3.20
  -1  -3  -1   49.40    3.20
  -1  -3  -1   48.60    3.20
   1   3   1   48.60    3.70
  -2  -3  -1    1.00    0.30
  -2  -3  -1    2.40    0.70
  -2  -3  -1    2.00    1.00
  -2  -3  -1    1.80    0.60
  -2  -3  -1    1.30    0.60
   2   3   1    2.40    1.00
   2   3   1    2.20    0.30
  -3  -3  -1    8.50    1.20
  -3  -3  -1   10.30    1.20
  -3  -3  -1    7.70    1.60
  -3  -3  -1    8.60    1.20
   3   3   1    7.40    1.70
  -4  -3  -1    0.60    0.80
  -4  -3  -1    2.00    1.10
  -4  -3  -1    1.40    0.80
   4   3   1    0.70    1.10
  -5  -3  -1    1.60    1.40
  -5  -3  -1    1.30    0.90
  -5  -3  -1    1.80    1.00
   5   3   1    1.50    1.60
  -6  -3  -1    6.60    1.40
  -6  -3  -1    5.40    1.90
  -6  -3  -1    5.40    1.30
  -7  -3  -1    1.30    1.20
  -7  -3  -1    0.30    1.10
  -8  -3  -1    5.20    1.60
  -8  -3  -1    4.80    1.50
  -9  -3  -1    3.00    1.70
  12  -4  -1   11.60    2.70
  11  -4  -1    2.90    1.60
 -11   4   1    3.10    1.60
  10  -4  -1   16.70    2.70
 -10   4   1   20.50    2.50
 -10   4   1   10.90    4.70
   9  -4  -1    0.30    1.00
  -9   4   1   -3.30    3.10
  -9   4   1   -0.70    1.00
   8  -4  -1   20.00    2.40
   8  -4  -1   25.00    2.80
  -8   4   1   18.80    2.20
  -8   4   1   17.40    4.10
   7  -4  -1  124.19    8.50
   7  -4  -1  144.29    8.40
  -7   4   1  142.19   10.40
  -7   4   1  136.69    8.20
   6  -4  -1  296.77   17.20
   6  -4  -1  299.37   17.00
  -6   4   1  285.47   18.30
  -6   4   1  309.97   16.90
  -6   4   1  307.87   16.80
   5  -4  -1  344.37   19.30
   5  -4  -1  333.17   18.90
   5  -4  -1  353.16   19.30
  -5   4   1  336.67   19.00
  -5   4   1  342.07   20.50
  -5   4   1  348.97   19.10
   4  -4  -1   35.60    2.70
   4  -4  -1   39.40    2.50
   4  -4  -1   35.40    2.70
  -4   4   1   41.00    2.70
  -4   4   1   38.70    4.00
  -4   4   1   33.00    2.50
   3  -4  -1  494.85   27.40
   3  -4  -1  502.65   27.10
   3  -4  -1  499.85   27.30
  -3   4   1  482.55   28.10
  -3   4   1  502.15   27.10
   2  -4  -1  360.66   20.00
   2  -4  -1  357.86   19.80
   2  -4  -1  357.96   19.80
  -2   4   1  348.97   19.70
  -2   4   1  369.56   20.50
   1  -4  -1  422.96   23.00
   1  -4  -1  394.36   22.80
   1  -4  -1  409.16   22.70
   1  -4  -1  430.56   22.70
  -1   4   1  424.26   22.70
  -1   4   1  405.46   23.20
   0  -4  -1    3.00    0.80
   0  -4  -1    3.40    0.50
   0  -4  -1    2.80    0.70
   0  -4  -1    4.10    0.80
   0   4   1    3.10    0.70
   0   4   1    2.30    0.80
  -1  -4  -1  118.79    7.10
  -1  -4  -1  121.09    7.20
  -1  -4  -1  121.89    6.80
  -1  -4  -1  126.19    7.20
   1   4   1  120.19    7.70
  -2  -4  -1   59.39    3.70
  -2  -4  -1   56.09    3.70
  -2  -4  -1   55.69    3.60
  -2  -4  -1   49.70    4.30
   2   4   1   53.49    4.40
  -3  -4  -1   28.60    2.40
  -3  -4  -1   31.40    2.50
  -3  -4  -1   26.60    3.10
  -3  -4  -1   30.40    2.30
   3   4   1   30.30    3.30
  -4  -4  -1   -0.40    0.90
  -4  -4  -1   -0.60    0.80
  -4  -4  -1   -0.90    0.80
   4   4   1    2.60    1.10
  -6  -4  -1    2.60    1.20
  -6  -4  -1    2.60    1.30
  -7  -4  -1    1.40    1.10
  -7  -4  -1   -0.60    1.30
  -8  -4  -1   -1.00    1.30
  -8  -4  -1   -2.40    1.10
  11  -5  -1    5.90    2.00
 -11   5   1    8.10    2.10
 -11   5   1   -5.90    4.70
  10  -5  -1    7.60    2.20
 -10   5   1    9.00    1.80
 -10   5   1   -1.30    3.30
   9  -5  -1   45.60    4.00
  -9   5   1   38.80    3.30
  -9   5   1   29.20    5.10
   8  -5  -1   21.60    2.50
   8  -5  -1   22.70    2.90
  -8   5   1   17.10    2.20
  -8   5   1   15.00    4.30
   7  -5  -1   15.60    2.30
   7  -5  -1   12.10    1.90
  -7   5   1    9.30    3.70
  -7   5   1   16.40    2.00
   6  -5  -1   -0.10    1.00
   6  -5  -1   -1.10    0.70
  -6   5   1    0.10    0.80
  -6   5   1    2.80    3.10
   5  -5  -1   49.00    3.40
   5  -5  -1   43.20    3.30
   5  -5  -1   40.20    2.80
  -5   5   1   37.80    3.00
  -5   5   1   40.30    5.50
   4  -5  -1   12.50    1.70
   4  -5  -1   15.50    1.40
   4  -5  -1   11.20    1.50
  -4   5   1   12.70    1.40
  -4   5   1   13.70    3.10
   3  -5  -1    3.30    0.90
   3  -5  -1    4.20    1.10
   3  -5  -1    4.10    0.80
  -3   5   1    4.50    1.90
  -3   5   1    3.40    0.70
   2  -5  -1   -0.50    0.50
   2  -5  -1   -0.10    0.50
   2  -5  -1   -0.50    0.40
   2  -5  -1   -0.20    0.60
  -2   5   1    0.80    0.80
  -2   5   1   -0.20    0.50
   1  -5  -1    1.90    0.80
   1  -5  -1    1.00    0.50
   1  -5  -1    1.20    0.70
   1  -5  -1    0.50    0.50
  -1   5   1    1.30    0.70
  -1   5   1    0.40    0.50
   0  -5  -1   59.99    4.10
   0  -5  -1   60.09    3.90
   0  -5  -1   61.09    4.10
   0  -5  -1   59.69    3.70
   0   5   1   61.89    4.00
   0   5   1   66.39    4.60
  -1  -5  -1   30.30    2.50
  -1  -5  -1   31.10    2.40
  -1  -5  -1   28.10    2.50
   1   5   1   33.50    3.00
  -2  -5  -1   84.49    5.30
  -2  -5  -1   86.29    5.40
  -2  -5  -1   79.09    5.30
  -2  -5  -1   81.59    6.10
   2   5   1   87.39    6.10
  -3  -5  -1    2.30    0.90
  -3  -5  -1    1.20    0.90
  -3  -5  -1    2.60    1.40
  -3  -5  -1    1.70    1.10
   3   5   1    6.30    1.50
  -4  -5  -1    2.00    1.10
  -4  -5  -1    3.00    1.20
  -5  -5  -1    2.40    1.10
  -5  -5  -1   -0.70    0.70
  -6  -5  -1   -1.20    1.00
  -6  -5  -1   -0.80    1.20
  -7  -5  -1   -1.10    1.40
  -7  -5  -1    0.10    1.30
  -8  -5  -1    3.10    1.80
  -8  -5  -1    0.20    1.50
  11  -6  -1   18.40    3.10
 -11   6   1   -6.80    5.30
  10  -6  -1    4.90    2.00
 -10   6   1   -9.00    4.30
   9  -6  -1   53.19    4.40
  -9   6   1   30.50    5.50
   8  -6  -1   25.90    3.30
   8  -6  -1   32.90    2.90
  -8   6   1   15.90    4.90
   7  -6  -1  125.89    7.90
   7  -6  -1  121.09    7.80
  -7   6   1  104.19   10.10
  -7   6   1  129.49    7.70
   6  -6  -1  142.19    8.50
   6  -6  -1  136.79    8.50
  -6   6   1  142.19    8.20
  -6   6   1  116.09   10.50
   5  -6  -1   51.59    4.00
   5  -6  -1   49.60    3.70
   5  -6  -1   51.99    3.80
  -5   6   1   50.59    3.50
  -5   6   1   54.69    6.30
   4  -6  -1  243.78   14.40
   4  -6  -1  245.08   14.20
   4  -6  -1  250.37   14.00
  -4   6   1  248.18   13.90
  -4   6   1  247.68   15.60
   3  -6  -1   23.40    2.10
   3  -6  -1   24.10    2.30
   3  -6  -1   21.00    1.70
   3  -6  -1   20.00    1.90
  -3   6   1   18.40    1.80
  -3   6   1   22.60    3.00
   2  -6  -1  144.59    9.10
   2  -6  -1  156.08    9.50
   2  -6  -1  158.08    9.00
   2  -6  -1  163.98    9.20
  -2   6   1  156.78    9.00
  -2   6   1  159.88    9.90
   1  -6  -1   25.90    2.30
   1  -6  -1   25.40    2.10
   1  -6  -1   27.00    2.10
   1  -6  -1   25.10    2.50
  -1   6   1   24.90    2.10
  -1   6   1   28.20    2.70
   0  -6  -1   -0.40    0.70
   0  -6  -1    1.00    0.90
   0  -6  -1    0.60    1.00
   0   6   1    2.10    0.90
  -1  -6  -1    0.00    0.80
  -1  -6  -1    0.50    0.90
  -1  -6  -1    1.10    0.80
  -2  -6  -1   10.40    1.60
  -2  -6  -1   10.10    3.20
  -2  -6  -1   10.50    1.70
  -2  -6  -1   11.40    1.80
  -3  -6  -1   13.40    2.00
  -3  -6  -1   11.40    1.80
  -3  -6  -1   14.60    1.80
  -4  -6  -1    2.30    1.40
  -4  -6  -1   -0.30    1.00
  -5  -6  -1    4.00    1.60
  -5  -6  -1    3.00    1.30
  -6  -6  -1   -0.50    1.40
  -6  -6  -1   -0.40    1.20
  -7  -6  -1    0.20    1.70
  -7  -6  -1    1.10    1.50
  11  -7  -1    2.30    2.20
 -11   7   1   -7.90    4.20
  10  -7  -1    2.00    2.00
   9  -7  -1   11.00    2.60
  -9   7   1    0.50    3.70
   8  -7  -1    2.70    1.40
   8  -7  -1    1.50    1.60
  -8   7   1   -3.60    2.90
   7  -7  -1   14.90    2.50
   7  -7  -1   15.00    2.20
  -7   7   1    3.00    4.10
   6  -7  -1    4.00    1.50
   6  -7  -1    3.80    1.50
  -6   7   1    3.00    2.90
   5  -7  -1   51.09    3.90
   5  -7  -1   39.10    3.60
  -5   7   1   44.70    5.70
   4  -7  -1   11.10    1.70
   4  -7  -1   11.90    1.90
   4  -7  -1   11.90    1.60
  -4   7   1   12.10    2.70
   3  -7  -1   24.00    2.40
   3  -7  -1   22.30    2.70
   3  -7  -1   23.40    2.30
  -3   7   1   32.50    3.10
   2  -7  -1   81.09    5.20
   2  -7  -1   88.39    5.40
   2  -7  -1   76.89    5.50
  -2   7   1   76.99    5.80
   1  -7  -1    3.20    1.20
   1  -7  -1    3.30    1.10
  -1   7   1    2.80    1.10
   0  -7  -1   82.39    5.60
   0  -7  -1   82.39    5.80
   0  -7  -1   77.49    5.40
   0   7   1   92.69    6.10
  -1  -7  -1    1.20    1.00
  -1  -7  -1   -0.60    1.00
  -1  -7  -1    0.70    1.00
  -2  -7  -1   14.10    2.20
  -2  -7  -1   14.10    1.90
  -2  -7  -1   15.60    2.20
  -3  -7  -1    4.60    1.40
  -3  -7  -1    6.90    1.80
  -4  -7  -1   -0.40    1.40
  -4  -7  -1   -0.20    1.10
  -5  -7  -1    0.30    1.20
  -5  -7  -1   -1.90    1.00
  -6  -7  -1   -1.50    1.50
  -6  -7  -1   -1.80    1.30
  10  -8  -1    1.70    2.00
   9  -8  -1    1.00    1.40
   9  -8  -1    1.30    1.50
  -9   8   1   -7.40    3.20
   8  -8  -1    1.50    1.70
   8  -8  -1    1.20    1.40
  -8   8   1   -8.50    3.90
   7  -8  -1   -1.40    1.40
   7  -8  -1    0.40    0.90
  -7   8   1   -1.60    2.80
   6  -8  -1    1.90    1.50
   6  -8  -1    1.20    1.40
  -6   8   1   -1.40    3.10
   5  -8  -1    6.30    1.60
   5  -8  -1    5.40    1.70
  -5   8   1    5.00    2.50
   4  -8  -1    5.30    1.40
   4  -8  -1    3.60    1.40
   4  -8  -1    5.90    1.70
   3  -8  -1    1.30    1.30
   3  -8  -1    1.10    1.00
   3  -8  -1    2.10    1.10
   2  -8  -1    3.70    1.40
   2  -8  -1    3.80    1.60
   1  -8  -1    3.20    1.50
   1  -8  -1    2.40    1.30
   0  -8  -1   10.00    2.00
   0  -8  -1    8.50    1.80
  -1  -8  -1    6.40    1.80
  -1  -8  -1    5.90    1.90
  -2  -8  -1    4.70    1.70
  -2  -8  -1    5.40    1.80
  -3  -8  -1    4.80    1.90
  -4  -8  -1    1.30    1.70
  -5  -8  -1    3.00    2.00
   9  -9  -1   -0.20    1.40
   9  -9  -1    1.80    1.70
   8  -9  -1   10.00    2.30
   8  -9  -1   10.80    2.50
  -8   9   1   -0.80    4.20
   7  -9  -1    1.60    1.70
   7  -9  -1    1.40    1.60
  -7   9   1    3.70    3.50
   6  -9  -1    6.10    1.70
   6  -9  -1    7.90    2.10
  -6   9   1    8.90    2.40
   5  -9  -1    5.20    1.70
   5  -9  -1    8.20    2.20
   2  -9  -1   11.00    2.10
   2  -9  -1   13.90    2.20
   1  -9  -1    7.80    1.80
   1  -9  -1    9.00    2.20
   0  -9  -1    1.00    1.60
   0  -9  -1   -0.50    1.30
  -1  -9  -1    3.60    1.70
  -1  -9  -1    3.10    1.40
  -2  -9  -1   -0.60    1.60
  -2  -9  -1    1.40    1.70
  -3  -9  -1    0.50    1.40
   8 -10  -1    1.00    1.60
   8 -10  -1    1.40    1.80
  -8  10   1    4.80    3.60
   7 -10  -1    9.50    2.50
   7 -10  -1    4.00    2.10
   4 -10  -1   12.50    2.70
   3 -10  -1    1.10    1.80
   2 -10  -1   15.50    2.40
   2 -10  -1   11.30    2.60
   1 -10  -1   12.90    2.40
   1 -10  -1   11.60    2.40
   0 -10  -1    2.10    1.70
   0 -10  -1    3.20    2.10
  -1 -10  -1    3.20    2.00
  -1 -10  -1    7.50    2.40
  -2 -10  -1   -1.40    1.70
   6 -11  -1    8.20    2.70
   5 -11  -1   -0.60    2.00
   4 -11  -1    1.60    1.70
   3 -11  -1   -0.70    1.90
   2 -11  -1   -0.90    1.60
   2 -11  -1   -0.30    2.00
   1 -11  -1    2.20    1.80
   1 -11  -1    0.90    1.70
  -1 -12   2    2.80    1.90
  -1 -12   2    3.70    1.90
   0 -12   2   -0.20    2.00
   1 -12   2    3.50    2.30
   2 -12   2   -0.40    1.90
   3 -12   2    8.40    2.30
   3 -12   2    5.10    2.30
   4 -12   2    3.00    1.80
   4 -12   2    0.80    1.90
   5 -12   2   -0.50    1.80
   5 -12   2   -1.80    1.80
  -3 -11   2    5.00    2.40
  -3 -11   2    3.10    2.00
  -2 -11   2    1.50    1.90
  -2 -11   2   -1.50    1.40
  -1 -11   2    3.40    1.70
  -1 -11   2    7.50    2.40
   0 -11   2    4.50    1.80
   0 -11   2    0.60    1.40
   1 -11   2    2.60    1.50
   2 -11   2   24.20    2.90
   2 -11   2   16.90    3.00
   3 -11   2    7.40    1.80
   3 -11   2    8.50    2.40
   4 -11   2    4.70    1.60
   4 -11   2    3.70    2.00
   5 -11   2    1.70    1.70
   5 -11   2    0.00    1.70
   6 -11   2    0.40    1.20
   6 -11   2    0.00    1.80
   7 -11   2    1.60    1.60
  -5 -10   2   14.50    2.90
  -4 -10   2    0.70    1.60
  -4 -10   2    1.50    1.70
  -3 -10   2   65.99    5.50
  -3 -10   2   63.59    5.20
  -2 -10   2    7.90    2.00
  -2 -10   2   11.30    2.40
  -1 -10   2   45.60    3.80
  -1 -10   2   43.60    4.30
   0 -10   2    5.00    1.60
   0 -10   2    5.90    1.70
   1 -10   2    1.60    1.20
   1 -10   2    1.80    1.50
   2 -10   2   -0.50    1.30
   2 -10   2    1.10    1.00
   3 -10   2    4.50    1.60
   3 -10   2    5.80    1.70
   4 -10   2    2.10    1.60
   4 -10   2    1.50    1.50
   5 -10   2   10.10    2.00
   5 -10   2    8.00    2.10
   6 -10   2    8.50    2.10
   6 -10   2   13.30    2.40
   7 -10   2   -1.50    1.70
   8 -10   2    2.30    2.10
  -6  -9   2    3.60    1.90
  -5  -9   2    5.60    2.10
  -5  -9   2    1.90    1.70
  -4  -9   2    1.00    1.50
  -4  -9   2    3.60    1.60
  -3  -9   2    2.50    1.60
  -3  -9   2    0.30    1.40
  -2  -9   2   39.30    3.90
  -2  -9   2   42.80    3.60
  -1  -9   2    9.50    2.20
  -1  -9   2    8.60    1.40
  -1  -9   2    7.60    1.70
   0  -9   2    9.60    1.60
   0  -9   2    9.30    1.80
   0  -9   2    9.60    2.10
   1  -9   2   29.10    2.80
   1  -9   2   34.90    3.30
   1  -9   2   31.80    2.80
   2  -9   2    3.80    1.40
   2  -9   2    4.40    1.60
  -3   9  -2   -3.20    2.60
   3  -9   2    3.80    1.50
   3  -9   2    1.20    1.30
   4  -9   2   33.90    3.40
   4  -9   2   33.20    3.60
   5  -9   2   14.00    2.30
   5  -9   2   12.60    2.40
  -6   9  -2   -7.20    3.90
   6  -9   2    6.50    1.90
   6  -9   2    5.20    1.60
   7  -9   2    3.80    1.90
   8  -9   2    0.50    1.70
   9  -9   2    1.50    1.50
  -7  -8   2    2.20    1.50
  -6  -8   2   -0.80    1.40
  -5  -8   2   10.80    2.20
  -5  -8   2    9.20    2.00
  -4  -8   2    3.40    1.50
  -4  -8   2   -0.20    1.30
  -3  -8   2   -0.10    1.20
  -3  -8   2   -0.10    0.90
  -2  -8   2    8.00    1.30
  -2  -8   2    6.90    1.60
  -2  -8   2    8.80    1.70
  -1  -8   2   13.40    1.80
  -1  -8   2   12.50    2.00
  -1  -8   2   13.10    1.60
   0  -8   2   68.89    4.80
   0  -8   2   73.29    4.80
   0  -8   2   79.49    5.40
   1  -8   2   10.60    1.70
   1  -8   2   11.10    1.50
   1  -8   2    9.00    1.50
  -2   8  -2   24.00    3.90
   2  -8   2   37.80    3.00
   2  -8   2   38.90    2.90
  -3   8  -2   27.10    4.50
   3  -8   2   37.70    3.10
   3  -8   2   39.50    3.10
  -4   8  -2   -0.70    3.30
   4  -8   2    7.80    1.60
   4  -8   2    6.40    1.60
  -5   8  -2   -3.60    3.20
   5  -8   2    5.20    1.60
   5  -8   2    5.60    1.60
   6  -8   2   21.00    2.80
   6  -8   2   20.90    2.60
  -7   8  -2   -8.30    3.40
   7  -8   2   -0.30    1.30
  -8   8  -2    2.20    3.30
   8  -8   2   -0.60    1.60
  -9   8  -2   -6.80    3.10
   9  -8   2   -0.20    1.60
  -8  -7   2    3.10    1.90
  -8  -7   2    7.50    1.90
  -7  -7   2    4.30    1.40
  -7  -7   2    2.60    1.70
  -6  -7   2   17.10    2.20
  -6  -7   2   22.20    2.70
  -5  -7   2   21.50    2.70
  -5  -7   2   22.70    2.80
  -5  -7   2   23.10    2.20
  -4  -7   2    3.20    1.50
  -4  -7   2    2.00    1.20
  -4  -7   2    5.40    1.50
   3   7  -2   30.30    2.30
  -3  -7   2   32.80    2.80
  -3  -7   2   34.10    3.00
  -3  -7   2   33.10    2.50
  -2  -7   2    1.30    0.80
  -2  -7   2    1.40    0.70
  -2  -7   2    1.50    0.90
  -1  -7   2   71.59    4.50
  -1  -7   2   70.69    4.90
  -1  -7   2   69.19    4.60
   0  -7   2    7.00    1.10
   0  -7   2    6.00    1.20
   0  -7   2    8.40    1.20
  -1   7  -2  145.49    9.60
   1  -7   2  158.58    9.00
   1  -7   2  153.78    9.20
   1  -7   2  146.19    8.70
  -2   7  -2   -3.40    2.30
   2  -7   2    0.30    0.80
   2  -7   2    0.10    0.80
   2  -7   2    0.70    0.60
  -3   7  -2   85.79    7.60
   3  -7   2   90.49    5.90
   3  -7   2   91.39    5.90
  -4   7  -2    0.30    2.60
   4  -7   2    3.10    1.20
   4  -7   2    2.50    1.10
  -5   7  -2   34.00    5.30
   5  -7   2   41.20    3.10
   5  -7   2   32.40    3.10
  -6   7  -2    0.70    2.90
   6  -7   2    2.20    1.40
   6  -7   2    1.60    1.40
   7  -7   2   14.90    2.60
  -8   7  -2   -1.70    3.20
   8  -7   2    1.90    1.30
  -9   7  -2   -1.20    3.40
   9  -7   2    3.60    1.60
  10  -7   2    1.30    1.90
  -9  -6   2   -1.20    1.10
  -9  -6   2   -2.50    1.40
  -8  -6   2   -1.20    1.00
  -8  -6   2   -0.10    1.20
  -7  -6   2   22.20    2.80
  -7  -6   2   21.00    2.50
  -6  -6   2    4.90    1.50
  -6  -6   2    4.30    1.20
  -6  -6   2    6.90    1.70
  -5  -6   2   12.50    1.90
  -5  -6   2    9.20    1.70
  -5  -6   2   10.40    1.50
   4   6  -2   28.80    2.20
  -4  -6   2   29.00    2.60
  -4  -6   2   30.60    2.30
  -4  -6   2   29.00    2.30
  -4  -6   2   27.20    2.60
   3   6  -2    7.00    0.90
  -3  -6   2    6.00    1.30
  -3  -6   2    4.80    0.90
  -3  -6   2    4.70    1.20
  -3  -6   2    6.50    1.10
  -2  -6   2   88.79    5.60
  -2  -6   2   82.19    5.10
  -2  -6   2   87.79    5.20
  -2  -6   2   88.99    5.40
  -1  -6   2    0.40    0.50
  -1  -6   2   -0.30    0.60
  -1  -6   2    0.40    0.80
  -1  -6   2   -0.10    0.40
   0   6  -2  222.98   13.30
   0  -6   2  232.68   13.10
   0  -6   2  245.08   13.20
   0  -6   2  232.98   13.40
  -1   6  -2   26.90    3.70
   1  -6   2   34.10    2.30
   1  -6   2   36.90    2.60
   1  -6   2   36.20    2.70
  -2   6  -2   61.49    5.10
   2  -6   2   60.89    4.00
   2  -6   2   56.69    3.60
   2  -6   2   60.89    4.10
  -3   6  -2   30.30    3.80
   3  -6   2   28.90    2.50
   3  -6   2   30.90    2.50
  -4   6  -2   92.19    7.10
   4  -6   2   89.19    5.80
   4  -6   2   84.39    5.60
  -5   6  -2   -1.00    1.20
   5  -6   2    0.00    0.70
   5  -6   2    0.10    0.90
  -6   6  -2   83.49    7.10
   6  -6   2   60.49    4.90
  -7   6  -2   12.40    3.00
   7  -6   2   14.30    2.30
  -8   6  -2   13.30    3.70
   8  -6   2   17.30    2.50
  -9   6  -2    0.40    2.20
   9  -6   2   -1.60    1.30
 -10   6  -2   -1.70    3.20
  10  -6   2    0.40    1.60
 -10  -5   2   -3.10    1.50
 -10  -5   2   -0.90    1.30
  -9  -5   2   -0.60    1.30
  -9  -5   2   -0.10    1.10
  -8  -5   2    0.30    1.10
  -8  -5   2   -0.60    0.90
  -7  -5   2    3.10    1.40
  -7  -5   2    2.40    1.20
  -6  -5   2   -0.90    0.80
  -6  -5   2   -0.30    0.90
  -6  -5   2   -0.50    0.80
   5   5  -2    0.90    0.50
  -5  -5   2   -0.90    0.80
  -5  -5   2   -0.40    0.60
  -5  -5   2    3.30    1.10
  -5  -5   2    0.00    0.60
   4   5  -2   14.80    1.40
  -4  -5   2   16.20    1.70
  -4  -5   2   16.50    2.00
  -4  -5   2   16.40    1.90
  -4  -5   2   18.20    1.60
   3   5  -2   55.69    3.60
  -3  -5   2   62.09    3.60
  -3  -5   2   59.19    3.70
  -3  -5   2   54.39    3.80
  -3  -5   2   56.99    3.90
   2   5  -2   81.99    4.70
  -2  -5   2   75.59    4.60
  -2  -5   2   82.99    4.90
  -2  -5   2   79.59    5.10
  -2  -5   2   79.79    4.80
   1   5  -2   25.20    1.70
  -1  -5   2   19.50    1.70
  -1  -5   2   22.30    1.50
  -1  -5   2   23.00    1.80
  -1  -5   2   25.50    2.00
   0   5  -2  132.89    8.00
   0  -5   2  136.19    7.70
   0  -5   2  131.09    7.50
   0  -5   2  128.69    7.80
  -1   5  -2    0.60    1.40
   1  -5   2    0.10    0.30
   1  -5   2    0.30    0.60
   1  -5   2    0.60    0.40
  -2   5  -2  217.78   12.40
  -2   5  -2  200.18   11.10
   2  -5   2  206.98   11.60
   2  -5   2  194.08   11.60
   2  -5   2  195.78   11.10
  -3   5  -2   27.90    3.10
  -3   5  -2   27.30    1.70
   3  -5   2   24.50    2.10
   3  -5   2   22.70    2.00
  -4   5  -2    0.20    0.90
  -4   5  -2    0.30    0.40
   4  -5   2    0.00    0.60
   4  -5   2    0.10    0.50
  -5   5  -2   89.69    6.90
  -5   5  -2   84.49    5.10
   5  -5   2   81.19    5.20
   5  -5   2   80.29    5.50
  -6   5  -2   14.30    1.60
  -6   5  -2    9.90    2.30
   6  -5   2   13.20    1.90
  -7   5  -2   52.09    3.70
  -7   5  -2   52.79    5.70
   7  -5   2   49.30    4.10
  -8   5  -2    5.20    2.50
  -8   5  -2    6.60    1.40
   8  -5   2    7.10    1.80
  -9   5  -2   -0.50    2.20
   9  -5   2    1.80    1.50
 -10   5  -2   -0.10    2.90
  10  -5   2    2.70    1.60
 -10  -4   2    0.40    1.50
 -10  -4   2    1.00    1.30
  -9  -4   2    0.40    1.30
  -9  -4   2   -0.30    1.10
  -8  -4   2    0.30    0.80
  -8  -4   2    0.20    1.20
   7   4  -2    7.60    1.30
  -7  -4   2    6.50    1.40
  -7  -4   2    9.70    1.70
   6   4  -2    3.10    0.80
  -6  -4   2    2.50    1.10
  -6  -4   2    1.80    1.00
  -6  -4   2    2.60    0.80
   5   4  -2   14.90    1.50
  -5  -4   2   13.80    1.70
  -5  -4   2   12.90    1.60
  -5  -4   2   13.90    1.60
  -5  -4   2   14.00    1.80
   4   4  -2   52.19    3.30
  -4  -4   2   55.69    3.50
  -4  -4   2   51.59    3.60
  -4  -4   2   52.79    3.40
  -4  -4   2   49.80    3.60
  -4  -4   2   52.59    3.70
   3   4  -2   72.99    4.20
  -3  -4   2   66.99    4.30
  -3  -4   2   70.69    4.20
  -3  -4   2   69.69    4.50
  -3  -4   2   72.49    4.30
  -3  -4   2   64.79    4.20
  -2  -4   2  301.87   17.30
  -2  -4   2  320.17   17.50
  -2  -4   2  320.07   17.20
  -2  -4   2  306.97   17.00
   1   4  -2  429.06   21.80
  -1  -4   2  391.46   21.60
  -1  -4   2  381.76   21.80
  -1  -4   2  389.46   21.80
  -1  -4   2  403.46   22.10
   0   4  -2    3.50    1.00
   0  -4   2    3.10    0.60
   0  -4   2    2.70    0.70
   0  -4   2    3.00    0.50
  -1   4  -2  142.09    8.10
   1  -4   2  128.69    7.40
   1  -4   2  131.29    7.60
   1  -4   2  129.59    7.70
  -2   4  -2  227.58   13.20
  -2   4  -2  228.18   12.10
   2  -4   2  211.08   12.50
   2  -4   2  219.38   12.40
  -3   4  -2  151.38    9.80
  -3   4  -2  154.58    8.60
   3  -4   2  154.08    9.00
   3  -4   2  155.28    8.80
  -4   4  -2  298.57   18.00
  -4   4  -2  303.27   16.50
   4  -4   2  289.27   16.80
   4  -4   2  300.07   16.50
  -5   4  -2   66.79    5.70
  -5   4  -2   64.89    4.10
   5  -4   2   63.89    4.50
  -6   4  -2   51.09    3.30
  -6   4  -2   42.10    4.50
   6  -4   2   45.90    3.60
  -7   4  -2    5.50    1.90
  -7   4  -2    6.70    1.30
   7  -4   2    5.30    1.50
  -8   4  -2    4.80    2.20
  -8   4  -2    6.50    1.40
   8  -4   2    3.10    1.40
  -9   4  -2   10.30    3.10
  -9   4  -2   10.10    1.80
   9  -4   2    4.70    1.60
 -10   4  -2    2.80    2.20
 -10   4  -2    0.60    1.20
 -11  -3   2    2.40    1.60
 -10  -3   2    2.40    1.40
 -10  -3   2   -0.60    1.40
  -9  -3   2   -0.10    1.10
  -9  -3   2    0.30    1.20
   8   3  -2    5.10    1.20
  -8  -3   2    2.70    1.30
  -8  -3   2    2.10    1.20
   7   3  -2   14.40    1.70
  -7  -3   2   12.10    1.70
  -7  -3   2   12.70    1.80
   6   3  -2    9.70    1.30
  -6  -3   2   14.70    1.80
  -6  -3   2   13.60    1.60
  -6  -3   2   12.30    1.90
  -6  -3   2   13.30    1.80
   5   3  -2   -0.50    0.40
  -5  -3   2    0.10    0.60
  -5  -3   2    0.20    0.50
  -5  -3   2    0.10    0.70
  -5  -3   2   -0.60    0.40
  -5  -3   2    0.00    0.60
   4   3  -2   21.70    1.70
  -4  -3   2   23.10    1.80
  -4  -3   2   23.90    1.80
  -4  -3   2   22.70    1.90
  -4  -3   2   22.80    2.00
  -4  -3   2   22.50    2.00
   3   3  -2   12.20    1.10
  -3  -3   2   13.90    1.10
  -3  -3   2   13.10    1.30
  -3  -3   2   13.30    1.20
  -3  -3   2   12.40    1.20
  -3  -3   2   13.80    1.20
  -2  -3   2   40.20    2.70
  -2  -3   2   45.10    2.70
  -2  -3   2   44.40    2.90
  -2  -3   2   41.20    2.50
  -1  -3   2    6.30    0.70
  -1  -3   2    4.20    0.60
  -1  -3   2    5.00    0.40
  -1  -3   2    6.00    0.80
   0   3  -2    1.20    0.40
   0  -3   2    1.80    0.40
   0  -3   2    2.40    0.50
   0  -3   2    1.90    0.50
  -1   3  -2  291.97   16.90
  -1   3  -2  251.57   16.20
   1  -3   2  340.37   16.50
   1  -3   2  319.67   16.50
  -2   3  -2    1.40    0.70
  -2   3  -2    1.90    0.40
   2  -3   2    2.00    0.40
   2  -3   2    1.10    0.50
  -3   3  -2  189.98   10.70
  -3   3  -2  189.88   11.90
   3  -3   2  196.38   10.70
   3  -3   2  193.08   10.90
  -4   3  -2   56.69    3.50
  -4   3  -2   53.49    4.60
   4  -3   2   55.19    3.70
   4  -3   2   53.89    3.30
  -5   3  -2   44.80    4.40
  -5   3  -2   48.80    3.20
   5  -3   2   45.10    3.30
  -6   3  -2   26.50    2.20
  -6   3  -2   27.10    3.60
   6  -3   2   25.30    2.40
  -7   3  -2    6.40    2.20
  -7   3  -2    6.10    1.30
   7  -3   2    5.00    1.30
  -8   3  -2   10.80    2.80
  -8   3  -2   12.60    1.80
   8  -3   2   12.80    2.00
  -9   3  -2    0.60    1.10
  -9   3  -2    1.20    1.50
 -10   3  -2    3.40    2.30
 -10   3  -2    2.40    1.40
 -11  -2   2    3.90    1.60
 -10  -2   2   11.30    2.10
   9   2  -2   -0.10    0.90
  -9  -2   2   -0.70    0.80
  -9  -2   2    0.40    1.20
   8   2  -2    5.30    1.30
  -8  -2   2    7.20    1.40
  -8  -2   2    6.10    1.90
  -8  -2   2    6.30    1.50
   7   2  -2    7.10    1.20
   7   2  -2    4.90    1.20
  -7  -2   2    4.30    1.40
  -7  -2   2    3.30    1.10
  -7  -2   2    2.80    1.20
  -7  -2   2    5.30    1.20
   6   2  -2    1.90    0.70
  -6  -2   2    2.10    0.70
  -6  -2   2    2.40    1.00
  -6  -2   2    2.10    0.90
  -6  -2   2    2.80    1.00
   5   2  -2    3.00    0.70
  -5  -2   2    3.00    0.80
  -5  -2   2    2.00    0.90
  -5  -2   2    2.80    0.90
  -5  -2   2    3.50    1.00
   4   2  -2   95.59    5.60
  -4  -2   2   98.79    5.80
  -4  -2   2   98.79    5.60
  -4  -2   2  103.69    6.00
  -4  -2   2   86.09    5.70
  -4  -2   2   92.09    5.90
   3   2  -2    6.70    0.80
  -3  -2   2    7.10    1.00
  -3  -2   2    6.20    0.80
  -3  -2   2    6.80    1.00
  -3  -2   2    4.50    0.70
  -3  -2   2    5.60    0.90
   2   2  -2    1.20    0.40
  -2  -2   2    0.20    0.30
  -2  -2   2    0.30    0.30
  -2  -2   2    0.30    0.40
  -2  -2   2   -0.20    0.40
  -1  -2   2   38.00    2.80
  -1  -2   2   51.79    2.70
  -1  -2   2   47.40    2.80
   0  -2   2  175.88   10.00
   0  -2   2  189.88    9.60
   0  -2   2  182.88    9.70
   0  -2   2  148.09    9.60
   1  -2   2   77.69    4.60
   1  -2   2   82.19    4.50
  -2   2  -2   64.59    4.70
  -2   2  -2   63.79    3.80
   2  -2   2   66.19    3.70
   2  -2   2   66.99    3.90
  -3   2  -2   38.00    2.20
  -3   2  -2   37.00    3.50
  -3   2  -2   35.30    2.40
   3  -2   2   37.30    2.50
   3  -2   2   38.10    2.20
  -4   2  -2    1.20    1.10
  -4   2  -2    2.90    0.70
  -4   2  -2    3.20    0.50
   4  -2   2    1.30    0.60
   4  -2   2    2.80    0.40
  -5   2  -2    5.60    1.70
  -5   2  -2    5.90    1.10
   5  -2   2    7.50    1.20
  -6   2  -2    0.20    0.70
  -6   2  -2   -0.40    1.00
   6  -2   2   -0.30    0.70
  -7   2  -2   23.80    3.70
  -7   2  -2   24.40    2.30
   7  -2   2   23.10    2.50
  -8   2  -2    4.90    2.20
  -8   2  -2    7.30    1.40
  -9   2  -2    1.00    1.70
  -9   2  -2    0.80    1.10
 -10   2  -2    8.80    2.00
 -10   2  -2    8.20    2.80
 -11  -1   2    0.00    1.40
  10   1  -2    0.30    1.10
 -10  -1   2    1.30    1.10
   9   1  -2    6.50    1.50
  -9  -1   2    4.20    1.20
  -9  -1   2    9.90    1.80
  -9  -1   2    5.00    2.50
   8   1  -2   -0.50    0.80
  -8  -1   2    0.50    0.80
  -8  -1   2   -1.80    1.00
  -8  -1   2   -0.80    1.20
   7   1  -2    5.60    1.10
   7   1  -2    4.90    1.10
  -7  -1   2    7.90    1.40
  -7  -1   2    7.10    1.20
  -7  -1   2    6.20    1.70
  -7  -1   2    7.80    1.60
   6   1  -2    6.50    1.10
   6   1  -2    6.40    1.00
  -6  -1   2    6.90    1.20
  -6  -1   2    6.90    1.40
  -6  -1   2    5.90    1.40
  -6  -1   2    5.30    1.00
   5   1  -2  293.57   17.20
   5   1  -2  309.27   17.30
  -5  -1   2  314.97   17.30
  -5  -1   2  331.27   17.90
  -5  -1   2  304.97   17.20
  -5  -1   2  303.07   17.60
   4   1  -2    3.70    0.70
   4   1  -2    2.90    0.70
  -4  -1   2    2.00    0.60
  -4  -1   2    2.20    0.60
  -4  -1   2    2.60    0.80
  -4  -1   2    3.20    1.00
   3   1  -2  299.17   16.00
  -3  -1   2  312.87   16.20
  -3  -1   2  249.88   16.00
  -3  -1   2  274.37   16.00
  -3  -1   2  314.67   16.00
   2   1  -2 1261.87   64.79
  -2  -1   2 1256.47   64.89
  -2  -1   2 1087.49   65.99
  -1  -1   2   26.20    1.90
  -1  -1   2   29.30    1.80
   0  -1   2  889.51   47.60
   0  -1   2  866.71   47.50
   0  -1   2  889.31   47.60
  -1   1  -2   15.10    1.70
   1  -1   2   16.30    1.10
   1  -1   2   13.90    1.70
  -2   1  -2  263.47   14.00
  -2   1  -2  240.38   13.80
  -2   1  -2  253.37   14.90
   2  -1   2  257.07   15.00
   2  -1   2  257.07   14.00
  -3   1  -2    7.80    1.70
  -3   1  -2   11.20    0.90
  -3   1  -2   10.00    1.10
   3  -1   2   10.60    1.00
  -4   1  -2  205.98   13.50
  -4   1  -2  216.28   12.20
  -4   1  -2  218.78   11.90
   4  -1   2  219.38   12.10
  -5   1  -2    2.50    1.40
  -5   1  -2    2.40    0.70
  -5   1  -2    2.00    0.80
   5  -1   2    2.40    0.70
  -6   1  -2   22.40    3.40
  -6   1  -2   25.00    2.20
   6  -1   2   21.30    2.00
  -7   1  -2    0.80    1.20
  -7   1  -2    1.30    1.00
  -8   1  -2    4.90    2.20
  -8   1  -2    7.30    1.60
  -9   1  -2    1.20    1.90
  -9   1  -2   -1.10    1.00
 -10   1  -2    5.60    1.80
 -10   1  -2    9.70    3.10
 -12   0   2   -0.50    1.50
  11   0  -2    2.90    1.60
 -11   0   2    8.70    1.80
  10   0  -2    4.80    1.60
 -10   0   2    3.70    2.90
 -10   0   2    3.90    1.30
   9   0  -2   19.80    2.50
  -9   0   2   31.20    3.30
  -9   0   2   23.60    3.80
  -9   0   2   25.60    2.70
   8   0  -2  199.48   12.40
  -8   0   2  211.28   12.40
  -8   0   2  213.98   12.30
  -8   0   2  217.88   13.80
   7   0  -2   19.60    1.90
   7   0  -2   19.00    2.10
  -7   0   2   21.60    3.20
  -7   0   2   18.20    2.10
  -7   0   2   23.90    2.40
  -7   0   2   21.50    2.00
   6   0  -2   35.10    2.90
   6   0  -2   38.10    2.90
  -6   0   2   41.70    3.90
  -6   0   2   43.30    3.00
  -6   0   2   46.80    3.40
  -6   0   2   40.60    2.90
   5   0  -2   15.00    1.40
   5   0  -2   13.70    1.50
  -5   0   2   15.60    1.40
  -5   0   2   15.60    2.40
  -5   0   2   15.50    1.60
  -5   0   2   12.90    1.70
   4   0  -2   21.30    1.70
   4   0  -2   20.60    1.70
  -4   0   2   20.70    1.70
  -4   0   2   24.30    1.70
  -4   0   2   24.10    2.50
  -4   0   2   18.40    1.90
   3   0  -2   78.19    4.80
   3   0  -2   81.39    4.70
  -3   0   2   80.39    5.20
  -3   0   2   80.79    4.70
   2   0  -2 1370.16   76.79
   2   0  -2 1543.15   76.99
  -2   0   2 1360.76   78.89
   1   0  -2  101.69    5.40
  -1   0   2   79.59    5.60
  -1   0   2  106.09    5.40
   0   0  -2  155.88    8.40
   0   0   2  159.28    8.40
   0   0   2  138.19    8.40
  -1   0  -2   91.09    5.20
  -1   0  -2   99.99    6.10
  -1   0  -2  103.29    5.40
   1   0   2   87.79    5.10
   1   0   2   84.49    5.90
  -2   0  -2  102.89    5.80
  -2   0  -2  101.09    6.80
  -2   0  -2  103.49    5.90
   2   0   2   98.39    5.70
   2   0   2  103.69    6.90
  -3   0  -2   38.00    2.50
  -3   0  -2   32.50    3.20
  -3   0  -2   34.60    2.30
   3   0   2   34.20    3.50
   3   0   2   37.10    2.30
  -4   0  -2   38.40    2.70
  -4   0  -2   38.40    3.80
  -4   0  -2   40.10    2.50
   4   0   2   35.10    2.50
  -5   0  -2   16.00    1.80
  -5   0  -2   17.80    1.50
  -5   0  -2   14.60    2.60
   5   0   2   16.10    1.40
  -6   0  -2   29.60    2.70
  -6   0  -2   35.80    2.80
  -6   0  -2   32.30    4.10
  -7   0  -2    1.30    1.10
  -7   0  -2   -0.20    1.40
  -8   0  -2   -0.50    0.70
  -8   0  -2    0.00    1.60
  -9   0  -2    5.40    2.50
  -9   0  -2    5.40    1.70
 -10   0  -2    0.70    1.50
 -10   0  -2    1.20    2.00
  12  -1  -2    0.70    1.50
 -12   1   2    0.20    1.60
  11  -1  -2    4.50    1.70
 -11   1   2    8.40    1.90
 -11   1   2   -1.60    3.60
  10  -1  -2    4.50    1.60
 -10   1   2    3.40    1.40
 -10   1   2    1.90    3.20
   9  -1  -2   20.60    2.60
  -9   1   2   18.50    3.90
  -9   1   2   22.10    2.50
   8  -1  -2    0.40    0.90
   8  -1  -2    1.90    1.10
  -8   1   2    0.70    1.00
  -8   1   2    2.50    0.90
  -8   1   2    0.90    1.80
   7  -1  -2   26.90    2.40
   7  -1  -2   26.40    2.20
  -7   1   2   24.20    2.20
  -7   1   2   26.40    2.60
  -7   1   2   19.00    3.30
  -7   1   2   23.60    2.20
   6  -1  -2  149.69    9.00
   6  -1  -2  144.79    9.10
  -6   1   2  146.09    9.00
  -6   1   2  156.28    9.50
  -6   1   2  158.78    9.00
  -6   1   2  164.78   10.20
   5  -1  -2  148.99    9.00
   5  -1  -2  150.08    9.00
  -5   1   2  159.68    9.00
  -5   1   2  147.49    9.30
  -5   1   2  163.28    8.90
  -5   1   2  155.58    9.70
   4  -1  -2   85.49    5.20
   4  -1  -2   90.49    5.20
  -4   1   2   78.89    5.40
  -4   1   2   86.39    5.10
  -4   1   2   84.99    6.00
   3  -1  -2  929.71   49.30
   3  -1  -2  929.91   49.20
  -3   1   2  865.41   49.60
  -3   1   2  906.61   49.50
  -3   1   2  907.41   49.20
   2  -1  -2  375.16   20.60
   2  -1  -2  372.16   20.50
   2  -1  -2  382.16   20.40
  -2   1   2  368.16   20.80
   1  -1  -2 3994.40  213.18
  -1   1   2 3574.94  216.08
  -1   1   2 4292.87  213.98
   0  -1  -2  149.19    8.10
   0  -1  -2  149.88    8.10
   0  -1  -2  152.08    8.10
   0   1   2  130.69    8.50
   0   1   2  139.49    8.10
  -1  -1  -2   38.10    2.50
  -1  -1  -2   39.00    3.20
  -1  -1  -2   40.80    2.50
  -1  -1  -2   39.30    2.30
   1   1   2   35.60    3.20
   1   1   2   38.30    2.60
  -2  -1  -2   35.90    2.30
  -2  -1  -2   36.80    2.10
  -2  -1  -2   34.30    3.20
  -2  -1  -2   36.50    2.40
   2   1   2   33.70    2.00
   2   1   2   32.20    3.20
  -3  -1  -2  105.69    5.40
  -3  -1  -2   95.19    5.60
  -3  -1  -2   86.89    6.70
  -3  -1  -2   88.89    5.70
   3   1   2   90.79    6.70
   3   1   2   93.29    5.30
  -4  -1  -2   11.60    2.20
  -4  -1  -2   13.80    1.50
  -4  -1  -2   12.70    1.40
   4   1   2   14.40    2.60
  -5  -1  -2   -1.30    0.70
  -5  -1  -2    0.60    0.80
  -5  -1  -2    0.10    1.20
  -6  -1  -2   -0.40    0.60
  -6  -1  -2   -0.40    1.30
  -6  -1  -2    0.10    0.80
  -7  -1  -2    0.00    1.60
  -7  -1  -2   -1.30    0.70
  -8  -1  -2   23.10    4.10
  -8  -1  -2   27.10    3.00
  -9  -1  -2   -0.10    1.90
  -9  -1  -2    1.60    1.50
  12  -2  -2    1.40    1.70
 -12   2   2   -1.20    1.40
  11  -2  -2   -1.50    1.20
 -11   2   2   -6.90    3.80
 -11   2   2    0.60    1.40
  10  -2  -2   19.60    2.70
 -10   2   2   14.60    4.30
 -10   2   2   17.90    2.40
   9  -2  -2   58.29    4.60
  -9   2   2   66.19    4.60
  -9   2   2   60.89    7.00
   8  -2  -2  184.48   11.50
   8  -2  -2  193.28   11.40
  -8   2   2  190.48   13.10
  -8   2   2  207.38   12.70
  -8   2   2  192.88   11.30
   7  -2  -2  119.59    7.50
   7  -2  -2  126.29    7.70
  -7   2   2  119.39    7.40
  -7   2   2  125.49    7.60
  -7   2   2  126.79    9.20
   6  -2  -2   29.20    2.60
   6  -2  -2   27.90    2.50
  -6   2   2   31.00    2.50
  -6   2   2   36.40    4.40
  -6   2   2   32.20    2.40
   5  -2  -2   74.99    4.70
   5  -2  -2   67.09    4.60
  -5   2   2   70.89    4.60
  -5   2   2   73.09    4.60
  -5   2   2   77.69    6.00
   4  -2  -2   74.19    4.70
   4  -2  -2   79.29    4.70
   4  -2  -2   73.09    4.50
  -4   2   2   76.59    4.60
  -4   2   2   77.69    5.80
  -4   2   2   72.79    4.70
   3  -2  -2 1614.04   88.19
   3  -2  -2 1664.93   88.39
   3  -2  -2 1664.33   88.29
  -3   2   2 1715.23   88.29
  -3   2   2 1639.64   88.39
  -3   2   2 1516.35   88.79
   2  -2  -2  739.33   40.70
   2  -2  -2  744.13   40.60
   2  -2  -2  733.03   40.60
  -2   2   2  742.63   40.60
  -2   2   2  745.83   40.70
  -2   2   2  785.02   41.10
   1  -2  -2 2283.27  122.79
   1  -2  -2 2302.07  122.59
   1  -2  -2 2258.07  122.69
   1  -2  -2 2294.77  122.79
  -1   2   2 2352.86  122.79
  -1   2   2 2174.98  124.39
   0  -2  -2  114.39    6.80
   0  -2  -2  118.79    6.80
   0  -2  -2  120.29    6.80
   0   2   2  120.49    6.90
   0   2   2  119.49    7.40
  -1  -2  -2   44.60    2.70
  -1  -2  -2   42.20    2.80
  -1  -2  -2   41.10    2.80
   1   2   2   38.80    3.40
   1   2   2   41.30    2.80
  -2  -2  -2   67.99    4.40
  -2  -2  -2   72.19    4.40
  -2  -2  -2   71.99    4.20
  -2  -2  -2   70.39    5.30
   2   2   2   69.29    5.30
  -3  -2  -2   33.00    2.50
  -3  -2  -2   37.10    2.20
  -3  -2  -2   33.30    2.60
  -3  -2  -2   31.60    3.40
   3   2   2   30.80    3.50
  -4  -2  -2    1.10    0.70
  -4  -2  -2    1.10    0.70
  -4  -2  -2    2.30    1.30
   4   2   2    0.90    1.40
  -5  -2  -2  181.18   10.80
  -5  -2  -2  178.08   12.40
  -5  -2  -2  188.38   10.70
   5   2   2  182.68   12.50
  -6  -2  -2    1.00    0.90
  -6  -2  -2    4.30    1.90
  -6  -2  -2    1.60    0.90
  -7  -2  -2   51.19    6.00
  -7  -2  -2   60.79    4.30
  -7  -2  -2   50.09    4.10
  -8  -2  -2    8.70    1.80
  -8  -2  -2    6.90    3.10
  -9  -2  -2   -1.50    1.30
  12  -3  -2   -0.70    1.60
 -12   3   2    1.30    1.60
  11  -3  -2    3.90    1.90
 -11   3   2    2.10    1.50
  10  -3  -2    0.70    1.10
 -10   3   2    0.60    1.20
 -10   3   2   -3.90    2.60
   9  -3  -2    1.90    1.40
  -9   3   2   -0.30    3.40
  -9   3   2    5.10    1.40
   8  -3  -2   25.10    2.40
   8  -3  -2   25.90    2.60
  -8   3   2   20.80    2.40
  -8   3   2   24.50    4.40
   7  -3  -2   13.80    2.00
   7  -3  -2   16.80    2.00
   7  -3  -2   18.80    1.70
  -7   3   2   13.90    1.90
  -7   3   2   15.90    1.80
  -7   3   2   16.60    3.20
   6  -3  -2    1.10    0.80
   6  -3  -2    1.60    1.00
   6  -3  -2    1.00    0.60
  -6   3   2    3.00    0.90
  -6   3   2    1.50    0.80
  -6   3   2    2.10    2.00
   5  -3  -2   -0.10    0.50
   5  -3  -2    0.40    0.50
   5  -3  -2    0.40    0.70
  -5   3   2    0.00    0.60
  -5   3   2    2.80    1.80
  -5   3   2    0.70    0.70
   4  -3  -2   49.00    3.50
   4  -3  -2   53.49    3.30
   4  -3  -2   49.80    3.50
  -4   3   2   51.49    3.40
  -4   3   2   54.79    3.50
  -4   3   2   52.89    4.90
   3  -3  -2   44.00    2.90
   3  -3  -2   45.90    3.10
   3  -3  -2   43.20    2.90
  -3   3   2   44.40    2.90
  -3   3   2   42.90    3.60
  -3   3   2   45.60    3.00
   2  -3  -2 1708.83   91.89
   2  -3  -2 1657.33   91.79
   2  -3  -2 1725.43   91.99
  -2   3   2 1732.33   92.39
  -2   3   2 1680.53   91.79
   1  -3  -2  108.69    6.00
   1  -3  -2  104.39    6.20
   1  -3  -2  109.59    6.30
   1  -3  -2  106.79    6.30
  -1   3   2  102.69    6.70
  -1   3   2  106.89    6.20
   0  -3  -2  401.96   22.10
   0  -3  -2  400.56   22.20
   0  -3  -2  393.46   21.80
   0  -3  -2  411.16   22.20
   0   3   2  408.06   22.20
   0   3   2  401.26   22.80
  -1  -3  -2   64.29    3.90
  -1  -3  -2   64.29    4.00
  -1  -3  -2   57.99    3.90
   1   3   2   61.49    4.70
  -2  -3  -2    4.70    1.00
  -2  -3  -2    3.20    1.40
  -2  -3  -2    4.80    0.90
  -2  -3  -2    5.20    0.90
   2   3   2    4.20    1.40
  -3  -3  -2    4.80    1.60
  -3  -3  -2    6.00    1.10
  -3  -3  -2    5.60    1.10
   3   3   2    5.30    1.80
  -4  -3  -2   37.10    4.10
  -4  -3  -2   37.90    3.00
  -4  -3  -2   40.50    3.00
   4   3   2   36.70    4.20
  -5  -3  -2    3.30    1.10
  -5  -3  -2    4.90    1.30
  -5  -3  -2    3.50    1.90
  -6  -3  -2   38.00    3.20
  -6  -3  -2   38.50    3.10
  -6  -3  -2   30.90    4.30
  -7  -3  -2    2.40    1.30
  -7  -3  -2    1.80    1.30
  -8  -3  -2   -0.80    1.30
  12  -4  -2    4.70    1.80
 -12   4   2   11.50    2.40
 -12   4   2  -11.60    5.20
  11  -4  -2    1.80    1.80
 -11   4   2  -10.20    4.50
 -11   4   2    3.10    1.50
  10  -4  -2    2.70    1.70
 -10   4   2    1.80    1.30
 -10   4   2   -8.50    4.00
   9  -4  -2   -2.10    1.20
   9  -4  -2    2.50    1.40
  -9   4   2   -4.00    3.50
  -9   4   2    2.40    1.20
   8  -4  -2    3.40    1.50
   8  -4  -2    2.30    1.20
  -8   4   2    1.10    3.50
  -8   4   2    4.60    1.30
   7  -4  -2   -0.80    0.80
   7  -4  -2   -0.40    0.70
  -7   4   2    1.10    2.40
  -7   4   2    0.90    0.90
   6  -4  -2    0.20    0.60
   6  -4  -2    0.10    0.60
   6  -4  -2    0.60    1.00
  -6   4   2   -1.10    0.90
  -6   4   2   -0.20    0.70
  -6   4   2    1.70    2.90
   5  -4  -2    0.30    0.80
   5  -4  -2    0.70    0.60
   5  -4  -2    0.20    0.60
  -5   4   2    0.60    0.70
  -5   4   2   -0.90    0.70
  -5   4   2    2.90    2.60
   4  -4  -2   30.90    2.20
   4  -4  -2   29.70    2.40
   4  -4  -2   30.80    2.40
  -4   4   2   30.10    2.30
  -4   4   2   28.90    3.90
  -4   4   2   27.20    2.30
   3  -4  -2  319.87   18.40
   3  -4  -2  323.57   18.60
   3  -4  -2  333.77   18.40
  -3   4   2  349.67   19.30
  -3   4   2  327.87   18.40
   2  -4  -2    2.40    0.80
   2  -4  -2    2.60    0.80
   2  -4  -2    2.80    0.90
   2  -4  -2    2.70    0.70
  -2   4   2    1.60    0.70
  -2   4   2    1.40    0.80
   1  -4  -2  133.99    8.00
   1  -4  -2  133.59    7.70
   1  -4  -2  138.69    7.90
   1  -4  -2  132.79    7.90
  -1   4   2  130.19    8.50
  -1   4   2  145.89    7.90
   0  -4  -2   17.70    1.60
   0  -4  -2   20.20    1.70
   0  -4  -2   20.00    1.80
   0  -4  -2   15.10    1.20
   0   4   2   16.60    2.10
   0   4   2   17.20    1.60
  -1  -4  -2   62.19    4.10
  -1  -4  -2   61.69    4.20
  -1  -4  -2   63.69    4.10
   1   4   2   64.49    5.00
  -2  -4  -2    2.80    0.90
  -2  -4  -2    2.30    0.90
  -2  -4  -2   -0.30    0.80
  -2  -4  -2    3.10    1.40
   2   4   2    1.30    1.20
  -3  -4  -2   -0.30    0.80
  -3  -4  -2   -0.20    0.80
  -3  -4  -2   -0.90    1.20
   3   4   2    2.70    1.40
  -4  -4  -2   10.90    1.70
  -4  -4  -2   10.70    1.70
  -4  -4  -2    7.10    2.10
  -5  -4  -2   32.50    2.90
  -5  -4  -2   31.00    2.80
  -5  -4  -2   26.90    4.00
  -6  -4  -2    0.20    1.20
  -6  -4  -2    1.50    1.30
  -7  -4  -2    0.60    1.40
  -7  -4  -2    0.90    1.40
  -8  -4  -2   -0.60    1.50
  12  -5  -2   -2.40    1.70
  11  -5  -2    6.10    2.00
 -11   5   2    7.40    2.10
  10  -5  -2    1.30    1.70
 -10   5   2    1.40    1.40
 -10   5   2   -7.10    3.10
   9  -5  -2   27.50    3.30
   9  -5  -2   27.00    3.00
  -9   5   2   10.70    4.90
  -9   5   2   24.60    2.80
   8  -5  -2    0.80    1.40
   8  -5  -2   -0.50    1.10
  -8   5   2   -0.90    3.80
  -8   5   2    0.30    1.20
   7  -5  -2   46.60    3.90
   7  -5  -2   51.59    3.90
  -7   5   2   45.70    3.70
  -7   5   2   48.80    6.70
   6  -5  -2  146.19    9.00
   6  -5  -2  146.59    8.50
   6  -5  -2  145.89    9.00
  -6   5   2  150.78    8.70
  -6   5   2  143.09   10.90
  -6   5   2  137.79    8.70
   5  -5  -2  128.49    7.90
   5  -5  -2  121.99    7.40
   5  -5  -2  118.89    7.70
  -5   5   2  126.29    9.30
  -5   5   2  126.29    7.50
   4  -5  -2  226.18   13.10
   4  -5  -2  228.08   13.50
   4  -5  -2  222.18   13.20
  -4   5   2  235.38   13.20
  -4   5   2  242.28   14.50
   3  -5  -2   50.89    3.50
   3  -5  -2   49.00    3.50
   3  -5  -2   44.80    3.60
  -3   5   2   58.09    4.30
  -3   5   2   48.60    3.40
   2  -5  -2   79.09    5.10
   2  -5  -2   79.79    5.00
   2  -5  -2   78.49    4.80
   2  -5  -2   74.39    4.80
  -2   5   2   79.19    4.90
  -2   5   2   78.19    5.60
   1  -5  -2   40.20    3.10
   1  -5  -2   44.80    3.00
   1  -5  -2   45.00    3.20
   1  -5  -2   42.20    2.80
  -1   5   2   41.00    3.60
  -1   5   2   44.70    3.00
   0  -5  -2  234.08   13.20
   0  -5  -2  225.68   13.00
   0  -5  -2  232.48   13.30
   0   5   2  224.58   13.90
   0   5   2  229.68   13.10
  -1  -5  -2   68.49    4.50
  -1  -5  -2   64.49    4.60
  -1  -5  -2   68.69    4.50
   1   5   2   65.09    5.30
  -2  -5  -2   57.19    4.10
  -2  -5  -2   57.79    4.00
  -2  -5  -2   57.89    5.10
  -2  -5  -2   59.89    4.20
   2   5   2   58.09    5.00
  -3  -5  -2   20.00    2.40
  -3  -5  -2   24.70    3.30
  -3  -5  -2   25.20    2.60
  -4  -5  -2    5.50    1.50
  -4  -5  -2    5.60    1.40
  -5  -5  -2    7.40    1.80
  -5  -5  -2    5.30    1.50
  -6  -5  -2    2.00    1.40
  -6  -5  -2   -1.20    1.30
  -7  -5  -2    1.80    1.40
  -7  -5  -2    0.10    1.60
  11  -6  -2   -2.20    1.70
 -11   6   2   -6.30    3.90
  10  -6  -2    2.60    1.60
   9  -6  -2   22.40    2.80
   9  -6  -2   18.80    2.80
  -9   6   2    6.90    4.90
   8  -6  -2    6.10    1.70
   8  -6  -2    3.90    1.60
  -8   6   2    4.40    1.50
  -8   6   2   -1.20    3.90
   7  -6  -2   94.59    6.40
   7  -6  -2   93.29    6.40
  -7   6   2   80.59    8.70
  -7   6   2   89.89    6.00
   6  -6  -2    3.50    1.20
   6  -6  -2    5.00    1.50
  -6   6   2    4.40    1.30
  -6   6   2    3.40    2.50
   5  -6  -2   27.60    2.70
   5  -6  -2   33.30    2.70
   5  -6  -2   35.50    3.10
  -5   6   2   36.50    4.80
  -5   6   2   31.30    2.70
   4  -6  -2  240.38   14.50
   4  -6  -2  236.48   14.20
   4  -6  -2  246.98   14.10
  -4   6   2  241.18   14.00
  -4   6   2  265.77   15.50
   3  -6  -2   22.80    2.00
   3  -6  -2   20.00    2.40
   3  -6  -2   19.20    2.00
   3  -6  -2   18.40    2.10
  -3   6   2   23.60    2.70
  -3   6   2   18.30    2.00
   2  -6  -2  286.57   15.60
   2  -6  -2  277.27   15.30
   2  -6  -2  273.47   15.40
   2  -6  -2  275.47   15.80
  -2   6   2  268.27   15.40
  -2   6   2  256.77   16.30
   1  -6  -2    3.70    1.10
   1  -6  -2    2.30    1.00
   1  -6  -2    3.00    1.10
  -1   6   2    6.10    1.60
  -1   6   2    4.40    1.10
   0  -6  -2   47.00    3.60
   0  -6  -2   44.40    3.70
   0  -6  -2   48.50    3.70
   0   6   2   53.09    4.40
  -1  -6  -2   89.39    5.90
  -1  -6  -2   78.69    5.80
  -1  -6  -2   81.59    5.70
   1   6   2  101.69    6.70
  -2  -6  -2    3.90    1.40
  -2  -6  -2    2.80    1.90
  -2  -6  -2    4.90    1.30
  -2  -6  -2    2.70    1.20
  -3  -6  -2   23.30    2.70
  -3  -6  -2   22.70    2.60
  -4  -6  -2    1.10    1.40
  -4  -6  -2    0.00    1.10
  -5  -6  -2    3.00    1.70
  -5  -6  -2    1.90    1.30
  -6  -6  -2    1.60    1.70
  -6  -6  -2    3.90    1.60
  11  -7  -2   -0.10    2.00
  10  -7  -2    7.10    2.10
 -10   7   2   -6.30    4.60
   9  -7  -2   -1.50    1.30
   9  -7  -2    3.10    1.60
  -9   7   2   -6.80    3.90
   8  -7  -2    1.60    1.40
   8  -7  -2   -0.80    1.50
  -8   7   2   -4.40    3.70
   7  -7  -2   14.50    2.30
   7  -7  -2   13.60    2.30
  -7   7   2    6.70    3.80
   6  -7  -2   11.20    2.00
   6  -7  -2   12.50    2.00
  -6   7   2    8.80    3.20
   5  -7  -2   93.09    6.50
   5  -7  -2   97.59    6.80
   5  -7  -2   94.39    6.30
  -5   7   2  112.79    8.10
   4  -7  -2   18.80    2.30
   4  -7  -2   23.50    2.40
   4  -7  -2   20.10    2.60
  -4   7   2   28.20    3.00
   3  -7  -2  104.49    6.50
   3  -7  -2   95.29    6.70
   3  -7  -2  102.29    6.50
  -3   7   2  106.79    7.40
  -3   7   2   97.19    6.70
   2  -7  -2   32.10    3.10
   2  -7  -2   24.90    2.80
   2  -7  -2   24.70    2.50
  -2   7   2   29.50    2.60
  -2   7   2   35.70    3.40
   1  -7  -2   86.79    5.90
   1  -7  -2   77.49    5.90
   1  -7  -2   80.49    5.60
  -1   7   2  104.89    6.50
  -1   7   2   79.29    5.60
   0  -7  -2  119.89    8.00
   0  -7  -2  118.89    7.90
   0  -7  -2  125.99    7.70
   0   7   2  125.49    8.40
  -1  -7  -2   12.60    2.10
  -1  -7  -2   10.80    1.80
  -1  -7  -2   14.40    2.20
  -2  -7  -2   53.19    4.30
  -2  -7  -2   49.40    4.00
  -3  -7  -2    4.90    1.80
  -3  -7  -2    3.70    1.50
  -4  -7  -2   11.70    2.40
  -4  -7  -2   12.40    2.20
  -5  -7  -2    7.00    2.30
  -5  -7  -2    7.30    1.90
  10  -8  -2   -0.70    1.80
 -10   8   2  -10.00    4.40
   9  -8  -2    7.70    2.20
   9  -8  -2    8.60    2.40
  -9   8   2   -0.10    3.30
   8  -8  -2    8.30    2.20
   8  -8  -2    5.90    1.90
  -8   8   2    0.60    3.60
   7  -8  -2    0.70    1.50
   7  -8  -2    3.30    1.80
  -7   8   2    5.60    3.10
   6  -8  -2    3.40    1.50
   6  -8  -2    1.40    1.20
   5  -8  -2   30.30    3.60
   5  -8  -2   34.90    3.20
   3  -8  -2   89.69    6.30
   3  -8  -2   76.79    6.40
  -3   8   2  112.59    7.20
   2  -8  -2    4.00    1.60
   1  -8  -2   41.10    3.80
   1  -8  -2   37.40    3.50
   0  -8  -2    9.60    1.90
   0  -8  -2   10.90    2.10
  -1  -8  -2   14.40    2.50
  -1  -8  -2   15.70    2.50
  -2  -8  -2   19.60    2.80
  -3  -8  -2    5.50    2.20
  -4  -8  -2   18.60    3.20
   9  -9  -2    3.00    2.10
   9  -9  -2    4.60    2.30
  -9   9   2   -0.20    3.60
   8  -9  -2    4.40    2.20
   8  -9  -2    5.10    2.20
  -8   9   2   12.00    3.30
   7  -9  -2    3.70    2.00
   2  -9  -2   -0.20    1.30
   2  -9  -2    0.60    1.60
   1  -9  -2    3.00    1.60
   1  -9  -2    3.20    1.50
   0  -9  -2   -1.20    1.40
   0  -9  -2    0.60    1.50
  -1  -9  -2    7.00    2.20
  -1  -9  -2    3.30    1.90
  -2  -9  -2    8.40    2.40
   8 -10  -2   -0.50    1.80
   8 -10  -2    0.00    2.10
   7 -10  -2    0.70    1.90
   7 -10  -2   -1.30    1.10
   4 -10  -2   -1.10    1.70
   3 -10  -2    0.40    1.40
   3 -10  -2   -0.70    1.80
   2 -10  -2    7.60    2.20
   2 -10  -2    3.60    1.90
   1 -10  -2   -0.60    1.50
   1 -10  -2    0.30    1.90
   0 -10  -2    2.10    2.00
   0 -10  -2    2.80    2.20
  -2 -12   3    1.20    2.20
  -2 -12   3    0.80    1.80
  -1 -12   3    1.20    1.60
   0 -12   3    2.30    1.50
   1 -12   3    9.50    2.40
   2 -12   3    1.20    1.70
   2 -12   3   -0.40    1.90
   3 -12   3    1.30    1.90
   3 -12   3    2.60    2.00
   4 -12   3    1.70    2.00
   4 -12   3    2.40    1.90
   5 -12   3   -0.60    1.80
   5 -12   3   -0.20    1.90
  -4 -11   3    3.80    2.20
  -4 -11   3    3.60    2.00
  -3 -11   3    3.30    2.20
  -3 -11   3    2.90    1.80
  -2 -11   3    4.80    2.20
  -2 -11   3    1.50    1.60
  -1 -11   3    3.80    1.80
  -1 -11   3    4.70    1.70
   0 -11   3    6.40    2.20
   0 -11   3    6.70    1.70
   1 -11   3    5.60    1.80
   1 -11   3    4.00    1.80
   2 -11   3    3.10    1.70
   2 -11   3    3.90    1.90
   3 -11   3   -1.00    1.00
   3 -11   3   -0.60    1.50
   4 -11   3    7.80    2.00
   4 -11   3   11.90    2.50
   5 -11   3    1.60    1.90
   5 -11   3    2.40    1.70
   6 -11   3    1.00    2.00
   6 -11   3    1.60    2.00
   7 -11   3    0.20    1.90
  -6 -10   3    8.70    2.50
  -5 -10   3    7.00    2.20
  -5 -10   3    5.00    2.10
  -4 -10   3   11.80    2.40
  -4 -10   3   18.80    3.00
  -3 -10   3   -1.50    1.40
  -3 -10   3    1.20    1.60
  -2 -10   3   17.00    2.40
  -2 -10   3   15.20    2.70
  -1 -10   3    0.10    1.10
  -1 -10   3    3.70    1.30
  -1 -10   3    4.10    1.50
   0 -10   3    1.60    1.20
   0 -10   3    1.20    1.20
   0 -10   3    0.20    1.10
   1 -10   3   13.90    2.10
   1 -10   3   13.20    2.40
   2 -10   3    0.00    1.30
   2 -10   3    1.40    1.20
   3 -10   3   -0.80    1.30
   3 -10   3   -0.50    1.30
   4 -10   3    0.00    1.10
   4 -10   3   -0.40    1.20
   5 -10   3    4.70    1.60
   5 -10   3    4.90    1.50
   6 -10   3    3.70    1.90
   7 -10   3    0.40    1.30
   8 -10   3    3.40    2.20
  -7  -9   3    0.40    1.40
  -6  -9   3    0.10    1.80
  -6  -9   3    6.50    2.00
  -5  -9   3    0.20    1.40
  -5  -9   3    1.40    1.50
  -4  -9   3   88.29    6.60
  -4  -9   3   92.39    6.40
  -3  -9   3   62.79    5.10
  -3  -9   3   61.99    4.80
  -2  -9   3  212.48   12.60
  -2  -9   3  211.78   12.30
  -2  -9   3  211.38   13.00
  -1  -9   3  152.88    9.80
  -1  -9   3  157.68    9.30
  -1  -9   3  149.79    9.20
   0  -9   3   29.20    2.60
   0  -9   3   32.40    2.80
   0  -9   3   34.30    3.10
   1  -9   3  175.08   11.00
   1  -9   3  182.28   10.70
   2  -9   3    1.20    0.90
   2  -9   3   -0.70    0.80
   3  -9   3  259.57   15.50
   3  -9   3  267.37   15.70
   4  -9   3   10.30    2.20
   4  -9   3   16.90    2.30
  -5   9  -3   54.49    7.80
   5  -9   3   71.69    5.10
   5  -9   3   79.39    5.50
   6  -9   3    2.20    1.40
   7  -9   3    0.20    1.30
  -8   9  -3   -8.50    4.20
   8  -9   3   10.60    2.60
   9  -9   3    5.70    2.30
  -8  -8   3   -2.60    1.10
  -7  -8   3   -0.60    1.50
  -6  -8   3    0.20    1.40
  -6  -8   3   -0.20    1.40
  -5  -8   3    1.60    1.40
  -5  -8   3    3.00    1.50
  -4  -8   3   15.40    2.10
  -4  -8   3   17.10    2.40
  -3  -8   3   92.49    6.00
  -3  -8   3   89.19    6.30
  -3  -8   3   88.89    5.70
  -2  -8   3   86.39    6.10
  -2  -8   3   90.39    5.80
  -2  -8   3   88.99    5.60
  -1  -8   3   65.39    5.00
  -1  -8   3   71.29    4.60
  -1  -8   3   70.29    4.60
   0  -8   3    9.40    1.70
   0  -8   3   12.40    1.50
   0  -8   3   11.60    1.60
   1  -8   3    0.60    1.00
   1  -8   3   -0.60    0.50
   1  -8   3    0.30    0.70
  -2   8  -3   64.69    6.80
   2  -8   3   77.29    5.20
   2  -8   3   78.69    5.10
  -3   8  -3   17.50    3.80
   3  -8   3   31.10    2.60
   3  -8   3   31.20    2.80
  -4   8  -3  266.77   17.10
   4  -8   3  262.77   15.40
   4  -8   3  263.57   15.50
  -5   8  -3   62.99    7.20
   5  -8   3   69.19    4.80
   5  -8   3   66.09    5.10
  -6   8  -3   20.80    4.60
   6  -8   3   23.90    2.90
  -7   8  -3   -5.10    2.90
   7  -8   3    2.00    1.30
  -8   8  -3   -2.10    3.50
   8  -8   3    1.40    1.80
  -9   8  -3   -5.30    2.70
   9  -8   3    4.80    2.10
  -9  -7   3    0.50    1.30
  -9  -7   3    1.60    1.90
  -8  -7   3   -0.30    1.20
  -8  -7   3   -0.40    1.60
  -7  -7   3    4.00    1.30
  -7  -7   3    1.10    1.60
  -6  -7   3   -0.70    1.20
  -6  -7   3    0.10    1.00
  -6  -7   3    1.40    1.40
   5   7  -3   -0.70    0.60
  -5  -7   3   -0.60    0.80
  -5  -7   3    0.60    0.90
  -5  -7   3   -0.40    1.00
   4   7  -3    7.60    1.20
  -4  -7   3    6.60    1.50
  -4  -7   3    6.20    1.20
  -4  -7   3    3.40    1.40
  -3  -7   3  110.59    7.00
  -3  -7   3  113.79    7.30
  -3  -7   3  118.19    6.90
  -2  -7   3   -1.30    0.80
  -2  -7   3   -1.60    0.50
  -2  -7   3   -1.00    0.70
  -1  -7   3   31.80    2.80
  -1  -7   3   30.80    2.40
  -1  -7   3   32.60    2.50
   0  -7   3   38.90    3.10
   0  -7   3   33.10    2.70
   0  -7   3   35.50    2.50
  -1   7  -3   34.80    4.40
   1  -7   3   45.90    3.20
   1  -7   3   39.90    2.70
   1  -7   3   44.30    3.10
  -2   7  -3   28.40    3.80
   2  -7   3   27.50    2.40
   2  -7   3   24.60    2.30
  -3   7  -3   61.19    5.50
   3  -7   3   50.29    4.00
   3  -7   3   61.69    4.10
  -4   7  -3    6.20    2.40
   4  -7   3    6.30    1.50
   4  -7   3    9.20    1.50
  -5   7  -3   62.59    6.30
   5  -7   3   65.89    4.80
   5  -7   3   60.99    4.50
  -6   7  -3   16.50    3.40
   6  -7   3   17.50    2.40
  -7   7  -3    2.10    2.20
   7  -7   3    1.30    1.20
  -8   7  -3   -1.30    2.80
   8  -7   3    0.60    1.50
  -9   7  -3    1.00    2.50
   9  -7   3    0.00    1.70
  -9  -6   3    2.20    1.40
  -9  -6   3    2.20    1.80
  -8  -6   3   11.00    1.90
  -8  -6   3   15.10    2.50
  -7  -6   3    9.30    1.60
  -7  -6   3   10.30    2.10
  -7  -6   3    9.90    2.10
   6   6  -3   18.30    1.80
  -6  -6   3   21.10    2.70
  -6  -6   3   21.70    2.20
  -6  -6   3   21.30    2.60
  -6  -6   3   18.50    2.20
   5   6  -3    4.70    0.90
  -5  -6   3    4.60    1.10
  -5  -6   3    4.90    1.20
  -5  -6   3    4.50    1.40
  -5  -6   3    4.90    1.10
   4   6  -3    2.00    0.70
  -4  -6   3    1.60    0.80
  -4  -6   3    0.00    0.90
  -4  -6   3    1.50    0.70
  -4  -6   3    0.90    1.00
  -3  -6   3   50.49    3.30
  -3  -6   3   47.40    3.40
  -3  -6   3   45.80    3.00
  -3  -6   3   45.80    3.60
  -2  -6   3    7.60    0.80
  -2  -6   3    8.60    1.40
  -2  -6   3    6.80    1.10
  -2  -6   3    8.00    1.20
  -1  -6   3  115.79    6.80
  -1  -6   3  118.09    7.20
  -1  -6   3  115.39    6.90
   0   6  -3  321.57   18.60
   0  -6   3  322.47   18.10
   0  -6   3  325.67   18.50
   0  -6   3  340.57   18.30
  -1   6  -3   23.00    3.00
   1  -6   3   24.70    2.10
   1  -6   3   24.10    1.70
   1  -6   3   25.90    2.20
  -2   6  -3   97.89    6.80
   2  -6   3   94.29    5.90
   2  -6   3   94.79    6.00
  -3   6  -3    5.00    1.70
   3  -6   3    5.00    1.10
   3  -6   3    5.90    1.10
  -4   6  -3   13.50    2.50
   4  -6   3   12.60    1.50
   4  -6   3   12.50    1.80
  -5   6  -3    0.60    1.40
   5  -6   3    2.20    1.20
  -6   6  -3    8.60    2.40
   6  -6   3    9.30    1.70
  -7   6  -3    8.30    2.80
   7  -6   3   10.50    2.00
  -8   6  -3    8.10    3.10
   8  -6   3    8.70    1.80
  -9   6  -3   -0.30    2.40
   9  -6   3    2.50    1.50
  10  -6   3    1.30    1.70
 -10  -5   3    1.30    1.40
 -10  -5   3   -1.70    1.40
  -9  -5   3   -0.70    1.40
  -9  -5   3    1.20    1.10
  -8  -5   3   11.30    2.10
  -8  -5   3   11.80    1.80
   7   5  -3    4.70    1.10
  -7  -5   3    1.80    1.30
  -7  -5   3    2.50    1.10
  -7  -5   3    4.70    1.20
   6   5  -3   15.80    1.70
  -6  -5   3   15.40    2.10
  -6  -5   3   13.90    1.70
  -6  -5   3   15.90    2.30
  -6  -5   3   15.40    1.90
   5   5  -3    2.30    0.70
  -5  -5   3    0.90    0.70
  -5  -5   3    2.70    0.80
  -5  -5   3    2.20    0.90
  -5  -5   3    2.70    1.00
   4   5  -3   24.10    1.90
  -4  -5   3   23.70    2.20
  -4  -5   3   24.50    2.00
  -4  -5   3   24.50    2.30
  -4  -5   3   23.40    1.90
   3   5  -3   19.60    1.60
  -3  -5   3   18.90    1.90
  -3  -5   3   19.60    2.00
  -3  -5   3   21.90    1.50
  -3  -5   3   20.50    1.70
  -2  -5   3   40.10    2.70
  -2  -5   3   39.00    2.40
  -2  -5   3   40.50    2.80
  -2  -5   3   40.90    2.90
   1   5  -3  404.06   22.70
  -1  -5   3  379.06   22.30
  -1  -5   3  440.26   23.00
  -1  -5   3  424.36   22.70
  -1  -5   3  424.86   22.70
   0   5  -3    2.50    1.00
   0  -5   3    2.50    0.70
   0  -5   3    3.10    0.80
   0  -5   3    3.40    0.60
  -1   5  -3  435.46   23.30
   1  -5   3  416.56   22.80
   1  -5   3  411.16   22.80
   1  -5   3  384.76   22.40
  -2   5  -3    3.70    0.40
  -2   5  -3    2.80    1.00
   2  -5   3    3.00    0.50
   2  -5   3    3.30    0.80
   2  -5   3    2.70    0.70
  -3   5  -3   -0.20    0.40
  -3   5  -3    0.50    0.90
   3  -5   3    0.60    0.50
   3  -5   3   -0.40    0.40
  -4   5  -3   11.10    2.10
  -4   5  -3   12.00    1.20
   4  -5   3   12.10    1.30
   4  -5   3   10.30    1.60
  -5   5  -3    2.40    0.80
  -5   5  -3    0.90    1.30
   5  -5   3    3.00    1.10
  -6   5  -3   21.50    3.30
  -6   5  -3   22.50    2.00
   6  -5   3   21.50    2.50
  -7   5  -3   31.40    4.20
  -7   5  -3   31.20    2.70
   7  -5   3   28.30    3.20
  -8   5  -3    4.20    2.00
   8  -5   3    6.30    1.70
  -9   5  -3    3.80    2.40
   9  -5   3    1.10    1.30
 -10   5  -3    0.70    1.90
 -11  -4   3    0.30    1.50
 -11  -4   3   -0.60    1.70
 -10  -4   3    1.90    1.60
 -10  -4   3    0.50    1.20
  -9  -4   3    2.40    1.50
  -9  -4   3    5.20    1.40
   8   4  -3    0.50    0.90
  -8  -4   3    1.60    1.10
  -8  -4   3    1.70    1.30
   7   4  -3   -0.50    0.60
  -7  -4   3    1.10    0.90
  -7  -4   3    0.10    1.00
  -7  -4   3    0.00    0.80
   6   4  -3    2.40    0.80
  -6  -4   3    1.60    1.10
  -6  -4   3    1.70    1.00
  -6  -4   3    2.00    0.80
  -6  -4   3    1.90    0.90
   5   4  -3   27.90    2.10
  -5  -4   3   27.80    2.30
  -5  -4   3   27.90    2.40
  -5  -4   3   30.60    2.20
  -5  -4   3   23.70    2.40
   4   4  -3   91.39    5.30
  -4  -4   3   83.49    5.50
  -4  -4   3   85.99    5.70
  -4  -4   3   89.39    5.40
  -4  -4   3   89.79    5.20
   3   4  -3   47.50    2.90
  -3  -4   3   40.80    3.00
  -3  -4   3   47.20    3.00
  -3  -4   3   45.60    2.80
  -3  -4   3   47.50    3.30
  -2  -4   3  308.47   17.00
  -2  -4   3  299.57   16.50
  -2  -4   3  292.77   16.70
  -2  -4   3  307.77   16.70
   1   4  -3   36.10    2.20
  -1  -4   3   34.00    2.20
  -1  -4   3   32.60    2.20
  -1  -4   3   25.70    1.90
  -1  -4   3   31.80    2.40
   0   4  -3  937.81   50.79
   0  -4   3  935.21   50.59
   0  -4   3  913.61   50.29
   0  -4   3  935.21   50.39
  -1   4  -3    1.60    0.70
  -1   4  -3    1.70    0.30
   1  -4   3    1.10    0.60
   1  -4   3    2.70    0.40
   1  -4   3    1.60    0.60
  -2   4  -3   44.20    2.70
  -2   4  -3   45.20    3.80
   2  -4   3   43.30    3.00
   2  -4   3   47.70    3.00
  -3   4  -3   44.60    2.80
  -3   4  -3   46.10    4.10
   3  -4   3   45.00    2.90
   3  -4   3   45.00    3.10
  -4   4  -3    1.00    1.10
  -4   4  -3    1.20    0.60
   4  -4   3    0.40    0.70
  -5   4  -3    0.30    0.60
  -5   4  -3    0.70    1.00
   5  -4   3    1.00    0.80
  -6   4  -3   40.00    4.70
  -6   4  -3   41.70    3.10
   6  -4   3   40.00    3.30
  -7   4  -3    2.30    1.90
  -7   4  -3    2.00    1.00
   7  -4   3    4.00    1.30
  -8   4  -3   32.40    4.70
  -8   4  -3   25.30    2.80
   8  -4   3   24.00    2.90
  -9   4  -3    1.90    1.20
  -9   4  -3    1.10    1.50
 -10   4  -3    3.50    2.30
 -10   4  -3   -0.90    1.30
 -11  -3   3    3.00    1.70
 -11  -3   3    3.10    2.30
 -10  -3   3    4.50    1.60
   9   3  -3    1.20    1.00
  -9  -3   3   -0.40    1.10
  -9  -3   3    0.80    1.10
   8   3  -3    5.60    1.30
  -8  -3   3    7.40    1.50
   7   3  -3    1.70    0.80
  -7  -3   3    1.50    1.10
  -7  -3   3    2.60    0.90
  -7  -3   3    1.00    0.80
   6   3  -3   17.80    1.70
  -6  -3   3   20.00    2.60
  -6  -3   3   22.90    2.50
  -6  -3   3   17.10    2.00
  -6  -3   3   18.20    1.70
   5   3  -3   51.99    3.50
  -5  -3   3   54.99    3.90
  -5  -3   3   55.59    4.00
  -5  -3   3   52.19    3.60
  -5  -3   3   54.89    3.50
  -5  -3   3   56.99    3.70
   4   3  -3  100.39    6.10
  -4  -3   3  107.69    6.20
  -4  -3   3  106.69    6.20
  -4  -3   3   99.19    6.00
  -4  -3   3  102.19    6.50
  -4  -3   3  105.69    6.20
   3   3  -3    1.80    0.50
  -3  -3   3    1.50    0.40
  -3  -3   3    0.80    0.70
  -3  -3   3    0.80    0.60
  -3  -3   3    1.20    0.60
  -2  -3   3  236.88   12.50
  -2  -3   3  220.98   12.30
  -2  -3   3  213.08   12.40
   1   3  -3  113.89    6.60
  -1  -3   3  109.39    6.60
  -1  -3   3  117.79    6.50
  -1  -3   3  113.19    6.30
  -1  -3   3  112.89    6.50
  -1  -3   3  116.59    6.70
   0   3  -3   15.60    1.60
   0   3  -3   15.50    1.00
   0  -3   3   17.90    1.10
   0  -3   3   16.60    1.30
   0  -3   3   17.20    1.20
   0  -3   3   17.10    1.40
  -1   3  -3   17.70    1.90
  -1   3  -3   15.40    1.10
   1  -3   3   14.40    1.20
   1  -3   3   15.00    1.20
  -2   3  -3  345.37   20.20
  -2   3  -3  339.97   19.00
   2  -3   3  337.47   19.10
   2  -3   3  363.86   19.00
  -3   3  -3    0.70    0.80
  -3   3  -3    2.60    0.60
   3  -3   3    1.60    0.40
   3  -3   3    1.70    0.60
  -4   3  -3  134.69    7.70
  -4   3  -3  129.89    9.30
   4  -3   3  133.09    7.80
  -5   3  -3   34.00    4.00
  -5   3  -3   32.90    2.60
   5  -3   3   37.00    2.70
  -6   3  -3    0.80    0.80
  -6   3  -3    0.10    1.20
   6  -3   3    0.70    0.80
  -7   3  -3    1.80    1.00
  -7   3  -3   -0.10    1.40
   7  -3   3   -0.40    0.90
  -8   3  -3    1.50    1.90
  -8   3  -3    1.30    1.30
  -9   3  -3   -1.00    1.70
  -9   3  -3   -1.80    0.90
 -10   3  -3    8.40    2.00
 -10   3  -3    9.90    3.10
 -11  -2   3   -0.20    1.40
  10   2  -3    2.70    1.40
 -10  -2   3    3.70    1.70
 -10  -2   3    4.80    1.60
   9   2  -3    2.80    1.30
  -9  -2   3    4.80    1.40
  -9  -2   3    4.90    1.60
   8   2  -3    5.20    1.20
   8   2  -3    4.60    1.30
  -8  -2   3    6.20    1.60
  -8  -2   3    3.60    1.20
  -8  -2   3    4.70    1.20
   7   2  -3    3.30    1.10
   7   2  -3    3.40    1.00
  -7  -2   3    5.30    1.80
  -7  -2   3    3.60    1.00
  -7  -2   3    5.40    1.40
  -7  -2   3    6.20    1.20
   6   2  -3   18.50    2.00
   6   2  -3   16.80    1.80
  -6  -2   3   20.70    2.80
  -6  -2   3   20.60    1.80
  -6  -2   3   20.60    2.10
  -6  -2   3   22.50    2.50
   5   2  -3   23.00    1.90
  -5  -2   3   24.40    2.10
  -5  -2   3   25.80    2.70
  -5  -2   3   22.00    2.00
  -5  -2   3   25.00    2.40
  -5  -2   3   25.00    1.80
   4   2  -3  367.36   20.10
  -4  -2   3  370.26   20.10
  -4  -2   3  365.06   20.30
  -4  -2   3  387.16   20.60
  -4  -2   3  358.46   20.30
  -4  -2   3  351.06   20.30
   3   2  -3    2.70    0.50
  -3  -2   3    2.70    0.60
  -3  -2   3    2.70    0.50
  -3  -2   3    2.00    0.50
  -3  -2   3    1.90    0.60
  -3  -2   3    2.00    0.70
   2   2  -3   66.49    3.80
  -2  -2   3   67.89    3.90
  -2  -2   3   62.09    3.90
  -2  -2   3   64.29    3.80
  -2  -2   3   65.29    3.90
  -1  -2   3   26.30    1.70
  -1  -2   3   24.90    2.00
  -1  -2   3   25.00    1.80
  -1  -2   3   26.80    1.60
   0   2  -3  332.37   21.30
   0  -2   3  379.06   20.70
   0  -2   3  379.96   21.40
   0  -2   3  393.16   20.70
   0  -2   3  393.06   20.90
   0  -2   3  404.66   20.70
  -1   2  -3   28.50    1.60
  -1   2  -3   25.90    2.50
  -1   2  -3   26.80    1.70
   1  -2   3   25.00    1.80
   1  -2   3   25.30    2.60
  -2   2  -3  137.19    7.90
  -2   2  -3  137.09    7.60
  -2   2  -3  138.89    9.00
   2  -2   3  136.09    7.70
   2  -2   3  140.29    7.90
   2  -2   3  144.19    9.10
  -3   2  -3   47.40    3.20
  -3   2  -3   49.70    4.40
  -3   2  -3   49.30    2.90
   3  -2   3   49.10    3.10
  -4   2  -3   26.00    2.00
  -4   2  -3   21.70    3.10
   4  -2   3   23.60    1.90
  -5   2  -3   21.90    2.00
  -5   2  -3   18.70    2.90
   5  -2   3   24.00    1.90
  -6   2  -3    1.00    0.90
  -6   2  -3    1.30    1.50
   6  -2   3    0.20    0.80
  -7   2  -3    3.30    1.00
  -7   2  -3    3.60    1.80
  -8   2  -3    0.00    1.10
  -8   2  -3   -0.10    1.80
  -9   2  -3    3.10    1.50
  -9   2  -3    1.80    2.20
 -12  -1   3    0.90    1.60
  11   1  -3    9.70    2.00
 -11  -1   3   10.20    2.20
  10   1  -3    1.30    1.30
 -10  -1   3    0.30    1.30
 -10  -1   3    1.00    1.30
   9   1  -3    1.40    1.20
  -9  -1   3    1.80    1.00
  -9  -1   3    3.60    1.40
  -9  -1   3   -1.20    2.40
   8   1  -3   12.80    1.80
   8   1  -3   12.80    1.80
  -8  -1   3   13.00    1.90
  -8  -1   3   14.10    2.30
  -8  -1   3   13.80    1.70
  -8  -1   3    9.10    2.70
   7   1  -3    5.70    1.20
   7   1  -3    7.30    1.20
  -7  -1   3    7.10    1.30
  -7  -1   3    9.00    1.70
  -7  -1   3    6.10    1.20
  -7  -1   3    6.20    2.20
   6   1  -3    8.70    1.30
   6   1  -3    8.80    1.30
  -6  -1   3    8.50    1.60
  -6  -1   3    8.60    1.20
  -6  -1   3    8.60    2.00
  -6  -1   3    8.20    1.30
   5   1  -3  262.27   14.90
   5   1  -3  250.57   14.80
  -5  -1   3  279.37   15.30
  -5  -1   3  259.17   14.70
  -5  -1   3  263.07   15.30
  -5  -1   3  270.57   14.90
   4   1  -3  273.67   15.40
   4   1  -3  291.07   15.60
  -4  -1   3  256.57   15.40
  -4  -1   3  275.97   15.50
  -4  -1   3  281.97   15.40
  -4  -1   3  267.17   15.70
  -4  -1   3  295.87   15.90
   3   1  -3  572.14   31.10
   3   1  -3  590.24   31.30
  -3  -1   3  598.04   31.60
  -3  -1   3  547.85   31.20
  -3  -1   3  559.44   31.10
  -3  -1   3  568.14   31.30
   2   1  -3  125.59    7.00
   2   1  -3  128.99    6.80
  -2  -1   3  110.49    6.80
  -2  -1   3  123.89    7.20
  -2  -1   3  116.79    7.00
  -2  -1   3  114.09    6.80
  -2  -1   3  126.09    7.10
   1   1  -3   -0.50    0.30
   1   1  -3    0.00    0.50
   1   1  -3    0.30    0.30
  -1  -1   3    0.70    0.40
  -1  -1   3    1.60    0.50
  -1  -1   3    1.10    0.60
  -1  -1   3    0.40    0.40
  -1  -1   3    1.00    0.30
   0   1  -3   55.49    4.00
   0   1  -3   52.59    3.30
   0   1  -3   55.79    3.30
   0   1  -3   53.49    3.30
   0  -1   3   55.49    3.30
   0  -1   3   62.59    3.50
   0  -1   3   58.79    3.20
   0  -1   3   53.29    3.40
   0  -1   3   54.29    4.00
  -1   1  -3   75.79    4.20
  -1   1  -3   72.49    5.20
  -1   1  -3   74.59    4.30
  -1   1  -3   74.19    4.40
   1  -1   3   78.99    4.30
   1  -1   3   71.29    4.20
   1  -1   3   72.99    5.30
   1  -1   3   76.69    4.50
  -2   1  -3  158.28    9.00
  -2   1  -3  153.08   10.10
  -2   1  -3  156.98    8.80
   2  -1   3  159.78   10.20
   2  -1   3  161.28    8.80
  -3   1  -3  196.98   12.90
  -3   1  -3  202.08   11.30
  -3   1  -3  206.38   11.50
   3  -1   3  209.38   13.10
   3  -1   3  203.88   11.40
  -4   1  -3    1.30    1.20
  -4   1  -3    1.00    0.50
  -4   1  -3    0.90    0.70
   4  -1   3    0.90    0.50
  -5   1  -3   -0.90    0.60
  -5   1  -3    0.50    1.20
  -6   1  -3    5.90    2.10
  -6   1  -3    4.60    1.10
  -7   1  -3    1.10    1.10
  -7   1  -3    1.70    1.80
  -8   1  -3   -0.50    1.20
  -8   1  -3   -1.10    1.60
  -9   1  -3    0.80    2.00
  -9   1  -3   -1.30    1.20
  12   0  -3   -1.60    1.40
 -12   0   3   -0.60    1.40
  11   0  -3   -1.40    1.20
 -11   0   3   -0.60    1.30
  10   0  -3    3.40    1.50
 -10   0   3   -1.10    3.30
 -10   0   3    3.10    1.40
   9   0  -3    2.80    1.10
  -9   0   3    1.60    3.00
  -9   0   3    1.80    1.30
  -9   0   3    4.10    1.40
   8   0  -3    6.60    1.40
   8   0  -3    5.50    1.30
  -8   0   3    4.50    1.40
  -8   0   3    4.80    2.70
  -8   0   3    6.00    1.70
  -8   0   3    6.90    1.30
   7   0  -3   22.30    2.30
   7   0  -3   26.20    2.30
  -7   0   3   27.80    4.00
  -7   0   3   27.70    3.10
  -7   0   3   28.20    2.40
  -7   0   3   23.30    2.20
   6   0  -3   23.90    2.10
   6   0  -3   23.70    2.20
  -6   0   3   27.40    3.50
  -6   0   3   24.30    2.10
  -6   0   3   25.80    2.60
  -6   0   3   23.80    2.20
   5   0  -3   39.50    2.70
   5   0  -3   36.40    2.70
  -5   0   3   44.50    3.90
  -5   0   3   40.70    2.70
  -5   0   3   34.60    3.00
  -5   0   3   27.40    2.60
   4   0  -3  255.77   14.00
   4   0  -3  251.77   14.20
  -4   0   3  257.37   14.60
  -4   0   3  239.98   14.50
  -4   0   3  255.07   14.00
   3   0  -3   21.70    1.70
   3   0  -3   21.00    1.60
  -3   0   3   23.80    2.00
  -3   0   3   21.70    1.60
  -3   0   3   22.40    1.80
   2   0  -3  106.09    6.30
   2   0  -3  111.29    6.20
   2   0  -3  113.99    6.40
  -2   0   3  110.09    6.70
  -2   0   3  109.69    6.30
  -2   0   3  109.89    6.50
  -2   0   3  111.09    6.30
   1   0  -3  122.99    6.90
   1   0  -3  107.99    6.70
   1   0  -3  122.59    6.90
   1   0  -3  120.79    6.80
  -1   0   3  121.29    7.00
  -1   0   3  122.39    6.90
  -1   0   3  121.19    7.10
  -1   0   3  125.29    7.40
  -1   0   3  124.49    6.80
   0   0  -3   87.89    5.10
   0   0  -3   85.89    5.10
   0   0  -3   85.39    5.00
   0   0   3   95.39    4.90
   0   0   3   85.89    5.20
   0   0   3   83.29    5.80
   0   0   3   88.19    5.10
  -1   0  -3  337.37   18.90
  -1   0  -3  349.67   18.70
  -1   0  -3  342.37   20.00
  -1   0  -3  338.87   18.90
   1   0   3  345.47   19.00
   1   0   3  336.47   19.90
   1   0   3  356.06   18.60
  -2   0  -3  103.89    5.90
  -2   0  -3  107.29    6.10
  -2   0  -3   98.39    7.10
   2   0   3  103.59    7.20
   2   0   3   95.69    5.60
  -3   0  -3  209.88   11.80
  -3   0  -3  220.38   12.00
  -3   0  -3  208.18   13.40
   3   0   3  209.68   11.60
   3   0   3  207.58   13.50
  -4   0  -3    0.90    0.90
  -4   0  -3    0.40    0.50
  -4   0  -3    0.30    0.50
   4   0   3   -0.40    1.00
  -5   0  -3    0.80    0.80
  -5   0  -3    0.50    0.70
  -5   0  -3    1.40    1.30
  -6   0  -3    3.40    1.10
  -6   0  -3    2.50    1.80
  -7   0  -3   -0.70    0.90
  -7   0  -3    0.70    1.80
  -8   0  -3    9.70    3.20
  -9   0  -3    3.70    2.40
  -9   0  -3    5.40    1.60
  12  -1  -3    0.60    1.30
 -12   1   3    0.80    1.60
  11  -1  -3   -0.20    1.30
 -11   1   3    2.00    1.40
  10  -1  -3   10.70    2.10
 -10   1   3   -1.00    3.70
 -10   1   3   11.80    2.00
   9  -1  -3   88.69    6.20
   9  -1  -3   92.79    6.10
  -9   1   3   91.99    6.10
  -9   1   3   92.49    6.30
  -9   1   3   87.79    8.30
   8  -1  -3   10.00    1.70
   8  -1  -3   11.30    1.80
  -8   1   3    7.50    1.70
  -8   1   3    9.70    3.20
  -8   1   3   10.00    2.10
  -8   1   3    8.80    1.60
   7  -1  -3  143.39    8.80
   7  -1  -3  141.29    8.80
  -7   1   3  139.29    8.60
  -7   1   3  154.78   10.20
  -7   1   3  139.39    8.70
  -7   1   3  150.58    9.40
   6  -1  -3   10.50    1.40
   6  -1  -3    9.30    1.50
  -6   1   3   11.60    2.00
  -6   1   3    9.30    1.40
  -6   1   3   13.10    1.70
  -6   1   3    8.50    2.20
   5  -1  -3  259.17   14.60
   5  -1  -3  238.68   14.50
  -5   1   3  269.77   15.10
  -5   1   3  268.57   14.50
  -5   1   3  245.28   15.30
  -5   1   3  267.67   14.60
   4  -1  -3   -0.90    0.50
   4  -1  -3    0.50    0.50
  -4   1   3   -0.10    0.60
  -4   1   3    0.60    0.70
  -4   1   3    0.80    0.70
  -4   1   3    1.50    1.50
   3  -1  -3  567.64   30.40
   3  -1  -3  553.74   30.40
   3  -1  -3  538.95   30.50
  -3   1   3  552.94   30.50
  -3   1   3  581.64   30.90
  -3   1   3  535.55   30.90
  -3   1   3  565.94   30.40
   2  -1  -3  806.42   43.70
   2  -1  -3  802.22   43.80
   2  -1  -3  809.52   43.60
  -2   1   3  809.82   43.70
  -2   1   3  816.82   43.80
  -2   1   3  788.12   44.10
   1  -1  -3  265.27   14.00
   1  -1  -3  249.28   14.20
   1  -1  -3  259.67   14.20
   1  -1  -3  255.47   14.20
  -1   1   3  250.67   14.20
  -1   1   3  248.28   14.30
  -1   1   3  263.57   14.80
   0  -1  -3   68.99    4.00
   0  -1  -3   68.69    4.00
   0  -1  -3   65.59    3.90
   0   1   3   65.69    4.00
   0   1   3   59.39    4.70
  -1  -1  -3   35.70    2.50
  -1  -1  -3   35.20    2.50
  -1  -1  -3   37.10    2.30
  -1  -1  -3   36.70    3.50
   1   1   3   34.90    3.40
   1   1   3   38.80    2.60
  -2  -1  -3   78.39    4.70
  -2  -1  -3   80.49    4.50
  -2  -1  -3   80.99    4.90
  -2  -1  -3   69.89    5.80
   2   1   3   78.49    6.00
  -3  -1  -3    6.80    1.10
  -3  -1  -3    7.80    1.10
  -3  -1  -3    6.10    1.80
   3   1   3    4.40    1.80
  -4  -1  -3    1.70    0.90
  -4  -1  -3    1.10    1.30
  -4  -1  -3    2.80    0.80
   4   1   3    2.30    1.80
  -5  -1  -3   12.10    1.70
  -5  -1  -3   11.10    2.70
  -5  -1  -3   12.10    1.60
   5   1   3   15.70    3.50
  -6  -1  -3    3.50    1.20
  -6  -1  -3    4.90    2.10
  -7  -1  -3    2.00    1.20
  -7  -1  -3    1.80    1.90
  -8  -1  -3    1.40    1.40
  -8  -1  -3    1.90    2.10
  12  -2  -3    3.00    1.80
 -12   2   3    1.90    1.70
  11  -2  -3    0.40    1.20
 -11   2   3    2.10    1.50
 -11   2   3   -7.40    4.30
  10  -2  -3    7.20    2.00
 -10   2   3    8.20    1.80
 -10   2   3   -1.50    3.90
   9  -2  -3   12.40    1.90
   9  -2  -3    9.50    2.00
  -9   2   3    9.30    1.70
  -9   2   3    6.00    3.70
   8  -2  -3    8.20    1.70
   8  -2  -3    8.20    1.60
  -8   2   3    8.10    1.50
  -8   2   3   10.30    1.80
  -8   2   3    9.60    3.60
   7  -2  -3    0.30    0.60
   7  -2  -3    0.00    0.80
  -7   2   3    1.20    2.80
  -7   2   3   -0.10    0.80
  -7   2   3    0.70    0.90
   6  -2  -3   16.70    1.90
   6  -2  -3   15.10    1.70
   6  -2  -3   14.00    1.50
  -6   2   3   13.90    1.70
  -6   2   3    7.40    1.50
  -6   2   3   13.80    2.70
   5  -2  -3  210.98   12.70
   5  -2  -3  227.38   12.60
   5  -2  -3  228.78   12.50
  -5   2   3  225.38   12.60
  -5   2   3  209.88   13.40
   4  -2  -3   11.40    1.50
   4  -2  -3   10.60    1.30
   4  -2  -3   13.10    1.40
  -4   2   3   13.10    1.40
  -4   2   3   11.10    2.10
  -4   2   3   10.90    1.40
   3  -2  -3  134.89    8.00
   3  -2  -3  131.69    7.80
   3  -2  -3  131.19    7.90
  -3   2   3  129.09    8.00
  -3   2   3  150.58    8.00
  -3   2   3  140.09    8.50
   2  -2  -3  212.38   11.90
   2  -2  -3  213.48   12.10
   2  -2  -3  210.78   12.20
  -2   2   3  215.68   12.30
  -2   2   3  217.98   12.70
  -2   2   3  223.08   12.10
   1  -2  -3    8.10    1.00
   1  -2  -3    7.60    0.70
   1  -2  -3    6.70    1.00
   1  -2  -3    7.40    1.00
  -1   2   3    6.40    1.30
  -1   2   3    8.10    1.00
   0  -2  -3  451.25   24.60
   0  -2  -3  444.26   24.60
   0  -2  -3  446.36   24.60
   0   2   3  445.26   25.50
   0   2   3  452.05   24.70
  -1  -2  -3  162.28    8.90
  -1  -2  -3  149.69    9.10
  -1  -2  -3  158.08    9.10
  -1  -2  -3  158.48   10.30
   1   2   3  152.28   10.10
   1   2   3  158.98    9.20
  -2  -2  -3  154.08   10.30
  -2  -2  -3  159.88    9.00
  -2  -2  -3  153.78    9.10
  -2  -2  -3  153.68    8.80
   2   2   3  155.68   10.40
  -3  -2  -3   11.20    1.40
  -3  -2  -3    7.50    1.30
  -3  -2  -3   10.30    2.20
   3   2   3   10.20    2.40
  -4  -2  -3   25.50    2.40
  -4  -2  -3   27.00    2.30
  -4  -2  -3   23.20    3.50
   4   2   3   26.30    3.80
  -5  -2  -3   93.79    6.30
  -5  -2  -3   99.99    6.30
  -5  -2  -3   86.69    7.90
   5   2   3  116.99    8.40
  -6  -2  -3    4.20    1.30
  -6  -2  -3    1.20    1.20
  -6  -2  -3    2.80    2.00
  -7  -2  -3    1.30    1.20
  -7  -2  -3   -0.40    1.70
  -8  -2  -3   -0.70    1.30
  12  -3  -3   -1.50    1.10
 -12   3   3    1.00    1.60
  11  -3  -3    5.80    2.20
 -11   3   3    6.20    1.80
  10  -3  -3    3.60    1.50
 -10   3   3   -1.90    4.30
 -10   3   3    7.00    1.60
   9  -3  -3   32.20    3.40
   9  -3  -3   26.80    2.80
  -9   3   3   19.40    4.90
  -9   3   3   32.70    2.90
   8  -3  -3   79.89    5.40
   8  -3  -3   73.29    5.40
   8  -3  -3   77.89    5.40
  -8   3   3   80.99    5.30
  -8   3   3   71.49    5.30
  -8   3   3   76.99    7.90
   7  -3  -3    5.30    1.20
   7  -3  -3    4.70    1.20
   7  -3  -3    7.50    1.20
  -7   3   3    5.40    3.20
  -7   3   3    6.40    1.40
  -7   3   3    5.60    1.30
   6  -3  -3  118.89    6.90
   6  -3  -3  110.09    7.10
   6  -3  -3  119.19    7.30
  -6   3   3  120.59    7.10
  -6   3   3  115.39    7.10
  -6   3   3  104.39    8.20
   5  -3  -3    1.10    0.80
   5  -3  -3    0.90    0.70
   5  -3  -3    0.00    0.70
  -5   3   3    0.50    0.70
  -5   3   3    1.70    0.90
  -5   3   3    0.50    1.50
   4  -3  -3  101.89    6.00
   4  -3  -3   95.79    6.20
   4  -3  -3   99.19    6.10
  -4   3   3  100.09    6.10
  -4   3   3  102.59    6.80
  -4   3   3   98.09    6.10
   3  -3  -3   63.89    4.10
   3  -3  -3   60.59    4.20
   3  -3  -3   63.09    4.00
  -3   3   3   69.09    4.80
  -3   3   3   61.49    4.10
  -3   3   3   62.49    4.20
   2  -3  -3  493.75   26.80
   2  -3  -3  492.55   26.70
   2  -3  -3  494.85   27.00
   2  -3  -3  484.85   26.90
  -2   3   3  485.95   26.90
  -2   3   3  481.55   27.50
   1  -3  -3   99.39    6.20
   1  -3  -3   96.69    6.10
   1  -3  -3  108.19    6.30
   1  -3  -3  102.29    5.80
  -1   3   3  106.49    7.00
  -1   3   3  107.99    6.20
   0  -3  -3   30.90    2.40
   0  -3  -3   33.90    2.50
   0  -3  -3   32.30    2.40
   0   3   3   29.30    2.40
   0   3   3   28.50    3.10
  -1  -3  -3   21.80    1.80
  -1  -3  -3   22.50    2.00
  -1  -3  -3   21.40    1.90
   1   3   3   17.60    2.70
  -2  -3  -3   10.30    1.50
  -2  -3  -3   13.00    1.30
  -2  -3  -3   11.60    1.50
  -2  -3  -3    9.30    2.20
   2   3   3   10.80    2.40
  -3  -3  -3    8.30    1.50
  -3  -3  -3    7.60    2.30
  -3  -3  -3    9.30    1.50
   3   3   3    8.90    2.50
  -4  -3  -3   13.90    2.00
  -4  -3  -3   17.40    3.30
  -4  -3  -3   19.30    2.20
   4   3   3   20.90    3.20
  -6  -3  -3    8.30    1.70
  -6  -3  -3    5.80    2.50
  -6  -3  -3   10.90    1.90
  -7  -3  -3   -0.30    1.30
  12  -4  -3   -1.30    1.80
 -12   4   3    2.60    1.90
  11  -4  -3    2.80    1.60
 -11   4   3    1.90    1.60
  10  -4  -3    0.00    1.50
 -10   4   3    2.20    1.40
 -10   4   3   -8.10    4.10
   9  -4  -3    3.40    1.40
   9  -4  -3    3.10    1.40
  -9   4   3    2.30    1.40
  -9   4   3   -1.90    3.90
   8  -4  -3    8.50    1.90
   8  -4  -3    9.30    1.70
  -8   4   3    8.10    3.30
  -8   4   3    7.20    1.60
   7  -4  -3    2.20    1.30
   7  -4  -3    3.50    1.00
   7  -4  -3    2.60    1.00
  -7   4   3    2.50    1.10
  -7   4   3    3.00    1.20
  -7   4   3    3.90    2.60
   6  -4  -3   -0.60    0.90
   6  -4  -3   -0.90    0.80
   6  -4  -3   -0.20    0.70
  -6   4   3   -0.20    0.90
  -6   4   3   -0.10    1.90
  -6   4   3    0.30    0.80
   5  -4  -3   44.00    3.40
   5  -4  -3   45.90    3.20
   5  -4  -3   45.30    3.30
  -5   4   3   45.70    3.40
  -5   4   3   41.10    3.20
  -5   4   3   45.70    4.80
   4  -4  -3  117.89    7.50
   4  -4  -3  117.79    7.30
   4  -4  -3  118.69    7.20
  -4   4   3  137.59    8.40
  -4   4   3  115.69    7.30
  -4   4   3  119.69    7.40
   3  -4  -3    2.90    1.00
   3  -4  -3    3.90    1.00
   3  -4  -3    3.80    0.90
  -3   4   3    4.50    1.30
  -3   4   3    3.10    0.90
   2  -4  -3   81.79    4.80
   2  -4  -3   74.39    4.60
   2  -4  -3   76.19    4.90
   2  -4  -3   79.39    5.00
  -2   4   3   73.49    5.40
  -2   4   3   71.89    4.80
   1  -4  -3   51.29    3.60
   1  -4  -3   48.30    3.50
   1  -4  -3   51.79    3.70
  -1   4   3   55.19    4.40
  -1   4   3   55.19    3.60
   0  -4  -3   11.50    1.50
   0  -4  -3   14.00    1.60
   0  -4  -3   13.10    1.60
   0   4   3   11.80    1.60
   0   4   3   11.30    2.10
  -1  -4  -3   38.30    2.90
  -1  -4  -3   36.00    2.70
  -1  -4  -3   34.50    2.80
   1   4   3   34.50    3.80
  -2  -4  -3   -2.80    1.30
  -2  -4  -3   -0.50    0.80
  -2  -4  -3   -0.80    0.80
   2   4   3    0.50    1.30
  -3  -4  -3   46.80    5.10
  -3  -4  -3   49.80    4.00
  -3  -4  -3   54.69    4.00
   3   4   3   63.99    5.40
  -4  -4  -3   16.00    3.20
  -4  -4  -3   14.80    2.20
  -4  -4  -3   17.40    2.20
  -5  -4  -3   32.50    3.00
  -5  -4  -3   23.10    4.10
  -5  -4  -3   30.50    3.10
  -6  -4  -3   10.10    2.00
  -6  -4  -3   10.10    2.10
  -7  -4  -3    0.50    1.50
  -7  -4  -3   -0.30    2.30
  12  -5  -3   -0.60    2.00
 -12   5   3    1.90    2.10
  11  -5  -3   -1.40    1.70
 -11   5   3    2.10    1.70
  10  -5  -3   -1.40    1.60
  10  -5  -3    0.10    1.30
 -10   5   3   -8.50    4.10
 -10   5   3   -0.20    1.60
   9  -5  -3    4.60    1.70
   9  -5  -3    5.00    1.90
  -9   5   3   -0.40    4.00
  -9   5   3    7.70    1.80
   8  -5  -3   22.90    2.90
   8  -5  -3   24.30    2.80
  -8   5   3   19.10    2.50
  -8   5   3   12.70    4.30
   7  -5  -3   58.69    4.40
   7  -5  -3   60.29    4.50
   7  -5  -3   55.39    4.50
  -7   5   3   61.29    4.30
  -7   5   3   59.59    4.30
  -7   5   3   48.00    5.80
   6  -5  -3   25.20    2.60
   6  -5  -3   30.30    2.60
   6  -5  -3   29.70    2.80
  -6   5   3   23.50    4.00
  -6   5   3   32.20    2.70
  -6   5   3   30.30    2.70
   5  -5  -3    1.10    1.10
   5  -5  -3    1.20    0.90
   5  -5  -3    1.80    1.10
  -5   5   3    1.10    1.80
  -5   5   3    0.80    1.00
   4  -5  -3    8.30    1.40
   4  -5  -3    9.60    1.70
   4  -5  -3   10.40    1.50
  -4   5   3    8.80    1.40
  -4   5   3   10.90    2.00
   3  -5  -3   41.00    3.00
   3  -5  -3   39.40    3.00
   3  -5  -3   40.20    3.20
   3  -5  -3   43.00    3.20
  -3   5   3   43.30    3.90
  -3   5   3   41.40    3.10
   2  -5  -3    1.00    0.80
   2  -5  -3    1.50    0.90
   2  -5  -3    0.80    0.80
  -2   5   3    1.20    1.10
  -2   5   3    1.10    0.90
   1  -5  -3    0.90    0.80
   1  -5  -3   -0.50    0.60
   1  -5  -3    0.50    0.70
  -1   5   3   -0.60    1.10
  -1   5   3    1.00    0.90
   0  -5  -3    0.50    0.70
   0  -5  -3    0.50    0.90
   0  -5  -3   -0.40    0.90
   0   5   3    0.20    0.80
   0   5   3    0.10    1.10
  -1  -5  -3    6.30    1.40
  -1  -5  -3    7.20    1.60
  -1  -5  -3    5.60    1.30
   1   5   3    9.10    2.00
  -2  -5  -3    1.60    1.10
  -4  -5  -3   10.20    2.00
  -4  -5  -3    5.70    1.60
  -5  -5  -3   -0.50    1.40
  -5  -5  -3    2.60    1.40
  -6  -5  -3    1.70    1.20
  -6  -5  -3   -0.80    1.40
  11  -6  -3    0.30    2.00
  10  -6  -3    0.10    1.70
  10  -6  -3    1.40    1.50
   9  -6  -3   -0.50    1.50
   9  -6  -3   -2.10    1.20
  -9   6   3   -5.70    3.60
  -9   6   3   -0.70    1.30
   8  -6  -3    2.60    1.30
   8  -6  -3    1.50    1.30
  -8   6   3    0.70    1.30
  -8   6   3   -0.50    3.30
   7  -6  -3   16.00    2.40
   7  -6  -3   15.50    2.50
  -7   6   3   12.50    2.00
  -7   6   3    7.70    3.40
   6  -6  -3    6.60    1.60
   6  -6  -3    7.00    1.70
   6  -6  -3    9.50    1.70
  -6   6   3    7.80    1.70
  -6   6   3    9.00    2.80
   5  -6  -3    7.10    1.70
   5  -6  -3    6.90    1.40
   5  -6  -3    7.30    1.50
  -5   6   3   11.30    2.30
  -5   6   3    6.00    1.40
   4  -6  -3    6.90    1.40
   4  -6  -3    7.20    1.70
   4  -6  -3    9.20    1.60
   4  -6  -3    9.00    1.50
  -4   6   3   10.20    2.10
  -4   6   3    7.60    1.40
   3  -6  -3    4.80    1.30
   3  -6  -3    4.80    1.30
   3  -6  -3    6.30    1.30
  -3   6   3    4.60    1.20
  -3   6   3    6.40    1.80
   2  -6  -3   10.70    1.80
   2  -6  -3   13.30    1.70
   2  -6  -3    9.60    1.70
  -2   6   3   12.90    2.40
  -2   6   3   10.40    1.60
   1  -6  -3   25.30    2.50
   1  -6  -3   24.50    2.70
   1  -6  -3   17.70    2.30
  -1   6   3   27.80    3.10
  -1   6   3   19.70    2.30
   0  -6  -3   11.30    1.80
   0  -6  -3    9.20    1.80
   0  -6  -3   11.00    1.90
  -1  -6  -3   16.40    2.30
  -1  -6  -3   17.00    2.30
  -1  -6  -3   21.50    2.60
  -2  -6  -3    9.00    2.60
  -2  -6  -3    9.60    1.90
  -2  -6  -3   13.00    2.00
  -3  -6  -3   -0.60    1.10
  -3  -6  -3   -1.60    1.30
  -4  -6  -3    3.70    1.70
  -4  -6  -3    4.30    1.60
  -5  -6  -3    4.30    2.00
  -5  -6  -3    3.50    1.60
  11  -7  -3   -0.70    1.50
  10  -7  -3    2.70    1.60
  10  -7  -3    1.80    1.70
 -10   7   3   -2.10    3.10
   9  -7  -3   -1.80    1.30
   9  -7  -3    1.60    1.70
  -9   7   3   -4.20    3.30
   8  -7  -3    4.30    1.80
   8  -7  -3    3.50    1.80
  -8   7   3    5.60    3.10
   7  -7  -3   -0.40    1.00
   7  -7  -3    2.20    1.20
  -7   7   3    7.60    2.40
   6  -7  -3    1.20    1.30
   6  -7  -3    1.50    1.20
   6  -7  -3    2.70    1.60
   5  -7  -3   -0.80    1.00
   5  -7  -3   -0.30    1.20
   5  -7  -3    0.00    1.00
   4  -7  -3   38.00    3.20
   4  -7  -3   38.70    3.30
   4  -7  -3   26.30    3.30
  -4   7   3   33.60    3.00
   3  -7  -3   18.00    2.10
   3  -7  -3   16.60    2.30
   3  -7  -3   20.90    2.70
  -3   7   3   15.10    2.10
   2  -7  -3    9.10    1.70
   2  -7  -3    9.40    2.10
   2  -7  -3    6.70    1.40
  -2   7   3    8.10    1.70
   1  -7  -3   74.69    5.80
   1  -7  -3   72.39    5.50
   1  -7  -3   73.69    5.50
  -1   7   3   97.59    6.40
  -1   7   3   73.39    5.40
   0  -7  -3   17.80    2.50
   0  -7  -3   14.60    2.40
   0  -7  -3   16.30    2.30
  -1  -7  -3   32.50    3.60
  -1  -7  -3   34.00    3.20
  -2  -7  -3   31.00    3.50
  -2  -7  -3   33.70    3.30
  -3  -7  -3    4.00    1.70
  -3  -7  -3    7.00    2.20
  -4  -7  -3   12.70    2.40
  -4  -7  -3   10.40    2.50
  10  -8  -3    0.30    1.70
  10  -8  -3    2.00    1.80
 -10   8   3   -3.20    3.50
   9  -8  -3    0.50    1.90
   9  -8  -3    2.90    1.90
  -9   8   3    4.60    2.80
   8  -8  -3    0.00    1.60
   8  -8  -3    0.80    1.60
  -8   8   3    4.70    1.80
   7  -8  -3    4.20    1.70
   5  -8  -3    7.30    2.10
   0  -8  -3   -0.10    1.50
   0  -8  -3    2.50    1.60
  -1  -8  -3   10.30    2.20
  -2  -8  -3   -0.20    1.80
  -3  -8  -3    6.60    3.00
   9  -9  -3    3.80    2.10
   9  -9  -3    3.00    1.80
   2  -9  -3    5.90    1.90
   2  -9  -3    3.20    1.60
   1  -9  -3    2.50    1.50
   1  -9  -3   -1.20    1.50
   0  -9  -3    4.50    2.20
   0  -9  -3    1.40    1.70
  -1  -9  -3    2.10    2.10
   4 -10  -3    0.80    2.10
   4 -10  -3    2.60    1.90
   3 -10  -3    3.90    2.40
   3 -10  -3    4.40    1.90
   2 -10  -3    5.60    2.20
   2 -10  -3    6.50    2.60
   1 -13   4   -0.80    1.90
  -3 -12   4    5.00    2.00
  -3 -12   4   -0.80    1.70
  -2 -12   4   -4.90    1.40
  -2 -12   4   -1.80    1.70
  -1 -12   4   -0.30    1.80
   0 -12   4   -0.90    1.60
   0 -12   4   -0.80    1.70
   1 -12   4    2.00    1.70
   1 -12   4   -0.30    1.20
   2 -12   4    3.70    2.20
   2 -12   4    4.50    2.00
   3 -12   4    1.60    1.80
   3 -12   4    1.00    1.80
   4 -12   4    3.40    2.10
   4 -12   4    3.50    2.00
   5 -12   4    0.80    1.80
   5 -12   4    0.30    2.00
  -5 -11   4    3.40    2.20
  -5 -11   4    3.70    2.10
  -4 -11   4    1.20    1.90
  -4 -11   4   -0.40    1.60
  -3 -11   4   -2.20    1.30
  -3 -11   4   -0.30    1.70
  -2 -11   4    1.00    1.50
  -2 -11   4   -0.60    1.20
  -1 -11   4    1.50    1.70
  -1 -11   4   -1.40    1.10
   0 -11   4    9.00    1.90
   0 -11   4    7.30    2.20
   1 -11   4   11.30    2.10
   1 -11   4   11.20    2.30
   2 -11   4   27.00    3.60
   2 -11   4   21.00    3.00
   3 -11   4    5.10    2.00
   3 -11   4    4.20    1.80
   4 -11   4    2.70    1.70
   4 -11   4    2.30    1.70
   5 -11   4    1.10    1.80
   5 -11   4   -0.50    1.50
   6 -11   4    0.50    1.80
  -6 -10   4    1.00    2.00
  -6 -10   4    2.60    2.00
  -5 -10   4    3.00    2.00
  -5 -10   4    2.90    1.80
  -4 -10   4    1.70    1.40
  -4 -10   4    6.90    1.90
  -3 -10   4   -2.00    1.10
  -3 -10   4    0.20    1.10
  -3 -10   4    0.00    1.50
  -2 -10   4    0.90    1.00
  -2 -10   4   -0.10    1.20
  -2 -10   4   -1.00    1.30
  -1 -10   4    1.20    1.10
  -1 -10   4    3.00    1.60
  -1 -10   4    0.60    1.20
   0 -10   4   35.10    3.20
   0 -10   4   36.30    3.60
   1 -10   4   -1.40    1.10
   1 -10   4    0.00    1.30
   2 -10   4   35.80    3.50
   2 -10   4   38.20    3.60
   3 -10   4    0.50    1.00
   3 -10   4    0.00    1.30
   4 -10   4    1.40    1.50
   4 -10   4    1.60    1.30
   5 -10   4   -1.10    1.50
   6 -10   4   -0.10    1.50
   7 -10   4    3.20    2.10
  -7  -9   4    2.90    1.90
  -6  -9   4   -3.20    1.20
  -6  -9   4   -2.10    1.30
  -5  -9   4    0.40    1.60
  -5  -9   4    5.20    1.80
   4   9  -4    4.30    1.20
  -4  -9   4    4.50    1.90
  -4  -9   4    3.10    1.60
  -4  -9   4    5.40    1.40
  -3  -9   4   53.39    4.40
  -3  -9   4   45.70    4.00
  -3  -9   4   49.70    3.70
  -2  -9   4   14.50    2.50
  -2  -9   4   16.30    2.20
  -2  -9   4   16.80    2.10
  -1  -9   4    2.10    1.10
  -1  -9   4    0.40    1.00
  -1  -9   4    0.60    0.90
   0  -9   4   83.99    5.40
   0  -9   4   74.89    5.60
   1  -9   4   58.89    4.30
   1  -9   4   52.99    4.30
   2  -9   4   16.00    2.40
   2  -9   4   17.90    2.40
  -3   9  -4    8.90    4.60
   3  -9   4   20.10    2.60
   3  -9   4   21.50    2.60
   4  -9   4    1.30    1.20
   4  -9   4    1.40    1.40
  -5   9  -4   -4.90    3.00
   5  -9   4    2.50    1.50
   6  -9   4    0.10    1.00
  -7   9  -4    8.80    3.80
   7  -9   4   14.30    2.60
  -8   9  -4   -2.80    3.00
   8  -9   4    5.60    2.30
  -8  -8   4    4.90    2.00
  -7  -8   4    2.90    1.80
  -7  -8   4    1.50    1.60
  -6  -8   4    1.70    1.60
  -6  -8   4    1.40    1.50
   5   8  -4    0.80    0.80
  -5  -8   4    2.80    1.50
  -5  -8   4   -0.70    0.90
  -5  -8   4    2.90    1.60
   4   8  -4   71.59    4.60
  -4  -8   4   71.79    4.90
  -4  -8   4   76.59    5.20
  -4  -8   4   69.29    5.30
  -3  -8   4   29.50    3.00
  -3  -8   4   32.00    2.60
  -3  -8   4   32.60    3.00
  -2  -8   4   52.39    4.40
  -2  -8   4   63.89    4.20
  -2  -8   4   61.19    4.00
  -1  -8   4    6.70    1.30
  -1  -8   4    6.40    1.20
  -1  -8   4    5.80    1.50
   0  -8   4   10.00    1.70
   0  -8   4   11.40    1.40
   0  -8   4    9.80    1.50
   1  -8   4    2.50    1.00
   1  -8   4    2.20    1.10
  -2   8  -4  117.79    8.70
   2  -8   4  122.09    7.60
   2  -8   4  113.39    7.40
  -3   8  -4   -0.50    2.20
   3  -8   4    2.80    1.10
   3  -8   4    5.20    1.40
  -4   8  -4  233.28   15.00
   4  -8   4  210.68   13.10
   4  -8   4  227.28   13.40
  -5   8  -4   25.60    4.30
   5  -8   4   33.70    3.20
  -6   8  -4    3.60    3.00
   6  -8   4    8.10    2.00
  -7   8  -4   18.30    4.50
   7  -8   4   19.60    3.00
  -8   8  -4    0.00    3.20
   8  -8   4    0.10    1.70
   9  -8   4   10.10    2.60
  -9  -7   4    2.10    2.30
  -9  -7   4    1.20    1.80
  -8  -7   4    1.40    1.30
  -7  -7   4   -0.30    1.30
  -7  -7   4    0.80    1.40
   6   7  -4    0.40    0.80
  -6  -7   4   -0.30    0.90
  -6  -7   4    0.40    1.30
  -6  -7   4    1.40    1.10
   5   7  -4   18.70    1.90
  -5  -7   4   18.40    2.60
  -5  -7   4   20.70    2.30
  -5  -7   4   25.20    2.70
   4   7  -4   -0.20    0.40
  -4  -7   4    0.20    0.60
  -4  -7   4    0.30    1.10
  -4  -7   4   -0.50    1.00
  -3  -7   4   70.59    4.60
  -3  -7   4   64.89    4.30
  -3  -7   4   63.29    4.70
  -2  -7   4    0.90    0.80
  -2  -7   4    1.00    0.80
  -2  -7   4    0.90    0.80
  -1  -7   4    7.70    1.20
  -1  -7   4    4.80    1.30
  -1  -7   4    6.30    1.10
   0  -7   4   30.40    2.40
   0  -7   4   28.20    2.10
   0  -7   4   26.20    2.40
  -1   7  -4    2.40    1.70
   1  -7   4    2.90    1.00
   1  -7   4    2.00    0.90
  -2   7  -4   14.30    2.40
   2  -7   4   11.40    1.70
  -3   7  -4  175.78   11.30
   3  -7   4  168.38   10.10
   3  -7   4  157.48    9.90
  -4   7  -4    3.10    1.70
   4  -7   4    0.70    0.90
   4  -7   4    2.90    1.20
  -5   7  -4  119.59    9.10
   5  -7   4  110.49    7.50
  -6   7  -4   -0.70    1.70
   6  -7   4    0.10    1.20
  -7   7  -4    3.60    2.40
   7  -7   4    4.20    1.70
  -8   7  -4    1.20    2.50
   8  -7   4    2.50    1.60
  -9   7  -4   13.00    4.30
 -10  -6   4    1.70    1.40
 -10  -6   4   -2.40    1.60
  -9  -6   4    1.10    1.60
  -9  -6   4    0.20    1.10
  -8  -6   4    0.00    1.20
  -8  -6   4   -0.10    1.40
  -8  -6   4    3.50    2.90
   7   6  -4   -0.80    0.70
  -7  -6   4   -0.60    0.90
  -7  -6   4    1.20    0.90
  -7  -6   4   -0.50    1.20
  -7  -6   4    0.00    1.20
   6   6  -4    1.10    0.80
  -6  -6   4    0.20    1.10
  -6  -6   4    1.60    0.80
  -6  -6   4    1.70    1.10
  -6  -6   4    0.10    0.90
   5   6  -4    1.80    0.70
  -5  -6   4    2.60    0.90
  -5  -6   4    0.80    1.10
  -5  -6   4    2.30    0.80
  -5  -6   4    0.20    0.90
   4   6  -4   20.90    1.80
  -4  -6   4   20.50    2.20
  -4  -6   4   19.70    2.40
  -4  -6   4   23.00    2.00
  -4  -6   4   20.10    1.70
  -3  -6   4    7.30    0.90
  -3  -6   4    6.60    1.30
  -3  -6   4    7.00    1.10
  -3  -6   4    9.60    1.50
  -2  -6   4   21.60    1.90
  -2  -6   4   24.20    2.20
  -2  -6   4   22.90    1.90
  -1  -6   4   10.70    1.30
  -1  -6   4   14.40    1.50
  -1  -6   4   14.60    1.70
   0   6  -4    7.30    1.40
   0  -6   4    7.40    1.30
   0  -6   4   10.10    1.30
   0  -6   4    9.60    1.10
  -1   6  -4   33.10    3.00
   1  -6   4   32.20    2.50
   1  -6   4   30.30    2.50
   1  -6   4   29.40    2.10
  -2   6  -4   40.70    3.70
   2  -6   4   40.00    3.00
   2  -6   4   36.60    2.90
  -3   6  -4   45.50    4.40
   3  -6   4   43.10    3.20
   3  -6   4   45.50    3.30
  -4   6  -4   52.39    5.10
   4  -6   4   52.79    3.90
  -5   6  -4   25.00    3.80
   5  -6   4   23.70    2.70
  -6   6  -4    0.70    1.60
   6  -6   4    1.90    1.20
  -7   6  -4    2.10    2.00
   7  -6   4    3.50    1.40
  -8   6  -4    0.80    1.90
   8  -6   4    1.80    1.50
  -9   6  -4    3.10    2.30
 -11  -5   4    0.40    1.50
 -11  -5   4    3.80    2.10
 -10  -5   4    4.30    1.90
 -10  -5   4    2.90    1.50
  -9  -5   4   29.50    3.60
  -9  -5   4   38.30    3.20
   8   5  -4    4.20    1.20
  -8  -5   4    3.10    1.30
  -8  -5   4    5.30    1.80
  -8  -5   4    7.60    1.50
   7   5  -4  105.99    6.80
  -7  -5   4  117.39    6.90
  -7  -5   4  111.19    7.10
  -7  -5   4  120.79    7.30
  -7  -5   4  100.49    7.40
   6   5  -4   18.50    1.90
  -6  -5   4   16.80    2.40
  -6  -5   4   17.90    2.10
  -6  -5   4   16.90    1.80
  -6  -5   4   16.90    2.20
   5   5  -4   98.49    6.00
  -5  -5   4  103.29    6.60
  -5  -5   4  100.19    6.00
  -5  -5   4   98.19    6.20
  -5  -5   4   97.99    6.30
   4   5  -4  210.68   11.40
  -4  -5   4  201.48   11.90
  -4  -5   4  191.58   11.50
  -4  -5   4  195.58   11.20
  -4  -5   4  199.48   11.50
  -3  -5   4  110.59    7.00
  -3  -5   4  114.29    6.40
  -3  -5   4  116.49    6.70
  -3  -5   4  107.59    6.70
  -2  -5   4  127.09    7.30
  -2  -5   4  137.49    7.70
  -2  -5   4  132.79    8.00
  -2  -5   4  130.79    7.70
   1   5  -4  192.88   10.50
  -1  -5   4  178.98   10.40
  -1  -5   4  180.38   10.30
  -1  -5   4  175.58   10.60
   0   5  -4  159.28    9.60
   0  -5   4  161.38    9.20
   0  -5   4  158.28    9.30
   0  -5   4  158.38    9.00
  -1   5  -4    0.30    0.20
  -1   5  -4    0.10    0.60
   1  -5   4    1.00    0.40
   1  -5   4    0.50    0.50
   1  -5   4    0.00    0.50
  -2   5  -4  166.18   10.70
  -2   5  -4  166.08    9.20
   2  -5   4  168.98    9.60
   2  -5   4  161.58    9.60
  -3   5  -4    0.50    0.50
  -3   5  -4    0.90    1.10
   3  -5   4    1.70    0.70
   3  -5   4    1.10    0.80
  -4   5  -4   -0.90    0.50
  -4   5  -4   -0.40    1.10
   4  -5   4    0.00    0.60
  -5   5  -4    1.50    1.60
  -5   5  -4    0.80    0.80
   5  -5   4    2.90    1.00
  -6   5  -4    1.40    1.70
   6  -5   4    2.00    1.10
  -7   5  -4    0.20    1.30
   7  -5   4    0.00    1.10
  -8   5  -4    2.90    2.10
   8  -5   4    0.50    1.90
  -9   5  -4    3.10    2.30
 -11  -4   4    0.00    1.60
 -11  -4   4    0.10    1.30
  10   4  -4    2.80    1.40
 -10  -4   4    2.00    1.60
 -10  -4   4    0.50    1.30
   9   4  -4    2.70    1.20
  -9  -4   4    3.00    1.60
  -9  -4   4    5.00    1.50
   8   4  -4    1.30    1.00
  -8  -4   4    0.70    1.00
  -8  -4   4    0.10    1.30
  -8  -4   4    3.00    1.40
   7   4  -4   21.20    2.20
  -7  -4   4   19.90    2.40
  -7  -4   4   22.00    2.10
  -7  -4   4   18.60    2.60
   6   4  -4    1.80    0.80
  -6  -4   4    1.10    0.80
  -6  -4   4   -0.10    1.00
  -6  -4   4    1.20    0.90
  -6  -4   4    0.80    0.70
   5   4  -4    3.00    0.70
  -5  -4   4    3.20    0.90
  -5  -4   4    2.70    1.00
  -5  -4   4    3.00    0.80
  -5  -4   4    2.60    1.00
   4   4  -4    0.20    0.40
  -4  -4   4    1.00    0.50
  -4  -4   4    1.10    0.70
  -4  -4   4    1.00    0.60
  -4  -4   4    0.90    0.90
   3   4  -4    8.40    1.00
  -3  -4   4    9.10    1.10
  -3  -4   4    9.90    0.90
  -3  -4   4   10.30    1.30
  -3  -4   4    9.10    1.40
   2   4  -4  167.48    9.50
  -2  -4   4  166.78    9.40
  -2  -4   4  180.48    9.60
  -2  -4   4  165.38    9.90
  -2  -4   4  165.98    9.60
   1   4  -4   23.40    2.10
  -1  -4   4   24.10    1.50
  -1  -4   4   25.00    1.80
  -1  -4   4   23.60    2.00
  -1  -4   4   24.80    1.80
   0   4  -4   55.09    3.20
   0   4  -4   55.49    4.10
   0  -4   4   53.89    3.40
   0  -4   4   59.19    3.20
   0  -4   4   51.49    3.40
   0  -4   4   55.19    3.60
  -1   4  -4   -0.70    0.30
  -1   4  -4    0.30    0.70
   1  -4   4    0.20    0.50
   1  -4   4   -0.40    0.40
   1  -4   4    0.10    0.30
  -2   4  -4    3.60    0.60
  -2   4  -4    4.20    1.30
   2  -4   4    3.50    0.80
   2  -4   4    4.00    0.70
  -3   4  -4   49.00    3.10
  -3   4  -4   44.80    4.50
   3  -4   4   47.70    3.30
  -4   4  -4   43.60    3.00
  -4   4  -4   46.00    4.70
   4  -4   4   43.70    3.20
  -5   4  -4   10.90    1.50
  -5   4  -4   12.10    2.70
   5  -4   4   11.20    1.60
  -6   4  -4   13.30    3.10
  -6   4  -4   12.50    1.70
   6  -4   4   17.60    2.10
  -7   4  -4   10.00    1.70
  -7   4  -4    9.00    2.60
  -8   4  -4   -0.10    1.40
  -8   4  -4   -0.90    1.00
  -9   4  -4   -0.60    1.20
  -9   4  -4    0.20    1.50
  11   3  -4    0.90    1.40
 -11  -3   4    3.20    1.90
 -11  -3   4    2.40    1.60
  10   3  -4    8.90    1.90
 -10  -3   4   10.50    2.00
 -10  -3   4   14.30    2.40
   9   3  -4    1.50    1.20
  -9  -3   4    2.80    1.50
  -9  -3   4    0.80    1.10
   8   3  -4   53.79    4.10
   8   3  -4   48.60    3.90
  -8  -3   4   52.59    4.50
  -8  -3   4   55.39    3.90
  -8  -3   4   57.99    4.20
   7   3  -4    0.70    0.60
  -7  -3   4    1.60    1.00
  -7  -3   4   -0.10    1.10
  -7  -3   4    0.50    0.80
   6   3  -4   77.39    5.00
  -6  -3   4   84.49    5.30
  -6  -3   4   75.09    5.20
  -6  -3   4   80.09    5.60
  -6  -3   4   83.49    5.00
   5   3  -4  127.09    7.70
  -5  -3   4  134.69    7.90
  -5  -3   4  130.99    7.90
  -5  -3   4  133.99    7.60
  -5  -3   4  121.89    7.80
  -5  -3   4  147.69    8.40
   4   3  -4  100.79    5.80
  -4  -3   4   94.09    6.30
  -4  -3   4   93.29    5.70
  -4  -3   4   89.39    5.90
  -4  -3   4  108.09    5.70
  -4  -3   4   96.59    6.00
   3   3  -4  436.36   23.40
  -3  -3   4  433.66   23.50
  -3  -3   4  404.46   23.50
  -3  -3   4  414.16   23.80
  -3  -3   4  458.35   23.40
  -3  -3   4  406.96   23.30
   2   3  -4   42.20    2.80
  -2  -3   4   41.00    2.60
  -2  -3   4   40.30    2.70
  -2  -3   4   36.90    2.70
  -2  -3   4   37.40    2.40
   1   3  -4    6.60    1.20
  -1  -3   4    7.30    1.20
  -1  -3   4    6.30    0.80
  -1  -3   4    8.70    1.00
  -1  -3   4    7.40    0.70
   0   3  -4   15.70    1.90
   0   3  -4   16.40    1.20
   0  -3   4   16.90    1.30
   0  -3   4   16.20    1.30
   0  -3   4   16.30    1.20
   0  -3   4   14.70    1.90
  -1   3  -4   28.00    1.90
  -1   3  -4   31.10    3.00
  -1   3  -4   28.90    1.80
   1  -3   4   30.40    2.10
   1  -3   4   27.90    3.00
  -2   3  -4    8.30    1.00
  -2   3  -4    7.80    0.70
  -2   3  -4    7.70    1.80
   2  -3   4    8.30    1.00
  -3   3  -4    0.70    0.60
  -3   3  -4    2.10    1.20
   3  -3   4    1.80    0.60
  -4   3  -4   16.90    3.00
  -4   3  -4   21.70    1.80
   4  -3   4   22.00    1.90
  -5   3  -4    8.90    2.40
  -5   3  -4    9.30    1.40
   5  -3   4    7.70    1.30
  -6   3  -4    6.00    2.10
  -6   3  -4    5.90    1.30
  -7   3  -4    7.40    2.70
  -7   3  -4    7.70    1.60
  -8   3  -4   -0.60    1.60
  -8   3  -4    2.60    1.30
  -9   3  -4    0.60    1.70
  -9   3  -4    0.40    1.30
  12   2  -4    2.20    1.70
 -12  -2   4    8.70    2.10
  11   2  -4   -0.50    1.20
 -11  -2   4   -0.50    1.00
 -11  -2   4   -0.10    1.60
  10   2  -4    0.00    1.20
 -10  -2   4    0.30    1.20
 -10  -2   4    0.60    1.30
   9   2  -4   -0.20    1.00
   9   2  -4    2.80    1.20
  -9  -2   4    1.00    1.10
  -9  -2   4   -0.30    1.30
  -9  -2   4    2.80    1.40
   8   2  -4   -1.40    0.70
   8   2  -4   -0.50    0.80
  -8  -2   4   -0.10    0.90
  -8  -2   4   -0.20    0.90
  -8  -2   4    0.70    1.30
   7   2  -4    3.00    0.80
   7   2  -4    1.80    1.00
  -7  -2   4    2.40    1.10
  -7  -2   4    3.00    1.10
  -7  -2   4    2.20    2.20
  -7  -2   4    2.30    0.90
   6   2  -4   10.50    1.60
   6   2  -4   14.30    1.60
  -6  -2   4   13.70    2.10
  -6  -2   4   14.60    1.50
  -6  -2   4   14.20    1.80
  -6  -2   4   11.00    2.20
   5   2  -4    3.60    0.90
   5   2  -4    4.80    0.90
  -5  -2   4    3.30    1.30
  -5  -2   4    3.10    1.10
  -5  -2   4    3.70    1.00
  -5  -2   4    5.20    0.80
  -5  -2   4    3.90    1.00
   4   2  -4    4.10    0.70
  -4  -2   4    4.50    0.80
  -4  -2   4    4.70    0.90
  -4  -2   4    3.20    0.70
  -4  -2   4    4.60    1.10
   3   2  -4   29.90    2.00
  -3  -2   4   31.60    2.60
  -3  -2   4   28.90    2.10
  -3  -2   4   28.10    2.30
  -3  -2   4   31.90    2.30
  -3  -2   4   31.00    2.10
   2   2  -4  129.89    7.20
  -2  -2   4  126.59    7.20
  -2  -2   4  129.09    7.60
  -2  -2   4  126.89    7.40
  -2  -2   4  117.79    7.60
  -2  -2   4  131.39    7.30
   1   2  -4    7.80    0.70
   1   2  -4    8.10    1.30
  -1  -2   4    6.90    0.80
  -1  -2   4    8.90    1.20
  -1  -2   4    5.60    1.10
  -1  -2   4    6.30    0.90
  -1  -2   4    7.80    0.80
   0   2  -4  103.99    6.80
   0   2  -4  103.99    5.90
   0   2  -4  100.89    5.90
   0  -2   4  103.69    6.10
   0  -2   4  107.09    6.00
   0  -2   4  101.09    6.90
   0  -2   4  102.29    6.00
  -1   2  -4    6.20    0.80
  -1   2  -4    4.70    1.40
  -1   2  -4    7.10    0.70
   1  -2   4    7.10    0.80
   1  -2   4    4.90    1.30
   1  -2   4    5.60    0.80
   1  -2   4    5.40    0.70
  -2   2  -4   18.80    2.70
  -2   2  -4   20.00    1.40
  -2   2  -4   21.10    1.30
  -2   2  -4   19.00    1.60
   2  -2   4   20.50    1.60
   2  -2   4   19.10    2.80
   2  -2   4   22.10    1.50
  -3   2  -4    0.30    0.80
  -3   2  -4    0.50    0.50
  -3   2  -4    0.60    0.40
   3  -2   4    0.90    0.50
   3  -2   4   -0.20    1.10
  -4   2  -4   11.70    2.50
  -4   2  -4   12.70    1.60
   4  -2   4   13.80    1.40
  -5   2  -4    0.20    1.30
  -5   2  -4    0.90    0.80
  -6   2  -4    3.50    2.00
  -6   2  -4    2.40    1.10
  -7   2  -4    0.10    1.40
  -7   2  -4   -0.70    1.00
  -8   2  -4    0.70    1.30
  -8   2  -4   -0.70    1.70
  -9   2  -4    0.50    2.20
  -9   2  -4   -1.30    1.30
  12   1  -4    1.20    1.60
 -12  -1   4   -0.10    1.40
  11   1  -4    9.60    2.10
 -11  -1   4   15.00    2.30
  10   1  -4    0.90    1.30
 -10  -1   4    0.30    1.20
 -10  -1   4    0.20    1.30
   9   1  -4    1.30    1.10
   9   1  -4    1.00    1.10
  -9  -1   4   -5.60    2.60
  -9  -1   4   -1.10    1.20
  -9  -1   4   -1.40    1.00
  -9  -1   4   -0.20    1.00
   8   1  -4   -0.60    0.80
   8   1  -4   -0.20    0.80
  -8  -1   4    1.50    1.30
  -8  -1   4    0.40    1.00
  -8  -1   4    0.10    0.90
  -8  -1   4   -0.30    2.50
   7   1  -4   14.30    1.80
   7   1  -4   16.30    2.00
  -7  -1   4   14.00    1.90
  -7  -1   4   12.90    2.70
  -7  -1   4   12.00    2.10
  -7  -1   4   14.30    1.80
   6   1  -4    0.20    0.60
   6   1  -4    0.00    0.60
  -6  -1   4    2.10    2.00
  -6  -1   4   -0.80    0.60
  -6  -1   4    0.40    0.70
  -6  -1   4    0.80    0.70
   5   1  -4  167.18   10.10
   5   1  -4  176.78    9.90
  -5  -1   4  164.38   10.30
  -5  -1   4  181.08   10.60
  -5  -1   4  171.98    9.90
   4   1  -4   12.50    1.50
   4   1  -4    9.90    1.20
  -4  -1   4   11.20    1.30
  -4  -1   4   12.40    1.50
  -4  -1   4   10.70    1.50
  -4  -1   4   12.60    1.30
   3   1  -4  221.68   12.30
   3   1  -4  217.78   12.00
  -3  -1   4  205.58   12.60
  -3  -1   4  224.68   12.40
  -3  -1   4  209.68   12.10
  -3  -1   4  223.28   12.30
  -3  -1   4  204.88   12.10
   2   1  -4  101.99    5.70
   2   1  -4   95.09    5.90
  -2  -1   4   95.29    5.90
  -2  -1   4  104.39    6.20
  -2  -1   4   98.79    5.70
  -2  -1   4   92.79    5.70
  -2  -1   4  102.69    6.30
   1   1  -4  157.68    9.10
   1   1  -4  160.78    9.00
   1   1  -4  169.48    8.90
   1   1  -4  159.98    9.00
  -1  -1   4  156.88    9.10
  -1  -1   4  160.48    8.90
  -1  -1   4  163.78    9.80
  -1  -1   4  149.88    9.30
  -1  -1   4  161.48    9.10
   0   1  -4   39.20    3.30
   0   1  -4   35.00    2.30
   0   1  -4   36.70    2.40
   0   1  -4   35.00    2.40
   0  -1   4   36.30    2.50
   0  -1   4   40.30    2.30
   0  -1   4   37.10    2.50
   0  -1   4   32.30    3.10
   0  -1   4   34.10    2.50
  -1   1  -4   18.70    1.20
  -1   1  -4   16.60    1.40
  -1   1  -4   15.30    1.40
  -1   1  -4   15.20    2.30
   1  -1   4   15.70    2.30
   1  -1   4   17.50    1.60
   1  -1   4   18.30    1.20
  -2   1  -4   20.70    1.60
  -2   1  -4   19.70    2.80
  -2   1  -4   20.30    1.70
   2  -1   4   22.50    2.80
   2  -1   4   20.50    1.50
  -3   1  -4   26.70    1.90
  -3   1  -4   24.70    3.30
  -3   1  -4   26.30    2.10
   3  -1   4   24.20    3.40
   3  -1   4   26.10    2.00
  -4   1  -4    0.90    1.30
  -4   1  -4    1.20    0.90
  -4   1  -4    1.10    0.80
   4  -1   4    1.10    1.60
  -5   1  -4   15.50    3.20
  -5   1  -4   15.40    2.00
  -6   1  -4    0.50    0.70
  -6   1  -4   -0.20    1.00
  -7   1  -4    2.90    1.30
  -7   1  -4    0.70    1.50
  -8   1  -4    1.10    2.10
  -8   1  -4    0.50    1.20
  12   0  -4    4.60    1.90
 -12   0   4    5.40    1.90
  11   0  -4    0.40    1.40
 -11   0   4   -0.10    1.00
  10   0  -4   -0.70    0.80
 -10   0   4   -0.30    1.20
 -10   0   4   -1.90    0.70
 -10   0   4   -6.80    3.40
   9   0  -4    5.70    1.60
   9   0  -4    5.00    1.50
  -9   0   4    1.90    1.70
  -9   0   4    2.60    1.50
  -9   0   4    1.70    3.30
  -9   0   4    4.60    1.50
   8   0  -4    0.80    0.80
   8   0  -4   -0.50    0.80
  -8   0   4   -0.50    1.10
  -8   0   4    0.70    1.00
  -8   0   4   -2.50    2.60
  -8   0   4   -1.70    0.80
   7   0  -4   11.80    1.70
   7   0  -4    8.20    1.50
  -7   0   4   10.80    1.50
  -7   0   4    9.00    2.70
  -7   0   4   12.00    1.80
  -7   0   4   11.90    2.20
   6   0  -4  120.99    7.50
   6   0  -4  125.29    7.60
  -6   0   4  116.29    8.00
  -6   0   4  130.79    7.50
  -6   0   4  125.89    8.40
  -6   0   4  124.19    7.60
   5   0  -4    1.30    0.60
   5   0  -4    2.30    0.90
  -5   0   4    2.00    0.80
  -5   0   4   -0.20    0.90
  -5   0   4    0.40    1.30
  -5   0   4    0.00    0.50
   4   0  -4  157.68    9.50
   4   0  -4  167.08    9.80
  -4   0   4  165.18    9.80
  -4   0   4  168.68    9.60
  -4   0   4  175.48   10.00
  -4   0   4  169.38   10.20
   3   0  -4   34.70    2.60
   3   0  -4   35.20    2.40
   3   0  -4   36.60    2.40
  -3   0   4   35.30    2.50
  -3   0   4   34.20    2.80
   2   0  -4  166.08    9.30
   2   0  -4  156.48    9.40
   2   0  -4  169.48    9.10
  -2   0   4  158.38    9.40
  -2   0   4  166.38    9.90
  -2   0   4  165.88    9.80
  -2   0   4  162.08    9.20
  -2   0   4  164.98    9.30
   1   0  -4   -0.20    0.40
   1   0  -4    0.10    0.40
   1   0  -4    0.90    0.30
   1   0  -4    0.90    0.50
  -1   0   4    0.70    0.40
  -1   0   4    0.50    0.60
  -1   0   4    0.70    0.60
  -1   0   4    0.00    0.50
  -1   0   4    0.70    0.40
   0   0  -4   63.29    4.00
   0   0  -4   66.29    3.60
   0   0  -4   61.59    4.00
   0   0  -4   63.49    3.90
   0   0   4   69.69    3.70
   0   0   4   57.99    4.80
   0   0   4   65.39    4.10
  -1   0  -4   28.10    2.20
  -1   0  -4   29.00    3.30
  -1   0  -4   27.90    1.90
  -1   0  -4   28.90    2.10
   1   0   4   30.00    2.30
   1   0   4   33.10    1.80
   1   0   4   27.20    3.20
  -2   0  -4    0.30    1.00
  -2   0  -4    1.30    0.60
  -2   0  -4    1.10    0.60
   2   0   4    0.20    1.10
  -3   0  -4   31.80    3.80
  -3   0  -4   34.30    2.40
  -3   0  -4   33.70    2.60
   3   0   4   35.50    4.20
  -4   0  -4    9.00    1.40
  -4   0  -4    6.70    1.10
  -4   0  -4    6.00    2.10
   4   0   4    3.80    2.20
  -5   0  -4   -1.00    0.70
  -5   0  -4   -0.80    1.20
  -6   0  -4    3.70    1.30
  -6   0  -4    4.90    2.00
  -7   0  -4    0.30    0.90
  -7   0  -4   -1.00    1.60
  -8   0  -4   -0.10    1.00
  -8   0  -4    0.40    2.00
  12  -1  -4   -1.20    1.50
 -12   1   4    0.20    1.50
  11  -1  -4    2.30    1.70
 -11   1   4    2.60    1.50
  10  -1  -4    3.80    1.60
  10  -1  -4    2.30    1.60
 -10   1   4   -6.30    3.60
 -10   1   4    2.10    2.20
 -10   1   4    1.80    1.40
   9  -1  -4   21.40    2.70
   9  -1  -4   24.70    2.80
  -9   1   4   13.10    4.20
  -9   1   4   23.00    2.80
  -9   1   4   18.50    2.40
   8  -1  -4    1.20    1.10
   8  -1  -4    1.20    1.00
  -8   1   4    0.60    1.10
  -8   1   4    0.80    0.80
  -8   1   4    0.10    1.30
  -8   1   4   -0.40    2.90
   7  -1  -4   48.80    3.60
   7  -1  -4   48.70    3.70
  -7   1   4   44.70    4.20
  -7   1   4   43.40    5.30
  -7   1   4   51.19    3.80
  -7   1   4   47.20    3.60
   6  -1  -4    1.10    0.70
   6  -1  -4    1.20    0.70
  -6   1   4    0.60    0.90
  -6   1   4    1.40    2.00
  -6   1   4    0.20    0.70
  -6   1   4    1.60    1.00
   5  -1  -4  116.49    6.90
   5  -1  -4  111.39    6.80
   5  -1  -4  114.99    7.00
  -5   1   4  118.49    7.00
  -5   1   4  103.59    7.40
  -5   1   4  117.49    7.10
  -5   1   4  112.29    7.50
   4  -1  -4   47.90    3.20
   4  -1  -4   50.89    3.40
   4  -1  -4   45.50    3.20
  -4   1   4   50.39    3.70
  -4   1   4   47.90    3.30
  -4   1   4   38.10    3.50
   3  -1  -4    1.00    0.60
   3  -1  -4   -0.20    0.40
   3  -1  -4    1.10    0.50
  -3   1   4   -0.20    0.70
  -3   1   4    0.30    0.60
  -3   1   4   -1.10    0.50
   2  -1  -4   73.49    4.60
   2  -1  -4   74.09    4.60
   2  -1  -4   73.99    4.30
  -2   1   4   72.19    4.70
  -2   1   4   81.29    4.60
  -2   1   4   69.79    5.10
   1  -1  -4   72.89    4.10
   1  -1  -4   69.99    4.40
   1  -1  -4   66.39    4.30
   1  -1  -4   69.79    4.40
  -1   1   4   72.39    4.40
  -1   1   4   75.39    5.30
  -1   1   4   68.89    4.50
   0  -1  -4   77.09    4.70
   0  -1  -4   72.49    4.60
   0  -1  -4   75.99    4.50
   0   1   4   72.49    5.60
   0   1   4   74.59    4.70
  -1  -1  -4   41.80    4.10
  -1  -1  -4   40.80    2.80
  -1  -1  -4   40.90    2.60
  -1  -1  -4   36.20    2.80
   1   1   4   40.60    3.90
   1   1   4   39.70    2.90
  -2  -1  -4   65.39    4.10
  -2  -1  -4   61.19    5.50
  -2  -1  -4   64.19    4.20
   2   1   4   62.69    5.60
  -3  -1  -4    0.30    0.60
  -3  -1  -4    0.70    1.20
  -3  -1  -4    0.80    0.70
   3   1   4    0.30    1.20
  -4  -1  -4   13.00    1.80
  -4  -1  -4   13.60    1.60
  -4  -1  -4   10.00    2.60
   4   1   4   10.00    3.00
  -5  -1  -4    0.20    1.00
  -5  -1  -4   -0.50    1.40
  -5  -1  -4    0.70    0.80
   5   1   4    1.50    2.30
  -6  -1  -4    3.40    2.10
  -6  -1  -4    2.00    1.00
  -7  -1  -4   -2.40    1.00
  -7  -1  -4   -0.50    1.70
  -8  -1  -4    2.60    1.70
  -8  -1  -4    2.10    2.40
  12  -2  -4   -0.30    1.70
 -12   2   4    0.40    1.50
  11  -2  -4    4.50    1.60
 -11   2   4  -10.00    4.20
 -11   2   4    4.80    1.70
  10  -2  -4   58.89    4.50
  10  -2  -4   48.50    4.10
 -10   2   4   52.89    4.00
 -10   2   4   35.00    6.20
   9  -2  -4   18.20    2.40
   9  -2  -4   20.10    2.60
  -9   2   4   20.40    2.50
  -9   2   4   11.40    4.20
  -9   2   4   11.90    2.20
   8  -2  -4   31.10    2.90
   8  -2  -4   26.20    3.00
  -8   2   4   30.60    2.70
  -8   2   4   31.40    4.80
  -8   2   4   37.10    3.20
   7  -2  -4    1.40    1.00
   7  -2  -4    0.00    0.60
   7  -2  -4   -0.40    0.70
  -7   2   4    2.30    2.60
  -7   2   4    0.50    1.00
  -7   2   4    1.30    1.00
   6  -2  -4    7.20    1.40
   6  -2  -4    8.70    1.50
   6  -2  -4    9.20    1.40
  -6   2   4    9.80    1.60
  -6   2   4    9.50    1.60
  -6   2   4    8.60    2.60
   5  -2  -4   31.00    2.70
   5  -2  -4   36.60    2.60
   5  -2  -4   32.60    2.60
  -5   2   4   31.40    2.70
  -5   2   4   33.80    2.60
  -5   2   4   33.00    3.20
   4  -2  -4  175.28   10.60
   4  -2  -4  172.68   10.30
   4  -2  -4  173.88   10.30
  -4   2   4  183.08   10.60
  -4   2   4  183.68   10.40
  -4   2   4  189.58   11.10
   3  -2  -4  439.76   24.10
   3  -2  -4  426.16   24.20
   3  -2  -4  427.96   23.90
  -3   2   4  428.76   24.70
  -3   2   4  446.76   24.10
  -3   2   4  448.56   24.30
   2  -2  -4  213.58   12.10
   2  -2  -4  206.88   11.90
   2  -2  -4  212.18   11.70
   2  -2  -4  218.98   12.10
  -2   2   4  223.08   12.20
  -2   2   4  201.78   12.70
  -2   2   4  206.68   12.00
   1  -2  -4  231.28   13.00
   1  -2  -4  231.18   12.60
   1  -2  -4  241.78   13.10
   1  -2  -4  220.68   13.00
  -1   2   4  229.08   13.10
  -1   2   4  226.88   13.90
   0  -2  -4   19.20    1.70
   0  -2  -4   18.70    1.70
   0  -2  -4   19.70    1.70
   0   2   4   16.20    2.60
   0   2   4   16.80    1.90
  -1  -2  -4   39.10    2.50
  -1  -2  -4   33.00    2.70
  -1  -2  -4   35.90    2.70
  -1  -2  -4   39.20    3.90
   1   2   4   33.10    3.70
   1   2   4   35.10    2.80
  -2  -2  -4   30.80    2.40
  -2  -2  -4   27.10    2.40
  -2  -2  -4   31.20    3.70
   2   2   4   25.80    3.40
  -3  -2  -4   28.50    3.70
  -3  -2  -4   29.00    2.50
  -3  -2  -4   26.10    2.40
   3   2   4   31.00    4.20
  -4  -2  -4    7.90    2.40
  -4  -2  -4    8.40    1.60
  -4  -2  -4    6.10    1.50
   4   2   4   10.80    2.90
  -5  -2  -4    8.80    1.60
  -5  -2  -4    7.90    2.60
  -5  -2  -4    4.90    1.40
  -6  -2  -4    2.80    2.10
  -6  -2  -4    2.20    1.30
  -7  -2  -4    2.20    2.30
  -7  -2  -4    3.10    1.50
  12  -3  -4    0.10    1.80
 -12   3   4    0.60    1.60
  11  -3  -4    7.20    2.30
 -11   3   4   -6.00    4.70
 -11   3   4    6.30    2.00
  10  -3  -4   49.20    4.40
  10  -3  -4   46.80    4.10
 -10   3   4   47.90    4.20
   9  -3  -4   47.10    4.00
   9  -3  -4   50.09    4.20
  -9   3   4   45.60    7.00
  -9   3   4   48.20    4.00
  -9   3   4   50.29    5.60
   8  -3  -4    5.30    1.60
   8  -3  -4    4.40    1.20
   8  -3  -4    4.20    1.40
  -8   3   4    3.00    1.40
  -8   3   4    6.70    2.90
  -8   3   4    4.80    1.50
   7  -3  -4    3.90    1.30
   7  -3  -4    4.20    1.40
   7  -3  -4    4.50    1.10
  -7   3   4    3.50    2.80
  -7   3   4    4.10    1.40
  -7   3   4    4.50    1.40
   6  -3  -4   18.00    2.10
   6  -3  -4   15.70    1.90
   6  -3  -4   16.60    2.10
  -6   3   4   16.60    2.20
  -6   3   4   16.20    3.10
  -6   3   4   17.20    2.10
   5  -3  -4    3.60    1.00
   5  -3  -4    3.30    1.00
   5  -3  -4    4.90    1.10
  -5   3   4    3.70    1.30
  -5   3   4    4.10    1.20
  -5   3   4    3.90    1.00
   4  -3  -4   98.29    6.20
   4  -3  -4  101.49    6.10
   4  -3  -4   93.99    6.30
  -4   3   4   99.49    6.90
  -4   3   4  101.89    6.40
  -4   3   4  106.29    6.30
   3  -3  -4  173.18   10.10
   3  -3  -4  184.98   10.50
   3  -3  -4  171.18   10.30
  -3   3   4  173.28   11.00
  -3   3   4  178.48   10.30
  -3   3   4  186.08   10.50
   2  -3  -4  129.09    7.50
   2  -3  -4  127.09    7.40
   2  -3  -4  127.79    7.60
   2  -3  -4  123.69    7.10
  -2   3   4  117.49    8.20
  -2   3   4  122.09    7.40
   1  -3  -4   68.79    4.30
   1  -3  -4   65.79    4.20
   1  -3  -4   63.19    4.30
  -1   3   4   62.19    4.30
  -1   3   4   60.89    5.10
   0  -3  -4    7.20    1.30
   0  -3  -4    7.20    1.30
   0  -3  -4    5.50    1.10
   0   3   4    6.10    1.20
   0   3   4    7.50    2.00
  -1  -3  -4   30.40    2.50
  -1  -3  -4   31.70    2.30
  -1  -3  -4   27.10    3.40
  -1  -3  -4   29.30    2.50
   1   3   4   24.10    3.20
  -2  -3  -4    0.80    0.70
  -2  -3  -4    2.10    1.00
  -2  -3  -4   -0.10    1.40
   2   3   4    0.90    1.80
  -3  -3  -4   27.40    2.50
  -3  -3  -4   23.40    2.60
  -3  -3  -4   21.30    3.70
   3   3   4   24.70    3.80
  -4  -3  -4   54.39    5.80
  -4  -3  -4   48.30    4.10
  -4  -3  -4   57.29    4.10
  -6  -3  -4   12.00    3.30
  -6  -3  -4   13.30    2.30
  12  -4  -4    1.70    2.00
 -12   4   4    0.30    1.60
  11  -4  -4    2.50    1.90
 -11   4   4  -10.50    4.40
 -11   4   4    6.00    1.90
  10  -4  -4   13.10    2.30
  10  -4  -4    8.60    2.20
 -10   4   4   -0.30    4.30
 -10   4   4    5.00    1.80
   9  -4  -4   29.60    3.30
   9  -4  -4   30.60    3.40
  -9   4   4   18.90    4.80
  -9   4   4   20.80    2.80
   8  -4  -4   15.00    2.00
   8  -4  -4   11.00    2.10
   8  -4  -4   14.80    2.20
  -8   4   4   10.00    3.70
  -8   4   4    8.20    1.80
  -8   4   4   12.20    2.20
   7  -4  -4   -0.20    1.10
   7  -4  -4   -0.40    1.10
   7  -4  -4    0.30    0.90
  -7   4   4   -0.60    1.00
  -7   4   4   -0.20    1.80
  -7   4   4    0.60    1.10
   6  -4  -4   -0.40    0.80
   6  -4  -4    0.50    0.80
   6  -4  -4   -0.40    0.70
  -6   4   4   -1.20    0.90
  -6   4   4   -0.80    1.30
  -6   4   4   -0.70    0.80
   5  -4  -4   26.40    2.60
   5  -4  -4   25.60    2.40
   5  -4  -4   25.50    2.40
  -5   4   4   27.30    3.00
  -5   4   4   26.00    2.30
  -5   4   4   29.20    2.70
   4  -4  -4    3.80    1.10
   4  -4  -4    4.30    1.00
   4  -4  -4    4.00    1.20
  -4   4   4    2.70    1.00
  -4   4   4    3.40    1.10
  -4   4   4    4.70    1.40
   3  -4  -4  261.27   15.40
   3  -4  -4  277.37   15.20
   3  -4  -4  261.87   15.00
   3  -4  -4  259.77   15.30
  -3   4   4  283.87   15.30
  -3   4   4  265.07   16.20
   2  -4  -4   46.10    3.30
   2  -4  -4   49.30    3.50
   2  -4  -4   45.00    3.50
  -2   4   4   44.50    4.20
  -2   4   4   45.10    3.30
   1  -4  -4   12.90    1.70
   1  -4  -4   12.80    1.70
   1  -4  -4   12.40    1.60
  -1   4   4    9.00    2.10
  -1   4   4   10.30    1.60
   0  -4  -4   58.69    4.40
   0  -4  -4   66.89    4.50
   0  -4  -4   68.09    4.40
   0   4   4   64.09    4.40
   0   4   4   60.19    5.50
  -1  -4  -4   15.00    3.00
  -1  -4  -4   15.20    1.90
  -1  -4  -4   15.20    2.10
   1   4   4   18.30    3.20
  -2  -4  -4   11.50    2.90
  -2  -4  -4   13.90    2.00
  -2  -4  -4   16.00    2.10
  -3  -4  -4    1.30    1.90
  -3  -4  -4    1.00    1.20
  -6  -4  -4   -1.20    0.90
  -6  -4  -4   -2.10    1.30
  12  -5  -4    3.50    2.30
 -12   5   4    2.10    2.10
  11  -5  -4    0.20    1.90
  11  -5  -4   -2.20    1.60
 -11   5   4    0.30    1.80
 -11   5   4   -9.40    4.30
  10  -5  -4   -1.30    1.40
  10  -5  -4    1.30    1.70
 -10   5   4   -6.50    3.70
 -10   5   4   -1.10    1.40
   9  -5  -4    1.90    1.30
   9  -5  -4    1.20    1.70
  -9   5   4   -2.90    3.20
  -9   5   4    3.50    1.70
   8  -5  -4   18.10    2.50
   8  -5  -4   16.70    2.60
  -8   5   4   11.50    3.60
  -8   5   4   16.50    3.40
  -8   5   4   18.20    2.50
   7  -5  -4    8.90    1.70
   7  -5  -4    8.40    1.60
   7  -5  -4    8.40    2.00
  -7   5   4    5.40    1.60
  -7   5   4    7.60    1.70
  -7   5   4    4.60    2.50
   6  -5  -4   22.10    2.60
   6  -5  -4   21.00    2.80
   6  -5  -4   23.80    2.50
  -6   5   4   22.30    2.70
  -6   5   4   25.10    3.50
  -6   5   4   21.70    2.60
   5  -5  -4    3.40    1.20
   5  -5  -4    4.80    1.30
   5  -5  -4    2.40    1.10
  -5   5   4    2.50    1.10
  -5   5   4    4.20    1.60
   4  -5  -4   20.80    2.60
   4  -5  -4   23.20    2.20
   4  -5  -4   25.20    2.60
   4  -5  -4   26.90    2.30
  -4   5   4   26.20    3.20
  -4   5   4   25.40    2.60
   3  -5  -4   -0.40    0.80
   3  -5  -4    3.00    1.30
   3  -5  -4    2.50    1.10
  -3   5   4    1.60    1.00
  -3   5   4    1.40    1.00
   2  -5  -4    2.90    1.30
   2  -5  -4    6.50    1.40
   2  -5  -4    4.00    1.10
  -2   5   4    4.40    1.20
  -2   5   4    5.20    1.80
   1  -5  -4   -0.80    0.90
   1  -5  -4    0.20    0.90
   1  -5  -4    0.60    1.00
  -1   5   4    1.40    1.10
  -1   5   4    0.60    1.40
   0  -5  -4    5.70    1.40
   0  -5  -4    6.70    1.50
   0  -5  -4    6.70    1.60
   0   5   4    6.40    1.40
   0   5   4    9.50    2.30
  -1  -5  -4    2.90    1.30
  -1  -5  -4    1.90    1.00
  -2  -5  -4    6.30    1.60
  -2  -5  -4    4.80    1.60
  -4  -5  -4   14.50    2.50
  -4  -5  -4   16.40    2.50
  -5  -5  -4    2.90    1.60
  -5  -5  -4    4.00    1.90
  11  -6  -4   -1.80    1.90
  11  -6  -4   -0.40    1.60
 -11   6   4   -6.00    4.10
  10  -6  -4    3.50    1.60
  10  -6  -4    0.90    1.50
 -10   6   4   -1.60    3.50
 -10   6   4    3.00    1.80
   9  -6  -4    0.50    1.30
   9  -6  -4   -1.00    1.40
  -9   6   4    0.40    1.70
  -9   6   4    3.30    2.90
   8  -6  -4    3.80    1.80
   8  -6  -4    2.10    1.20
  -8   6   4    3.20    1.60
  -8   6   4    6.60    2.50
   7  -6  -4   43.30    4.00
   7  -6  -4   55.39    4.40
   7  -6  -4   47.10    4.40
  -7   6   4   50.19    4.30
  -7   6   4   64.39    5.70
   6  -6  -4   10.10    1.80
   6  -6  -4   14.50    2.10
   6  -6  -4   13.60    2.40
  -6   6   4   15.90    2.20
   5  -6  -4   38.80    3.40
   5  -6  -4   39.50    3.40
   5  -6  -4   36.00    3.50
   5  -6  -4   38.20    3.20
  -5   6   4   42.80    3.40
  -5   6   4   48.10    4.40
   4  -6  -4    2.60    1.20
   4  -6  -4    2.70    1.20
   4  -6  -4    4.90    1.40
  -4   6   4    3.50    1.30
  -4   6   4    7.60    2.00
   3  -6  -4   20.70    2.80
   3  -6  -4   19.60    2.40
   3  -6  -4   20.30    2.50
  -3   6   4   27.60    3.20
  -3   6   4   22.10    2.50
   2  -6  -4    8.50    1.80
   2  -6  -4    5.80    1.50
   2  -6  -4    5.70    1.40
  -2   6   4    7.60    1.60
   1  -6  -4   61.39    4.60
   1  -6  -4   61.69    4.80
   1  -6  -4   56.09    4.70
  -1   6   4   57.79    4.60
  -1   6   4   75.09    5.50
   0  -6  -4   20.60    2.50
   0  -6  -4   18.90    2.50
   0  -6  -4   18.20    2.40
  -1  -6  -4    8.40    1.90
  -3  -6  -4    4.90    2.00
  -3  -6  -4    6.80    1.90
  -4  -6  -4    1.50    1.80
  -4  -6  -4    0.20    1.50
  10  -7  -4   -0.30    1.80
  10  -7  -4    0.60    1.80
 -10   7   4    8.60    3.10
   9  -7  -4    4.20    2.10
   9  -7  -4    4.40    2.00
  -9   7   4   11.50    2.80
   8  -7  -4    1.20    1.70
   8  -7  -4   -1.10    1.50
   7  -7  -4    5.90    1.80
   6  -7  -4    7.10    2.00
   6  -7  -4    1.60    1.20
  -6   7   4    3.20    1.70
   5  -7  -4    4.90    1.60
   5  -7  -4    0.70    1.10
   5  -7  -4    4.60    1.50
  -5   7   4    3.50    1.60
   4  -7  -4    0.90    1.10
   4  -7  -4   -0.50    1.30
   4  -7  -4    1.00    1.20
  -4   7   4   -0.10    1.20
   3  -7  -4    1.70    1.50
   3  -7  -4    0.50    1.20
   3  -7  -4    1.80    1.20
  -3   7   4    4.40    1.50
   2  -7  -4   11.60    1.90
   2  -7  -4    9.50    2.10
   2  -7  -4   12.00    2.10
  -2   7   4    9.70    1.90
   1  -7  -4    5.80    1.70
   1  -7  -4    5.80    1.80
   1  -7  -4    5.40    1.80
  -1   7   4    5.80    1.70
   0  -7  -4   19.20    2.80
   0  -7  -4   17.90    2.50
  -1  -7  -4    4.50    1.90
  -1  -7  -4    5.70    1.80
  -2  -7  -4   -0.20    1.40
  -2  -7  -4    2.30    1.70
  -3  -7  -4    3.00    1.90
  -3  -7  -4   -2.70    1.70
   5  -8  -4   17.10    2.50
   5  -8  -4   15.70    2.90
   1  -8  -4    1.00    1.50
   1  -8  -4    0.10    1.70
   0  -8  -4    0.10    1.20
  -1  -8  -4    0.80    1.70
   2  -9  -4   -1.60    1.70
   2  -9  -4   -0.30    1.70
   1  -9  -4    2.70    1.70
   1  -9  -4    2.20    2.10
   0 -13   5    8.90    2.30
   0 -13   5    8.80    2.90
   1 -13   5   -2.10    1.70
   1 -13   5    0.20    1.60
   2 -13   5   17.20    2.70
  -3 -12   5    1.90    2.20
  -3 -12   5   -1.70    1.70
  -2 -12   5    1.90    1.70
  -2 -12   5    4.40    2.30
  -1 -12   5    2.50    1.70
  -1 -12   5    3.40    2.10
   0 -12   5    0.90    1.70
   0 -12   5   -1.30    1.50
   1 -12   5    5.50    2.20
   1 -12   5    6.20    2.00
   2 -12   5    1.80    1.80
   2 -12   5    2.70    1.40
   3 -12   5    2.10    1.90
   3 -12   5    0.80    1.60
   4 -12   5    9.70    2.60
   4 -12   5   11.80    2.60
   5 -12   5    3.90    2.30
  -5 -11   5   -0.90    1.80
  -5 -11   5   -1.00    1.60
  -4 -11   5   -1.70    1.80
  -4 -11   5   -0.70    1.50
  -3 -11   5   -2.00    1.00
  -3 -11   5   -0.80    1.60
  -3 -11   5   -0.30    1.40
  -2 -11   5    1.00    1.30
  -2 -11   5    0.40    1.20
  -2 -11   5   -0.20    1.30
  -1 -11   5    1.70    1.30
  -1 -11   5    2.80    1.50
   0 -11   5    0.20    1.00
   0 -11   5   -1.10    1.30
   1 -11   5    3.50    1.80
   1 -11   5    0.20    1.40
   2 -11   5   -2.00    1.30
   2 -11   5   -1.60    1.40
   3 -11   5    0.30    1.60
   3 -11   5   -0.20    1.30
   4 -11   5    0.60    1.70
   4 -11   5   -0.90    1.20
   5 -11   5   -0.10    1.70
   6 -11   5    5.60    2.20
  -7 -10   5   11.10    2.70
  -7 -10   5   13.70    3.10
  -6 -10   5    1.90    1.80
  -6 -10   5    2.70    2.10
  -5 -10   5   14.70    2.60
  -5 -10   5   10.50    2.60
   4  10  -5    0.70    0.90
  -4 -10   5    0.90    1.50
  -4 -10   5    0.60    1.10
  -4 -10   5   -1.00    1.50
  -3 -10   5    0.20    1.50
  -3 -10   5    0.10    1.20
  -3 -10   5    1.90    1.20
  -2 -10   5    3.80    1.40
  -2 -10   5    5.30    1.60
  -2 -10   5    4.00    1.50
  -1 -10   5    0.10    1.10
  -1 -10   5    0.10    1.00
   0 -10   5   29.50    3.50
   0 -10   5   32.00    3.10
   1 -10   5    1.00    1.30
   1 -10   5    1.00    1.40
   2 -10   5   10.50    2.10
   2 -10   5    8.50    2.00
   3 -10   5   -0.10    1.20
   3 -10   5    0.30    1.10
   4 -10   5   -1.00    1.30
   5 -10   5   -0.10    1.10
   6 -10   5    3.80    2.00
   7 -10   5    1.20    2.10
  -8  -9   5   12.00    2.70
  -7  -9   5    3.40    2.10
  -7  -9   5    6.50    2.10
  -6  -9   5    4.80    2.10
  -6  -9   5    5.70    2.00
   5   9  -5   19.30    2.10
  -5  -9   5   20.30    2.80
  -5  -9   5   20.80    2.50
  -5  -9   5   18.10    3.00
   4   9  -5    7.10    1.40
  -4  -9   5    6.00    2.00
  -4  -9   5    6.80    1.80
  -4  -9   5    6.90    1.60
  -3  -9   5   18.00    2.40
  -3  -9   5   19.80    2.30
  -3  -9   5   15.60    2.70
  -2  -9   5   -0.50    1.20
  -2  -9   5   -0.90    0.90
  -2  -9   5   -2.00    0.90
  -1  -9   5    5.70    1.30
  -1  -9   5    3.90    1.60
  -1  -9   5    6.40    1.50
   0  -9   5    3.30    1.50
   0  -9   5    1.60    1.20
   1  -9   5   10.80    1.90
   1  -9   5    9.00    1.80
   2  -9   5   26.50    2.70
   2  -9   5   29.80    3.20
   3  -9   5   -0.10    0.80
   3  -9   5   -0.80    1.20
  -4   9  -5    0.10    2.80
   4  -9   5    3.80    1.30
  -5   9  -5   -3.80    2.30
   5  -9   5   -1.70    1.20
  -6   9  -5   -0.40    2.80
   6  -9   5    3.20    1.50
  -7   9  -5   -2.90    2.70
   7  -9   5   -0.30    1.60
   8  -9   5    4.10    2.20
  -9  -8   5    1.70    1.90
  -8  -8   5   26.00    3.70
  -8  -8   5   25.70    3.50
   7   8  -5    2.30    1.60
  -7  -8   5    1.60    1.70
  -7  -8   5   -0.30    1.40
   6   8  -5   30.90    2.80
  -6  -8   5   36.50    4.00
  -6  -8   5   39.20    3.60
  -6  -8   5   39.60    3.30
   5   8  -5   56.69    4.10
  -5  -8   5   64.79    4.50
  -5  -8   5   64.79    4.70
  -5  -8   5   59.09    5.00
   4   8  -5    0.00    0.80
  -4  -8   5    2.10    1.10
  -4  -8   5    3.00    1.40
  -4  -8   5    1.30    1.30
  -3  -8   5  128.59    8.00
  -3  -8   5  130.39    8.50
  -3  -8   5  131.09    7.90
  -2  -8   5    0.30    0.80
  -2  -8   5   -0.90    0.80
  -2  -8   5   -1.30    0.90
  -1  -8   5   16.30    1.80
  -1  -8   5   14.80    2.10
  -1  -8   5   14.90    1.90
   0  -8   5    0.30    0.90
   0  -8   5   -0.30    0.90
   1  -8   5   -0.80    0.90
   1  -8   5   -0.50    0.90
  -2   8  -5   15.20    2.80
   2  -8   5   17.60    2.30
   2  -8   5   18.10    2.30
  -3   8  -5    2.80    1.90
   3  -8   5    2.30    1.10
   3  -8   5    1.90    1.10
  -4   8  -5    3.20    2.00
   4  -8   5    4.10    1.50
  -5   8  -5   -0.70    1.70
   5  -8   5    0.70    1.00
  -6   8  -5   37.70    5.20
   6  -8   5   28.00    3.50
  -7   8  -5    6.80    3.20
   7  -8   5    4.90    1.60
  -8   8  -5   -1.10    2.60
   8  -8   5    2.80    2.00
 -10  -7   5    3.90    2.20
  -9  -7   5   12.00    2.60
   8   7  -5    8.10    1.60
  -8  -7   5    7.70    1.80
  -8  -7   5    7.50    2.30
  -8  -7   5    9.20    2.00
   7   7  -5    6.10    1.30
  -7  -7   5    4.30    1.70
  -7  -7   5    5.60    1.90
  -7  -7   5    2.90    1.40
   6   7  -5   19.00    2.10
  -6  -7   5   21.50    2.50
  -6  -7   5   21.90    2.70
  -6  -7   5   17.70    2.60
   5   7  -5  135.39    8.30
  -5  -7   5  132.49    9.00
  -5  -7   5  139.59    8.50
  -5  -7   5  151.48    8.80
   4   7  -5    3.90    1.00
  -4  -7   5    6.00    1.40
  -4  -7   5    3.20    1.10
  -4  -7   5    4.10    1.40
  -3  -7   5  159.08    9.70
  -3  -7   5  167.18   10.20
  -3  -7   5  166.98    9.70
  -2  -7   5   11.60    1.50
  -2  -7   5   15.40    1.70
  -2  -7   5    8.60    1.60
  -1  -7   5    3.00    1.00
  -1  -7   5    3.50    1.20
  -1  -7   5    2.20    0.90
   0  -7   5   72.39    5.00
   0  -7   5   82.49    5.10
   0  -7   5   77.59    5.30
  -1   7  -5   44.70    3.80
   1  -7   5   40.80    3.30
   1  -7   5   38.90    3.20
  -2   7  -5   38.00    3.90
   2  -7   5   31.60    2.80
   2  -7   5   28.80    2.70
  -3   7  -5  158.98   11.10
   3  -7   5  162.68    9.70
   3  -7   5  156.58    9.50
  -4   7  -5    6.60    2.30
   4  -7   5    5.80    1.60
  -5   7  -5    0.80    1.70
   5  -7   5    0.90    1.20
  -6   7  -5    9.60    2.80
   6  -7   5    7.50    1.90
  -7   7  -5    4.50    2.10
   7  -7   5    2.60    1.50
  -8   7  -5   10.00    3.40
   8  -7   5    6.30    2.10
 -10  -6   5    4.60    1.60
 -10  -6   5    4.00    2.00
   9   6  -5   -1.40    1.10
  -9  -6   5    1.30    1.60
  -9  -6   5    0.80    1.10
   8   6  -5    6.20    1.50
  -8  -6   5    6.50    1.90
  -8  -6   5    5.10    1.40
  -8  -6   5    5.30    1.60
  -8  -6   5    6.70    2.00
   7   6  -5   -2.00    0.70
  -7  -6   5   -1.00    1.00
  -7  -6   5   -0.10    1.20
  -7  -6   5    0.50    1.30
  -7  -6   5   -0.70    0.80
   6   6  -5   10.20    1.50
  -6  -6   5    7.60    1.70
  -6  -6   5    9.50    2.10
  -6  -6   5    9.60    1.40
  -6  -6   5   10.10    1.80
   5   6  -5    1.40    0.80
  -5  -6   5   -0.80    1.00
  -5  -6   5    0.60    1.00
  -5  -6   5   -0.70    0.80
  -5  -6   5    0.10    0.60
   4   6  -5  264.97   15.20
  -4  -6   5  288.37   15.50
  -4  -6   5  274.07   15.90
  -4  -6   5  261.77   15.10
  -4  -6   5  269.27   15.50
  -3  -6   5    4.20    1.00
  -3  -6   5    3.00    0.80
  -3  -6   5    3.60    1.10
  -2  -6   5   26.80    2.50
  -2  -6   5   26.70    2.20
  -2  -6   5   25.50    2.10
   1   6  -5   15.90    1.80
  -1  -6   5   14.00    1.60
  -1  -6   5   16.80    1.60
  -1  -6   5   17.10    2.00
   0   6  -5   31.10    2.90
   0  -6   5   32.80    2.70
   0  -6   5   32.70    2.50
   0  -6   5   33.30    2.30
  -1   6  -5   88.59    6.20
   1  -6   5   73.29    5.10
   1  -6   5   84.19    5.30
  -2   6  -5   93.39    7.00
   2  -6   5   96.89    5.80
   2  -6   5   81.89    5.70
  -3   6  -5   30.40    3.80
   3  -6   5   26.80    2.40
  -4   6  -5   39.80    4.70
   4  -6   5   38.10    3.20
  -5   6  -5   -0.70    1.50
   5  -6   5   -0.70    0.90
  -6   6  -5    1.70    2.00
   6  -6   5    3.90    1.40
  -7   6  -5   -0.70    1.60
   7  -6   5   -0.40    1.20
  -8   6  -5    3.00    2.30
 -11  -5   5   -2.30    1.20
 -11  -5   5    2.20    1.90
  10   5  -5    0.00    1.20
 -10  -5   5    1.10    1.60
 -10  -5   5   -1.20    1.10
   9   5  -5    4.20    1.40
  -9  -5   5    5.60    1.90
  -9  -5   5    5.40    2.00
  -9  -5   5    2.30    1.20
   8   5  -5    0.50    1.00
  -8  -5   5    2.00    1.10
  -8  -5   5    2.70    1.60
  -8  -5   5    0.90    1.40
   7   5  -5   -1.50    0.70
  -7  -5   5   -0.40    0.80
  -7  -5   5    0.70    0.90
  -7  -5   5   -0.70    0.90
  -7  -5   5   -0.80    1.20
   6   5  -5   -0.30    0.70
  -6  -5   5   -0.60    0.80
  -6  -5   5   -1.30    1.00
  -6  -5   5   -0.20    0.60
  -6  -5   5   -2.00    0.80
   5   5  -5  102.29    6.40
  -5  -5   5  111.39    6.80
  -5  -5   5  104.89    6.60
  -5  -5   5  110.19    6.40
   4   5  -5   91.29    5.60
  -4  -5   5   94.49    6.10
  -4  -5   5   92.29    5.40
  -4  -5   5   93.09    5.70
  -4  -5   5   86.39    5.70
  -3  -5   5   35.40    2.70
  -3  -5   5   34.90    3.00
  -3  -5   5   35.50    2.30
  -3  -5   5   37.40    2.70
   2   5  -5  119.09    7.10
  -2  -5   5  117.49    7.10
  -2  -5   5  119.99    7.50
  -2  -5   5  120.29    6.70
  -2  -5   5  122.69    7.10
   1   5  -5  173.98   10.50
   1   5  -5  173.48    9.60
  -1  -5   5  174.28   10.00
  -1  -5   5  171.78   10.30
  -1  -5   5  171.48    9.90
  -1  -5   5  178.08    9.60
   0   5  -5   48.60    4.00
   0   5  -5   50.49    2.90
   0  -5   5   51.29    3.50
   0  -5   5   48.40    3.30
   0  -5   5   50.49    3.20
  -1   5  -5    6.70    1.60
  -1   5  -5    5.80    0.70
   1  -5   5    9.00    1.20
   1  -5   5    5.70    1.00
  -2   5  -5   78.99    4.80
  -2   5  -5   80.29    6.40
   2  -5   5   81.69    5.10
   2  -5   5   83.29    5.10
  -3   5  -5   20.90    3.30
  -3   5  -5   22.30    1.90
   3  -5   5   25.30    2.20
  -4   5  -5   12.30    2.80
   4  -5   5   14.50    1.90
  -5   5  -5    3.60    2.00
   5  -5   5    3.70    1.20
  -6   5  -5    0.20    1.30
   6  -5   5    0.50    1.00
  -7   5  -5    1.20    2.00
  -8   5  -5    2.10    2.20
  11   4  -5    1.10    1.40
 -11  -4   5    2.60    1.90
 -11  -4   5    2.10    1.50
  10   4  -5   13.30    2.20
 -10  -4   5   16.40    2.30
 -10  -4   5   13.50    2.50
   9   4  -5    4.80    1.40
   9   4  -5    5.70    1.70
  -9  -4   5    5.50    1.80
  -9  -4   5    7.40    1.60
  -9  -4   5    5.10    2.00
   8   4  -5   69.79    5.10
  -8  -4   5   72.59    5.00
  -8  -4   5   82.49    5.50
  -8  -4   5   75.09    5.80
   7   4  -5    1.00    0.90
  -7  -4   5    1.10    0.80
  -7  -4   5    0.40    1.00
  -7  -4   5    2.80    1.50
  -7  -4   5    2.50    1.00
   6   4  -5   57.39    4.00
  -6  -4   5   56.79    4.20
  -6  -4   5   61.59    4.20
  -6  -4   5   58.29    3.90
   5   4  -5   59.09    3.80
  -5  -4   5   50.69    4.30
  -5  -4   5   56.69    3.70
  -5  -4   5   59.69    4.00
  -5  -4   5   55.49    3.90
   4   4  -5   55.39    3.50
  -4  -4   5   54.49    3.40
  -4  -4   5   51.69    3.70
  -4  -4   5   53.19    3.60
   3   4  -5  399.46   22.20
   3   4  -5  432.26   22.40
  -3  -4   5  393.46   22.40
  -3  -4   5  397.36   22.30
  -3  -4   5  406.56   22.30
  -3  -4   5  388.06   22.10
  -3  -4   5  401.26   22.70
   2   4  -5  376.56   20.30
  -2  -4   5  348.47   20.20
  -2  -4   5  354.36   19.90
  -2  -4   5  351.26   19.60
  -2  -4   5  363.96   19.90
   1   4  -5  781.22   42.00
   1   4  -5  773.82   43.00
  -1  -4   5  765.22   42.30
  -1  -4   5  773.22   42.50
  -1  -4   5  762.82   43.00
  -1  -4   5  795.22   42.00
  -1  -4   5  781.62   42.20
   0   4  -5   15.00    1.20
   0   4  -5   15.70    2.20
   0  -4   5   18.00    1.30
   0  -4   5   15.90    1.40
   0  -4   5   16.10    1.40
   0  -4   5   14.10    2.20
   0  -4   5   16.00    1.60
  -1   4  -5  135.39    8.00
  -1   4  -5  151.38    9.70
  -1   4  -5  143.99    8.10
   1  -4   5  147.69    8.30
   1  -4   5  146.99    8.40
   1  -4   5  137.69    8.00
  -2   4  -5  147.89   10.20
  -2   4  -5  147.29    8.60
   2  -4   5  156.58    8.80
  -3   4  -5   26.70    3.50
  -3   4  -5   21.10    1.90
   3  -4   5   24.70    2.10
  -4   4  -5   14.20    3.00
  -4   4  -5   14.40    1.60
   4  -4   5   14.00    1.70
  -5   4  -5   11.10    1.60
  -5   4  -5   11.30    2.80
   5  -4   5   12.30    1.70
  -6   4  -5   -0.80    1.10
  -6   4  -5   -0.70    1.00
  -7   4  -5    0.00    1.00
  -7   4  -5    1.00    1.90
  -8   4  -5    3.50    1.60
  -8   4  -5    3.30    2.60
  12   3  -5    1.10    1.60
 -12  -3   5   -0.20    1.50
 -12  -3   5    0.70    1.90
  11   3  -5    1.40    1.40
 -11  -3   5    0.80    1.00
 -11  -3   5    0.20    1.60
  10   3  -5   -0.30    1.10
 -10  -3   5    0.50    1.50
 -10  -3   5   -2.20    1.00
   9   3  -5   -1.60    0.90
   9   3  -5    0.80    1.20
  -9  -3   5    0.30    1.30
  -9  -3   5    1.10    1.20
  -9  -3   5    2.30    1.70
   8   3  -5   11.00    1.90
   8   3  -5   10.80    1.60
  -8  -3   5    9.40    1.60
  -8  -3   5   11.30    2.30
  -8  -3   5   11.50    1.90
   7   3  -5    4.90    1.40
   7   3  -5    4.90    1.10
  -7  -3   5    3.40    1.50
  -7  -3   5    5.70    1.20
  -7  -3   5    3.80    1.10
   6   3  -5  109.79    6.70
  -6  -3   5  102.49    6.90
  -6  -3   5  112.69    7.00
  -6  -3   5  116.89    6.70
   5   3  -5    3.50    0.80
  -5  -3   5    3.20    1.30
  -5  -3   5    3.90    1.10
  -5  -3   5    2.10    0.80
  -5  -3   5    2.00    0.70
   4   3  -5  117.99    7.00
  -4  -3   5  108.89    7.20
  -4  -3   5  115.19    7.00
  -4  -3   5  129.19    7.10
  -4  -3   5  119.29    7.10
   3   3  -5  391.66   20.80
  -3  -3   5  374.76   21.30
  -3  -3   5  367.46   21.00
  -3  -3   5  368.36   20.70
  -3  -3   5  391.36   21.10
  -3  -3   5  365.26   20.80
   2   3  -5  173.88   10.00
  -2  -3   5  155.18    9.40
  -2  -3   5  169.98    9.30
  -2  -3   5  161.58    9.90
  -2  -3   5  160.88    9.70
  -2  -3   5  159.68    9.20
   1   3  -5 1288.17   67.99
   1   3  -5 1278.97   69.09
  -1  -3   5 1298.57   68.09
  -1  -3   5 1243.78   68.99
  -1  -3   5 1252.07   68.19
  -1  -3   5 1154.88   68.39
  -1  -3   5 1294.47   67.99
   0   3  -5  113.09    7.70
   0   3  -5  114.89    6.50
   0   3  -5  109.29    6.50
   0  -3   5  120.59    6.60
   0  -3   5  120.69    6.60
   0  -3   5  117.99    6.80
   0  -3   5  103.49    7.60
   0  -3   5  109.99    6.60
  -1   3  -5   91.89    6.80
  -1   3  -5   88.29    5.20
  -1   3  -5   94.99    5.40
   1  -3   5   88.79    5.30
   1  -3   5   92.39    5.50
   1  -3   5   90.49    6.80
   1  -3   5   93.39    5.40
  -2   3  -5   43.90    2.70
  -2   3  -5   45.50    3.00
  -2   3  -5   44.20    4.40
   2  -3   5   39.70    4.20
   2  -3   5   41.40    2.90
  -3   3  -5    1.30    1.10
  -3   3  -5    1.80    0.70
   3  -3   5    1.20    0.70
  -4   3  -5  102.59    6.30
  -4   3  -5  109.49    8.40
   4  -3   5   92.59    6.20
  -5   3  -5    4.90    1.20
  -5   3  -5    5.60    2.20
  -6   3  -5   42.60    3.40
  -6   3  -5   40.10    5.40
  -7   3  -5   -0.80    1.00
  -7   3  -5   -1.10    1.60
  -8   3  -5    0.40    2.20
  -8   3  -5   -1.60    1.10
  12   2  -5   -3.60    1.20
 -12  -2   5    1.60    3.00
 -12  -2   5    1.50    1.20
  11   2  -5   -0.50    1.30
 -11  -2   5    2.10    1.70
 -11  -2   5    1.10    1.50
  10   2  -5    1.50    1.30
  10   2  -5    1.10    1.30
 -10  -2   5    5.60    2.10
 -10  -2   5    5.20    1.80
 -10  -2   5    3.30    1.50
   9   2  -5    2.00    1.10
   9   2  -5    1.00    1.20
  -9  -2   5   -0.40    0.70
  -9  -2   5    2.60    1.40
  -9  -2   5    1.20    1.60
   8   2  -5    7.60    1.50
   8   2  -5    7.10    1.60
  -8  -2   5    8.40    1.40
  -8  -2   5    6.90    2.00
  -8  -2   5    6.30    1.60
   7   2  -5    7.40    1.30
   7   2  -5    9.60    1.70
  -7  -2   5    9.30    2.00
  -7  -2   5    9.50    1.70
  -7  -2   5    6.40    2.00
  -7  -2   5    9.90    1.40
   6   2  -5    2.40    0.90
   6   2  -5    1.90    1.00
  -6  -2   5    1.70    1.10
  -6  -2   5    2.10    1.00
  -6  -2   5    1.70    0.80
  -6  -2   5    1.50    1.30
   5   2  -5    8.50    1.20
   5   2  -5    8.90    1.40
  -5  -2   5    5.70    1.40
  -5  -2   5    9.30    1.30
  -5  -2   5    4.70    1.30
  -5  -2   5   10.30    1.20
  -5  -2   5    7.00    1.20
   4   2  -5  230.68   12.80
   4   2  -5  237.88   13.20
  -4  -2   5  218.38   12.90
  -4  -2   5  206.88   13.40
  -4  -2   5  220.78   13.00
  -4  -2   5  249.48   13.20
   3   2  -5  105.29    6.30
   3   2  -5  104.89    5.90
  -3  -2   5   97.39    6.00
  -3  -2   5   94.19    6.00
  -3  -2   5   98.49    6.60
  -3  -2   5   96.79    6.20
  -3  -2   5  110.49    6.50
   2   2  -5  342.87   19.60
   2   2  -5  365.36   19.30
  -2  -2   5  355.86   20.10
  -2  -2   5  348.37   19.40
  -2  -2   5  353.46   19.90
  -2  -2   5  363.56   19.40
  -2  -2   5  330.17   19.50
   1   2  -5  112.49    7.30
   1   2  -5  104.09    6.30
   1   2  -5  104.39    6.10
   1   2  -5  103.09    6.20
  -1  -2   5  105.29    6.20
  -1  -2   5  110.49    6.10
  -1  -2   5   97.39    6.30
  -1  -2   5  104.49    7.10
  -1  -2   5  111.49    6.60
   0   2  -5   81.19    4.90
   0   2  -5   78.49    5.00
   0   2  -5   83.59    6.10
   0   2  -5   80.69    5.00
   0  -2   5   93.29    5.30
   0  -2   5   89.09    5.10
   0  -2   5   90.69    4.90
   0  -2   5   78.59    6.10
   0  -2   5   77.39    5.00
  -1   2  -5  132.49    7.60
  -1   2  -5  122.79    7.30
  -1   2  -5  124.19    7.40
  -1   2  -5  129.09    8.90
   1  -2   5  122.39    8.90
   1  -2   5  133.09    7.70
   1  -2   5  138.19    7.40
   1  -2   5  136.79    7.60
  -2   2  -5   33.90    2.20
  -2   2  -5   31.30    3.70
  -2   2  -5   31.30    2.40
   2  -2   5   35.80    2.30
   2  -2   5   29.40    3.70
  -3   2  -5   40.10    4.50
  -3   2  -5   43.10    3.00
   3  -2   5   38.00    4.60
  -4   2  -5    4.00    1.80
  -4   2  -5    3.50    1.00
  -5   2  -5    3.90    1.20
  -5   2  -5    3.10    1.60
  -6   2  -5    4.60    2.30
  -6   2  -5    2.40    1.20
  -7   2  -5    1.10    1.30
  -7   2  -5    1.10    2.00
  -8   2  -5   -0.50    1.20
  -8   2  -5    1.60    2.30
  12   1  -5   -0.40    1.50
 -12  -1   5    1.80    1.60
  11   1  -5    1.00    1.50
 -11  -1   5    2.40    1.50
 -11  -1   5    1.80    1.70
  10   1  -5   -1.30    1.20
  10   1  -5    0.30    1.20
 -10  -1   5    0.10    1.20
 -10  -1   5    0.30    1.70
 -10  -1   5   -2.40    1.10
   9   1  -5    7.30    1.70
   9   1  -5    6.50    1.70
  -9  -1   5    9.90    2.00
  -9  -1   5    1.80    3.40
  -9  -1   5    8.70    1.70
  -9  -1   5    4.70    2.00
   8   1  -5    3.10    1.20
   8   1  -5    3.50    1.10
  -8  -1   5    3.20    1.00
  -8  -1   5    2.90    1.60
  -8  -1   5    5.40    1.50
  -8  -1   5   -0.20    2.70
   7   1  -5    0.60    0.60
   7   1  -5    0.30    0.60
  -7  -1   5   -0.50    1.20
  -7  -1   5   -0.10    0.90
  -7  -1   5   -0.70    1.70
  -7  -1   5   -0.30    0.60
   6   1  -5   55.19    3.90
   6   1  -5   51.59    3.70
  -6  -1   5   47.10    4.20
  -6  -1   5   58.09    4.30
  -6  -1   5   53.29    3.70
   5   1  -5    2.70    0.70
   5   1  -5    1.60    0.80
  -5  -1   5    2.30    1.30
  -5  -1   5    2.70    0.90
  -5  -1   5    2.50    1.10
  -5  -1   5    2.80    0.80
   4   1  -5    3.80    0.80
   4   1  -5    4.60    1.00
  -4  -1   5    4.30    1.10
  -4  -1   5    4.20    0.90
  -4  -1   5    4.20    1.00
  -4  -1   5    3.80    1.20
  -4  -1   5    5.50    1.20
   3   1  -5  243.38   13.80
   3   1  -5  244.58   13.40
  -3  -1   5  245.48   14.20
  -3  -1   5  256.57   14.20
  -3  -1   5  231.78   13.80
  -3  -1   5  241.18   13.60
  -3  -1   5  225.68   13.50
   2   1  -5  107.09    6.30
   2   1  -5  102.99    6.10
   2   1  -5  107.49    6.00
  -2  -1   5   96.89    6.60
  -2  -1   5  102.89    6.30
  -2  -1   5  102.39    6.90
  -2  -1   5  103.59    6.10
  -2  -1   5  104.99    6.10
   1   1  -5  150.78    8.80
   1   1  -5  163.98    8.50
   1   1  -5  148.09    8.70
   1   1  -5  151.18    8.70
  -1  -1   5  146.19    9.10
  -1  -1   5  158.58    8.60
  -1  -1   5  146.89    8.80
  -1  -1   5  151.48    8.80
  -1  -1   5  149.99    9.70
   0   1  -5   81.19    6.10
   0   1  -5   74.89    4.60
   0   1  -5   74.59    4.70
   0   1  -5   77.89    4.80
   0  -1   5   73.79    5.90
   0  -1   5   85.19    4.50
   0  -1   5   82.39    4.90
   0  -1   5   72.79    4.80
   0  -1   5   75.89    4.80
  -1   1  -5    0.50    0.50
  -1   1  -5    1.20    0.60
  -1   1  -5    0.60    0.80
  -1   1  -5    0.10    0.40
   1  -1   5   -0.20    0.90
   1  -1   5    0.50    0.40
   1  -1   5    0.60    0.50
  -2   1  -5    1.20    0.60
  -2   1  -5    0.40    0.90
  -2   1  -5    2.00    0.80
   2  -1   5    0.30    1.10
  -3   1  -5    8.70    2.30
  -3   1  -5   10.40    1.50
  -3   1  -5    9.80    1.20
   3  -1   5    8.90    2.50
  -4   1  -5   -0.30    0.90
  -4   1  -5   -0.20    0.70
   4  -1   5   -1.90    1.60
  -5   1  -5    8.20    2.60
  -5   1  -5    7.30    1.50
  -6   1  -5    2.50    1.20
  -6   1  -5    0.90    1.90
  -7   1  -5    0.60    2.10
  -7   1  -5   -1.50    1.00
  -8   1  -5    0.80    2.10
  -8   1  -5   -1.20    1.30
  12   0  -5    9.90    2.30
 -12   0   5    5.30    2.00
  11   0  -5   -1.70    1.40
 -11   0   5    2.50    1.90
 -11   0   5   -1.50    0.80
  10   0  -5    6.80    1.60
  10   0  -5    8.10    1.90
 -10   0   5   -2.50    3.50
 -10   0   5    6.20    2.30
 -10   0   5    8.60    2.10
 -10   0   5    5.70    1.70
   9   0  -5   -0.50    1.00
   9   0  -5   -0.30    1.10
  -9   0   5    0.10    1.10
  -9   0   5    1.90    1.70
  -9   0   5   -2.20    3.00
  -9   0   5    0.40    1.20
   8   0  -5    9.20    1.60
   8   0  -5    6.90    1.50
  -8   0   5    9.40    2.10
  -8   0   5    8.30    1.80
  -8   0   5    6.40    2.90
  -8   0   5    6.80    1.50
   7   0  -5   86.99    5.80
   7   0  -5   85.29    5.60
  -7   0   5   88.69    5.70
  -7   0   5   69.49    6.10
  -7   0   5   98.89    6.00
  -7   0   5   91.69    6.80
   6   0  -5   59.49    4.10
   6   0  -5   54.89    4.30
  -6   0   5   65.09    4.90
  -6   0   5   60.89    4.20
  -6   0   5   64.09    4.40
  -6   0   5   52.09    4.80
   5   0  -5  307.97   17.40
   5   0  -5  315.77   17.80
  -5   0   5  278.97   18.20
  -5   0   5  306.67   17.50
  -5   0   5  338.07   18.10
   4   0  -5    3.70    0.80
   4   0  -5    4.00    0.80
   4   0  -5    3.60    0.90
  -4   0   5    3.00    1.10
  -4   0   5    3.10    1.10
  -4   0   5    1.90    1.00
  -4   0   5    4.90    0.90
   3   0  -5   55.19    3.50
   3   0  -5   55.29    3.70
   3   0  -5   59.39    3.90
  -3   0   5   51.59    3.60
  -3   0   5   58.79    4.30
  -3   0   5   55.79    3.90
  -3   0   5   55.89    4.20
   2   0  -5   99.79    5.90
   2   0  -5  101.89    6.00
   2   0  -5  102.79    6.00
   2   0  -5  100.19    5.70
  -2   0   5   99.59    5.80
  -2   0   5   94.09    6.10
  -2   0   5   99.09    5.90
  -2   0   5   90.69    6.30
  -2   0   5   98.19    6.70
   1   0  -5  101.49    6.00
   1   0  -5   98.39    6.00
   1   0  -5   96.39    6.00
   1   0  -5  102.39    5.60
  -1   0   5   97.29    6.00
  -1   0   5   99.19    5.70
  -1   0   5   99.79    7.00
  -1   0   5  102.99    6.20
   0   0  -5    3.60    1.60
   0   0  -5    4.20    0.90
   0   0  -5    5.00    0.60
   0   0  -5    5.10    1.00
   0   0  -5    4.20    0.80
   0   0   5    5.30    1.00
   0   0   5    3.60    1.40
  -1   0  -5   94.69    7.30
  -1   0  -5   97.29    5.80
  -1   0  -5   98.39    5.80
   1   0   5   91.49    5.90
   1   0   5   89.99    7.20
  -2   0  -5    2.30    0.80
  -2   0  -5    3.50    1.70
  -2   0  -5    4.80    1.10
   2   0   5    2.10    1.60
  -3   0  -5    7.20    2.20
  -3   0  -5    9.30    1.30
  -3   0  -5    6.90    1.30
   3   0   5    7.50    2.40
  -4   0  -5   -0.60    0.80
  -4   0  -5    0.30    1.50
   4   0   5   -0.50    1.50
  -5   0  -5    1.70    1.10
  -6   0  -5    0.00    1.10
  -6   0  -5   -0.30    1.80
  -7   0  -5    1.50    2.30
  -7   0  -5    3.80    1.50
  12  -1  -5   -0.30    1.40
 -12   1   5   -0.50    1.50
  11  -1  -5    4.40    1.60
 -11   1   5   -8.40    3.90
 -11   1   5    2.40    1.60
  10  -1  -5   -0.50    1.00
  10  -1  -5   -0.70    1.20
 -10   1   5   -0.60    1.50
 -10   1   5   -8.00    3.30
 -10   1   5    0.10    1.40
   9  -1  -5    3.50    1.30
   9  -1  -5    2.20    1.30
  -9   1   5   -0.30    3.10
  -9   1   5    2.40    1.40
  -9   1   5    3.20    1.50
   8  -1  -5   -0.30    0.90
   8  -1  -5    0.40    0.80
  -8   1   5   -0.70    0.70
  -8   1   5   -0.40    1.90
  -8   1   5    1.00    1.60
  -8   1   5   -0.60    1.00
   7  -1  -5    7.80    1.60
   7  -1  -5    6.50    1.40
  -7   1   5    8.20    1.70
  -7   1   5    3.50    1.50
  -7   1   5    6.70    2.30
  -7   1   5    6.30    1.50
   6  -1  -5   54.99    4.20
   6  -1  -5   58.09    3.90
   6  -1  -5   56.99    4.00
  -6   1   5   50.79    4.00
  -6   1   5   57.39    4.20
  -6   1   5   58.79    4.80
   5  -1  -5   18.50    1.80
   5  -1  -5   18.90    1.90
   5  -1  -5   23.80    2.20
  -5   1   5   16.40    2.10
  -5   1   5   21.40    2.40
  -5   1   5   21.10    1.90
  -5   1   5   18.80    2.70
   4  -1  -5   -0.40    0.60
   4  -1  -5    0.50    0.80
   4  -1  -5    1.60    0.80
  -4   1   5    0.50    0.80
  -4   1   5    1.20    0.90
  -4   1   5    0.20    0.70
   3  -1  -5    9.20    1.10
   3  -1  -5   10.60    1.40
   3  -1  -5    7.00    1.20
  -3   1   5    6.70    1.40
  -3   1   5    7.60    1.40
  -3   1   5    9.50    1.30
   2  -1  -5   14.40    1.60
   2  -1  -5   13.50    1.20
   2  -1  -5   13.50    1.60
   2  -1  -5   14.80    1.60
  -2   1   5   15.30    1.70
  -2   1   5   12.20    1.50
  -2   1   5   13.20    2.10
   1  -1  -5   18.90    1.70
   1  -1  -5   19.20    1.70
   1  -1  -5   19.40    1.70
  -1   1   5   15.80    2.50
  -1   1   5   18.00    1.90
   0  -1  -5   97.09    6.00
   0  -1  -5   94.59    5.90
   0  -1  -5   98.59    5.80
   0   1   5   98.39    7.40
   0   1   5   98.89    6.10
  -1  -1  -5   12.10    1.60
  -1  -1  -5   11.80    2.50
  -1  -1  -5   10.50    1.50
   1   1   5   10.90    2.50
   1   1   5   12.00    1.70
  -2  -1  -5   45.00    3.50
  -2  -1  -5   46.30    5.00
  -2  -1  -5   52.69    3.50
   2   1   5   48.30    5.20
  -3  -1  -5    0.00    0.70
  -3  -1  -5   -0.40    0.90
  -3  -1  -5    0.50    1.20
   3   1   5   -0.70    1.20
  -4  -1  -5    1.40    0.90
  -4  -1  -5    1.40    1.70
  -4  -1  -5    0.30    0.80
   4   1   5    6.70    2.30
  -6  -1  -5    1.00    2.00
  -6  -1  -5    1.70    1.30
  -7  -1  -5    2.30    2.40
  -7  -1  -5   -0.50    1.30
  12  -2  -5    0.00    1.80
 -12   2   5    0.40    1.60
  11  -2  -5    5.00    2.10
  11  -2  -5    2.30    1.60
 -11   2   5   -6.80    4.00
 -11   2   5    1.30    1.50
  10  -2  -5    2.20    1.90
  10  -2  -5    3.30    1.60
  10  -2  -5    0.10    1.20
 -10   2   5   -3.00    3.60
 -10   2   5    0.90    1.60
 -10   2   5    1.40    1.50
   9  -2  -5    5.90    1.50
   9  -2  -5    5.70    1.70
   9  -2  -5    6.50    1.60
  -9   2   5    1.10    3.30
  -9   2   5    5.30    1.70
  -9   2   5    7.50    1.90
   8  -2  -5   -0.40    0.80
   8  -2  -5   -1.30    1.00
   8  -2  -5   -1.40    1.00
  -8   2   5    0.40    1.20
  -8   2   5   -2.20    2.40
  -8   2   5   -1.00    1.10
   7  -2  -5    6.10    1.30
   7  -2  -5    6.30    1.40
   7  -2  -5    8.50    1.70
  -7   2   5    3.40    2.20
  -7   2   5    4.40    1.50
  -7   2   5    4.90    1.30
   6  -2  -5    9.70    1.70
   6  -2  -5    8.10    1.50
   6  -2  -5    8.30    1.50
  -6   2   5    7.60    1.60
  -6   2   5    9.90    1.70
  -6   2   5   10.40    2.10
   5  -2  -5    0.80    0.80
   5  -2  -5   -0.90    0.80
   5  -2  -5    0.00    0.70
  -5   2   5   -0.50    0.70
  -5   2   5    0.50    0.90
  -5   2   5    1.00    1.00
   4  -2  -5   32.60    2.50
   4  -2  -5   34.30    2.80
   4  -2  -5   31.50    2.60
  -4   2   5   29.90    3.00
  -4   2   5   37.70    2.80
  -4   2   5   32.10    2.90
   3  -2  -5  106.89    6.60
   3  -2  -5  108.19    6.30
   3  -2  -5  104.29    6.60
   3  -2  -5  105.49    6.40
  -3   2   5  109.59    6.80
  -3   2   5  113.59    6.60
  -3   2   5  101.89    7.20
   2  -2  -5   24.50    2.20
   2  -2  -5   22.50    2.10
   2  -2  -5   22.40    2.00
  -2   2   5   23.10    2.00
  -2   2   5   22.10    2.80
   1  -2  -5    8.00    1.30
   1  -2  -5    8.10    1.20
   1  -2  -5    8.30    1.30
  -1   2   5    4.80    1.10
  -1   2   5    5.10    1.70
   0  -2  -5    2.50    0.80
   0  -2  -5    3.00    1.00
   0  -2  -5    1.60    0.90
   0   2   5    1.20    1.40
   0   2   5    3.40    1.10
  -1  -2  -5   41.20    3.30
  -1  -2  -5   46.10    3.30
  -1  -2  -5   45.20    4.80
   1   2   5   38.60    4.60
  -2  -2  -5    0.90    0.90
  -2  -2  -5    0.90    1.50
  -2  -2  -5    1.10    1.00
   2   2   5    0.50    1.40
  -3  -2  -5   -0.80    0.80
  -3  -2  -5   -1.40    1.30
  -3  -2  -5   -1.60    0.80
   3   2   5    5.20    2.10
  -6  -2  -5    1.30    1.30
  -6  -2  -5    0.50    2.00
  12  -3  -5    0.40    1.90
 -12   3   5   -7.80    4.60
 -12   3   5    2.00    1.80
  11  -3  -5    3.40    1.50
  11  -3  -5    3.70    2.00
 -11   3   5   -8.30    3.70
 -11   3   5    2.70    1.80
  10  -3  -5   29.30    3.60
  10  -3  -5   27.00    3.20
 -10   3   5   20.70    2.90
 -10   3   5   21.40    4.30
   9  -3  -5    5.00    1.40
   9  -3  -5   -0.10    1.20
   9  -3  -5    1.80    1.50
  -9   3   5    3.40    1.40
  -9   3   5    4.00    1.70
  -9   3   5    0.60    3.10
   8  -3  -5   19.10    2.60
   8  -3  -5   21.10    2.40
   8  -3  -5   17.50    2.50
  -8   3   5   27.80    2.90
  -8   3   5   17.20    2.50
  -8   3   5   15.10    3.50
   7  -3  -5   -1.60    1.00
   7  -3  -5    0.60    1.00
   7  -3  -5   -1.00    0.70
  -7   3   5   -0.40    1.10
  -7   3   5   -0.80    1.80
  -7   3   5    0.40    1.10
   6  -3  -5    3.80    1.20
   6  -3  -5    5.10    1.20
   6  -3  -5    7.60    1.50
  -6   3   5    4.80    1.40
  -6   3   5    7.40    1.80
  -6   3   5    7.10    1.60
   5  -3  -5   10.70    1.80
   5  -3  -5   10.60    1.70
   5  -3  -5   10.20    1.60
  -5   3   5   13.70    2.30
  -5   3   5   12.30    1.80
  -5   3   5   12.60    2.00
   4  -3  -5  137.89    8.50
   4  -3  -5  140.89    8.40
   4  -3  -5  126.69    8.00
  -4   3   5  144.49    8.40
  -4   3   5  148.99    8.60
  -4   3   5  131.29    9.00
   3  -3  -5    4.20    1.10
   3  -3  -5    6.50    1.30
   3  -3  -5    5.40    1.20
  -3   3   5    3.70    1.40
  -3   3   5    3.10    1.10
   2  -3  -5   64.39    4.60
   2  -3  -5   67.79    4.60
   2  -3  -5   67.09    4.60
  -2   3   5   71.79    4.70
  -2   3   5   69.79    5.60
   1  -3  -5    3.00    1.10
   1  -3  -5    2.90    1.00
   1  -3  -5    1.70    0.90
  -1   3   5    1.20    1.00
  -1   3   5    2.10    1.30
   0  -3  -5    2.80    1.00
   0  -3  -5    2.10    1.00
   0  -3  -5    2.60    0.90
   0   3   5    1.30    1.10
   0   3   5    1.10    1.60
  -1  -3  -5   -1.40    0.80
  -1  -3  -5    0.30    1.20
  -1  -3  -5   -1.10    0.90
   1   3   5   -1.20    1.10
  -2  -3  -5    9.10    2.50
  -2  -3  -5   15.20    2.00
  -2  -3  -5   10.80    1.80
  -3  -3  -5    6.60    2.60
  -3  -3  -5    8.20    1.70
  -3  -3  -5   11.10    1.90
  -4  -3  -5   18.90    2.50
  -4  -3  -5   18.90    2.50
  -4  -3  -5   17.70    3.90
  12  -4  -5   -2.50    1.70
 -12   4   5    0.60    1.80
  11  -4  -5   21.20    3.20
  11  -4  -5   18.70    2.90
 -11   4   5   13.60    2.60
 -11   4   5   10.20    4.70
  10  -4  -5    1.20    1.30
  10  -4  -5    1.10    1.70
 -10   4   5    0.40    3.30
 -10   4   5    1.70    1.60
   9  -4  -5   65.79    5.40
   9  -4  -5   67.39    5.30
  -9   4   5   73.39    7.30
  -9   4   5   64.89    5.50
  -9   4   5   76.69    5.50
   8  -4  -5    0.80    1.40
   8  -4  -5    0.00    1.00
   8  -4  -5    1.20    1.50
  -8   4   5    0.80    1.40
  -8   4   5   -0.40    1.30
  -8   4   5    0.40    2.10
   7  -4  -5   37.40    3.50
   7  -4  -5   35.40    3.20
   7  -4  -5   37.00    3.40
  -7   4   5   44.90    4.50
  -7   4   5   45.50    3.80
  -7   4   5   32.50    3.30
   6  -4  -5    1.60    1.00
   6  -4  -5   -0.90    0.90
   6  -4  -5   -0.70    0.90
  -6   4   5    0.60    1.10
  -6   4   5    0.80    0.90
  -6   4   5    2.50    1.30
   5  -4  -5   91.69    5.80
   5  -4  -5   95.09    6.00
   5  -4  -5   97.19    6.30
  -5   4   5   72.79    5.70
  -5   4   5   96.09    7.00
  -5   4   5   86.79    6.10
   4  -4  -5   30.60    2.60
   4  -4  -5   24.00    2.70
   4  -4  -5   31.00    2.90
  -4   4   5   25.50    3.30
  -4   4   5   27.80    2.80
   3  -4  -5  226.08   12.90
   3  -4  -5  219.28   13.10
   3  -4  -5  227.18   13.00
  -3   4   5  211.88   12.90
  -3   4   5  223.38   14.10
   2  -4  -5    5.10    1.40
   2  -4  -5    4.20    1.30
   2  -4  -5    3.20    1.10
  -2   4   5    1.00    1.10
  -2   4   5    4.60    1.90
   1  -4  -5   40.50    3.20
   1  -4  -5   43.10    3.30
   1  -4  -5   38.90    3.20
  -1   4   5   38.30    3.20
  -1   4   5   33.90    4.10
   0  -4  -5    3.00    1.00
   0  -4  -5    1.90    1.00
   0   4   5    3.30    1.40
   0   4   5    6.70    1.90
  -1  -4  -5    9.60    2.80
  -1  -4  -5    8.90    1.80
  -1  -4  -5    8.80    1.80
  -2  -4  -5    2.60    1.30
  -3  -4  -5   25.80    3.10
  -3  -4  -5   21.90    4.30
  -3  -4  -5   36.60    3.20
  -5  -4  -5    8.10    2.10
  -5  -4  -5    9.40    2.20
  11  -5  -5    2.80    1.80
  11  -5  -5    2.50    2.00
 -11   5   5    0.50    1.80
 -11   5   5    0.70    3.60
  10  -5  -5    4.90    1.80
  10  -5  -5    9.60    2.30
 -10   5   5    8.10    3.30
 -10   5   5    8.40    2.20
   9  -5  -5    0.00    1.50
   9  -5  -5    0.30    1.50
  -9   5   5    8.40    2.60
  -9   5   5   -1.80    1.20
   8  -5  -5   16.30    2.40
   8  -5  -5   16.20    2.30
   8  -5  -5   21.20    3.00
  -8   5   5   15.70    2.50
  -8   5   5   14.10    2.50
   7  -5  -5    2.00    1.20
   7  -5  -5    0.60    1.40
   7  -5  -5    0.10    1.30
  -7   5   5    3.00    1.50
  -7   5   5    0.30    1.40
   6  -5  -5   20.40    2.40
   6  -5  -5   19.30    2.40
   6  -5  -5   15.20    2.60
  -6   5   5   26.30    3.20
  -6   5   5   20.50    2.60
   5  -5  -5   -0.50    0.70
   5  -5  -5    0.30    0.90
  -5   5   5    0.50    1.30
  -5   5   5    0.50    1.10
   4  -5  -5   60.69    4.50
   4  -5  -5   62.79    4.70
   4  -5  -5   64.89    4.50
  -4   5   5   64.69    5.50
  -4   5   5   63.09    4.60
   3  -5  -5    9.20    1.80
   3  -5  -5   12.10    1.90
   3  -5  -5    7.00    1.60
  -3   5   5   13.50    2.80
  -3   5   5    9.10    1.80
   2  -5  -5   61.49    4.50
   2  -5  -5   55.29    4.50
   2  -5  -5   60.89    4.40
  -2   5   5   58.99    4.40
  -2   5   5   60.39    5.50
   1  -5  -5    1.20    1.10
   1  -5  -5    2.00    1.00
   1  -5  -5    0.50    1.10
  -1   5   5    7.60    2.10
  -1   5   5    0.10    1.20
   0  -5  -5   15.80    2.30
   0  -5  -5   13.10    2.20
  -1  -5  -5    5.30    1.70
  -1  -5  -5    5.50    1.60
  -2  -5  -5   14.10    2.30
  -2  -5  -5    9.00    3.00
  -2  -5  -5    8.70    2.10
  -4  -5  -5    2.80    1.80
  -4  -5  -5    0.50    1.20
  11  -6  -5    0.30    1.90
  11  -6  -5   -0.30    2.10
 -11   6   5   -0.10    1.90
 -11   6   5    6.70    3.10
  10  -6  -5    1.60    2.00
  10  -6  -5    1.80    1.80
 -10   6   5    7.60    2.20
 -10   6   5    4.20    2.00
   9  -6  -5    5.80    2.10
   9  -6  -5    6.30    2.20
  -9   6   5    4.40    2.00
   8  -6  -5    2.00    1.70
   8  -6  -5    1.90    1.70
  -8   6   5    3.10    1.70
   7  -6  -5    4.70    1.50
   7  -6  -5    2.10    1.50
   7  -6  -5    2.40    1.60
  -7   6   5    8.50    2.00
   6  -6  -5    7.70    2.10
   6  -6  -5    9.30    1.80
  -6   6   5    6.30    1.80
   5  -6  -5    0.90    1.20
   5  -6  -5   -0.10    1.00
   5  -6  -5   -0.90    1.00
  -5   6   5   -1.20    1.00
   4  -6  -5    7.60    1.90
   4  -6  -5    7.50    1.70
   4  -6  -5    4.70    1.50
  -4   6   5    6.70    1.70
   3  -6  -5   11.80    2.00
   3  -6  -5   10.30    1.90
   3  -6  -5   10.40    2.20
  -3   6   5   12.40    2.10
   2  -6  -5    2.60    1.30
   2  -6  -5    1.80    1.10
  -2   6   5    2.50    1.40
   1  -6  -5    7.30    1.80
   1  -6  -5    7.80    1.80
   1  -6  -5    6.60    1.60
  -1   6   5    9.20    2.00
  -1  -6  -5   10.90    2.30
  -2  -6  -5    1.80    1.70
  -2  -6  -5    0.80    1.40
  -3  -6  -5   10.30    2.20
  -3  -6  -5    8.20    2.40
  10  -7  -5    2.20    2.10
  10  -7  -5   -0.20    1.90
   9  -7  -5    1.40    2.00
   9  -7  -5   -0.10    1.80
  -7   7   5    2.20    1.90
   6  -7  -5    1.80    1.40
   6  -7  -5    0.90    1.60
   6  -7  -5   -0.40    1.20
  -6   7   5    1.80    1.50
   5  -7  -5    0.60    1.30
   5  -7  -5    0.10    1.30
  -5   7   5    1.20    1.60
   4  -7  -5    1.80    1.40
   4  -7  -5    0.10    1.30
   4  -7  -5    0.70    1.30
   3  -7  -5    1.60    1.30
   3  -7  -5    0.60    1.40
   3  -7  -5    1.80    1.70
  -3   7   5    1.60    1.50
   2  -7  -5    5.50    1.80
   2  -7  -5    5.70    1.70
   2  -7  -5    9.40    2.20
  -2   7   5    8.00    1.90
  -1  -7  -5    0.00    1.70
  -1  -7  -5    1.80    1.70
   9  -8  -5    1.70    1.60
   1  -8  -5    5.30    2.10
   5  -9  -5    3.60    2.30
  -1 -13   6    0.60    1.70
   0 -13   6   -1.10    1.70
   0 -13   6   -0.30    2.00
   1 -13   6    2.80    2.20
   1 -13   6    0.10    1.90
  -4 -12   6    2.10    2.30
  -4 -12   6    1.60    1.70
  -3 -12   6    3.10    2.10
  -3 -12   6    5.40    1.80
  -2 -12   6    0.10    1.10
  -2 -12   6    2.90    2.10
  -1 -12   6    3.00    1.80
  -1 -12   6    4.40    2.20
   0 -12   6   -4.20    1.10
   0 -12   6    1.20    1.80
   1 -12   6    0.20    1.60
   1 -12   6   -0.20    1.30
   2 -12   6   -1.10    1.60
   2 -12   6    0.80    1.70
   3 -12   6    3.10    2.00
   3 -12   6    1.20    1.70
   4 -12   6   -1.20    1.90
  -6 -11   6   -0.60    1.80
  -6 -11   6    0.60    2.10
  -5 -11   6    1.70    1.80
  -5 -11   6    0.30    1.90
   4  11  -6    1.50    1.20
  -4 -11   6    0.80    1.90
  -4 -11   6   -0.10    1.50
  -4 -11   6   -0.10    1.30
  -3 -11   6   -0.90    1.70
  -3 -11   6   -0.60    1.40
  -3 -11   6    0.00    0.90
  -2 -11   6    1.90    1.80
  -2 -11   6    1.90    1.40
  -1 -11   6    0.00    1.50
  -1 -11   6   -1.00    1.20
   0 -11   6   -0.10    1.40
   0 -11   6    1.00    1.30
   1 -11   6    9.30    1.90
   1 -11   6   10.90    2.20
   2 -11   6    0.30    1.60
   2 -11   6   -0.10    1.40
   3 -11   6    3.70    1.70
   3 -11   6    3.60    1.90
   4 -11   6   -0.60    1.50
   5 -11   6    0.40    1.80
  -7 -10   6    3.60    1.90
  -7 -10   6    0.10    2.00
   6  10  -6    8.40    1.90
  -6 -10   6   12.80    2.60
  -6 -10   6   10.80    2.50
  -6 -10   6   12.20    2.30
   5  10  -6    1.80    1.20
  -5 -10   6    0.80    1.80
  -5 -10   6    1.30    1.60
  -5 -10   6    3.00    1.50
   4  10  -6    0.90    1.00
  -4 -10   6    3.90    1.70
  -4 -10   6    1.20    1.40
  -4 -10   6    2.80    1.40
  -3 -10   6   16.60    2.90
  -3 -10   6   12.10    2.00
  -3 -10   6   12.10    2.00
  -2 -10   6    1.10    1.20
  -2 -10   6    0.80    1.50
  -1 -10   6   -0.30    1.20
  -1 -10   6    0.80    1.10
   0 -10   6   -0.10    1.30
   0 -10   6    2.50    1.10
   1 -10   6    0.10    1.10
   1 -10   6   -0.50    1.20
   2 -10   6    4.20    1.60
   2 -10   6    3.50    1.40
   3 -10   6    1.20    1.40
   4 -10   6    2.60    1.70
   5 -10   6    1.90    1.80
  -6  10  -6   -2.30    3.20
   6 -10   6    4.20    2.00
  -8  -9   6   26.00    3.50
  -8  -9   6   25.50    4.00
   7   9  -6   10.80    1.80
  -7  -9   6   12.10    2.30
  -7  -9   6   13.10    2.20
  -7  -9   6    9.10    2.60
   6   9  -6   39.30    3.20
  -6  -9   6   44.10    4.10
  -6  -9   6   41.10    4.10
  -6  -9   6   46.50    3.70
   5   9  -6    9.70    1.60
  -5  -9   6    8.20    2.00
  -5  -9   6    9.90    2.30
  -5  -9   6   11.30    1.90
   4   9  -6   26.20    2.50
  -4  -9   6   30.00    2.80
  -4  -9   6   28.50    3.60
  -4  -9   6   30.60    3.20
  -3  -9   6   14.40    2.10
  -3  -9   6   17.30    2.20
  -3  -9   6   16.60    2.70
  -2  -9   6    1.60    1.50
  -2  -9   6    4.20    1.40
  -2  -9   6    4.40    1.30
  -1  -9   6   98.49    7.00
  -1  -9   6  104.79    6.60
   0  -9   6    4.80    1.60
   0  -9   6    5.80    1.40
   1  -9   6   72.39    5.30
   1  -9   6   69.09    5.10
   2  -9   6    3.40    1.40
   2  -9   6    3.10    1.50
   3  -9   6    0.40    1.30
  -4   9  -6    8.20    2.70
   4  -9   6    5.80    1.80
  -5   9  -6    1.90    2.20
   5  -9   6    2.70    1.70
  -6   9  -6    6.80    3.00
   6  -9   6    7.40    2.20
  -7   9  -6    2.00    3.10
   7  -9   6    2.90    1.90
  -9  -8   6   12.70    3.10
  -9  -8   6   13.50    2.60
   8   8  -6    2.50    1.30
  -8  -8   6    2.60    2.00
  -8  -8   6    1.90    1.40
  -8  -8   6    1.70    1.40
   7   8  -6   26.60    2.50
  -7  -8   6   22.20    3.50
  -7  -8   6   26.30    3.20
  -7  -8   6   22.40    2.80
   6   8  -6   92.79    6.10
  -6  -8   6  104.09    6.80
  -6  -8   6   92.69    6.40
  -6  -8   6   95.09    7.10
   5   8  -6   12.30    1.80
  -5  -8   6   13.40    2.20
  -5  -8   6   12.90    2.60
  -5  -8   6   13.10    2.00
   4   8  -6  394.16   22.30
  -4  -8   6  385.56   23.10
  -4  -8   6  397.26   22.60
  -4  -8   6  417.86   22.50
  -3  -8   6   44.90    3.40
  -3  -8   6   43.80    3.70
  -3  -8   6   39.20    3.30
  -2  -8   6  149.99    8.80
  -2  -8   6  146.69    9.30
  -2  -8   6  144.59    8.80
  -1  -8   6   97.19    6.60
  -1  -8   6   98.89    6.30
   0  -8   6    8.90    1.60
   0  -8   6   12.60    2.00
   1  -8   6   39.50    3.30
   1  -8   6   46.50    3.70
  -2   8  -6   10.60    2.40
   2  -8   6    8.80    1.70
   2  -8   6    7.70    1.60
  -3   8  -6   27.60    3.80
   3  -8   6   19.30    2.60
  -4   8  -6    0.40    1.40
   4  -8   6   -0.90    1.20
  -5   8  -6    1.50    1.80
   5  -8   6    1.20    1.30
  -6   8  -6    8.40    3.00
   6  -8   6    6.50    2.00
  -7   8  -6    3.50    2.00
   7  -8   6    2.90    1.70
 -10  -7   6    0.70    1.90
   9   7  -6    3.80    1.50
  -9  -7   6    2.80    1.90
  -9  -7   6    5.20    2.30
   8   7  -6    0.10    1.00
  -8  -7   6    0.90    1.60
  -8  -7   6   -0.70    1.40
  -8  -7   6    2.20    1.40
   7   7  -6   18.40    2.20
  -7  -7   6   18.30    2.70
  -7  -7   6   17.80    3.00
  -7  -7   6   15.00    2.30
   6   7  -6   22.70    2.20
  -6  -7   6   24.50    2.90
  -6  -7   6   25.30    2.70
  -6  -7   6   27.90    3.50
   5   7  -6   19.40    2.10
  -5  -7   6   20.50    2.30
  -5  -7   6   21.90    2.60
  -5  -7   6   20.40    2.90
   4   7  -6  123.19    7.20
  -4  -7   6  116.09    7.30
  -4  -7   6  116.09    7.90
  -4  -7   6  112.39    7.40
  -3  -7   6    4.70    1.30
  -3  -7   6    6.10    1.10
  -3  -7   6    6.90    1.30
  -2  -7   6  278.07   15.90
  -2  -7   6  280.57   16.40
  -2  -7   6  285.27   16.00
  -1  -7   6    4.10    1.30
  -1  -7   6    3.20    0.90
  -1  -7   6    3.20    1.00
   0  -7   6  249.38   14.30
   0  -7   6  246.08   14.50
  -1   7  -6  281.07   16.60
   1  -7   6  253.07   15.40
   1  -7   6  266.57   15.40
  -2   7  -6   35.80    4.10
   2  -7   6   30.50    2.80
   2  -7   6   35.10    3.00
  -3   7  -6  339.17   21.30
   3  -7   6  341.57   19.50
  -4   7  -6    0.80    1.80
   4  -7   6    1.00    1.20
  -5   7  -6   16.00    3.60
   5  -7   6   16.30    2.30
  -6   7  -6    0.50    1.90
   6  -7   6   -0.40    1.20
  -7   7  -6    2.30    2.10
   7  -7   6   -0.90    1.70
 -11  -6   6    2.30    2.10
 -11  -6   6    1.80    1.70
  10   6  -6    5.80    1.80
 -10  -6   6    9.70    2.00
 -10  -6   6    8.60    2.40
   9   6  -6   -0.10    1.10
  -9  -6   6   -1.80    1.60
  -9  -6   6   -1.00    1.10
  -9  -6   6   -0.70    1.10
   8   6  -6    0.20    1.10
  -8  -6   6   -1.20    0.80
  -8  -6   6   -0.70    1.40
  -8  -6   6   -0.50    1.20
  -8  -6   6    3.10    1.80
   7   6  -6   13.00    1.80
  -7  -6   6   13.40    2.30
  -7  -6   6   12.00    1.90
  -7  -6   6   11.40    1.70
  -7  -6   6   12.60    2.50
   6   6  -6   71.49    4.70
  -6  -6   6   70.99    4.90
  -6  -6   6   68.99    4.50
  -6  -6   6   64.69    5.30
  -6  -6   6   69.39    5.10
   5   6  -6  141.59    8.20
  -5  -6   6  144.89    8.50
  -5  -6   6  136.79    8.30
  -5  -6   6  137.09    8.90
  -5  -6   6  123.79    8.00
   4   6  -6  122.89    7.30
  -4  -6   6  129.19    8.00
  -4  -6   6  116.59    7.40
  -4  -6   6  117.69    7.50
  -3  -6   6  169.98    9.80
  -3  -6   6  172.38   10.30
  -3  -6   6  159.78    9.80
  -2  -6   6   26.40    2.20
  -2  -6   6   25.90    2.20
  -2  -6   6   30.30    2.70
   1   6  -6   30.00    2.90
  -1  -6   6   32.90    2.40
  -1  -6   6   30.60    2.70
  -1  -6   6   32.00    2.40
   0   6  -6   74.99    5.80
   0  -6   6   77.19    5.00
   0  -6   6   77.99    5.20
  -1   6  -6   80.99    6.40
   1  -6   6   79.29    5.30
   1  -6   6   81.19    5.20
  -2   6  -6   17.40    3.00
   2  -6   6   19.50    2.10
  -3   6  -6   20.70    3.60
   3  -6   6   22.40    2.40
  -4   6  -6    1.00    1.70
   4  -6   6    2.10    1.10
  -5   6  -6   16.70    3.70
   5  -6   6   21.20    2.50
  -6   6  -6    2.70    2.30
   6  -6   6    4.80    2.10
  -7   6  -6    1.20    1.90
  11   5  -6    3.40    1.60
 -11  -5   6    3.60    2.10
 -11  -5   6    1.90    1.60
  10   5  -6    0.00    1.50
  10   5  -6   -0.40    1.10
 -10  -5   6    0.50    1.90
 -10  -5   6    2.50    1.70
 -10  -5   6    1.10    1.30
   9   5  -6    4.00    1.70
   9   5  -6    5.70    1.40
  -9  -5   6    6.30    1.50
  -9  -5   6    4.70    2.10
  -9  -5   6    4.00    1.80
   8   5  -6   -0.10    0.80
  -8  -5   6   -1.70    1.00
  -8  -5   6    0.60    1.60
  -8  -5   6   -0.60    0.90
  -8  -5   6   -1.70    1.20
   7   5  -6   -1.00    0.80
  -7  -5   6    1.00    1.20
  -7  -5   6    1.70    0.90
  -7  -5   6    1.40    1.30
  -7  -5   6    0.60    1.10
   6   5  -6   14.40    1.70
  -6  -5   6   11.90    2.00
  -6  -5   6   15.40    1.70
  -6  -5   6   14.70    2.50
  -6  -5   6   13.40    1.90
   5   5  -6   28.90    2.30
  -5  -5   6   25.10    2.10
  -5  -5   6   27.60    2.80
  -5  -5   6   25.30    2.40
  -5  -5   6   29.60    2.60
   4   5  -6   54.89    3.50
  -4  -5   6   50.59    3.70
  -4  -5   6   50.89    4.00
  -4  -5   6   55.49    3.70
  -4  -5   6   48.40    3.30
   3   5  -6   32.50    2.30
  -3  -5   6   31.60    2.50
  -3  -5   6   30.20    2.30
  -3  -5   6   28.20    2.10
  -3  -5   6   31.80    2.90
   2   5  -6    1.80    0.90
  -2  -5   6    2.40    0.50
  -2  -5   6    0.90    0.70
  -2  -5   6    1.20    0.80
  -2  -5   6    1.20    0.70
  -2  -5   6    1.90    0.80
   1   5  -6   30.70    2.00
   1   5  -6   28.80    3.00
  -1  -5   6   29.80    3.10
  -1  -5   6   28.90    2.30
  -1  -5   6   33.30    2.10
  -1  -5   6   29.30    2.60
  -1  -5   6   31.30    2.40
   0   5  -6   10.90    1.00
   0   5  -6    8.70    1.90
   0  -5   6    8.40    1.00
   0  -5   6    8.60    1.40
   0  -5   6   11.00    1.30
   0  -5   6    6.90    1.10
  -1   5  -6   75.09    6.20
  -1   5  -6   77.69    4.60
   1  -5   6   75.09    4.90
   1  -5   6   74.29    4.80
  -2   5  -6  342.57   21.10
   2  -5   6  341.97   19.20
  -3   5  -6   52.99    5.60
   3  -5   6   51.89    3.70
  -4   5  -6   71.99    6.90
   4  -5   6   67.69    4.70
  -5   5  -6   -0.30    1.70
  -6   5  -6   -0.30    1.70
  -7   5  -6    2.80    2.50
  12   4  -6   -0.70    1.60
 -12  -4   6    2.30    1.70
 -12  -4   6    2.50    2.20
  11   4  -6    1.40    1.40
 -11  -4   6    0.50    1.40
 -11  -4   6    4.30    2.00
  10   4  -6   20.10    2.70
  10   4  -6   15.80    2.60
 -10  -4   6   21.70    3.50
 -10  -4   6   16.20    2.40
 -10  -4   6   18.90    3.00
   9   4  -6    0.20    1.30
   9   4  -6   -1.40    1.00
  -9  -4   6    0.50    1.60
  -9  -4   6    0.00    1.10
  -9  -4   6   -0.10    1.10
   8   4  -6   32.60    3.10
   8   4  -6   34.30    2.90
  -8  -4   6   41.60    4.00
  -8  -4   6   35.60    3.70
  -8  -4   6   33.50    2.80
   7   4  -6    6.50    1.30
  -7  -4   6    5.70    1.50
  -7  -4   6    3.90    1.20
  -7  -4   6    5.90    1.20
  -7  -4   6    0.60    1.10
   6   4  -6    0.10    0.80
  -6  -4   6    0.80    1.00
  -6  -4   6    1.00    1.40
  -6  -4   6    2.60    1.10
  -6  -4   6    0.60    0.70
   5   4  -6    0.10    0.50
  -5  -4   6    1.10    1.20
  -5  -4   6    0.60    0.60
  -5  -4   6   -0.20    0.60
  -5  -4   6    0.70    0.60
   4   4  -6    1.60    0.60
  -4  -4   6    0.90    0.60
  -4  -4   6    1.60    0.60
  -4  -4   6    0.20    0.70
  -4  -4   6    1.50    0.60
  -4  -4   6    0.90    0.80
   3   4  -6   26.70    2.10
   3   4  -6   29.80    2.60
  -3  -4   6   24.90    2.30
  -3  -4   6   24.70    2.40
  -3  -4   6   21.50    2.60
  -3  -4   6   26.60    1.90
   2   4  -6    3.40    1.00
  -2  -4   6    0.60    0.70
  -2  -4   6    3.70    0.70
  -2  -4   6    4.40    1.00
  -2  -4   6    3.30    1.10
  -2  -4   6    4.30    0.80
   1   4  -6   10.00    1.00
   1   4  -6    8.40    1.70
  -1  -4   6    7.20    1.60
  -1  -4   6    8.60    1.00
  -1  -4   6    9.20    1.20
  -1  -4   6   10.70    1.30
  -1  -4   6    9.20    1.50
   0   4  -6    1.00    0.50
   0   4  -6    0.20    0.40
   0   4  -6   -0.10    0.80
   0  -4   6   -0.10    0.90
   0  -4   6    1.10    0.60
   0  -4   6    0.30    0.50
   0  -4   6   -0.10    0.60
   0  -4   6    1.20    0.60
  -1   4  -6   99.69    6.00
  -1   4  -6  101.99    7.70
   1  -4   6  104.19    6.30
   1  -4   6   99.49    6.10
   1  -4   6   98.89    7.70
  -2   4  -6    4.40    1.70
  -2   4  -6    3.40    0.80
   2  -4   6    5.20    1.00
  -3   4  -6   77.09    4.90
  -3   4  -6   73.59    6.70
   3  -4   6   79.59    5.00
  -4   4  -6    5.40    2.30
  -4   4  -6    8.10    1.50
  -5   4  -6   -0.40    1.20
  -5   4  -6   -0.40    0.80
  -6   4  -6    0.90    2.00
  -6   4  -6   -0.20    1.20
  -7   4  -6    1.20    1.50
  -7   4  -6    0.30    1.90
  12   3  -6    2.50    1.90
 -12  -3   6    5.70    2.40
 -12  -3   6    3.60    1.70
  11   3  -6    1.10    1.40
 -11  -3   6    3.00    1.90
 -11  -3   6    2.70    1.50
  10   3  -6    1.00    1.00
  10   3  -6    0.90    1.30
 -10  -3   6    1.20    1.80
 -10  -3   6    2.60    1.70
 -10  -3   6    2.80    1.40
   9   3  -6   26.90    2.90
   9   3  -6   24.40    3.10
  -9  -3   6   27.90    3.80
  -9  -3   6   24.50    2.80
  -9  -3   6   28.80    3.30
   8   3  -6   -0.50    1.10
   8   3  -6   -1.70    0.80
  -8  -3   6   -1.40    0.80
  -8  -3   6   -1.40    1.20
  -8  -3   6   -1.10    1.10
   7   3  -6   30.90    2.60
   7   3  -6   27.30    2.80
  -7  -3   6   27.90    2.80
  -7  -3   6   30.10    3.50
  -7  -3   6   28.90    2.50
  -7  -3   6   29.10    2.70
   6   3  -6   18.70    2.30
   6   3  -6   16.30    1.80
  -6  -3   6   16.20    2.00
  -6  -3   6   16.30    1.90
  -6  -3   6   13.80    2.00
  -6  -3   6   17.40    2.60
   5   3  -6   61.99    4.00
   5   3  -6   56.49    4.30
  -5  -3   6   64.79    4.40
  -5  -3   6   55.39    4.60
  -5  -3   6   56.49    4.10
  -5  -3   6   60.59    4.00
  -5  -3   6   67.09    4.30
   4   3  -6   85.39    5.00
  -4  -3   6   76.59    4.90
  -4  -3   6   74.99    5.00
  -4  -3   6   85.89    5.40
  -4  -3   6   70.09    5.40
  -4  -3   6   78.19    5.20
   3   3  -6  194.98   10.30
  -3  -3   6  184.18   10.60
  -3  -3   6  172.18   10.90
  -3  -3   6  180.48   11.00
  -3  -3   6  179.88   10.40
  -3  -3   6  175.38   10.30
   2   3  -6  154.98    9.50
   2   3  -6  148.59    8.40
  -2  -3   6  148.09    9.10
  -2  -3   6  146.19    8.50
  -2  -3   6  145.69    8.50
  -2  -3   6  145.09    8.70
  -2  -3   6  143.89    9.40
   1   3  -6    1.10    0.60
   1   3  -6    1.10    1.00
   1   3  -6    1.20    0.50
  -1  -3   6    0.80    0.60
  -1  -3   6    1.10    0.80
  -1  -3   6    1.60    0.80
  -1  -3   6   -0.40    0.80
  -1  -3   6    0.30    0.50
   0   3  -6   43.10    4.20
   0   3  -6   43.90    2.80
   0   3  -6   41.70    2.90
   0   3  -6   39.20    2.80
   0  -3   6   40.70    2.90
   0  -3   6   42.30    2.90
   0  -3   6   43.50    3.20
   0  -3   6   44.40    4.20
   0  -3   6   46.20    2.90
  -1   3  -6   63.79    4.10
  -1   3  -6   62.29    3.90
  -1   3  -6   61.49    5.60
   1  -3   6   71.39    4.10
   1  -3   6   63.49    5.70
  -2   3  -6   -0.40    1.10
  -2   3  -6   -0.10    0.60
   2  -3   6    0.40    0.50
   2  -3   6   -0.50    1.20
  -3   3  -6   13.10    1.70
  -3   3  -6   10.90    2.70
   3  -3   6    8.70    2.80
  -4   3  -6    0.70    1.70
  -4   3  -6   -0.60    0.80
  -5   3  -6    3.60    1.20
  -5   3  -6    1.40    2.00
  -6   3  -6   -1.40    1.00
  -6   3  -6   -0.70    0.90
  -7   3  -6    1.40    1.50
  -7   3  -6    2.80    2.50
  12   2  -6    2.00    1.80
 -12  -2   6    0.50    1.40
 -12  -2   6    4.90    2.30
  11   2  -6    1.10    1.50
  11   2  -6   -0.80    1.80
 -11  -2   6    0.20    1.40
 -11  -2   6    2.10    1.80
 -11  -2   6    0.00    2.10
  10   2  -6   17.80    2.50
  10   2  -6   18.00    2.60
 -10  -2   6   16.80    2.80
 -10  -2   6   14.70    2.30
 -10  -2   6   10.10    2.40
   9   2  -6    4.40    1.60
   9   2  -6    5.30    1.50
  -9  -2   6    3.30    1.40
  -9  -2   6    2.60    1.60
  -9  -2   6   10.30    2.10
   8   2  -6   11.90    1.90
   8   2  -6   10.10    1.70
  -8  -2   6   10.30    1.70
  -8  -2   6    8.30    2.00
  -8  -2   6    6.20    1.60
   7   2  -6   -1.50    0.80
   7   2  -6    0.50    0.60
  -7  -2   6    0.80    0.90
  -7  -2   6   -1.40    1.20
  -7  -2   6    3.00    0.90
  -7  -2   6    0.10    0.70
   6   2  -6    6.60    1.40
   6   2  -6    5.20    1.20
  -6  -2   6    5.40    1.50
  -6  -2   6    8.80    1.30
  -6  -2   6    4.10    1.00
  -6  -2   6    5.70    1.30
  -6  -2   6    6.70    1.70
   5   2  -6   33.50    2.50
   5   2  -6   33.20    2.80
  -5  -2   6   35.50    3.40
  -5  -2   6   29.70    2.50
  -5  -2   6   31.80    2.90
  -5  -2   6   36.20    2.90
  -5  -2   6   31.20    2.60
   4   2  -6   10.10    1.50
   4   2  -6   10.60    1.30
  -4  -2   6    8.80    1.30
  -4  -2   6   11.60    1.40
  -4  -2   6    6.80    1.60
  -4  -2   6   10.60    1.60
   3   2  -6   93.89    5.50
   3   2  -6   87.69    5.80
  -3  -2   6   94.09    5.60
  -3  -2   6   93.89    5.90
  -3  -2   6   97.39    6.40
  -3  -2   6   92.09    6.30
  -3  -2   6   88.89    5.60
   2   2  -6  246.18   14.20
   2   2  -6  256.37   13.90
   2   2  -6  239.78   14.00
   2   2  -6  258.47   14.00
  -2  -2   6  248.88   14.20
  -2  -2   6  250.57   14.00
  -2  -2   6  247.48   14.60
  -2  -2   6  247.18   15.00
  -2  -2   6  251.17   14.00
   1   2  -6   70.69    4.80
   1   2  -6   81.39    4.70
   1   2  -6   82.39    5.00
   1   2  -6   81.39    4.90
   1   2  -6   84.79    6.30
  -1  -2   6   80.89    6.10
  -1  -2   6   76.59    5.30
  -1  -2   6   77.99    4.90
  -1  -2   6   80.29    5.00
  -1  -2   6   78.89    4.80
   0   2  -6  168.98   11.20
   0   2  -6  156.38    9.50
   0   2  -6  162.48    9.60
   0   2  -6  169.88    9.50
   0  -2   6  161.68    9.80
   0  -2   6  165.48    9.60
   0  -2   6  163.98   11.10
   0  -2   6  178.48    9.40
   0  -2   6  173.18    9.70
  -1   2  -6    0.50    0.60
  -1   2  -6    0.70    0.60
  -1   2  -6    0.60    1.10
   1  -2   6    0.00    1.20
   1  -2   6    1.10    0.60
  -2   2  -6   69.69    4.30
  -2   2  -6   66.69    4.50
  -2   2  -6   64.69    6.10
   2  -2   6   66.79    6.10
  -3   2  -6   38.90    2.90
  -3   2  -6   32.50    4.50
   3  -2   6   34.60    4.80
  -4   2  -6   10.70    2.90
  -4   2  -6    8.20    1.60
   4  -2   6   10.00    3.20
  -5   2  -6   47.20    3.70
  -5   2  -6   42.80    5.40
  -6   2  -6   -0.40    1.30
  -6   2  -6   -1.50    0.90
  -7   2  -6   -0.10    2.10
  -7   2  -6    1.40    1.40
  12   1  -6   -0.50    1.20
 -12  -1   6    0.70    1.90
 -12  -1   6    0.50    1.60
  11   1  -6    4.20    1.60
  11   1  -6    4.20    1.70
 -11  -1   6    3.80    1.70
 -11  -1   6    3.20    1.90
 -11  -1   6    4.70    2.40
  10   1  -6    1.70    1.10
  10   1  -6    1.60    1.20
 -10  -1   6   -0.60    1.10
 -10  -1   6    3.10    1.70
 -10  -1   6    2.20    1.90
   9   1  -6    2.80    1.50
   9   1  -6    3.80    1.50
  -9  -1   6    4.30    2.10
  -9  -1   6    1.30    1.30
  -9  -1   6   -0.80    2.30
  -9  -1   6    2.10    1.50
   8   1  -6    2.30    1.20
   8   1  -6    3.60    1.50
  -8  -1   6    5.10    1.90
  -8  -1   6    1.70    1.10
  -8  -1   6    2.60    1.20
  -8  -1   6    0.30    1.20
   7   1  -6    1.20    1.10
   7   1  -6    0.20    0.80
  -7  -1   6    0.10    1.00
  -7  -1   6    0.00    0.80
  -7  -1   6    1.00    1.10
  -7  -1   6    1.10    1.00
   6   1  -6   18.10    2.30
   6   1  -6   19.70    2.10
  -6  -1   6   22.80    2.10
  -6  -1   6   17.80    2.40
  -6  -1   6   17.00    2.70
  -6  -1   6   22.30    2.30
   5   1  -6   -0.70    0.60
   5   1  -6    0.50    0.70
  -5  -1   6    1.20    1.00
  -5  -1   6    0.90    0.80
  -5  -1   6   -0.20    0.70
  -5  -1   6   -0.60    0.60
   4   1  -6   44.40    3.10
   4   1  -6   42.00    3.20
   4   1  -6   46.50    3.00
  -4  -1   6   42.60    3.60
  -4  -1   6   40.90    3.30
  -4  -1   6   39.60    3.00
  -4  -1   6   38.20    3.70
  -4  -1   6   42.20    3.10
   3   1  -6   13.30    1.30
   3   1  -6   14.90    1.80
   3   1  -6   14.40    1.60
  -3  -1   6   11.50    1.90
  -3  -1   6   15.00    1.50
  -3  -1   6   15.80    1.70
  -3  -1   6   18.10    2.00
  -3  -1   6   16.00    2.20
   2   1  -6   37.60    2.80
   2   1  -6   38.10    2.50
   2   1  -6   34.00    2.80
   2   1  -6   41.10    2.70
  -2  -1   6   37.40    2.70
  -2  -1   6   39.40    2.60
  -2  -1   6   35.90    3.20
  -2  -1   6   36.80    3.60
  -2  -1   6   38.30    2.90
   1   1  -6    0.20    0.50
   1   1  -6    0.50    0.40
   1   1  -6   -0.30    0.60
   1   1  -6   -0.80    1.10
   1   1  -6    0.80    0.60
  -1  -1   6    0.30    0.70
  -1  -1   6    0.40    0.70
  -1  -1   6    0.50    0.50
  -1  -1   6   -0.10    0.80
  -1  -1   6    0.40    0.60
   0   1  -6   51.29    3.40
   0   1  -6   53.09    3.50
   0   1  -6   52.39    3.30
   0   1  -6   51.19    4.90
   0  -1   6   42.90    4.60
   0  -1   6   54.39    3.60
  -1   1  -6    0.20    0.60
  -1   1  -6    0.20    0.70
  -1   1  -6    1.80    1.40
   1  -1   6    0.10    1.20
   1  -1   6   -0.70    0.70
  -2   1  -6   38.30    3.00
  -2   1  -6   40.30    2.70
  -2   1  -6   34.90    4.20
   2  -1   6   34.10    4.30
  -3   1  -6    3.70    1.70
  -3   1  -6    2.10    1.10
   3  -1   6    2.30    1.90
  -4   1  -6    4.80    2.30
  -4   1  -6    4.30    1.30
   4  -1   6   11.80    3.20
  -5   1  -6    4.60    1.50
  -5   1  -6    6.30    2.50
  -6   1  -6   -0.60    1.00
  -6   1  -6   -0.70    1.90
  -7   1  -6    2.50    2.60
  -7   1  -6    5.10    1.70
  12   0  -6    0.20    1.70
 -12   0   6   -0.20    1.60
  11   0  -6   -0.40    1.10
  11   0  -6    0.60    1.40
 -11   0   6    0.20    1.10
 -11   0   6    1.20    1.60
 -11   0   6    1.00    1.70
  10   0  -6    0.70    1.40
  10   0  -6    3.00    1.60
 -10   0   6    5.90    2.00
 -10   0   6    3.50    2.30
 -10   0   6   -2.90    2.80
 -10   0   6    1.90    1.20
   9   0  -6   -1.60    1.10
   9   0  -6   -0.60    0.80
  -9   0   6   -1.50    1.10
  -9   0   6   -0.20    1.10
  -9   0   6   -0.50    1.10
  -9   0   6   -1.60    2.20
   8   0  -6    2.10    1.10
   8   0  -6    1.40    1.10
  -8   0   6    1.90    1.40
  -8   0   6    1.90    1.50
  -8   0   6    3.30    1.90
  -8   0   6    2.00    1.00
   7   0  -6    1.10    0.80
   7   0  -6    0.70    1.00
  -7   0   6    1.20    1.50
  -7   0   6    1.60    1.10
  -7   0   6   -0.10    0.70
  -7   0   6    1.20    1.20
   6   0  -6    6.20    1.40
   6   0  -6    4.40    1.10
  -6   0   6    7.50    1.80
  -6   0   6    5.50    1.40
  -6   0   6    6.00    1.50
  -6   0   6    6.40    1.40
   5   0  -6    9.20    1.30
   5   0  -6    9.50    1.40
   5   0  -6   10.40    1.70
  -5   0   6   12.50    2.00
  -5   0   6    7.30    1.50
  -5   0   6   10.80    2.20
  -5   0   6   10.90    1.60
   4   0  -6   87.29    5.80
   4   0  -6   92.29    5.50
   4   0  -6   83.19    5.60
  -4   0   6   91.09    6.30
  -4   0   6   96.39    6.50
  -4   0   6   86.69    5.80
  -4   0   6   90.49    5.70
   3   0  -6   42.20    3.20
   3   0  -6   42.70    3.00
   3   0  -6   40.30    2.80
  -3   0   6   40.10    3.60
  -3   0   6   39.00    3.00
  -3   0   6   41.00    3.20
  -3   0   6   43.90    3.70
   2   0  -6   70.19    4.40
   2   0  -6   64.59    4.00
   2   0  -6   67.09    4.30
   2   0  -6   63.99    4.40
  -2   0   6   63.09    5.30
  -2   0   6   69.29    4.40
  -2   0   6   72.09    4.60
   1   0  -6    9.70    1.30
   1   0  -6   11.30    1.40
   1   0  -6   10.40    1.40
  -1   0   6    8.40    1.50
  -1   0   6    7.10    1.80
  -1   0   6   10.70    1.50
   0   0  -6    5.10    1.10
   0   0  -6    4.90    1.10
   0   0  -6    5.20    1.10
   0   0  -6    7.60    2.10
   0   0   6    3.60    0.90
   0   0   6    4.60    1.80
  -1   0  -6    4.90    1.00
  -1   0  -6    3.00    1.70
  -1   0  -6    3.10    1.00
   1   0   6    1.70    1.00
   1   0   6    1.70    1.60
  -2   0  -6    2.30    0.90
  -2   0  -6    2.90    0.90
  -2   0  -6    1.80    1.60
   2   0   6    2.00    1.70
  -3   0  -6    0.20    0.80
  -3   0  -6    0.60    0.90
  -3   0  -6    0.00    1.20
   3   0   6   -0.30    1.50
  -4   0  -6    1.90    1.90
  -6   0  -6   -0.40    1.20
  -6   0  -6    0.10    1.90
  12  -1  -6    9.10    2.40
 -12   1   6    6.60    1.90
  11  -1  -6    3.20    1.80
  11  -1  -6    3.40    1.80
 -11   1   6    0.90    2.00
 -11   1   6   -5.20    3.30
 -11   1   6    1.20    1.50
  10  -1  -6   -0.60    1.40
  10  -1  -6    5.20    1.80
 -10   1   6    3.00    1.30
 -10   1   6   -0.70    2.80
 -10   1   6    4.60    1.90
   9  -1  -6    0.60    1.00
   9  -1  -6    2.10    1.50
  -9   1   6    0.50    1.30
  -9   1   6    2.10    1.60
  -9   1   6    1.50    2.30
   8  -1  -6    5.30    1.40
   8  -1  -6    8.80    1.70
   8  -1  -6    6.40    1.60
  -8   1   6    6.60    2.20
  -8   1   6    7.20    1.80
  -8   1   6    7.00    2.20
   7  -1  -6   -0.30    1.00
   7  -1  -6    0.10    1.00
   7  -1  -6   -0.20    0.70
  -7   1   6    0.10    1.00
  -7   1   6    0.10    0.90
  -7   1   6    0.80    1.70
  -7   1   6   -1.90    1.00
   6  -1  -6   65.69    4.50
   6  -1  -6   66.99    4.50
   6  -1  -6   65.79    4.70
  -6   1   6   69.99    5.20
  -6   1   6   62.09    4.50
  -6   1   6   73.79    5.00
  -6   1   6   48.50    5.00
   5  -1  -6   11.10    1.70
   5  -1  -6   13.00    1.60
   5  -1  -6   12.30    1.60
  -5   1   6    9.00    1.60
  -5   1   6   11.80    2.10
  -5   1   6   12.10    1.80
   4  -1  -6   63.99    4.30
   4  -1  -6   57.59    4.00
   4  -1  -6   61.29    3.90
  -4   1   6   52.99    4.60
  -4   1   6   56.49    4.00
  -4   1   6   58.59    4.30
   3  -1  -6   30.10    2.50
   3  -1  -6   26.90    2.30
   3  -1  -6   28.00    2.40
   3  -1  -6   30.60    2.20
  -3   1   6   25.00    2.90
  -3   1   6   26.20    2.40
  -3   1   6   33.30    2.80
   2  -1  -6   19.80    2.00
   2  -1  -6   21.30    1.90
   2  -1  -6   21.00    2.20
  -2   1   6   16.90    2.50
  -2   1   6   18.20    2.00
  -2   1   6   21.30    2.40
   1  -1  -6    2.20    0.80
   1  -1  -6    1.40    0.70
   1  -1  -6    0.60    0.60
  -1   1   6    0.80    0.70
  -1   1   6    0.00    1.10
   0  -1  -6   33.50    4.10
   0  -1  -6   30.40    2.50
   0  -1  -6   25.00    2.40
   0   1   6   31.70    4.00
   0   1   6   28.60    2.50
  -1  -1  -6   15.30    2.00
  -1  -1  -6   16.40    1.90
  -1  -1  -6   14.90    3.10
   1   1   6   13.00    3.10
  -2  -1  -6    7.20    1.60
  -2  -1  -6    9.10    2.70
  -2  -1  -6   12.70    1.70
   2   1   6    9.70    3.00
  -3  -1  -6    2.90    1.30
  -3  -1  -6    0.40    1.70
  -3  -1  -6    0.00    0.90
   3   1   6    6.50    2.30
  -5  -1  -6   -0.80    1.20
  -5  -1  -6   -0.30    2.00
  -6  -1  -6    0.30    2.10
  -6  -1  -6   -0.50    1.30
  12  -2  -6    1.80    2.10
  12  -2  -6    4.00    1.80
 -12   2   6   -5.90    3.60
 -12   2   6   -1.60    1.50
  11  -2  -6    1.30    1.80
  11  -2  -6    4.80    1.90
 -11   2   6    3.30    1.80
 -11   2   6   -1.00    3.20
  10  -2  -6    3.40    1.60
  10  -2  -6    1.70    1.60
  10  -2  -6    6.20    1.60
 -10   2   6    6.30    2.10
 -10   2   6    2.60    1.70
 -10   2   6    6.90    3.10
   9  -2  -6   30.40    3.40
   9  -2  -6   28.90    3.00
   9  -2  -6   23.90    3.10
  -9   2   6   34.80    3.80
  -9   2   6   31.80    4.30
  -9   2   6   23.40    3.10
   8  -2  -6   27.50    3.30
   8  -2  -6   22.50    2.90
   8  -2  -6   27.80    2.90
  -8   2   6   24.30    2.90
  -8   2   6   32.90    3.90
  -8   2   6   30.20    3.50
   7  -2  -6  115.99    8.20
   7  -2  -6  125.99    8.10
   7  -2  -6  122.99    8.00
  -7   2   6  138.79    9.10
  -7   2   6  143.19    8.60
  -7   2   6  125.19    8.20
   6  -2  -6    6.60    1.40
   6  -2  -6    6.90    1.60
   6  -2  -6    5.50    1.30
  -6   2   6    3.20    1.20
  -6   2   6    8.30    1.90
  -6   2   6    6.90    1.80
   5  -2  -6  207.88   12.20
   5  -2  -6  209.98   11.80
   5  -2  -6  209.88   11.90
  -5   2   6  218.48   12.30
  -5   2   6  163.98   11.70
  -5   2   6  208.88   12.80
   4  -2  -6    3.40    1.20
   4  -2  -6    3.10    1.10
   4  -2  -6    2.90    0.90
  -4   2   6    5.90    1.50
  -4   2   6    2.50    1.10
  -4   2   6    3.10    1.30
   3  -2  -6  129.99    7.90
   3  -2  -6  135.19    8.10
   3  -2  -6  135.49    8.20
  -3   2   6  123.19    8.90
  -3   2   6  136.99    8.10
  -3   2   6  134.19    8.30
   2  -2  -6    6.60    1.20
   2  -2  -6    7.80    1.50
   2  -2  -6    6.50    1.30
  -2   2   6    8.70    1.50
  -2   2   6    4.60    1.80
   1  -2  -6   83.69    5.10
   1  -2  -6   74.19    5.10
   1  -2  -6   79.19    5.10
  -1   2   6   74.89    5.10
  -1   2   6   74.29    6.50
   0  -2  -6    0.60    0.90
   0  -2  -6    1.20    0.90
   0  -2  -6    1.90    1.70
   0   2   6    0.00    1.50
   0   2   6    2.90    1.20
  -1  -2  -6   39.60    3.20
  -1  -2  -6   41.20    3.30
  -1  -2  -6   42.00    5.00
   1   2   6   33.70    4.70
  -2  -2  -6    1.10    1.10
  -2  -2  -6    2.30    1.90
  -2  -2  -6   -0.50    0.90
  -3  -2  -6   10.70    3.20
  -3  -2  -6   11.30    1.90
  -3  -2  -6    8.20    1.70
  12  -3  -6    5.20    2.40
  12  -3  -6    6.90    2.30
 -12   3   6    1.30    3.60
 -12   3   6    3.90    2.10
  11  -3  -6    2.70    2.00
  11  -3  -6    6.60    2.20
 -11   3   6    4.70    3.20
 -11   3   6    1.00    1.70
  10  -3  -6    8.60    2.40
  10  -3  -6   10.50    2.10
  10  -3  -6    8.30    2.30
 -10   3   6   11.10    3.20
 -10   3   6   10.50    2.30
 -10   3   6    5.80    2.20
   9  -3  -6    1.20    1.20
   9  -3  -6    1.00    1.60
   9  -3  -6    2.00    1.70
  -9   3   6    3.00    1.70
  -9   3   6    5.40    2.20
  -9   3   6    2.60    1.70
   8  -3  -6    2.30    1.60
   8  -3  -6    5.60    1.80
   8  -3  -6    4.20    1.30
  -8   3   6    4.80    1.60
  -8   3   6    6.30    1.70
  -8   3   6    3.40    1.70
   7  -3  -6   22.90    3.00
   7  -3  -6   19.40    2.50
   7  -3  -6   18.80    2.50
  -7   3   6   22.80    2.90
  -7   3   6   23.10    3.00
  -7   3   6   23.80    2.90
   6  -3  -6   17.20    2.20
   6  -3  -6   18.10    2.50
   6  -3  -6   13.80    2.00
  -6   3   6   23.40    3.00
  -6   3   6   16.50    2.40
  -6   3   6   11.70    2.20
   5  -3  -6    0.10    1.10
   5  -3  -6   -1.10    1.00
   5  -3  -6   -0.30    0.80
  -5   3   6    0.50    0.90
  -5   3   6    1.70    1.20
  -5   3   6    3.70    1.30
   4  -3  -6    6.80    1.60
   4  -3  -6    7.90    1.80
   4  -3  -6   10.20    1.60
  -4   3   6   10.10    1.70
  -4   3   6    7.70    2.00
  -4   3   6    8.50    1.90
   3  -3  -6    0.80    1.10
   3  -3  -6    1.00    0.80
   3  -3  -6    2.00    1.10
  -3   3   6    0.80    1.40
  -3   3   6    2.20    1.10
   2  -3  -6   20.40    2.50
   2  -3  -6   23.90    2.50
   2  -3  -6   23.80    2.50
  -2   3   6   20.80    3.50
  -2   3   6   19.00    2.40
   1  -3  -6    1.30    1.00
   1  -3  -6    0.60    1.00
   1  -3  -6    2.10    1.20
  -1   3   6    0.50    0.90
  -1   3   6    0.60    1.70
   0  -3  -6   19.90    3.70
   0  -3  -6   18.40    2.40
   0  -3  -6   18.70    2.40
   0   3   6   23.90    4.10
   0   3   6   22.70    2.70
  -1  -3  -6   -0.30    0.80
  -1  -3  -6    0.10    1.20
  -1  -3  -6   -0.20    1.10
  12  -4  -6    3.10    1.40
  12  -4  -6    0.30    2.00
 -12   4   6    1.70    2.00
 -12   4   6    1.80    2.30
  11  -4  -6   12.00    2.80
  11  -4  -6   13.70    2.90
 -11   4   6    5.10    2.10
 -11   4   6   12.30    3.00
  10  -4  -6    1.60    1.70
  10  -4  -6    1.00    1.40
 -10   4   6    1.80    1.70
   9  -4  -6   -1.00    1.50
   9  -4  -6   -0.70    1.20
   9  -4  -6   -2.40    1.30
  -9   4   6   -0.50    1.60
  -9   4   6    0.30    1.60
   8  -4  -6   -1.30    1.00
   8  -4  -6    0.40    1.40
   8  -4  -6    0.10    1.40
  -8   4   6   -0.40    1.40
  -8   4   6    1.20    1.60
   7  -4  -6    8.40    1.80
   7  -4  -6    5.00    1.50
   7  -4  -6    4.70    1.80
  -7   4   6    5.60    1.80
  -7   4   6    6.00    1.90
  -7   4   6   12.50    2.50
   6  -4  -6   -0.20    1.20
   6  -4  -6    1.00    1.40
   6  -4  -6    0.30    0.90
  -6   4   6    2.10    1.40
  -6   4   6   -1.10    1.30
  -6   4   6    2.60    1.50
   5  -4  -6    5.40    1.50
   5  -4  -6    8.30    1.60
   5  -4  -6    7.70    1.50
  -5   4   6    8.70    1.80
  -5   4   6    8.50    2.20
  -5   4   6    4.70    1.90
   4  -4  -6   -0.20    1.10
   4  -4  -6   -1.60    0.60
   4  -4  -6    1.10    1.10
  -4   4   6   -0.20    1.10
  -4   4   6    1.00    1.40
   3  -4  -6    5.30    1.40
   3  -4  -6    5.80    1.60
   3  -4  -6    4.70    1.50
  -3   4   6    7.70    2.20
  -3   4   6    7.60    1.70
   2  -4  -6    4.00    1.30
   2  -4  -6    0.50    0.90
   2  -4  -6    1.20    1.20
  -2   4   6    2.50    1.80
  -2   4   6    3.40    1.30
   1  -4  -6    4.20    1.50
   1  -4  -6    6.40    1.50
  -1   4   6    2.70    1.20
   0  -4  -6   -0.50    1.10
   0  -4  -6    0.20    1.20
   0  -4  -6    1.30    1.90
   0   4   6    2.20    1.50
  11  -5  -6    0.70    1.50
  11  -5  -6    0.70    1.80
 -11   5   6    0.60    1.90
  10  -5  -6   10.30    2.50
  10  -5  -6    9.60    2.50
 -10   5   6   10.90    2.50
   9  -5  -6    0.50    1.60
   9  -5  -6   -0.80    1.30
   9  -5  -6   -0.50    1.50
  -9   5   6   -1.80    1.50
  -9   5   6    1.70    1.80
   8  -5  -6   -2.50    1.30
   8  -5  -6   -1.80    1.10
   8  -5  -6    1.60    1.50
  -8   5   6    1.90    1.70
  -8   5   6   -1.60    1.50
   7  -5  -6    0.40    2.20
   7  -5  -6   -1.30    1.00
   7  -5  -6    1.30    1.60
  -7   5   6   -1.20    1.30
  -7   5   6   -0.10    1.50
   6  -5  -6    2.20    1.40
   6  -5  -6    3.30    1.80
  -6   5   6    8.20    2.10
  -6   5   6    7.10    1.80
   5  -5  -6    6.40    1.60
   5  -5  -6    4.20    1.50
   5  -5  -6    4.50    1.80
  -5   5   6    6.10    1.70
   4  -5  -6   12.70    2.30
   4  -5  -6   12.20    2.00
   4  -5  -6   12.90    2.10
  -4   5   6   12.90    2.10
   3  -5  -6   18.50    2.60
   3  -5  -6   18.20    2.50
   3  -5  -6   16.40    2.40
  -3   5   6   13.80    2.30
   2  -5  -6   -0.40    1.20
   2  -5  -6    1.90    1.30
   2  -5  -6   -0.30    1.10
  -2   5   6    1.70    1.40
   1  -5  -6    4.20    1.60
   1  -5  -6    2.30    1.40
  -1   5   6    3.30    1.60
   8  -6  -6    2.30    1.70
  -8   6   6    3.00    1.90
   7  -6  -6    0.30    1.70
   7  -6  -6    0.00    1.30
  -7   6   6    1.60    1.60
   6  -6  -6    2.40    1.80
   6  -6  -6   -0.60    1.20
  -6   6   6   -0.20    1.40
   5  -6  -6   10.70    2.40
   5  -6  -6   13.80    2.20
   5  -6  -6   14.70    2.40
  -5   6   6   11.90    2.30
   4  -6  -6    6.40    1.60
   4  -6  -6    2.70    1.70
   4  -6  -6    9.70    2.00
  -4   6   6    4.70    1.90
   3  -6  -6    4.10    1.60
   3  -6  -6    2.50    1.60
   3  -6  -6    2.20    1.50
  -3   6   6    4.30    1.80
   2  -6  -6    5.20    1.60
   2  -6  -6    2.90    1.60
   2  -6  -6    4.90    1.80
  -2   6   6    6.10    1.90
   7  -7  -6    1.50    1.50
   7  -7  -6    2.20    2.10
  -7   7   6    0.40    1.60
  -6   7   6    2.80    2.00
   4  -7  -6   -1.00    1.30
   4  -7  -6   -1.50    1.60
   4  -7  -6    1.00    1.50
  -4   7   6    6.50    2.00
   3  -7  -6    4.80    1.70
  -3   7   6    5.70    2.10
  -1 -13   7   -0.60    1.70
   0 -13   7   -0.40    1.70
   0 -13   7    2.40    1.70
   1 -13   7   -2.60    1.80
   4  12  -7   10.10    1.90
  -4 -12   7   12.90    3.30
  -3 -12   7   13.40    3.10
  -3 -12   7    5.00    1.90
  -2 -12   7   14.50    2.50
  -2 -12   7   19.10    3.50
  -1 -12   7   -1.20    1.60
  -1 -12   7   -0.30    1.60
   0 -12   7   11.90    2.10
   0 -12   7   11.00    2.50
   1 -12   7    1.70    1.70
   1 -12   7    3.50    1.90
   2 -12   7   13.70    2.80
   2 -12   7   12.70    2.70
   3 -12   7   -1.00    1.70
   6  11  -7    1.50    1.30
  -6 -11   7    3.00    1.70
  -6 -11   7    4.10    2.10
  -6 -11   7    2.50    1.80
   5  11  -7    1.90    1.20
  -5 -11   7    2.90    2.30
  -5 -11   7    1.80    1.60
  -5 -11   7    1.60    1.40
   4  11  -7    2.10    1.20
  -4 -11   7    0.50    1.30
  -4 -11   7   -0.40    1.30
  -4 -11   7    0.60    1.90
  -3 -11   7    9.90    2.60
  -3 -11   7    6.50    1.70
  -2 -11   7   13.90    2.30
  -2 -11   7   15.40    2.80
  -1 -11   7    5.10    1.80
  -1 -11   7    4.50    2.00
   0 -11   7   26.50    3.60
   0 -11   7   22.90    2.90
   1 -11   7    1.40    1.50
   1 -11   7    0.50    1.10
   2 -11   7   19.80    3.00
   2 -11   7   22.00    3.10
   3 -11   7    7.60    2.30
   4 -11   7    3.90    2.10
   5 -11   7    1.00    2.00
   7  10  -7    1.10    1.20
  -7 -10   7   -0.20    1.80
  -7 -10   7    0.30    2.00
  -7 -10   7    0.10    1.40
   6  10  -7    0.40    1.10
  -6 -10   7   -2.00    0.90
  -6 -10   7   -0.90    1.20
  -6 -10   7   -0.30    1.70
   5  10  -7    1.50    1.10
  -5 -10   7   -0.10    1.70
  -5 -10   7    3.00    1.50
  -5 -10   7    0.60    1.40
   4  10  -7    1.00    1.10
  -4 -10   7   -0.70    1.10
  -4 -10   7   -1.00    1.10
  -4 -10   7    1.60    1.70
  -3 -10   7    3.50    1.20
  -3 -10   7    2.40    1.40
  -3 -10   7    0.50    1.60
  -2 -10   7   23.80    3.30
  -2 -10   7   21.20    2.50
  -1 -10   7    2.60    1.60
  -1 -10   7    1.20    1.30
   0 -10   7   12.70    2.00
   0 -10   7   17.50    2.70
   1 -10   7   -0.20    0.90
   1 -10   7   -0.10    1.20
   2 -10   7   -0.80    1.20
   3 -10   7    0.80    1.40
   4 -10   7   -2.90    1.30
   5 -10   7    0.40    1.20
   6 -10   7    0.10    1.80
   8   9  -7    4.60    1.50
  -8  -9   7    1.50    1.60
  -8  -9   7    0.90    2.00
  -8  -9   7    2.30    1.60
   7   9  -7   29.70    2.90
  -7  -9   7   33.80    3.30
  -7  -9   7   30.60    3.80
  -7  -9   7   25.50    4.00
   6   9  -7   -0.10    1.00
  -6  -9   7    0.80    1.50
  -6  -9   7   -0.70    1.10
  -6  -9   7    0.40    1.20
   5   9  -7    1.50    1.10
  -5  -9   7   -0.60    1.60
  -5  -9   7    2.50    1.30
  -5  -9   7    0.90    1.30
   4   9  -7    2.10    1.10
  -4  -9   7    1.40    1.70
  -4  -9   7   -0.40    0.80
  -3  -9   7    0.80    1.40
  -3  -9   7    3.30    1.20
  -3  -9   7    3.30    1.30
  -2  -9   7    2.50    1.30
  -2  -9   7    5.50    1.50
  -1  -9   7   16.00    2.10
  -1  -9   7   18.50    2.70
   0  -9   7   -0.40    1.10
   0  -9   7    0.40    1.10
   1  -9   7    3.50    1.40
   1  -9   7    4.70    1.50
   2  -9   7   15.70    2.40
   3  -9   7   -1.90    1.10
  -4   9  -7    4.20    2.10
   4  -9   7    3.20    1.60
  -5   9  -7    5.50    2.40
   5  -9   7    5.30    1.90
  -6   9  -7    1.90    2.40
   6  -9   7    0.90    1.70
   9   8  -7    1.20    1.40
  -9  -8   7    0.80    1.50
  -9  -8   7    1.50    1.50
  -9  -8   7    2.00    2.20
   8   8  -7    6.50    1.50
  -8  -8   7    7.50    1.90
  -8  -8   7    4.50    2.20
  -8  -8   7    7.00    2.10
   7   8  -7   11.70    1.90
  -7  -8   7   10.90    2.40
  -7  -8   7   11.20    2.50
  -7  -8   7   12.50    2.20
   6   8  -7    9.40    1.60
  -6  -8   7   10.50    2.30
  -6  -8   7    9.20    1.90
  -6  -8   7    6.60    2.10
   5   8  -7   24.50    2.30
  -5  -8   7   22.60    2.70
  -5  -8   7   20.50    3.20
  -5  -8   7   25.50    2.90
   4   8  -7   64.69    4.30
  -4  -8   7   62.89    4.60
  -4  -8   7   56.69    5.00
  -4  -8   7   58.19    4.40
  -3  -8   7    2.40    1.10
  -3  -8   7    4.40    1.10
  -3  -8   7    3.70    1.70
  -2  -8   7  241.58   15.10
  -2  -8   7  255.77   14.60
  -2  -8   7  263.27   14.70
  -1  -8   7   60.19    4.40
  -1  -8   7   61.69    4.80
   0  -8   7  220.68   12.90
   0  -8   7  219.18   13.20
   1  -8   7   90.69    6.20
   1  -8   7   89.99    6.00
  -2   8  -7   54.29    5.30
   2  -8   7   40.40    3.80
  -3   8  -7   18.90    3.50
   3  -8   7   19.50    2.50
  -4   8  -7    1.20    1.80
   4  -8   7   -0.20    1.20
  -5   8  -7   38.80    5.50
   5  -8   7   30.80    3.60
  -6   8  -7    3.50    2.40
   6  -8   7    0.30    1.50
  10   7  -7    1.10    1.40
 -10  -7   7    3.50    2.10
 -10  -7   7    1.40    2.30
   9   7  -7    0.60    1.20
  -9  -7   7   -1.30    1.60
  -9  -7   7    3.10    1.60
  -9  -7   7   -1.10    1.90
   8   7  -7    0.80    1.10
  -8  -7   7   -2.10    1.50
  -8  -7   7   -1.30    1.00
  -8  -7   7    0.30    1.30
   7   7  -7    4.00    1.30
  -7  -7   7    3.80    1.80
  -7  -7   7    3.30    1.40
  -7  -7   7    3.20    2.00
   6   7  -7    4.10    1.10
  -6  -7   7    1.70    1.10
  -6  -7   7    0.10    1.20
  -6  -7   7    4.80    1.70
   5   7  -7  100.39    6.10
  -5  -7   7   92.19    6.90
  -5  -7   7   92.09    6.40
  -5  -7   7   90.89    6.20
   4   7  -7    1.80    1.00
  -4  -7   7    0.30    0.70
  -4  -7   7    0.40    1.30
  -4  -7   7   -1.80    0.90
  -3  -7   7   16.60    2.40
  -3  -7   7   19.10    2.20
  -3  -7   7   17.90    2.10
  -2  -7   7   44.20    3.40
  -2  -7   7   47.80    3.90
  -2  -7   7   48.10    3.50
  -1  -7   7    6.00    1.20
  -1  -7   7    7.00    1.60
   0  -7   7  100.39    6.70
   0  -7   7  102.09    6.50
  -1   7  -7    0.80    1.30
   1  -7   7    0.50    1.00
   1  -7   7    0.90    0.80
  -2   7  -7  138.29   10.10
   2  -7   7  125.49    8.10
  -3   7  -7   59.69    6.10
   3  -7   7   44.70    3.90
  -4   7  -7   25.90    4.60
   4  -7   7   30.80    2.90
  -5   7  -7   64.49    7.20
   5  -7   7   61.49    4.80
  -6   7  -7    4.30    2.80
  11   6  -7    3.40    1.70
 -11  -6   7    3.10    1.60
 -11  -6   7    4.50    2.30
  10   6  -7    8.50    1.90
  10   6  -7   10.90    2.40
 -10  -6   7    7.30    2.30
 -10  -6   7    8.50    2.80
 -10  -6   7    5.00    1.70
   9   6  -7   -0.30    0.90
  -9  -6   7   -1.30    0.90
  -9  -6   7   -0.10    1.30
  -9  -6   7    1.20    1.10
  -9  -6   7    2.80    1.80
   8   6  -7    1.50    1.00
  -8  -6   7    0.70    1.00
  -8  -6   7    2.80    1.60
  -8  -6   7    1.00    1.80
  -8  -6   7    2.40    1.10
   7   6  -7   -0.60    0.90
  -7  -6   7   -0.10    1.10
  -7  -6   7   -0.30    0.80
  -7  -6   7    0.40    1.30
  -7  -6   7   -0.10    1.10
   6   6  -7  127.89    8.00
  -6  -6   7  131.39    8.40
  -6  -6   7  131.79    8.30
  -6  -6   7  132.79    9.00
   5   6  -7    2.50    0.90
  -5  -6   7    3.60    1.20
  -5  -6   7    4.80    1.40
  -5  -6   7    5.20    1.90
   4   6  -7   90.89    5.80
  -4  -6   7   92.79    6.00
  -4  -6   7   92.39    6.50
  -4  -6   7   95.29    6.10
  -3  -6   7   84.49    5.40
  -3  -6   7   74.79    5.20
  -3  -6   7   87.89    5.90
  -2  -6   7    3.60    1.30
  -2  -6   7    2.50    1.00
  -2  -6   7    2.90    1.00
   1   6  -7   59.49    5.10
  -1  -6   7   62.09    4.10
  -1  -6   7   60.49    4.10
  -1  -6   7   59.89    4.50
   0   6  -7  168.78   11.20
   0  -6   7  159.68    9.70
   0  -6   7  168.58   10.10
  -1   6  -7    4.20    2.00
   1  -6   7    4.70    1.10
  -2   6  -7  278.57   18.50
   2  -6   7  296.77   16.50
  -3   6  -7    1.40    1.90
   3  -6   7    2.90    1.20
  -4   6  -7   61.89    6.50
   4  -6   7   59.09    4.40
  -5   6  -7    1.80    2.20
  -6   6  -7   12.70    3.70
  -7   6  -7   16.70    4.50
  11   5  -7   13.20    2.40
 -11  -5   7   10.90    3.70
 -11  -5   7   10.10    2.70
 -11  -5   7    9.70    2.10
  10   5  -7    2.50    1.60
  10   5  -7    1.30    1.60
 -10  -5   7    4.00    1.90
 -10  -5   7    3.60    2.30
 -10  -5   7    2.30    1.30
   9   5  -7    1.60    1.40
   9   5  -7    0.50    1.50
  -9  -5   7    0.40    1.20
  -9  -5   7    2.70    1.20
  -9  -5   7    0.80    1.80
   8   5  -7    3.30    1.40
  -8  -5   7    3.90    1.50
  -8  -5   7    2.40    2.00
  -8  -5   7    6.90    1.80
  -8  -5   7    3.90    1.40
   7   5  -7   49.20    3.70
  -7  -5   7   50.99    4.00
  -7  -5   7   50.69    4.10
  -7  -5   7   45.30    4.50
  -7  -5   7   46.30    3.60
   6   5  -7   17.00    2.00
  -6  -5   7   17.30    2.80
  -6  -5   7   13.20    2.00
  -6  -5   7   13.10    1.70
  -6  -5   7   14.90    2.20
   5   5  -7  254.77   15.00
  -5  -5   7  258.97   15.20
  -5  -5   7  276.67   15.40
  -5  -5   7  267.97   15.90
  -5  -5   7  263.77   14.90
   4   5  -7    9.10    1.30
  -4  -5   7   10.40    1.30
  -4  -5   7    8.90    1.70
  -4  -5   7    9.50    1.50
  -4  -5   7    8.10    1.40
   3   5  -7   10.30    1.30
  -3  -5   7    7.80    1.60
  -3  -5   7   10.40    1.20
  -3  -5   7   12.30    1.70
  -3  -5   7    9.90    1.30
   2   5  -7    0.20    0.90
   2   5  -7   -0.10    0.50
  -2  -5   7   -0.30    0.80
  -2  -5   7   -0.10    0.60
  -2  -5   7    0.40    0.70
  -2  -5   7   -0.30    0.40
  -2  -5   7    0.80    1.00
   1   5  -7   24.70    3.10
   1   5  -7   22.90    1.80
  -1  -5   7   22.70    1.80
  -1  -5   7   22.60    2.50
  -1  -5   7   24.60    2.10
  -1  -5   7   21.20    2.90
  -1  -5   7   25.90    2.20
   0   5  -7   32.00    3.90
   0   5  -7   36.40    2.60
   0  -5   7   35.90    2.60
   0  -5   7   29.60    2.80
   0  -5   7   27.90    3.70
  -1   5  -7    0.00    1.20
   1  -5   7   -0.20    0.70
  -2   5  -7   20.60    3.60
   2  -5   7   24.20    2.20
  -3   5  -7    0.80    1.80
   3  -5   7    1.60    1.00
  -4   5  -7   20.50    4.20
  -5   5  -7    3.20    2.30
  -6   5  -7   10.80    3.50
  -7   5  -7    2.30    2.70
  12   4  -7    3.90    1.90
 -12  -4   7   -0.80    1.90
 -12  -4   7    1.60    1.60
  11   4  -7    1.70    1.60
  11   4  -7    4.40    1.80
 -11  -4   7    0.70    2.20
 -11  -4   7    2.70    1.90
  10   4  -7   12.70    2.20
  10   4  -7   14.30    2.60
 -10  -4   7   11.60    2.10
 -10  -4   7   11.30    2.90
 -10  -4   7   10.10    2.40
   9   4  -7   24.00    3.10
   9   4  -7   31.90    3.20
  -9  -4   7   29.80    3.40
  -9  -4   7   27.80    3.90
  -9  -4   7   24.10    2.80
   8   4  -7    0.90    1.10
   8   4  -7   -1.30    1.00
  -8  -4   7    1.50    1.10
  -8  -4   7    1.50    1.30
  -8  -4   7   -0.30    1.20
  -8  -4   7    1.30    1.30
   7   4  -7   10.00    1.60
   7   4  -7   13.50    2.10
  -7  -4   7   13.00    1.90
  -7  -4   7   12.60    2.60
  -7  -4   7   13.30    1.80
  -7  -4   7   15.20    2.20
   6   4  -7   51.99    3.70
  -6  -4   7   45.30    3.70
  -6  -4   7   50.39    4.60
  -6  -4   7   59.49    4.20
  -6  -4   7   52.09    3.70
   5   4  -7    3.10    0.90
  -5  -4   7    0.90    1.30
  -5  -4   7    3.20    0.90
  -5  -4   7    3.70    1.30
  -5  -4   7    2.60    1.00
   4   4  -7   17.50    1.70
  -4  -4   7   18.30    2.20
  -4  -4   7   19.30    1.90
  -4  -4   7   16.90    1.60
  -4  -4   7   18.30    2.10
  -4  -4   7   13.50    2.30
   3   4  -7   34.10    3.30
   3   4  -7   33.80    2.50
  -3  -4   7   31.70    2.40
  -3  -4   7   34.70    2.80
  -3  -4   7   31.40    3.10
  -3  -4   7   31.80    2.50
  -3  -4   7   31.60    3.10
   2   4  -7   15.90    2.30
   2   4  -7   13.80    1.30
  -2  -4   7   12.20    1.40
  -2  -4   7   11.90    2.10
  -2  -4   7   11.70    1.90
  -2  -4   7   13.70    1.80
  -2  -4   7   16.00    1.40
   1   4  -7   16.70    1.60
   1   4  -7   18.60    2.70
   1   4  -7   19.30    1.60
  -1  -4   7   17.50    1.60
  -1  -4   7   15.00    2.60
  -1  -4   7   17.20    1.60
  -1  -4   7   18.40    2.30
  -1  -4   7   17.80    1.90
   0   4  -7    3.80    0.80
   0   4  -7    4.40    0.80
   0   4  -7    3.50    1.60
   0  -4   7    3.70    0.90
   0  -4   7    3.10    0.90
   0  -4   7    2.90    0.80
   0  -4   7    1.50    1.40
   0  -4   7    1.30    0.90
  -1   4  -7   28.10    2.30
  -1   4  -7   28.30    3.90
   1  -4   7   25.00    3.60
   1  -4   7   31.50    2.30
  -2   4  -7    5.20    1.20
  -2   4  -7    5.30    2.20
   2  -4   7    5.70    2.30
   2  -4   7    5.00    1.20
  -3   4  -7    6.50    2.50
  -3   4  -7   10.60    1.60
  -4   4  -7   -0.80    1.60
  -4   4  -7   -0.30    0.90
  -5   4  -7    1.10    1.60
  -5   4  -7    0.20    1.00
  -6   4  -7   -0.40    2.00
  -6   4  -7   -0.50    1.90
  12   3  -7    6.50    2.10
 -12  -3   7   11.20    2.30
 -12  -3   7    3.30    2.20
  11   3  -7    4.40    1.90
  11   3  -7    5.80    1.80
 -11  -3   7    4.20    2.10
 -11  -3   7    6.70    1.80
 -11  -3   7    6.90    2.70
  10   3  -7    5.30    1.70
  10   3  -7    5.10    1.90
 -10  -3   7    5.10    2.10
 -10  -3   7    5.40    1.70
 -10  -3   7    0.70    1.60
   9   3  -7   31.50    3.10
   9   3  -7   37.10    3.80
  -9  -3   7   19.20    3.40
  -9  -3   7   32.90    3.70
  -9  -3   7   29.50    2.80
   8   3  -7   -0.60    0.80
   8   3  -7   -1.00    1.00
  -8  -3   7   -1.40    1.50
  -8  -3   7    0.40    1.30
  -8  -3   7   -0.20    1.00
   7   3  -7   12.60    2.10
   7   3  -7   10.60    1.60
  -7  -3   7   10.00    1.90
  -7  -3   7    7.00    2.20
  -7  -3   7   10.50    1.60
  -7  -3   7    7.00    1.70
   6   3  -7   -1.40    0.90
   6   3  -7    1.50    0.90
  -6  -3   7   -2.00    1.20
  -6  -3   7   -0.10    0.80
  -6  -3   7   -0.60    0.70
  -6  -3   7   -0.30    0.60
   5   3  -7   18.70    2.30
   5   3  -7   13.40    1.70
  -5  -3   7   15.90    2.20
  -5  -3   7   12.40    1.80
  -5  -3   7   17.60    1.90
  -5  -3   7   13.50    2.40
  -5  -3   7   18.00    2.10
   4   3  -7   87.49    5.70
   4   3  -7   91.29    5.30
  -4  -3   7   85.19    5.30
  -4  -3   7   86.99    6.20
  -4  -3   7   89.89    6.00
  -4  -3   7   81.39    5.40
  -4  -3   7   70.79    5.50
   3   3  -7   73.59    5.30
   3   3  -7   81.59    5.00
  -3  -3   7   84.29    5.40
  -3  -3   7   82.29    5.10
  -3  -3   7   88.09    5.90
  -3  -3   7   78.49    5.00
  -3  -3   7   78.09    5.90
   2   3  -7  204.68   11.60
   2   3  -7  218.98   13.00
   2   3  -7  201.68   11.40
   2   3  -7  211.08   11.40
   2   3  -7  202.38   11.70
  -2  -3   7  193.28   11.50
  -2  -3   7  198.38   11.80
  -2  -3   7  196.38   11.50
  -2  -3   7  189.58   12.70
  -2  -3   7  202.38   12.20
   1   3  -7    0.50    0.60
   1   3  -7    1.90    0.80
   1   3  -7    0.30    1.10
   1   3  -7    0.10    0.60
  -1  -3   7    2.00    0.70
  -1  -3   7    1.60    0.90
  -1  -3   7    0.20    1.10
  -1  -3   7    0.50    0.60
  -1  -3   7    0.80    0.70
   0   3  -7    4.10    0.90
   0   3  -7    5.30    1.00
   0   3  -7    4.40    1.60
   0  -3   7    3.40    0.90
   0  -3   7    4.90    0.80
   0  -3   7    2.60    1.60
   0  -3   7    3.40    0.90
  -1   3  -7    7.90    1.30
  -1   3  -7    5.20    1.90
   1  -3   7    6.20    2.00
  -2   3  -7   -1.30    0.70
  -2   3  -7    0.50    1.50
   2  -3   7   -1.10    1.80
  -3   3  -7    2.00    1.90
  -3   3  -7    1.60    1.00
   3  -3   7   -0.50    2.20
  -4   3  -7    6.30    1.50
  -4   3  -7    7.30    2.80
  -5   3  -7    1.40    2.10
  -5   3  -7    1.50    1.20
  -6   3  -7   -0.10    2.10
  -6   3  -7   -0.20    1.30
  12   2  -7   -2.30    1.40
 -12  -2   7   -0.80    1.90
 -12  -2   7    3.00    1.80
  11   2  -7   20.30    2.90
  11   2  -7   29.80    3.60
 -11  -2   7   23.20    3.00
 -11  -2   7   28.00    3.70
 -11  -2   7   15.30    3.50
  10   2  -7    3.00    1.30
  10   2  -7    2.20    1.70
 -10  -2   7   -0.10    1.40
 -10  -2   7    1.90    1.70
 -10  -2   7    4.60    2.40
   9   2  -7   16.40    2.40
   9   2  -7   19.80    2.70
  -9  -2   7   20.70    3.00
  -9  -2   7   14.90    3.00
  -9  -2   7   18.20    2.50
   8   2  -7   29.90    3.00
   8   2  -7   36.30    3.40
  -8  -2   7   34.30    3.60
  -8  -2   7   33.70    3.10
  -8  -2   7   29.90    4.20
   7   2  -7    0.60    1.00
   7   2  -7    0.40    1.20
  -7  -2   7    3.50    0.90
  -7  -2   7   -1.00    0.90
  -7  -2   7    0.70    1.00
  -7  -2   7   -1.20    1.40
   6   2  -7   59.49    4.30
   6   2  -7   67.49    4.80
  -6  -2   7   71.99    4.60
  -6  -2   7   70.89    4.90
  -6  -2   7   61.09    4.80
  -6  -2   7   56.09    4.40
   5   2  -7   15.90    2.10
   5   2  -7   13.70    1.60
  -5  -2   7   16.40    2.10
  -5  -2   7   11.50    1.90
  -5  -2   7   15.80    1.90
  -5  -2   7   12.30    2.40
  -5  -2   7   10.90    1.70
   4   2  -7    0.70    0.50
   4   2  -7   -0.20    0.90
  -4  -2   7    0.00    0.70
  -4  -2   7   -1.80    1.00
  -4  -2   7    1.10    0.90
  -4  -2   7   -0.20    0.70
  -4  -2   7    0.60    0.60
   3   2  -7  316.57   18.40
   3   2  -7  338.57   18.00
   3   2  -7  324.37   18.20
  -3  -2   7  335.07   18.50
  -3  -2   7  337.77   19.30
  -3  -2   7  308.77   18.80
  -3  -2   7  305.07   18.10
  -3  -2   7  320.07   18.10
   2   2  -7    8.00    1.20
   2   2  -7    9.70    1.40
   2   2  -7    9.50    1.10
   2   2  -7    7.00    1.30
  -2  -2   7    7.10    1.10
  -2  -2   7    7.00    1.60
  -2  -2   7    9.30    1.50
  -2  -2   7    7.40    1.20
  -2  -2   7    6.00    1.80
   1   2  -7  102.59    6.40
   1   2  -7  110.89    8.10
   1   2  -7  112.39    6.20
   1   2  -7   94.89    6.30
   1   2  -7  102.99    6.40
  -1  -2   7  115.69    6.30
  -1  -2   7  104.69    6.90
  -1  -2   7  105.79    6.50
  -1  -2   7  103.89    8.00
  -1  -2   7  101.69    6.60
   0   2  -7   32.80    2.40
   0   2  -7   27.10    2.40
   0   2  -7   30.00    3.90
   0  -2   7   29.10    2.50
   0  -2   7   28.80    2.40
   0  -2   7   28.20    3.90
  -1   2  -7   11.40    2.80
  -1   2  -7   15.30    1.90
  -1   2  -7   16.10    1.60
   1  -2   7   13.00    2.90
  -2   2  -7   36.60    2.90
  -2   2  -7   30.50    4.50
   2  -2   7   34.80    5.00
  -3   2  -7   30.10    2.60
  -3   2  -7   24.60    4.30
   3  -2   7   30.40    5.20
  -4   2  -7    7.00    1.60
  -4   2  -7    5.00    2.60
   4  -2   7   16.10    3.40
  -5   2  -7    2.10    1.30
  -5   2  -7    1.90    2.30
  -6   2  -7   -0.30    2.00
  -6   2  -7    1.50    1.40
  12   1  -7    1.60    1.70
  12   1  -7    1.70    1.70
 -12  -1   7   -0.10    1.50
 -12  -1   7   -3.80    2.10
 -12  -1   7    0.80    1.90
  11   1  -7   14.30    2.60
  11   1  -7   16.00    2.70
 -11  -1   7   11.40    2.60
 -11  -1   7   14.40    2.30
 -11  -1   7   12.70    3.30
  10   1  -7    6.50    2.00
  10   1  -7    6.60    1.80
 -10  -1   7    3.90    2.40
 -10  -1   7    8.40    1.90
 -10  -1   7    9.20    2.30
   9   1  -7   34.60    3.90
   9   1  -7   37.90    3.50
  -9  -1   7   35.50    3.20
  -9  -1   7   40.70    4.20
   8   1  -7   25.70    3.10
   8   1  -7   23.70    2.70
  -8  -1   7   25.10    3.10
  -8  -1   7   25.20    3.80
   7   1  -7   23.50    2.70
   7   1  -7   26.50    3.10
  -7  -1   7   35.10    3.20
  -7  -1   7   28.90    2.80
  -7  -1   7   32.20    4.20
  -7  -1   7   27.00    3.30
   6   1  -7   44.20    3.60
   6   1  -7   40.70    3.20
  -6  -1   7   38.60    3.10
  -6  -1   7   36.90    4.40
  -6  -1   7   42.30    3.60
  -6  -1   7   41.60    3.70
   5   1  -7    9.90    1.40
   5   1  -7    8.00    1.40
   5   1  -7    9.90    1.80
  -5  -1   7    7.20    1.60
  -5  -1   7   10.60    2.30
  -5  -1   7    9.60    1.50
   4   1  -7  258.97   14.80
   4   1  -7  265.97   14.60
   4   1  -7  251.67   15.00
  -4  -1   7  267.47   15.10
  -4  -1   7  251.87   15.60
  -4  -1   7  274.77   14.80
  -4  -1   7  239.08   14.70
  -4  -1   7  260.37   15.70
   3   1  -7   18.50    1.70
   3   1  -7   16.10    2.10
   3   1  -7   18.80    1.80
   3   1  -7   19.90    2.10
  -3  -1   7   17.90    2.60
  -3  -1   7   17.00    2.00
  -3  -1   7   19.50    2.70
  -3  -1   7   18.60    1.80
  -3  -1   7   16.40    2.20
   2   1  -7  164.58   10.00
   2   1  -7  170.78    9.90
   2   1  -7  176.38    9.60
   2   1  -7  159.28    9.90
  -2  -1   7  168.48   10.10
  -2  -1   7  168.28   11.30
  -2  -1   7  173.28   10.50
  -2  -1   7  165.28    9.70
  -2  -1   7  173.58   10.00
   1   1  -7    4.30    1.00
   1   1  -7    4.80    1.90
   1   1  -7    3.40    1.00
   1   1  -7    6.10    1.20
  -1  -1   7    5.70    1.90
  -1  -1   7    5.00    1.00
  -1  -1   7    4.50    1.20
   0   1  -7   -0.80    0.60
   0   1  -7   -0.40    0.50
   0   1  -7    0.80    1.40
   0  -1   7   -2.30    0.50
   0  -1   7    0.00    1.00
  -1   1  -7    1.40    1.70
  -1   1  -7    2.20    0.90
  -1   1  -7    0.70    0.90
   1  -1   7    0.90    1.80
  -2   1  -7    3.00    2.10
  -2   1  -7    2.10    1.10
   2  -1   7    2.90    2.40
  -3   1  -7    0.80    1.00
  -3   1  -7    1.50    1.60
  -4   1  -7   31.70    3.00
  -4   1  -7   26.70    4.90
  -5   1  -7    0.40    1.60
  -5   1  -7   -2.50    1.00
  -6   1  -7    2.50    2.60
  -6   1  -7    2.20    1.50
  12   0  -7   -1.20    1.60
  12   0  -7    0.70    1.40
 -12   0   7   -0.20    2.00
 -12   0   7    1.00    1.60
  11   0  -7    6.00    2.00
  11   0  -7    9.20    2.30
 -11   0   7    2.20    2.50
 -11   0   7    6.40    2.30
 -11   0   7    7.40    2.00
  10   0  -7    5.10    1.80
  10   0  -7    3.20    1.70
 -10   0   7   -0.10    1.20
 -10   0   7   12.40    2.40
 -10   0   7    1.40    1.90
   9   0  -7   11.60    2.20
   9   0  -7   18.80    2.80
  -9   0   7    6.60    2.40
  -9   0   7   12.40    2.20
  -9   0   7   16.40    2.70
   8   0  -7    0.70    1.10
   8   0  -7    2.50    1.30
  -8   0   7   -1.60    1.20
  -8   0   7    1.40    1.70
  -8   0   7    2.50    1.60
   7   0  -7   31.80    3.00
   7   0  -7   38.70    3.10
   7   0  -7   27.70    3.00
  -7   0   7   38.90    3.60
  -7   0   7   39.00    3.80
  -7   0   7   31.50    2.90
  -7   0   7   20.40    3.60
   6   0  -7    3.00    1.20
   6   0  -7    2.50    1.00
   6   0  -7    3.00    1.00
  -6   0   7    1.30    1.30
  -6   0   7    4.10    1.30
  -6   0   7    3.00    1.40
  -6   0   7    3.10    1.20
   5   0  -7   51.19    3.90
   5   0  -7   56.59    4.30
   5   0  -7   53.29    3.80
  -5   0   7   54.69    4.60
  -5   0   7   59.49    4.10
  -5   0   7   54.69    4.30
   4   0  -7    8.20    1.60
   4   0  -7    9.20    1.50
   4   0  -7    8.20    1.30
  -4   0   7   11.40    1.90
  -4   0   7    8.00    1.80
  -4   0   7    6.20    1.90
  -4   0   7    7.30    1.30
   3   0  -7   -0.10    0.50
   3   0  -7   -0.40    0.70
   3   0  -7    0.10    0.70
   3   0  -7   -1.20    0.70
  -3   0   7   -0.20    0.70
  -3   0   7    0.20    0.60
  -3   0   7   -1.30    0.90
   2   0  -7    1.80    0.90
   2   0  -7   -0.50    0.80
   2   0  -7    0.10    0.50
  -2   0   7   -0.70    0.90
  -2   0   7   -1.10    0.60
  -2   0   7   -0.80    1.00
   1   0  -7    0.70    1.50
   1   0  -7   -0.70    0.70
   1   0  -7   -0.90    0.50
   1   0  -7    0.70    0.60
  -1   0   7   -0.50    1.10
  -1   0   7   -1.00    0.70
   0   0  -7    3.50    1.10
   0   0  -7    1.50    1.40
   0   0  -7    5.50    1.30
   0   0   7    3.30    1.90
   0   0   7    5.40    1.40
  -1   0  -7    0.40    0.80
  -1   0  -7    1.80    1.70
  -1   0  -7   -0.60    0.70
   1   0   7   -0.50    1.80
  -2   0  -7    0.50    1.80
  -2   0  -7   -0.60    0.80
  -2   0  -7    1.70    1.20
   2   0   7    0.90    2.30
  -3   0  -7    1.20    1.10
  12  -1  -7    0.60    1.80
  12  -1  -7    1.60    1.90
 -12   1   7    3.10    1.80
 -12   1   7   -1.40    3.00
  11  -1  -7    1.40    1.50
  11  -1  -7    2.10    1.80
  11  -1  -7    1.10    1.30
 -11   1   7    0.40    1.30
 -11   1   7    0.70    2.10
 -11   1   7    8.60    2.50
  10  -1  -7    7.60    1.80
  10  -1  -7   12.20    2.10
  10  -1  -7    7.00    1.90
 -10   1   7    8.90    2.10
 -10   1   7    9.00    2.50
   9  -1  -7    1.60    1.20
   9  -1  -7   -0.60    1.40
   9  -1  -7   -1.10    1.40
  -9   1   7    1.00    1.40
  -9   1   7   -1.00    1.50
   8  -1  -7   -2.20    1.10
   8  -1  -7   -1.00    0.90
   8  -1  -7   -0.50    1.10
  -8   1   7    1.40    1.60
  -8   1   7    2.60    1.10
  -8   1   7    1.40    1.40
   7  -1  -7    0.40    1.20
   7  -1  -7    0.90    1.10
   7  -1  -7    1.00    1.20
  -7   1   7    0.50    1.30
  -7   1   7    2.20    1.30
  -7   1   7    2.40    1.30
   6  -1  -7   -0.20    1.20
   6  -1  -7   -0.70    0.90
   6  -1  -7    0.20    1.00
  -6   1   7   -1.10    1.00
  -6   1   7    0.40    1.20
  -6   1   7    2.70    1.50
   5  -1  -7   24.60    2.80
   5  -1  -7   21.60    2.50
   5  -1  -7   21.00    2.10
  -5   1   7   22.00    3.00
  -5   1   7   25.20    3.00
  -5   1   7   26.20    2.70
   4  -1  -7   24.40    2.20
   4  -1  -7   26.00    2.70
   4  -1  -7   24.80    2.80
  -4   1   7   28.10    2.50
  -4   1   7   29.50    3.20
  -4   1   7   24.50    3.30
   3  -1  -7   39.40    3.00
   3  -1  -7   34.70    3.10
   3  -1  -7   40.90    3.20
  -3   1   7   40.50    3.40
  -3   1   7   36.50    3.10
  -3   1   7   37.40    4.10
   2  -1  -7   16.80    2.00
   2  -1  -7   15.00    1.90
   2  -1  -7   11.70    1.90
  -2   1   7   15.90    3.00
  -2   1   7   14.70    2.00
   1  -1  -7    1.20    1.00
   1  -1  -7    2.90    1.20
  -1   1   7    1.10    1.50
  -1   1   7   -0.70    0.90
   0  -1  -7    6.30    1.40
   0  -1  -7    5.10    2.20
   0  -1  -7    6.50    1.50
   0   1   7    6.20    1.60
   0   1   7    2.90    2.20
  -1  -1  -7    0.50    1.00
  -1  -1  -7    2.00    1.50
  -1  -1  -7    1.80    1.20
   1   1   7    4.60    2.30
  -2  -1  -7    3.00    2.30
  -2  -1  -7    2.70    1.10
  -2  -1  -7    1.10    1.10
  -5  -1  -7    0.60    1.50
  -5  -1  -7   -0.20    2.10
  12  -2  -7   -2.30    1.60
  12  -2  -7   -1.30    1.70
 -12   2   7    0.40    1.80
  11  -2  -7   -1.10    1.60
  11  -2  -7   -0.40    1.40
  11  -2  -7   -1.10    1.60
 -11   2   7    2.50    1.70
 -11   2   7    0.00    2.00
  10  -2  -7    7.50    1.90
  10  -2  -7    6.30    1.80
  10  -2  -7    3.70    1.80
 -10   2   7    6.80    2.10
 -10   2   7    5.00    2.20
   9  -2  -7   -0.60    1.10
   9  -2  -7    1.40    1.60
   9  -2  -7    0.60    1.50
  -9   2   7    0.80    1.70
  -9   2   7    1.10    1.20
   8  -2  -7   27.80    3.60
   8  -2  -7   31.10    3.50
   8  -2  -7   28.90    3.30
  -8   2   7   42.50    4.00
  -8   2   7   36.10    4.10
  -8   2   7   32.40    3.20
   7  -2  -7    0.80    1.20
   7  -2  -7   -0.50    1.00
   7  -2  -7    0.40    1.10
  -7   2   7    1.30    1.10
  -7   2   7   -0.10    1.00
  -7   2   7   -1.30    1.30
   6  -2  -7   34.60    3.20
   6  -2  -7   36.90    3.40
   6  -2  -7   43.80    3.50
  -6   2   7   41.90    4.20
  -6   2   7   36.30    3.30
  -6   2   7   43.80    4.00
   5  -2  -7   41.30    3.80
   5  -2  -7   47.40    3.70
   5  -2  -7   50.99    4.10
  -5   2   7   48.00    4.00
  -5   2   7   38.80    3.60
  -5   2   7   41.60    4.20
   4  -2  -7   20.90    2.50
   4  -2  -7   21.60    2.60
   4  -2  -7   22.70    2.50
  -4   2   7   22.50    2.60
  -4   2   7   20.70    2.80
  -4   2   7   21.70    3.20
   3  -2  -7   36.10    3.10
   3  -2  -7   37.10    3.00
   3  -2  -7   31.10    3.00
  -3   2   7   34.00    3.80
  -3   2   7   29.50    2.80
   2  -2  -7    4.60    1.30
   2  -2  -7    6.60    1.50
   2  -2  -7    5.20    1.50
  -2   2   7    6.20    1.60
  -2   2   7    5.00    2.20
   1  -2  -7    1.60    0.90
   1  -2  -7    2.10    1.20
  -1   2   7    1.10    1.90
  -1   2   7    0.00    1.00
   0  -2  -7    3.40    1.30
   0  -2  -7    4.40    2.00
   0  -2  -7    3.40    1.30
   0   2   7   10.90    2.70
   0   2   7    3.30    1.30
  -2  -2  -7    2.80    1.40
  12  -3  -7   -0.10    1.90
  12  -3  -7   -1.50    1.40
 -12   3   7    4.70    2.20
  11  -3  -7   -0.40    1.70
  11  -3  -7   -0.70    1.40
 -11   3   7    1.10    3.20
 -11   3   7   -0.90    1.60
  10  -3  -7    0.10    1.30
  10  -3  -7    1.10    1.30
  10  -3  -7    1.30    1.40
 -10   3   7    3.90    2.10
 -10   3   7    2.70    1.80
   9  -3  -7    2.70    1.80
   9  -3  -7   -1.40    1.40
   9  -3  -7   -0.60    1.20
  -9   3   7   -1.10    1.60
  -9   3   7   -1.70    1.50
   8  -3  -7   19.80    2.60
   8  -3  -7   19.00    2.80
   8  -3  -7   19.70    2.70
  -8   3   7   17.10    3.00
  -8   3   7   22.50    3.00
   7  -3  -7   12.40    2.40
   7  -3  -7   10.20    1.90
  -7   3   7   14.80    2.80
  -7   3   7   10.30    2.40
  -7   3   7   10.10    2.20
   6  -3  -7    4.10    1.50
   6  -3  -7    1.70    1.50
  -6   3   7    7.80    2.20
  -6   3   7    4.20    1.70
  -6   3   7    0.90    1.60
   5  -3  -7   32.30    3.00
   5  -3  -7   31.40    3.20
   5  -3  -7   27.30    3.10
  -5   3   7   32.60    3.20
  -5   3   7   35.40    3.80
  -5   3   7   32.40    3.90
   4  -3  -7    1.30    1.30
   4  -3  -7    3.10    1.30
   4  -3  -7    1.20    1.30
  -4   3   7    1.70    1.70
  -4   3   7    1.30    1.30
   3  -3  -7   46.80    3.60
   3  -3  -7   41.70    3.60
   3  -3  -7   42.60    3.70
  -3   3   7   44.30    3.70
  -3   3   7   42.70    4.70
   2  -3  -7    2.60    1.10
   2  -3  -7    1.90    1.00
   2  -3  -7    2.30    1.20
  -2   3   7    2.40    1.30
  -2   3   7    3.20    2.10
   1  -3  -7   37.30    3.50
   1  -3  -7   34.10    3.40
  -1   3   7   52.79    4.90
  -1   3   7   38.40    3.40
   0  -3  -7    0.30    1.20
   0  -3  -7    0.20    1.10
   0  -3  -7    2.00    2.00
   0   3   7   -0.50    1.20
  -1  -3  -7   11.30    2.10
  -1  -3  -7   17.30    2.40
  -1  -3  -7   14.00    3.40
  11  -4  -7    5.50    2.40
  10  -4  -7    3.00    2.10
  10  -4  -7    6.50    2.30
  10  -4  -7    0.00    1.50
 -10   4   7    0.00    1.60
 -10   4   7    2.70    2.20
   9  -4  -7    2.10    1.90
   9  -4  -7   -0.70    1.50
   9  -4  -7   -0.20    1.40
  -9   4   7   -1.40    1.10
  -9   4   7    2.30    2.00
   8  -4  -7    0.50    1.30
   8  -4  -7   -2.10    1.30
   8  -4  -7    1.70    1.50
  -8   4   7   -0.70    1.50
  -8   4   7    1.30    1.90
   7  -4  -7    3.50    1.60
   7  -4  -7    2.90    1.40
  -7   4   7    8.30    2.30
  -7   4   7   11.40    2.50
  -7   4   7    3.80    1.90
   6  -4  -7   10.40    2.30
   6  -4  -7   11.10    1.90
  -6   4   7   11.90    2.60
  -6   4   7   13.30    2.40
   5  -4  -7   21.20    2.80
   5  -4  -7   19.60    2.60
   5  -4  -7   24.20    2.90
  -5   4   7   29.60    3.50
  -5   4   7   19.10    2.60
   4  -4  -7   15.70    2.30
   4  -4  -7   14.90    2.40
   4  -4  -7   11.80    2.20
  -4   4   7   13.50    2.30
   3  -4  -7   -0.50    1.10
   3  -4  -7   -1.20    1.10
   3  -4  -7   -1.30    0.70
  -3   4   7   -0.20    1.00
   2  -4  -7    0.10    1.20
  -2   4   7    1.40    1.40
   1  -4  -7   13.20    2.10
   1  -4  -7   14.70    2.30
  -1   4   7   14.80    2.50
 -11   5   7    7.90    2.70
  10  -5  -7   15.50    3.00
  10  -5  -7   12.40    2.70
 -10   5   7   11.10    2.70
   9  -5  -7    3.50    1.90
   9  -5  -7    3.40    2.00
  -9   5   7    4.00    2.20
  -9   5   7    3.70    2.00
   8  -5  -7    3.50    2.00
   8  -5  -7    2.40    1.60
  -8   5   7   -0.20    1.80
  -8   5   7    2.10    2.00
   7  -5  -7    6.50    1.80
   7  -5  -7    7.10    2.00
  -7   5   7    5.60    2.00
   6  -5  -7    9.70    2.40
   6  -5  -7    8.70    2.00
   6  -5  -7   11.60    2.10
  -6   5   7    7.60    2.10
   5  -5  -7   24.20    3.20
   5  -5  -7   24.50    2.90
   5  -5  -7   19.30    2.70
  -5   5   7   15.80    2.70
   4  -5  -7   17.30    2.50
   4  -5  -7   18.10    2.60
   4  -5  -7   14.60    2.50
  -4   5   7   13.60    2.50
   3  -5  -7    3.10    1.60
   3  -5  -7    4.90    1.80
   3  -5  -7    4.70    1.80
  -3   5   7    2.20    1.70
   2  -5  -7    2.00    1.60
  -2   5   7    3.20    1.70
   1  -5  -7    2.00    1.60
   8  -6  -7    1.30    1.60
   7  -6  -7    1.10    1.60
   7  -6  -7    2.80    1.70
   7  -6  -7    2.80    1.60
  -7   6   7    6.70    2.20
   6  -6  -7   11.30    2.20
   6  -6  -7   11.90    2.30
   6  -6  -7    8.70    2.40
  -6   6   7    7.10    2.20
   5  -6  -7    9.90    2.40
   5  -6  -7    9.90    2.10
   5  -6  -7    8.90    2.10
  -5   6   7    4.90    2.10
   4  -6  -7   14.70    2.40
   4  -6  -7   15.10    2.50
   4  -6  -7   13.10    2.60
  -4   6   7   14.40    2.60
   3  -6  -7    3.20    1.80
   3  -6  -7    3.90    1.80
   7  -7  -7    3.30    2.30
   7  -7  -7    4.10    2.00
   6  -7  -7    1.70    2.10
  -5   7   7   51.79    5.50
   4  -7  -7    4.10    1.90
  -3   7   7   75.09    5.10
   4  12  -8    3.10    1.30
  -4 -12   8    1.90    1.60
  -4 -12   8    1.80    2.30
  -3 -12   8    3.20    1.80
  -3 -12   8    3.20    2.20
  -2 -12   8    0.10    1.60
  -2 -12   8   -1.00    1.90
  -1 -12   8   17.90    3.40
  -1 -12   8   17.10    2.80
   0 -12   8    4.70    2.10
   0 -12   8    6.90    2.10
   1 -12   8    7.10    2.30
   1 -12   8    6.40    2.20
   2 -12   8    1.30    1.30
   6  11  -8   -0.90    1.10
  -6 -11   8   -0.50    2.00
  -6 -11   8    1.60    1.70
  -6 -11   8   -0.60    1.40
   5  11  -8    1.40    1.30
  -5 -11   8    4.70    1.80
  -5 -11   8    3.80    1.70
  -5 -11   8    3.40    2.20
   4  11  -8    0.20    1.20
  -4 -11   8    1.10    1.60
  -4 -11   8    1.30    1.50
  -3 -11   8    9.60    2.60
  -3 -11   8    7.90    2.00
  -2 -11   8    1.70    1.50
  -2 -11   8    0.00    1.30
  -1 -11   8    5.20    1.90
  -1 -11   8    3.30    1.40
   0 -11   8   26.30    3.50
   0 -11   8   19.80    2.70
   1 -11   8   15.10    2.80
   1 -11   8   16.40    2.60
   2 -11   8   36.10    3.60
   3 -11   8    9.90    2.10
   4 -11   8   15.90    3.00
  -8 -10   8    1.60    2.30
  -8 -10   8   -0.50    1.50
   7  10  -8    0.40    0.90
  -7 -10   8    1.90    1.80
  -7 -10   8   -1.10    1.40
  -7 -10   8   -0.10    1.40
   6  10  -8   -0.30    0.80
  -6 -10   8   -0.70    1.00
  -6 -10   8    1.60    2.00
  -6 -10   8    0.70    1.50
   5  10  -8    1.00    0.90
  -5 -10   8    0.80    1.80
  -5 -10   8    2.00    1.20
  -5 -10   8    0.90    1.40
   4  10  -8    0.90    0.90
  -4 -10   8    0.10    1.20
  -4 -10   8    0.20    1.00
  -4 -10   8    1.20    1.50
  -3 -10   8    1.80    1.30
  -3 -10   8    3.00    1.80
  -2 -10   8   10.30    1.90
  -2 -10   8    9.40    2.10
  -1 -10   8    2.30    1.30
  -1 -10   8    1.10    1.30
   0 -10   8   24.10    3.30
   0 -10   8   25.70    3.00
   1 -10   8    0.70    1.30
   1 -10   8   -1.10    1.70
   2 -10   8    1.00    1.40
   3 -10   8    3.20    1.70
   4 -10   8   10.40    2.40
   5 -10   8    2.90    2.00
   9   9  -8    6.80    1.90
  -9  -9   8    3.10    2.50
  -9  -9   8    7.40    2.10
  -9  -9   8    6.30    2.50
   8   9  -8    0.90    1.30
  -8  -9   8    0.90    1.80
  -8  -9   8    0.20    2.00
  -8  -9   8    0.30    1.50
   7   9  -8    4.10    1.40
  -7  -9   8    1.50    1.40
  -7  -9   8    4.00    1.90
  -7  -9   8    6.00    2.40
   6   9  -8    0.80    1.10
  -6  -9   8    0.70    1.30
  -6  -9   8   -0.90    1.70
  -6  -9   8    1.50    1.60
   5   9  -8    5.60    1.40
  -5  -9   8    3.90    1.90
  -5  -9   8    3.20    1.50
  -5  -9   8    2.10    1.10
   4   9  -8    4.50    1.40
  -4  -9   8    8.30    1.80
  -4  -9   8    9.00    1.70
  -4  -9   8    5.80    1.90
  -3  -9   8    0.30    1.10
  -3  -9   8    0.60    1.20
  -2  -9   8    3.40    1.70
  -2  -9   8    6.40    1.60
  -1  -9   8    0.20    1.00
  -1  -9   8   -0.60    1.10
   0  -9   8    0.80    1.30
   0  -9   8    1.60    1.00
   1  -9   8    8.50    1.90
   2  -9   8    3.80    1.50
   3  -9   8    1.00    1.40
  -4   9  -8    4.80    2.40
   4  -9   8    1.70    1.60
  -5   9  -8    1.50    2.20
   5  -9   8    1.20    1.60
   9   8  -8    0.70    1.20
  -9  -8   8    2.30    1.90
  -9  -8   8    1.20    1.60
  -9  -8   8    1.80    1.50
   8   8  -8   24.80    2.80
  -8  -8   8   20.50    3.00
  -8  -8   8   15.90    2.70
  -8  -8   8   28.20    4.10
   7   8  -8   -0.20    1.10
  -7  -8   8   -0.10    1.50
  -7  -8   8   -0.30    1.70
  -7  -8   8    1.10    1.20
   6   8  -8    2.30    1.20
  -6  -8   8    1.40    1.30
  -6  -8   8   -0.70    1.20
  -6  -8   8    0.80    1.20
   5   8  -8    0.50    1.00
  -5  -8   8    0.10    1.40
  -5  -8   8   -0.40    1.10
  -5  -8   8    1.00    1.20
   4   8  -8    0.30    1.00
  -4  -8   8   -0.50    1.00
  -4  -8   8    0.30    1.10
  -4  -8   8   -0.60    1.30
  -3  -8   8    6.30    1.90
  -3  -8   8    6.70    1.60
  -3  -8   8    4.30    1.40
  -2  -8   8    2.50    1.50
  -2  -8   8    2.00    1.00
  -1  -8   8   12.50    2.30
  -1  -8   8   12.10    1.90
   0  -8   8   -1.40    0.60
   0  -8   8    1.90    1.20
   1  -8   8   -0.20    1.10
  -2   8  -8    7.30    2.60
   2  -8   8    4.80    1.50
  -3   8  -8   -0.40    1.70
   3  -8   8   -1.70    1.10
  -4   8  -8    1.10    2.00
   4  -8   8   -0.80    1.20
  -5   8  -8    1.20    2.30
  10   7  -8   -0.10    1.70
  10   7  -8    1.50    1.50
 -10  -7   8    0.20    2.30
 -10  -7   8    1.10    2.00
   9   7  -8   21.00    2.70
  -9  -7   8   18.40    2.80
  -9  -7   8   22.30    3.10
  -9  -7   8   14.20    3.00
   8   7  -8   13.10    2.00
  -8  -7   8   10.50    2.80
  -8  -7   8    7.60    2.00
  -8  -7   8    6.40    2.20
   7   7  -8    0.40    1.10
  -7  -7   8    0.40    1.20
  -7  -7   8   -0.40    1.20
  -7  -7   8   -0.40    1.60
   6   7  -8    1.10    1.10
  -6  -7   8    0.40    1.10
  -6  -7   8   -1.50    1.20
  -6  -7   8   -1.40    1.50
   5   7  -8   16.50    2.00
  -5  -7   8   13.80    2.60
  -5  -7   8   16.70    2.30
  -5  -7   8   18.00    2.40
   4   7  -8    9.60    1.60
  -4  -7   8    7.20    2.10
  -4  -7   8    5.30    1.50
  -4  -7   8   10.60    1.80
  -3  -7   8   -1.40    1.10
  -3  -7   8    1.90    1.10
  -3  -7   8    0.10    1.10
  -2  -7   8    0.00    1.00
  -2  -7   8    1.00    1.20
  -1  -7   8   10.10    2.00
  -1  -7   8   11.80    1.70
   0  -7   8   15.20    2.20
   0  -7   8   14.70    2.10
  -1   7  -8    1.50    1.70
   1  -7   8    1.70    1.10
  -2   7  -8   19.70    3.70
   2  -7   8   16.00    2.20
  -3   7  -8    1.70    2.00
   3  -7   8   -0.20    1.00
  -4   7  -8   45.90    6.10
  -5   7  -8   -0.50    2.10
  -6   7  -8   18.40    4.50
  11   6  -8    9.20    2.50
  11   6  -8    6.80    1.80
 -11  -6   8    7.70    2.30
 -11  -6   8    4.90    1.90
 -11  -6   8    8.50    3.10
  10   6  -8    1.10    1.70
  10   6  -8    3.20    1.70
 -10  -6   8    1.50    1.50
 -10  -6   8    0.10    1.60
 -10  -6   8    0.00    1.80
   9   6  -8   10.10    2.00
   9   6  -8    8.40    2.30
  -9  -6   8    8.00    1.80
  -9  -6   8   13.50    2.40
  -9  -6   8    8.80    2.90
  -9  -6   8    9.60    2.30
   8   6  -8    2.60    1.10
  -8  -6   8    1.70    1.10
  -8  -6   8    1.60    1.60
  -8  -6   8   -0.50    1.80
  -8  -6   8    2.20    1.20
   7   6  -8   28.00    2.80
  -7  -6   8   33.80    3.10
  -7  -6   8   27.90    3.40
  -7  -6   8   26.70    3.90
   6   6  -8   21.80    2.40
  -6  -6   8   21.30    2.80
  -6  -6   8   16.70    2.50
  -6  -6   8   19.60    3.20
   5   6  -8   47.30    3.50
  -5  -6   8   43.90    3.80
  -5  -6   8   39.50    3.60
  -5  -6   8   48.90    4.20
   4   6  -8    0.50    0.90
  -4  -6   8   -2.50    0.80
  -4  -6   8    0.10    0.90
  -4  -6   8    0.90    1.00
   3   6  -8    1.20    0.90
  -3  -6   8    2.00    1.10
  -3  -6   8    1.90    0.90
  -3  -6   8    3.00    1.20
  -2  -6   8    4.30    1.50
  -2  -6   8    6.60    1.20
  -2  -6   8    7.90    1.50
   1   6  -8    8.30    2.10
  -1  -6   8    5.90    1.30
  -1  -6   8    5.60    1.60
  -1  -6   8    6.40    1.90
   0   6  -8   17.90    3.20
   0  -6   8   20.30    2.20
  -1   6  -8   54.09    5.70
   1  -6   8   52.09    3.90
  -2   6  -8    4.00    2.20
   2  -6   8    3.50    1.10
  -3   6  -8    6.30    2.70
  -4   6  -8   20.50    4.40
  -5   6  -8   -0.40    2.00
  -6   6  -8   11.80    4.00
  11   5  -8   12.50    2.60
  11   5  -8   10.20    2.30
 -11  -5   8    8.00    2.60
 -11  -5   8   10.70    2.20
 -11  -5   8   13.80    2.90
  10   5  -8   -0.10    0.90
  10   5  -8    0.40    1.60
 -10  -5   8   -1.20    1.10
 -10  -5   8   -2.10    1.80
 -10  -5   8    1.80    1.60
   9   5  -8    6.10    2.10
   9   5  -8    5.20    1.70
  -9  -5   8    4.00    1.40
  -9  -5   8    3.50    2.30
  -9  -5   8    4.30    1.60
   8   5  -8   26.40    2.60
   8   5  -8   33.90    3.70
  -8  -5   8   26.40    4.00
  -8  -5   8   22.20    3.00
  -8  -5   8   33.20    3.70
  -8  -5   8   24.40    2.70
   7   5  -8   92.59    5.80
  -7  -5   8   83.69    5.60
  -7  -5   8   82.49    6.00
  -7  -5   8   77.99    5.80
   6   5  -8  250.57   14.10
  -6  -5   8  245.78   14.50
  -6  -5   8  240.88   15.10
  -6  -5   8  242.58   14.00
  -6  -5   8  236.28   14.30
   5   5  -8   91.69    5.70
  -5  -5   8   87.49    5.60
  -5  -5   8   90.29    5.90
  -5  -5   8   83.59    6.40
  -5  -5   8   84.89    6.10
   4   5  -8  144.99    8.30
  -4  -5   8  133.49    8.10
  -4  -5   8  134.99    8.40
  -4  -5   8  137.09    8.60
  -4  -5   8  136.29    9.10
   3   5  -8   -0.30    0.80
  -3  -5   8    2.00    1.10
  -3  -5   8    0.20    0.60
  -3  -5   8    0.50    0.90
  -3  -5   8    0.30    0.80
   2   5  -8   47.20    4.60
   2   5  -8   45.40    3.10
  -2  -5   8   38.10    3.70
  -2  -5   8   42.90    4.30
  -2  -5   8   48.10    3.20
  -2  -5   8   50.19    3.60
  -2  -5   8   44.80    3.30
   1   5  -8    0.10    1.20
   1   5  -8   -0.50    0.60
  -1  -5   8   -0.20    1.10
  -1  -5   8   -0.90    1.10
  -1  -5   8    0.50    0.80
   0   5  -8  169.48   11.80
   0  -5   8  163.08   11.80
   0  -5   8  167.78    9.80
  -1   5  -8   46.60    5.20
   1  -5   8   48.00    5.60
   1  -5   8   49.50    3.50
  -2   5  -8   70.09    7.10
  -3   5  -8   14.80    3.40
  -4   5  -8    0.10    1.80
  -5   5  -8    1.80    2.40
  -6   5  -8   11.30    4.00
  12   4  -8   13.10    3.00
  12   4  -8   10.50    2.20
 -12  -4   8   10.90    3.00
 -12  -4   8    7.60    3.20
 -12  -4   8    8.80    2.30
  11   4  -8   -2.10    1.50
  11   4  -8   -0.20    1.50
 -11  -4   8   -1.40    2.10
 -11  -4   8    1.20    1.80
 -11  -4   8   -0.80    1.30
  10   4  -8    2.40    1.60
  10   4  -8    2.10    1.90
 -10  -4   8    0.60    2.00
 -10  -4   8    1.80    1.40
 -10  -4   8   -0.90    1.20
   9   4  -8    3.40    1.80
   9   4  -8    1.90    1.40
  -9  -4   8    0.90    1.20
  -9  -4   8    0.20    1.50
  -9  -4   8    1.60    1.60
   8   4  -8    9.80    1.70
   8   4  -8   11.40    2.20
  -8  -4   8   10.10    1.80
  -8  -4   8   10.00    2.50
  -8  -4   8    9.10    1.80
  -8  -4   8    8.90    2.20
   7   4  -8  145.59    8.70
   7   4  -8  133.99    8.10
  -7  -4   8  133.59    8.00
  -7  -4   8  125.49    8.30
  -7  -4   8  107.19    8.20
  -7  -4   8  127.89    9.20
   6   4  -8   40.50    3.60
   6   4  -8   37.30    3.00
  -6  -4   8   38.50    3.00
  -6  -4   8   34.00    3.70
  -6  -4   8   42.00    4.20
  -6  -4   8   36.80    3.20
   5   4  -8  289.07   15.70
   5   4  -8  274.07   16.20
  -5  -4   8  263.07   15.80
  -5  -4   8  277.07   15.60
  -5  -4   8  272.87   16.10
   4   4  -8   20.10    2.50
   4   4  -8   20.90    2.00
  -4  -4   8   21.60    2.60
  -4  -4   8   18.10    2.00
  -4  -4   8   20.30    2.60
  -4  -4   8   19.30    2.20
  -4  -4   8   22.90    3.00
   3   4  -8   53.29    3.50
   3   4  -8   50.19    3.90
   3   4  -8   52.19    3.40
   3   4  -8   55.09    4.90
  -3  -4   8   50.39    3.50
  -3  -4   8   47.50    4.20
  -3  -4   8   50.29    3.60
  -3  -4   8   51.69    4.60
  -3  -4   8   49.00    3.90
   2   4  -8    0.90    0.80
   2   4  -8    2.40    0.80
   2   4  -8    1.90    1.10
   2   4  -8    2.20    1.40
   2   4  -8    2.10    0.80
  -2  -4   8    1.60    1.00
  -2  -4   8    1.30    0.80
  -2  -4   8    1.80    1.10
  -2  -4   8    1.40    0.70
  -2  -4   8    1.50    1.30
   1   4  -8  159.38   10.80
   1   4  -8  151.98    8.90
   1   4  -8  151.88    9.10
   1   4  -8  146.09    8.90
  -1  -4   8  151.18   10.70
  -1  -4   8  143.39    9.40
  -1  -4   8  164.08    9.00
  -1  -4   8  143.89    9.00
  -1  -4   8  149.88    8.90
   0   4  -8    2.60    1.80
   0   4  -8    5.00    1.10
   0  -4   8    2.70    1.00
   0  -4   8    0.10    1.50
   0  -4   8    3.60    0.90
  -1   4  -8  309.67   17.10
  -1   4  -8  293.57   19.50
   1  -4   8  298.87   19.60
  -2   4  -8    1.10    1.10
  -2   4  -8    0.60    1.80
   2  -4   8    0.90    2.40
  -3   4  -8   20.70    2.30
  -3   4  -8   14.00    3.40
  -4   4  -8   -2.20    1.50
  -4   4  -8   -0.90    1.10
  -5   4  -8   -1.40    1.90
  12   3  -8    2.70    1.80
  12   3  -8   -2.20    1.50
 -12  -3   8   -2.60    2.30
 -12  -3   8    1.20    1.70
 -12  -3   8    1.50    2.20
  11   3  -8   11.80    2.40
  11   3  -8    7.70    2.10
 -11  -3   8    5.60    1.80
 -11  -3   8    9.80    2.60
 -11  -3   8    5.70    2.40
  10   3  -8   18.50    2.70
  10   3  -8   22.00    3.00
 -10  -3   8   18.90    3.00
 -10  -3   8   11.50    3.10
 -10  -3   8   15.80    2.40
   9   3  -8    2.90    1.80
   9   3  -8    2.60    1.20
  -9  -3   8   10.80    2.40
  -9  -3   8    6.20    2.50
  -9  -3   8    3.90    1.50
   8   3  -8   24.00    3.10
   8   3  -8   24.40    2.70
  -8  -3   8   26.50    3.30
  -8  -3   8   21.40    3.70
  -8  -3   8   24.80    2.80
   7   3  -8    2.00    1.20
   7   3  -8    3.30    1.30
  -7  -3   8    4.90    1.60
  -7  -3   8    3.70    1.30
  -7  -3   8    1.60    1.30
  -7  -3   8    0.50    1.50
   6   3  -8    0.10    0.90
   6   3  -8   -1.30    1.20
  -6  -3   8    1.20    1.10
  -6  -3   8   -0.70    0.90
  -6  -3   8    0.20    0.80
  -6  -3   8   -2.60    1.10
  -6  -3   8   -2.00    1.40
   5   3  -8   14.90    2.20
   5   3  -8   16.30    1.80
  -5  -3   8   15.40    1.90
  -5  -3   8   19.00    2.10
  -5  -3   8   12.20    2.40
  -5  -3   8   12.10    2.20
  -5  -3   8   17.40    2.30
   4   3  -8    0.40    0.80
   4   3  -8    1.10    0.80
  -4  -3   8    0.60    0.90
  -4  -3   8    0.10    1.20
  -4  -3   8    1.70    1.40
  -4  -3   8    0.30    0.90
  -4  -3   8    0.80    0.70
   3   3  -8   57.19    3.80
   3   3  -8   56.19    3.70
   3   3  -8   64.79    5.40
   3   3  -8   65.49    4.00
   3   3  -8   47.60    3.90
  -3  -3   8   53.39    3.80
  -3  -3   8   49.10    4.30
  -3  -3   8   53.79    3.80
  -3  -3   8   58.69    4.20
  -3  -3   8   52.99    4.90
   2   3  -8   -0.20    0.60
   2   3  -8   -0.60    0.60
   2   3  -8   -0.10    0.80
   2   3  -8    0.80    0.70
   2   3  -8    0.30    1.30
  -2  -3   8   -1.00    1.10
  -2  -3   8    0.50    1.10
  -2  -3   8    0.60    0.70
  -2  -3   8    0.80    1.00
  -2  -3   8    0.40    0.70
   1   3  -8   32.80    2.50
   1   3  -8   28.10    4.00
   1   3  -8   31.50    2.40
   1   3  -8   31.60    2.50
   1   3  -8   29.50    2.60
  -1  -3   8   28.70    4.10
  -1  -3   8   30.30    2.60
  -1  -3   8   32.70    2.60
  -1  -3   8   31.60    2.50
   0   3  -8  122.59    7.50
   0   3  -8  118.79    7.30
   0   3  -8  115.49    9.50
   0  -3   8  121.79    9.70
   0  -3   8  124.09    7.60
   0  -3   8  142.69    8.20
  -1   3  -8    2.80    2.00
  -1   3  -8    3.40    1.10
   1  -3   8    1.30    1.70
  -2   3  -8   49.00    3.80
  -2   3  -8   45.00    5.70
   2  -3   8   51.79    6.20
  -3   3  -8    1.30    2.10
  -3   3  -8    1.90    1.20
   3  -3   8   13.40    2.80
  -4   3  -8   -0.30    2.00
  -4   3  -8    0.40    1.10
  -5   3  -8   -0.50    2.10
  -5   3  -8   -0.20    1.10
  12   2  -8    2.60    1.90
  12   2  -8   -0.60    1.70
 -12  -2   8    2.70    2.20
 -12  -2   8   -2.80    2.30
 -12  -2   8    2.40    1.70
  11   2  -8    2.60    1.90
  11   2  -8    2.50    1.40
 -11  -2   8    2.00    1.60
 -11  -2   8    1.90    2.50
 -11  -2   8    2.30    2.00
  10   2  -8   14.90    2.90
  10   2  -8   23.30    3.00
 -10  -2   8   21.70    2.80
 -10  -2   8   17.00    2.90
   9   2  -8    7.20    2.10
   9   2  -8    7.90    1.80
  -9  -2   8    4.20    2.50
  -9  -2   8    2.50    1.90
  -9  -2   8    4.20    1.70
   8   2  -8   52.29    3.90
   8   2  -8   58.39    4.60
  -8  -2   8   50.39    5.70
  -8  -2   8   36.70    4.30
  -8  -2   8   51.39    4.10
   7   2  -8    4.40    1.70
   7   2  -8    3.20    1.20
  -7  -2   8    2.40    1.30
  -7  -2   8   -0.70    1.30
  -7  -2   8    2.70    1.60
   6   2  -8  177.08   10.30
   6   2  -8  169.78   10.80
  -6  -2   8  183.88   11.10
  -6  -2   8  164.98   10.40
  -6  -2   8  184.58   10.40
  -6  -2   8  176.98   10.80
  -6  -2   8  145.69   11.30
   5   2  -8   22.80    2.60
   5   2  -8   27.60    2.40
   5   2  -8   26.20    3.00
  -5  -2   8   27.40    3.10
  -5  -2   8   23.50    2.40
  -5  -2   8   28.80    3.80
  -5  -2   8   25.20    2.50
  -5  -2   8   27.60    3.20
   4   2  -8  197.48   11.60
   4   2  -8  191.38   11.10
   4   2  -8  193.58   11.30
  -4  -2   8  191.88   12.40
  -4  -2   8  181.48   11.20
  -4  -2   8  190.88   11.20
  -4  -2   8  196.68   12.20
  -4  -2   8  196.48   11.70
   3   2  -8  119.89    7.60
   3   2  -8  124.49    7.20
   3   2  -8  129.99    7.50
   3   2  -8  117.79    7.30
  -3  -2   8  118.09    7.40
  -3  -2   8  115.99    8.70
  -3  -2   8  126.59    7.40
  -3  -2   8  128.39    7.80
  -3  -2   8  110.89    8.10
   2   2  -8   30.20    2.60
   2   2  -8   30.40    2.70
   2   2  -8   34.10    2.70
   2   2  -8   34.60    2.50
   2   2  -8   35.90    4.30
  -2  -2   8   31.20    4.10
  -2  -2   8   34.80    2.90
  -2  -2   8   32.30    2.70
  -2  -2   8   32.40    3.20
  -2  -2   8   32.20    2.90
   1   2  -8   27.50    2.30
   1   2  -8   24.20    2.30
   1   2  -8   25.70    3.90
  -1  -2   8   25.20    4.10
  -1  -2   8   28.50    2.60
  -1  -2   8   27.30    2.50
   0   2  -8    1.10    0.90
   0   2  -8    0.60    0.80
   0   2  -8    1.40    1.80
   0  -2   8    3.90    1.30
   0  -2   8   -1.00    1.90
  -1   2  -8    1.50    1.80
  -1   2  -8    1.50    1.00
   1  -2   8   -0.20    2.30
  -2   2  -8    1.00    1.90
  -2   2  -8   -0.80    0.90
   2  -2   8    1.90    2.20
  -3   2  -8    8.30    1.80
  -3   2  -8    7.00    3.00
  -5   2  -8    0.30    1.20
  -5   2  -8    0.50    2.30
  12   1  -8   12.00    2.70
  12   1  -8   11.70    2.50
 -12  -1   8   16.10    3.30
 -12  -1   8    9.70    3.50
 -12  -1   8   11.20    2.50
  11   1  -8    0.80    1.60
  11   1  -8   -0.60    1.20
 -11  -1   8    5.10    2.20
 -11  -1   8   -0.80    1.80
 -11  -1   8    0.20    1.50
  10   1  -8   28.20    3.20
  10   1  -8   23.70    3.40
 -10  -1   8   25.50    3.60
   9   1  -8   15.00    2.40
   9   1  -8   16.80    2.80
  -9  -1   8   14.60    3.30
  -9  -1   8   11.90    2.00
  -9  -1   8    6.50    2.00
   8   1  -8    1.00    1.20
   8   1  -8    3.20    1.50
  -8  -1   8    3.10    1.50
  -8  -1   8    0.10    1.60
  -8  -1   8    1.50    1.70
   7   1  -8   66.19    5.30
   7   1  -8   67.29    4.90
   7   1  -8   70.99    5.00
  -7  -1   8   73.59    5.60
  -7  -1   8   57.69    5.90
  -7  -1   8   75.39    5.60
  -7  -1   8   67.59    5.00
   6   1  -8   17.80    2.60
   6   1  -8   18.10    2.20
   6   1  -8   17.80    2.10
  -6  -1   8   24.00    2.60
  -6  -1   8   18.40    2.80
  -6  -1   8   16.70    2.60
   5   1  -8   21.70    2.20
   5   1  -8   21.90    2.50
   5   1  -8   19.50    2.70
  -5  -1   8   24.30    3.20
  -5  -1   8   24.50    3.10
  -5  -1   8   25.50    2.70
  -5  -1   8   25.40    3.70
   4   1  -8   39.10    2.70
   4   1  -8   32.70    2.90
   4   1  -8   36.00    3.20
  -4  -1   8   33.00    2.80
  -4  -1   8   38.20    3.00
  -4  -1   8   33.10    4.00
  -4  -1   8   30.00    3.80
  -4  -1   8   35.10    3.40
   3   1  -8    4.60    1.10
   3   1  -8    2.90    1.10
   3   1  -8    3.00    1.10
  -3  -1   8    2.90    1.80
  -3  -1   8   -0.10    1.10
  -3  -1   8    1.60    0.90
  -3  -1   8    2.00    1.40
   2   1  -8   59.49    3.90
   2   1  -8   50.69    3.80
   2   1  -8   50.99    3.70
  -2  -1   8   45.40    3.70
  -2  -1   8   47.90    5.00
  -2  -1   8   57.79    4.10
   1   1  -8   28.80    2.60
   1   1  -8   27.10    2.50
   1   1  -8   28.90    3.90
  -1  -1   8   29.30    4.60
  -1  -1   8   27.70    2.70
   0   1  -8   27.90    2.60
   0   1  -8   29.90    4.50
   0   1  -8   29.50    2.70
   0  -1   8   29.00    2.70
   0  -1   8   33.30    5.20
  -1   1  -8   14.40    1.90
  -1   1  -8   14.40    2.10
  -1   1  -8   17.00    3.70
   1  -1   8   19.10    4.30
  -2   1  -8    1.70    1.80
  -2   1  -8    0.80    1.10
   2  -1   8    9.90    2.80
  12   0  -8   -0.90    1.70
  12   0  -8   -0.20    1.30
 -12   0   8   -1.20    1.60
 -12   0   8   -1.60    1.90
  11   0  -8    3.60    2.00
  11   0  -8    4.60    1.90
 -11   0   8    5.80    2.30
 -11   0   8    2.00    2.70
 -11   0   8    2.70    1.80
  10   0  -8    6.90    2.20
  10   0  -8    7.00    1.80
  10   0  -8    7.20    2.00
 -10   0   8    7.10    2.30
 -10   0   8    6.10    1.90
 -10   0   8    6.90    3.10
   9   0  -8   36.70    3.40
   9   0  -8   32.50    3.70
   9   0  -8   26.20    3.10
  -9   0   8   16.90    3.60
  -9   0   8   31.50    3.60
  -9   0   8   37.10    4.20
   8   0  -8   17.10    2.80
   8   0  -8   14.60    2.30
   8   0  -8   17.80    2.40
  -8   0   8   16.70    3.60
  -8   0   8   15.90    2.50
  -8   0   8   16.10    2.90
   7   0  -8   61.69    5.00
   7   0  -8   69.39    5.40
   7   0  -8   71.59    5.00
  -7   0   8   65.79    5.10
  -7   0   8   63.69    6.20
  -7   0   8   75.79    5.70
  -7   0   8   77.09    5.90
   6   0  -8    6.70    1.40
   6   0  -8    5.20    1.50
   6   0  -8    8.60    1.60
  -6   0   8    6.80    2.00
  -6   0   8    4.50    2.20
  -6   0   8    6.50    1.70
  -6   0   8    7.40    1.80
   5   0  -8  127.19    8.30
   5   0  -8  132.29    7.80
   5   0  -8  132.39    8.10
  -5   0   8  128.99    9.10
  -5   0   8  138.69    8.20
  -5   0   8  142.49    8.60
  -5   0   8   94.89    8.70
   4   0  -8    4.80    1.30
   4   0  -8    5.90    1.40
   4   0  -8    4.90    1.20
  -4   0   8    4.90    1.90
  -4   0   8    5.20    1.50
  -4   0   8    2.10    1.20
   3   0  -8  128.59    8.00
   3   0  -8  126.09    7.80
   3   0  -8  124.69    7.90
  -3   0   8  123.89    7.90
  -3   0   8  125.19    8.20
  -3   0   8  130.89    9.40
   2   0  -8   26.50    2.80
   2   0  -8   31.00    2.70
   2   0  -8   26.50    2.60
  -2   0   8   26.30    4.20
  -2   0   8   23.30    2.70
  -2   0   8   28.30    3.20
   1   0  -8   19.30    2.40
   1   0  -8   20.60    2.40
   1   0  -8   20.20    3.90
  -1   0   8   25.70    2.80
  -1   0   8   19.50    4.00
   0   0  -8   23.60    4.30
   0   0  -8   24.90    2.60
   0   0  -8   19.50    2.60
   0   0   8   24.50    2.90
   0   0   8   25.20    3.90
  -1   0  -8    0.20    1.10
  -1   0  -8    0.50    1.90
  -1   0  -8    0.50    1.00
   1   0   8    3.60    1.90
  -2   0  -8   17.30    2.40
  -2   0  -8   14.70    3.80
  12  -1  -8   -1.50    1.70
  12  -1  -8    3.40    1.80
  12  -1  -8    1.70    2.00
 -12   1   8    1.10    2.30
 -12   1   8    1.50    1.80
  11  -1  -8    1.90    1.50
  11  -1  -8    2.40    1.80
  11  -1  -8    0.40    1.80
 -11   1   8   -1.40    1.80
 -11   1   8    1.80    1.80
  10  -1  -8   -1.00    1.20
  10  -1  -8    0.30    1.60
  10  -1  -8   -2.10    1.50
 -10   1   8    0.00    1.50
 -10   1   8   -1.30    1.70
   9  -1  -8    2.20    1.90
   9  -1  -8    2.30    1.60
   9  -1  -8    3.70    1.60
  -9   1   8    1.70    1.90
  -9   1   8    2.60    1.70
   8  -1  -8    1.90    1.40
   8  -1  -8    0.90    1.10
   8  -1  -8   -0.50    1.20
  -8   1   8    0.10    1.30
  -8   1   8    1.50    1.50
   7  -1  -8   21.00    2.80
   7  -1  -8   28.20    3.50
   7  -1  -8   28.00    3.20
  -7   1   8   38.20    3.90
  -7   1   8   35.00    3.80
  -7   1   8   34.40    3.30
   6  -1  -8    0.60    1.30
   6  -1  -8   -0.30    1.10
   6  -1  -8    0.70    1.20
  -6   1   8    3.70    1.80
  -6   1   8    0.10    1.20
  -6   1   8    3.30    1.50
   5  -1  -8   99.29    6.60
   5  -1  -8  105.99    6.90
  -5   1   8   98.39    6.60
  -5   1   8  100.59    6.90
  -5   1   8   96.39    7.60
   4  -1  -8    6.40    1.50
   4  -1  -8    4.10    1.30
   4  -1  -8    5.00    1.60
  -4   1   8    4.60    2.10
  -4   1   8    4.00    1.30
  -4   1   8    5.30    1.80
   3  -1  -8   86.19    5.60
   3  -1  -8   80.09    5.50
   3  -1  -8   81.89    5.40
  -3   1   8   83.49    5.90
  -3   1   8   73.69    6.60
  -3   1   8   68.29    5.30
   2  -1  -8   27.70    3.00
   2  -1  -8   26.60    2.90
  -2   1   8   28.40    4.60
  -2   1   8   28.10    2.70
   1  -1  -8   40.90    3.40
   1  -1  -8   40.60    3.40
   1  -1  -8   37.70    5.10
  -1   1   8   32.30    3.10
  -1   1   8   38.40    4.90
   0  -1  -8   32.80    3.20
   0  -1  -8   32.30    4.90
   0  -1  -8   35.30    3.10
   0   1   8   34.30    4.30
   0   1   8   32.40    3.50
  -1  -1  -8    8.40    3.10
  -1  -1  -8    7.00    1.70
  -1  -1  -8    8.90    1.70
  -2  -1  -8   17.10    2.90
  -2  -1  -8   18.80    2.60
  -2  -1  -8   21.60    4.50
 -12   2   8   -0.80    2.40
 -12   2   8    2.50    2.00
  11  -2  -8    1.20    1.90
  11  -2  -8    0.90    1.50
 -11   2   8    2.40    2.20
 -11   2   8    0.80    1.40
  10  -2  -8   -1.90    1.40
  10  -2  -8    0.20    1.40
  10  -2  -8    0.80    1.90
 -10   2   8   -1.10    1.80
 -10   2   8   -3.00    1.40
   9  -2  -8    0.40    1.50
   9  -2  -8    0.20    1.30
   9  -2  -8   -0.70    1.60
  -9   2   8    0.90    1.60
  -9   2   8   -0.20    1.80
   8  -2  -8   -0.10    1.30
   8  -2  -8   -0.20    1.50
   8  -2  -8    1.50    1.40
  -8   2   8   -0.10    1.80
  -8   2   8    0.10    1.60
   7  -2  -8    0.90    1.60
   7  -2  -8    2.30    1.30
   7  -2  -8    1.40    1.40
  -7   2   8    4.80    1.80
  -7   2   8    3.00    2.00
  -7   2   8    8.30    2.00
   6  -2  -8   19.90    2.70
   6  -2  -8   19.50    2.90
  -6   2   8   28.30    3.50
  -6   2   8   24.70    3.30
  -6   2   8   26.00    3.10
   5  -2  -8    4.30    1.50
   5  -2  -8    5.70    1.60
   5  -2  -8    5.30    1.50
  -5   2   8    8.20    2.20
  -5   2   8    7.00    1.90
  -5   2   8   10.30    2.60
   4  -2  -8   25.20    3.00
   4  -2  -8   26.30    2.60
   4  -2  -8   31.20    3.10
  -4   2   8   28.60    3.20
  -4   2   8   30.20    3.60
  -4   2   8   28.70    3.90
   3  -2  -8    0.80    1.20
   3  -2  -8    3.30    1.40
   3  -2  -8    2.50    1.30
  -3   2   8    5.70    2.20
  -3   2   8    2.60    1.40
   2  -2  -8   -0.40    1.20
   2  -2  -8    4.80    1.50
  -2   2   8    4.40    1.50
  -2   2   8    3.80    1.80
   1  -2  -8    2.10    1.30
   1  -2  -8    2.60    1.30
   1  -2  -8    1.90    1.80
  -1   2   8    3.00    1.50
   0  -2  -8    2.70    1.40
   0  -2  -8    0.80    1.30
   0   2   8    1.00    1.40
  -1  -2  -8    2.20    1.50
  11  -3  -8   -1.70    1.90
  11  -3  -8   -2.40    1.80
 -11   3   8    0.80    1.50
 -11   3   8   -2.00    2.10
  10  -3  -8    1.60    2.00
  10  -3  -8    2.20    1.60
  10  -3  -8   -0.20    1.30
 -10   3   8    2.20    2.30
 -10   3   8   -0.20    1.70
   9  -3  -8    0.80    1.80
   9  -3  -8   -0.30    1.60
   9  -3  -8    1.10    1.50
  -9   3   8   -0.10    1.60
  -9   3   8    2.70    2.10
   8  -3  -8    5.30    1.80
   8  -3  -8    4.70    1.70
   8  -3  -8    4.30    1.70
  -8   3   8    6.60    1.80
  -8   3   8    8.60    2.50
   7  -3  -8    9.90    2.00
   7  -3  -8   10.70    2.50
  -7   3   8    8.60    2.30
  -7   3   8    6.00    2.00
   6  -3  -8    3.00    1.40
   6  -3  -8    3.80    1.60
   6  -3  -8    4.70    1.70
  -6   3   8    1.30    1.50
  -6   3   8    4.60    2.00
   5  -3  -8    0.70    1.30
   5  -3  -8    2.80    1.30
   5  -3  -8    1.10    1.30
  -5   3   8    2.50    1.90
  -5   3   8   -1.00    1.20
   4  -3  -8    0.10    1.20
   4  -3  -8   -0.10    1.20
   4  -3  -8    0.20    1.20
  -4   3   8   -0.70    0.90
   3  -3  -8    0.20    1.20
   3  -3  -8   -0.20    0.90
  -3   3   8   -0.50    1.30
   2  -3  -8   -0.90    1.10
   2  -3  -8    1.90    1.30
  -2   3   8    5.00    1.70
   1  -3  -8   -0.20    1.20
   1  -3  -8    0.20    1.60
   1  -3  -8    1.20    1.30
  -1   3   8    0.10    1.10
   0  -3  -8    1.40    1.80
   0  -3  -8    0.50    1.40
  -1  -3  -8    1.90    1.60
  -1  -3  -8    1.60    2.30
  11  -4  -8    1.30    2.20
 -11   4   8    0.80    3.30
  10  -4  -8   -0.70    2.00
  10  -4  -8   -0.20    1.60
  10  -4  -8    1.80    1.90
 -10   4   8    3.20    2.20
 -10   4   8   -2.20    2.00
   9  -4  -8    2.20    2.00
   9  -4  -8    1.70    1.60
  -9   4   8    4.70    2.10
  -9   4   8    2.00    2.10
   8  -4  -8    2.10    1.50
   8  -4  -8    1.60    1.60
  -8   4   8    2.30    2.20
  -8   4   8   -0.60    1.60
   7  -4  -8    7.40    2.00
   7  -4  -8    8.20    2.00
  -7   4   8   11.20    2.80
  -7   4   8    8.40    2.20
   6  -4  -8    6.30    2.10
   6  -4  -8    1.70    1.20
   6  -4  -8    2.30    1.60
  -6   4   8    4.60    2.00
   5  -4  -8    8.90    2.00
   5  -4  -8    9.70    2.00
   5  -4  -8    7.80    2.20
  -5   4   8    8.70    2.20
   4  -4  -8    9.70    2.10
   4  -4  -8    9.10    2.00
   4  -4  -8    6.90    2.00
  -4   4   8    5.60    2.00
   3  -4  -8    5.10    1.80
   3  -4  -8    7.30    1.90
  -3   4   8    7.70    2.10
   2  -4  -8   17.00    2.70
   2  -4  -8   23.40    3.00
  -2   4   8   16.50    2.70
   0  -4  -8   11.60    2.40
   9  -5  -8    2.60    1.70
   9  -5  -8    0.60    2.10
  -9   5   8    1.90    2.30
  -9   5   8    1.80    2.00
   8  -5  -8    3.70    1.80
  -8   5   8    2.80    2.10
   7  -5  -8    2.60    1.70
   7  -5  -8    2.30    1.70
   7  -5  -8    7.30    2.10
  -7   5   8    5.80    2.10
   6  -5  -8    1.70    2.00
  -6   5   8    1.20    1.80
   5  -5  -8   -0.20    1.40
   5  -5  -8   -0.90    1.70
   5  -5  -8    0.90    1.50
  -5   5   8   -0.40    1.60
   4  -5  -8   -1.30    1.40
   4  -5  -8   -2.50    1.40
   4  -5  -8    1.20    1.30
  -4   5   8    3.40    1.80
   3  -5  -8    1.20    1.50
   3  -5  -8    2.00    1.60
  -3   5   8   -1.10    1.40
   7  -6  -8    2.30    1.90
   6  -6  -8    2.70    2.20
  -6   6   8    0.90    2.00
   4  -6  -8    2.10    1.90
   4  12  -9   11.20    2.20
  -4 -12   9   12.90    3.20
  -4 -12   9   13.50    2.50
  -3 -12   9    0.30    2.10
  -3 -12   9    1.70    1.70
  -2 -12   9    1.90    2.20
  -2 -12   9    2.40    1.80
  -1 -12   9    5.10    2.30
  -1 -12   9    1.40    1.80
   0 -12   9    1.60    1.70
   0 -12   9    0.60    1.30
   1 -12   9    1.30    1.70
   6  11  -9   -0.70    1.30
  -6 -11   9    1.30    1.80
  -6 -11   9    2.50    2.00
  -6 -11   9    0.90    1.80
   5  11  -9    9.60    1.80
  -5 -11   9    9.50    2.00
  -5 -11   9   10.90    2.60
   4  11  -9    2.10    1.50
  -4 -11   9    4.30    2.40
  -4 -11   9    1.70    1.50
  -3 -11   9    3.40    1.40
  -3 -11   9    2.70    2.10
  -2 -11   9    2.20    1.30
  -2 -11   9    4.30    2.00
  -1 -11   9   -0.50    1.10
  -1 -11   9    0.10    1.60
   0 -11   9    1.30    1.60
   0 -11   9    2.00    1.80
   1 -11   9    3.30    1.50
   2 -11   9    2.30    1.70
   3 -11   9    0.50    1.80
  -8 -10   9   -0.10    1.20
   7  10  -9    1.60    1.40
  -7 -10   9    3.00    1.80
  -7 -10   9    1.10    1.70
  -7 -10   9   -0.10    1.50
   6  10  -9    1.10    1.30
  -6 -10   9   -0.80    1.40
  -6 -10   9   -0.30    1.30
  -6 -10   9   -1.40    1.20
   5  10  -9    0.00    0.90
  -5 -10   9   -0.10    1.80
  -5 -10   9    0.80    1.50
  -5 -10   9   -0.60    0.90
   4  10  -9    1.50    1.30
  -4 -10   9    1.30    1.40
  -4 -10   9    1.30    1.40
  -3 -10   9    5.00    2.10
  -3 -10   9    2.80    1.20
  -2 -10   9    1.20    1.30
  -2 -10   9    3.70    1.80
  -1 -10   9    6.40    1.80
  -1 -10   9    4.10    1.80
   0 -10   9   -0.50    0.90
   0 -10   9    0.40    1.70
   1 -10   9   -2.20    1.20
   2 -10   9    7.30    2.00
   3 -10   9    2.50    1.80
   4 -10   9   -1.80    1.50
   9   9  -9    2.30    1.50
  -9  -9   9    0.80    1.60
  -9  -9   9    1.50    2.40
  -9  -9   9   -0.50    1.90
   8   9  -9    0.60    1.30
  -8  -9   9    0.30    1.50
  -8  -9   9    0.50    2.30
  -8  -9   9    0.10    1.20
   7   9  -9   -0.80    1.10
  -7  -9   9    0.40    2.00
  -7  -9   9   -0.50    1.40
  -7  -9   9   -1.60    1.30
   6   9  -9   -0.60    0.80
  -6  -9   9   -0.20    1.10
  -6  -9   9    0.20    1.70
  -6  -9   9   -0.50    1.40
   5   9  -9   -0.30    1.10
  -5  -9   9   -0.60    1.20
  -5  -9   9    0.60    1.40
  -5  -9   9    0.60    1.30
   4   9  -9   -1.10    1.00
  -4  -9   9    1.40    1.60
  -4  -9   9   -0.20    1.10
  -4  -9   9    0.10    1.20
  -3  -9   9    6.80    2.20
  -3  -9   9    6.70    1.50
  -2  -9   9    1.80    1.30
  -2  -9   9    2.90    1.30
  -1  -9   9    5.30    1.60
  -1  -9   9    4.40    1.70
   0  -9   9    2.50    1.10
   1  -9   9    0.60    1.30
   2  -9   9    2.20    1.40
   3  -9   9   -0.50    1.30
  -4   9  -9    1.50    2.50
   4  -9   9    0.10    1.50
   9   8  -9    0.20    1.30
  -9  -8   9   -1.00    2.10
  -9  -8   9    0.30    1.60
  -9  -8   9    0.50    1.90
   8   8  -9    8.80    1.70
  -8  -8   9   13.30    3.20
  -8  -8   9    9.30    2.40
  -8  -8   9    6.50    1.80
   7   8  -9    0.50    1.20
  -7  -8   9   -0.10    1.80
  -7  -8   9   -1.10    1.30
  -7  -8   9   -1.40    1.20
   6   8  -9   -0.50    1.00
  -6  -8   9   -2.30    1.00
  -6  -8   9    1.10    1.20
  -6  -8   9    1.50    1.50
   5   8  -9    0.30    0.80
  -5  -8   9   -2.10    1.30
  -5  -8   9   -0.20    1.20
  -5  -8   9   -0.30    0.90
   4   8  -9    4.30    1.40
  -4  -8   9    3.30    1.40
  -4  -8   9    4.90    2.00
  -4  -8   9    7.40    1.70
  -3  -8   9   10.00    2.20
  -3  -8   9    5.40    1.50
  -2  -8   9   23.40    3.20
  -2  -8   9   20.90    2.50
  -1  -8   9    0.80    1.30
  -1  -8   9    0.20    1.10
   0  -8   9    8.40    1.80
   1  -8   9    4.00    1.40
  -2   8  -9    0.10    2.00
   2  -8   9    0.00    1.20
  -3   8  -9    0.30    2.00
   3  -8   9    1.00    1.30
  -4   8  -9    0.50    2.20
  10   7  -9    3.80    1.80
  10   7  -9    4.40    2.20
 -10  -7   9    3.30    2.10
 -10  -7   9    5.90    2.40
   9   7  -9    2.40    1.50
  -9  -7   9    1.30    1.60
  -9  -7   9    1.40    1.90
  -9  -7   9    3.30    2.40
   8   7  -9    3.60    1.50
  -8  -7   9    4.10    1.70
  -8  -7   9    1.80    2.10
  -8  -7   9    2.60    1.60
   7   7  -9   -0.30    1.10
  -7  -7   9    0.30    1.40
  -7  -7   9    2.40    1.70
  -7  -7   9    0.50    1.60
   6   7  -9    0.80    0.90
  -6  -7   9    1.60    1.40
  -6  -7   9    3.00    1.90
  -6  -7   9    2.00    1.30
   5   7  -9    6.10    1.50
  -5  -7   9    5.70    1.60
  -5  -7   9    6.30    2.20
  -5  -7   9    4.80    1.70
   4   7  -9    5.80    1.40
  -4  -7   9    5.60    1.60
  -4  -7   9    7.70    2.20
  -4  -7   9    3.00    1.30
   3   7  -9   24.80    2.40
  -3  -7   9   32.50    3.70
  -3  -7   9   27.40    3.00
  -3  -7   9   28.70    2.60
  -2  -7   9   64.99    5.20
  -2  -7   9   67.69    4.70
  -1  -7   9   26.90    2.60
  -1  -7   9   25.30    3.10
   0  -7   9   18.00    2.20
  -1   7  -9    3.80    2.20
   1  -7   9    2.70    1.20
  -2   7  -9    0.60    1.80
   2  -7   9   -0.40    1.00
  -3   7  -9    1.00    2.00
  -4   7  -9    3.60    2.70
  11   6  -9    0.90    2.00
  11   6  -9    3.10    1.80
 -11  -6   9    1.60    2.10
 -11  -6   9   -2.30    2.10
  10   6  -9   19.00    2.90
  10   6  -9   18.20    3.20
 -10  -6   9   13.30    3.50
 -10  -6   9   22.80    3.30
   9   6  -9   34.30    4.10
   9   6  -9   29.20    3.20
  -9  -6   9   30.10    4.40
  -9  -6   9   27.30    3.40
  -9  -6   9   24.20    3.50
   8   6  -9    8.30    1.80
   8   6  -9    8.20    2.20
  -8  -6   9    7.50    1.90
  -8  -6   9    5.70    2.10
  -8  -6   9    5.50    2.50
   7   6  -9   46.90    3.60
  -7  -6   9   47.60    4.30
  -7  -6   9   44.80    4.50
  -7  -6   9   43.50    3.80
   6   6  -9    0.50    1.10
  -6  -6   9   -0.70    1.20
  -6  -6   9   -0.40    1.10
  -6  -6   9    0.30    1.70
   5   6  -9   73.99    5.10
  -5  -6   9   84.69    6.30
  -5  -6   9   85.09    5.80
  -5  -6   9   68.39    5.20
   4   6  -9    0.50    1.00
  -4  -6   9    0.30    1.20
  -4  -6   9    2.40    1.30
  -4  -6   9   -0.70    1.00
   3   6  -9  122.99    7.30
  -3  -6   9  107.69    8.00
  -3  -6   9  119.79    7.50
  -3  -6   9  121.09    7.70
  -2  -6   9    6.10    1.70
  -2  -6   9    6.30    1.40
   1   6  -9   51.99    5.50
  -1  -6   9   54.29    4.10
  -1  -6   9   65.49    5.80
   0   6  -9    0.60    1.80
   0  -6   9    0.20    0.90
  -1   6  -9    0.30    1.60
   1  -6   9   -0.20    0.90
  -2   6  -9    0.40    1.80
  -3   6  -9    8.20    3.10
  -4   6  -9    1.00    2.30
  11   5  -9   -1.00    1.40
  11   5  -9   -0.40    1.20
 -11  -5   9    1.70    1.50
 -11  -5   9   -0.40    2.10
 -11  -5   9    2.50    2.20
  10   5  -9    1.20    1.40
  10   5  -9    1.70    1.30
 -10  -5   9    2.00    2.00
 -10  -5   9    1.70    1.80
 -10  -5   9    4.20    1.70
   9   5  -9    5.70    1.60
   9   5  -9    7.60    2.30
  -9  -5   9    7.70    2.00
  -9  -5   9    5.70    1.70
  -9  -5   9    5.10    1.70
  -9  -5   9    7.30    2.70
   8   5  -9   19.90    3.10
   8   5  -9   17.90    2.40
  -8  -5   9   17.80    2.70
  -8  -5   9   14.80    3.30
  -8  -5   9   17.40    2.30
  -8  -5   9   14.50    2.80
   7   5  -9    2.80    1.20
   7   5  -9   -0.30    1.50
  -7  -5   9   -0.60    0.90
  -7  -5   9   -0.10    1.10
  -7  -5   9    1.70    2.10
  -7  -5   9    0.80    1.30
   6   5  -9    9.70    1.70
   6   5  -9   14.60    2.50
  -6  -5   9   11.20    2.70
  -6  -5   9   12.20    2.40
  -6  -5   9    8.60    1.90
  -6  -5   9   13.00    1.80
   5   5  -9   25.80    3.10
   5   5  -9   25.80    2.40
  -5  -5   9   22.30    2.40
  -5  -5   9   23.20    3.00
  -5  -5   9   21.10    2.60
   4   5  -9   30.20    3.10
   4   5  -9   29.60    2.60
  -4  -5   9   31.10    3.30
  -4  -5   9   31.20    2.80
  -4  -5   9   27.40    3.60
  -4  -5   9   29.20    2.50
   3   5  -9   60.69    4.20
   3   5  -9   58.89    4.60
   3   5  -9   63.49    4.20
  -3  -5   9   57.39    5.00
  -3  -5   9   71.39    4.90
  -3  -5   9   58.29    4.30
  -3  -5   9   66.79    4.80
   2   5  -9   46.10    3.60
   2   5  -9   47.50    3.90
   2   5  -9   57.59    3.70
   2   5  -9   56.89    5.40
  -2  -5   9   53.49    3.80
  -2  -5   9   48.20    4.30
  -2  -5   9   53.29    5.10
  -2  -5   9   47.30    3.90
   1   5  -9    3.80    1.90
  -1  -5   9    6.30    1.30
  -1  -5   9    4.30    2.10
   0   5  -9    4.20    2.20
   0  -5   9    7.30    1.50
   0  -5   9    7.80    2.40
  -1   5  -9   -0.70    1.50
   1  -5   9    0.50    2.10
  -2   5  -9    5.00    2.60
  -3   5  -9   -1.30    1.80
  -4   5  -9    7.30    3.10
 -12  -4   9    4.10    2.60
  11   4  -9    1.00    1.20
  11   4  -9    1.50    1.50
 -11  -4   9   -0.70    1.20
 -11  -4   9   -1.50    1.60
 -11  -4   9   -0.90    1.80
  10   4  -9    0.90    1.30
  10   4  -9   -0.60    1.00
 -10  -4   9    2.40    2.40
 -10  -4   9    3.00    2.00
 -10  -4   9    0.30    1.30
   9   4  -9    0.40    1.00
   9   4  -9   -0.80    1.60
  -9  -4   9    1.60    2.30
  -9  -4   9    0.50    1.50
  -9  -4   9    0.70    1.20
   8   4  -9   26.50    2.70
   8   4  -9   31.40    3.70
  -8  -4   9   31.50    3.60
  -8  -4   9   26.40    4.10
  -8  -4   9   23.30    3.00
  -8  -4   9   24.30    2.90
   7   4  -9   69.09    4.90
   7   4  -9   66.99    5.40
  -7  -4   9   68.89    6.10
  -7  -4   9   68.39    5.40
  -7  -4   9   61.59    5.00
  -7  -4   9   70.89    4.90
   6   4  -9   80.69    5.30
   6   4  -9   83.39    5.80
  -6  -4   9   65.99    5.40
  -6  -4   9   81.89    6.40
  -6  -4   9   75.19    5.10
  -6  -4   9   70.59    5.40
   5   4  -9   30.20    3.20
   5   4  -9   33.20    2.80
  -5  -4   9   39.30    3.60
  -5  -4   9   31.80    3.00
  -5  -4   9   30.70    2.70
  -5  -4   9   35.50    4.20
   4   4  -9   13.30    2.80
   4   4  -9   12.60    2.20
   4   4  -9   11.60    1.50
   4   4  -9    9.10    1.60
  -4  -4   9   13.80    1.80
  -4  -4   9    9.20    2.30
  -4  -4   9   11.20    1.80
  -4  -4   9   12.40    2.10
  -4  -4   9   10.40    2.10
   3   4  -9    6.50    1.20
   3   4  -9    7.40    1.30
   3   4  -9    5.50    2.00
   3   4  -9    6.10    1.30
   3   4  -9    4.60    1.40
  -3  -4   9    5.60    1.80
  -3  -4   9    7.00    1.40
  -3  -4   9    6.30    1.20
  -3  -4   9    6.20    1.90
  -3  -4   9    5.00    1.50
   2   4  -9    0.90    0.80
   2   4  -9    2.70    1.10
   2   4  -9    0.30    0.80
   2   4  -9    2.00    1.10
   2   4  -9    0.80    1.70
  -2  -4   9    0.60    1.50
  -2  -4   9    0.30    1.10
  -2  -4   9    0.50    0.90
  -2  -4   9    1.70    1.00
  -2  -4   9    1.90    1.10
   1   4  -9   69.79    6.70
   1   4  -9   70.79    4.60
  -1  -4   9   66.69    4.60
  -1  -4   9   64.99    6.50
   0   4  -9   13.60    1.90
   0   4  -9   14.10    3.30
   0  -4   9   14.30    3.60
   0  -4   9   12.50    1.80
  -1   4  -9   56.99    6.30
  -1   4  -9   57.59    4.30
   1  -4   9   62.29    6.60
  -2   4  -9    9.50    3.00
  -2   4  -9   12.60    1.90
  -3   4  -9   -0.60    1.80
  -4   4  -9    4.00    2.90
  12   3  -9   -0.80    1.60
  12   3  -9    1.70    2.10
 -12  -3   9    5.30    2.10
 -12  -3   9    2.30    2.50
 -12  -3   9   -0.70    1.80
  11   3  -9   -0.30    1.10
  11   3  -9   -1.90    1.10
 -11  -3   9   -2.00    1.80
 -11  -3   9   -2.00    1.30
 -11  -3   9    1.50    2.50
  10   3  -9    0.20    1.40
  10   3  -9    0.60    1.80
 -10  -3   9   -1.70    1.20
 -10  -3   9   -0.70    1.20
 -10  -3   9    1.20    2.50
   9   3  -9    2.30    1.50
   9   3  -9    2.80    1.90
  -9  -3   9    0.50    1.40
  -9  -3   9   -0.10    1.70
  -9  -3   9    0.30    2.40
   8   3  -9   22.20    2.70
   8   3  -9   20.10    3.10
  -8  -3   9   17.20    3.50
  -8  -3   9   20.80    2.60
  -8  -3   9   17.20    2.70
   7   3  -9   12.30    2.40
   7   3  -9    9.10    1.60
  -7  -3   9    7.90    1.80
  -7  -3   9    3.20    1.60
  -7  -3   9    8.40    2.60
  -7  -3   9    9.30    1.70
   6   3  -9   67.99    4.80
   6   3  -9   77.59    5.50
  -6  -3   9   64.19    6.00
  -6  -3   9   77.49    5.60
  -6  -3   9   74.89    5.00
  -6  -3   9   62.99    4.90
   5   3  -9    0.80    1.10
   5   3  -9    0.80    0.90
   5   3  -9   -1.40    1.10
  -5  -3   9    0.80    1.50
  -5  -3   9   -0.60    1.60
  -5  -3   9    2.70    1.30
  -5  -3   9    1.30    1.00
  -5  -3   9    0.90    0.80
   4   3  -9    1.80    1.20
   4   3  -9    3.80    1.00
   4   3  -9    2.70    1.00
   4   3  -9    4.40    1.20
  -4  -3   9    0.60    1.20
  -4  -3   9    4.20    1.20
  -4  -3   9    1.70    1.60
  -4  -3   9    2.10    1.10
  -4  -3   9    2.30    1.50
   3   3  -9    1.90    1.00
   3   3  -9    0.80    1.70
   3   3  -9    2.20    0.90
   3   3  -9    1.20    1.00
   3   3  -9    1.20    0.90
  -3  -3   9    0.00    1.10
  -3  -3   9    1.50    0.90
  -3  -3   9    0.00    0.90
  -3  -3   9    1.70    1.60
  -3  -3   9    1.60    1.50
   2   3  -9    4.10    2.20
   2   3  -9    6.10    1.30
   2   3  -9    5.60    1.30
   2   3  -9    5.60    1.40
  -2  -3   9    5.30    1.30
  -2  -3   9    6.30    2.40
  -2  -3   9    5.60    1.50
  -2  -3   9    4.60    1.80
   1   3  -9    9.10    1.60
   1   3  -9    6.50    1.40
   1   3  -9    7.90    2.60
  -1  -3   9    7.50    1.50
  -1  -3   9    7.40    1.50
  -1  -3   9   10.50    3.30
   0   3  -9   57.89    6.40
   0   3  -9   59.99    4.30
   0  -3   9   58.79    6.50
   0  -3   9   59.09    4.40
  -1   3  -9   10.40    1.80
  -1   3  -9    7.60    2.90
   1  -3   9   17.20    3.80
  -2   3  -9   11.80    3.60
  -2   3  -9   11.50    2.00
  -4   3  -9    1.40    2.60
  -4   3  -9   -0.20    1.30
  12   2  -9   -0.70    1.30
  12   2  -9    2.60    1.80
 -12  -2   9    1.00    1.80
 -12  -2   9    0.80    2.10
 -12  -2   9    2.80    2.20
  11   2  -9    0.60    1.60
  11   2  -9    1.10    2.00
 -11  -2   9    3.50    2.80
 -11  -2   9    2.60    1.70
 -11  -2   9    1.00    1.90
  10   2  -9   -0.70    1.10
  10   2  -9    1.10    1.30
 -10  -2   9   -0.80    2.10
 -10  -2   9   -1.00    1.40
 -10  -2   9   -1.00    1.70
   9   2  -9    0.40    1.20
   9   2  -9    1.50    1.50
  -9  -2   9   -0.60    1.70
  -9  -2   9   -1.90    2.10
  -9  -2   9   -2.40    1.30
   8   2  -9    7.00    1.60
   8   2  -9    7.00    2.20
  -8  -2   9    8.30    2.30
  -8  -2   9    7.70    2.90
  -8  -2   9    7.60    1.90
   7   2  -9    5.20    1.70
   7   2  -9    2.50    1.30
   7   2  -9    4.00    1.40
  -7  -2   9    2.00    1.60
  -7  -2   9    2.10    1.40
  -7  -2   9    3.20    2.30
   6   2  -9   14.30    2.00
   6   2  -9   16.30    2.30
   6   2  -9   16.80    2.70
  -6  -2   9   16.20    3.30
  -6  -2   9   16.40    2.30
  -6  -2   9   15.30    2.70
   5   2  -9    0.80    0.90
   5   2  -9    0.80    0.90
   5   2  -9    0.40    1.20
  -5  -2   9    0.40    1.40
  -5  -2   9    0.60    1.00
  -5  -2   9    0.10    1.00
  -5  -2   9    0.90    1.30
  -5  -2   9    1.00    1.30
   4   2  -9   36.10    2.90
   4   2  -9   31.40    2.60
   4   2  -9   30.90    3.00
   4   2  -9   35.30    3.00
  -4  -2   9   33.80    2.90
  -4  -2   9   34.00    3.70
  -4  -2   9   29.30    3.90
  -4  -2   9   34.20    4.10
  -4  -2   9   33.00    2.80
   3   2  -9    0.00    0.90
   3   2  -9    0.40    0.90
   3   2  -9   -0.30    0.80
  -3  -2   9    0.80    1.30
  -3  -2   9    0.10    0.90
  -3  -2   9   -0.60    1.40
  -3  -2   9   -0.30    1.00
   2   2  -9   39.50    4.70
   2   2  -9   41.40    3.20
   2   2  -9   40.10    3.30
  -2  -2   9   37.40    4.90
  -2  -2   9   40.40    3.40
  -2  -2   9   35.00    3.10
   1   2  -9   39.80    3.30
   1   2  -9   46.50    3.50
   1   2  -9   44.30    5.40
  -1  -2   9   41.50    3.50
  -1  -2   9   39.30    3.50
  -1  -2   9   41.30    5.30
   0   2  -9    2.80    2.20
   0   2  -9    5.30    1.40
   0  -2   9    9.20    3.10
   0  -2   9    3.00    1.40
  -1   2  -9   40.40    5.70
  -1   2  -9   39.40    3.70
   1  -2   9   54.29    5.70
  -3   2  -9    2.90    1.50
  -3   2  -9    4.60    2.80
  -4   2  -9    1.20    1.40
  -4   2  -9   -0.60    2.00
  12   1  -9    5.80    2.40
  12   1  -9    4.00    2.10
 -12  -1   9    3.10    2.40
 -12  -1   9    2.50    1.90
 -12  -1   9    5.10    3.20
  11   1  -9    0.70    1.20
  11   1  -9    1.80    1.40
 -11  -1   9    2.40    2.10
 -11  -1   9   -0.80    1.80
 -11  -1   9    1.50    1.80
  10   1  -9    1.80    1.40
  10   1  -9    2.80    1.60
 -10  -1   9    0.20    1.60
 -10  -1   9    0.80    1.80
 -10  -1   9    1.10    2.00
   9   1  -9    1.40    1.50
   9   1  -9    1.80    1.70
   9   1  -9    1.70    1.40
  -9  -1   9   -1.60    1.70
  -9  -1   9    1.20    1.10
  -9  -1   9   -0.10    2.50
   8   1  -9    6.20    1.80
   8   1  -9    3.70    1.50
   8   1  -9    4.10    1.50
  -8  -1   9    6.00    1.60
  -8  -1   9    6.90    2.30
  -8  -1   9    2.30    1.90
   7   1  -9   -1.60    1.00
   7   1  -9   -2.20    0.90
   7   1  -9    0.60    1.10
  -7  -1   9    0.00    1.50
  -7  -1   9   -1.90    1.60
  -7  -1   9    0.60    1.40
   6   1  -9    0.20    1.40
   6   1  -9    4.40    1.30
   6   1  -9    3.00    1.40
  -6  -1   9    1.90    2.30
  -6  -1   9    5.80    1.80
  -6  -1   9    5.30    1.60
  -6  -1   9    3.70    1.80
   5   1  -9    4.80    1.50
   5   1  -9    4.40    1.60
  -5  -1   9    5.90    2.10
  -5  -1   9    3.30    2.00
  -5  -1   9    5.10    1.50
  -5  -1   9    6.00    2.00
   4   1  -9   84.89    5.70
   4   1  -9   80.19    5.90
   4   1  -9   95.19    6.00
  -4  -1   9   94.99    5.90
  -4  -1   9   81.49    7.00
  -4  -1   9   74.89    6.60
  -4  -1   9   94.09    6.40
   3   1  -9    0.30    1.00
   3   1  -9    1.20    1.20
   3   1  -9    0.70    1.10
  -3  -1   9    2.80    1.50
  -3  -1   9    1.40    2.00
  -3  -1   9    0.90    1.10
   2   1  -9   44.20    3.50
   2   1  -9   44.60    3.40
   2   1  -9   45.50    5.20
  -2  -1   9   42.00    5.20
  -2  -1   9   38.70    3.70
  -2  -1   9   42.60    3.40
   1   1  -9    4.20    1.50
   1   1  -9    3.20    2.00
   1   1  -9    4.40    1.40
  -1  -1   9    7.20    3.00
  -1  -1   9    3.10    1.20
   0   1  -9   18.20    2.20
   0   1  -9   15.60    2.30
   0   1  -9   15.20    3.80
   0  -1   9   23.60    3.50
   0  -1   9   14.80    2.30
  -1   1  -9   12.00    2.10
  -1   1  -9    9.20    3.30
  -2   1  -9   13.50    2.30
  -2   1  -9   16.00    4.00
  12   0  -9   -1.00    1.50
  12   0  -9   -1.80    1.70
  12   0  -9    3.50    2.20
 -12   0   9    1.30    2.30
 -12   0   9   -0.40    1.70
  11   0  -9    1.70    1.90
  11   0  -9    1.30    1.60
  11   0  -9    3.30    2.20
 -11   0   9    4.00    2.00
 -11   0   9    3.80    2.40
  10   0  -9    1.90    1.80
  10   0  -9   -0.40    1.50
  10   0  -9    0.00    1.40
 -10   0   9   -0.60    1.90
 -10   0   9    0.70    2.10
   9   0  -9   -0.60    1.00
   9   0  -9    0.00    1.60
   9   0  -9   -0.10    1.40
  -9   0   9   -2.60    1.30
  -9   0   9   -2.90    1.40
  -9   0   9   -2.90    2.40
   8   0  -9    4.60    2.00
   8   0  -9    6.10    1.70
   8   0  -9    8.70    1.80
  -8   0   9    5.60    2.30
  -8   0   9    7.90    2.10
  -8   0   9    1.00    2.50
   7   0  -9    2.40    1.60
   7   0  -9    1.50    1.10
   7   0  -9    3.30    1.40
  -7   0   9    0.70    1.40
  -7   0   9    2.20    2.60
  -7   0   9    0.00    1.40
   6   0  -9   37.20    3.40
   6   0  -9   37.40    3.70
   6   0  -9   35.90    3.10
  -6   0   9   37.20    4.30
  -6   0   9   34.10    3.70
  -6   0   9   37.40    4.10
   5   0  -9   -0.20    1.30
   5   0  -9    0.20    1.10
   5   0  -9   -0.10    1.10
  -5   0   9   -0.50    1.10
  -5   0   9    1.80    1.70
  -5   0   9    1.70    1.30
   4   0  -9   27.80    3.10
   4   0  -9   30.60    2.80
   4   0  -9   25.80    3.10
  -4   0   9   29.50    4.10
  -4   0   9   26.30    3.40
  -4   0   9   30.50    3.20
   3   0  -9    8.10    1.70
   3   0  -9    7.70    1.70
   3   0  -9    8.80    1.70
  -3   0   9    7.60    1.80
  -3   0   9    8.90    2.50
  -3   0   9    6.10    1.90
   2   0  -9    1.20    1.00
   2   0  -9    1.20    1.90
   2   0  -9    0.20    1.10
  -2   0   9    1.30    1.50
  -2   0   9    1.10    1.20
   1   0  -9   40.30    5.40
   1   0  -9   35.60    3.30
   1   0  -9   42.40    3.40
  -1   0   9   33.30    4.50
  -1   0   9   34.70    3.20
   0   0  -9    7.40    1.70
   0   0  -9    7.10    1.60
   0   0  -9    6.30    2.90
   0   0   9   10.30    2.10
  -3   0  -9    2.80    1.60
  -3   0  -9    3.90    3.20
  12  -1  -9    1.30    1.70
  12  -1  -9   -0.40    1.40
  12  -1  -9    0.30    2.00
 -12   1   9    0.80    2.40
 -12   1   9   -3.00    1.70
  11  -1  -9    4.10    2.20
  11  -1  -9    2.20    1.70
 -11   1   9    1.20    2.30
  10  -1  -9    1.30    1.70
  10  -1  -9    0.30    1.40
  10  -1  -9    0.00    1.80
 -10   1   9    2.30    1.80
 -10   1   9   -2.40    1.80
   9  -1  -9   -0.30    1.70
   9  -1  -9    0.30    1.30
   9  -1  -9   -1.40    1.40
  -9   1   9   -1.60    1.50
  -9   1   9   -1.50    1.70
   8  -1  -9   -1.20    1.30
   8  -1  -9   -2.20    1.40
   8  -1  -9    1.00    1.40
  -8   1   9   -0.10    1.50
  -8   1   9   -0.40    1.70
   7  -1  -9    0.80    1.70
   7  -1  -9   -0.20    1.20
   7  -1  -9    0.00    1.60
  -7   1   9    0.10    1.40
  -7   1   9   -0.30    1.70
   6  -1  -9    0.10    1.40
   6  -1  -9    0.10    0.90
  -6   1   9    0.20    1.50
  -6   1   9    0.40    1.40
  -6   1   9    5.60    1.80
   5  -1  -9   21.70    2.80
   5  -1  -9   26.60    3.00
   5  -1  -9   24.00    3.00
  -5   1   9   26.20    3.40
  -5   1   9   29.40    3.70
  -5   1   9   25.00    3.10
   4  -1  -9   12.00    2.10
   4  -1  -9   10.90    2.00
   4  -1  -9    6.20    1.80
  -4   1   9   16.00    3.40
  -4   1   9    7.10    2.20
  -4   1   9   11.30    2.20
   3  -1  -9   40.50    3.60
   3  -1  -9   32.90    3.30
  -3   1   9   35.80    3.80
  -3   1   9   42.70    4.70
   2  -1  -9    2.20    1.90
   2  -1  -9    3.20    1.40
   2  -1  -9    1.30    1.20
  -2   1   9    0.90    1.40
   1  -1  -9   18.60    2.50
   1  -1  -9   26.30    2.90
   1  -1  -9   19.30    4.10
  -1   1   9   20.80    2.80
   0  -1  -9    2.50    1.40
   0  -1  -9    1.50    2.40
   0  -1  -9    1.00    1.30
  -1  -1  -9   20.60    2.70
  -1  -1  -9   20.60    2.90
  -1  -1  -9   22.20    4.80
  11  -2  -9    1.00    1.60
  11  -2  -9    2.60    2.10
  11  -2  -9   -0.80    2.00
 -11   2   9    1.50    2.20
  10  -2  -9    0.70    1.90
  10  -2  -9    0.30    1.80
  10  -2  -9   -0.40    1.40
 -10   2   9   -0.30    2.00
   9  -2  -9    1.30    1.60
   9  -2  -9    1.40    1.50
   9  -2  -9   -1.30    1.60
  -9   2   9   -0.10    1.30
  -9   2   9    2.00    2.30
   8  -2  -9   -1.00    1.30
   8  -2  -9   -0.80    1.20
  -8   2   9   -0.10    1.80
  -8   2   9    0.80    1.60
   7  -2  -9    0.20    1.30
   7  -2  -9   -2.00    1.20
  -7   2   9   -1.30    1.70
  -7   2   9    0.20    1.50
   6  -2  -9   -1.50    1.10
   6  -2  -9    1.80    1.40
   6  -2  -9    2.30    1.70
  -6   2   9    0.20    1.40
  -6   2   9    3.90    2.00
   5  -2  -9   -0.40    1.10
   5  -2  -9    0.30    1.10
   5  -2  -9   -0.90    1.20
  -5   2   9   -1.70    1.30
  -5   2   9   -1.50    1.40
   4  -2  -9    3.60    1.60
   4  -2  -9    2.20    1.50
   4  -2  -9    2.70    1.40
  -4   2   9    2.30    1.50
   3  -2  -9    0.90    1.30
   3  -2  -9    2.70    1.40
  -3   2   9    1.60    1.10
   2  -2  -9    0.40    1.20
  -2   2   9    0.00    1.20
   1  -2  -9    4.50    1.70
   1  -2  -9    6.30    1.70
   1  -2  -9    4.40    2.70
  10  -3  -9    2.90    2.30
  10  -3  -9   -1.00    1.90
  10  -3  -9    0.80    1.60
 -10   3   9   -0.60    2.30
 -10   3   9    0.80    2.00
   9  -3  -9    2.00    1.70
   9  -3  -9    1.80    2.10
  -9   3   9    0.60    1.40
  -9   3   9   -1.10    2.00
   8  -3  -9    1.10    1.50
   8  -3  -9    0.00    1.80
  -8   3   9   -2.40    1.80
  -8   3   9    0.70    1.30
   7  -3  -9   -0.60    1.60
   7  -3  -9    1.50    1.60
   7  -3  -9   -0.70    1.40
  -7   3   9    0.40    2.00
  -7   3   9    0.50    1.70
   6  -3  -9   -1.20    1.50
   6  -3  -9    0.40    1.40
   6  -3  -9   -2.60    1.10
  -6   3   9   -1.20    1.40
  -6   3   9   -1.90    1.80
   5  -3  -9   -0.80    1.00
   5  -3  -9    0.80    1.60
   5  -3  -9   -2.00    1.10
  -5   3   9   -1.20    1.00
   4  -3  -9   -1.60    1.30
  -4   3   9   -0.20    1.10
   3  -3  -9    1.40    1.50
   3  -3  -9    0.40    1.40
  -3   3   9    0.70    1.10
   2  -3  -9    3.30    1.60
 -10   4   9    1.60    2.20
   9  -4  -9   -0.10    2.10
  -9   4   9    2.40    2.40
   8  -4  -9    2.20    2.10
  -8   4   9   -0.10    2.30
   7  -4  -9    0.00    1.80
   7  -4  -9   -0.20    1.50
   7  -4  -9   -0.30    1.40
  -7   4   9   -1.50    1.70
   6  -4  -9    0.60    1.40
   6  -4  -9   -0.60    1.50
   6  -4  -9   -0.10    1.10
  -6   4   9    0.20    1.60
   5  -4  -9   -0.60    1.20
   5  -4  -9   -1.40    1.40
   5  -4  -9   -1.50    1.40
  -5   4   9   -0.60    1.60
   7  -5  -9    3.00    1.60
   7  -5  -9   -2.40    1.90
   7  -5  -9   -1.20    1.60
  -7   5   9    1.20    2.00
   6  -5  -9    7.10    2.30
   6  -5  -9    5.80    2.10
  -6   5   9    9.60    2.50
   5  -5  -9    2.60    2.00
   5  -5  -9    2.80    1.80
  -5   5   9    2.10    2.00
  -4   5   9   70.89    5.20
  -3 -12  10    0.10    1.30
  -3 -12  10    0.40    2.10
  -2 -12  10    0.60    1.80
  -2 -12  10   -0.30    1.90
  -1 -12  10    0.10    1.80
   6  11 -10    0.20    1.40
  -6 -11  10    5.30    2.80
  -6 -11  10   -2.30    1.50
  -6 -11  10   -1.30    1.70
   5  11 -10    3.50    1.30
  -5 -11  10    4.00    1.60
  -5 -11  10    6.80    2.70
   4  11 -10    1.00    1.10
  -4 -11  10    0.20    2.10
  -4 -11  10    2.70    1.70
  -3 -11  10   -0.30    1.20
  -3 -11  10   -0.10    1.80
  -2 -11  10    1.90    1.30
  -2 -11  10    4.70    2.10
  -1 -11  10   -0.90    1.40
  -1 -11  10    0.30    1.80
   0 -11  10    2.10    1.40
   1 -11  10    3.90    2.00
   7  10 -10    1.60    1.20
  -7 -10  10    1.30    2.30
  -7 -10  10    4.50    2.10
  -7 -10  10   -0.20    1.20
   6  10 -10   12.50    2.30
  -6 -10  10   13.70    3.30
  -6 -10  10   13.20    2.50
  -6 -10  10   15.70    2.70
   5  10 -10    4.10    1.50
  -5 -10  10    0.80    1.60
  -5 -10  10    4.90    2.40
   4  10 -10    5.00    1.40
  -4 -10  10    4.80    1.50
  -4 -10  10    4.70    2.30
  -3 -10  10    2.20    1.80
  -3 -10  10    2.60    1.20
  -2 -10  10    0.90    1.60
  -2 -10  10   -1.00    0.90
  -1 -10  10    9.50    2.10
  -1 -10  10   11.20    3.60
   0 -10  10    5.50    1.80
   1 -10  10   18.00    2.80
   2 -10  10    7.00    2.00
   8   9 -10    0.40    1.10
  -8  -9  10    0.90    1.80
  -8  -9  10    0.10    1.20
  -8  -9  10    1.70    2.40
   7   9 -10   -0.20    1.20
  -7  -9  10    0.30    1.60
  -7  -9  10   -1.20    1.30
  -7  -9  10    0.40    1.60
   6   9 -10    1.10    1.30
  -6  -9  10    0.20    1.10
  -6  -9  10    0.40    1.40
  -6  -9  10    1.40    2.00
   5   9 -10   -0.10    1.20
  -5  -9  10    3.30    2.10
  -5  -9  10    0.00    1.30
  -5  -9  10   -0.10    1.40
   4   9 -10   -0.60    1.20
  -4  -9  10    0.10    1.30
  -4  -9  10   -0.50    1.70
  -3  -9  10    0.90    1.60
  -3  -9  10    0.30    1.20
  -2  -9  10    4.20    1.50
  -2  -9  10    5.60    2.00
  -1  -9  10    3.80    1.50
   0  -9  10   -0.20    1.20
   1  -9  10    0.00    1.00
   2  -9  10   -1.10    1.20
   9   8 -10    0.40    1.40
  -9  -8  10    0.70    1.60
  -9  -8  10    2.30    1.90
  -9  -8  10    5.50    2.70
   8   8 -10   -0.10    1.20
  -8  -8  10   -0.50    1.60
  -8  -8  10   -1.40    2.10
  -8  -8  10    0.80    1.50
   7   8 -10    2.60    1.50
  -7  -8  10    3.90    1.80
  -7  -8  10    5.00    2.10
  -7  -8  10    1.40    1.70
   6   8 -10    7.60    1.60
  -6  -8  10    5.10    1.80
  -6  -8  10    7.20    1.60
  -6  -8  10    3.80    2.20
   5   8 -10    0.80    1.20
  -5  -8  10    0.60    1.60
  -5  -8  10   -0.20    1.60
  -5  -8  10    0.00    1.20
   4   8 -10    2.90    1.30
  -4  -8  10    1.60    1.30
  -4  -8  10    1.50    1.30
   3   8 -10    4.60    1.40
  -3  -8  10    3.40    1.80
  -3  -8  10    5.40    1.60
  -2  -8  10    1.20    1.20
  -2  -8  10    4.10    1.70
  -1  -8  10    6.30    1.60
   0  -8  10    2.30    1.30
   1  -8  10    0.20    1.20
  -3   8 -10   -0.30    2.20
  10   7 -10    0.10    2.10
  10   7 -10    3.10    1.70
 -10  -7  10    2.50    1.90
 -10  -7  10   -0.10    2.00
 -10  -7  10   -0.40    2.30
   9   7 -10    1.30    1.50
   9   7 -10    3.80    2.30
  -9  -7  10    2.70    1.80
  -9  -7  10    7.20    2.90
  -9  -7  10    1.00    1.90
   8   7 -10    0.70    1.30
   8   7 -10    0.00    0.90
  -8  -7  10   -0.70    1.50
  -8  -7  10    0.50    1.60
  -8  -7  10    0.50    1.10
   7   7 -10   -0.30    1.20
  -7  -7  10    0.20    1.30
  -7  -7  10    1.60    2.10
  -7  -7  10   -1.60    1.30
   6   7 -10    0.60    1.20
  -6  -7  10    1.90    1.40
  -6  -7  10   -0.70    1.40
  -6  -7  10    3.40    2.10
   5   7 -10    3.60    1.20
  -5  -7  10    5.10    2.20
  -5  -7  10    2.60    1.20
  -5  -7  10    2.50    1.50
   4   7 -10    0.20    1.10
  -4  -7  10    1.20    1.20
  -4  -7  10   -0.80    1.30
  -4  -7  10    3.20    1.50
   3   7 -10    1.10    1.10
  -3  -7  10    3.30    1.60
  -3  -7  10    1.50    1.20
  -2  -7  10    4.60    1.40
  -2  -7  10    2.90    1.60
  -1  -7  10    0.80    1.10
   0  -7  10    1.70    1.10
  -1   7 -10    0.80    2.00
  -2   7 -10   -0.90    1.80
  -3   7 -10    0.90    2.20
 -11  -6  10    1.10    2.40
  10   6 -10    1.00    1.50
  10   6 -10    0.10    1.10
 -10  -6  10    0.50    2.00
 -10  -6  10    0.10    1.70
   9   6 -10   10.30    2.70
   9   6 -10    5.20    1.60
  -9  -6  10    5.50    1.90
  -9  -6  10    6.00    2.20
  -9  -6  10    2.60    2.50
   8   6 -10    1.90    1.40
   8   6 -10    0.60    1.40
  -8  -6  10    1.70    1.70
  -8  -6  10    1.40    1.50
  -8  -6  10   -1.70    1.00
   7   6 -10    2.80    1.40
   7   6 -10    5.10    2.10
  -7  -6  10    3.80    1.90
  -7  -6  10    3.10    1.50
  -7  -6  10    0.60    1.60
   6   6 -10    5.80    1.50
   6   6 -10    2.80    1.40
  -6  -6  10    4.30    1.50
  -6  -6  10    2.30    1.50
  -6  -6  10    2.50    1.60
   5   6 -10    9.60    1.60
   5   6 -10   10.70    2.30
  -5  -6  10    7.80    1.60
  -5  -6  10    8.80    2.10
  -5  -6  10    7.70    2.30
   4   6 -10   -1.30    0.80
   4   6 -10    0.40    1.40
  -4  -6  10   -1.30    1.00
  -4  -6  10   -0.60    1.30
  -4  -6  10   -0.50    1.10
   3   6 -10   -1.10    0.90
   3   6 -10   -0.90    0.90
   3   6 -10   -0.40    1.20
  -3  -6  10   -1.00    1.20
  -3  -6  10   -0.60    1.50
  -3  -6  10    1.00    1.10
   2   6 -10   -0.20    1.40
   2   6 -10   -0.80    0.90
  -2  -6  10    0.10    0.90
  -1   6 -10    0.90    1.90
  -2   6 -10   -0.20    1.90
  -3   6 -10    4.40    2.90
  11   5 -10    5.70    2.40
  11   5 -10    0.30    1.70
 -11  -5  10    0.40    1.50
 -11  -5  10    1.80    2.80
 -11  -5  10    2.60    2.20
  10   5 -10    6.00    1.90
  10   5 -10   12.10    2.90
 -10  -5  10    2.60    2.00
 -10  -5  10    4.20    1.60
 -10  -5  10    3.90    2.20
   9   5 -10    0.60    1.80
   9   5 -10    0.50    1.40
  -9  -5  10    2.00    1.50
  -9  -5  10   -0.80    1.30
  -9  -5  10   -1.00    1.30
  -9  -5  10    1.30    2.30
   8   5 -10    0.70    1.30
   8   5 -10    0.20    1.20
  -8  -5  10    1.60    2.20
  -8  -5  10    1.80    1.50
  -8  -5  10    1.70    1.20
  -8  -5  10    0.70    1.60
   7   5 -10   17.20    2.90
   7   5 -10   16.00    2.30
  -7  -5  10   17.10    3.00
  -7  -5  10   18.40    2.40
  -7  -5  10   17.30    3.50
  -7  -5  10   14.70    2.50
   6   5 -10   -0.60    1.10
   6   5 -10    3.50    1.70
  -6  -5  10    1.90    1.50
  -6  -5  10   -0.60    1.10
  -6  -5  10   -0.20    1.80
  -6  -5  10   -0.20    0.80
   5   5 -10   12.70    2.40
   5   5 -10   13.50    2.00
  -5  -5  10    9.60    2.60
  -5  -5  10   12.20    2.10
  -5  -5  10   13.60    2.40
  -5  -5  10   12.60    2.00
   4   5 -10   17.50    2.60
   4   5 -10   15.70    2.20
   4   5 -10   18.80    2.50
   4   5 -10   15.20    2.00
  -4  -5  10   13.90    2.80
  -4  -5  10   15.10    2.10
  -4  -5  10   18.00    2.60
   3   5 -10   32.70    3.00
   3   5 -10   30.20    3.10
   3   5 -10   38.60    2.90
  -3  -5  10   35.00    3.60
  -3  -5  10   34.20    3.00
  -3  -5  10   34.30    4.00
   2   5 -10    4.10    2.00
   2   5 -10    3.90    1.20
   1   5 -10   65.19    7.00
  -1  -5  10   86.99    7.00
   1  -5  10   58.09    5.50
  -2   5 -10    0.30    2.10
  -3   5 -10    5.20    3.00
  11   4 -10    2.50    2.20
  11   4 -10    0.20    1.60
 -11  -4  10   -1.10    2.40
 -11  -4  10   -0.30    1.80
 -11  -4  10   -0.50    1.50
  10   4 -10    2.60    2.00
  10   4 -10    1.10    1.60
 -10  -4  10   -0.10    1.40
 -10  -4  10   -0.90    1.60
 -10  -4  10   -2.30    1.80
   9   4 -10    9.30    2.50
   9   4 -10    9.30    2.00
  -9  -4  10   11.00    2.10
  -9  -4  10   11.80    3.20
  -9  -4  10   12.90    2.70
   8   4 -10   -0.20    1.30
   8   4 -10   -4.00    1.30
  -8  -4  10    1.00    1.30
  -8  -4  10    0.20    1.50
  -8  -4  10    0.20    1.20
  -8  -4  10    3.00    1.80
   7   4 -10   56.39    4.30
   7   4 -10   51.29    4.50
  -7  -4  10   60.99    5.00
  -7  -4  10   54.79    4.20
  -7  -4  10   46.90    4.30
   6   4 -10    7.40    2.10
   6   4 -10    6.30    1.50
  -6  -4  10    6.60    1.50
  -6  -4  10    3.30    1.80
  -6  -4  10    9.30    2.30
  -6  -4  10    6.60    1.80
   5   4 -10   -0.60    0.90
   5   4 -10    1.20    1.10
   5   4 -10    0.90    1.00
  -5  -4  10   -0.30    1.10
  -5  -4  10    0.50    0.90
  -5  -4  10    1.60    1.50
  -5  -4  10   -0.70    1.50
   4   4 -10   35.70    4.70
   4   4 -10   35.50    3.20
   4   4 -10   34.60    3.30
   4   4 -10   34.00    2.80
   4   4 -10   36.30    2.90
  -4  -4  10   29.20    2.90
  -4  -4  10   32.60    3.60
  -4  -4  10   27.70    3.80
  -4  -4  10   32.70    2.90
   3   4 -10   20.30    2.20
   3   4 -10   20.10    3.60
   3   4 -10   19.40    2.50
   3   4 -10   17.70    2.10
   3   4 -10   18.40    2.30
  -3  -4  10   16.40    2.10
  -3  -4  10   16.20    2.20
  -3  -4  10   18.10    2.60
  -3  -4  10   12.70    2.60
   2   4 -10    9.80    3.10
   2   4 -10   11.60    1.90
   2   4 -10   10.30    1.70
  -2  -4  10   12.90    2.60
  -2  -4  10   11.10    1.70
   1   4 -10    0.60    1.70
   1   4 -10    1.80    1.10
  -1  -4  10    1.90    1.10
  -1   4 -10    8.40    1.80
  -3   4 -10   18.80    4.50
  11   3 -10    0.10    2.00
  11   3 -10    0.50    1.70
 -11  -3  10    0.60    1.70
 -11  -3  10    2.00    2.70
 -11  -3  10   -0.20    1.90
  10   3 -10    0.30    1.50
  10   3 -10   -3.00    1.50
 -10  -3  10   -1.80    2.40
 -10  -3  10    0.20    1.60
 -10  -3  10    1.50    2.00
   9   3 -10    2.30    1.90
   9   3 -10    2.40    1.50
  -9  -3  10   -1.20    2.30
  -9  -3  10    3.20    2.10
  -9  -3  10    1.50    1.40
   8   3 -10   68.99    5.50
   8   3 -10   77.29    6.10
  -8  -3  10   84.59    5.70
  -8  -3  10   74.49    6.10
   7   3 -10    1.00    1.20
   7   3 -10    2.40    1.70
   7   3 -10    2.40    1.40
  -7  -3  10    0.00    2.10
  -7  -3  10    2.10    1.40
  -7  -3  10   -0.70    1.70
  -7  -3  10    1.90    1.40
   6   3 -10   90.99    5.70
   6   3 -10   79.79    5.40
   6   3 -10   75.49    5.80
  -6  -3  10   58.79    5.60
  -6  -3  10   70.59    5.40
  -6  -3  10   85.99    5.50
   5   3 -10    1.70    1.20
   5   3 -10    3.70    1.20
   5   3 -10    0.70    1.00
  -5  -3  10    0.00    1.10
  -5  -3  10    0.80    1.10
  -5  -3  10    3.40    1.70
  -5  -3  10    2.60    1.60
   4   3 -10    9.60    1.90
   4   3 -10    8.40    1.40
   4   3 -10   10.70    1.90
   4   3 -10    8.70    2.80
   4   3 -10    8.40    1.60
  -4  -3  10    9.30    1.70
  -4  -3  10    9.00    2.10
  -4  -3  10    4.10    2.00
  -4  -3  10    6.50    1.50
   3   3 -10   10.70    3.00
   3   3 -10    9.80    1.80
   3   3 -10    8.10    1.80
   3   3 -10    9.10    1.60
  -3  -3  10    9.70    1.70
  -3  -3  10    5.10    2.00
  -3  -3  10   11.40    2.10
   2   3 -10   47.20    3.80
   2   3 -10   51.69    3.90
   2   3 -10   46.70    5.70
  -2  -3  10   45.50    3.80
  -2  -3  10   45.60    3.90
  -2  -3  10   53.89    5.70
   1   3 -10   25.40    2.80
   1   3 -10   24.30    4.60
  -1  -3  10   28.40    3.00
   0   3 -10   54.19    6.90
   0   3 -10   63.29    4.80
   0  -3  10   79.19    6.80
  -3   3 -10    4.00    1.70
  -3   3 -10    2.20    2.80
 -12  -2  10    1.80    1.90
  11   2 -10   -0.50    1.90
  11   2 -10    0.90    1.60
 -11  -2  10    1.30    2.10
 -11  -2  10    0.90    1.80
 -11  -2  10    6.70    3.20
  10   2 -10    3.30    2.00
  10   2 -10    3.30    1.40
 -10  -2  10    3.10    1.80
 -10  -2  10    7.10    2.50
 -10  -2  10    1.40    2.00
   9   2 -10    0.50    1.30
   9   2 -10    1.10    1.50
   9   2 -10    2.20    1.50
  -9  -2  10    1.60    2.40
  -9  -2  10    2.00    1.60
  -9  -2  10    2.90    2.20
   8   2 -10   14.10    2.30
   8   2 -10   15.00    2.90
   8   2 -10    9.40    2.00
  -8  -2  10   13.40    2.80
  -8  -2  10   11.40    2.20
  -8  -2  10    2.20    2.10
   7   2 -10   17.10    2.40
   7   2 -10   10.60    2.20
   7   2 -10   17.60    2.90
  -7  -2  10   19.50    3.20
  -7  -2  10   16.30    2.50
   6   2 -10    9.40    1.70
   6   2 -10    7.60    2.10
   6   2 -10   11.00    1.90
  -6  -2  10   10.40    2.00
  -6  -2  10    4.90    1.80
  -6  -2  10    6.50    2.60
   5   2 -10    0.70    1.30
   5   2 -10    0.10    1.10
   5   2 -10   -0.30    1.20
   5   2 -10   -0.30    1.00
  -5  -2  10    1.10    1.50
  -5  -2  10    1.60    1.60
  -5  -2  10   -0.80    0.90
  -5  -2  10   -0.20    1.70
   4   2 -10   -0.80    0.90
   4   2 -10   -0.90    1.00
   4   2 -10    1.40    1.30
  -4  -2  10   -0.60    1.00
  -4  -2  10    0.80    0.90
  -4  -2  10    0.90    1.80
   3   2 -10   -0.40    1.90
   3   2 -10   -0.20    1.00
   3   2 -10    0.30    1.00
  -3  -2  10    5.10    2.30
  -3  -2  10    0.10    1.30
   2   2 -10   10.90    1.80
   2   2 -10    8.50    1.70
   2   2 -10   10.40    3.20
  -2  -2  10    8.60    2.00
  -2  -2  10    9.40    1.90
   1   2 -10   27.50    5.00
   1   2 -10   22.20    2.70
   1   2 -10   30.70    3.10
  -1  -2  10   26.30    3.00
   0   2 -10   15.10    3.80
   0   2 -10   14.90    2.30
  11   1 -10   -0.40    1.20
  11   1 -10    0.40    1.50
  11   1 -10    1.10    1.60
 -11  -1  10   -0.20    2.10
 -11  -1  10   -0.30    2.70
 -11  -1  10   -2.90    1.40
  10   1 -10    3.10    2.00
  10   1 -10    3.30    1.50
  10   1 -10    2.40    1.40
 -10  -1  10    2.10    3.00
 -10  -1  10   -0.30    2.00
 -10  -1  10    0.10    1.30
   9   1 -10    1.40    1.50
   9   1 -10    3.10    1.60
   9   1 -10    0.00    1.40
  -9  -1  10    3.60    2.30
  -9  -1  10    1.10    2.10
  -9  -1  10    2.10    1.70
   8   1 -10    3.90    1.60
   8   1 -10    4.30    1.60
   8   1 -10    4.30    1.60
  -8  -1  10    3.10    1.70
  -8  -1  10    6.60    2.40
  -8  -1  10    1.80    1.90
   7   1 -10   13.20    2.70
   7   1 -10   19.60    2.40
   7   1 -10   17.20    2.60
  -7  -1  10   19.40    3.30
  -7  -1  10   18.90    2.70
  -7  -1  10   12.30    3.30
   6   1 -10    0.70    1.00
   6   1 -10    1.30    1.20
  -6  -1  10   -0.60    1.90
  -6  -1  10    1.10    1.30
  -6  -1  10    0.90    1.70
   5   1 -10    3.50    1.60
   5   1 -10    5.20    1.60
   5   1 -10    5.10    1.70
  -5  -1  10    1.90    1.80
  -5  -1  10    4.10    2.20
  -5  -1  10    8.40    2.50
  -5  -1  10    4.50    1.60
   4   1 -10    3.30    1.50
   4   1 -10    2.10    1.20
   4   1 -10    2.40    1.40
  -4  -1  10    3.40    1.40
  -4  -1  10    2.20    1.50
   3   1 -10    1.00    1.20
   3   1 -10    2.30    2.30
   3   1 -10    1.30    1.20
  -3  -1  10    1.40    1.50
  -3  -1  10    0.60    1.20
  -3  -1  10    7.10    2.20
   2   1 -10    5.20    1.60
   2   1 -10    7.00    1.70
   2   1 -10    7.00    2.90
  -2  -1  10    4.10    1.60
   1   1 -10    2.10    1.30
   1   1 -10    1.60    1.30
   1   1 -10    5.80    2.60
  -1  -1  10    5.90    1.70
   0   1 -10   13.70    2.30
   0   1 -10   11.20    3.70
  11   0 -10   10.00    2.30
  11   0 -10   11.40    2.50
  11   0 -10    9.20    2.80
 -11   0  10   10.30    2.60
 -11   0  10   15.70    3.40
  10   0 -10   -1.20    1.70
  10   0 -10    0.60    1.70
 -10   0  10    0.20    2.10
 -10   0  10   -0.10    1.60
   9   0 -10    1.70    1.50
   9   0 -10    3.40    1.70
   9   0 -10    5.60    1.90
  -9   0  10    0.80    1.30
  -9   0  10    4.40    2.50
   8   0 -10    2.50    1.50
   8   0 -10    5.20    2.10
   8   0 -10    2.10    1.50
  -8   0  10    4.50    1.90
  -8   0  10    5.00    2.20
   7   0 -10    0.20    1.70
   7   0 -10   -0.20    1.30
  -7   0  10    0.20    1.40
  -7   0  10    0.50    1.90
   6   0 -10    2.60    1.40
   6   0 -10    1.80    1.30
   6   0 -10    2.70    1.40
  -6   0  10    1.50    1.80
  -6   0  10    4.00    1.70
   5   0 -10    0.30    1.20
   5   0 -10    3.20    1.50
   5   0 -10    3.00    1.60
  -5   0  10    1.50    1.80
  -5   0  10    2.50    1.60
   4   0 -10   -0.90    1.20
   4   0 -10   -1.00    1.00
   4   0 -10    0.70    1.30
  -4   0  10   -0.50    1.20
  -4   0  10   -1.90    1.40
   3   0 -10    0.90    1.20
   3   0 -10   -0.20    1.20
  -3   0  10    0.40    1.40
   2   0 -10    1.70    2.20
   2   0 -10    0.70    1.30
  -2   0  10    0.80    1.10
   1   0 -10    0.40    1.00
   1   0 -10   -0.30    2.00
   1   0 -10   -0.30    1.20
  -1   0  10    0.10    1.30
  11  -1 -10    1.60    2.00
 -11   1  10    0.60    2.00
 -11   1  10    1.60    2.50
  10  -1 -10    0.30    1.60
  10  -1 -10    0.90    1.80
 -10   1  10   -1.60    2.10
 -10   1  10    1.50    1.90
   9  -1 -10   -0.60    1.70
   9  -1 -10    3.70    1.80
   9  -1 -10    1.10    1.50
  -9   1  10    0.40    2.30
  -9   1  10    2.00    1.90
   8  -1 -10    2.20    1.60
   8  -1 -10    0.90    1.80
  -8   1  10   -0.20    1.60
  -8   1  10    4.10    2.30
   7  -1 -10    0.00    1.60
   7  -1 -10    0.40    1.40
  -7   1  10    0.10    1.90
   6  -1 -10    6.50    2.10
   6  -1 -10    7.40    1.90
   6  -1 -10    4.60    1.70
  -6   1  10    2.50    2.00
  -6   1  10    5.00    1.80
   5  -1 -10    4.40    1.60
   5  -1 -10    1.30    1.60
   5  -1 -10    1.90    1.20
  -5   1  10    2.40    1.80
  -5   1  10    0.90    1.60
   4  -1 -10    2.20    1.50
   4  -1 -10    7.10    1.80
  -4   1  10    1.40    1.20
   3  -1 -10    1.30    1.40
   3  -1 -10    2.30    1.50
  -3   1  10    0.20    1.30
   2  -1 -10    1.20    2.30
  -2   1  10    1.90    1.60
   0  -1 -10    1.60    2.50
   0  -1 -10    2.80    1.60
   0  -1 -10    2.00    1.50
  10  -2 -10    0.50    1.70
 -10   2  10    0.80    2.60
   9  -2 -10    0.70    1.60
  -9   2  10   -0.80    2.20
  -9   2  10   -0.10    1.70
   8  -2 -10    1.10    1.60
   8  -2 -10    0.70    2.00
  -8   2  10    0.70    1.70
  -8   2  10    0.70    2.10
   7  -2 -10   -1.10    1.40
   7  -2 -10    0.70    1.50
   7  -2 -10   -1.40    1.70
  -7   2  10   -1.30    1.60
  -7   2  10   -0.10    2.10
   6  -2 -10    0.70    1.60
   6  -2 -10    0.90    1.40
   6  -2 -10   -0.10    1.00
  -6   2  10    1.20    1.50
  -6   2  10   -0.60    1.50
   5  -2 -10   -1.10    1.30
   5  -2 -10   -1.30    1.50
   5  -2 -10    0.50    1.40
  -5   2  10    0.10    1.10
  -4   2  10    0.80    1.50
   3  -2 -10    0.30    1.40
   3  -2 -10    0.10    1.40
  -3   2  10   -0.30    1.40
  -2   2  10    0.70    1.60
   9  -3 -10    1.40    1.80
  -9   3  10   -0.50    2.30
   8  -3 -10   -0.30    1.70
  -8   3  10   -0.30    1.80
  -8   3  10    0.40    1.90
   7  -3 -10   -0.90    1.80
   7  -3 -10   -1.00    1.50
   7  -3 -10   -1.70    1.40
  -7   3  10   -2.10    2.10
  -7   3  10   -1.70    1.60
   6  -3 -10   -1.00    1.40
   6  -3 -10   -1.20    1.50
   6  -3 -10    0.00    1.90
  -6   3  10   -0.80    1.60
   5  -3 -10    0.40    1.60
  -5   3  10    0.40    1.70
   3  -3 -10    0.60    1.50
   3  -3 -10   -1.30    1.60
  -3   3  10   -1.10    1.50
   5  11 -11   19.30    2.80
  -5 -11  11   18.60    3.90
  -5 -11  11   18.40    3.20
   4  11 -11    3.30    1.70
  -4 -11  11    4.00    1.80
  -4 -11  11    4.00    2.40
   3  11 -11    4.60    1.50
  -3 -11  11    4.40    1.80
  -3 -11  11    2.20    2.00
  -2 -11  11    1.40    1.70
  -2 -11  11    1.60    2.00
  -1 -11  11   -0.30    1.20
   7  10 -11    3.20    1.90
  -7 -10  11    2.00    1.90
  -7 -10  11    0.90    2.70
  -7 -10  11    2.50    1.60
   6  10 -11    2.50    1.30
  -6 -10  11    2.50    2.40
  -6 -10  11    0.40    1.30
   5  10 -11    1.80    1.20
  -5 -10  11    0.20    1.20
  -5 -10  11    2.30    2.20
   4  10 -11   -0.40    1.00
  -4 -10  11    2.00    1.40
  -4 -10  11    1.10    1.90
   3  10 -11    1.90    1.40
  -3 -10  11    1.60    1.80
  -3 -10  11    1.60    1.60
  -2 -10  11   -1.50    1.20
  -1 -10  11    0.20    1.50
   0 -10  11    5.60    1.70
   1 -10  11   -0.80    1.50
   8   9 -11    5.90    1.70
  -8  -9  11    6.60    1.90
  -8  -9  11    3.40    2.30
  -8  -9  11    5.60    2.40
   7   9 -11    8.00    1.90
  -7  -9  11    4.60    2.10
  -7  -9  11    7.50    3.00
  -7  -9  11    6.60    2.00
   6   9 -11   20.20    2.60
  -6  -9  11   16.60    2.70
  -6  -9  11   13.50    2.70
  -6  -9  11    9.70    3.10
   5   9 -11    4.60    1.60
  -5  -9  11   -0.20    1.40
  -5  -9  11    2.20    2.10
   4   9 -11    5.10    1.50
  -4  -9  11    3.80    1.80
  -4  -9  11    5.00    1.70
   3   9 -11    0.60    1.00
  -3  -9  11    1.00    1.30
  -3  -9  11    2.60    1.80
  -2  -9  11    7.20    1.80
  -1  -9  11    0.60    1.30
   0  -9  11   19.30    2.70
   1  -9  11   -1.70    1.30
   9   8 -11    1.20    2.20
   9   8 -11   -0.30    1.40
  -9  -8  11    0.00    1.70
  -9  -8  11   -0.40    2.40
  -9  -8  11   -0.80    1.10
   8   8 -11   -0.90    0.90
   8   8 -11    0.40    1.40
  -8  -8  11    1.30    1.80
  -8  -8  11    0.70    1.20
  -8  -8  11    0.90    1.50
   7   8 -11    1.80    1.50
  -7  -8  11    1.20    1.60
  -7  -8  11    2.10    1.90
  -7  -8  11    1.60    1.70
   6   8 -11    3.40    1.50
  -6  -8  11    4.10    1.90
  -6  -8  11    3.40    1.90
  -6  -8  11    4.20    1.70
   5   8 -11    2.40    1.40
  -5  -8  11    0.90    1.30
  -5  -8  11    1.20    1.60
  -5  -8  11    2.70    2.00
   4   8 -11   11.60    1.90
  -4  -8  11    5.40    2.10
  -4  -8  11   10.50    2.10
   3   8 -11    0.20    0.90
  -3  -8  11    1.40    1.00
  -3  -8  11    0.00    1.10
  -2  -8  11    5.60    1.60
  -1  -8  11    0.30    1.20
   0  -8  11    2.60    1.40
 -10  -7  11   -0.10    1.90
 -10  -7  11   -1.10    1.50
   9   7 -11    2.00    1.60
   9   7 -11    1.40    2.00
  -9  -7  11    1.20    2.00
  -9  -7  11    2.20    1.80
  -9  -7  11    5.70    2.30
   8   7 -11    4.20    1.70
   8   7 -11    1.80    2.10
  -8  -7  11    1.60    1.60
  -8  -7  11    3.80    2.60
  -8  -7  11    2.80    1.90
   7   7 -11    3.60    1.50
   7   7 -11    1.30    1.90
  -7  -7  11    6.70    2.20
  -7  -7  11    1.30    1.50
  -7  -7  11    6.50    2.60
   6   7 -11    4.00    1.50
   6   7 -11    0.70    1.70
  -6  -7  11    2.00    1.60
  -6  -7  11    2.40    1.50
  -6  -7  11    4.00    1.80
   5   7 -11   11.10    2.50
   5   7 -11   13.60    2.10
  -5  -7  11    8.90    2.70
  -5  -7  11    8.50    2.00
  -5  -7  11   13.40    2.60
   4   7 -11    0.00    1.40
   4   7 -11    1.30    1.20
  -4  -7  11    0.90    1.20
  -4  -7  11    0.30    1.60
   3   7 -11   22.60    2.60
   3   7 -11   26.90    3.30
  -3  -7  11   25.60    2.90
  -3  -7  11   21.30    3.40
   2   7 -11    1.30    1.20
  -2  -7  11    0.60    1.10
  -1  -7  11   15.00    2.40
  -1   7 -11    3.90    2.70
  -2   7 -11   -2.90    2.10
  10   6 -11    1.80    1.30
  10   6 -11   -0.70    2.10
 -10  -6  11    1.40    2.00
 -10  -6  11    2.70    2.30
   9   6 -11    2.30    2.00
   9   6 -11    2.50    1.30
  -9  -6  11    2.40    2.00
  -9  -6  11   -1.80    2.10
  -9  -6  11    0.80    1.20
   8   6 -11    0.10    1.90
   8   6 -11    0.70    1.00
  -8  -6  11    1.80    1.90
  -8  -6  11   -2.70    1.70
  -8  -6  11    0.20    1.00
   7   6 -11    3.10    1.50
   7   6 -11    7.80    2.30
  -7  -6  11    5.00    2.40
  -7  -6  11    1.90    1.50
  -7  -6  11    1.80    1.40
   6   6 -11   -1.10    1.10
   6   6 -11    0.40    1.20
  -6  -6  11   -0.50    1.30
  -6  -6  11   -1.00    1.20
  -6  -6  11    0.70    1.80
   5   6 -11    1.70    1.20
   5   6 -11   -0.60    1.10
  -5  -6  11   -1.40    1.30
  -5  -6  11    0.10    1.30
  -5  -6  11    0.40    1.60
   4   6 -11   -1.30    1.00
   4   6 -11    0.10    1.10
   4   6 -11   -1.60    1.20
  -4  -6  11   -0.90    1.20
  -4  -6  11    0.20    1.60
  -4  -6  11    0.30    1.40
   3   6 -11    4.10    1.30
   3   6 -11    4.80    2.10
  -3  -6  11    5.90    1.60
   2   6 -11   -1.20    1.00
  -1  -6  11   40.90    4.10
  -1   6 -11    3.70    2.50
  -2   6 -11    1.70    2.50
 -11  -5  11   -2.90    2.40
  10   5 -11    9.70    2.30
  10   5 -11    5.30    2.60
 -10  -5  11    4.40    1.80
 -10  -5  11    7.90    3.20
 -10  -5  11    5.20    2.30
   9   5 -11    1.20    1.20
   9   5 -11    2.30    2.00
  -9  -5  11    0.60    1.20
  -9  -5  11   -1.60    1.10
  -9  -5  11   -0.10    1.40
  -9  -5  11    0.10    2.30
   8   5 -11    0.40    1.40
   8   5 -11    2.20    1.90
  -8  -5  11    1.80    1.30
  -8  -5  11    5.40    1.80
  -8  -5  11    3.50    2.10
  -8  -5  11    0.00    2.10
   7   5 -11   -0.70    1.10
   7   5 -11    0.80    1.30
  -7  -5  11    1.90    2.10
  -7  -5  11   -1.40    0.90
  -7  -5  11   -0.60    1.30
  -7  -5  11    1.60    1.70
   6   5 -11    3.40    1.60
   6   5 -11    5.30    1.60
  -6  -5  11    4.30    1.90
  -6  -5  11    4.60    1.90
  -6  -5  11    4.80    1.70
   5   5 -11   -1.40    1.00
   5   5 -11    0.50    1.20
   5   5 -11    0.30    1.40
  -5  -5  11    1.10    1.20
  -5  -5  11    4.20    2.00
  -5  -5  11    0.80    1.50
   4   5 -11   24.10    2.80
   4   5 -11   24.40    2.50
   4   5 -11   18.50    2.70
  -4  -5  11   21.80    3.10
  -4  -5  11   22.80    2.70
  -4  -5  11   12.60    2.70
   3   5 -11    4.50    1.80
  -2   5 -11    0.10    2.30
  11   4 -11    3.30    2.50
  11   4 -11    1.30    2.00
 -11  -4  11   -0.20    1.60
 -11  -4  11    1.20    2.30
 -11  -4  11    1.10    2.20
  10   4 -11   -0.10    2.10
  10   4 -11    0.60    1.20
 -10  -4  11   -1.40    1.70
 -10  -4  11   -0.80    1.80
 -10  -4  11   -2.60    1.30
   9   4 -11    2.40    2.10
   9   4 -11   -0.50    1.30
  -9  -4  11    1.70    1.50
  -9  -4  11    1.40    2.00
  -9  -4  11    0.90    1.80
   8   4 -11   -0.30    1.00
   8   4 -11    2.90    2.00
  -8  -4  11    1.60    2.10
  -8  -4  11   -0.40    2.20
  -8  -4  11    0.10    1.40
  -8  -4  11    0.50    1.40
   7   4 -11    1.70    1.40
   7   4 -11    1.10    1.40
   7   4 -11    2.40    1.50
  -7  -4  11    1.10    1.30
  -7  -4  11    4.60    2.10
  -7  -4  11   -1.30    1.30
  -7  -4  11    0.60    1.10
   6   4 -11    0.40    1.20
   6   4 -11    1.50    1.20
   6   4 -11    1.00    1.20
  -6  -4  11   -1.30    1.80
  -6  -4  11    0.20    1.70
  -6  -4  11    2.50    1.30
  -6  -4  11   -0.30    1.20
   5   4 -11    6.60    1.50
   5   4 -11    3.70    1.30
   5   4 -11    6.80    1.80
   5   4 -11    3.70    1.70
  -5  -4  11    7.40    2.10
  -5  -4  11    6.10    1.60
  -5  -4  11    7.80    2.50
  -5  -4  11    3.70    1.30
   4   4 -11    5.70    2.40
   4   4 -11    3.80    1.30
   4   4 -11    3.30    1.60
   4   4 -11    4.90    1.60
  -4  -4  11    1.70    1.90
  -4  -4  11    7.50    1.70
  -4  -4  11    5.70    1.80
   3   4 -11   -1.00    1.00
   3   4 -11    1.20    1.80
   3   4 -11   -0.10    0.90
  -3  -4  11    3.60    1.30
  -3  -4  11   -0.10    1.30
   2   4 -11    6.80    2.80
   2   4 -11    9.00    1.70
  -2  -4  11    9.70    1.90
  -1  -4  11    5.10    1.90
  11   3 -11    1.10    1.60
  11   3 -11   -0.10    1.80
 -11  -3  11    0.20    1.60
 -11  -3  11   -1.10    2.00
 -11  -3  11    1.00    2.30
  10   3 -11    1.80    1.60
  10   3 -11    3.80    1.80
 -10  -3  11    7.60    3.20
 -10  -3  11   -1.90    2.00
 -10  -3  11    0.90    1.60
   9   3 -11    0.50    1.50
   9   3 -11    1.00    1.50
   9   3 -11    3.20    2.10
  -9  -3  11    0.90    1.60
  -9  -3  11    1.50    2.50
  -9  -3  11    1.40    2.10
   8   3 -11   26.30    3.00
   8   3 -11   23.50    3.10
   8   3 -11   26.50    3.60
  -8  -3  11   28.90    3.30
   7   3 -11    0.70    1.20
   7   3 -11    0.90    1.30
   7   3 -11    1.20    1.50
  -7  -3  11    3.40    1.50
  -7  -3  11    5.50    2.60
  -7  -3  11    3.50    2.10
   6   3 -11    4.50    1.40
   6   3 -11    3.10    1.80
   6   3 -11    5.80    1.80
  -6  -3  11    1.70    2.20
  -6  -3  11    3.40    1.50
  -6  -3  11    3.30    1.40
  -6  -3  11    1.80    1.90
   5   3 -11    3.20    1.30
   5   3 -11    6.20    1.90
   5   3 -11    1.70    1.40
  -5  -3  11    2.70    1.40
  -5  -3  11    3.40    2.30
  -5  -3  11    3.70    1.80
   4   3 -11    1.00    1.30
   4   3 -11   -1.20    0.90
   4   3 -11    0.60    1.80
   4   3 -11   -0.60    1.10
  -4  -3  11   -0.30    1.70
  -4  -3  11   -0.80    1.40
  -4  -3  11   -1.00    0.90
   3   3 -11    0.00    1.10
   3   3 -11    0.00    1.90
  -3  -3  11    0.60    1.10
  -3  -3  11    0.50    1.40
   2   3 -11    3.60    1.40
   2   3 -11    3.70    2.40
  -2  -3  11    4.10    1.50
   1   3 -11    3.60    1.50
  11   2 -11    2.70    2.20
  11   2 -11    1.10    1.60
  11   2 -11    3.30    2.10
 -11  -2  11   -0.70    2.30
 -11  -2  11    2.70    1.90
 -11  -2  11    4.40    3.40
  10   2 -11    4.70    2.00
  10   2 -11   -1.80    1.30
  10   2 -11    2.60    2.20
 -10  -2  11    0.80    1.70
 -10  -2  11    2.60    3.10
 -10  -2  11   -2.90    2.00
   9   2 -11   11.00    2.50
   9   2 -11    6.10    1.90
   9   2 -11    8.90    2.20
  -9  -2  11    5.60    3.00
  -9  -2  11    5.40    1.90
  -9  -2  11    5.90    2.50
   8   2 -11    1.40    1.50
   8   2 -11    1.30    1.40
   8   2 -11   -1.00    1.00
  -8  -2  11    1.40    1.70
  -8  -2  11    3.30    2.70
  -8  -2  11   -0.50    1.40
   7   2 -11   23.60    2.80
   7   2 -11   23.80    3.50
   7   2 -11   16.90    2.70
  -7  -2  11   15.10    3.60
  -7  -2  11   17.80    3.20
  -7  -2  11   23.20    3.10
   6   2 -11    3.90    1.80
   6   2 -11    1.20    1.10
   6   2 -11   -0.10    1.20
  -6  -2  11   -0.10    1.20
  -6  -2  11   -1.00    1.20
  -6  -2  11   -3.50    1.80
   5   2 -11    3.90    1.60
   5   2 -11    3.40    1.70
   5   2 -11    3.10    1.40
  -5  -2  11    4.40    2.00
  -5  -2  11    5.70    2.60
  -5  -2  11    1.40    1.30
   4   2 -11   -0.60    1.80
   4   2 -11   -1.30    1.20
   4   2 -11   -0.60    1.00
  -4  -2  11   -0.20    1.20
  -4  -2  11   -0.10    1.50
   3   2 -11    3.10    2.50
   3   2 -11    5.00    1.60
   3   2 -11    8.20    1.80
  -3  -2  11    3.60    1.80
  -3  -2  11    5.10    1.60
   2   2 -11   13.20    3.80
   2   2 -11   11.30    2.10
   2   2 -11   11.90    2.10
  -2  -2  11   12.80    2.30
   1   2 -11    8.50    3.40
   1   2 -11   11.30    2.20
  -1  -2  11   10.20    2.10
  11   1 -11    3.40    2.20
  11   1 -11   -0.10    1.70
  11   1 -11    3.30    2.30
 -11  -1  11   -2.60    2.90
 -11  -1  11    0.60    1.50
 -11  -1  11   -0.60    2.30
  10   1 -11    0.30    1.60
  10   1 -11    1.00    1.60
  10   1 -11    0.60    1.80
 -10  -1  11    3.40    2.50
 -10  -1  11    0.50    3.00
 -10  -1  11   -1.10    1.70
   9   1 -11    3.70    1.70
   9   1 -11    2.20    1.70
   9   1 -11    3.60    1.80
  -9  -1  11   -1.10    1.90
  -9  -1  11    6.40    2.10
  -9  -1  11    4.40    2.50
   8   1 -11    0.70    1.50
   8   1 -11    3.30    2.00
   8   1 -11    2.00    2.10
  -8  -1  11    0.60    2.50
  -8  -1  11    1.70    1.60
  -8  -1  11    0.60    2.10
   7   1 -11    7.50    2.30
   7   1 -11    8.20    1.90
  -7  -1  11    9.40    2.40
  -7  -1  11    5.10    2.20
  -7  -1  11    6.10    1.90
   6   1 -11   -1.50    1.20
   6   1 -11    2.20    1.80
   6   1 -11    1.20    1.30
  -6  -1  11   -1.10    1.80
  -6  -1  11    1.10    1.50
   5   1 -11   -0.80    1.00
   5   1 -11   -2.90    1.30
   5   1 -11   -1.80    1.10
  -5  -1  11   -1.60    1.20
  -5  -1  11   -2.10    1.50
   4   1 -11   -0.60    1.20
  -4  -1  11   -0.40    1.20
  -4  -1  11    0.00    1.60
   3   1 -11    0.00    1.30
   3   1 -11    1.20    2.30
  -3  -1  11    1.40    1.50
   2   1 -11    2.30    1.50
  -2  -1  11    3.00    1.70
   1   1 -11    9.00    3.50
  10   0 -11   -1.10    1.80
  10   0 -11    1.10    1.40
  10   0 -11    1.00    2.20
 -10   0  11   -0.40    1.80
 -10   0  11   -2.00    1.80
   9   0 -11    6.60    2.10
   9   0 -11    4.30    1.90
  -9   0  11    9.50    3.00
  -9   0  11    8.00    2.30
   8   0 -11    0.30    1.60
   8   0 -11   -0.70    1.80
  -8   0  11    1.30    2.30
   7   0 -11    4.70    2.10
   7   0 -11    4.70    1.80
   7   0 -11    4.20    1.80
  -7   0  11    4.70    2.40
  -7   0  11    0.20    1.70
   6   0 -11    1.50    1.60
   6   0 -11    0.60    1.30
   6   0 -11    3.20    1.80
  -6   0  11    4.80    2.30
  -6   0  11    1.90    1.70
   5   0 -11   -0.50    1.50
   5   0 -11   -0.60    1.40
   5   0 -11    0.30    1.20
  -5   0  11    2.10    1.60
  -5   0  11   -2.30    1.70
   4   0 -11    1.90    1.50
   4   0 -11    4.40    1.60
  -4   0  11    1.50    2.00
  -4   0  11    4.10    1.80
   3   0 -11    0.90    1.50
  -3   0  11    3.50    1.70
   2   0 -11    4.50    2.90
   2   0 -11    4.10    1.70
   2   0 -11    8.80    2.10
  -2   0  11    4.00    1.90
   9  -1 -11    1.60    2.20
  -9   1  11   -0.20    2.40
  -9   1  11    0.20    2.00
   8  -1 -11    2.20    2.20
   8  -1 -11    2.30    1.80
  -8   1  11    3.50    2.10
  -8   1  11    6.40    2.70
   7  -1 -11   11.80    2.40
   7  -1 -11    5.60    2.10
   7  -1 -11   11.20    2.70
  -7   1  11    4.60    1.80
  -7   1  11    8.60    2.80
   6  -1 -11    3.80    1.70
   6  -1 -11    4.30    1.80
  -6   1  11    1.40    1.90
  -6   1  11    2.10    2.10
   5  -1 -11   11.50    2.40
   5  -1 -11    7.80    2.20
  -5   1  11    6.00    2.20
  -5   1  11   13.10    2.50
   3  -1 -11    1.00    2.40
   3  -1 -11   -1.60    1.40
   3  -1 -11    0.90    1.60
  -3   1  11   -0.70    1.60
   2  -1 -11    7.40    2.30
   8  -2 -11    6.10    2.20
   8  -2 -11    1.90    1.90
   8  -2 -11    5.00    2.70
  -8   2  11    1.80    1.70
  -8   2  11    2.80    2.60
   7  -2 -11    1.40    2.10
   7  -2 -11    0.60    1.70
   7  -2 -11    0.70    1.70
  -7   2  11    2.20    2.00
  -7   2  11    2.50    2.40
  -6   2  11    1.50    1.90
  -5   2  11    6.60    2.20
   4  -2 -11    2.40    1.90
   5  10 -12    1.60    1.30
  -5 -10  12    0.40    2.10
  -5 -10  12    3.20    1.50
   4  10 -12    1.70    1.50
  -4 -10  12    2.90    2.30
  -4 -10  12    1.50    1.70
   3  10 -12   -1.20    1.40
  -3 -10  12    1.40    1.60
  -2 -10  12    1.80    1.60
   7   9 -12    0.50    1.50
  -7  -9  12    1.20    2.40
  -7  -9  12    0.60    1.80
  -7  -9  12    1.30    1.70
   6   9 -12    4.30    1.80
  -6  -9  12    6.30    2.70
  -6  -9  12    3.10    1.80
   5   9 -12    2.20    1.50
  -5  -9  12    1.40    1.70
  -5  -9  12    0.10    1.50
   4   9 -12    0.20    1.40
  -4  -9  12    1.70    2.00
  -4  -9  12   -1.30    1.40
   3   9 -12    7.20    1.80
  -3  -9  12    7.20    2.00
   2   9 -12    0.20    1.50
  -2  -9  12    0.00    1.40
  -1  -9  12    1.10    1.40
   8   8 -12    1.30    1.60
   8   8 -12    1.90    2.30
  -8  -8  12    0.90    1.80
  -8  -8  12   -0.40    1.80
  -8  -8  12   -1.30    2.40
   7   8 -12    8.40    2.10
   7   8 -12    8.40    2.80
  -7  -8  12    9.70    3.20
  -7  -8  12    5.20    2.10
  -7  -8  12   14.50    2.90
   6   8 -12    1.90    1.70
   6   8 -12    2.40    1.50
  -6  -8  12    0.60    1.50
  -6  -8  12    0.60    2.10
  -6  -8  12    1.10    1.90
   5   8 -12    5.40    2.20
   5   8 -12    3.10    1.50
  -5  -8  12    2.60    1.30
  -5  -8  12    4.70    2.30
   4   8 -12   -2.20    1.50
   4   8 -12   -2.00    1.10
  -4  -8  12    1.00    1.40
  -4  -8  12    0.00    1.30
   3   8 -12    0.80    1.30
  -3  -8  12    2.80    1.50
   2   8 -12    3.80    1.70
  -2  -8  12    2.50    1.50
   9   7 -12   -1.70    1.40
   9   7 -12    0.30    1.70
  -9  -7  12   -1.00    2.30
  -9  -7  12    1.10    2.10
  -9  -7  12    0.60    1.50
   8   7 -12   -1.20    1.00
   8   7 -12    1.50    2.10
  -8  -7  12   -1.10    1.10
  -8  -7  12   -3.20    1.50
  -8  -7  12   -1.80    2.10
   7   7 -12    0.10    2.00
   7   7 -12    1.40    1.40
  -7  -7  12    0.50    2.20
  -7  -7  12    0.60    1.50
  -7  -7  12   -1.10    1.60
   6   7 -12    2.10    1.90
   6   7 -12    4.10    1.60
  -6  -7  12    1.20    1.50
  -6  -7  12    0.90    2.10
  -6  -7  12    0.20    1.70
   5   7 -12   -1.60    1.10
   5   7 -12   -1.10    1.20
   5   7 -12    0.30    1.60
  -5  -7  12   -0.20    1.80
  -5  -7  12   -1.60    1.10
   4   7 -12   -0.30    1.60
   4   7 -12    0.10    1.20
  -4  -7  12    0.40    1.80
  -4  -7  12    1.00    1.40
   3   7 -12    0.50    1.20
  -3  -7  12   -1.40    1.10
   9   6 -12    3.20    1.80
   9   6 -12   -1.70    2.00
  -9  -6  12    0.30    1.90
  -9  -6  12    0.20    1.70
  -9  -6  12    4.70    2.30
   8   6 -12   -1.70    1.30
   8   6 -12    0.60    1.40
  -8  -6  12    1.00    1.50
  -8  -6  12   -0.60    2.10
  -8  -6  12    1.70    2.00
   7   6 -12    2.20    2.10
   7   6 -12   -0.50    1.30
  -7  -6  12    2.70    1.70
  -7  -6  12    3.30    2.00
  -7  -6  12    1.60    2.20
   6   6 -12    0.40    1.50
   6   6 -12   -0.40    1.30
   6   6 -12    0.00    1.70
  -6  -6  12   -1.60    1.40
  -6  -6  12   -0.70    1.80
  -6  -6  12    1.20    1.40
   5   6 -12    8.80    2.40
   5   6 -12    7.70    1.70
   5   6 -12    7.40    2.10
  -5  -6  12    4.80    2.00
  -5  -6  12    6.80    2.20
  -5  -6  12    5.00    1.80
   4   6 -12    1.00    1.30
   4   6 -12    1.70    2.70
  10   5 -12    2.00    1.90
  10   5 -12    4.50    2.60
 -10  -5  12    3.90    2.40
 -10  -5  12    6.20    3.10
   9   5 -12    0.30    1.50
   9   5 -12    1.60    1.70
  -9  -5  12    3.90    1.90
  -9  -5  12   -2.00    1.60
   8   5 -12   -0.90    1.40
   8   5 -12    0.40    2.00
  -8  -5  12   -2.40    1.70
  -8  -5  12    3.60    1.70
  -8  -5  12   -1.20    2.30
   7   5 -12    4.60    1.70
   7   5 -12    5.50    1.90
   7   5 -12    4.70    2.20
  -7  -5  12    6.00    1.80
  -7  -5  12    2.20    2.30
  -7  -5  12    5.20    2.20
   6   5 -12   -0.20    1.60
   6   5 -12   -1.00    1.30
   6   5 -12    0.80    1.40
  -6  -5  12    2.00    1.50
  -6  -5  12    0.90    1.80
  -6  -5  12   -0.50    2.00
   5   5 -12    1.30    1.40
   5   5 -12    2.00    1.40
   5   5 -12    2.10    1.30
  -5  -5  12    0.80    1.30
  -5  -5  12    3.30    2.10
  -5  -5  12    0.60    1.70
   4   5 -12    3.60    1.50
  10   4 -12    5.90    2.60
  10   4 -12    4.50    2.20
 -10  -4  12    0.70    1.70
 -10  -4  12   -1.40    1.90
 -10  -4  12    3.80    2.60
   9   4 -12   -2.80    1.80
   9   4 -12   -1.00    1.50
   9   4 -12   -1.10    1.30
  -9  -4  12    0.10    2.70
  -9  -4  12   -2.00    1.90
  -9  -4  12   -1.70    1.30
   8   4 -12    0.90    1.50
   8   4 -12    1.20    1.20
   8   4 -12   -0.10    1.40
  -8  -4  12   -0.10    1.40
  -8  -4  12   -1.50    1.70
  -8  -4  12    0.50    1.50
   7   4 -12   -1.20    1.20
   7   4 -12    0.10    1.40
   7   4 -12   -1.40    0.90
  -7  -4  12    1.20    1.40
  -7  -4  12    0.90    1.20
  -7  -4  12   -1.70    1.50
  -7  -4  12    0.50    2.30
   6   4 -12   -0.50    1.10
   6   4 -12    0.10    1.70
   6   4 -12    0.40    1.40
   6   4 -12    1.20    1.70
  -6  -4  12    1.30    1.20
  -6  -4  12    0.70    1.80
  -6  -4  12   -1.10    2.20
   5   4 -12    2.30    1.60
   5   4 -12    2.60    1.80
   5   4 -12    0.60    1.20
  -5  -4  12    3.20    1.50
  -5  -4  12    4.30    2.50
  -5  -4  12    2.30    1.80
   4   4 -12    4.10    1.40
   4   4 -12    1.50    1.50
  -4  -4  12    3.40    2.00
  -4  -4  12    2.20    1.40
   0   4 -12    0.70    2.40
  10   3 -12    1.00    1.90
  10   3 -12   -0.10    1.60
  10   3 -12    0.30    1.20
 -10  -3  12   -0.60    1.80
 -10  -3  12    2.40    3.10
 -10  -3  12    1.50    1.80
   9   3 -12   -3.10    1.40
   9   3 -12   -0.90    2.00
   9   3 -12   -0.50    1.60
  -9  -3  12   -0.90    1.60
  -9  -3  12   -1.00    2.20
  -9  -3  12    0.00    2.00
   8   3 -12    2.30    2.10
   8   3 -12    1.10    1.70
   8   3 -12    1.20    1.70
  -8  -3  12    0.80    2.10
  -8  -3  12    0.50    1.50
  -8  -3  12    5.20    3.00
   7   3 -12   -0.80    1.20
   7   3 -12    1.10    1.60
  -7  -3  12   -0.70    2.30
  -7  -3  12   -1.60    1.20
  -7  -3  12    0.00    2.00
   6   3 -12    2.50    1.40
   6   3 -12    4.50    1.80
   6   3 -12    1.40    1.70
  -6  -3  12    2.60    1.90
  -6  -3  12    3.00    1.60
  -6  -3  12    2.80    1.90
   5   3 -12    0.00    1.60
   5   3 -12    2.80    1.70
  -5  -3  12    1.10    1.40
  -5  -3  12   -1.60    1.70
   4   3 -12    1.50    1.50
  -4  -3  12    3.50    1.90
  10   2 -12    2.20    1.80
  10   2 -12    2.90    2.10
  10   2 -12    2.10    2.40
 -10  -2  12    1.30    3.10
 -10  -2  12    5.80    2.80
 -10  -2  12    1.40    1.90
   9   2 -12   16.00    3.40
   9   2 -12   15.90    2.80
   9   2 -12   12.10    2.50
  -9  -2  12   14.50    3.50
  -9  -2  12   11.50    3.80
  -9  -2  12   18.80    3.00
   8   2 -12    4.90    1.90
   8   2 -12    3.90    2.20
  -8  -2  12    2.10    2.80
  -8  -2  12    7.00    2.70
  -8  -2  12    4.60    2.00
   7   2 -12    9.20    2.10
   7   2 -12    6.60    2.30
   7   2 -12    1.60    1.30
  -7  -2  12    5.00    2.80
  -7  -2  12    9.30    2.10
  -7  -2  12    5.50    2.10
   6   2 -12    1.80    1.60
   6   2 -12    1.30    1.40
   6   2 -12    1.80    1.80
  -6  -2  12    1.70    2.40
  -6  -2  12    1.90    1.50
  -6  -2  12    1.90    2.20
  -5  -2  12    1.60    1.90
   4   2 -12    2.80    1.60
  -4  -2  12    2.10    1.50
   9   1 -12    4.10    2.00
   9   1 -12    5.30    2.20
  -9  -1  12    4.80    2.70
  -9  -1  12    7.60    2.30
   8   1 -12    7.50    2.30
   8   1 -12    6.60    2.70
  -8  -1  12    6.30    2.20
  -8  -1  12    6.80    2.80
   7   1 -12   -0.50    2.00
   7   1 -12    0.70    1.70
  -7  -1  12    1.10    1.70
  -7  -1  12    3.80    2.50
   6   1 -12    2.50    1.70
  -6  -1  12   -0.30    2.00
  -5  -1  12    1.60    1.60
  -5  -1  12    1.00    1.90
   4   1 -12    2.40    1.60
  -4  -1  12    2.20    1.60
  -4  -1  12    1.60    2.10
   8   0 -12    2.80    1.70
   8   0 -12    4.70    2.50
  -8   0  12    1.30    1.80
  -8   0  12   -0.40    2.60
   7   0 -12    1.70    2.20
  -7   0  12    0.50    1.80
  -7   0  12    0.70    1.80
  -5   0  12    1.50    2.30
   4   0 -12    1.30    1.70
   4   0 -12    0.70    1.50
  -4   0  12    0.40    1.70
   6   8 -13   -0.30    1.50
   6   8 -13   -0.20    2.10
  -6  -8  13   -0.40    1.50
  -6  -8  13    1.40    2.30
   5   8 -13   -0.90    1.50
   5   8 -13   -1.40    2.00
  -5  -8  13   -0.60    2.00
  -5  -8  13    0.70    1.50
   4   8 -13    3.00    1.70
  -4  -8  13   -1.50    1.40
   7   7 -13    1.60    1.70
   7   7 -13    1.50    1.70
   7   7 -13   -1.90    2.00
  -7  -7  13    1.30    2.40
  -7  -7  13    2.00    1.90
  -7  -7  13    0.20    1.50
   6   7 -13   -1.50    1.90
   6   7 -13   -0.30    1.50
   6   7 -13    0.60    1.40
  -6  -7  13   -1.40    0.90
  -6  -7  13   -1.20    1.90
   5   7 -13    0.30    1.90
   5   7 -13    0.20    1.50
  -5  -7  13   -1.40    2.10
  -5  -7  13    0.10    1.40
   8   6 -13   -0.40    1.20
   8   6 -13   -0.30    1.60
   8   6 -13    1.10    1.80
  -8  -6  13   -0.20    1.90
  -8  -6  13   -1.80    2.00
  -8  -6  13    1.90    1.70
   7   6 -13    1.50    2.10
   7   6 -13    1.10    1.70
   7   6 -13    3.40    1.70
  -7  -6  13    1.70    2.10
  -7  -6  13    2.50    1.70
   6   6 -13   -0.80    1.70
   6   6 -13   -0.90    1.60
   6   6 -13    1.90    1.60
  -6  -6  13   -0.20    2.10
  -6  -6  13    0.10    1.40
  -6  -6  13    1.20    2.00
   8   5 -13    1.70    1.80
   8   5 -13    1.60    2.30
   8   5 -13    0.80    1.80
  -8  -5  13   -0.80    1.50
  -8  -5  13   -2.80    2.30
  -8  -5  13   -0.90    2.10
   7   5 -13    6.90    2.30
   7   5 -13    6.80    2.00
   7   5 -13    5.70    2.50
  -7  -5  13    7.30    2.10
  -7  -5  13    7.50    3.10
  -7  -5  13    9.60    2.40
   6   5 -13    0.50    1.90
   6   5 -13    0.90    1.70
  -6  -5  13    0.70    1.80
  -6  -5  13    1.00    2.10
   5   5 -13    8.40    2.30
   8   4 -13    5.00    2.00
   8   4 -13    2.30    2.00
   8   4 -13    4.50    2.50
  -8  -4  13    6.40    2.70
  -8  -4  13    3.00    1.90
  -8  -4  13    4.70    2.50
   7   4 -13    3.50    1.90
   7   4 -13    1.80    1.50
   7   4 -13    5.30    2.30
  -7  -4  13    8.60    3.10
  -7  -4  13    3.60    2.20
  -7  -4  13    4.90    1.70
   6   4 -13   -0.50    1.20
   6   4 -13   -0.40    1.50
   6   4 -13    1.30    1.80
  -6  -4  13    0.20    2.20
  -6  -4  13    3.30    2.20
  -6  -4  13    0.50    1.30
   5   4 -13   10.70    2.50
   5   4 -13    8.10    2.40
  -5  -4  13    5.70    2.30
   8   3 -13    0.10    1.70
   8   3 -13    1.90    2.20
   8   3 -13    1.00    1.40
  -8  -3  13    0.30    2.80
  -8  -3  13    4.00    2.10
  -8  -3  13    1.90    1.70
   7   3 -13    2.20    2.10
   7   3 -13    1.90    1.80
   7   3 -13   -0.90    1.30
  -7  -3  13   -0.60    1.50
  -7  -3  13    0.20    2.50
  -7  -3  13    2.90    2.50
   6   3 -13   -1.80    1.10
   6   3 -13   -0.30    1.30
  -6  -3  13   -0.90    1.30
  -6  -3  13    2.10    2.10
   5   3 -13    2.80    1.80
  -5  -3  13    2.60    2.20
   7   2 -13   -0.50    1.90
  -7  -2  13    2.10    1.70
  -6  -2  13    2.90    2.40

_computing_structure_solution     'SHELXT 2014/4 (Sheldrick, 2014)'
;
_shelx_hkl_checksum              30446
loop_
_space_group_symop_operation_xyz
'x, y, z'
'-x, -y, -z'
loop_
_atom_site_label
_atom_site_type_symbol
_atom_site_fract_x
_atom_site_fract_y
_atom_site_fract_z
_atom_site_U_iso_or_equiv
_atom_site_adp_type
_atom_site_occupancy
_atom_site_site_symmetry_order
_atom_site_calc_flag
_atom_site_refinement_flags_posn
_atom_site_refinement_flags_adp
O2 O 0.7541(3) 0.9557(3) -0.1113(3) 0.0477(6) Uani 1 1 d . .
O1 O 0.7756(3) 0.3060(3) 0.6005(3) 0.0562(7) Uani 1 1 d . .
N2 N 0.7780(3) 0.6026(3) 0.2051(3) 0.0386(6) Uani 1 1 d . .
N1 N 0.8090(3) 0.4614(3) 0.1525(3) 0.0425(6) Uani 1 1 d . .
F2 F 0.8332(5) 0.9171(3) 0.4583(4) 0.1093(12) Uani 1 1 d . .
F1 F 0.7470(5) 0.8224(3) 0.5683(4) 0.1148(13) Uani 1 1 d . .
F3 F 0.5912(4) 0.8129(4) 0.3398(4) 0.1228(13) Uani 1 1 d . .
C6 C 0.7723(3) 0.5225(3) 0.3777(4) 0.0367(6) Uani 1 1 d . .
C12 C 0.7499(4) 0.8637(3) -0.0415(4) 0.0370(6) Uani 1 1 d . .
C9 C 0.7684(4) 0.6897(3) 0.1180(4) 0.0380(7) Uani 1 1 d . .
C5 C 0.8050(3) 0.4126(3) 0.2576(4) 0.0376(7) Uani 1 1 d . .
C7 C 0.7614(4) 0.4926(4) 0.4987(4) 0.0430(7) Uani 1 1 d . .
H7 H 0.7394 0.5645 0.5776 0.052 Uiso 1 1 calc R U
C8 C 0.7566(4) 0.6447(3) 0.3392(4) 0.0394(7) Uani 1 1 d . .
C13 C 0.6129(4) 0.7825(4) -0.0676(4) 0.0472(8) Uani 1 1 d . .
H13 H 0.5139 0.7865 -0.1388 0.057 Uiso 1 1 calc R U
C2 C 0.7846(4) 0.3539(4) 0.4945(4) 0.0420(7) Uani 1 1 d . .
C11 C 0.8971(4) 0.8573(4) 0.0642(4) 0.0471(8) Uani 1 1 d . .
H11 H 0.9896 0.9112 0.0807 0.057 Uiso 1 1 calc R U
C14 C 0.6234(4) 0.6950(4) 0.0128(4) 0.0487(8) Uani 1 1 d . .
H14 H 0.5311 0.6394 -0.0050 0.058 Uiso 1 1 calc R U
C10 C 0.9062(4) 0.7711(4) 0.1447(4) 0.0456(8) Uani 1 1 d . .
H10 H 1.0049 0.7676 0.2170 0.055 Uiso 1 1 calc R U
C4 C 0.8311(4) 0.2708(4) 0.2593(4) 0.0465(8) Uani 1 1 d . .
H4 H 0.8560 0.1986 0.1835 0.056 Uiso 1 1 calc R U
C3 C 0.8186(4) 0.2437(4) 0.3751(4) 0.0460(8) Uani 1 1 d . .
H3 H 0.8328 0.1500 0.3763 0.055 Uiso 1 1 calc R U
C16 C 0.7304(5) 0.7971(4) 0.4252(5) 0.0566(9) Uani 1 1 d . .
C15 C 0.6094(5) 0.9850(5) -0.2021(5) 0.0628(10) Uani 1 1 d . .
H15A H 0.5368 0.8884 -0.2978 0.094 Uiso 1 1 calc R U
H15B H 0.6302 1.0567 -0.2378 0.094 Uiso 1 1 calc R U
H15C H 0.5634 1.0298 -0.1320 0.094 Uiso 1 1 calc R U
C1 C 0.7556(7) 0.4159(6) 0.7331(6) 0.0788(13) Uani 1 1 d . .
H1A H 0.8433 0.5081 0.8016 0.118 Uiso 1 1 calc R U
H1B H 0.7521 0.3699 0.7994 0.118 Uiso 1 1 calc R U
H1C H 0.6579 0.4439 0.6877 0.118 Uiso 1 1 calc R U
loop_
_atom_site_aniso_label
_atom_site_aniso_U_11
_atom_site_aniso_U_22
_atom_site_aniso_U_33
_atom_site_aniso_U_23
_atom_site_aniso_U_13
_atom_site_aniso_U_12
O2 0.0510(13) 0.0547(14) 0.0539(14) 0.0379(12) 0.0275(11) 0.0173(11)
O1 0.0733(17) 0.0531(14) 0.0582(15) 0.0400(12) 0.0320(13) 0.0214(12)
N2 0.0436(14) 0.0321(12) 0.0409(14) 0.0201(11) 0.0190(11) 0.0089(10)
N1 0.0517(15) 0.0346(13) 0.0442(14) 0.0199(11) 0.0249(13) 0.0121(11)
F2 0.176(3) 0.0352(12) 0.134(3) 0.0266(14) 0.103(3) 0.0190(16)
F1 0.243(4) 0.0799(18) 0.097(2) 0.0594(16) 0.124(3) 0.095(2)
F3 0.122(3) 0.120(3) 0.122(3) 0.056(2) 0.055(2) 0.093(2)
C6 0.0360(15) 0.0313(14) 0.0366(15) 0.0169(12) 0.0126(12) 0.0060(12)
C12 0.0422(16) 0.0368(15) 0.0369(15) 0.0203(12) 0.0209(13) 0.0119(12)
C9 0.0421(16) 0.0341(14) 0.0375(15) 0.0198(12) 0.0171(13) 0.0079(12)
C5 0.0379(15) 0.0304(14) 0.0391(16) 0.0164(12) 0.0151(13) 0.0061(12)
C7 0.0489(18) 0.0385(16) 0.0433(17) 0.0227(14) 0.0210(15) 0.0130(13)
C8 0.0468(17) 0.0341(15) 0.0376(15) 0.0194(13) 0.0189(14) 0.0111(13)
C13 0.0368(16) 0.0555(19) 0.0516(19) 0.0350(16) 0.0148(14) 0.0102(14)
C2 0.0405(16) 0.0412(16) 0.0415(16) 0.0257(14) 0.0126(13) 0.0066(13)
C11 0.0377(16) 0.0538(19) 0.056(2) 0.0339(16) 0.0211(15) 0.0077(14)
C14 0.0371(16) 0.0547(19) 0.0551(19) 0.0345(17) 0.0161(15) 0.0031(14)
C10 0.0360(16) 0.0514(19) 0.0505(19) 0.0316(16) 0.0157(14) 0.0099(14)
C4 0.0529(19) 0.0326(15) 0.0509(19) 0.0195(14) 0.0234(16) 0.0132(14)
C3 0.0474(18) 0.0336(15) 0.0537(19) 0.0260(14) 0.0175(15) 0.0117(13)
C16 0.084(3) 0.0458(19) 0.058(2) 0.0323(17) 0.041(2) 0.0311(19)
C15 0.065(2) 0.080(3) 0.076(3) 0.059(2) 0.038(2) 0.036(2)
C1 0.118(4) 0.084(3) 0.076(3) 0.056(3) 0.063(3) 0.041(3)
loop_
_atom_type_symbol
_atom_type_description
_atom_type_scat_dispersion_real
_atom_type_scat_dispersion_imag
_atom_type_scat_source
C C 0.0033 0.0016 'International Tables Vol C Tables 4.2.6.8 and 6.1.1.4'
H H 0.0000 0.0000 'International Tables Vol C Tables 4.2.6.8 and 6.1.1.4'
N N 0.0061 0.0033 'International Tables Vol C Tables 4.2.6.8 and 6.1.1.4'
O O 0.0106 0.0060 'International Tables Vol C Tables 4.2.6.8 and 6.1.1.4'
F F 0.0171 0.0103 'International Tables Vol C Tables 4.2.6.8 and 6.1.1.4'
loop_
_geom_angle_atom_site_label_1
_geom_angle_atom_site_label_2
_geom_angle_atom_site_label_3
_geom_angle
C12 O2 C15 118.0(2)
C2 O1 C1 117.0(3)
C8 N2 N1 113.1(2)
C8 N2 C9 127.2(3)
N1 N2 C9 119.7(2)
C5 N1 N2 103.8(2)
C7 C6 C8 135.1(3)
C7 C6 C5 121.3(3)
C8 C6 C5 103.6(3)
O2 C12 C13 124.7(3)
O2 C12 C11 115.2(3)
C13 C12 C11 120.1(3)
C14 C9 C10 120.3(3)
C14 C9 N2 119.8(3)
C10 C9 N2 119.8(3)
N1 C5 C4 127.5(3)
N1 C5 C6 112.5(3)
C4 C5 C6 119.9(3)
C2 C7 C6 117.0(3)
C2 C7 H7 121.5
C6 C7 H7 121.5
N2 C8 C6 107.0(3)
N2 C8 C16 123.3(3)
C6 C8 C16 129.6(3)
C12 C13 C14 119.6(3)
C12 C13 H13 120.2
C14 C13 H13 120.2
O1 C2 C7 124.4(3)
O1 C2 C3 113.7(3)
C7 C2 C3 122.0(3)
C12 C11 C10 119.8(3)
C12 C11 H11 120.1
C10 C11 H11 120.1
C9 C14 C13 120.3(3)
C9 C14 H14 119.9
C13 C14 H14 119.9
C11 C10 C9 119.8(3)
C11 C10 H10 120.1
C9 C10 H10 120.1
C3 C4 C5 117.8(3)
C3 C4 H4 121.1
C5 C4 H4 121.1
C4 C3 C2 121.9(3)
C4 C3 H3 119.0
C2 C3 H3 119.0
F1 C16 F3 108.0(4)
F1 C16 F2 105.7(4)
F3 C16 F2 104.3(3)
F1 C16 C8 111.4(3)
F3 C16 C8 113.9(3)
F2 C16 C8 112.9(3)
O2 C15 H15A 109.5
O2 C15 H15B 109.5
H15A C15 H15B 109.5
O2 C15 H15C 109.5
H15A C15 H15C 109.5
H15B C15 H15C 109.5
O1 C1 H1A 109.5
O1 C1 H1B 109.5
H1A C1 H1B 109.5
O1 C1 H1C 109.5
H1A C1 H1C 109.5
H1B C1 H1C 109.5
loop_
_geom_bond_atom_site_label_1
_geom_bond_atom_site_label_2
_geom_bond_distance
O2 C12 1.361(3)
O2 C15 1.418(4)
O1 C2 1.369(4)
O1 C1 1.426(5)
N2 C8 1.359(4)
N2 N1 1.349(4)
N2 C9 1.436(4)
N1 C5 1.348(4)
F2 C16 1.329(5)
F1 C16 1.299(4)
F3 C16 1.303(5)
C6 C7 1.416(4)
C6 C8 1.391(4)
C6 C5 1.414(4)
C12 C13 1.377(4)
C12 C11 1.384(4)
C9 C14 1.363(4)
C9 C10 1.381(4)
C5 C4 1.418(4)
C7 C2 1.362(4)
C7 H7 0.9300
C8 C16 1.471(5)
C13 C14 1.382(4)
C13 H13 0.9300
C2 C3 1.418(5)
C11 C10 1.374(4)
C11 H11 0.9300
C14 H14 0.9300
C10 H10 0.9300
C4 C3 1.356(5)
C4 H4 0.9300
C3 H3 0.9300
C15 H15A 0.9600
C15 H15B 0.9600
C15 H15C 0.9600
C1 H1A 0.9600
C1 H1B 0.9600
C1 H1C 0.9600
