#------------------------------------------------------------------------------
#$Date: 2019-11-11 20:30:28 +0200 (Mon, 11 Nov 2019) $
#$Revision: 227277 $
#$URL: file:///home/coder/svn-repositories/cod/cif/4/03/58/4035865.cif $
#------------------------------------------------------------------------------
#
# This file is available in the Crystallography Open Database (COD),
# http://www.crystallography.net/
#
# All data on this site have been placed in the public domain by the
# contributors.
#
data_4035865
loop_
_publ_author_name
'Bookser, Brett C.'
'Weinhouse, Michael I.'
'Burns, Aaron C.'
'Valiere, Andrew N.'
'Valdez, Lino J.'
'Stanczak, Pawel'
'Na, Jim'
'Rheingold, Arnold L.'
'Moore, Curtis E.'
'Dyck, Brian'
_publ_section_title
;
 Solvent-Controlled, Site-Selective N-Alkylation Reactions of Azolo-Fused
 Ring Heterocycles at N1-, N2-, and N3-Positions, Including Pyrazolo[3,4-
 d]pyrimidines, Purines, [1,2,3]Triazolo[4,5]pyridines, and Related
 Deaza-Compounds.
;
_journal_issue                   12
_journal_name_full               'The Journal of organic chemistry'
_journal_page_first              6334
_journal_page_last               6353
_journal_paper_doi               10.1021/acs.joc.8b00540
_journal_volume                  83
_journal_year                    2018
_chemical_formula_moiety         'C6 H5 Cl N4'
_chemical_formula_sum            'C6 H5 Cl N4'
_chemical_formula_weight         168.59
_space_group_crystal_system      monoclinic
_space_group_IT_number           14
_space_group_name_Hall           '-P 2ybc'
_space_group_name_H-M_alt        'P 1 21/c 1'
_atom_sites_solution_hydrogens   geom
_atom_sites_solution_primary     dual
_audit_creation_date             2016-09-07
_audit_creation_method
;
Olex2 1.2-beta
(compiled 2016.08.25 svn.r3337 for OlexSys, GUI svn.r5221)
;
_cell_angle_alpha                90
_cell_angle_beta                 96.91(4)
_cell_angle_gamma                90
_cell_formula_units_Z            4
_cell_length_a                   3.816(10)
_cell_length_b                   13.38(3)
_cell_length_c                   14.05(3)
_cell_measurement_reflns_used    2086
_cell_measurement_temperature    100
_cell_measurement_theta_max      25.608
_cell_measurement_theta_min      2.961
_cell_volume                     712(3)
_computing_cell_refinement       'SAINT v8.37A (Bruker, 2015)'
_computing_data_collection       'APEX2 v2013.6-2 (Bruker, 2013)'
_computing_data_reduction        'SAINT v8.37A (Bruker, 2015)'
_computing_molecular_graphics    'Olex2 (Dolomanov et al., 2009)'
_computing_publication_material  'Olex2 (Dolomanov et al., 2009)'
_computing_structure_refinement  'XL (Sheldrick, 2008)'
_computing_structure_solution    'ShelXT (Sheldrick, 2008)'
_diffrn_ambient_temperature      100
_diffrn_detector                 'Bruker APEX-II CCD'
_diffrn_detector_area_resol_mean 7.9
_diffrn_detector_type            'CCD Area Detector'
_diffrn_measured_fraction_theta_full 0.997
_diffrn_measured_fraction_theta_max 0.979
_diffrn_measurement_device       'Kappa Four-Circle Diffractometer'
_diffrn_measurement_device_type  'Bruker APEX II Ultra'
_diffrn_measurement_method       '\f and \w scans'
_diffrn_radiation_monochromator  'Double Bounce Multilayer Mirrors'
_diffrn_radiation_probe          x-ray
_diffrn_radiation_type           MoK\a
_diffrn_radiation_wavelength     0.71073
_diffrn_reflns_av_R_equivalents  0.0281
_diffrn_reflns_av_unetI/netI     0.0291
_diffrn_reflns_Laue_measured_fraction_full 0.997
_diffrn_reflns_Laue_measured_fraction_max 0.979
_diffrn_reflns_limit_h_max       4
_diffrn_reflns_limit_h_min       -4
_diffrn_reflns_limit_k_max       16
_diffrn_reflns_limit_k_min       -15
_diffrn_reflns_limit_l_max       16
_diffrn_reflns_limit_l_min       -16
_diffrn_reflns_number            4943
_diffrn_reflns_point_group_measured_fraction_full 0.997
_diffrn_reflns_point_group_measured_fraction_max 0.979
_diffrn_reflns_theta_full        25.242
_diffrn_reflns_theta_max         25.419
_diffrn_reflns_theta_min         2.110
_diffrn_source                   'Micro Focus Rotating Anode'
_diffrn_source_type              'Bruker TXS'
_diffrn_standards_number         0
_exptl_absorpt_coefficient_mu    0.466
_exptl_absorpt_correction_T_max  0.2590
_exptl_absorpt_correction_T_min  0.2332
_exptl_absorpt_correction_type   multi-scan
_exptl_absorpt_process_details
;
SADABS-2016/2 (Bruker,2016/2) was used for absorption correction.
wR2(int) was 0.0533 before and 0.0391 after correction.
The Ratio of minimum to maximum transmission is 0.9004.
The \l/2 correction factor is Not present.
;
_exptl_crystal_colour            colourless
_exptl_crystal_colour_primary    colourless
_exptl_crystal_density_diffrn    1.573
_exptl_crystal_description       needle
_exptl_crystal_F_000             344
_exptl_crystal_size_max          0.3
_exptl_crystal_size_mid          0.08
_exptl_crystal_size_min          0.04
_refine_diff_density_max         0.242
_refine_diff_density_min         -0.248
_refine_diff_density_rms         0.048
_refine_ls_extinction_method     none
_refine_ls_goodness_of_fit_ref   1.059
_refine_ls_hydrogen_treatment    constr
_refine_ls_matrix_type           full
_refine_ls_number_parameters     101
_refine_ls_number_reflns         1297
_refine_ls_number_restraints     0
_refine_ls_restrained_S_all      1.059
_refine_ls_R_factor_all          0.0362
_refine_ls_R_factor_gt           0.0289
_refine_ls_shift/su_max          0.001
_refine_ls_shift/su_mean         0.000
_refine_ls_structure_factor_coef Fsqd
_refine_ls_weighting_details
'w=1/[\s^2^(Fo^2^)+(0.0308P)^2^+0.2638P] where P=(Fo^2^+2Fc^2^)/3'
_refine_ls_weighting_scheme      calc
_refine_ls_wR_factor_gt          0.0653
_refine_ls_wR_factor_ref         0.0683
_reflns_Friedel_coverage         0.000
_reflns_number_gt                1127
_reflns_number_total             1297
_reflns_threshold_expression     'I > 2\s(I)'
_iucr_refine_instructions_details
;

    dart172.res created by SHELXL-2014/7

TITL dart172_a.res in P2(1)/c
CELL 0.71073 3.8164 13.376 14.0473 90 96.91 90
ZERR 4 0.0098 0.0292 0.0299 0 0.042 0
LATT 1
SYMM -X,0.5+Y,0.5-Z
SFAC C H Cl N
UNIT 24 20 4 16
 
L.S. 4
PLAN  -19 0 0
SIZE 0.04 0.08 0.3
TEMP -173.15
HTAB
BOND $H
CONF
fmap 2
acta
MORE -1
REM <olex2.extras>
REM <HklSrc "%.\\dart172.hkl">
REM </olex2.extras>
 
WGHT    0.030800    0.263800
FVAR       0.30553
CL1   3    0.668902    0.959393    0.374845    11.00000    0.02026    0.01553 =
         0.02547    0.00339    0.00234   -0.00186
N1    4    0.142267    0.620125    0.344340    11.00000    0.01507    0.01655 =
         0.01403    0.00025   -0.00043    0.00117
C1    1    0.007808    0.517517    0.352151    11.00000    0.01804    0.01638 =
         0.02423   -0.00134   -0.00023   -0.00193
AFIX 137
H1A   2   -0.135124    0.499044    0.292058    11.00000   -1.50000
H1B   2   -0.137698    0.514142    0.404986    11.00000   -1.50000
H1C   2    0.206849    0.471144    0.364604    11.00000   -1.50000
AFIX   0
C2    1    0.325726    0.677799    0.414824    11.00000    0.01041    0.01657 =
         0.01493   -0.00115    0.00077    0.00324
N3    4    0.425888    0.651490    0.507535    11.00000    0.01722    0.01839 =
         0.01481    0.00104    0.00224    0.00108
C4    1    0.601631    0.725976    0.557972    11.00000    0.01726    0.01969 =
         0.01447   -0.00108    0.00055    0.00187
AFIX  43
H4    2    0.678416    0.713841    0.623816    11.00000   -1.20000
AFIX   0
C5    1    0.681049    0.821335    0.520268    11.00000    0.01431    0.01777 =
         0.01979   -0.00338    0.00042    0.00128
AFIX  43
H5    2    0.807069    0.869488    0.560664    11.00000   -1.20000
AFIX   0
N6    4    0.093384    0.673122    0.259772    11.00000    0.01843    0.02074 =
         0.01532    0.00248   -0.00015    0.00069
N7    4    0.238075    0.763453    0.273107    11.00000    0.01798    0.02019 =
         0.01536    0.00120    0.00020    0.00067
C8    1    0.386252    0.768929    0.368169    11.00000    0.01269    0.01515 =
         0.01564    0.00130    0.00287    0.00316
C9    1    0.574392    0.843860    0.424601    11.00000    0.01119    0.01362 =
         0.02071    0.00181    0.00479    0.00128
HKLF 4
 
REM  dart172_a.res in P2(1)/c
REM R1 =  0.0289 for    1127 Fo > 4sig(Fo)  and  0.0362 for all    1297 data
REM    101 parameters refined using      0 restraints
 
END  
     
WGHT      0.0305      0.2639 

REM Instructions for potential hydrogen bonds
EQIV $1 -x+1, -y+1, -z+1
HTAB C1 N3_$1

REM Highest difference peak  0.242,  deepest hole -0.248,  1-sigma level  0.048
Q1    1   0.3006  0.7369  0.4027  11.00000  0.05    0.24
Q2    1   0.5225  0.8063  0.3815  11.00000  0.05    0.22
Q3    1   0.4757  0.7124  0.3870  11.00000  0.05    0.21
Q4    1   0.2805  0.6446  0.3785  11.00000  0.05    0.21
Q5    1  -0.2447  0.5162  0.3232  11.00000  0.05    0.21
Q6    1   0.2684  0.7838  0.3291  11.00000  0.05    0.20
Q7    1   0.3815  0.8193  0.3960  11.00000  0.05    0.19
Q8    1   0.1807  0.6547  0.3856  11.00000  0.05    0.19
Q9    1   0.1461  0.8158  0.2418  11.00000  0.05    0.18
Q10   1   0.0762  0.5816  0.3550  11.00000  0.05    0.18
Q11   1  -0.0853  0.6550  0.2042  11.00000  0.05    0.18
Q12   1   0.2541  0.5963  0.5279  11.00000  0.05    0.17
Q13   1   0.7030  0.7645  0.5165  11.00000  0.05    0.17
Q14   1   0.0978  0.6411  0.3051  11.00000  0.05    0.16
Q15   1   0.3604  0.6586  0.4573  11.00000  0.05    0.16
Q16   1   0.0666  0.7315  0.2715  11.00000  0.05    0.15
Q17   1   0.5795  0.6880  0.5197  11.00000  0.05    0.14
Q18   1   0.3892  0.6615  0.5414  11.00000  0.05    0.14
Q19   1   0.1965  0.4674  0.4175  11.00000  0.05    0.14

  REM The information below was added by Olex2.
  REM
  REM R1 = 0.0289 for 1127 Fo > 4sig(Fo) and 0.0362 for all 5105 data
  REM n/a parameters refined using n/a restraints
  REM Highest difference peak 0.24, deepest hole -0.25
  REM Mean Shift 0, Max Shift 0.001.
  
  REM +++ Tabular Listing of Refinement Information +++
  REM R1_all = 0.0362
  REM R1_gt = 0.0289
  REM wR_ref = 0.0683
  REM GOOF = 1.059
  REM Shift_max = 0.001
  REM Shift_mean = 0
  REM Reflections_all = 5105
  REM Reflections_gt = 1127
  REM Parameters = n/a
  REM Hole = -0.25
  REM Peak = 0.24
  REM Flack = n/a
  
  
;
_cod_data_source_file            jo8b00540_si_007.cif
_cod_data_source_block           dart172
_cod_depositor_comments
;
The following automatic conversions were performed:

data item '_diffrn_radiation_probe' value 'X-ray' was changed to
'x-ray' in accordance with the
/home/data/users/saulius/crontab/automatic-downloads/current/ACS/lib/dictionaries/cif_core.dic
dictionary named 'cif_core.dic' version 2.4.2 last updated on
2011-04-26.

Automatic conversion script
Id: cif_fix_values 6909 2019-04-08 15:41:33Z antanas 
;
_cod_database_code               4035865
_shelx_space_group_comment
;
The symmetry employed for this shelxl refinement is uniquely defined
by the following loop, which should always be used as a source of
symmetry information in preference to the above space-group names.
They are only intended as comments.
;
_shelx_estimated_absorpt_t_max   0.982
_shelx_estimated_absorpt_t_min   0.873
_olex2_refinement_description
;
1. Fixed Uiso
 At 1.2 times of:
  All C(H) groups
 At 1.5 times of:
  All C(H,H,H) groups
2.a Aromatic/amide H refined with riding coordinates:
 C4(H4), C5(H5)
2.b Idealised Me refined as rotating group:
 C1(H1A,H1B,H1C)
;
_shelx_shelxl_version_number     2014/7
_olex2_submission_special_instructions 'No special instructions were received'
loop_
_space_group_symop_operation_xyz
'x, y, z'
'-x, y+1/2, -z+1/2'
'-x, -y, -z'
'x, -y-1/2, z-1/2'
loop_
_atom_site_label
_atom_site_type_symbol
_atom_site_fract_x
_atom_site_fract_y
_atom_site_fract_z
_atom_site_U_iso_or_equiv
_atom_site_adp_type
_atom_site_occupancy
_atom_site_site_symmetry_order
_atom_site_calc_flag
_atom_site_refinement_flags_posn
Cl1 Cl 0.66890(11) 0.95939(3) 0.37485(3) 0.02045(15) Uani 1 1 d .
N1 N 0.1423(3) 0.62012(11) 0.34434(10) 0.0154(3) Uani 1 1 d .
C1 C 0.0078(5) 0.51752(13) 0.35215(13) 0.0198(4) Uani 1 1 d .
H1A H -0.1351 0.4990 0.2921 0.030 Uiso 1 1 calc GR
H1B H -0.1377 0.5141 0.4050 0.030 Uiso 1 1 calc GR
H1C H 0.2068 0.4711 0.3646 0.030 Uiso 1 1 calc GR
C2 C 0.3257(4) 0.67780(13) 0.41482(12) 0.0140(4) Uani 1 1 d .
N3 N 0.4259(4) 0.65149(11) 0.50753(10) 0.0168(3) Uani 1 1 d .
C4 C 0.6016(4) 0.72598(13) 0.55797(13) 0.0173(4) Uani 1 1 d .
H4 H 0.6784 0.7138 0.6238 0.021 Uiso 1 1 calc R
C5 C 0.6810(4) 0.82133(13) 0.52027(12) 0.0174(4) Uani 1 1 d .
H5 H 0.8071 0.8695 0.5607 0.021 Uiso 1 1 calc R
N6 N 0.0934(4) 0.67312(11) 0.25977(10) 0.0183(3) Uani 1 1 d .
N7 N 0.2381(4) 0.76345(11) 0.27311(11) 0.0180(4) Uani 1 1 d .
C8 C 0.3863(4) 0.76893(12) 0.36817(12) 0.0144(4) Uani 1 1 d .
C9 C 0.5744(4) 0.84386(12) 0.42460(12) 0.0149(4) Uani 1 1 d .
loop_
_atom_site_aniso_label
_atom_site_aniso_U_11
_atom_site_aniso_U_22
_atom_site_aniso_U_33
_atom_site_aniso_U_23
_atom_site_aniso_U_13
_atom_site_aniso_U_12
Cl1 0.0203(2) 0.0155(2) 0.0255(3) 0.00339(18) 0.00234(17) -0.00186(18)
N1 0.0151(7) 0.0166(8) 0.0140(8) 0.0002(6) -0.0004(6) 0.0012(6)
C1 0.0180(9) 0.0164(10) 0.0242(10) -0.0013(8) -0.0002(7) -0.0019(8)
C2 0.0104(8) 0.0166(9) 0.0149(9) -0.0012(7) 0.0008(6) 0.0032(7)
N3 0.0172(7) 0.0184(8) 0.0148(8) 0.0010(6) 0.0022(6) 0.0011(6)
C4 0.0173(9) 0.0197(10) 0.0145(9) -0.0011(7) 0.0005(7) 0.0019(7)
C5 0.0143(8) 0.0178(9) 0.0198(10) -0.0034(7) 0.0004(7) 0.0013(7)
N6 0.0184(7) 0.0207(8) 0.0153(8) 0.0025(6) -0.0002(6) 0.0007(7)
N7 0.0180(7) 0.0202(8) 0.0154(8) 0.0012(6) 0.0002(6) 0.0007(7)
C8 0.0127(8) 0.0151(9) 0.0156(9) 0.0013(7) 0.0029(7) 0.0032(7)
C9 0.0112(8) 0.0136(9) 0.0207(10) 0.0018(7) 0.0048(7) 0.0013(7)
loop_
_atom_type_symbol
_atom_type_description
_atom_type_scat_dispersion_real
_atom_type_scat_dispersion_imag
_atom_type_scat_source
C C 0.0033 0.0016 'International Tables Vol C Tables 4.2.6.8 and 6.1.1.4'
H H 0.0000 0.0000 'International Tables Vol C Tables 4.2.6.8 and 6.1.1.4'
Cl Cl 0.1484 0.1585 'International Tables Vol C Tables 4.2.6.8 and 6.1.1.4'
N N 0.0061 0.0033 'International Tables Vol C Tables 4.2.6.8 and 6.1.1.4'
loop_
_geom_angle_atom_site_label_1
_geom_angle_atom_site_label_2
_geom_angle_atom_site_label_3
_geom_angle
C2 N1 C1 128.25(17)
N6 N1 C1 122.10(15)
N6 N1 C2 109.6(2)
N1 C1 H1A 109.5
N1 C1 H1B 109.5
N1 C1 H1C 109.5
H1A C1 H1B 109.5
H1A C1 H1C 109.5
H1B C1 H1C 109.5
N1 C2 C8 104.3(2)
N3 C2 N1 127.14(19)
N3 C2 C8 128.59(16)
C4 N3 C2 112.07(18)
N3 C4 H4 117.4
N3 C4 C5 125.3(2)
C5 C4 H4 117.4
C4 C5 H5 119.9
C9 C5 C4 120.13(16)
C9 C5 H5 119.9
N7 N6 N1 109.56(16)
N6 N7 C8 107.28(14)
C2 C8 C9 116.7(2)
N7 C8 C2 109.24(17)
N7 C8 C9 134.05(17)
C5 C9 Cl1 121.79(14)
C5 C9 C8 117.19(19)
C8 C9 Cl1 121.01(18)
loop_
_geom_bond_atom_site_label_1
_geom_bond_atom_site_label_2
_geom_bond_distance
Cl1 C9 1.751(3)
N1 C1 1.474(4)
N1 C2 1.378(3)
N1 N6 1.377(3)
C1 H1A 0.9800
C1 H1B 0.9800
C1 H1C 0.9800
C2 N3 1.359(3)
C2 C8 1.416(3)
N3 C4 1.353(3)
C4 H4 0.9500
C4 C5 1.428(4)
C5 H5 0.9500
C5 C9 1.390(4)
N6 N7 1.332(3)
N7 C8 1.388(3)
C8 C9 1.418(3)
loop_
_geom_torsion_atom_site_label_1
_geom_torsion_atom_site_label_2
_geom_torsion_atom_site_label_3
_geom_torsion_atom_site_label_4
_geom_torsion
N1 C2 N3 C4 -179.78(16)
N1 C2 C8 N7 0.38(18)
N1 C2 C8 C9 -179.88(14)
N1 N6 N7 C8 0.44(17)
C1 N1 C2 N3 0.7(3)
C1 N1 C2 C8 -179.76(15)
C1 N1 N6 N7 179.47(14)
C2 N1 N6 N7 -0.21(18)
C2 N3 C4 C5 -0.8(2)
C2 C8 C9 Cl1 179.47(12)
C2 C8 C9 C5 -0.2(2)
N3 C2 C8 N7 179.89(15)
N3 C2 C8 C9 -0.4(3)
N3 C4 C5 C9 0.3(3)
C4 C5 C9 Cl1 -179.45(13)
C4 C5 C9 C8 0.2(2)
N6 N1 C2 N3 -179.63(15)
N6 N1 C2 C8 -0.11(17)
N6 N7 C8 C2 -0.51(18)
N6 N7 C8 C9 179.81(18)
N7 C8 C9 Cl1 -0.9(3)
N7 C8 C9 C5 179.48(17)
C8 C2 N3 C4 0.8(2)
loop_
_refln_index_h
_refln_index_k
_refln_index_l
_refln_F_squared_meas
_refln_F_squared_sigma
-1 0 0 238.78 4.05
1 0 0 235.36 4.09
1 0 0 244.88 4.12
1 0 0 238.54 3.89
-1 0 0 246.44 3.91
-1 0 0 237.41 4.03
-2 0 0 28.42 1.04
2 0 0 28.55 0.89
2 0 0 26.53 1.16
2 0 0 31.32 1.22
-2 0 0 30.06 1.09
-2 0 0 27.37 0.88
-3 0 0 132.78 2.89
-3 0 0 126.78 2.89
3 0 0 127.81 3.36
3 0 0 128.86 3.31
4 0 0 46.85 2.25
0 -1 0 0 0.07
0 1 0 0.04 0.06
0 1 0 0.05 0.06
1 -1 0 80.49 1.83
1 -1 0 80.39 1.72
-1 -1 0 80.08 1.41
1 -1 0 81.14 1.83
-1 -1 0 81.85 1.43
-1 1 0 81.14 1.8
1 1 0 82.64 1.58
1 1 0 79.1 1.57
-1 1 0 82.71 1.74
-1 1 0 81.61 1.82
2 -1 0 60.55 1.85
-2 -1 0 63.33 1.43
-2 -1 0 63.4 1.46
2 -1 0 61.92 1.62
2 -1 0 62.92 1.92
-2 1 0 64.93 1.85
-2 1 0 66.12 1.8
2 1 0 62.23 1.71
2 1 0 64.2 1.76
-2 1 0 63.63 1.65
3 -1 0 0.68 0.54
3 -1 0 1.45 0.42
-3 -1 0 0.62 0.27
-3 -1 0 1.18 0.32
-3 1 0 1.13 0.51
3 1 0 0.66 0.43
3 1 0 0.84 0.52
-3 1 0 0.9 0.45
-3 1 0 1.08 0.36
4 -1 0 0.55 0.7
4 1 0 1.74 0.76
-4 1 0 0.54 0.44
0 -2 0 151.26 2.71
0 2 0 153.63 2.72
0 2 0 150.3 2.48
1 -2 0 110.33 2.36
1 -2 0 108.09 2.39
1 -2 0 109.45 2.35
1 2 0 109.68 1.77
-1 2 0 112.63 2.37
-1 2 0 107.18 2.36
-1 2 0 109.76 2.39
2 -2 0 -0.22 0.3
2 -2 0 -0.3 0.29
2 -2 0 0.05 0.4
-2 2 0 -0.31 0.32
2 2 0 0.63 0.29
2 2 0 0.08 0.25
-2 2 0 0.12 0.27
-2 2 0 -0.12 0.3
3 -2 0 24.49 1.51
3 -2 0 24.39 1.2
-3 2 0 24.66 1.38
-3 2 0 22.72 1.14
3 2 0 23.77 1.23
3 2 0 24 1.26
-3 2 0 25.76 1.33
4 -2 0 2.27 0.85
4 2 0 0.97 0.63
-4 2 0 2.25 0.67
0 -3 0 -0.01 0.3
0 3 0 -0.05 0.18
0 3 0 -0.11 0.24
1 -3 0 144.27 3.06
1 -3 0 145.89 3.01
1 -3 0 145.4 3.02
-1 3 0 143.8 3.03
-1 3 0 144.14 3.02
1 3 0 142.49 2.53
-1 3 0 147.46 3.09
2 -3 0 53.01 1.91
2 -3 0 58.53 1.84
2 -3 0 56.92 1.89
-2 3 0 54.24 1.83
-2 3 0 58.21 1.82
2 3 0 54.5 1.39
2 3 0 55.71 1.39
-2 3 0 54.94 1.89
3 -3 0 11.5 1.23
3 -3 0 11.81 0.98
-3 3 0 9.33 0.97
3 3 0 9.7 0.83
3 3 0 10.84 0.91
-3 3 0 9.95 1.06
-3 3 0 12.36 1.26
4 -3 0 17.59 1.71
-4 3 0 16.15 1.41
4 3 0 13.3 1.3
0 -4 0 100.79 2.32
0 4 0 101.74 1.98
0 4 0 102.4 2.33
0 4 0 99.36 1.99
1 -4 0 4.85 0.59
1 -4 0 5.67 0.63
1 -4 0 5.14 0.66
-1 4 0 5.75 0.67
1 4 0 4.36 0.41
-1 4 0 6.38 0.74
-1 4 0 4.59 0.59
2 -4 0 18.22 1.17
2 -4 0 18.78 1.13
2 -4 0 16.55 1.1
-2 4 0 18.59 1.1
-2 4 0 18.61 1.14
2 4 0 20.51 0.68
-2 4 0 19.64 1.19
2 4 0 19.84 0.67
3 -4 0 61.61 2.48
3 -4 0 69.15 2.3
3 4 0 64.44 1.94
3 4 0 68.07 1.93
-3 4 0 65.7 2.48
-3 4 0 67.19 2.3
-3 4 0 64.07 2.41
4 -4 0 3.4 0.96
4 4 0 2.22 0.73
-4 4 0 2.72 0.88
0 -5 0 -0.34 0.29
0 5 0 0.02 0.21
0 5 0 0.19 0.23
0 5 0 0.07 0.27
1 -5 0 120.47 3.03
1 -5 0 121.63 2.81
1 -5 0 120.3 2.75
-1 -5 0 116.23 2.52
1 5 0 122.34 2.58
-1 5 0 120.75 2.88
-1 5 0 122.02 3.03
-1 5 0 123.91 2.88
2 -5 0 20.05 1.25
2 -5 0 20.99 1.28
2 -5 0 20.23 1.19
-2 5 0 18.71 1.25
-2 5 0 19.69 1.22
-2 5 0 21.46 1.27
3 -5 0 11.8 1.25
3 -5 0 12.8 1.34
-3 5 0 13.07 1.13
3 5 0 12.61 0.81
3 5 0 11.9 0.83
-3 5 0 15.8 1.49
4 -5 0 27.47 1.97
-4 5 0 24.98 1.8
0 -6 0 188.97 4.11
0 6 0 199.01 3.66
0 6 0 196.64 3.69
0 6 0 194.43 4.17
1 -6 0 0.6 0.36
1 -6 0 0.43 0.33
-1 -6 0 0.25 0.32
1 -6 0 0.8 0.47
-1 6 0 0.21 0.31
-1 6 0 0.29 0.35
-1 6 0 0.2 0.34
1 6 0 0.31 0.24
2 -6 0 21.23 1.38
2 -6 0 22.6 1.36
2 -6 0 21.9 1.3
2 6 0 24.24 0.81
-2 6 0 22.53 1.39
-2 6 0 23.65 1.43
-2 6 0 23.22 1.37
3 -6 0 9.97 1.23
3 -6 0 9.44 1.2
-3 6 0 10.07 1.31
3 6 0 8 0.7
3 6 0 8.02 0.65
4 -6 0 2.11 0.85
-4 6 0 0.4 0.73
0 -7 0 -0.18 0.35
0 7 0 0.4 0.29
0 7 0 0.51 0.34
0 7 0 0.65 0.28
1 -7 0 178.12 4.32
1 -7 0 185.98 3.86
-1 -7 0 177.71 3.84
1 7 0 185.73 3.92
-1 7 0 184.22 4.07
-1 7 0 188.94 4.14
-1 7 0 180.12 4.36
2 -7 0 56.85 2.16
2 -7 0 52.51 2.24
-2 7 0 53.83 2.19
2 7 0 53.4 1.5
-2 7 0 55.25 2.28
3 -7 0 9.03 1.23
3 -7 0 6.51 1.09
3 7 0 6.16 0.54
3 7 0 5.55 0.57
-3 7 0 9.57 1.33
4 -7 0 5.35 1.16
-4 7 0 5.48 1.21
0 -8 0 0.23 0.39
0 8 0 0.33 0.29
0 8 0 0.21 0.29
1 -8 0 14.66 1.27
-1 -8 0 17.58 1.14
1 8 0 16.45 1.04
1 8 0 17.26 0.63
-1 8 0 16.08 1.22
-1 8 0 18.58 1.15
-1 8 0 17.44 1.17
2 -8 0 8.82 1.2
-2 8 0 10.47 1.22
2 8 0 7.64 0.67
3 -8 0 31.39 1.96
3 -8 0 29.44 1.94
-3 8 0 31.6 1.99
0 -9 0 0.03 0.47
0 9 0 0.04 0.34
0 9 0 0.27 0.31
0 9 0 -0.01 0.3
-1 -9 0 9.51 1.03
1 -9 0 9.58 1.21
1 9 0 9.11 1.03
-1 9 0 9.21 0.99
-1 9 0 10.9 1.17
1 9 0 7.43 0.53
2 -9 0 20.63 1.66
2 9 0 18.98 1.05
-2 9 0 18.61 1.47
3 -9 0 -0.45 0.72
-3 9 0 0.69 0.72
0 -10 0 137.85 3.88
0 10 0 146.15 3.38
0 10 0 136.32 3.36
-1 -10 0 67.86 2.39
1 -10 0 66.28 2.72
-1 10 0 69.09 2.46
1 10 0 67.92 2.43
1 10 0 65.62 1.71
1 10 0 65.97 1.75
2 -10 0 5.19 1.09
-2 10 0 5.73 1.05
2 10 0 7.31 0.85
3 -10 0 16.94 1.91
-3 10 0 17.58 1.89
0 -11 0 0.69 0.63
0 11 0 0.21 0.39
0 11 0 0.12 0.36
1 -11 0 15.56 1.68
-1 11 0 11.64 1.29
1 11 0 10.55 1.28
1 11 0 11.24 0.76
1 11 0 11.89 0.79
2 -11 0 9.73 1.5
2 11 0 8.25 0.96
-2 11 0 11 1.38
3 -11 0 0.53 0.86
-3 11 0 -0.14 0.72
0 -12 0 3.87 0.99
0 12 0 5.42 0.83
1 -12 0 2.44 0.9
-1 12 0 3.52 0.87
1 12 0 4.12 0.61
1 12 0 2.57 0.53
2 -12 0 11.83 1.56
-2 12 0 13.43 1.64
-3 12 0 6.21 1.31
0 -13 0 -0.29 0.65
0 13 0 0.61 0.46
1 -13 0 4.76 1.25
-1 13 0 6.12 1.05
1 13 0 4.49 0.74
1 13 0 4.51 0.66
2 -13 0 0.02 0.85
-2 13 0 -1.04 0.53
0 -14 0 66.19 3.1
0 14 0 73.01 2.66
1 -14 0 0.11 0.79
-1 14 0 0.53 0.61
2 -14 0 26.04 2.32
-2 14 0 31.9 2.19
0 -15 0 0.94 0.87
0 15 0 0.49 0.55
1 -15 0 2.2 1.14
-1 15 0 1.4 0.71
0 16 0 20.21 1.62
4 0 -1 0.1 0.57
3 0 -1 0.15 0.38
-3 0 1 0.18 0.32
3 0 -1 -0.45 0.26
3 0 -1 -0.43 0.41
-3 0 1 0.5 0.34
2 0 -1 0.08 0.29
-2 0 1 0.03 0.25
2 0 -1 -0.13 0.22
2 0 -1 -0.23 0.31
-2 0 1 0.15 0.25
1 0 -1 -0.4 0.19
-1 0 1 0.29 0.22
-1 0 1 -0.15 0.19
1 0 -1 -0.39 0.22
1 0 -1 0.21 0.25
0 0 -1 -0.02 0.06
0 0 1 0 0.05
-1 0 -1 0.21 0.23
1 0 1 -0.09 0.23
1 0 1 0.25 0.25
-1 0 -1 -0.15 0.16
-1 0 -1 -0.11 0.2
-2 0 -1 -0.01 0.18
2 0 1 0.08 0.29
2 0 1 -0.37 0.29
-2 0 -1 0.1 0.27
-2 0 -1 -0.13 0.25
3 0 1 0.04 0.5
3 0 1 -0.13 0.36
-3 0 -1 0.49 0.38
-3 0 -1 -0.05 0.35
4 0 1 -0.05 0.63
4 -1 -1 2.6 0.84
4 1 -1 3.58 0.88
-4 1 1 5.05 0.73
-3 -1 1 58.41 1.44
3 -1 -1 55.79 2.12
3 -1 -1 56.99 2.81
-3 -1 1 55.55 1.42
3 -1 -1 59.31 1.75
3 1 -1 59.36 1.31
3 1 -1 58.18 2.03
-3 1 1 56.64 1.9
-3 1 1 57.36 1.88
3 1 -1 56.4 1.98
2 -1 -1 91.12 2.39
2 -1 -1 92.14 2.4
-2 -1 1 92.01 1.9
2 -1 -1 94.2 2.2
-2 -1 1 94.89 1.92
-2 1 1 96.68 2.21
2 1 -1 97.16 2.25
-2 1 1 90.23 2.26
2 1 -1 91.75 1.85
-2 1 1 98.2 2.36
2 1 -1 91.59 2.22
1 -1 -1 29.49 0.99
-1 -1 1 29.76 0.67
-1 -1 1 29.42 0.68
1 -1 -1 28.54 0.94
1 -1 -1 30.43 1.01
-1 1 1 31.12 0.95
-1 1 1 29.52 0.98
1 1 -1 27.65 0.78
1 1 -1 30.46 0.8
-1 1 1 29.13 0.97
0 -1 -1 11.29 0.42
0 -1 -1 11.02 0.36
0 1 1 11.32 0.42
0 1 1 11.73 0.37
0 1 -1 11.19 0.37
-1 -1 -1 592.4 8.96
1 -1 1 574.38 9.4
1 -1 1 570.6 9.33
-1 -1 -1 575.78 8.98
1 -1 1 588.45 9.22
1 1 1 587.75 9.1
1 1 1 583.32 9.1
-1 1 -1 589.78 9.23
-1 1 -1 586.45 9.36
-1 1 -1 578.66 9.37
2 -1 1 5.07 0.69
2 -1 1 5.78 0.65
-2 -1 -1 6.19 0.51
-2 -1 -1 5.2 0.44
2 1 1 5.45 0.62
2 1 1 5.88 0.6
-2 1 -1 6.13 0.54
-2 1 -1 5.48 0.63
-2 1 -1 6.46 0.67
-3 -1 -1 9.1 0.61
-3 -1 -1 8.46 0.57
3 -1 1 10.25 1.13
3 1 1 9.89 0.96
3 1 1 9.19 1.02
-3 1 -1 11.35 1.02
-3 1 -1 9.08 0.68
-3 1 -1 9.01 0.89
4 -1 1 31.38 1.94
-4 1 -1 31.45 1.44
4 1 1 30.29 1.85
4 -2 -1 0.9 0.7
-4 2 1 0.74 0.54
4 2 -1 0.58 0.6
3 -2 -1 0.26 0.39
3 -2 -1 0.69 0.55
3 2 -1 0.17 0.4
3 2 -1 0.73 0.4
-3 2 1 0.19 0.46
-3 2 1 0.2 0.35
-3 2 1 0.41 0.42
2 -2 -1 40.61 1.55
2 -2 -1 39.22 1.54
2 -2 -1 39.27 1.39
-2 2 1 39.81 1.48
-2 2 1 41.29 1.53
2 2 -1 38.55 1.23
2 2 -1 40.24 1.23
-2 2 1 39.82 1.4
1 -2 -1 968.83 15.23
1 -2 -1 935.81 15.15
1 -2 -1 982.2 15.23
-1 2 1 943.31 15.21
1 2 -1 956.89 14.55
1 2 -1 1000 14.69
-1 2 1 971.22 15.21
-1 2 1 980.32 15.2
0 -2 1 16.76 0.52
0 -2 -1 15.85 0.51
0 -2 -1 16.59 0.65
0 2 1 15.87 0.53
0 2 -1 16.9 0.64
0 2 -1 16.42 0.54
0 2 1 16.22 0.63
1 -2 1 19.74 0.84
1 -2 1 20.83 0.88
1 -2 1 19.83 0.92
1 2 1 16.56 0.52
-1 2 -1 20.58 0.86
1 2 1 17.99 0.54
-1 2 -1 19.47 0.87
-1 2 -1 20.14 0.87
2 -2 1 90.14 2.41
2 -2 1 87.81 2.49
2 -2 1 91.6 2.23
2 2 1 90.99 2.09
-2 2 -1 91.29 2.4
2 2 1 89.33 2.11
-2 2 -1 94.89 2.3
-2 2 -1 86.34 2.4
3 -2 1 42.09 1.94
-3 2 -1 42.88 1.53
-3 2 -1 41.27 1.8
3 2 1 42.75 1.69
3 2 1 42.24 1.61
-3 2 -1 44.24 1.73
4 -2 1 4.06 0.97
-4 2 -1 3.65 0.83
4 2 1 4.51 0.9
4 -3 -1 1.14 0.6
4 -3 -1 1.4 0.66
4 3 -1 1.15 0.63
-4 3 1 1.66 0.7
3 -3 -1 1.95 0.59
3 -3 -1 3.03 0.75
-3 3 1 2.12 0.52
3 3 -1 2.54 0.53
-3 3 1 1.51 0.58
3 3 -1 2.23 0.54
-3 3 1 1.74 0.64
2 -3 -1 124.69 3.09
2 -3 -1 121.03 2.97
2 -3 -1 122.18 3.06
-2 3 1 124.28 3.02
-2 3 1 123.15 2.98
-2 3 1 118.32 3.03
2 3 -1 119.1 2.42
2 3 -1 122.17 2.44
1 -3 -1 55.72 1.67
1 -3 -1 55.32 1.58
1 -3 -1 53.05 1.59
-1 3 1 58.85 1.68
-1 3 1 56.75 1.61
1 3 -1 56.6 1.29
0 -3 -1 74.41 1.5
0 -3 1 77.67 1.53
0 -3 -1 73.86 1.78
0 -3 1 75.64 1.8
0 3 1 75.92 1.78
0 3 -1 81.16 1.83
0 3 -1 77.09 1.57
0 3 1 75.15 1.56
1 -3 1 61.28 1.62
1 -3 1 58.59 1.68
1 -3 1 59.7 1.69
-1 -3 -1 58.08 1.22
-1 3 -1 59.34 1.69
-1 3 -1 58.7 1.65
1 3 1 58.43 1.22
-1 3 -1 58.22 1.66
2 -3 1 25.76 1.34
2 -3 1 24.3 1.18
2 -3 1 25.18 1.24
-2 3 -1 26.32 1.31
-2 3 -1 25.39 1.19
-2 3 -1 26.63 1.29
2 3 1 23.55 0.9
2 3 1 24.41 0.89
3 -3 1 36.35 1.9
-3 3 -1 35.09 1.71
3 3 1 33.41 1.39
3 3 1 37.67 1.51
-3 3 -1 36.47 1.55
-3 3 -1 33.35 1.62
4 -3 1 22.76 1.79
4 3 1 25.56 1.58
-4 3 -1 22.58 1.59
4 -4 -1 20.36 1.42
4 -4 -1 19.93 1.69
-4 4 1 15.93 1.56
4 4 -1 18.56 1.33
3 -4 -1 28.59 1.7
3 -4 -1 27.91 1.52
-3 4 1 29.21 1.6
-3 4 1 28.42 1.66
3 4 -1 27.89 1.22
-3 4 1 26.97 1.48
3 4 -1 28.48 1.25
2 -4 -1 8.93 0.93
2 -4 -1 10.91 0.95
2 -4 -1 10.23 1.01
-2 4 1 10.28 0.86
2 4 -1 9.01 0.48
2 4 -1 9.27 0.42
2 4 -1 10.11 0.5
-2 4 1 8.63 0.93
-2 4 1 10.61 0.93
1 -4 -1 -0.05 0.37
1 -4 -1 -0.27 0.29
-1 4 1 0.05 0.33
1 4 -1 -0.08 0.19
-1 4 1 0.14 0.28
-1 4 1 0.2 0.32
0 -4 -1 90.11 1.77
0 -4 -1 94.28 2.22
0 -4 1 90.33 2.19
0 4 -1 93.55 1.92
0 4 -1 90.72 2.19
0 4 1 90.06 1.89
0 4 1 95.2 2.22
1 -4 1 0.1 0.34
-1 -4 -1 0.22 0.22
1 -4 1 0.44 0.3
1 -4 1 0.16 0.35
-1 4 -1 0.41 0.3
-1 4 -1 -0.18 0.26
-1 4 -1 0.55 0.36
1 4 1 0.66 0.22
2 -4 1 16.63 1.16
2 -4 1 17.41 1.08
2 -4 1 16.36 1.06
-2 4 -1 15.49 1.02
2 4 1 17.12 0.67
2 4 1 17.05 0.68
-2 4 -1 16.35 1.09
-2 4 -1 15.14 1.1
3 -4 1 15.24 1.45
3 -4 1 14.46 1.13
3 4 1 14.22 0.97
3 4 1 14.23 0.91
-3 4 -1 11.53 1.23
-3 4 -1 15.57 1.13
4 -4 1 0.73 0.79
-4 4 -1 0.66 0.67
4 4 1 1.05 0.63
4 -5 -1 2.13 0.78
4 -5 -1 2.29 0.84
-4 5 1 1.79 0.83
3 -5 -1 2.28 0.73
3 -5 -1 2.17 0.72
3 5 -1 1.74 0.43
3 5 -1 1.57 0.45
-3 5 1 1.52 0.69
-3 5 1 1.54 0.6
2 -5 -1 31.96 1.5
2 -5 -1 29.52 1.51
2 -5 -1 27.71 1.42
-2 5 1 30.58 1.52
2 5 -1 31.05 0.9
-2 5 1 30.08 1.5
-2 5 1 30.64 1.47
1 -5 -1 4.37 0.64
1 -5 -1 2.95 0.61
1 5 -1 3.97 0.49
-1 5 1 3.89 0.64
-1 5 1 3.48 0.58
-1 5 1 3.96 0.67
0 -5 -1 2.44 0.31
0 -5 -1 4.37 0.66
0 -5 1 3.43 0.57
0 5 1 3.49 0.57
0 5 -1 2.38 0.35
0 5 1 3.2 0.43
0 5 -1 2.58 0.4
0 5 -1 3.51 0.57
1 -5 1 6.49 0.68
1 -5 1 5.9 0.72
-1 -5 -1 5.54 0.56
1 -5 1 5.08 0.71
1 5 1 5.6 0.55
-1 5 -1 5.99 0.72
-1 5 -1 5.65 0.68
-1 5 -1 4.69 0.6
2 -5 1 0.05 0.34
2 -5 1 0.5 0.47
2 -5 1 0.39 0.46
-2 5 -1 0.47 0.42
-2 5 -1 -0.25 0.31
-2 5 -1 0.03 0.38
2 5 1 -0.08 0.15
2 5 1 -0.01 0.16
3 -5 1 2.74 0.8
3 -5 1 2.16 0.72
-3 5 -1 2.93 0.8
3 5 1 2.4 0.47
3 5 1 2.31 0.49
-3 5 -1 1.61 0.59
4 -5 1 15.57 1.72
-4 5 -1 14.38 1.56
4 -6 -1 100.66 3.35
-4 6 1 97.11 3.55
3 -6 -1 47.92 2.19
3 -6 -1 46.34 2.22
3 6 -1 46.38 1.42
3 6 -1 46.31 1.43
-3 6 1 50.87 2.34
2 -6 -1 5.12 0.8
2 -6 -1 7.02 0.96
2 -6 -1 5.02 0.79
-2 6 1 4.8 0.78
-2 6 1 6.48 0.95
-2 6 1 5.63 0.85
2 6 -1 5.07 0.51
1 -6 -1 55.28 2.05
1 -6 -1 54.37 1.75
1 6 -1 56.15 1.7
-1 6 1 58.91 2.08
-1 6 1 56.23 1.89
-1 6 1 56.39 1.83
0 -6 1 205.1 4.38
0 -6 -1 212.33 4.43
0 6 1 213.22 3.97
0 6 -1 209.98 4.44
0 6 -1 208.93 3.87
0 6 -1 214.92 3.96
0 6 1 213.98 4.44
1 -6 1 7.62 0.98
-1 -6 -1 6.63 0.67
1 -6 1 6.27 0.74
-1 6 -1 7.03 0.81
1 6 1 6.36 0.58
-1 6 -1 5.65 0.8
-1 6 -1 5.77 0.74
2 -6 1 111.15 3.01
2 -6 1 114.03 3.2
2 -6 1 106.51 3.11
-2 6 -1 106.9 3.15
-2 6 -1 107.81 3.07
2 6 1 108.12 2.11
-2 6 -1 104.24 3.13
3 -6 1 0.84 0.7
3 -6 1 1 0.69
3 6 1 1.25 0.37
3 6 1 1.52 0.42
-3 6 -1 1.76 0.74
4 -6 1 13.21 1.63
-4 6 -1 13.17 1.66
4 -7 -1 1.68 0.84
-4 7 1 1.98 0.93
3 -7 -1 0.02 0.59
-3 7 1 -0.32 0.57
3 7 -1 0.11 0.26
3 7 -1 -0.51 0.26
2 -7 -1 4.23 0.9
-2 7 1 3.8 0.76
2 7 -1 4.39 0.54
-2 7 1 4.19 0.75
1 -7 -1 3.62 0.77
1 -7 -1 1.95 0.48
-1 7 1 3.2 0.61
1 7 -1 2.25 0.51
-1 7 1 2.08 0.55
-1 7 1 2.31 0.54
0 -7 -1 23.9 1.31
0 -7 1 26.54 1.38
0 7 -1 25.94 1.05
0 7 -1 24.58 1
0 7 1 25.02 1.05
0 7 1 25.22 1.29
0 7 -1 25.59 1.31
-1 -7 -1 13.2 0.92
1 -7 1 13.68 1.14
1 -7 1 16.21 0.99
-1 7 -1 14.13 0.99
1 7 1 14.63 0.89
1 7 1 14.06 0.54
-1 7 -1 14.73 1.01
-1 7 -1 15.18 1.12
2 -7 1 2.65 0.69
2 -7 1 3.24 0.76
-2 7 -1 3.41 0.76
2 7 1 3.12 0.4
-2 7 -1 3.9 0.81
3 -7 1 3.53 0.91
3 -7 1 3.58 0.93
3 7 1 4.04 0.5
-3 7 -1 3.56 0.9
3 7 1 3.33 0.45
4 -7 1 0.9 0.77
-4 7 -1 2.3 0.95
3 -8 -1 8.05 1.31
-3 8 1 7.33 1.19
2 -8 -1 87.16 3.11
-2 8 1 89.87 3.01
2 8 -1 93.26 2.37
1 -8 -1 276.06 5.42
1 -8 -1 287.34 6.17
1 8 -1 284.51 5.68
1 8 -1 278.42 4.73
-1 8 1 279.33 5.83
-1 8 1 286.15 5.76
-1 8 1 279.47 6.2
0 -8 1 0.9 0.5
0 -8 -1 0.85 0.48
0 8 1 0.91 0.34
0 8 -1 1.34 0.42
0 8 1 0.81 0.4
0 8 -1 1.13 0.37
0 8 -1 0.88 0.41
0 8 1 1.26 0.38
-1 -8 -1 42.87 1.67
1 -8 1 46.78 2.03
1 8 1 42.12 1.16
-1 8 -1 50.49 1.89
-1 8 -1 46.23 1.8
-1 8 -1 44.01 1.96
1 8 1 42.79 1.65
2 -8 1 195.02 4.96
2 -8 1 201.19 4.79
-2 8 -1 197.46 4.91
2 8 1 197.46 3.93
3 -8 1 39.52 2.2
3 -8 1 38.38 2.15
-3 8 -1 38.68 2.17
3 -9 -1 8.97 1.41
-3 9 1 7.67 1.23
2 -9 -1 29.6 1.89
-2 9 1 26.64 1.71
2 9 -1 27.67 1.3
1 -9 -1 35.31 1.44
1 -9 -1 36.99 1.93
-1 9 1 33.13 1.65
-1 9 1 37.07 1.66
1 9 -1 34.79 1.62
1 9 -1 33.56 1.09
0 -9 1 51.52 2.11
0 -9 -1 54.7 2.18
0 9 1 52.02 1.75
0 9 1 52.16 1.69
0 9 -1 51.87 2.14
0 9 -1 53.42 1.75
0 9 1 48.08 2.06
0 9 -1 51.83 1.72
1 -9 1 60.18 2.44
-1 -9 -1 59.97 2.12
-1 9 -1 60.89 2.23
-1 9 -1 59.28 2.16
1 9 1 60.58 1.55
1 9 1 60.3 2.12
2 -9 1 5.51 0.92
2 -9 1 7.03 1.21
-2 9 -1 6.47 1.04
2 9 1 8.64 0.73
3 -9 1 3.97 0.98
3 -9 1 6.38 1.22
-3 9 -1 6.88 1.23
3 -10 -1 24.85 2
-3 10 1 26.14 1.95
2 -10 -1 53.3 2.58
-2 10 1 50.71 2.39
2 10 -1 53.16 1.95
1 -10 -1 4.08 0.97
1 10 -1 4.01 0.54
1 10 -1 3.89 0.49
1 10 -1 5.18 0.88
-1 10 1 7.14 1.04
0 -10 1 57.25 2.35
0 -10 -1 55.97 2.33
0 10 1 55.4 1.91
0 10 -1 54.77 1.88
0 10 1 43.83 2.66
0 10 -1 55.1 1.88
0 10 1 54.24 1.82
-1 -10 -1 37.15 1.78
1 -10 1 33.11 1.98
1 10 1 37 1.25
-1 10 -1 36.1 1.79
1 10 1 34.74 1.69
2 -10 1 0.78 0.76
-2 10 -1 0.63 0.58
2 10 1 0.81 0.38
3 -10 1 3.59 1.03
-3 10 -1 5.26 1.11
3 -11 -1 13.69 1.78
-3 11 1 13.37 1.63
2 -11 -1 37.33 2.31
2 11 -1 38.68 1.77
-2 11 1 40.3 2.23
1 -11 -1 0.76 0.71
-1 11 1 -0.14 0.49
1 11 -1 0.24 0.29
1 11 -1 0.46 0.32
0 -11 1 19.81 1.61
0 -11 -1 17.11 1.5
0 11 -1 19.82 1.19
0 11 1 18.47 1.15
0 11 1 17.2 1.16
0 11 -1 20.81 1.22
1 -11 1 8.36 1.25
-1 -11 -1 9.32 1.15
1 11 1 9.37 1.15
1 11 1 9.19 0.75
-1 11 -1 11.14 1.26
2 -11 1 1.25 0.86
-2 11 -1 0.97 0.68
2 11 1 1.22 0.63
3 -11 1 19.96 2.1
-3 11 -1 20.46 2.05
-3 12 1 0.43 0.82
2 -12 -1 1.7 0.91
-2 12 1 3.11 0.93
1 -12 -1 10.13 1.49
1 12 -1 11.74 0.89
-1 12 1 13.36 1.44
1 12 -1 12.08 0.87
0 -12 -1 49.82 2.43
0 -12 1 53.2 2.52
0 12 -1 48.5 1.96
0 12 1 51.03 2.04
-1 -12 -1 8.05 1.15
1 -12 1 9.8 1.47
1 12 1 6.79 0.76
-1 12 -1 8.55 1.17
1 12 1 5.25 0.68
2 -12 1 3.72 1.1
-2 12 -1 4.2 1
2 -13 -1 16.47 2.02
-2 13 1 16.93 1.84
1 -13 -1 12.41 1.65
-1 13 1 14.69 1.53
1 13 -1 13.38 0.97
1 13 -1 10.82 0.94
0 -13 -1 24.42 1.87
0 -13 1 20.5 1.81
0 13 1 19.64 1.37
0 13 -1 20.55 1.39
-1 -13 -1 101.85 3.39
1 -13 1 97.95 3.76
-1 13 -1 97.96 3.33
1 13 1 94.53 2.61
1 13 1 74.84 2.62
2 -13 1 0.84 0.93
-2 13 -1 1.04 0.75
2 -14 -1 2.57 1.17
-2 14 1 3.28 0.99
1 -14 -1 -0.46 0.71
-1 14 1 0.59 0.65
0 -14 -1 -0.1 0.74
0 14 1 1.76 0.67
0 14 -1 0.56 0.52
1 -14 1 26 2.49
-1 14 -1 20.32 1.91
2 -14 1 0.06 0.94
-2 14 -1 0.29 0.72
1 -15 -1 -0.61 0.82
-1 15 1 0.52 0.66
0 -15 -1 16.85 1.89
0 15 1 14.64 1.48
0 15 -1 16.83 1.4
-1 15 -1 13.63 1.63
0 16 -1 16.53 1.68
0 16 1 17.4 1.69
4 0 -2 2.53 0.78
3 0 -2 6.44 0.86
3 0 -2 5.55 0.77
-3 0 2 4.34 0.58
3 0 -2 5.82 0.65
-3 0 2 6.11 0.66
2 0 -2 25.12 1.11
-2 0 2 26.74 1.03
-2 0 2 24.48 1
2 0 -2 25.13 0.99
2 0 -2 29.27 1.19
-1 0 2 717.55 11.45
1 0 -2 727.62 11.55
-1 0 2 740.66 11.47
1 0 -2 747.47 11.55
0 0 2 28.14 0.76
0 0 -2 30.05 0.76
-1 0 -2 395.23 6.46
1 0 2 393.51 6.53
-1 0 -2 389.58 6.44
2 0 2 107.68 2.64
-2 0 -2 106.41 2.16
-2 0 -2 105.46 2.47
2 0 2 106.66 2.54
-2 0 -2 106.86 2.41
-3 0 -2 29.69 1.27
-3 0 -2 28.21 1.18
-3 0 -2 27.02 0.89
3 0 2 30.17 1.57
4 0 2 25.84 1.81
4 -1 -2 8 1.15
-4 1 2 8.63 0.87
4 1 -2 10.33 1.21
-3 -1 2 4.6 0.48
3 -1 -2 4.76 0.7
-3 -1 2 3.7 0.43
3 -1 -2 4.37 0.77
3 1 -2 3.51 0.64
3 1 -2 4.23 0.49
-3 1 2 3.39 0.61
3 1 -2 4.62 0.76
-3 1 2 4.01 0.66
2 -1 -2 25.99 1.1
-2 -1 2 28.24 0.89
-2 -1 2 25.06 0.86
2 -1 -2 24.84 1.17
2 -1 -2 27.54 1.23
-2 1 2 26.62 1.09
2 1 -2 26.42 1.09
-2 1 2 26.24 1.13
2 1 -2 25.87 0.93
-2 1 2 27.24 1.15
2 1 -2 26.18 1.07
1 -1 -2 307.76 5.46
-1 -1 2 308.45 5.07
-1 -1 2 325.26 5.06
1 -1 -2 316.45 5.46
-1 1 2 323.76 5.49
-1 1 2 309.79 5.37
1 1 -2 317.71 5.18
0 -1 2 481.28 7.73
0 -1 -2 458.03 7.38
0 1 -2 468.41 7.39
0 1 2 473.03 7.76
-1 -1 -2 107.68 2.1
-1 -1 -2 112.37 2.09
1 -1 2 114.75 2.44
-1 1 -2 112.97 2.34
-1 1 -2 111.01 2.24
1 1 2 108.9 2.19
-1 1 -2 109.82 2.34
2 -1 2 0.54 0.4
2 -1 2 0.35 0.34
-2 -1 -2 0.23 0.26
-2 -1 -2 -0.03 0.22
-2 1 -2 0.49 0.32
-2 1 -2 0.53 0.27
2 1 2 -0.02 0.26
2 1 2 0.68 0.34
-2 1 -2 0.17 0.32
3 -1 2 5.44 0.91
-3 -1 -2 6.24 0.55
-3 -1 -2 6.62 0.64
-3 1 -2 6.19 0.82
-3 1 -2 6.27 0.65
3 1 2 6.1 0.77
3 1 2 6.08 0.87
-3 1 -2 5.9 0.74
4 -1 2 1.71 0.84
4 1 2 2.79 0.83
-4 1 -2 2.58 0.67
4 -2 -2 40.79 1.98
4 -2 -2 41.35 2.22
-4 2 2 43.99 1.87
4 2 -2 41.8 1.95
3 -2 -2 5.31 0.78
3 -2 -2 3.11 0.7
3 2 -2 3.06 0.58
-3 2 2 4.24 0.7
-3 2 2 5.23 0.8
3 2 -2 5.01 0.73
-3 2 2 4.78 0.68
2 -2 -2 302.28 5.81
2 -2 -2 305.8 5.9
2 -2 -2 311.83 5.75
-2 2 2 295.19 5.73
2 2 -2 298.82 5.35
2 2 -2 308.76 5.38
-2 2 2 306.21 5.74
-2 2 2 311.79 5.83
2 2 -2 305.12 5.15
1 -2 -2 904.02 14.5
1 -2 -2 925.65 14.59
1 2 -2 900.81 13.94
-1 2 2 921.4 14.45
-1 2 2 933.51 14.51
-1 2 2 909.82 14.56
0 -2 -2 17.06 0.76
0 -2 -2 18.86 0.68
0 -2 2 18.82 0.68
0 2 -2 18.15 0.68
0 2 2 17.62 0.75
0 2 2 18.67 0.68
1 -2 2 140.65 2.99
-1 -2 -2 142.43 2.4
-1 -2 -2 144.19 2.51
-1 -2 -2 145.91 2.4
-1 2 -2 144.58 2.92
-1 2 -2 144.66 2.99
-1 2 -2 146.65 2.95
1 2 2 143.65 2.58
2 -2 2 98.08 2.72
-2 -2 -2 100.11 1.83
2 -2 2 102.12 2.57
-2 -2 -2 97.55 1.78
-2 2 -2 97.51 2.54
2 2 2 98.62 2.33
-2 2 -2 99.78 2.61
-2 2 -2 97.15 2.41
2 2 2 103.9 2.29
3 -2 2 16.03 1.31
-3 2 -2 15.97 0.96
-3 2 -2 15.62 1.13
3 2 2 14.65 1
3 2 2 13.17 1.07
-3 2 -2 14.02 1.14
4 -2 2 11.99 1.49
4 2 2 11.46 1.31
-4 2 -2 9.46 1.13
4 -3 -2 8.04 1.02
4 3 -2 8.13 1
-4 3 2 7.25 1.04
3 -3 -2 11.68 1.24
3 -3 -2 10.99 1.08
-3 3 2 12.05 1.24
3 3 -2 11.41 0.92
-3 3 2 10.8 0.94
-3 3 2 10.95 1.09
3 3 -2 11.48 0.89
2 -3 -2 25.21 1.29
2 -3 -2 27.31 1.32
2 -3 -2 27.24 1.34
2 3 -2 27.41 0.95
-2 3 2 27.97 1.31
-2 3 2 26.23 1.29
-2 3 2 29.5 1.37
2 3 -2 27.56 0.94
1 -3 -2 42.89 1.41
1 -3 -2 42.71 1.52
-1 3 2 44.32 1.45
-1 3 2 41.87 1.43
-1 3 2 43.12 1.37
1 3 -2 42.76 0.89
0 -3 -2 199.78 3.54
0 -3 -2 206.65 3.86
0 -3 2 202.76 3.57
0 3 -2 204.68 3.61
0 3 2 205.35 3.83
0 3 2 209.3 3.61
-1 -3 -2 60.36 1.32
1 -3 2 53.99 1.68
-1 3 -2 55.38 1.62
1 3 2 57.22 1.21
-1 3 -2 58.43 1.7
-1 3 -2 57.68 1.68
2 -3 2 1.36 0.45
2 -3 2 1.31 0.51
2 3 2 1.55 0.33
-2 3 -2 1.81 0.44
2 3 2 1.34 0.34
-2 3 -2 1.52 0.49
-2 3 -2 1.49 0.49
3 -3 2 16.12 1.34
-3 3 -2 16.72 1.22
-3 3 -2 15.51 1.25
-3 3 -2 15.88 1.07
3 3 2 19.07 1.12
3 3 2 16.34 1
4 -3 2 2.32 0.88
-4 3 -2 1.99 0.73
4 3 2 1.87 0.72
4 -4 -2 1.63 0.67
4 4 -2 2.4 0.66
-4 4 2 2.02 0.76
3 -4 -2 9.29 1.12
3 -4 -2 9.16 1.06
-3 4 2 8.33 1
-3 4 2 7.9 1.05
3 4 -2 9.57 0.79
3 4 -2 9.75 0.88
-3 4 2 8.7 1.05
2 -4 -2 28.31 1.43
2 -4 -2 26.81 1.4
-2 4 2 26.51 1.38
2 4 -2 26.92 0.83
-2 4 2 27.52 1.38
2 4 -2 27.64 0.86
-2 4 2 27.58 1.37
1 -4 -2 94.94 2.37
1 -4 -2 98.48 2.59
-1 4 2 100.03 2.54
-1 4 2 96.86 2.42
1 4 -2 94.55 1.66
-1 4 2 94.56 2.34
0 -4 -2 82.94 1.77
0 -4 -2 80.95 2.11
0 -4 2 83.62 1.79
0 4 -2 84.13 2.1
0 4 2 84.96 2.09
0 4 -2 85.06 1.87
0 4 2 84.83 1.86
1 -4 2 0.78 0.42
-1 -4 -2 0.06 0.25
1 -4 2 0.38 0.33
-1 4 -2 0.21 0.33
1 4 2 0.45 0.21
1 4 2 -0.02 0.17
-1 4 -2 0.35 0.33
-1 4 -2 0.04 0.28
2 -4 2 5.07 0.73
2 -4 2 5.64 0.83
-2 4 -2 4.31 0.67
-2 4 -2 3.89 0.67
-2 4 -2 4.45 0.71
2 4 2 4.42 0.47
2 4 2 4.95 0.46
3 -4 2 3.63 0.9
-3 4 -2 2.63 0.73
-3 4 -2 2.38 0.59
3 4 2 2.05 0.48
3 4 2 2.7 0.58
4 -4 2 34.82 2.22
4 4 2 32.53 1.77
-4 4 -2 36.78 2.09
4 -5 -2 2.85 0.8
-4 5 2 3.53 0.92
3 -5 -2 95.9 3.04
3 5 -2 94.92 2.33
-3 5 2 93.3 3.02
-3 5 2 91.38 3.06
3 5 -2 96.05 2.32
2 -5 -2 -0.17 0.39
2 -5 -2 -0.43 0.35
2 5 -2 0.4 0.16
2 5 -2 -0.07 0.15
-2 5 2 -0.28 0.37
-2 5 2 0.27 0.32
-2 5 2 0.24 0.39
2 5 -2 -0.07 0.19
1 -5 -2 37.43 1.61
1 -5 -2 36.02 1.42
-1 5 2 40.55 1.5
1 5 -2 38.66 0.83
1 5 -2 38.85 1.3
-1 5 2 36.75 1.54
-1 5 2 38.26 1.41
0 -5 -2 100.93 2.11
0 -5 -2 105.04 2.61
0 -5 2 107.3 2.18
0 5 2 106.54 2.59
0 5 2 99.02 2.25
0 5 -2 106.61 2.3
0 5 -2 107.34 2.62
-1 -5 -2 1.7 0.39
1 -5 2 1.55 0.44
1 -5 2 2 0.53
-1 5 -2 1.91 0.47
1 5 2 1.63 0.34
1 5 2 1.39 0.24
-1 5 -2 1.71 0.48
-1 5 -2 1.38 0.44
2 -5 2 81.85 2.4
2 -5 2 82.01 2.61
2 -5 2 83.31 2.54
-2 5 -2 77.4 2.52
2 5 2 77.96 1.74
-2 5 -2 82.58 2.55
-2 5 -2 79.93 2.55
3 -5 2 55.75 2.44
3 5 2 51.35 1.58
-3 5 -2 52.15 2.29
3 5 2 51.36 1.7
-3 5 -2 49.25 2.09
4 -5 2 8.25 1.34
-4 5 -2 5.73 1.14
4 -6 -2 6.15 1.13
-4 6 2 4.4 1.11
3 -6 -2 16.57 1.46
-3 6 2 17.41 1.64
3 6 -2 16.94 0.88
3 6 -2 15.71 0.85
2 -6 -2 39.85 1.76
2 -6 -2 40.69 1.9
-2 6 2 43.32 1.88
-2 6 2 36.69 1.76
2 6 -2 42.8 1.33
-2 6 2 38.85 1.76
1 -6 -2 43.16 1.85
1 -6 -2 48.03 1.64
1 6 -2 44.97 1.55
-1 6 2 42.9 1.79
1 6 -2 46.09 1.04
-1 6 2 48.38 1.73
-1 6 2 46.89 1.64
0 -6 2 66.05 1.6
0 -6 -2 65.92 2.12
0 -6 -2 66.09 1.55
0 6 2 63.87 1.75
0 6 2 69.19 2.1
0 6 -2 67.74 2.1
0 6 -2 71 1.81
-1 -6 -2 128.9 2.87
1 -6 2 128.73 3.09
1 -6 2 126.52 3.31
1 6 2 123.08 2.34
1 6 2 123.26 2.8
-1 6 -2 124.23 3.28
-1 6 -2 130.15 3.12
-1 6 -2 130.82 3.15
2 -6 2 1.33 0.53
2 -6 2 1.99 0.67
-2 6 -2 1.81 0.56
2 6 2 2.37 0.32
-2 6 -2 2.01 0.61
-2 6 -2 1.13 0.46
3 -6 2 2.88 0.91
-3 6 -2 2.83 0.84
3 6 2 3.19 0.54
4 -6 2 20.77 2.02
-4 6 -2 15.28 1.69
4 -7 -2 10.24 1.42
-4 7 2 8.15 1.39
3 -7 -2 55.93 2.51
-3 7 2 58.38 2.56
3 7 -2 55.55 1.52
3 7 -2 55.61 1.49
2 -7 -2 12.39 1.31
-2 7 2 12.45 1.33
2 7 -2 11.06 0.76
-2 7 2 15.03 1.41
1 -7 -2 15.67 1
1 -7 -2 17.34 1.28
1 7 -2 17.9 0.66
-1 7 2 17.49 1.21
-1 7 2 17.99 1.12
1 7 -2 16.9 1.01
-1 7 2 17.01 1.07
0 -7 -2 135.93 2.61
0 -7 -2 137 3.42
0 7 2 136.51 3.41
0 7 -2 134.67 3.39
0 7 -2 136.59 2.97
0 7 -2 129.96 2.8
0 7 2 132.04 2.95
-1 -7 -2 55.58 1.77
1 -7 2 52.43 1.85
1 -7 2 50.07 2.07
1 7 2 54.22 1.73
-1 7 -2 50.29 2.03
-1 7 -2 51.76 1.87
-1 7 -2 52.2 1.89
1 7 2 54.06 1.31
2 -7 2 0.04 0.51
2 -7 2 0.15 0.49
2 7 2 0.14 0.19
-2 7 -2 0.31 0.4
-2 7 -2 -0.13 0.45
3 -7 2 112.93 3.75
-3 7 -2 116.03 3.74
3 7 2 114.41 2.6
4 -7 2 2.44 0.98
3 -8 -2 9.36 1.37
-3 8 2 5.9 1.13
2 -8 -2 25.56 1.71
2 8 -2 23.78 1.16
-2 8 2 27.14 1.66
1 -8 -2 23.69 1.22
1 -8 -2 22.68 1.54
1 8 -2 21.91 1.23
-1 8 2 22.57 1.33
-1 8 2 23.84 1.3
-1 8 2 21.9 1.43
1 8 -2 22.5 0.84
0 -8 -2 15.74 1.19
0 8 -2 15.09 1.1
0 8 2 14.04 0.89
0 8 -2 14.66 0.84
0 8 2 12.59 1.02
0 8 -2 14.66 0.89
-1 -8 -2 40.56 1.65
1 -8 2 44.68 1.7
1 -8 2 41.54 1.98
-1 8 -2 44.68 1.82
-1 8 -2 41.22 1.9
1 8 2 41.84 1.21
1 8 2 39.46 1.58
-1 8 -2 44.89 1.79
2 -8 2 9.67 1.16
2 -8 2 11.63 1.39
-2 8 -2 9.68 1.16
2 8 2 10.02 0.51
2 8 2 8.42 0.66
3 -8 2 0.41 0.67
-3 8 -2 -0.04 0.62
3 -9 -2 43.59 2.4
-3 9 2 41.81 2.38
2 -9 -2 5.9 1.04
-2 9 2 6.92 1.14
2 9 -2 4.55 0.7
1 -9 -2 6.69 0.79
1 -9 -2 7.66 1.06
-1 9 2 8.1 1
1 9 -2 8.74 0.61
-1 9 2 8.86 1.03
1 9 -2 8.49 1.01
0 -9 -2 132.07 3.66
0 9 2 135.99 3.7
0 9 2 128.33 3.15
0 9 -2 130.49 3.13
0 9 -2 134.38 3.08
0 9 -2 131.63 3.68
1 -9 2 1.52 0.66
1 -9 2 0.94 0.43
-1 -9 -2 0.92 0.49
-1 9 -2 0.93 0.45
1 9 2 0.61 0.39
1 9 2 0.44 0.28
2 -9 2 0.98 0.7
2 -9 2 0.63 0.5
2 9 2 0.82 0.34
2 9 2 0.29 0.23
-2 9 -2 0.89 0.56
3 -9 2 11.3 1.46
-3 9 -2 7.35 1.29
3 -10 -2 0.2 0.75
-3 10 2 -0.1 0.66
2 -10 -2 5.69 1.15
-2 10 2 6.11 1.11
2 10 -2 6.36 0.83
1 -10 -2 16.39 1.53
1 -10 -2 15.06 1.06
1 10 -2 14.73 0.84
-1 10 2 16.47 1.28
1 10 -2 14.88 1.17
0 -10 -2 3.12 0.77
0 10 2 2.18 0.52
0 10 -2 4.01 0.65
0 10 -2 3.83 0.64
0 10 2 2.6 0.6
-1 -10 -2 80.06 2.67
1 -10 2 83.44 3.07
-1 10 -2 84.36 2.73
1 10 2 77.37 2.04
1 10 2 74.85 2.56
2 -10 2 69.57 2.94
2 -10 2 70.48 2.68
2 10 2 68.02 1.6
-2 10 -2 68.4 2.76
2 10 2 68.01 2.15
3 -10 2 1.02 0.72
-3 10 -2 3.1 1
3 -11 -2 -0.22 0.79
-3 11 2 0.47 0.77
2 -11 -2 0.08 0.64
2 11 -2 0.03 0.36
-2 11 2 0.94 0.7
1 -11 -2 13.89 1.6
1 11 -2 12.95 0.84
1 11 -2 14.86 0.85
-1 11 2 13.55 1.36
0 -11 -2 8.56 1.17
0 11 2 8.75 0.94
0 11 -2 11.49 1.11
0 11 2 8.91 0.99
0 11 -2 9.72 1.06
-1 -11 -2 4.99 0.9
1 -11 2 3.94 1.02
1 11 2 4.85 0.63
1 11 2 4.14 0.82
-1 11 -2 4.54 0.83
2 -11 2 1.99 0.96
-2 11 -2 1.29 0.61
-3 11 -2 4.44 1.08
-3 12 2 7.18 1.44
2 -12 -2 41.67 2.56
-2 12 2 40.65 2.31
1 -12 -2 71.15 3.12
1 12 -2 70.48 2.06
1 12 -2 73.35 2.18
-1 12 2 76.29 2.84
0 -12 -2 0.37 0.65
0 12 2 0.69 0.5
0 12 -2 0.29 0.45
-1 -12 -2 8.47 1.15
-1 12 -2 8.68 1.15
1 12 2 9.72 0.86
-2 12 -2 45.85 2.45
2 -13 -2 0.18 0.75
-2 13 2 0.08 0.67
1 -13 -2 0.81 0.77
1 13 -2 1.27 0.51
-1 13 2 1.55 0.71
1 13 -2 2.14 0.56
0 -13 -2 2.94 0.97
0 13 2 3.62 0.76
0 13 -2 3.62 0.77
-1 -13 -2 6.84 1.16
1 13 2 3.35 1.02
1 13 2 6.56 0.81
-1 13 -2 6.11 1.08
-2 13 -2 5.15 1.18
2 -14 -2 31.54 2.48
-2 14 2 33.29 2.28
1 -14 -2 5.96 1.31
1 14 -2 6.2 1.22
-1 14 2 6.57 1.1
0 -14 -2 2.89 1.07
0 14 -2 2.56 0.71
0 14 2 4.05 0.84
-1 -14 -2 10.68 1.41
-1 14 -2 11.16 1.46
-2 14 -2 2.61 0.97
1 -15 -2 9.31 1.65
-1 15 2 13.98 1.67
0 -15 -2 16.95 1.94
0 15 -2 16.94 1.44
0 15 2 14.35 1.46
-1 -15 -2 -0.06 0.77
-1 15 -2 0.04 0.58
-3 0 3 0.1 0.34
-3 0 3 -0.29 0.3
3 0 -3 -0.28 0.35
3 0 -3 -0.57 0.32
2 0 -3 -0.13 0.3
-2 0 3 0.22 0.3
2 0 -3 0.86 0.37
-2 0 3 -0.17 0.25
0 0 3 0.14 0.26
0 0 -3 -0.06 0.23
-1 0 -3 -0.03 0.23
1 0 3 0.27 0.28
-1 0 -3 -0.18 0.21
-2 0 -3 -0.28 0.25
-2 0 -3 0.36 0.31
2 0 3 0.13 0.37
-2 0 -3 0.05 0.23
-3 0 -3 -0.02 0.33
-3 0 -3 -0.19 0.35
-3 0 -3 0.28 0.23
3 0 3 0.52 0.53
4 0 3 0.96 0.71
-4 1 3 23.15 1.25
3 -1 -3 23.16 1.23
-3 -1 3 22.87 0.9
-3 -1 3 20.39 0.85
-3 1 3 20.67 1.14
-3 1 3 25.52 1.26
3 1 -3 22.3 1.27
3 1 -3 21.73 1.02
2 -1 -3 31.68 1.37
-2 -1 3 32.81 1.06
-2 -1 3 35.49 1.07
2 -1 -3 33.24 1.34
2 1 -3 35.7 1.28
-2 1 3 33.59 1.31
2 1 -3 35.8 1.22
-2 1 3 34.68 1.33
1 -1 -3 733.12 11.89
-1 -1 3 748.09 11.51
1 -1 -3 740.3 11.97
-1 1 3 725.96 11.81
1 1 -3 748.9 11.62
0 -1 -3 3 0.39
0 -1 3 2.39 0.39
0 1 3 2.57 0.37
0 1 -3 2.32 0.39
-1 -1 -3 18.57 0.72
-1 -1 -3 19.9 0.74
1 -1 3 19.79 0.94
-1 1 -3 19.41 0.87
1 1 3 18.7 0.8
-1 1 -3 19.2 0.84
-2 -1 -3 147 3.01
2 -1 3 146.76 3.45
-2 -1 -3 145.28 2.66
-2 -1 -3 145.37 2.91
2 1 3 143.09 3.24
-2 1 -3 148.86 3.34
-2 1 -3 149.59 3.26
-2 1 -3 144.04 3.02
-3 -1 -3 16.64 0.83
3 -1 3 16.06 1.27
-3 -1 -3 17.35 0.89
-3 1 -3 17.53 1.12
-3 1 -3 17.14 1.17
-3 1 -3 15.27 0.86
3 1 3 16.19 1.25
4 -1 3 -0.36 0.66
4 1 3 0.35 0.62
-4 1 -3 1.36 0.64
4 -2 -3 -0.41 0.45
-4 2 3 -0.44 0.48
3 -2 -3 0.12 0.44
3 2 -3 0.24 0.38
-3 2 3 0.47 0.44
3 2 -3 0.5 0.32
-3 2 3 0.08 0.4
2 -2 -3 100.38 2.67
-2 -2 3 100.24 1.77
2 -2 -3 100.38 2.62
-2 -2 3 93.97 1.77
-2 2 3 95.57 2.54
2 2 -3 98.03 2.24
-2 2 3 94.59 2.53
-2 2 3 102.87 2.63
2 2 -3 99.4 2.29
-1 -2 3 2.29 0.26
-1 -2 3 2.5 0.28
1 -2 -3 2.24 0.45
1 -2 -3 1.46 0.44
-1 2 3 1.91 0.43
-1 2 3 2.33 0.44
1 2 -3 2.05 0.31
0 -2 -3 107.01 2.35
0 -2 -3 104.88 2.15
0 -2 3 106.25 2.18
0 2 3 103.89 2.15
0 2 -3 104.86 2.18
1 -2 3 35.8 1.3
-1 -2 -3 36.11 0.95
-1 -2 -3 34 0.91
-1 2 -3 35.92 1.2
1 2 3 34.64 1.04
-1 2 -3 33.85 1.23
-1 2 -3 33.41 1.19
2 -2 3 3.25 0.63
-2 -2 -3 2.59 0.35
-2 -2 -3 2.87 0.33
-2 2 -3 3.46 0.6
-2 2 -3 3.32 0.58
2 2 3 2.27 0.48
-2 2 -3 3.51 0.53
3 -2 3 0.53 0.61
-3 2 -3 0.9 0.39
-3 2 -3 0.61 0.49
3 2 3 1.07 0.55
-3 2 -3 1.08 0.58
4 -2 3 15.42 1.67
4 2 3 16.79 1.58
-4 2 -3 13.52 1.32
4 -3 -3 52.9 2.13
-4 3 3 49.99 2.17
3 -3 -3 6.31 0.88
-3 3 3 4.78 0.83
3 3 -3 5.2 0.7
3 3 -3 5.65 0.55
-3 3 3 4.19 0.77
-3 3 3 5.54 0.79
2 -3 -3 120.34 3.1
2 -3 -3 120.82 3.09
-2 3 3 120.23 3.08
-2 3 3 114.37 3.02
2 3 -3 119.7 2.51
-2 3 3 119.47 3.01
1 -3 -3 18.63 1.07
1 -3 -3 17.59 0.97
1 3 -3 18.63 0.66
-1 3 3 19.48 0.98
-1 3 3 18.02 0.99
0 -3 -3 20.95 1
0 -3 3 19.51 0.8
0 -3 -3 18.95 0.82
0 3 3 21.44 0.95
0 3 3 18.99 0.8
0 3 -3 20.45 0.81
1 -3 3 6.12 0.7
-1 -3 -3 5.46 0.34
-1 -3 -3 5.21 0.48
-1 -3 -3 5.78 0.33
1 3 3 5.77 0.49
-1 3 -3 6.74 0.67
-1 3 -3 6.46 0.63
-1 3 -3 6.52 0.68
2 -3 3 35.61 1.63
-2 3 -3 34.3 1.42
2 3 3 35.91 1.28
-2 3 -3 42.24 1.62
-2 3 -3 37.93 1.6
3 -3 3 11.1 1.26
-3 3 -3 10.96 0.93
-3 3 -3 12.94 1.32
-3 3 -3 8.74 1.01
3 3 3 11.13 0.98
4 -3 3 1.21 0.83
-4 3 -3 0.73 0.7
4 3 3 0.02 0.56
4 -4 -3 10.21 1.21
-4 4 3 14.11 1.44
3 -4 -3 51.34 2.1
-3 4 3 42.77 2.78
-3 4 3 49.4 2.15
3 4 -3 49.03 1.27
3 4 -3 53.83 1.74
-3 4 3 48.03 2.03
2 -4 -3 362.29 7.05
2 -4 -3 370.66 7.12
-2 4 3 363.67 6.96
-2 4 3 354.62 6.98
2 4 -3 365.96 6.09
-2 4 3 364.49 7.09
1 -4 -3 57.77 1.94
-1 4 3 54.06 1.75
-1 4 3 56.97 1.89
1 4 -3 56.95 1.29
0 -4 -3 9.05 0.78
0 -4 -3 9.59 0.61
0 -4 3 9.75 0.62
0 4 3 9.55 0.73
0 4 -3 8.7 0.63
0 4 3 9.06 0.63
1 -4 3 286.83 5.52
-1 -4 -3 290.55 5.1
-1 4 -3 276.94 5.35
-1 4 -3 293.26 5.59
-1 4 -3 295.2 5.53
1 4 3 288.64 4.88
2 -4 3 0.6 0.45
-2 4 -3 0.3 0.38
-2 4 -3 -0.03 0.27
-2 4 -3 -0.43 0.35
2 4 3 0.31 0.29
3 -4 3 37.36 1.97
-3 4 -3 30.6 1.57
3 4 3 31.57 1.45
-3 4 -3 34.51 1.82
4 -4 3 6.17 1.25
4 4 3 6.2 1.17
-4 4 -3 4.87 1.03
4 -5 -3 12.64 1.43
-4 5 3 10.1 1.33
3 -5 -3 0.84 0.63
3 5 -3 0.37 0.24
-3 5 3 0.04 0.42
3 5 -3 1.36 0.42
-3 5 3 -0.25 0.55
3 5 -3 0.69 0.26
2 -5 -3 15.49 1.25
2 -5 -3 12.9 1.05
-2 5 3 13.91 1.13
-2 5 3 14.39 1.12
-2 5 3 13.62 1.09
2 5 -3 14.61 0.61
1 -5 -3 63.96 2.19
1 -5 -3 65.3 1.98
-1 5 3 63.63 1.92
-1 5 3 62.86 1.99
1 5 -3 64.16 1.42
-1 5 3 61.36 2.08
0 -5 -3 7.18 0.8
0 -5 3 7.48 0.6
0 -5 -3 7.68 0.59
0 5 3 8.42 0.86
0 5 -3 7.99 0.81
0 5 -3 7.86 0.63
0 5 3 7.24 0.63
-1 -5 -3 1.64 0.43
1 -5 3 1.47 0.47
-1 5 -3 1.49 0.41
-1 5 -3 1.88 0.51
1 5 3 2.02 0.33
-1 5 -3 1.21 0.42
1 5 3 1.85 0.38
2 -5 3 54.35 2.13
-2 5 -3 54.95 2.08
2 5 3 51.24 1.43
-2 5 -3 51.57 1.99
-2 5 -3 56.18 2.07
3 -5 3 9.44 1.3
-3 5 -3 12.13 1.36
3 5 3 10.29 0.9
-3 5 -3 11.71 1.28
4 -5 3 6.6 1.27
-4 5 -3 7.79 1.27
4 -6 -3 0.66 0.77
-4 6 3 -0.25 0.65
3 -6 -3 24.88 1.71
-3 6 3 21.77 1.66
3 6 -3 24.05 1.05
3 6 -3 24.28 0.86
2 -6 -3 102.35 3.19
2 6 -3 100.79 2.44
-2 6 3 102.77 3.16
2 6 -3 105 2
-2 6 3 101.43 3.08
-2 6 3 101.14 3.01
1 -6 -3 1.76 0.52
1 -6 -3 1.25 0.54
-1 6 3 2 0.47
1 6 -3 2.99 0.36
-1 6 3 2.76 0.61
1 6 -3 2.42 0.5
-1 6 3 1.71 0.49
0 -6 -3 70.75 2.26
0 -6 -3 71.44 1.75
0 -6 3 76.31 1.82
0 6 3 74.85 1.97
0 6 3 72.5 2.19
0 6 -3 74.53 2.25
0 6 -3 73.09 1.94
-1 -6 -3 36.47 1.38
1 -6 3 34.95 1.51
-1 6 -3 36.63 1.47
-1 6 -3 36.33 1.61
-1 6 -3 36.22 1.52
1 6 3 35.39 1.06
1 6 3 37.23 1.34
-2 -6 -3 33.55 0.98
2 -6 3 33.03 1.7
-2 6 -3 31.43 1.61
-2 6 -3 33.38 1.68
2 6 3 34.64 1.1
3 -6 3 10.21 1.36
-3 6 -3 9.8 1.23
3 6 3 10.17 0.84
4 -6 3 36.89 2.43
-4 6 -3 36.76 2.25
4 -7 -3 2.65 0.95
-4 7 3 2.08 0.93
3 -7 -3 12.11 1.42
3 7 -3 10.55 0.73
-3 7 3 12.64 1.45
2 -7 -3 1.58 0.7
2 7 -3 2.59 0.51
2 7 -3 1.74 0.27
-2 7 3 2.36 0.69
1 -7 -3 -0.13 0.45
1 -7 -3 -0.35 0.33
1 7 -3 0.01 0.2
1 7 -3 0.18 0.33
-1 7 3 -0.08 0.29
-1 7 3 -0.19 0.33
-1 7 3 -0.27 0.35
0 -7 3 50.03 1.42
0 -7 -3 46.82 1.9
0 -7 -3 49.93 1.38
0 7 3 47.48 1.84
0 7 3 48.11 1.59
0 7 -3 48.96 1.88
0 7 -3 49.02 1.58
1 -7 3 31.42 1.45
-1 -7 -3 33.03 1.4
1 7 3 34.23 1.11
-1 7 -3 35.28 1.53
1 7 3 33.75 1.38
-1 7 -3 33.45 1.48
-1 7 -3 33.9 1.65
2 -7 3 0.38 0.53
-2 -7 -3 1.16 0.34
2 7 3 1.27 0.33
-2 7 -3 1.02 0.56
3 -7 3 -0.01 0.62
-3 7 -3 -0.62 0.49
3 7 3 0.64 0.41
3 -8 -3 0.25 0.67
-3 8 3 0.54 0.62
2 -8 -3 22.5 1.67
-2 8 3 21.46 1.57
2 8 -3 21.92 0.72
2 8 -3 22.53 1.18
1 -8 -3 6.38 0.8
1 -8 -3 7.89 1.12
-1 8 3 5.88 0.77
-1 8 3 9.18 1.07
1 8 -3 6.5 0.85
-1 8 3 6.07 0.97
1 8 -3 6.29 0.53
0 -8 -3 54.64 2.14
0 -8 -3 51.82 1.41
0 8 3 55.05 2.08
0 8 3 55.36 1.79
0 8 -3 55.65 1.78
0 8 -3 54.85 2.1
-1 -8 -3 21.06 1.23
1 -8 3 22.8 1.29
1 8 3 21.46 0.91
-1 8 -3 21.29 1.27
1 8 3 21.15 1.18
-1 8 -3 25.28 1.35
-1 8 -3 20.95 1.4
2 -8 3 -0.33 0.49
-2 -8 -3 0 0.32
-2 8 -3 0.31 0.51
2 8 3 0.76 0.29
3 -8 3 7.76 1.25
-3 8 -3 9.6 1.35
3 -9 -3 1.4 0.85
-3 9 3 1.81 0.8
2 -9 -3 40.07 2.26
-2 9 3 38.43 2.08
2 9 -3 39.69 1.06
2 9 -3 41.6 1.7
1 -9 -3 -0.16 0.35
1 -9 -3 -0.07 0.56
1 9 -3 -0.04 0.33
-1 9 3 0.42 0.46
1 9 -3 0.1 0.26
0 -9 -3 21 1.47
0 9 3 20.01 1.13
0 9 -3 18.81 1.08
0 9 3 19.68 1.31
0 9 -3 17.25 1
0 9 -3 19.25 1.33
1 -9 3 8.77 0.94
-1 -9 -3 8.64 0.97
-1 9 -3 9.93 1.06
1 9 3 7.45 0.65
1 9 3 9.61 1.01
-2 -9 -3 38.19 1.46
2 -9 3 37.81 1.97
2 9 3 36.07 1.43
2 9 3 39.02 1.2
-2 9 -3 36.4 2.02
3 -9 3 0.58 0.73
-3 9 -3 -0.01 0.64
3 -10 -3 33.93 2.3
-3 10 3 33.02 2.17
2 -10 -3 19.36 1.75
2 10 -3 18.69 0.76
-2 10 3 19.45 1.63
2 10 -3 19.4 1.24
1 -10 -3 5.7 0.77
1 -10 -3 6.16 1.05
1 10 -3 7.67 0.67
-1 10 3 7.26 1.06
1 10 -3 7.38 1.03
0 -10 -3 9.64 1.2
0 10 3 9.21 1
0 10 -3 9.04 0.9
0 10 -3 10.27 1.02
1 -10 3 125.95 3.33
-1 -10 -3 126.37 3.51
1 10 3 123.63 3.46
1 10 3 125.06 2.88
-1 10 -3 126.77 3.56
-2 -10 -3 0.34 0.47
2 -10 3 0.97 0.59
2 10 3 0.39 0.37
2 10 3 1.01 0.35
-2 10 -3 0.57 0.62
3 -10 3 23.28 1.82
-3 10 -3 23.48 1.91
3 -11 -3 36.24 2.47
-3 11 3 33.52 2.29
2 -11 -3 0.65 0.71
2 11 -3 -0.26 0.33
-2 11 3 0.12 0.54
1 -11 -3 129.92 4.16
1 -11 -3 120.6 3.15
-1 11 3 123.34 3.66
1 11 -3 126.38 2.96
0 -11 -3 113.38 3.63
0 11 -3 108.71 3.33
0 11 -3 114.61 3.04
0 11 3 114.49 3.15
-1 -11 -3 0.82 0.56
1 11 3 0.66 0.41
-1 11 -3 1.43 0.63
2 -11 3 15.37 1.53
-2 11 -3 20.79 1.92
3 -11 3 40.56 2.35
-3 11 -3 37.24 2.43
-3 12 3 0.34 0.83
2 -12 -3 8.69 1.58
-2 12 3 7.14 1.27
1 -12 -3 23.43 1.93
-1 12 3 26.73 1.72
1 12 -3 24.18 1.17
1 12 -3 26.29 1.27
0 -12 -3 9.03 1.34
0 12 -3 13.69 1.27
0 12 3 11.11 1.18
-1 -12 -3 3.46 0.84
1 12 3 2.05 0.53
-1 12 -3 2.86 0.78
-2 12 -3 0.66 0.63
2 -13 -3 0.8 0.89
-2 13 3 0.43 0.73
1 -13 -3 7.65 1.42
1 13 -3 7.18 0.83
1 13 -3 8.03 1.04
-1 13 3 4.54 0.94
0 -13 -3 0.48 0.72
0 13 -3 1.24 0.6
0 13 3 1.01 0.59
-1 -13 -3 3.59 0.93
-1 13 -3 6.96 1.13
1 13 3 4.82 0.76
-2 13 -3 17.59 1.9
-2 14 3 24.56 2.35
1 -14 -3 36.35 2.49
-1 14 3 38.95 2.2
1 14 -3 34.02 2.25
0 -14 -3 -0.14 0.72
0 14 -3 0.23 0.53
0 14 3 1.43 0.67
-1 -14 -3 7.34 1.23
-1 14 -3 6.19 1.15
1 -15 -3 36.69 2.58
-1 15 3 40.51 2.36
0 -15 -3 24.53 2.07
0 15 -3 23.22 1.61
0 15 3 22.6 1.69
-1 -15 -3 2.66 1
-1 15 -3 1.19 0.72
-3 0 4 56.88 1.76
-3 0 4 57.91 1.8
3 0 -4 59.11 2.92
3 0 -4 56.91 1.91
2 0 -4 86.1 2.33
-2 0 4 89.04 2.19
2 0 -4 85.17 2.33
-2 0 4 86.64 2.16
-1 0 4 35.26 1.16
1 0 -4 36.78 1.22
0 0 -4 168.3 3.21
0 0 4 169.45 3.22
1 0 4 8.61 0.69
-1 0 -4 7.73 0.63
2 0 4 8.65 0.91
-2 0 -4 8.12 0.69
-2 0 -4 7.77 0.59
-2 0 -4 7.31 0.75
3 0 4 93.45 3.01
-3 0 -4 97.9 2.2
-3 0 -4 101.13 2.68
-3 0 -4 97.55 2.51
4 0 4 39.7 2.2
4 -1 -4 -0.28 0.5
-4 1 4 0.23 0.46
-3 -1 4 2.38 0.41
3 -1 -4 2.18 0.58
-3 -1 4 1.74 0.39
3 1 -4 2.74 0.61
-3 1 4 1.9 0.51
-3 1 4 2.27 0.55
3 1 -4 1.34 0.47
-2 -1 4 16.3 0.77
-2 -1 4 14.19 0.76
2 -1 -4 17.12 1.05
2 -1 -4 16.95 1.06
2 1 -4 15.16 0.92
2 1 -4 15.62 0.92
-2 1 4 17.68 0.99
-2 1 4 14.42 0.91
1 -1 -4 0.77 0.33
-1 -1 4 1.15 0.3
1 -1 -4 0.16 0.29
1 1 -4 0.87 0.32
-1 1 4 0.8 0.31
0 -1 -4 97.92 2.15
0 -1 4 100.15 2.18
0 1 4 99.72 2.17
0 1 -4 100.16 2.16
1 -1 4 27.16 1.14
-1 -1 -4 26.63 0.98
1 1 4 26.62 1.03
-1 1 -4 25.84 1.07
-2 -1 -4 -0.18 0.25
2 -1 4 0.33 0.44
-2 -1 -4 0.27 0.24
-2 -1 -4 -0.05 0.25
-2 1 -4 -0.25 0.23
2 1 4 0.22 0.36
-2 1 -4 0.42 0.34
-2 1 -4 0.22 0.34
3 -1 4 0.19 0.55
-3 -1 -4 -0.28 0.32
-3 -1 -4 0.61 0.3
-3 1 -4 0.12 0.45
3 1 4 -0.22 0.45
-3 1 -4 0.26 0.42
-3 1 -4 0.31 0.32
4 -1 4 2.32 0.89
4 1 4 2.05 0.81
4 -2 -4 1.19 0.59
-4 2 4 0.66 0.56
3 -2 -4 26.33 1.46
3 2 -4 25.32 1.34
3 2 -4 24.79 1.14
-3 2 4 25.61 1.39
-3 2 4 27.77 1.44
-2 -2 4 2.59 0.33
2 -2 -4 2.49 0.61
-2 -2 4 1.86 0.3
2 -2 -4 3.37 0.62
-2 2 4 2.51 0.55
2 2 -4 2.39 0.44
-2 2 4 3.35 0.6
1 -2 -4 0.81 0.42
1 -2 -4 0.84 0.38
-1 -2 4 0.59 0.25
1 2 -4 0.71 0.29
-1 2 4 0.7 0.36
0 -2 4 592.8 9.74
0 -2 -4 604.47 9.75
0 -2 -4 599.59 10
0 2 4 600.28 9.74
0 2 -4 613.87 9.75
1 -2 4 10.64 0.82
-1 -2 -4 10.96 0.64
-1 2 -4 10.3 0.78
1 2 4 11.12 0.69
2 -2 4 59.25 2.09
-2 -2 -4 56.32 1.45
-2 -2 -4 59.36 1.54
2 2 4 59.73 1.84
-2 2 -4 59.95 1.83
-2 2 -4 62.53 1.99
-2 2 -4 57.6 1.94
3 -2 4 51.92 2.3
-3 -2 -4 51 1.28
-3 -2 -4 48.47 1.2
-3 2 -4 49.7 1.75
3 2 4 51 2.03
-3 2 -4 53.01 2.01
-3 2 -4 52.04 2.06
4 -2 4 2.89 0.93
-4 2 -4 2.5 0.76
4 2 4 4.19 0.99
4 -3 -4 10.97 1.2
-4 3 4 11.77 1.28
3 -3 -4 13.56 1.22
-3 3 4 15 1.19
3 3 -4 16.19 0.9
3 3 -4 14.43 1.03
-3 3 4 16.9 1.26
2 -3 -4 176.57 4.14
-2 3 4 180.11 4.15
-2 3 4 172.43 3.96
-2 3 4 181.99 4.05
2 3 -4 176.12 3.52
-1 -3 4 0.37 0.21
1 -3 -4 0.25 0.45
1 -3 -4 -0.09 0.33
-1 3 4 0.59 0.35
1 3 -4 0.09 0.24
-1 3 4 0.3 0.3
0 -3 4 15.86 0.8
0 -3 -4 14.37 0.9
0 -3 -4 14.06 0.79
0 3 4 13.3 0.74
0 3 -4 14.36 0.76
1 -3 4 115.03 2.81
-1 -3 -4 113.45 2.24
-1 -3 -4 115.56 2.51
-1 3 -4 111.17 2.74
-1 3 -4 111.05 2.71
1 3 4 113.56 2.41
-1 3 -4 113.36 2.63
-2 -3 -4 126.67 2.35
2 -3 4 122.19 3.31
-2 -3 -4 124.32 2.19
2 3 4 122.33 2.86
-2 3 -4 123.7 3.2
-2 3 -4 119.52 3.04
-2 3 -4 123.87 3.18
3 -3 4 3.33 0.86
3 3 4 4.81 0.77
-3 3 -4 1.32 0.93
-3 3 -4 2.37 0.7
-3 3 -4 2.11 0.58
4 -3 4 9.39 1.41
4 3 4 10.43 1.3
-4 3 -4 11.45 1.32
4 -4 -4 21.02 1.57
-4 4 4 20.46 1.62
3 -4 -4 144.02 3.93
-3 4 4 144.8 3.86
3 4 -4 144.08 3.06
3 4 -4 140.7 3.32
-3 4 4 142.51 3.89
2 -4 -4 8.09 1
2 -4 -4 6.02 0.81
-2 4 4 7.43 0.89
2 4 -4 7.87 0.57
-2 4 4 6.63 0.84
-2 4 4 9.14 1.04
1 -4 -4 22.69 1.3
-1 -4 4 22.49 0.6
1 -4 -4 24.33 1.18
-1 4 4 21.96 1.21
-1 4 4 21.31 1.14
1 4 -4 23.74 0.87
0 -4 -4 137.08 3.18
0 -4 4 137.31 2.87
0 -4 -4 141.68 2.9
0 4 4 133.13 2.9
0 4 4 142.49 3.2
0 4 -4 133.59 2.9
-1 -4 -4 55.69 1.61
-1 -4 -4 53.16 1.21
1 -4 4 57.93 1.89
-1 4 -4 55.58 1.71
-1 4 -4 52.26 1.83
1 4 4 54.11 1.46
-1 4 -4 56.15 1.82
-2 -4 -4 18.26 0.68
2 -4 4 14.72 1.19
-2 4 -4 17.61 1.15
-2 4 -4 15.54 1.06
2 4 4 17.04 0.93
-2 4 -4 17.41 1.16
3 -4 4 7.11 1.14
3 4 4 6.59 0.86
-3 4 -4 7.18 1.08
-3 4 -4 7.32 0.96
4 -4 4 -0.77 0.65
-4 4 -4 0.15 0.64
4 -5 -4 36.93 2.06
-4 5 4 37.98 2.14
3 -5 -4 81.61 2.95
-3 5 4 85.06 2.93
3 5 -4 80.44 2.1
3 5 -4 86.38 2.31
2 -5 -4 23.6 1.4
2 -5 -4 21.78 1.49
-2 5 4 24.02 1.35
-2 5 4 22.47 1.38
2 5 -4 24.75 0.89
-2 5 4 24.36 1.44
1 -5 -4 278.96 5.88
1 -5 -4 286.75 5.59
1 5 -4 287.09 4.97
-1 5 4 286.51 5.64
-1 5 4 287.71 5.85
0 -5 4 45.52 1.43
0 -5 -4 47.66 1.43
0 -5 -4 45.19 1.73
0 5 4 47.72 1.5
0 5 -4 45.62 1.48
0 5 4 48.37 1.7
-1 -5 -4 32.76 1.28
1 -5 4 31.17 1.41
-1 5 -4 30.77 1.38
-1 5 -4 29.12 1.29
1 5 4 30.21 1.05
-1 5 -4 30.7 1.45
2 -5 4 11.91 1.21
-2 -5 -4 13.36 0.64
-2 5 -4 14.01 1.12
-2 5 -4 12.13 1.07
-2 5 -4 13.3 1.06
2 5 4 13.13 0.8
3 -5 4 18.75 1.61
-3 5 -4 20.13 1.39
3 5 4 20.69 1.22
-3 5 -4 21.45 1.61
4 -5 4 39.71 2.51
-4 5 -4 38.07 2.27
4 -6 -4 37.73 2.19
-4 6 4 40.18 2.29
3 -6 -4 13.1 1.47
3 6 -4 13.37 0.79
-3 6 4 18.22 1.72
3 6 -4 14.12 0.89
2 -6 -4 2.29 0.71
2 6 -4 1.98 0.33
-2 6 4 2.99 0.71
-2 6 4 2.29 0.66
-2 6 4 1.23 0.82
1 -6 -4 22.78 1.23
1 -6 -4 23.68 1.47
-1 6 4 26.92 1.36
-1 6 4 23.94 1.37
1 6 -4 25.62 0.94
0 -6 -4 19.23 0.9
0 -6 4 17.14 0.89
0 -6 -4 19.79 1.24
0 6 4 18.9 1
0 6 4 19.01 1.13
0 6 -4 20.27 1.16
0 6 -4 18.07 0.96
-1 -6 -4 0.19 0.37
1 -6 4 -0.39 0.31
-1 6 -4 -0.15 0.31
1 6 4 0.02 0.25
-1 6 -4 -0.07 0.34
-1 6 -4 0.36 0.33
1 6 4 -0.02 0.24
-2 -6 -4 7.45 0.58
2 -6 4 8.21 1.11
-2 6 -4 7.97 1.05
-2 6 -4 7.18 1.04
2 6 4 7.51 0.65
3 -6 4 20.96 1.68
3 6 4 18.25 1.12
-3 6 -4 18.51 1.55
4 -7 -4 0.11 0.73
-4 7 4 1.25 0.84
3 -7 -4 19.74 1.67
3 7 -4 21.44 1
-3 7 4 20.15 1.66
2 -7 -4 32.69 1.94
2 7 -4 34.67 1.43
2 7 -4 33.41 1.05
-2 7 4 32.31 1.76
1 -7 -4 28.96 1.41
1 -7 -4 30.88 1.73
1 7 -4 30.53 1.45
-1 7 4 31.4 1.51
1 7 -4 32.49 1.11
0 -7 4 38.33 1.32
0 -7 -4 41.39 1.82
0 -7 -4 37.08 1.27
0 7 -4 43.01 1.78
0 7 4 37.66 1.66
0 7 -4 38.02 1.44
0 7 4 38.61 1.46
1 -7 4 120.61 3.16
-1 -7 -4 113.16 2.98
1 7 4 114.87 2.93
-1 7 -4 127.76 3.24
1 7 4 113.63 2.58
-1 7 -4 113.13 3.33
-1 7 -4 123.49 3.14
-2 -7 -4 2.77 0.48
2 -7 4 3 0.78
2 7 4 2.69 0.46
-2 7 -4 1.66 0.6
3 -7 4 29.2 1.96
-3 7 -4 31.72 1.99
3 7 4 31.61 1.4
3 -8 -4 1.69 0.83
-3 8 4 2.36 0.89
2 -8 -4 21.67 1.73
-2 8 4 18.41 1.47
2 8 -4 19.88 1.17
2 8 -4 21.74 0.84
1 -8 -4 1.23 0.48
1 -8 -4 1.44 0.69
-1 8 4 0.71 0.49
-1 8 4 0.72 0.47
-1 8 4 0.26 0.4
1 8 -4 0.9 0.33
1 8 -4 0.76 0.43
0 -8 4 0.3 0.29
0 -8 -4 0.68 0.34
0 -8 -4 0.72 0.54
0 8 -4 0.63 0.4
0 8 4 0.38 0.35
0 8 -4 0.56 0.36
0 8 4 0.28 0.37
-1 -8 -4 90.3 2.68
1 -8 4 90.16 2.7
1 8 4 93.16 2.26
-1 8 -4 93.98 2.75
1 8 4 92.72 2.64
-2 -8 -4 13.65 0.87
2 -8 4 7.53 1.08
-2 8 -4 10.78 1.27
2 8 4 10.83 0.75
3 -8 4 9.16 1.32
-3 8 -4 11.33 1.52
3 -9 -4 1.97 0.95
-3 9 4 4.28 1.04
2 -9 -4 51.88 2.56
2 9 -4 46.16 1.32
-2 9 4 44.27 2.21
2 9 -4 44.8 1.86
1 -9 -4 39.18 2.1
1 -9 -4 37.62 1.64
1 9 -4 37.1 1.34
-1 9 4 38.34 1.84
1 9 -4 36.66 1.76
0 -9 -4 8.4 0.64
0 -9 -4 9.92 1.28
0 9 4 10.61 1.02
0 9 -4 9.81 1
0 9 4 6.71 0.93
-1 -9 -4 79.35 2.59
1 -9 4 79.94 2.54
1 9 4 76.29 2.49
-1 9 -4 76.06 2.56
1 9 4 76.98 2.1
-2 -9 -4 62.85 1.96
2 -9 4 65.36 2.62
-2 9 -4 59.7 2.55
2 9 4 62.24 1.74
3 -9 4 -0.79 0.6
-3 9 -4 0.57 0.69
3 -10 -4 14.03 1.73
-3 10 4 19.51 1.98
2 -10 -4 3.12 0.98
2 10 -4 2.54 0.62
-2 10 4 2.77 0.85
2 10 -4 2.27 0.42
1 -10 -4 24.73 1.39
1 -10 -4 27.61 1.91
1 10 -4 27.01 1.2
-1 10 4 26.25 1.61
0 -10 -4 8.86 1.25
0 10 4 9.65 1.02
0 10 -4 9.04 0.99
0 10 -4 7.87 0.87
-1 -10 -4 2.94 0.75
1 -10 4 3.94 0.71
1 10 4 3.96 0.63
-1 10 -4 3.12 0.73
1 10 4 2.77 0.65
-2 -10 -4 28.61 1.42
2 -10 4 30.93 1.85
-2 10 -4 28.3 1.84
2 10 4 28.38 1.18
3 -10 4 34.15 2.19
-3 10 -4 33.88 2.26
3 -11 -4 1.72 0.94
-3 11 4 2.75 0.98
2 -11 -4 24.58 2.02
-2 11 4 22.63 1.79
1 -11 -4 0.43 0.46
1 -11 -4 1.24 0.76
1 11 -4 0.05 0.34
-1 11 4 0.69 0.59
0 -11 -4 8.85 1.21
0 11 4 8.89 1.04
0 11 -4 7.88 0.91
1 -11 4 -0.48 0.4
-1 -11 -4 -0.2 0.53
-1 11 -4 -0.53 0.38
1 11 4 0.43 0.43
2 -11 4 3.46 0.84
-2 -11 -4 1.69 0.66
-2 11 -4 3.35 0.9
3 -11 4 5.34 1.17
-3 11 -4 3.34 1.12
2 -12 -4 23.95 2.1
-2 12 4 26.37 1.96
1 -12 -4 6.42 1.18
1 -12 -4 5.37 0.79
-1 12 4 7.41 1.17
1 12 -4 7.37 0.85
0 -12 -4 115.06 3.88
0 12 -4 116.9 3.26
0 12 4 118.29 3.4
-1 -12 -4 1.9 0.77
-1 12 -4 2.05 0.7
1 12 4 1.43 0.55
2 -12 4 9.62 1.25
-2 -12 -4 8.03 1.15
-2 12 -4 9.47 1.43
2 -13 -4 10.27 1.79
-2 13 4 8.11 1.33
1 -13 -4 9.7 1.48
-1 13 4 7.33 1.18
1 13 -4 9.71 0.94
0 -13 -4 0.54 0.72
0 13 -4 0.44 0.48
0 13 4 1.53 0.64
-1 -13 -4 0.19 0.67
1 13 4 -0.13 0.46
-1 13 -4 0.78 0.63
-2 13 -4 20.76 2.09
2 -14 -4 11.15 1.64
-2 14 4 12.45 1.75
1 -14 -4 11.76 1.74
-1 14 4 9.51 1.38
1 14 -4 10.69 1.54
0 -14 -4 18.64 1.97
0 14 4 22.66 1.56
0 14 -4 20.77 1.49
-1 -14 -4 20.44 1.77
-1 14 -4 21.18 1.7
1 -15 -4 2.48 1.04
-1 15 4 0.13 0.7
0 -15 -4 0.06 0.78
0 15 4 0.17 0.59
0 15 -4 0.1 0.54
-1 15 -4 1.36 0.83
3 0 -5 0.03 0.42
-3 0 5 -0.24 0.32
-3 0 5 0.05 0.37
-2 0 5 -0.08 0.29
-2 0 5 0.08 0.29
2 0 -5 -0.27 0.34
2 0 -5 0.12 0.36
1 0 -5 0.01 0.29
-1 0 5 -0.17 0.25
0 0 5 0.03 0.25
0 0 -5 0.08 0.29
1 0 5 0.02 0.3
-1 0 -5 -0.06 0.29
-2 0 -5 -0.06 0.29
2 0 5 0.2 0.41
-2 0 -5 0.24 0.32
-3 0 -5 -0.13 0.34
-3 0 -5 0.03 0.27
-3 0 -5 0.31 0.44
3 0 5 0.04 0.52
4 0 5 0.5 0.77
4 -1 -5 1.51 0.65
-4 1 5 0.84 0.47
-3 -1 5 3.13 0.49
3 -1 -5 2.42 0.66
-3 -1 5 2.66 0.47
3 1 -5 3.02 0.63
-3 1 5 3.02 0.6
-3 1 5 3.12 0.63
3 1 -5 2.72 0.67
2 -1 -5 11.2 0.97
-2 -1 5 9.87 0.7
-2 -1 5 9.78 0.7
2 -1 -5 11.46 0.93
2 1 -5 11.49 0.88
-2 1 5 10.75 0.85
2 1 -5 11.79 0.84
-2 1 5 9.67 0.8
1 -1 -5 15.16 0.92
-1 -1 5 14.49 0.79
1 -1 -5 13.52 0.97
1 1 -5 14.96 0.81
-1 1 5 13.84 0.84
0 -1 -5 156.5 3.17
0 1 5 152.99 3.16
0 1 -5 153.53 3.17
1 -1 5 235.27 4.65
-1 -1 -5 232.41 4.36
1 1 5 233.97 4.49
-1 1 -5 232.42 4.52
-2 -1 -5 6.33 0.68
2 -1 5 6.19 0.86
-2 -1 -5 6.01 0.62
-2 1 -5 5.9 0.71
-2 1 -5 6.73 0.82
2 1 5 6.46 0.81
-2 1 -5 6.5 0.68
-3 -1 -5 14.13 0.98
-3 -1 -5 14.34 0.87
3 -1 5 16.21 1.55
-3 -1 -5 14.79 0.68
3 1 5 13.43 1.33
-3 1 -5 15.65 1.22
-3 1 -5 11.89 0.84
-3 1 -5 14.89 1.08
4 -1 5 24.66 1.92
4 1 5 21.45 1.76
4 -2 -5 7.01 1.02
-4 2 5 5.17 0.84
-3 -2 5 60.01 1.31
3 -2 -5 57.34 2.23
-3 -2 5 57.12 1.31
3 2 -5 58.28 1.95
-3 2 5 61.5 2.17
3 2 -5 55.85 2.05
-3 2 5 54.22 2.05
2 -2 -5 0.47 0.48
-2 -2 5 0.73 0.28
-2 -2 5 0.37 0.26
2 -2 -5 1.05 0.46
-2 2 5 0.92 0.44
-2 2 5 0.52 0.41
2 2 -5 0.55 0.35
-1 -2 5 6.06 0.56
1 -2 -5 4.57 0.63
1 -2 -5 4.1 0.63
-1 2 5 3.84 0.53
1 2 -5 5.04 0.55
0 -2 5 6.2 0.68
0 -2 -5 5.16 0.61
0 2 -5 5.65 0.61
0 2 5 5.55 0.6
1 -2 5 1.61 0.46
-1 -2 -5 0.92 0.34
-1 2 -5 0.43 0.33
1 2 5 0.95 0.37
-2 -2 -5 33.24 1.19
2 -2 5 32.61 1.59
-2 -2 -5 32.89 1.13
-2 2 -5 32.15 1.49
2 2 5 33.34 1.45
-2 2 -5 28.63 1.31
-2 2 -5 35.11 1.51
-3 -2 -5 11.29 0.71
3 -2 5 13.79 1.49
-3 -2 -5 10.79 0.62
-3 2 -5 9.23 1.01
-3 2 -5 10.52 0.88
3 2 5 10.65 1.2
-3 2 -5 10.84 1.19
4 -2 5 1.48 0.88
4 2 5 1.87 0.84
-4 2 -5 1.79 0.75
4 -3 -5 7.06 1.1
-4 3 5 3.44 0.83
3 -3 -5 135.36 3.74
-3 3 5 136.14 3.64
-3 3 5 137.37 3.62
3 3 -5 132.76 3.16
3 3 -5 124.23 3.25
-2 -3 5 208.84 3.49
2 -3 -5 204.56 4.76
-2 -3 5 208.25 3.5
-2 3 5 210.23 4.56
2 3 -5 212.93 4.14
-2 3 5 211.18 4.59
1 -3 -5 27.8 1.42
1 -3 -5 26.45 1.25
-1 -3 5 27.24 0.96
-1 3 5 28.12 1.24
1 3 -5 26.64 1.02
0 -3 5 16.22 0.9
0 -3 -5 15.74 0.88
0 -3 -5 16.48 1.02
0 3 -5 17.03 0.89
0 3 5 15.92 0.87
-1 -3 -5 46.99 1.54
1 -3 5 47.6 1.73
-1 -3 -5 47.65 1.36
-1 3 -5 44.3 1.63
1 3 5 47.52 1.46
-2 -3 -5 9.35 0.56
-2 -3 -5 10.71 0.6
-2 -3 -5 9.98 0.65
2 -3 5 10.55 1.14
-2 3 -5 9.07 0.85
-2 3 -5 9.68 1.02
-2 3 -5 10.09 1.02
2 3 5 9.34 0.84
3 -3 5 11.58 1.4
-3 3 -5 9.91 0.92
-3 3 -5 10.88 1.24
3 3 5 9.16 1.08
4 -3 5 7.5 1.34
4 3 5 8.52 1.24
-4 3 -5 7.08 1.16
4 -4 -5 11.38 1.39
-4 4 5 11.07 1.32
3 -4 -5 -0.41 0.51
3 4 -5 0.32 0.38
-3 4 5 0 0.52
3 4 -5 -0.1 0.37
2 -4 -5 5.06 0.74
2 -4 -5 6.82 1.03
-2 4 5 6.12 0.85
-2 4 5 5.56 0.79
2 4 -5 7.22 0.63
-2 4 5 4.67 0.72
1 -4 -5 239.72 4.95
-1 -4 5 240.19 4.21
1 -4 -5 243.61 5.25
-1 4 5 243.68 4.93
-1 4 5 244.86 5.18
1 4 -5 245.3 4.47
0 -4 -5 3.85 0.56
0 -4 5 2.84 0.52
0 -4 -5 3.02 0.63
0 4 -5 3.16 0.52
0 4 5 3.22 0.52
-1 -4 -5 4.79 0.51
1 -4 5 5.04 0.73
-1 -4 -5 5.36 0.67
-1 4 -5 3.77 0.59
-1 4 -5 4.27 0.66
1 4 5 4.73 0.58
-2 -4 -5 57.31 1.51
2 -4 5 55.04 2.2
-2 4 -5 54.29 2.08
-2 4 -5 57.35 2.07
-2 4 -5 53.65 2.09
2 4 5 55.39 1.79
3 -4 5 11.2 1.43
3 4 5 10.35 1.11
-3 4 -5 10.79 1.19
-3 4 -5 10.4 1.22
4 -4 5 3.18 1.07
-4 4 -5 4.16 0.99
4 -5 -5 0.82 0.74
-4 5 5 -0.21 0.63
3 -5 -5 21.34 1.63
3 5 -5 20.3 1.13
-3 5 5 22.13 1.54
2 -5 -5 -0.28 0.47
2 -5 -5 0.28 0.44
2 5 -5 0.17 0.24
-2 5 5 0.53 0.46
-2 5 5 -0.04 0.33
-2 5 5 1.01 0.54
1 -5 -5 6.63 0.96
-1 -5 5 6.32 0.42
1 -5 -5 4.53 0.7
1 5 -5 7.25 0.58
-1 5 5 6.76 0.8
-1 5 5 5.55 0.78
0 -5 5 4.95 0.62
0 -5 -5 5.07 0.76
0 -5 -5 5.57 0.65
0 5 5 5.04 0.71
0 5 5 5.29 0.64
0 5 -5 5.38 0.66
1 -5 5 5.5 0.77
-1 -5 -5 4.77 0.68
-1 -5 -5 4.41 0.41
1 5 5 5.68 0.63
-1 5 -5 4.56 0.72
-1 5 -5 4.32 0.65
-1 5 -5 5.25 0.76
2 -5 5 20.07 1.43
-2 -5 -5 20.06 0.92
2 5 5 20.67 1.05
-2 5 -5 23.49 1.41
-2 5 -5 20.95 1.39
3 -5 5 13.05 1.48
3 5 5 12.92 1.09
-3 5 -5 13.28 1.49
4 -6 -5 59.5 2.77
-4 6 5 52.02 2.6
3 -6 -5 16.65 1.69
-3 6 5 15.51 1.55
3 6 -5 16.75 0.99
2 -6 -5 -0.3 0.54
-2 6 5 -0.2 0.45
2 6 -5 0.08 0.26
1 -6 -5 100.64 3.16
1 -6 -5 102.79 2.84
1 6 -5 106.03 2.4
-1 6 5 106.89 3.11
-1 6 5 101.4 2.86
0 -6 -5 131.69 2.9
0 -6 5 131.33 2.95
0 -6 -5 126.25 3.41
0 6 5 127.1 3.32
0 6 5 129.16 3.04
0 6 -5 127.52 3.03
1 -6 5 7.37 0.89
-1 -6 -5 7.16 0.84
-1 6 -5 9.77 0.98
-1 6 -5 7.36 1.01
1 6 5 7.22 0.65
-1 6 -5 7.66 0.93
-2 -6 -5 63.6 1.76
2 -6 5 65.31 2.51
2 6 5 64.31 1.9
-2 6 -5 66.24 2.45
3 -6 5 3.02 0.89
3 6 5 4.07 0.73
-3 6 -5 3.19 0.85
-4 7 5 2 0.87
3 -7 -5 0.47 0.72
3 7 -5 0.16 0.34
-3 7 5 0.41 0.66
2 -7 -5 2.76 0.83
2 7 -5 3.33 0.47
-2 7 5 2.38 0.72
1 -7 -5 5.97 1.03
1 -7 -5 6.06 0.84
1 7 -5 6.21 0.65
-1 7 5 5.85 0.9
1 7 -5 7.02 0.9
-1 7 5 6.7 0.93
0 -7 -5 21.93 1.44
0 -7 5 20.35 1.03
0 -7 -5 21.02 1.01
0 7 5 20.72 1.27
0 7 -5 18.59 1.07
0 7 5 20.55 1.12
0 7 -5 20.18 1.29
-1 -7 -5 5.13 0.79
1 -7 5 7.3 0.88
-1 7 -5 8.62 1.01
1 7 5 7.85 0.74
-1 7 -5 8.66 0.94
-1 7 -5 6.73 0.93
2 -7 5 2.28 0.7
-2 -7 -5 1.93 0.48
2 7 5 3.45 0.54
-2 7 -5 2.33 0.71
3 -7 5 17.56 1.82
3 7 5 16.35 1.18
-3 7 -5 17.51 1.54
3 -8 -5 2.46 0.92
-3 8 5 3.39 0.97
2 -8 -5 0.98 0.73
-2 8 5 -0.09 0.55
2 8 -5 -0.14 0.36
2 8 -5 0.4 0.29
1 -8 -5 28.58 1.82
1 -8 -5 29.08 1.48
1 8 -5 29.02 1.19
-1 8 5 27.66 1.54
1 8 -5 28.17 1.52
0 -8 -5 50.23 1.57
0 -8 5 51.77 1.65
0 -8 -5 49.5 2.17
0 8 5 49.44 2.05
0 8 -5 49.09 1.82
0 8 -5 49.46 2.09
0 8 5 49.07 1.81
1 -8 5 9.31 1.1
-1 -8 -5 8.82 1.04
1 8 5 7.41 0.87
1 8 5 8.36 0.82
-1 8 -5 9.14 1.05
2 -8 5 109.31 3.47
-2 -8 -5 106.89 2.68
-2 8 -5 108.51 3.47
2 8 5 108 2.62
3 -8 5 9.27 1.35
-3 8 -5 11.59 1.49
3 -9 -5 0.25 0.8
-3 9 5 -0.12 0.73
2 -9 -5 69.67 3.05
2 9 -5 60.95 1.72
2 9 -5 59.39 2.25
-2 9 5 64.37 2.7
1 -9 -5 1.08 0.76
1 -9 -5 2.04 0.62
1 9 -5 1.31 0.42
1 9 -5 1.32 0.56
-1 9 5 2.97 0.74
0 -9 -5 23.08 1.61
0 -9 -5 23.12 1.07
0 -9 5 26.54 1.14
0 9 5 22.21 1.64
0 9 5 23.57 1.33
0 9 -5 24.21 1.3
-1 -9 -5 12.21 1.28
1 -9 5 10.36 1.12
1 9 5 11.35 1.03
-1 9 -5 12.76 1.13
1 9 5 13.28 0.94
-2 -9 -5 77.5 2.28
2 -9 5 73.13 2.86
2 9 5 75.11 2.09
-2 9 -5 73.96 2.88
3 -9 5 0.07 0.74
-3 9 -5 -0.23 0.6
3 -10 -5 9.59 1.61
-3 10 5 10.28 1.53
2 -10 -5 -0.7 0.62
2 10 -5 -0.1 0.29
-2 10 5 0.24 0.63
1 -10 -5 65.15 2.28
1 -10 -5 63.1 2.87
1 10 -5 64.75 2.01
-1 10 5 63.31 2.47
0 -10 -5 30.18 1.9
0 -10 -5 26.99 1.08
0 10 5 27.58 1.49
-1 -10 -5 6.77 1.04
1 -10 5 7.34 0.97
-1 10 -5 8.43 1.12
1 10 5 8.46 0.9
1 10 5 8.22 1.03
-2 -10 -5 1.47 0.54
2 -10 5 1.55 0.7
2 10 5 1.63 0.49
-2 10 -5 2.66 0.81
3 -10 5 0.36 0.79
-3 10 -5 -0.34 0.61
3 -11 -5 12.52 1.75
-3 11 5 11.91 1.6
2 -11 -5 3.1 1.09
-2 11 5 1.83 0.82
1 -11 -5 -0.2 0.67
1 -11 -5 -0.13 0.43
-1 11 5 0.33 0.52
1 11 -5 -0.22 0.32
0 -11 -5 56.71 2.62
0 11 -5 59.2 2.09
0 11 5 54.67 2.18
1 -11 5 87.32 2.8
-1 -11 -5 93.93 3.14
-1 11 -5 89.07 3.05
1 11 5 86.62 2.56
2 -11 5 9.68 1.28
-2 -11 -5 11.05 1.14
-2 11 -5 11.58 1.51
2 -12 -5 1.9 0.98
-2 12 5 1.28 0.74
1 -12 -5 12.75 1.74
1 -12 -5 7.25 0.88
-1 12 5 11.56 1.33
0 -12 -5 6.74 1.26
0 12 -5 5.72 0.86
0 12 5 5.52 0.92
1 -12 5 7.43 1
-1 -12 -5 6.03 1.05
-1 12 -5 6.65 1.07
1 12 5 6.5 0.86
2 -12 5 17.64 1.55
-2 12 -5 15.63 1.7
2 -13 -5 72.02 3.56
-2 13 5 77.72 3.35
1 -13 -5 45.28 2.7
-1 13 5 44.8 2.33
0 -13 -5 3.62 0.98
0 13 5 3.22 0.82
0 13 -5 4.88 0.86
-1 -13 -5 22.36 1.76
1 13 5 21 1.35
-1 13 -5 19.5 1.59
2 -13 5 0.8 0.64
-2 13 -5 1.75 0.83
1 -14 -5 8.23 1.51
-1 14 5 7.88 1.28
1 14 -5 6.98 1.3
0 -14 -5 8.57 1.36
0 14 5 10.03 1.3
0 14 -5 12.64 1.4
-1 -14 -5 0.89 0.73
-1 14 -5 -0.21 0.55
-1 15 5 0.96 0.78
0 -15 -5 4.3 1.14
0 15 5 5.88 1.05
0 15 -5 9.89 1.33
4 0 -6 38.5 2.01
-3 0 6 9.68 0.84
3 0 -6 8.63 1.03
-3 0 6 7.86 0.84
-2 0 6 92.6 2.4
2 0 -6 93.29 2.62
2 0 -6 96.01 2.77
-2 0 6 94.39 2.45
-1 0 6 122.18 2.79
1 0 -6 119.98 2.84
0 0 -6 5.6 0.64
0 0 6 7.17 0.74
-1 0 -6 178.81 3.68
1 0 6 170.01 3.78
-2 0 -6 20.85 1.15
-2 0 -6 19.26 1.07
2 0 6 19.2 1.27
3 0 6 11.54 1.32
-3 0 -6 12.14 0.95
-3 0 -6 13.18 1.11
4 0 6 37.99 2.34
4 -1 -6 1.95 0.7
-4 1 6 3.7 0.66
3 -1 -6 0.63 0.58
-3 -1 6 1.44 0.4
-3 -1 6 1.13 0.4
-3 1 6 1.36 0.5
-3 1 6 0.69 0.49
3 1 -6 1.66 0.58
-2 -1 6 14.48 0.86
2 -1 -6 11.21 1.05
-2 -1 6 13.88 0.84
2 -1 -6 13.92 1.06
-2 1 6 13.81 0.94
2 1 -6 15.32 0.97
-2 1 6 14.07 0.97
1 -1 -6 24.42 1.19
-1 -1 6 23.25 1.04
1 1 -6 25.27 1.1
-1 1 6 23.51 1.13
0 -1 6 87.51 2.24
0 -1 -6 90.97 2.24
0 1 -6 85.34 2.2
0 1 6 88.03 2.25
1 -1 6 91.6 2.53
-1 -1 -6 93.46 2.33
1 1 6 95.57 2.45
-1 1 -6 93.04 2.42
-2 -1 -6 3.11 0.52
-2 -1 -6 4.27 0.64
2 -1 6 4.57 0.81
-2 1 -6 4.18 0.67
-2 1 -6 3.01 0.59
2 1 6 4.24 0.75
-3 -1 -6 71.59 2.06
-3 -1 -6 78.3 2.25
3 -1 6 71.48 2.76
-3 1 -6 69.39 2.3
3 1 6 79.28 2.8
-3 1 -6 73.64 2.38
-3 1 -6 69.86 2.45
4 -1 6 78.77 3.3
4 1 6 82.25 3.26
4 -2 -6 8.93 1.21
-4 2 6 8.49 1.03
3 -2 -6 -0.81 0.51
-3 -2 6 0.09 0.26
-3 -2 6 0.36 0.26
-3 2 6 0.55 0.49
3 2 -6 0.42 0.46
-3 2 6 0.66 0.49
2 -2 -6 71.39 2.43
-2 -2 6 84.37 2
-2 -2 6 82.61 2.03
2 -2 -6 82.83 2.68
-2 2 6 83.52 2.46
2 2 -6 83.72 2.31
-2 2 6 81.84 2.41
1 -2 -6 2.09 0.61
-1 -2 6 1.67 0.4
1 -2 -6 1.49 0.45
-1 2 6 1.35 0.43
1 2 -6 1.38 0.37
0 -2 6 94.24 2.42
0 -2 -6 102.07 2.45
0 2 6 99 2.44
0 2 -6 95.77 2.42
-1 -2 -6 52.61 1.58
1 -2 6 52.1 1.85
1 2 6 49.54 1.65
-1 2 -6 53.32 1.77
-2 -2 -6 54.89 1.69
2 -2 6 52.86 2.15
-2 -2 -6 55.33 1.64
-2 2 -6 55.79 1.98
-2 2 -6 54.3 1.89
-2 2 -6 56 2
2 2 6 57.69 2.01
3 -2 6 5.76 1.06
-3 -2 -6 5.36 0.63
-3 2 -6 4.23 0.84
3 2 6 5.78 0.96
-3 2 -6 5.38 0.78
4 -2 6 14.97 1.8
4 2 6 15.49 1.69
-4 2 -6 14.57 1.83
4 -3 -6 2.76 0.87
-4 3 6 2.1 0.68
3 -3 -6 11.08 1.31
3 3 -6 12.12 1.02
-3 3 6 9.3 1.08
3 3 -6 13.56 1.08
2 -3 -6 77.44 2.65
2 -3 -6 72.05 2.47
-2 -3 6 76.36 1.73
-2 -3 6 74.6 1.73
-2 3 6 75.37 2.38
2 3 -6 73.73 2.1
-2 3 6 79.1 2.47
-1 -3 6 10.51 0.69
1 -3 -6 7.99 0.82
1 -3 -6 11.59 1.06
1 3 -6 10.02 0.72
-1 3 6 10.8 0.84
0 -3 6 69.6 1.96
0 -3 -6 68.62 1.94
0 -3 -6 62.47 2.14
0 3 6 68.97 1.96
0 3 -6 68.27 1.96
1 -3 6 58.6 2.01
-1 -3 -6 55.72 1.64
-1 -3 -6 57.37 1.84
-1 3 -6 58.38 1.93
1 3 6 52.36 1.72
-2 -3 -6 7 0.7
-2 -3 -6 7.07 0.59
2 -3 6 8.44 1.11
-2 -3 -6 7.07 0.63
-2 3 -6 6.05 0.81
-2 3 -6 8.53 1.01
2 3 6 7.57 0.87
-2 3 -6 7.56 0.89
3 -3 6 3.86 0.94
-3 3 -6 2.61 0.74
3 3 6 5.3 0.89
-3 3 -6 4.52 0.79
4 -4 -6 0.07 0.65
-4 4 6 0.62 0.6
3 -4 -6 12.05 1.42
3 4 -6 13.46 1.04
3 4 -6 13.6 1.07
-3 4 6 15.82 1.48
2 -4 -6 43.28 2.02
2 -4 -6 41.07 2
2 4 -6 40.4 1.45
-2 4 6 41.61 1.76
-2 4 6 43.15 1.84
-1 -4 6 32.71 1.11
1 -4 -6 29.56 1.59
1 -4 -6 31.11 1.46
1 4 -6 29.75 1.18
-1 4 6 31.06 1.43
0 -4 -6 20.53 1.09
0 -4 -6 21.69 1.27
0 -4 6 21.15 1.08
0 4 6 20.01 1.05
0 4 -6 21.98 1.1
-1 -4 -6 74.7 1.89
-1 -4 -6 75.88 2.22
1 -4 6 72.86 2.34
1 4 6 72.95 2.05
-1 4 -6 72.63 2.29
-2 -4 -6 -0.07 0.19
-2 -4 -6 -0.18 0.28
-2 -4 -6 0 0.21
2 -4 6 -0.4 0.43
-2 4 -6 0.02 0.39
-2 4 -6 0.04 0.38
2 4 6 -0.23 0.37
3 -4 6 3.67 0.92
-3 4 -6 2.71 0.68
3 4 6 4.72 0.87
-3 4 -6 3.85 0.87
4 -5 -6 77.27 3.11
-4 5 6 77.78 3.04
3 -5 -6 76.67 3.01
3 5 -6 74.5 2.28
-3 5 6 71.08 2.74
2 -5 -6 0.21 0.55
-2 5 6 0.73 0.46
-2 5 6 1.04 0.51
2 5 -6 0.08 0.28
1 -5 -6 23.99 1.31
-1 -5 6 23.98 0.9
1 -5 -6 22.32 1.48
1 5 -6 24.88 1.07
-1 5 6 24.17 1.32
-1 5 6 22.75 1.37
0 -5 -6 111.67 3.14
0 -5 6 111.42 2.76
0 -5 -6 115.41 2.78
0 5 6 115.87 2.82
0 5 -6 111.78 2.81
-1 -5 -6 50.17 1.41
-1 -5 -6 49.69 1.82
1 -5 6 48.37 1.88
-1 5 -6 46.55 1.92
1 5 6 49.83 1.61
-1 5 -6 50.38 1.89
2 -5 6 0.55 0.53
-2 -5 -6 -0.17 0.32
2 5 6 0.54 0.4
-2 5 -6 -0.66 0.36
-2 5 -6 0.51 0.48
3 -5 6 40.98 2.28
-3 5 -6 43.65 2.21
3 5 6 42.47 1.89
4 -6 -6 0.49 0.8
-4 6 6 0.9 0.76
3 -6 -6 1.94 0.79
3 6 -6 0.66 0.39
-3 6 6 0.91 0.69
2 -6 -6 -0.75 0.51
2 6 -6 0.07 0.29
-2 6 6 0.3 0.44
-1 -6 6 1.61 0.31
1 -6 -6 1.33 0.51
1 -6 -6 1.35 0.68
1 6 -6 1.83 0.42
-1 6 6 1.08 0.48
-1 6 6 1.4 0.54
0 -6 -6 1.51 0.58
0 -6 6 0.3 0.35
0 -6 -6 0.3 0.36
0 6 6 0.36 0.31
0 6 -6 -0.09 0.29
0 6 6 0.55 0.36
-1 -6 -6 2.02 0.61
1 -6 6 2.95 0.65
-1 -6 -6 2.03 0.34
-1 6 -6 2.42 0.61
-1 6 -6 3.64 0.77
1 6 6 2.74 0.53
2 -6 6 0.35 0.57
-2 -6 -6 0.34 0.38
-2 6 -6 0.27 0.45
2 6 6 -0.11 0.37
3 -6 6 1.54 0.8
-3 6 -6 1.9 0.79
3 6 6 2.83 0.72
3 -7 -6 81.76 3.27
-3 7 6 70.38 2.9
3 7 -6 67.13 2.42
2 -7 -6 20.11 1.74
-2 7 6 19.29 1.48
2 7 -6 20.58 1
-1 -7 6 2.53 0.28
1 -7 -6 1.99 0.59
1 -7 -6 2.19 0.75
-1 7 6 2.33 0.81
-1 7 6 2.92 0.68
1 7 -6 2.4 0.49
0 -7 6 77.72 2.21
0 -7 -6 75.99 2.13
0 -7 -6 77.31 2.68
0 7 -6 78.17 2.33
0 7 -6 72.08 2.56
0 7 6 79.54 2.36
0 7 6 71.95 2.53
-1 -7 -6 65.18 2.26
1 -7 6 62.61 2.28
-1 7 -6 64.83 2.19
1 7 6 61.67 1.95
-2 -7 -6 38.28 1.49
2 -7 6 38.83 2.07
-2 7 -6 39.95 2.01
2 7 6 37.84 1.52
3 -7 6 28.93 2.06
3 7 6 26.7 1.55
-3 7 -6 29.79 1.99
3 -8 -6 2.33 0.96
-3 8 6 1.08 0.7
2 -8 -6 -0.22 0.67
2 8 -6 0.78 0.37
2 8 -6 0.24 0.42
-2 8 6 1.32 0.7
1 -8 -6 54.61 2.09
1 -8 -6 52.35 2.46
-1 8 6 55.95 2.2
1 8 -6 52.91 1.78
1 8 -6 56.19 2.23
0 -8 -6 20.48 1.08
0 -8 -6 19.36 1.52
0 -8 6 18.19 1.06
0 8 6 20.92 1.23
0 8 -6 20.53 1.21
0 8 6 19.5 1.35
-1 -8 -6 1.89 0.68
1 -8 6 3.09 0.69
1 8 6 2.3 0.53
-1 8 -6 2.34 0.65
-2 -8 -6 23.7 1.23
2 -8 6 19.56 1.59
2 8 6 22.34 1.18
-2 8 -6 22.47 1.64
3 -8 6 4.62 1.12
-3 8 -6 2.94 0.95
3 -9 -6 1.4 0.89
-3 9 6 0.67 0.83
2 -9 -6 5.95 1.28
2 9 -6 4.39 0.6
-2 9 6 3.7 0.98
2 9 -6 3.51 0.85
1 -9 -6 31.23 1.61
1 -9 -6 31.85 2.07
1 9 -6 29.92 1.36
-1 9 6 27.96 1.68
0 -9 6 50.19 1.72
0 -9 -6 48.06 1.61
0 -9 -6 49.93 2.36
0 9 6 49.88 1.93
-1 -9 -6 3.4 0.77
1 -9 6 2.37 0.67
1 9 6 2.23 0.59
-1 9 -6 3.39 0.7
2 -9 6 5.65 1.08
-2 -9 -6 5.07 0.78
2 9 6 6.49 0.8
-2 9 -6 8.05 1.23
3 -9 6 55.03 2.82
-3 9 -6 55.44 2.78
3 -10 -6 4.18 1.23
-3 10 6 4.68 1.17
2 -10 -6 9.73 1.54
-2 10 6 10.67 1.43
2 10 -6 8.45 0.83
1 -10 -6 52.55 2.69
1 -10 -6 55.54 2.15
-1 10 6 54.09 2.39
1 10 -6 57.17 1.96
0 -10 -6 2.22 0.81
0 -10 -6 1.27 0.42
0 -10 6 2.04 0.46
0 10 6 1.46 0.58
-1 -10 -6 12.99 1.39
1 -10 6 14.75 1.23
1 10 6 15.52 1.13
-1 10 -6 16.69 1.55
2 -10 6 6.81 1.17
-2 -10 -6 4.63 0.79
2 10 6 5.72 0.77
-2 10 -6 3.93 0.88
3 -11 -6 9.85 1.68
-3 11 6 11.26 1.64
2 -11 -6 17.86 2.04
-2 11 6 18.95 1.9
1 -11 -6 3.12 1.02
1 -11 -6 1.52 0.66
-1 11 6 2.48 0.81
0 -11 -6 20.38 0.97
0 -11 -6 20.4 1.77
0 11 6 21.12 1.44
-1 -11 -6 6.37 1.06
1 -11 6 9.17 1.15
1 11 6 7.73 0.95
-1 11 -6 8.7 1.15
2 -11 6 10.78 1.42
-2 -11 -6 9.35 1.36
-2 11 -6 10.11 1.43
2 -12 -6 28.75 2.41
-2 12 6 29 2.13
1 -12 -6 8.62 1.5
-1 12 6 8.24 1.24
0 -12 -6 9.76 1.42
0 12 6 13.02 1.33
0 12 -6 13.16 1.3
-1 -12 -6 30.14 1.92
1 -12 6 31.93 1.71
1 12 6 31.99 1.61
-1 12 -6 30.09 1.86
2 -12 6 38.19 2.18
-2 12 -6 42.8 2.42
2 -13 -6 1.75 1.03
-2 13 6 1.76 0.93
1 -13 -6 18.85 2.11
-1 13 6 20.86 1.78
0 -13 -6 1.34 0.86
0 13 -6 0.5 0.5
0 13 6 1.32 0.64
-1 -13 -6 7.28 1.23
-1 13 -6 7.56 1.25
1 13 6 7.63 1
1 -14 -6 30.73 2.45
-1 14 6 33.77 2.22
0 -14 -6 2.76 0.95
0 14 -6 2.91 0.79
0 14 6 2.06 0.73
-1 -14 -6 23.33 1.91
-1 14 -6 24.8 1.88
0 15 6 5.47 1.05
4 0 -7 0.3 0.61
3 0 -7 -0.01 0.49
-3 0 7 0.54 0.44
-3 0 7 -0.36 0.35
-2 0 7 -0.04 0.36
2 0 -7 -0.01 0.42
2 0 -7 0.12 0.38
-1 0 7 -0.27 0.28
1 0 -7 0.14 0.35
0 0 7 -0.18 0.3
0 0 -7 0.11 0.32
1 0 7 0.49 0.39
-1 0 -7 0.15 0.31
2 0 7 0.29 0.51
-2 0 -7 0 0.34
-2 0 -7 0.3 0.37
-3 0 -7 0.03 0.42
3 0 7 0.21 0.61
-3 0 -7 0.56 0.39
4 -1 -7 44.28 2.16
-4 1 7 40.42 1.75
-3 -1 7 30.53 1.32
-3 -1 7 31.17 1.31
3 -1 -7 30.78 1.77
-3 1 7 33.21 1.6
3 1 -7 33.71 1.73
-3 1 7 31.6 1.55
-2 -1 7 0.07 0.32
-2 -1 7 0.01 0.31
2 -1 -7 0.2 0.46
2 -1 -7 0.13 0.41
2 1 -7 0.75 0.41
-2 1 7 0.28 0.38
-1 -1 7 172.39 3.68
1 -1 -7 167.07 3.82
-1 1 7 169.13 3.75
1 1 -7 178.61 3.76
0 -1 7 1.25 0.43
0 -1 -7 0.87 0.37
0 1 -7 1.2 0.41
0 1 7 1.05 0.38
-1 -1 -7 5.26 0.66
1 -1 7 7.1 0.89
-1 1 -7 5.64 0.7
1 1 7 5.58 0.72
2 -1 7 138.41 3.77
-2 -1 -7 144.76 3.33
-2 -1 -7 134.12 3.23
-2 1 -7 140.84 3.5
2 1 7 143.44 3.67
-2 1 -7 143.99 3.51
3 -1 7 32.22 1.95
-3 -1 -7 33.71 1.53
-3 1 -7 30.47 1.67
-3 1 -7 29.23 1.55
3 1 7 31.07 1.86
4 -2 -7 -0.18 0.62
-4 2 7 0.25 0.51
3 -2 -7 3.59 0.91
-3 -2 7 3.03 0.47
-3 -2 7 3.37 0.47
-3 2 7 3.77 0.77
-3 2 7 2.54 0.67
3 2 -7 3.22 0.72
-2 -2 7 23.91 1.06
2 -2 -7 23.15 1.51
-2 -2 7 22.94 1.04
2 2 -7 21.73 1.2
-2 2 7 20.61 1.25
1 -2 -7 10.53 0.91
1 -2 -7 8.98 1.04
-1 -2 7 10.32 0.78
1 2 -7 9.72 0.76
-1 2 7 10.86 0.9
0 -2 -7 9.89 0.8
0 -2 7 10.67 0.83
0 2 7 9.15 0.8
0 2 -7 10.7 0.83
-1 -2 -7 43.11 1.51
1 -2 7 40.39 1.69
-1 2 -7 41.48 1.62
1 2 7 44.47 1.63
2 -2 7 5.57 0.95
-2 -2 -7 4.83 0.65
-2 -2 -7 4.72 0.63
-2 2 -7 3.42 0.68
-2 2 -7 4.24 0.72
2 2 7 3.59 0.73
-3 -2 -7 3.11 0.57
3 -2 7 3.93 0.99
3 2 7 2.76 0.78
-3 2 -7 3.82 0.85
4 -3 -7 3.91 0.95
-4 3 7 2.19 0.75
3 -3 -7 0.24 0.65
-3 3 7 0.16 0.53
3 3 -7 0.74 0.55
-2 -3 7 2.45 0.44
2 -3 -7 3.37 0.87
-2 -3 7 3.38 0.48
-2 3 7 2.52 0.62
2 3 -7 2.52 0.53
1 -3 -7 49.97 2.07
-1 -3 7 53.47 1.65
1 -3 -7 52.66 1.93
1 3 -7 52.36 1.71
-1 3 7 54.28 1.9
0 -3 -7 26.03 1.44
0 -3 7 25.67 1.24
0 -3 -7 27.81 1.29
0 3 7 24.93 1.2
0 3 -7 24.46 1.2
1 -3 7 30.43 1.51
-1 -3 -7 31.8 1.28
-1 3 -7 30.9 1.43
1 3 7 30.52 1.34
-2 -3 -7 13.27 0.88
2 -3 7 13.36 1.36
-2 -3 -7 15.09 0.88
-2 -3 -7 15.34 0.97
-2 3 -7 12.35 1.05
-2 3 -7 12.83 1.11
2 3 7 14.3 1.13
3 -3 7 12.71 1.47
-3 3 -7 13.98 1.45
3 3 7 11.63 1.28
4 -4 -7 1.49 0.84
-4 4 7 2.27 0.82
3 -4 -7 22.52 1.72
-3 4 7 20.14 1.49
-2 -4 7 15.77 0.7
2 -4 -7 19.2 1.5
-2 -4 7 17.34 0.71
2 4 -7 17.33 1.03
-2 4 7 18.03 1.26
-2 4 7 17.43 1.26
1 -4 -7 28.66 1.44
1 -4 -7 33.4 1.75
-1 -4 7 29.89 1.18
1 4 -7 31.04 1.3
-1 4 7 28.14 1.42
0 -4 -7 78.96 2.25
0 -4 -7 75.99 2.53
0 -4 7 77.45 2.25
0 4 -7 74.64 2.23
0 4 7 79.13 2.28
-1 -4 -7 37.32 1.61
-1 -4 -7 34.55 1.31
1 -4 7 36.2 1.66
-1 4 -7 34.72 1.58
1 4 7 36.1 1.46
-2 -4 -7 8.06 0.81
2 -4 7 6.97 1.06
-2 -4 -7 6.98 0.61
-2 -4 -7 6.47 0.55
-2 4 -7 5.24 0.85
-2 4 -7 5.29 0.86
2 4 7 7.19 0.93
3 -4 7 3.89 1.06
-3 4 -7 3 0.85
3 4 7 3.64 0.87
4 -5 -7 48.63 2.59
-4 5 7 51.11 2.46
3 -5 -7 1.53 0.79
-3 5 7 0.13 0.54
3 5 -7 1.49 0.81
2 -5 -7 7.13 1.16
2 5 -7 6.68 0.75
-2 5 7 6.4 0.91
1 -5 -7 64.84 2.51
-1 -5 7 63.53 1.75
1 -5 -7 61.3 2.21
-1 5 7 60.6 2.18
1 5 -7 62.94 1.93
0 -5 -7 54.48 1.85
0 -5 7 56.38 1.91
0 -5 -7 54.76 2.18
0 5 7 53.88 1.89
0 5 -7 53.7 1.88
-1 -5 -7 1.88 0.44
1 -5 7 2.62 0.66
-1 -5 -7 2.03 0.58
1 5 7 2.51 0.54
-1 5 -7 3.11 0.65
-2 -5 -7 6.28 0.77
2 -5 7 6.05 1.07
-2 5 -7 4.64 0.84
2 5 7 6.78 0.85
3 -5 7 3.44 1
-3 5 -7 2.86 0.85
3 5 7 2.52 0.75
3 -6 -7 16.73 1.85
-3 6 7 13.43 1.45
3 6 -7 13.4 1.11
2 -6 -7 85.99 3.22
-2 6 7 87.66 2.95
2 6 -7 82.96 2.32
1 -6 -7 -0.44 0.45
1 -6 -7 0.45 0.47
-1 -6 7 0.1 0.27
1 6 -7 0.01 0.31
-1 6 7 -0.31 0.37
0 -6 7 32.1 1.4
0 -6 -7 29.07 1.66
0 -6 -7 29 1.36
0 6 -7 31.55 1.45
0 6 7 28.91 1.4
1 -6 7 63.13 2.31
-1 -6 -7 61.72 1.69
-1 -6 -7 65.34 2.29
1 6 7 64.78 2.01
2 -6 7 6.58 1.11
-2 -6 -7 7.03 0.83
2 6 7 6.88 0.86
-2 6 -7 7.9 1.07
3 -6 7 44.36 2.45
3 6 7 40.62 1.96
-3 6 -7 44.84 2.4
3 -7 -7 11.33 1.56
-3 7 7 11.42 1.48
2 -7 -7 5.26 1.17
2 7 -7 5.33 0.68
-2 7 7 6.42 1.05
1 -7 -7 12.22 1.39
1 -7 -7 12.92 1.15
-1 -7 7 14.65 0.72
1 7 -7 14.31 0.96
-1 7 7 14.08 1.22
0 -7 7 90.03 2.55
0 -7 -7 93.48 2.54
0 -7 -7 90.74 3.09
0 7 7 96.14 2.74
0 7 -7 93.55 2.71
-1 -7 -7 24.56 0.91
1 -7 7 25.73 1.53
-1 -7 -7 24.76 1.53
1 7 7 24.76 1.28
2 -7 7 22.13 1.66
-2 -7 -7 19.8 1.19
2 7 7 21.37 1.22
-2 7 -7 19.11 1.51
3 -7 7 -0.46 0.61
-3 7 -7 -0.2 0.59
3 7 7 -0.57 0.54
3 -8 -7 17.45 1.98
-3 8 7 15.58 1.63
2 -8 -7 40.97 2.46
-2 8 7 42.93 2.18
2 8 -7 44.78 1.61
-1 -8 7 1.61 0.28
1 -8 -7 0.97 0.54
1 -8 -7 0.25 0.68
1 8 -7 1.23 0.46
-1 8 7 0.49 0.52
0 -8 -7 6.59 0.79
0 -8 -7 5.64 1
0 -8 7 7.81 0.84
0 8 7 8.99 1.04
-1 -8 -7 31.47 1.75
1 -8 7 28.58 1.63
-1 8 -7 32.62 1.63
1 8 7 31.02 1.45
2 -8 7 6.45 1.14
-2 -8 -7 4.69 0.76
2 8 7 7.22 0.89
-2 8 -7 6.84 1.15
3 -8 7 13.4 1.66
-3 8 -7 13.27 1.55
3 -9 -7 0.85 0.92
-3 9 7 0.58 0.79
2 -9 -7 4.44 1.2
2 9 -7 5.01 0.68
-2 9 7 3.28 0.84
1 -9 -7 11.76 1.23
1 -9 -7 11.1 1.43
1 9 -7 11.47 0.98
-1 9 7 11.48 1.25
0 -9 -7 24.4 1.23
0 -9 7 22.27 1.22
0 -9 -7 21.41 1.69
0 9 7 23.92 1.44
-1 -9 -7 141.61 4.02
1 -9 7 147.57 3.97
-1 9 -7 148.21 3.97
1 9 7 144.87 3.59
-2 -9 -7 58.51 2.13
2 -9 7 67.17 2.81
-2 9 -7 61.36 2.72
2 9 7 57.79 2.06
3 -9 7 22.66 2.31
-3 9 -7 26.18 2.43
3 -10 -7 4.02 1.23
-3 10 7 5 1.21
2 -10 -7 2.33 1.04
-2 10 7 0.9 0.67
2 10 -7 2.67 0.57
1 -10 -7 44.39 2.52
-1 10 7 45.97 2.18
0 -10 -7 37.97 2.22
0 -10 -7 40.11 1.5
0 -10 7 38.1 1.56
0 10 7 39.76 1.88
1 -10 7 17.05 1.36
-1 -10 -7 13.13 1.45
1 10 7 15.56 1.18
-1 10 -7 17.89 1.38
2 -10 7 1.01 0.68
-2 -10 -7 0.99 0.57
-2 10 -7 -0.12 0.58
2 10 7 0.5 0.52
2 -11 -7 6.83 1.35
-2 11 7 5.49 1.14
1 -11 -7 4.56 1.14
-1 11 7 4.27 0.92
0 -11 -7 1.62 0.82
0 -11 7 2.83 0.57
0 11 7 3.44 0.77
-1 -11 -7 10.24 1.31
1 -11 7 9.51 1.16
-1 11 -7 8.95 1.21
1 11 7 9.51 1.06
2 -11 7 2.69 0.88
-2 11 -7 2.92 0.96
2 -12 -7 0.81 0.97
-2 12 7 0.02 0.7
1 -12 -7 3.17 1.13
-1 12 7 2.91 0.85
0 -12 -7 0.13 0.76
0 12 -7 0.13 0.47
0 12 7 -0.22 0.47
-1 -12 -7 0.91 0.74
1 -12 7 -0.32 0.42
1 12 7 0.3 0.52
-1 12 -7 -0.5 0.47
2 -12 7 -0.09 0.6
-2 12 -7 0.75 0.74
2 -13 -7 4.68 1.35
-2 13 7 9.7 1.53
1 -13 -7 73.22 3.46
-1 13 7 62.62 2.87
0 -13 -7 28.29 2.16
0 13 7 27.74 1.77
0 13 -7 25.99 1.63
1 -13 7 2.07 0.68
-1 -13 -7 1.97 0.93
-1 13 -7 1.77 0.77
1 13 7 0.76 0.6
1 -14 -7 3.77 1.24
-1 14 7 3.32 0.93
0 -14 -7 2.19 1.04
0 14 -7 5.46 1.01
0 14 7 4.39 0.98
4 0 -8 0.44 0.64
3 0 -8 16.96 1.44
-3 0 8 18.04 1.2
-3 0 8 18.41 1.19
-2 0 8 17.7 1.14
2 0 -8 19.73 1.39
2 0 -8 20.32 1.3
1 0 -8 6.32 0.8
-1 0 8 6.63 0.75
0 0 8 332.58 6.36
1 0 8 4.24 0.75
-1 0 -8 5.35 0.73
-2 0 -8 7.49 0.85
2 0 8 9.75 1.15
-2 0 -8 10.08 1.02
3 0 8 82.01 3.14
-3 0 -8 80.41 2.69
4 -1 -8 28.32 1.86
-4 1 8 25.95 1.52
-3 -1 8 14.9 1.01
-3 -1 8 14.73 1.02
3 -1 -8 15.24 1.54
-3 1 8 15.04 1.19
-3 1 8 15.76 1.15
3 1 -8 14.13 1.31
2 -1 -8 1.6 0.62
-2 -1 8 1.87 0.51
2 1 -8 2.02 0.56
-2 1 8 1.66 0.51
-1 -1 8 72.44 2.14
1 -1 -8 66.55 2.22
1 1 -8 66.75 2.15
-1 1 8 71.21 2.2
0 -1 -8 82.95 2.38
0 -1 8 81.1 2.37
0 1 -8 78.26 2.31
0 1 8 84.73 2.41
1 -1 8 0.09 0.4
-1 -1 -8 0.26 0.37
-1 1 -8 0.28 0.36
1 1 8 0.76 0.43
-2 -1 -8 11.58 0.94
-2 -1 -8 11.17 0.91
2 -1 8 12.11 1.25
2 1 8 11.39 1.25
-2 1 -8 12.37 1.04
-2 1 -8 11.74 1.12
-3 -1 -8 65.69 2.26
3 -1 8 71.4 2.91
3 1 8 65.92 2.74
-3 1 -8 66.3 2.52
4 -2 -8 1.7 0.86
-4 2 8 4.2 0.84
-3 -2 8 58.99 1.75
-3 -2 8 60.34 1.79
3 -2 -8 56.19 2.52
3 2 -8 62.95 2.42
-3 2 8 57.31 2.22
2 -2 -8 27.44 1.7
-2 -2 8 25.84 1.2
-2 2 8 24.82 1.42
2 2 -8 25.19 1.36
1 -2 -8 60.02 2.33
-1 -2 8 57.97 1.88
1 -2 -8 59.54 2.08
-1 2 8 60.33 2.04
1 2 -8 61.44 1.96
0 -2 -8 30.84 1.39
0 -2 8 33.65 1.46
0 2 -8 31.6 1.41
0 2 8 34.25 1.46
1 -2 8 0.49 0.43
-1 -2 -8 0.9 0.41
1 2 8 0.88 0.44
-1 2 -8 1.32 0.5
-2 -2 -8 0.65 0.41
-2 -2 -8 0.13 0.36
2 -2 8 0.85 0.58
2 2 8 0.25 0.49
-2 2 -8 0.43 0.49
-3 -2 -8 16.41 1.09
3 -2 8 17.79 1.75
-3 2 -8 16.2 1.42
3 2 8 16.49 1.61
4 -3 -8 2.78 0.95
-4 3 8 4.02 0.85
3 -3 -8 2.02 0.84
-3 -3 8 2.9 0.4
-3 3 8 2.9 0.73
3 3 -8 1.21 0.72
-2 -3 8 18.7 0.98
2 -3 -8 15.56 1.43
2 3 -8 15.11 1.06
-2 3 8 16.93 1.26
-1 -3 8 31.4 1.32
1 -3 -8 31.4 1.53
1 -3 -8 31.05 1.71
-1 3 8 30.33 1.48
1 3 -8 34.4 1.44
0 -3 -8 52.1 2.09
0 -3 8 52.94 1.89
0 -3 -8 50.53 1.84
0 3 -8 55.19 1.9
0 3 8 53.02 1.88
1 -3 8 112.59 3.19
-1 -3 -8 113.74 2.83
-1 3 -8 107.09 3.01
1 3 8 113.06 3
2 -3 8 61.84 2.58
-2 -3 -8 70.3 2.01
-2 -3 -8 68.77 2
-2 3 -8 62.82 2.36
-2 3 -8 69.41 2.45
2 3 8 68.72 2.41
3 -3 8 -0.46 0.64
-3 3 -8 -0.55 0.56
3 3 8 0.71 0.6
4 -4 -8 2.13 0.94
-4 4 8 3.08 0.87
3 -4 -8 3.96 0.99
-3 4 8 5.82 1.02
2 -4 -8 0.17 0.59
-2 -4 8 0.23 0.29
-2 -4 8 0.12 0.27
-2 4 8 0.39 0.47
2 4 -8 -0.18 0.35
-1 -4 8 3.46 0.56
1 -4 -8 3.37 0.81
1 -4 -8 3.81 0.71
1 4 -8 3.01 0.6
-1 4 8 3.32 0.7
0 -4 8 28.49 1.38
0 -4 -8 28.6 1.38
0 -4 -8 31.12 1.67
0 4 -8 29.59 1.4
0 4 8 28.23 1.4
-1 -4 -8 20.16 1.31
-1 -4 -8 20 1.1
1 -4 8 20.46 1.35
1 4 8 19.78 1.21
2 -4 8 32.92 1.87
-2 -4 -8 32.28 1.26
-2 -4 -8 34.31 1.5
-2 -4 -8 30.91 1.21
2 4 8 32.06 1.64
-2 4 -8 30.69 1.68
3 -4 8 24.08 1.9
-3 4 -8 29.22 1.86
3 4 8 26.18 1.69
-4 5 8 10.35 1.37
3 -5 -8 1.15 0.8
-3 5 8 1.48 0.72
2 -5 -8 47.78 2.41
-2 -5 8 52.63 1.26
-2 -5 8 50.87 1.26
2 5 -8 49.17 1.83
-2 5 8 52.46 2.22
-1 -5 8 80.93 2.2
1 -5 -8 81.22 2.97
-1 5 8 79.61 2.62
1 5 -8 83.92 2.4
0 -5 8 8.94 0.96
0 -5 -8 7.33 1.05
0 -5 -8 8.94 0.94
0 5 -8 8.9 0.95
0 5 8 11.98 1.13
-1 -5 -8 10.6 0.88
-1 -5 -8 11.69 1.22
1 -5 8 9.5 1.11
1 5 8 12.79 1.01
2 -5 8 0.44 0.59
-2 -5 -8 0.65 0.28
-2 -5 -8 0.3 0.28
-2 -5 -8 1.14 0.51
-2 5 -8 1.21 0.61
2 5 8 1.18 0.59
3 -5 8 25.27 2
3 5 8 28.26 1.74
-3 5 -8 26.07 1.84
3 -6 -8 5.94 1.26
-3 6 8 5.45 1.11
2 -6 -8 5.35 1.17
2 6 -8 5.2 0.7
-2 6 8 4.53 0.84
-1 -6 8 0.46 0.33
1 -6 -8 0.49 0.48
1 -6 -8 0.99 0.64
-1 6 8 0.03 0.4
1 6 -8 0.5 0.4
0 -6 8 8.48 0.95
0 -6 -8 7.29 0.89
0 -6 -8 6.82 1.08
0 6 -8 10.12 1.04
0 6 8 8.15 0.93
1 -6 8 6.48 1.02
-1 -6 -8 7.25 1.05
-1 -6 -8 6.16 0.7
1 6 8 6.2 0.84
-2 -6 -8 3.11 0.67
2 -6 8 4.49 0.97
-2 6 -8 3.58 0.83
2 6 8 2.69 0.7
3 -6 8 4.52 1.09
3 6 8 2.81 0.83
-3 6 -8 4.14 1.02
3 -7 -8 0.83 0.92
-3 7 8 3.03 0.91
2 -7 -8 99.59 3.71
-2 7 8 94.39 3.24
2 7 -8 97.98 2.68
1 -7 -8 49.1 2.17
-1 -7 8 52.92 1.59
1 -7 -8 50.4 2.5
-1 7 8 52.22 2.2
1 7 -8 53.73 1.9
0 -7 -8 23.93 1.34
0 -7 -8 24.72 1.68
0 -7 8 28.49 1.4
0 7 8 24.34 1.43
-1 -7 -8 100.8 3.1
-1 -7 -8 91.08 2.26
1 -7 8 96.84 3.11
1 7 8 96.4 2.72
-2 -7 -8 59.42 2.12
2 -7 8 57.31 2.6
2 7 8 56.3 2.13
-2 7 -8 58.51 2.53
3 -7 8 5.09 1.15
-3 7 -8 5.31 1.13
3 7 8 3.8 1.41
3 -8 -8 16.98 1.96
-3 8 8 16.52 1.69
2 -8 -8 1.5 0.86
2 8 -8 -0.01 0.36
-2 8 8 -0.07 0.6
1 -8 -8 1.99 0.79
-1 -8 8 1.22 0.35
1 8 -8 0.69 0.5
-1 8 8 1.42 0.67
0 -8 -8 10.97 0.97
0 -8 8 11.16 0.96
0 -8 -8 7.55 1.17
0 8 8 10.66 1.14
-1 -8 -8 2.22 0.77
1 -8 8 3.07 0.74
-1 -8 -8 2.14 0.38
1 8 8 3.23 0.72
-2 -8 -8 8.66 1.03
2 -8 8 7.49 1.2
-2 8 -8 7.3 1.17
2 8 8 7.18 0.94
3 -8 8 2.04 0.91
-3 8 -8 0.9 0.8
3 -9 -8 12.83 1.87
-3 9 8 9.16 1.44
2 -9 -8 4.7 1.32
-2 9 8 0.78 0.7
1 -9 -8 -0.18 0.72
-1 -9 8 -0.34 0.18
-1 9 8 -0.04 0.49
0 -9 8 4.67 0.72
0 -9 -8 4.77 1.06
0 -9 -8 4.03 0.65
0 9 8 3.45 0.77
1 -9 8 12.9 1.35
-1 -9 -8 13.27 1.43
-1 9 -8 13.97 1.39
1 9 8 13.09 1.24
2 -9 8 0.44 0.63
-2 -9 -8 -0.05 0.45
2 9 8 -0.16 0.44
-2 9 -8 0.79 0.65
3 -10 -8 12.3 1.83
-3 10 8 6.59 1.27
2 -10 -8 3.58 1.1
-2 10 8 4.19 1.01
1 -10 -8 3.27 1.11
-1 10 8 3.41 0.82
0 -10 -8 46.57 1.75
0 -10 -8 47.86 2.57
0 -10 8 44.75 1.81
0 10 8 47.58 2.14
-1 -10 -8 24.94 1.76
1 -10 8 20.7 1.51
-1 10 -8 24.19 1.63
1 10 8 22.99 1.44
2 -10 8 15.5 1.77
-2 10 -8 15.05 1.74
2 10 8 14.77 1.21
2 -11 -8 11.27 1.81
-2 11 8 12.02 1.56
1 -11 -8 5.84 1.31
-1 11 8 5.13 1
0 -11 8 30.47 1.46
0 -11 -8 32.56 2.21
0 11 8 30.42 1.77
-1 -11 -8 22.5 1.74
1 -11 8 21.7 1.58
1 11 8 23.23 1.5
-1 11 -8 23.99 1.68
2 -11 8 2.87 0.94
-2 11 -8 3.87 1.03
2 -12 -8 27.02 2.42
-2 12 8 23.58 1.97
1 -12 -8 34.65 2.49
-1 12 8 33.95 2.1
0 -12 -8 14.64 1.77
0 -12 8 16.66 1.06
0 12 8 15.31 1.52
-1 -12 -8 3.34 0.92
1 -12 8 4.5 0.91
1 12 8 3.57 0.81
-1 12 -8 2.5 0.83
1 -13 -8 4.1 1.16
-1 13 8 1.61 0.8
0 -13 -8 10.64 1.53
0 13 -8 10.21 1.24
0 13 8 10.08 1.33
-1 -13 -8 0.67 0.79
1 -13 8 1.87 0.66
-1 13 -8 0.22 0.59
1 13 8 0.18 0.62
0 14 8 33.62 2.07
0 14 -8 36.03 2
4 0 -9 -0.3 0.63
-3 0 9 -0.19 0.41
3 0 -9 0.02 0.57
-3 0 9 0.23 0.44
2 0 -9 0.53 0.6
-2 0 9 0.18 0.43
1 0 -9 -0.17 0.32
-1 0 9 0.47 0.4
0 0 9 0.26 0.39
0 0 -9 0.05 0.4
-1 0 -9 -0.37 0.34
1 0 9 0.6 0.46
-2 0 -9 -0.73 0.34
-2 0 -9 -0.26 0.36
2 0 9 0.3 0.53
-3 0 -9 0.11 0.55
3 0 9 -0.06 0.61
4 -1 -9 3.43 1
4 1 -9 5.26 1.42
3 -1 -9 23.75 1.76
-3 -1 9 20.93 1.24
-3 -1 9 23.93 1.27
-3 1 9 22.8 1.42
3 1 -9 21.58 1.61
-2 -1 9 7.9 0.87
2 -1 -9 8.26 1.22
-2 1 9 8.3 0.98
1 -1 -9 22.12 1.32
-1 -1 9 22.6 1.26
1 1 -9 19.65 1.24
-1 1 9 21.69 1.27
0 -1 9 44.62 1.8
0 -1 -9 45.44 1.79
0 1 -9 44.55 1.76
0 1 9 46.42 1.84
-1 -1 -9 21.48 1.24
1 -1 9 20.9 1.36
-1 1 -9 21.46 1.28
1 1 9 20.06 1.32
2 -1 9 13.76 1.4
-2 -1 -9 13.5 1.03
-2 -1 -9 12.2 1.01
2 1 9 13.72 1.36
-2 1 -9 12.58 1.09
3 -1 9 14.29 1.64
-3 -1 -9 14.51 1.25
3 1 9 17.17 1.79
-3 1 -9 15.08 1.47
4 -2 -9 1.77 0.88
-4 2 9 2.82 0.77
-3 -2 9 4.98 0.67
3 -2 -9 5.61 1.09
3 2 -9 6.27 1.12
-3 2 9 5.51 0.91
2 -2 -9 5.92 1.07
-2 -2 9 6.89 0.79
-2 2 9 7.63 1.01
1 -2 -9 48.47 2.2
-1 -2 9 48.76 1.8
1 -2 -9 45.09 1.91
-1 2 9 51.64 1.98
1 2 -9 50.26 1.87
0 -2 -9 0.24 0.38
0 -2 9 1.4 0.48
0 2 -9 0.44 0.41
0 2 9 1.15 0.47
-1 -2 -9 3.58 0.66
1 -2 9 4.61 0.81
1 2 9 3.19 0.67
-1 2 -9 4.07 0.88
-2 -2 -9 47.73 1.78
-2 -2 -9 47.43 1.79
2 -2 9 47.03 2.26
-2 2 -9 48.82 2.04
2 2 9 44.61 2.07
-3 -2 -9 15.46 1.2
3 -2 9 14.98 1.71
3 2 9 17.33 1.7
-3 2 -9 16.21 1.44
4 -3 -9 2.61 0.96
-4 3 9 2.59 0.86
-3 -3 9 16.15 0.86
3 -3 -9 14.94 1.6
3 3 -9 16.29 1.63
-3 3 9 17 1.41
2 -3 -9 91.82 3.29
-2 -3 9 88.43 2.42
-2 3 9 90.17 2.87
1 -3 -9 23.24 1.6
-1 -3 9 25.91 1.3
-1 3 9 26.95 1.45
1 3 -9 26.21 1.33
0 -3 9 44.09 1.8
0 -3 -9 43.26 1.75
0 -3 -9 42.45 1.99
0 3 9 39.18 1.72
0 3 -9 40.55 1.73
1 -3 9 93.13 2.96
-1 -3 -9 94.04 2.63
1 3 9 91.3 2.75
-2 -3 -9 122.58 3.04
2 -3 9 129.27 3.92
-2 -3 -9 122.82 3.05
-2 3 -9 121.97 3.51
2 3 9 125.24 3.58
3 -3 9 8.07 1.37
-3 3 -9 7.67 1.16
3 3 9 6.55 1.13
3 -4 -9 22.43 1.87
-3 4 9 22 1.6
-2 -4 9 1.43 0.4
2 -4 -9 1.28 0.86
-2 4 9 0.92 0.59
1 -4 -9 15.61 1.41
-1 -4 9 13.09 0.96
1 -4 -9 11.6 1.28
-1 4 9 13.06 1.12
1 4 -9 12.4 1
0 -4 -9 34.48 1.86
0 -4 9 31.74 1.55
0 -4 -9 36.52 1.62
0 4 -9 34.46 1.84
0 4 9 33.06 1.59
-1 -4 -9 0.47 0.44
1 -4 9 1.23 0.6
-1 -4 -9 0.45 0.55
1 4 9 1.45 0.53
-2 -4 -9 20.54 1.33
-2 -4 -9 19.01 1.07
-2 -4 -9 21.72 1.11
2 -4 9 18.86 1.53
-2 4 -9 20.55 1.45
2 4 9 20.31 1.44
3 -4 9 0.3 0.71
3 4 9 0.93 0.68
-3 4 -9 -0.56 0.53
3 -5 -9 12.67 1.61
-3 5 9 15.34 1.56
-2 -5 9 3.5 0.47
2 -5 -9 3.29 0.94
-2 5 9 3.84 0.86
-1 -5 9 36.53 1.49
1 -5 -9 35.64 2.06
1 5 -9 36.44 1.59
-1 5 9 33.24 1.74
0 -5 -9 5.93 0.85
0 -5 -9 6.42 1.08
0 -5 9 7.21 0.91
0 5 9 7.37 0.89
-1 -5 -9 0.85 0.54
1 -5 9 1.15 0.55
-1 -5 -9 0.07 0.38
1 5 9 0.86 0.48
-2 -5 -9 9.5 0.74
2 -5 9 10.53 1.36
-2 -5 -9 9.6 1.08
2 5 9 5.15 0.9
-2 5 -9 10.96 1.32
3 -5 9 11.43 1.61
3 5 9 7.92 1.2
-3 5 -9 10.08 1.42
3 -6 -9 2.43 1.02
-3 6 9 3.83 0.94
-2 -6 9 0.32 0.2
2 -6 -9 1.95 0.94
-2 6 9 0.41 0.57
1 -6 -9 103.28 3.57
-1 -6 9 98.85 2.62
-1 6 9 100.79 3.15
0 -6 9 48.37 1.96
0 -6 -9 48.46 2.3
0 -6 -9 53.02 2
0 6 9 50.49 2.04
-1 -6 -9 3.08 0.58
-1 -6 -9 1.83 0.7
1 -6 9 2.21 0.75
1 6 9 2.29 0.64
-2 -6 -9 36.46 1.74
2 -6 9 37.42 2.13
-2 6 -9 34.34 1.92
2 6 9 34.86 1.78
3 -6 9 17.95 2
3 6 9 12.52 1.46
-3 6 -9 12.58 1.51
3 -7 -9 0.78 0.88
-3 7 9 1.08 0.72
2 -7 -9 7.3 1.38
-2 7 9 4.32 0.92
-1 -7 9 24.98 1.18
1 -7 -9 23.43 1.85
-1 7 9 24.12 1.55
0 -7 -9 29.13 1.52
0 -7 9 29.28 1.51
0 -7 -9 27.76 1.84
0 7 9 29.42 1.61
-1 -7 -9 21.4 1.1
1 -7 9 23.26 1.57
-1 -7 -9 23.14 1.59
1 7 9 23.8 1.42
2 -7 9 4.63 1.01
-2 -7 -9 4.32 0.84
2 7 9 4.87 0.89
-2 7 -9 4.98 0.97
3 -7 9 -0.34 0.72
-3 7 -9 0.49 0.69
3 -8 -9 5.46 1.33
-3 8 9 8.42 1.28
2 -8 -9 1.41 0.94
-2 8 9 1.17 0.66
1 -8 -9 65.63 3.06
-1 -8 9 74.21 2.01
-1 8 9 71.47 2.69
0 -8 9 -0.11 0.34
0 -8 -9 0.38 0.49
0 -8 -9 0.88 0.76
0 8 9 1.03 0.57
-1 -8 -9 9.13 1.26
1 -8 9 12.2 1.36
-1 -8 -9 6.94 0.8
1 8 9 9.3 1.03
-2 -8 -9 32.08 1.71
2 -8 9 34.55 2.15
2 8 9 33.65 1.75
-2 8 -9 31.77 1.97
3 -9 -9 9.02 1.67
-3 9 9 11.19 1.6
2 -9 -9 8.53 1.46
-2 9 9 8.49 1.26
-1 -9 9 0.47 0.31
1 -9 -9 1.17 0.86
-1 9 9 1.22 0.7
0 -9 9 16.28 1.19
0 -9 -9 18.57 1.93
0 -9 -9 17.03 1.21
0 9 9 16.03 1.37
1 -9 9 2.92 0.79
-1 -9 -9 2.56 0.88
1 9 9 1.84 0.65
-1 9 -9 2.14 0.73
2 -9 9 3.01 0.93
-2 -9 -9 1.96 0.96
2 9 9 3.13 0.77
-2 9 -9 2.72 0.88
2 -10 -9 10.28 1.76
-2 10 9 8.81 1.35
1 -10 -9 2.82 1.03
-1 10 9 5.2 0.98
0 -10 -9 10.26 1.5
0 -10 9 11.11 1.11
0 10 9 14.59 1.44
1 -10 9 10.15 1.29
-1 -10 -9 9.01 1.31
1 10 9 10.99 1.24
-1 10 -9 10.71 1.32
2 -10 9 29.15 2.07
-2 10 -9 28.36 2.06
2 10 9 25.95 1.73
2 -11 -9 42.25 2.89
-2 11 9 40.76 2.4
1 -11 -9 5.35 1.3
-1 11 9 7.08 1.17
0 -11 -9 37.61 2.44
0 -11 9 43.34 1.79
0 11 9 41.7 2.09
1 -11 9 26.83 1.76
-1 -11 -9 30.43 2.01
1 11 9 25.19 1.61
-1 11 -9 26.34 1.82
2 -12 -9 3.37 1.27
-2 12 9 1.15 0.82
1 -12 -9 5.96 1.33
-1 12 9 4.65 1.07
0 -12 9 6.74 0.88
0 -12 -9 6.75 1.36
0 12 9 7.18 1.18
-1 -12 -9 0.43 0.7
1 -12 9 0.2 0.6
-1 12 -9 -0.76 0.52
1 12 9 0.1 0.57
1 -13 -9 10.75 1.73
-1 13 9 7.99 1.28
0 -13 -9 11.51 1.75
0 13 9 14.78 1.6
0 13 -9 18.04 1.46
-3 0 10 -0.59 0.42
-3 0 10 -0.11 0.44
3 0 -10 0.63 0.69
-2 0 10 46.68 1.96
2 0 -10 47.54 2.33
-1 0 10 12.54 1.2
0 0 -10 30.09 1.53
0 0 10 29.87 1.55
1 0 10 66.56 2.46
2 0 10 7.92 1.13
-2 0 -10 8.18 1.02
3 0 10 0.15 0.7
-3 0 -10 0.53 0.62
3 -1 -10 0.6 0.74
-3 -1 10 0.15 0.45
-3 1 10 0.35 0.51
3 1 -10 -0.46 0.58
2 -1 -10 50.71 2.46
-2 -1 10 48.08 1.92
-2 1 10 49.69 2.05
-1 -1 10 1.88 0.55
-1 1 10 1.45 0.56
0 -1 -10 4.67 0.78
0 -1 10 5.48 0.81
0 1 10 5.89 0.9
1 -1 10 4.61 0.9
-1 -1 -10 3.57 0.68
1 1 10 4.92 0.92
-2 -1 -10 12.55 1.1
2 -1 10 13.61 1.46
-2 -1 -10 12.8 1.1
2 1 10 10.94 1.28
-2 1 -10 13.37 1.3
-3 -1 -10 -0.56 0.52
3 -1 10 0.78 0.77
-3 1 -10 -0.77 0.54
3 1 10 0.89 0.72
3 -2 -10 2.84 0.93
-3 -2 10 2.35 0.54
3 2 -10 4.28 0.99
-3 2 10 3.93 0.82
2 -2 -10 42.95 2.29
-2 -2 10 39.46 1.68
-2 2 10 40.98 1.92
-1 -2 10 76.76 2.47
1 -2 -10 79.09 2.97
-1 2 10 82.62 2.66
0 -2 10 0.75 0.45
0 -2 -10 0.11 0.43
0 2 10 0.49 0.42
-1 -2 -10 120.34 3.24
1 -2 10 115.83 3.47
1 2 10 122.15 3.43
-2 -2 -10 17.05 1.17
2 -2 10 17.8 1.76
-2 -2 -10 17.35 1.23
-2 2 -10 16.81 1.3
2 2 10 18.42 1.45
3 -2 10 0.77 0.75
-3 2 -10 -0.64 0.55
3 2 10 0.13 0.71
-3 -3 10 14.63 0.94
3 -3 -10 13.68 1.68
3 3 -10 15.66 1.7
-3 3 10 16.4 1.56
-2 -3 10 7.98 0.88
2 -3 -10 8.48 1.27
-2 3 10 10.12 1.22
1 -3 -10 3.33 0.83
-1 -3 10 5.63 0.8
-1 3 10 4.6 0.79
0 -3 10 0.25 0.42
0 -3 -10 0.11 0.53
0 -3 -10 0.43 0.45
0 3 10 0.04 0.39
1 -3 10 0.13 0.49
-1 -3 -10 0.66 0.49
1 3 10 0.07 0.46
-2 -3 -10 -0.02 0.42
2 -3 10 1.78 0.79
-2 -3 -10 0.54 0.47
-2 3 -10 1.23 0.63
2 3 10 0.84 0.57
3 -3 10 21.62 2.11
3 3 10 22.62 1.81
-3 3 -10 24.87 1.82
3 -4 -10 2.27 0.92
-3 4 10 3.34 0.91
-2 -4 10 34.52 1.43
2 -4 -10 35.41 2.22
-2 4 10 34.27 1.86
1 -4 -10 16.79 1.54
-1 -4 10 18.82 1.19
-1 4 10 17.49 1.33
0 -4 10 7.99 0.98
0 -4 -10 7.52 0.99
0 -4 -10 8.91 1.24
0 4 10 9.05 1.1
1 -4 10 13.87 1.44
-1 -4 -10 11.74 1.33
-1 -4 -10 14.3 1.1
1 4 10 13.51 1.2
-2 -4 -10 -0.01 0.37
2 -4 10 0.21 0.62
-2 -4 -10 0.02 0.46
-2 4 -10 1.02 0.62
2 4 10 0.32 0.56
3 -4 10 17.63 2
3 4 10 19.57 1.66
-3 4 -10 16.4 1.7
3 -5 -10 55.89 2.92
-3 5 10 53 2.52
2 -5 -10 0.83 0.76
-2 -5 10 1.85 0.45
-2 5 10 1.36 0.67
-1 -5 10 68.83 2.23
1 -5 -10 63.96 2.84
-1 5 10 68.8 2.55
0 -5 10 256.51 5.62
0 -5 -10 255.59 5.57
0 -5 -10 251.22 6.07
0 5 10 248.73 5.57
1 -5 10 70.28 2.72
-1 -5 -10 74.26 2.78
-1 -5 -10 72.87 2.33
1 5 10 76.69 2.61
-2 -5 -10 46.43 2.03
-2 -5 -10 45.25 1.56
2 -5 10 45.24 2.37
2 5 10 46.87 2.14
-2 5 -10 46.79 2.24
3 -5 10 24.18 2.02
-3 5 -10 26.62 1.97
3 5 10 27.73 1.88
3 -6 -10 0.35 0.87
-3 6 10 0.99 0.72
-2 -6 10 7.48 0.6
2 -6 -10 6.6 1.31
-2 6 10 8.32 1.11
1 -6 -10 15.76 1.76
-1 -6 10 19.65 1.18
-1 6 10 19.72 1.48
0 -6 10 8.87 1.09
0 -6 -10 7.96 1.16
0 -6 -10 7.84 0.98
0 6 10 7.76 1.04
1 -6 10 42.08 2.08
-1 -6 -10 43.53 2.18
-1 -6 -10 43.93 1.73
1 6 10 38.28 1.86
2 -6 10 0.18 0.62
-2 -6 -10 0.7 0.55
2 6 10 0.15 0.58
-2 6 -10 0.49 0.62
3 -7 -10 2.49 1.13
-3 7 10 2.1 0.82
2 -7 -10 2.05 0.96
-2 7 10 2.07 0.79
1 -7 -10 4.16 1
-1 -7 10 6.59 0.8
-1 7 10 8.98 1.17
0 -7 -10 2.13 0.82
0 -7 10 1.33 0.53
0 -7 -10 0.36 0.52
0 7 10 2.49 0.72
-1 -7 -10 -0.09 0.38
-1 -7 -10 0.37 0.6
1 -7 10 0.69 0.55
1 7 10 -0.25 0.49
2 -7 10 -0.24 0.66
-2 -7 -10 -0.01 0.53
-2 7 -10 0.9 0.63
2 7 10 0.18 0.53
3 -8 -10 -0.66 0.89
-3 8 10 0.75 0.76
2 -8 -10 14.24 1.83
-2 8 10 15.75 1.61
-1 -8 10 12.59 0.93
1 -8 -10 11.11 1.67
-1 8 10 12.35 1.35
0 -8 -10 10.49 1.52
0 -8 -10 7.84 0.99
0 -8 10 9.75 1.14
0 8 10 9.1 1.19
1 -8 10 8.3 1.19
-1 -8 -10 8.25 1.23
1 8 10 7.28 1.02
-2 -8 -10 6.35 1.09
2 -8 10 7.72 1.3
-2 8 -10 7.41 1.21
2 8 10 7.69 1.11
2 -9 -10 32.73 2.51
-2 9 10 30.17 2.02
1 -9 -10 6.83 1.34
-1 -9 10 8.67 0.8
-1 9 10 9.01 1.21
0 -9 10 41.58 1.87
0 -9 -10 38.99 1.8
0 -9 -10 39.89 2.44
0 9 10 37.59 2.03
1 -9 10 3.44 0.86
-1 -9 -10 2.98 0.92
1 9 10 4.25 0.84
2 -9 10 14.73 1.78
-2 9 -10 14.52 1.65
2 9 10 16.21 1.4
2 -10 -10 2.93 1.24
-2 10 10 2.82 0.94
1 -10 -10 6.68 1.39
-1 10 10 6.77 1.17
0 -10 -10 0.38 0.8
0 -10 10 2.15 0.63
0 10 10 1.7 0.71
-1 -10 -10 4.4 1.01
1 -10 10 5.85 1.07
-1 10 -10 5.79 1.04
1 10 10 4.07 0.86
2 -10 10 20.44 2.1
2 -11 -10 -0.84 0.93
-2 11 10 1.9 0.84
1 -11 -10 16.46 1.96
-1 11 10 21.21 1.8
0 -11 -10 5.78 1.33
0 -11 10 6.56 0.94
0 11 10 7.04 1.14
-1 -11 -10 3.22 1.01
1 -11 10 2.84 0.81
1 11 10 3.48 0.82
-1 11 -10 3.32 0.95
1 -12 -10 54.22 3.18
-1 12 10 57.78 2.81
0 -12 -10 2.82 1
0 -12 10 1.59 0.8
0 12 10 0.76 0.67
1 -12 10 23.57 1.76
1 12 10 20.97 1.64
-1 12 -10 26.12 1.92
-3 0 11 0.35 0.52
3 0 -11 1.13 0.8
2 0 -11 -0.36 0.59
-2 0 11 -0.14 0.46
-1 0 11 -0.67 0.37
0 0 11 0.29 0.45
1 0 11 -0.35 0.44
2 0 11 0.12 0.57
-2 0 -11 -0.21 0.47
3 0 11 0.85 0.82
-3 0 -11 -0.03 0.59
3 -1 -11 36.39 2.32
-3 -1 11 35.77 1.7
-3 1 11 39.9 1.93
3 1 -11 36.77 2.22
2 -1 -11 0.12 0.65
-2 -1 11 0.62 0.51
-2 1 11 -0.12 0.47
-1 -1 11 37.43 1.78
-1 1 11 35.14 1.78
0 -1 11 19.8 1.39
0 1 11 18.6 1.32
1 -1 11 19.7 1.48
1 1 11 18.01 1.41
2 -1 11 52.48 2.47
-2 -1 -11 44.23 1.92
2 1 11 52.26 2.44
-2 1 -11 49.9 2.13
-3 -1 -11 0.57 0.69
3 -1 11 0.77 0.79
-3 1 -11 0.95 0.72
3 1 11 0.26 0.74
3 -2 -11 0.92 0.79
-3 -2 11 0.49 0.46
-3 2 11 1.63 0.71
3 2 -11 1.58 0.86
-2 -2 11 5.82 0.86
2 -2 -11 7.56 1.35
-2 2 11 6.31 0.97
1 -2 -11 6.91 1.19
-1 -2 11 6.05 0.9
-1 2 11 6.85 0.98
0 -2 11 28.99 1.63
0 2 11 30.9 1.66
1 -2 11 6.85 1.04
1 2 11 5.17 0.86
-2 -2 -11 9.21 1.04
2 -2 11 10.44 1.41
-2 2 -11 11.62 1.32
2 2 11 10.12 1.35
3 -2 11 -0.63 0.7
-3 2 -11 0.28 0.71
3 2 11 1.31 0.8
3 -3 -11 6.45 1.27
-3 -3 11 7.4 0.89
3 3 -11 8.01 1.26
-3 3 11 7.43 1.09
2 -3 -11 10.22 1.4
-2 -3 11 9.88 1
-2 3 11 12.89 1.34
1 -3 -11 70.9 2.99
-1 -3 11 78.57 2.57
-1 3 11 71.75 2.63
0 -3 -11 1.03 0.65
0 -3 11 1.99 0.65
0 3 11 2.01 0.61
1 -3 11 68.18 2.68
-1 -3 -11 60.76 2.39
1 3 11 68.81 2.55
2 -3 11 29.82 1.95
-2 -3 -11 29.4 1.49
2 3 11 27.26 1.8
-2 3 -11 31.42 1.82
3 -3 11 11.46 1.67
3 3 11 10.41 1.49
3 -4 -11 21.43 1.97
-3 4 11 22.07 1.7
-2 -4 11 103.41 2.86
2 -4 -11 107.41 3.94
-2 4 11 113.17 3.5
1 -4 -11 15.64 1.72
-1 -4 11 13.1 1.09
-1 4 11 14.96 1.43
0 -4 -11 28.99 1.94
0 -4 11 27.15 1.58
0 4 11 29.16 1.65
-1 -4 -11 102.11 3
1 -4 11 98.88 3.32
-1 -4 -11 99.84 3.42
1 4 11 101.14 3.18
-2 -4 -11 25.51 1.65
2 -4 11 29.26 1.96
-2 -4 -11 25.18 1.33
-2 4 -11 25.97 1.74
2 4 11 25.28 1.75
3 -5 -11 2.88 1.04
-3 5 11 4.53 0.97
2 -5 -11 20.94 2.14
-2 -5 11 20.89 1.15
-2 5 11 23.8 1.72
1 -5 -11 3.16 0.96
-1 -5 11 4.28 0.73
-1 5 11 3.48 0.79
0 -5 -11 3.96 0.97
0 -5 11 2.61 0.71
0 5 11 3.37 0.76
-1 -5 -11 9.65 1.28
-1 -5 -11 7.85 0.96
1 -5 11 11.66 1.45
1 5 11 8.99 1.09
-2 -5 -11 0.53 0.4
2 -5 11 1.04 0.76
-2 -5 -11 1.74 0.72
2 5 11 1.19 0.69
-2 5 -11 1.72 0.7
3 -6 -11 23.34 2.19
-3 6 11 23.05 1.86
-2 -6 11 11.92 0.84
2 -6 -11 10.89 1.62
-2 6 11 10.39 1.3
1 -6 -11 -0.84 0.61
-1 -6 11 0.06 0.38
-1 6 11 -0.27 0.54
0 -6 11 8.01 1.04
0 -6 -11 7.81 1.27
0 6 11 8.64 1.16
1 -6 11 10.67 1.4
-1 -6 -11 11.83 1.41
-1 -6 -11 10.23 1.08
1 6 11 10.81 1.28
-2 -6 -11 1.82 0.77
2 -6 11 1.11 0.75
2 6 11 1.85 0.79
-2 6 -11 0.86 0.67
3 -7 -11 0.05 0.96
-3 7 11 -0.48 0.6
2 -7 -11 2.44 1.09
-2 7 11 3.51 0.97
1 -7 -11 1.48 0.86
-1 -7 11 -0.03 0.38
-1 7 11 0.37 0.57
0 -7 11 6.4 0.98
0 -7 -11 6.48 1.2
0 7 11 7.92 1.13
1 -7 11 7.82 1.19
-1 -7 -11 7.7 1.22
1 7 11 6.2 0.99
-2 -7 -11 0.37 0.62
2 -7 11 -0.05 0.6
-2 7 -11 0.28 0.64
2 7 11 1.81 0.75
2 -8 -11 6.6 1.44
-2 8 11 5.34 1.08
-1 -8 11 11.38 0.97
1 -8 -11 8.95 1.41
-1 8 11 12.59 1.49
0 -8 11 23.45 1.52
0 -8 -11 27.92 2.07
0 8 11 23.26 1.59
1 -8 11 21.97 1.68
-1 -8 -11 22.18 1.78
1 8 11 23.26 1.61
2 -8 11 4.07 1.04
2 8 11 2.57 0.82
-2 8 -11 1.93 0.8
2 -9 -11 -1.09 0.65
-2 9 11 1.11 0.81
1 -9 -11 10.07 1.57
-1 -9 11 11.03 0.92
-1 9 11 12.3 1.46
0 -9 11 7.72 1.08
0 -9 -11 6.67 1.31
0 9 11 6.07 1.04
-1 -9 -11 0.31 0.72
1 -9 11 0.47 0.6
1 9 11 -0.22 0.53
2 -9 11 0.58 0.76
2 9 11 0.76 0.73
2 -10 -11 7.85 1.51
-2 10 11 8.04 1.31
1 -10 -11 -0.05 0.85
-1 10 11 -0.41 0.63
0 -10 11 18.57 1.37
0 -10 -11 13.43 1.79
0 10 11 13.74 1.51
-1 -10 -11 -0.5 0.68
1 -10 11 1.05 0.68
-1 10 -11 0.77 0.63
1 10 11 1.1 0.72
1 -11 -11 13.72 1.9
-1 11 11 18.45 1.85
0 -11 11 31.95 1.71
0 -11 -11 31.02 2.34
0 11 11 31.34 1.96
1 -11 11 4.36 0.98
-1 -11 -11 4.85 1.22
1 11 11 3.29 0.88
-1 11 -11 4.71 1.06
0 12 11 7.76 1.22
3 0 -12 11.87 1.62
-3 0 12 11.44 1.2
-2 0 12 44.73 2.07
2 0 -12 45.54 2.52
0 0 12 2.31 0.7
1 0 12 0.04 0.48
-2 0 -12 2.73 0.76
2 0 12 2.98 0.88
3 -1 -12 0.95 0.87
-3 -1 12 0.2 0.5
3 1 -12 1.32 0.85
-3 1 12 1.14 0.61
-2 -1 12 2.16 0.68
2 -1 -12 1.38 0.85
-2 1 12 3.39 0.8
-1 -1 12 9.23 1.18
-1 1 12 9.2 1.09
0 -1 12 45.59 2.14
0 1 12 46.42 2.12
1 -1 12 18.91 1.52
1 1 12 17.05 1.45
-2 -1 -12 0.89 0.57
2 -1 12 1.79 0.78
-2 1 -12 1.83 0.71
2 1 12 0.33 0.65
3 -2 -12 25.32 2.11
-3 -2 12 25 1.45
-3 2 12 26.26 1.77
3 2 -12 24.04 2.04
2 -2 -12 10 1.45
-2 -2 12 13.72 1.18
-2 2 12 9.92 1.21
-1 -2 12 -0.04 0.47
1 -2 -12 0.82 0.76
-1 2 12 0.43 0.57
0 -2 12 36.37 1.9
0 2 12 35.11 1.87
1 -2 12 19.29 1.52
1 2 12 18.79 1.48
-2 -2 -12 2.7 0.74
2 -2 12 3.75 1.04
2 2 12 2.13 0.85
-2 2 -12 3.15 0.81
3 -3 -12 0.92 0.89
3 3 -12 0.11 0.7
-3 3 12 0.31 0.65
-2 -3 12 32.73 1.64
2 -3 -12 29.26 2.15
-2 3 12 36.23 2
-1 -3 12 26.91 1.6
1 -3 -12 34.28 2.19
-1 3 12 30.17 1.81
0 -3 12 0.58 0.5
0 -3 -12 0.3 0.67
0 3 12 0.59 0.55
1 -3 12 21.74 1.64
1 3 12 23.21 1.6
-2 -3 -12 -0.02 0.47
2 -3 12 -0.15 0.56
-2 -3 -12 -0.21 0.61
-2 3 -12 -0.01 0.53
2 3 12 -0.04 0.69
3 -4 -12 6.28 1.3
-3 4 12 6.48 1.1
2 -4 -12 7.31 1.42
-2 -4 12 4.82 0.78
-2 4 12 5.23 0.98
1 -4 -12 41.86 2.44
-1 -4 12 41.13 1.9
-1 4 12 44.23 2.14
0 -4 12 94.24 3.15
0 -4 -12 102.42 3.68
1 -4 12 5.09 1.03
-1 -4 -12 3.56 0.98
1 4 12 2.68 0.74
-2 -4 -12 11.27 1.09
2 -4 12 12.32 1.6
-2 -4 -12 16.63 1.51
2 4 12 12.1 1.47
-2 4 -12 11.85 1.38
3 -5 -12 5.84 1.39
-3 5 12 4.91 1.09
2 -5 -12 9.85 1.65
-2 -5 12 6.92 0.85
-2 5 12 9.02 1.2
1 -5 -12 -0.5 0.73
-1 -5 12 -0.11 0.41
-1 5 12 0.28 0.56
0 -5 -12 4.11 0.98
0 -5 12 4.54 0.9
0 5 12 5.08 0.98
1 -5 12 12.81 1.41
-1 -5 -12 16.81 1.56
1 5 12 16.44 1.42
-2 -5 -12 31.36 1.92
2 5 12 31.56 2.02
-2 5 -12 29.12 1.96
3 -6 -12 4.18 1.28
-3 6 12 3.76 1.01
2 -6 -12 18.98 2.19
-2 -6 12 16.27 1.05
-2 6 12 13.29 1.45
-1 -6 12 31.52 1.63
1 -6 -12 36.32 2.38
-1 6 12 32.07 1.89
0 -6 12 40.75 2.04
0 -6 -12 42.03 2.42
0 6 12 44.03 2.14
-1 -6 -12 0.34 0.68
1 -6 12 0.44 0.6
1 6 12 -0.35 0.53
-2 -6 -12 2.06 0.85
2 -6 12 1.71 0.8
2 6 12 2.85 0.93
-2 6 -12 1.98 0.8
2 -7 -12 66.56 3.34
-2 7 12 62.98 2.82
1 -7 -12 48.81 2.76
-1 -7 12 50.07 2
-1 7 12 46.54 2.33
0 -7 12 2.98 0.76
0 -7 -12 2.28 0.91
0 7 12 3.07 0.87
-1 -7 -12 38.33 2.28
1 -7 12 36.77 2.09
1 7 12 36.54 2.04
2 -7 12 7.21 1.31
-2 7 -12 11.48 1.55
2 7 12 9.19 1.33
2 -8 -12 5.6 1.32
-2 8 12 4.99 1.16
1 -8 -12 14.8 1.93
-1 -8 12 13.24 1.11
-1 8 12 15.29 1.6
0 -8 -12 1.11 0.82
0 -8 12 0.36 0.5
0 8 12 1.02 0.61
-1 -8 -12 19.05 1.73
1 -8 12 16.9 1.73
1 8 12 16.83 1.46
2 -9 -12 8.89 1.63
-2 9 12 6.64 1.2
1 -9 -12 3.93 1.23
-1 -9 12 4.25 0.71
-1 9 12 5.26 1.1
0 -9 -12 5.89 1.39
0 -9 12 4.64 0.88
0 9 12 5.82 1.08
1 -9 12 7.29 1.19
-1 -9 -12 6.63 1.3
1 9 12 7.29 1.16
1 -10 -12 0.97 0.98
-1 10 12 -0.27 0.7
0 -10 -12 8.44 1.5
0 -10 12 8.17 1.09
0 10 12 6.54 1.15
-1 -10 -12 0.53 0.84
1 -10 12 1.49 0.75
1 10 12 0.01 0.62
-1 11 12 1.8 0.85
0 -11 -12 0.99 0.88
0 -11 12 2.65 0.79
0 11 12 1.76 0.84
-3 0 13 0.11 0.57
3 0 -13 -0.07 0.79
2 0 -13 0.3 0.75
-2 0 13 -0.33 0.51
-1 0 13 0.47 0.56
0 0 13 0.2 0.5
1 0 13 -0.13 0.54
-2 0 -13 0.15 0.55
2 0 13 -1.34 0.52
-3 -1 13 9.38 1.09
3 -1 -13 12.87 1.76
-3 1 13 12.99 1.36
3 1 -13 11.31 1.62
2 -1 -13 34.8 2.42
-2 -1 13 32.97 1.84
-2 1 13 31.37 1.86
-1 -1 13 17.28 1.43
-1 1 13 17.6 1.47
0 -1 13 68.73 2.74
0 1 13 66.3 2.68
1 -1 13 9.76 1.32
1 1 13 8.08 1.17
-2 -1 -13 7.77 1.07
2 -1 13 6.09 1.12
2 1 13 8.74 1.3
-2 1 -13 9.04 1.19
3 -2 -13 48.52 2.86
-3 -2 13 48.93 2.07
-3 2 13 50.18 2.39
3 2 -13 48.2 2.82
2 -2 -13 1.7 0.89
-2 -2 13 0.92 0.62
-2 2 13 2.11 0.75
-1 -2 13 1.78 0.69
1 -2 -13 1.36 0.82
-1 2 13 1.1 0.69
0 -2 13 27.65 1.77
0 2 13 27.96 1.78
1 -2 13 8.33 1.25
1 2 13 8.31 1.28
2 -2 13 9.24 1.45
-2 -2 -13 10.53 1.18
-2 2 -13 11.04 1.33
2 2 13 9.34 1.37
3 -3 -13 8.77 1.63
3 3 -13 7.43 1.39
-3 3 13 7.46 1.24
2 -3 -13 0.26 0.69
-2 -3 13 -0.28 0.44
-2 3 13 0.19 0.61
-1 -3 13 2.01 0.69
1 -3 -13 0.93 0.81
-1 3 13 1.65 0.71
0 -3 13 0.83 0.63
0 -3 -13 0.64 0.73
0 3 13 0.46 0.6
1 -3 13 14.69 1.66
1 3 13 14.18 1.58
-2 -3 -13 -0.19 0.67
-2 -3 -13 0.02 0.48
2 -3 13 -0.14 0.67
2 3 13 0.4 0.76
-2 3 -13 -0.4 0.52
3 -4 -13 4.13 1.23
-3 4 13 4 1.02
2 -4 -13 9.11 1.47
-2 -4 13 9.4 1.05
-2 4 13 14.45 1.55
1 -4 -13 31.92 2.28
-1 -4 13 33.6 1.78
-1 4 13 32.41 1.94
0 -4 -13 1.81 0.86
0 -4 13 1.58 0.65
0 4 13 0.87 0.61
-1 -4 -13 8.8 1.33
1 -4 13 9.64 1.29
1 4 13 11.59 1.35
-2 -4 -13 19.87 1.71
-2 -4 -13 18.22 1.32
2 -4 13 16.78 1.84
-2 4 -13 17.52 1.78
2 4 13 18.85 1.89
2 -5 -13 -0.18 0.8
-2 -5 13 0.86 0.47
-2 5 13 1.15 0.69
1 -5 -13 0.27 0.75
-1 -5 13 0.52 0.51
-1 5 13 0.19 0.65
0 -5 -13 5.32 1.14
0 -5 13 5.09 0.95
0 5 13 5.23 1
1 -5 13 2.97 0.93
-1 -5 -13 1.04 0.83
1 5 13 2.52 0.81
-2 -5 -13 5.78 1.15
2 -5 13 6.51 1.29
2 5 13 1.98 0.86
-2 5 -13 4.11 1.06
-2 -6 13 0.14 0.43
2 -6 -13 1.28 1.07
-2 6 13 0.29 0.68
1 -6 -13 98.97 4.01
-1 -6 13 95.77 3.08
-1 6 13 98.34 3.47
0 -6 13 57.09 2.5
0 -6 -13 62.33 3.02
0 6 13 60.29 2.6
1 -6 13 0.12 0.56
-1 -6 -13 0.89 0.73
1 6 13 0.86 0.62
2 -7 -13 1.22 1.02
-2 7 13 1.1 0.76
1 -7 -13 0.04 0.87
-1 -7 13 1.68 0.58
-1 7 13 0.56 0.66
0 -7 -13 2.83 1.05
0 -7 13 2.25 0.74
0 7 13 3.34 0.89
1 -7 13 5.52 1.13
-1 -7 -13 3.49 1.1
1 7 13 5.89 1.07
2 -8 -13 1.86 1.17
-2 8 13 3.1 1
-1 -8 13 -0.03 0.44
1 -8 -13 -0.46 0.73
-1 8 13 0.06 0.66
0 -8 -13 1.17 0.79
0 -8 13 0.44 0.53
0 8 13 1.54 0.86
-1 -8 -13 2.59 0.94
1 -8 13 2.49 0.85
1 8 13 0.65 0.68
1 -9 -13 0.96 1.04
-1 9 13 1.87 0.81
0 -9 -13 7.1 1.44
0 -9 13 5.11 1
0 9 13 6.47 1.15
1 -9 13 13.76 1.58
1 9 13 11.62 1.45
0 -10 13 1.35 0.67
0 10 13 2.21 0.88
-2 0 14 1.6 0.75
2 0 -14 2.03 1.11
-1 0 14 129.58 3.99
0 0 14 34.54 2.06
1 0 14 25.91 1.94
2 0 14 1.59 0.81
-2 0 -14 1.93 0.75
2 -1 -14 1.23 0.91
-2 -1 14 1.19 0.66
-2 1 14 2.79 0.82
-1 -1 14 17.75 1.54
0 1 14 6.19 1.12
1 -1 14 1.94 0.77
1 1 14 1.27 0.76
-2 -1 -14 0.5 0.67
2 -1 14 0.14 0.8
2 1 14 1.03 0.81
-2 1 -14 -0.23 0.61
2 -2 -14 48.5 2.84
-2 -2 14 46.97 2.24
-2 2 14 49.94 2.45
1 -2 -14 -0.28 0.76
-1 -2 14 0.02 0.56
-1 2 14 0.57 0.63
0 -2 14 1.13 0.72
0 2 14 1.29 0.69
1 2 14 34 2.11
-2 -2 -14 13.24 1.34
2 -2 14 16.41 1.83
2 2 14 15.29 1.79
-2 2 -14 12.13 1.41
-2 -3 14 11.83 1.28
2 -3 -14 14.88 1.94
-2 3 14 12.38 1.47
1 -3 -14 4.37 1.23
-1 -3 14 5.42 1.01
-1 3 14 4.28 0.97
0 -3 -14 21.17 2.19
0 -3 14 20.5 1.64
1 -3 14 7.42 1.2
-1 -3 -14 10.48 1.54
1 3 14 11.47 1.51
-2 -4 14 2.42 0.7
2 -4 -14 5.41 1.37
-2 4 14 2.16 0.85
-1 -4 14 0.17 0.52
1 -4 -14 0.28 0.9
-1 4 14 0.28 0.65
0 -4 14 0.17 0.55
0 -4 -14 0.04 0.77
0 4 14 0 0.57
-1 -4 -14 7.26 1.39
1 -4 14 7.41 1.29
1 4 14 7.96 1.26
2 -5 -14 5.46 1.35
-2 -5 14 3.69 0.73
-2 5 14 4.9 1.03
1 -5 -14 1.65 0.89
-1 -5 14 1.68 0.69
-1 5 14 2.51 0.86
0 -5 14 21.64 1.66
0 -5 -14 15.8 1.78
0 5 14 20.82 1.65
-1 -5 -14 0.82 0.78
1 -5 14 0.54 0.68
1 5 14 0.14 0.64
2 -6 -14 11.21 1.69
-2 6 14 13.35 1.56
-1 -6 14 6.61 1.01
1 -6 -14 6.76 1.36
-1 6 14 10.42 1.36
0 -6 -14 0.23 0.77
0 -6 14 0.18 0.57
0 6 14 -0.29 0.53
-1 -6 -14 0.77 0.78
1 -6 14 0.13 0.61
1 6 14 0.41 0.69
-2 7 14 5.07 1.18
1 -7 -14 2.62 1.13
-1 -7 14 3.41 0.78
-1 7 14 3.28 0.96
0 -7 14 30.34 1.95
0 -7 -14 29.38 2.31
0 7 14 28.78 1.99
1 -7 14 10.29 1.52
-1 -7 -14 9.24 1.58
1 7 14 9.17 1.31
1 -8 -14 12.25 1.69
-1 -8 14 13.79 1.22
-1 8 14 12.88 1.55
0 -8 -14 10.12 1.66
0 -8 14 7.4 1.11
0 8 14 7.19 1.17
-2 0 15 0.87 0.69
2 0 -15 -0.46 0.74
-1 0 15 0.95 0.68
0 0 15 -0.35 0.6
1 0 15 -0.44 0.63
2 -1 -15 3.48 1.28
-2 -1 15 1.65 0.79
-2 1 15 2.02 0.81
-1 -1 15 6.9 1.12
-1 1 15 9.76 1.31
0 -1 15 14.32 1.63
0 1 15 16.16 1.71
1 -1 15 1.95 0.79
1 1 15 1.84 0.85
2 -2 -15 36.84 2.66
-2 -2 15 41.91 2.16
1 -2 -15 -0.81 0.72
-1 -2 15 1.21 0.68
-1 2 15 -1.21 0.49
0 -2 15 7.14 1.2
0 2 15 6.95 1.11
1 -2 15 0.63 0.67
1 2 15 -0.37 0.59
2 -3 -15 0.1 0.83
-2 -3 15 0.51 0.62
-2 3 15 1.72 0.82
-1 -3 15 25.47 1.78
1 -3 -15 27.82 2.34
0 -3 -15 1.06 0.94
0 -3 15 1.34 0.69
0 3 15 2.28 0.83
1 -3 15 -0.32 0.59
-1 -3 -15 0.62 0.9
1 3 15 1.18 0.83
2 -4 -15 -0.25 0.85
-2 -4 15 0.52 0.54
-2 4 15 0.91 0.8
-1 -4 15 11.95 1.33
1 -4 -15 12.95 1.69
-1 4 15 13.28 1.52
0 -4 15 5.52 1.06
0 -4 -15 6.91 1.46
0 4 15 6.82 1.22
1 -4 15 6.18 1.29
-1 -4 -15 6.62 1.41
1 4 15 6.95 1.25
-2 -5 15 0.24 0.54
-2 5 15 -0.34 0.69
1 -5 -15 6.5 1.36
-1 -5 15 8.24 1.15
-1 5 15 6.78 1.17
0 -5 15 -0.5 0.47
0 -5 -15 1.08 0.89
0 5 15 -0.61 0.55
1 -5 15 4.55 1.07
1 5 15 3.39 1
1 -6 -15 2.44 0.99
-1 -6 15 2.24 0.74
-1 6 15 2.32 0.95
0 -6 -15 23.21 2.12
0 -6 15 22.81 1.78
0 6 15 22.78 1.81
-1 -7 15 5.46 0.97
-1 7 15 4.76 1.07
0 -7 15 -0.21 0.54
0 7 15 0.02 0.59
-1 0 16 25.23 1.91
1 0 16 27.68 2.33
-1 1 16 19.48 1.74
0 -1 16 0.65 0.72
0 1 16 0.37 0.72
-1 -2 16 3.49 0.98
1 -2 -16 4.7 1.31
-1 2 16 2.48 0.87
0 -2 16 2.97 0.92
0 2 16 3.46 0.96
1 -3 -16 0.05 0.96
-1 -3 16 0.34 0.67
-1 3 16 1.04 0.75
0 -3 16 0.45 0.7
0 -3 -16 0.72 0.96
0 3 16 -0.2 0.62
1 -4 -16 2.84 1.18
-1 -4 16 3.38 0.86
-1 4 16 1.86 0.83
0 -4 16 8.47 1.33
0 -4 -16 8.06 1.63
