#------------------------------------------------------------------------------
#$Date: 2019-11-11 19:58:27 +0200 (Mon, 11 Nov 2019) $
#$Revision: 227178 $
#$URL: file:///home/coder/svn-repositories/cod/cif/4/03/57/4035730.cif $
#------------------------------------------------------------------------------
#
# This file is available in the Crystallography Open Database (COD),
# http://www.crystallography.net/
#
# All data on this site have been placed in the public domain by the
# contributors.
#
data_4035730
loop_
_publ_author_name
'Bhilare, Shatrughn'
'Murthy Bandaru, Siva Sankar'
'Shah, Jagrut'
'Chrysochos, Nicolas'
'Schulzke, Carola'
'Sanghvi, Yogesh S.'
'Kapdi, Anant R.'
_publ_section_title
;
 Pd/PTABS: Low Temperature Etherification of Chloroheteroarenes.
;
_journal_issue                   21
_journal_name_full               'The Journal of organic chemistry'
_journal_page_first              13088
_journal_page_last               13102
_journal_paper_doi               10.1021/acs.joc.8b01840
_journal_volume                  83
_journal_year                    2018
_chemical_formula_moiety         'C13 H8 Cl N3 O'
_chemical_formula_sum            'C13 H8 Cl N3 O'
_chemical_formula_weight         257.67
_space_group_crystal_system      triclinic
_space_group_IT_number           2
_space_group_name_Hall           '-P 1'
_space_group_name_H-M_alt        'P -1'
_atom_sites_solution_hydrogens   geom
_audit_creation_method           SHELXL-2016/6
_cell_angle_alpha                105.429(9)
_cell_angle_beta                 98.805(9)
_cell_angle_gamma                111.433(9)
_cell_formula_units_Z            2
_cell_length_a                   7.8520(9)
_cell_length_b                   8.2413(10)
_cell_length_c                   9.9554(10)
_cell_measurement_reflns_used    6290
_cell_measurement_temperature    170(2)
_cell_measurement_theta_max      58.9
_cell_measurement_theta_min      7.4
_cell_volume                     555.12(13)
_computing_cell_refinement       'X-Area by STOE & Cie GmbH 2010'
_computing_data_collection       'X-Area by STOE & Cie GmbH 2010'
_computing_data_reduction        'X-Area by STOE & Cie GmbH 2010'
_computing_molecular_graphics    'XP Version 5.1 by Bruker AXS 1998'
_computing_publication_material  'CIFTAB (Sheldrick, 2016)'
_computing_structure_refinement  'SHELXL-2016 (Sheldrick, 2016)'
_computing_structure_solution    'SHELXT-2016 (Sheldrick, 2016)'
_diffrn_ambient_temperature      170(2)
_diffrn_detector_area_resol_mean 6.67
_diffrn_measured_fraction_theta_full 0.989
_diffrn_measured_fraction_theta_max 0.983
_diffrn_measurement_device_type  'STOE IPDS2T'
_diffrn_measurement_method       \w
_diffrn_radiation_type           MoK\a
_diffrn_radiation_wavelength     0.71073
_diffrn_reflns_av_R_equivalents  0.0838
_diffrn_reflns_av_unetI/netI     0.0886
_diffrn_reflns_Laue_measured_fraction_full 0.989
_diffrn_reflns_Laue_measured_fraction_max 0.983
_diffrn_reflns_limit_h_max       10
_diffrn_reflns_limit_h_min       -10
_diffrn_reflns_limit_k_max       11
_diffrn_reflns_limit_k_min       -11
_diffrn_reflns_limit_l_max       13
_diffrn_reflns_limit_l_min       -12
_diffrn_reflns_number            6290
_diffrn_reflns_point_group_measured_fraction_full 0.989
_diffrn_reflns_point_group_measured_fraction_max 0.983
_diffrn_reflns_theta_full        25.242
_diffrn_reflns_theta_max         29.461
_diffrn_reflns_theta_min         3.678
_diffrn_source                   'fine-focus sealed tube'
_exptl_absorpt_coefficient_mu    0.333
_exptl_absorpt_correction_T_max  0.9780
_exptl_absorpt_correction_T_min  0.8822
_exptl_absorpt_correction_type   numerical
_exptl_absorpt_process_details   'face indexed'
_exptl_crystal_colour            colourless
_exptl_crystal_density_diffrn    1.542
_exptl_crystal_description       block
_exptl_crystal_F_000             264
_exptl_crystal_size_max          0.222
_exptl_crystal_size_mid          0.154
_exptl_crystal_size_min          0.107
_refine_diff_density_max         0.299
_refine_diff_density_min         -0.421
_refine_diff_density_rms         0.074
_refine_ls_extinction_method     none
_refine_ls_goodness_of_fit_ref   0.866
_refine_ls_hydrogen_treatment    constr
_refine_ls_matrix_type           full
_refine_ls_number_parameters     163
_refine_ls_number_reflns         3039
_refine_ls_number_restraints     0
_refine_ls_restrained_S_all      0.866
_refine_ls_R_factor_all          0.0998
_refine_ls_R_factor_gt           0.0519
_refine_ls_shift/su_max          0.000
_refine_ls_shift/su_mean         0.000
_refine_ls_structure_factor_coef Fsqd
_refine_ls_weighting_details
'w=1/[\s^2^(Fo^2^)+(0.0851P)^2^] where P=(Fo^2^+2Fc^2^)/3'
_refine_ls_weighting_scheme      calc
_refine_ls_wR_factor_gt          0.1280
_refine_ls_wR_factor_ref         0.1505
_reflns_Friedel_coverage         0.000
_reflns_number_gt                1709
_reflns_number_total             3039
_reflns_threshold_expression     'I > 2\s(I)'
_cod_data_source_file            jo8b01840_si_007.cif
_cod_data_source_block           7c
_cod_original_cell_volume        555.11(12)
_cod_database_code               4035730
_shelx_shelxl_version_number     2016/6
_shelx_space_group_comment
;
The symmetry employed for this shelxl refinement is uniquely defined
by the following loop, which should always be used as a source of
symmetry information in preference to the above space-group names.
They are only intended as comments.
;
_shelx_estimated_absorpt_t_min   0.930
_shelx_estimated_absorpt_t_max   0.965
_exptl_absorpt_special_details
;
programs X-Red32 and X-Shape by STOE & Cie GmbH 2010
;
_shelx_res_file
;
TITL SIV-01-274 in P-1
    shelx.res
    created by SHELXL-2016/6 at 18:01:44 on 02-May-2018
CELL  0.71073   7.8520   8.2413   9.9554  105.429   98.805  111.433
ZERR     2.00   0.0009   0.0010   0.0010    0.009    0.009    0.009
LATT   1
SFAC  C    H    N    O    CL
UNIT  26 16 6 2 2
MERG   2
EQIV $1 -x+2, -y+2, -z+2
EQIV $2 -x+1, -y+1, -z+2
EQIV $3 -x+1, -y+1, -z+1
HTAB C2 N2_$1
HTAB C3 N3_$2
HTAB C12 Cl1_$3
FMAP   2
SIZE     0.107   0.154   0.222
PLAN -5
ACTA
BOND   $H
LIST   6
L.S.  24
TEMP  -103.00
WGHT    0.085100
FVAR       0.96700
MOLE    1
CL1   5    0.619377    1.040980    0.727587    11.00000    0.04264    0.03993 =
         0.04450    0.01971    0.01981    0.02024
N1    3    0.434468    0.801302    0.837272    11.00000    0.03102    0.03280 =
         0.02877    0.01044    0.00921    0.01734
N2    3    0.773111    0.958516    0.932747    11.00000    0.03253    0.04075 =
         0.03851    0.00917    0.01007    0.01908
N3    3    0.249608    0.362137    0.674878    11.00000    0.03215    0.03952 =
         0.03508    0.01537    0.00972    0.01987
O1    4    0.260242    0.593559    0.934622    11.00000    0.03468    0.04054 =
         0.03049    0.01540    0.00990    0.01689
C1    1    0.608084    0.919029    0.846488    11.00000    0.03557    0.03287 =
         0.03303    0.00790    0.01281    0.01960
C2    1    0.759828    0.868001    1.027922    11.00000    0.03380    0.04454 =
         0.03631    0.00662    0.00426    0.02272
AFIX  43
H2    2    0.873882    0.890051    1.093746    11.00000   -1.20000
AFIX   0
C3    1    0.589918    0.745623    1.034555    11.00000    0.04089    0.03731 =
         0.03390    0.01066    0.00996    0.02427
AFIX  43
H3    2    0.582655    0.686169    1.104561    11.00000   -1.20000
AFIX   0
C4    1    0.429389    0.714452    0.932231    11.00000    0.03464    0.03203 =
         0.02968    0.00849    0.01115    0.02009
C5    1    0.102302    0.526081    0.814962    11.00000    0.03165    0.03490 =
         0.03246    0.01635    0.01109    0.01633
C6    1   -0.046515    0.567297    0.832449    11.00000    0.03652    0.03777 =
         0.03951    0.01612    0.01550    0.01875
AFIX  43
H6    2   -0.039374    0.648574    0.923158    11.00000   -1.20000
AFIX   0
C7    1   -0.212226    0.489064    0.715431    11.00000    0.03514    0.04200 =
         0.04781    0.01999    0.01622    0.02204
AFIX  43
H7    2   -0.317457    0.516692    0.727542    11.00000   -1.20000
AFIX   0
C8    1   -0.221484    0.374275    0.585460    11.00000    0.02815    0.03833 =
         0.04168    0.01869    0.00813    0.01497
AFIX  43
H8    2   -0.332106    0.325554    0.506431    11.00000   -1.20000
AFIX   0
C9    1   -0.069973    0.326060    0.565624    11.00000    0.03096    0.03464 =
         0.03325    0.01695    0.00991    0.01515
C10   1    0.096627    0.402670    0.682901    11.00000    0.03136    0.03385 =
         0.03458    0.01866    0.01247    0.01710
C11   1   -0.071906    0.206368    0.433985    11.00000    0.03340    0.03877 =
         0.03260    0.01448    0.00829    0.01583
AFIX  43
H11   2   -0.178730    0.153923    0.351285    11.00000   -1.20000
AFIX   0
C12   1    0.081162    0.166612    0.426551    11.00000    0.04187    0.04173 =
         0.03463    0.01291    0.01294    0.02114
AFIX  43
H12   2    0.081966    0.085396    0.338970    11.00000   -1.20000
AFIX   0
C13   1    0.237140    0.247291    0.549942    11.00000    0.03738    0.04337 =
         0.03797    0.01572    0.01435    0.02379
AFIX  43
H13   2    0.341629    0.216602    0.542646    11.00000   -1.20000
AFIX   0
HKLF    4




REM  SIV-01-274 in P-1
REM R1 =  0.0519 for    1709 Fo > 4sig(Fo)  and  0.0998 for all    3039 data
REM    163 parameters refined using      0 restraints

END

WGHT      0.0851      0.0000

REM Highest difference peak  0.299,  deepest hole -0.421,  1-sigma level  0.074
Q1    1   0.5972  0.9713  0.7874  11.00000  0.05    0.30
Q2    1   0.6438  1.1201  0.6543  11.00000  0.05    0.28
Q3    1   0.2331  0.6240  0.6580  11.00000  0.05    0.28
Q4    1   0.8599  1.0583  0.9560  11.00000  0.05    0.28
Q5    1   0.3251  0.8856  0.6141  11.00000  0.05    0.28
;
_shelx_res_checksum              79283
_shelx_hkl_file
;
   2   0   0  265.69    7.85   0
  -2   0   0  299.33    8.19   0
  -3   0   0   33.84    5.10   0
   3   0   0   34.28    4.95   0
   4   0   0    3.20    4.41   0
  -4   0   0    2.49    4.55   0
   5   0   0  216.09    6.23   0
  -5   0   0  202.34    6.55   0
  -6   0   0  941.85   10.71   0
   6   0   0  857.08    9.88   0
  -7   0   0  101.24    6.10   0
   7   0   0  108.03    6.20   0
   8   0   0   25.47    6.08   0
  -8   0   0   19.64    5.65   0
  -9   0   0    2.48    6.77   0
   9   0   0   -1.55    6.86   0
  10  -1   0   -1.77   10.64   0
  10  -1   0    4.90    7.66   0
   9  -1   0   -0.30    6.45   0
  -9   1   0    4.41    5.83   0
   9  -1   0    2.16    8.78   0
   8  -1   0   16.78    5.69   0
  -8   1   0    5.88    5.64   0
  -7   1   0   51.23    5.33   0
   7  -1   0   55.94    5.39   0
  -6   1   0   26.41    5.10   0
   6  -1   0   26.35    4.83   0
  -5   1   0  313.43    6.74   0
   5  -1   0  257.68    6.19   0
   4  -1   0  373.85    7.10   0
  -4   1   0  397.01    7.13   0
  -3   1   0   17.89    4.62   0
   3  -1   0   20.89    4.89   0
   2  -1   0  332.99    8.74   0
  -1  -1   0 2432.59   20.35   0
   1   1   0 2386.67   20.03   0
   2   1   0    1.84    5.05   0
  -2  -1   0   -1.46    4.87   0
   3   1   0  509.73    8.18   0
  -3  -1   0  507.42    8.35   0
  -4  -1   0  352.89    7.79   0
   4   1   0  429.18    7.58   0
   5   1   0  133.75    6.71   0
  -5  -1   0  175.46    7.00   0
  -6  -1   0   -0.10    4.84   0
   6   1   0    1.48    5.01   0
  -7  -1   0    3.16    5.27   0
   7   1   0    4.04    5.43   0
  -8  -1   0   12.90    6.06   0
   8   1   0   14.39    6.27   0
  -9  -1   0   10.04    7.87   0
   9   1   0   27.22    7.92   0
  10  -2   0   20.99    7.32   0
  10  -2   0    7.00   12.34   0
   9  -2   0    2.91    9.69   0
   9  -2   0    8.02    6.15   0
   8  -2   0   46.99    9.19   0
   8  -2   0   46.91    5.51   0
   7  -2   0  138.97    9.76   0
   7  -2   0  127.35    6.03   0
   6  -2   0   27.15    4.99   0
   5  -2   0  256.75    6.13   0
   4  -2   0  137.63    5.64   0
   4  -2   0  121.45   12.80   0
   3  -2   0  222.08    6.40   0
   2  -2   0   94.07    4.95   0
  -1   2   0  639.06   11.43   0
   1  -2   0  626.47   11.50   0
   0   2   0  151.71    7.49   0
   0  -2   0  155.39    7.77   0
   1   2   0  124.12    6.46   0
  -1  -2   0  139.19    6.53   0
   2   2   0  567.02    8.66   0
  -2  -2   0  591.16    8.94   0
   3   2   0  430.93    7.65   0
  -3  -2   0  428.45    7.76   0
  -4  -2   0   20.47    4.83   0
   4   2   0   20.24    5.23   0
  -5  -2   0    5.14    4.77   0
   5   2   0    4.85    4.89   0
  -6  -2   0    6.16    5.38   0
   6   2   0    6.29    5.11   0
   7   2   0    5.91    6.15   0
  -7  -2   0   11.88    5.85   0
   8   2   0   68.11    7.90   0
  -8  -2   0   62.56    7.16   0
  10  -3   0    4.08    6.29   0
   9  -3   0   55.18    6.61   0
   8  -3   0   37.69    5.33   0
   7  -3   0   17.54    4.95   0
   6  -3   0   47.11    5.00   0
   5  -3   0  584.01    7.56   0
   4  -3   0   30.24    4.82   0
   3  -3   0  859.76    9.61   0
   2  -3   0   76.95    5.52   0
  -2   3   0   70.65    5.33   0
  -1   3   0  702.06    9.99   0
   1  -3   0  672.74    9.91   0
   0  -3   0   94.35    6.09   0
   0   3   0  106.11    6.01   0
  -1  -3   0   65.94    5.45   0
   1   3   0   91.96    5.73   0
  -2  -3   0  320.78    7.68   0
   2   3   0  380.03    7.51   0
   3   3   0    7.99    4.99   0
  -3  -3   0    3.02    4.87   0
  -4  -3   0    9.42    4.94   0
   4   3   0   24.24    5.15   0
   5   3   0    1.78    5.41   0
  -5  -3   0    1.41    5.31   0
   6   3   0    0.07    5.78   0
  -6  -3   0   -0.24    5.60   0
   7   3   0   14.73    6.64   0
  -7  -3   0   20.20    6.41   0
  -8  -3   0    6.92    7.60   0
   8   3   0   22.42    8.06   0
  10  -4   0   57.88    6.89   0
   9  -4   0    4.17    6.17   0
   8  -4   0   13.96    5.14   0
   7  -4   0   -4.38    4.74   0
   6  -4   0   46.76    4.85   0
   5  -4   0  516.40    7.20   0
  -4   4   0  824.36   25.73   0
   4  -4   0  902.05    9.16   0
   3  -4   0  477.14    7.62   0
   2  -4   0  268.50    6.83   0
  -2   4   0  288.34    6.72   0
  -1   4   0  184.82    6.08   0
   1  -4   0  193.96    6.51   0
   0  -4   0   16.65    4.90   0
   0   4   0   21.68    5.03   0
   1   4   0  192.69    6.51   0
  -1  -4   0  181.38    6.53   0
   2   4   0   14.83    5.13   0
  -2  -4   0    8.68    5.03   0
  -3  -4   0  108.18    6.08   0
   3   4   0  125.04    6.46   0
   4   4   0    4.01    5.29   0
  -4  -4   0    3.36    5.13   0
   5   4   0   -1.78    5.69   0
  -5  -4   0    2.22    5.56   0
  -6  -4   0    5.33    6.33   0
   6   4   0   11.33    6.77   0
  -7  -4   0   -2.29    7.41   0
   7   4   0   -0.02    7.49   0
  10  -5   0    5.83    6.66   0
   9  -5   0   17.41    5.89   0
   8  -5   0    3.15    4.88   0
   7  -5   0   48.29    5.06   0
   7  -5   0   39.85    4.82   0
   6  -5   0   30.23    4.70   0
   6  -5   0   29.49    4.63   0
   5  -5   0    5.76    4.66   0
   4  -5   0    7.03    4.60   0
   3  -5   0   18.94    4.84   0
  -3   5   0   24.19    4.93   0
  -2   5   0   53.30    5.29   0
   2  -5   0   49.68    5.56   0
  -1   5   0    3.11    4.94   0
   1  -5   0    9.57    5.25   0
   0   5   0  114.03    5.98   0
   0  -5   0   91.53    5.95   0
   1   5   0   43.43    5.41   0
  -1  -5   0   27.86    5.87   0
  -2  -5   0   45.91    5.52   0
   2   5   0   45.33    5.44   0
   3   5   0   45.40    5.68   0
  -3  -5   0   31.59    5.49   0
  -4  -5   0    0.97    5.66   0
   4   5   0    8.59    5.70   0
  -5  -5   0   12.68    6.72   0
   5   5   0   35.62    6.95   0
   6   5   0    1.02    7.49   0
  -6  -5   0    6.30    7.26   0
  10  -6   0    7.40    6.69   0
  10  -6   0   18.87    7.11   0
   9  -6   0    7.43    6.23   0
   9  -6   0   -1.93    5.89   0
   8  -6   0   56.78    5.47   0
   8  -6   0   65.20    5.58   0
   7  -6   0    1.53    5.04   0
   7  -6   0    5.85    5.03   0
   6  -6   0   42.32    5.11   0
   5  -6   0   10.35    4.73   0
  -5   6   0    5.65    8.72   0
   4  -6   0    3.69    4.96   0
   3  -6   0  182.45    6.69   0
  -3   6   0  206.82    6.35   0
   2  -6   0  174.15    6.88   0
  -2   6   0  198.36    6.47   0
  -1   6   0    8.06    5.06   0
   1  -6   0    1.77    5.40   0
   0  -6   0   11.48    5.20   0
   0   6   0    6.31    4.99   0
  -1  -6   0   51.29    5.99   0
   1   6   0   71.94    5.88   0
   2   6   0   49.00    5.68   0
  -2  -6   0   52.61    5.84   0
  -3  -6   0    4.48    5.83   0
   3   6   0    3.63    5.95   0
   4   6   0   -7.13    6.73   0
  -4  -6   0   -4.19    6.88   0
   5   6   0    8.19    6.70   0
  -5  -6   0   11.33    7.22   0
  10  -7   0    5.71    6.30   0
  10  -7   0   -1.51    6.77   0
   9  -7   0   -0.50    5.76   0
   9  -7   0    5.07    6.57   0
   8  -7   0   11.26    5.22   0
   8  -7   0    9.16    6.10   0
   7  -7   0  190.30    6.16   0
   7  -7   0  160.49    5.79   0
   6  -7   0   17.68    5.34   0
   5  -7   0    3.35    5.06   0
   4  -7   0   13.11    4.93   0
  -3   7   0  262.30    6.80   0
   3  -7   0  256.42    7.00   0
   2  -7   0   94.11    6.08   0
  -2   7   0  112.75    5.66   0
  -1   7   0   36.72    5.40   0
   1  -7   0   27.52    5.77   0
   0   7   0   15.58    5.67   0
   0  -7   0   14.79    5.49   0
   1   7   0   67.67    5.90   0
  -1  -7   0   57.61    6.22   0
  -2  -7   0    3.21    6.13   0
   2   7   0    2.24    5.92   0
  -3  -7   0   86.03    7.35   0
   3   7   0   98.71    6.74   0
  -4  -7   0    0.78    7.59   0
   4   7   0    0.10    6.75   0
   9  -8   0    6.62    6.57   0
   9  -8   0    2.34    7.05   0
   8  -8   0    9.53    6.13   0
   8  -8   0   20.32    6.07   0
   7  -8   0    6.61    5.91   0
  -6   8   0   22.20    9.69   0
   6  -8   0   23.03    6.04   0
   5  -8   0   24.70    5.62   0
   4  -8   0  190.98    6.99   0
  -4   8   0  221.44    7.11   0
   3  -8   0   13.25    6.25   0
  -3   8   0   13.84    5.63   0
   2  -8   0   15.87    6.03   0
  -2   8   0   24.39    5.08   0
   1  -8   0    1.18    5.84   0
  -1   8   0    0.18    5.47   0
   0  -8   0   -3.74    5.76   0
   0   8   0    3.15    5.98   0
   1   8   0    7.70    6.65   0
  -1  -8   0    2.32    7.23   0
  -2  -8   0  232.16    8.80   0
   2   8   0  202.26    8.67   0
  -3  -8   0   14.82    8.20   0
   3   8   0   16.42    7.18   0
   9  -9   0    3.90    7.69   0
   9  -9   0    4.78    7.08   0
   8  -9   0    7.41    6.72   0
   8  -9   0    3.61    6.09   0
   7  -9   0   -3.22    6.53   0
  -6   9   0    3.37    7.98   0
   6  -9   0   -0.00    6.17   0
   5  -9   0   20.57    6.32   0
  -4   9   0    5.51    5.97   0
   4  -9   0   -1.02    6.00   0
   3  -9   0    9.73    6.57   0
  -3   9   0   31.13    6.33   0
  -2   9   0    7.93    6.21   0
   2  -9   0    3.79    6.00   0
   1  -9   0   15.70    6.83   0
  -1   9   0   15.49    6.37   0
   0  -9   0   28.30    7.26   0
   0   9   0   21.16    6.99   0
   1   9   0    5.18    7.27   0
  -1  -9   0   -6.08    7.85   0
   8 -10   0   63.51    8.23   0
  -7  10   0   27.05   14.94   0
   7 -10   0   -5.32    7.62   0
   6 -10   0    4.92    7.01   0
  -6  10   0    0.96    9.65   0
   5 -10   0    2.04    6.94   0
   4 -10   0   -2.46    7.07   0
  -4  10   0    2.50    6.48   0
  -3  10   0   40.18    7.06   0
   3 -10   0   23.57    7.19   0
  -2  10   0   29.55    6.49   0
   2 -10   0   24.19    7.54   0
  -1  10   0   -1.01    6.89   0
   1 -10   0    4.36    8.04   0
  -3  11  -1   11.05    7.30   0
  -4  11  -1   11.81    9.60   0
  -4  11  -1    2.34    7.26   0
   4 -11   1    6.42    7.43   0
   5 -11   1   -3.24    7.87   0
  -5  11  -1   -2.24    9.12   0
   0  10  -1   -0.85    6.81   0
   0 -10   1    0.55    8.24   0
   1 -10   1    7.21    7.86   0
  -1  10  -1   11.18    7.04   0
   2 -10   1   11.90    6.59   0
  -2  10  -1   16.69    6.74   0
   3 -10   1   62.93    7.12   0
  -3  10  -1   61.50    6.81   0
  -4  10  -1   99.79    6.58   0
   4 -10   1   88.63    7.46   0
   5 -10   1    1.32    6.64   0
   6 -10   1   10.40    6.44   0
  -6  10  -1    4.60    9.58   0
   7 -10   1   -5.53    6.52   0
   8 -10   1   -0.26    7.28   0
  -2  -9   1    5.21    8.25   0
   2   9  -1    3.78    8.01   0
  -1  -9   1    3.19    6.67   0
   1   9  -1    4.50    6.93   0
   0  -9   1   48.34    7.25   0
   0   9  -1   55.52    6.49   0
  -1   9  -1  138.72    6.69   0
   1  -9   1  132.14    7.41   0
   2  -9   1   32.36    6.50   0
  -2   9  -1   44.55    5.69   0
  -3   9  -1   22.44    5.70   0
   3  -9   1    3.85    6.72   0
   4  -9   1   47.93    6.16   0
  -4   9  -1   42.36    5.83   0
  -5   9  -1   91.67    8.26   0
   5  -9   1   77.49    6.43   0
  -6   9  -1  108.03    9.74   0
   6  -9   1   57.87    6.84   0
   7  -9   1   22.19    6.10   0
   8  -9   1    8.41    6.74   0
   8  -9   1    0.12    7.02   0
   9  -9   1   11.49    7.73   0
   9  -9   1    1.46    7.51   0
  -3  -8   1    9.40    7.14   0
   3   8  -1    9.65    7.40   0
  -2  -8   1   -0.15    6.78   0
   2   8  -1    5.28    6.08   0
  -1  -8   1    4.59    6.28   0
   1   8  -1    3.41    6.01   0
   0   8  -1   48.26    5.60   0
   0  -8   1   42.31    5.92   0
  -1   8  -1   42.36    5.46   0
   1  -8   1   42.66    5.89   0
   2  -8   1    2.45    5.59   0
  -2   8  -1   10.69    5.88   0
   3  -8   1    5.35    5.48   0
  -3   8  -1    6.26    5.04   0
  -4   8  -1   66.69    5.85   0
   4  -8   1   69.85    5.88   0
   5  -8   1   72.84    5.63   0
  -5   8  -1   80.50    8.10   0
   6  -8   1   51.34    5.55   0
  -6   8  -1   44.71   11.41   0
   7  -8   1    8.01    5.65   0
   8  -8   1   14.03    5.88   0
   8  -8   1   24.40    6.21   0
   9  -8   1   19.94    6.21   0
   9  -8   1   28.60    6.67   0
   4   7  -1   32.87    7.26   0
  -4  -7   1   28.66    6.61   0
   3   7  -1   -6.82    6.56   0
  -3  -7   1    1.58    5.80   0
  -2  -7   1   -4.15    5.70   0
   2   7  -1   -1.85    5.46   0
  -1  -7   1    1.74    5.49   0
   1   7  -1    7.58    4.88   0
   0  -7   1   13.15    5.69   0
   0   7  -1   19.76    5.43   0
   1  -7   1  193.13    6.96   0
  -1   7  -1  231.61    6.77   0
  -2   7  -1   17.25    4.81   0
   2  -7   1   16.81    5.15   0
   3  -7   1  180.62    6.47   0
  -3   7  -1  182.87    6.34   0
   4  -7   1  134.84    6.38   0
  -5   7  -1   77.05    8.69   0
   5  -7   1   66.11    5.50   0
   6  -7   1   -1.20    5.30   0
   7  -7   1    8.29    5.18   0
   7  -7   1   11.89    5.15   0
   8  -7   1   57.94    6.14   0
   8  -7   1   52.38    5.57   0
   9  -7   1   78.89    6.82   0
   9  -7   1   73.26    6.90   0
  10  -7   1   10.40    7.44   0
  10  -7   1   24.80    7.57   0
  -5  -6   1    2.33    6.67   0
   5   6  -1   -3.92    6.82   0
  -4  -6   1   45.81    6.20   0
   4   6  -1   51.73    6.26   0
   3   6  -1   97.91    5.93   0
  -3  -6   1   91.48    5.97   0
  -2  -6   1   -4.14    5.34   0
   2   6  -1   -4.35    5.23   0
   1   6  -1   10.32    5.00   0
  -1  -6   1    9.62    5.22   0
   0   6  -1  383.29    7.73   0
   0  -6   1  357.94    8.34   0
  -1   6  -1   -0.34    4.89   0
   1  -6   1    3.04    5.19   0
   2  -6   1   29.76    5.30   0
  -2   6  -1   31.33    4.97   0
   3  -6   1   20.93    5.00   0
  -3   6  -1   18.18    4.85   0
  -4   6  -1  113.11    7.45   0
   4  -6   1  101.45    5.46   0
  -5   6  -1   56.37   10.32   0
   5  -6   1   65.12    5.23   0
   6  -6   1  159.15    5.64   0
   7  -6   1   24.95    4.94   0
   7  -6   1   30.05    5.35   0
   8  -6   1   17.03    5.66   0
   8  -6   1   15.80    5.55   0
   9  -6   1   53.05    6.48   0
   9  -6   1   53.61    6.99   0
  10  -6   1    0.69    6.93   0
  10  -6   1    1.16    7.05   0
   6   5  -1   -0.62    6.10   0
  -6  -5   1   -1.20    6.66   0
   5   5  -1   32.45    6.25   0
  -5  -5   1   29.52    6.00   0
  -4  -5   1  122.11    6.25   0
   4   5  -1  116.66    5.90   0
  -3  -5   1   38.67    5.39   0
   3   5  -1   36.57    5.39   0
  -2  -5   1    1.14    4.65   0
   2   5  -1    9.10    4.93   0
  -1  -5   1   31.62    5.20   0
   1   5  -1   24.89    5.15   0
   0   5  -1   48.77    5.15   0
   0  -5   1   38.51    5.54   0
   1  -5   1  307.13    7.32   0
  -1   5  -1  323.09    6.83   0
   2  -5   1  130.45    5.80   0
  -2   5  -1  126.44    5.69   0
  -3   5  -1   10.89    4.75   0
   3  -5   1    9.43    4.84   0
   4  -5   1  396.91    6.82   0
  -4   5  -1  373.39   11.74   0
   5  -5   1   49.44    4.98   0
   6  -5   1   -1.79    4.66   0
   6  -5   1    6.32    5.25   0
   7  -5   1   13.59    4.71   0
   8  -5   1   10.84    5.42   0
   9  -5   1   -0.43    5.44   0
  10  -5   1   36.22    7.26   0
  -7  -4   1    8.20    6.84   0
   7   4  -1    3.59    7.10   0
  -6  -4   1    6.81    6.25   0
   6   4  -1    7.97    6.13   0
   5   4  -1   14.93    5.36   0
  -5  -4   1   16.18    4.90   0
   4   4  -1   -1.22    5.06   0
  -4  -4   1   -6.37    4.66   0
  -3  -4   1  158.62    6.27   0
   3   4  -1  161.86    6.17   0
   2   4  -1    7.52    4.84   0
  -2  -4   1   -1.59    4.71   0
  -1  -4   1    0.33    4.88   0
   1   4  -1    0.55    4.81   0
   0  -4   1  391.09    7.98   0
   0   4  -1  427.46    7.64   0
   1  -4   1   20.43    5.53   0
  -1   4  -1   24.18    5.19   0
   2  -4   1   43.04    5.25   0
  -2   4  -1   51.63    5.23   0
   3  -4   1    7.62    4.74   0
  -3   4  -1    9.02    6.77   0
   4  -4   1    5.26    4.73   0
   5  -4   1   11.41    4.69   0
   6  -4   1    0.40    4.65   0
   7  -4   1    7.59    4.97   0
   8  -4   1   57.20    5.67   0
   9  -4   1   11.89    5.97   0
  10  -4   1   22.74    7.26   0
  -8  -3   1    5.55    6.51   0
   8   3  -1    3.99    7.22   0
   7   3  -1   -5.32    6.70   0
  -7  -3   1    1.18    5.89   0
  -6  -3   1   -3.42    5.08   0
   6   3  -1    2.97    5.33   0
   5   3  -1   63.05    5.73   0
  -5  -3   1   64.36    5.61   0
   4   3  -1  120.86    6.16   0
  -4  -3   1   97.38    5.92   0
  -3  -3   1  195.75    6.79   0
   3   3  -1  235.20    6.73   0
   2   3  -1   19.15    4.93   0
  -2  -3   1   14.16    4.76   0
   1   3  -1  128.70    5.95   0
  -1  -3   1  110.54    5.92   0
   0   3  -1  209.46    6.43   0
   0  -3   1  234.99    7.20   0
  -1   3  -1  263.43    7.41   0
   1  -3   1  260.43    7.38   0
  -2   3  -1  116.97    6.03   0
   2  -3   1  141.22    6.17   0
  -3   3  -1  746.00   18.76   0
   3  -3   1  874.61    9.84   0
   4  -3   1   11.08    4.52   0
   5  -3   1   18.62    4.75   0
   6  -3   1   41.14    4.90   0
   6  -3   1   43.19   10.86   0
   7  -3   1   61.93    5.49   0
   8  -3   1   51.75    5.89   0
   8  -3   1   50.23   12.62   0
   9  -3   1    1.10    6.27   0
   9  -3   1    0.47   13.42   0
   9  -3   1    3.09   14.59   0
  10  -3   1   43.11    7.57   0
   8   2  -1    3.80    6.78   0
  -8  -2   1    1.68    6.51   0
  -7  -2   1   29.52    5.58   0
   7   2  -1   12.40    5.83   0
  -6  -2   1   15.79    5.35   0
   6   2  -1   18.35    5.52   0
   5   2  -1   68.16    5.57   0
  -5  -2   1   70.36    5.19   0
  -4  -2   1   11.99    4.58   0
   4   2  -1   14.07    4.79   0
  -3  -2   1  181.95    6.19   0
   3   2  -1  195.35    6.17   0
   2   2  -1 1333.46   11.78   0
  -2  -2   1 1350.13   12.75   0
   1   2  -1 2435.01   17.09   0
  -1  -2   1 2385.65   17.64   0
   0  -2   1 1252.82   15.15   0
   0   2  -1 1227.71   14.59   0
   1  -2   1  951.44   13.60   0
  -1   2  -1  880.02   13.02   0
   2  -2   1   16.89    8.38   0
  -2   2  -1   16.90    7.84   0
   3  -2   1 1553.99   12.83   0
   3  -2   1 1480.90   24.06   0
   4  -2   1  831.04    8.99   0
   5  -2   1   79.74    5.10   0
   6  -2   1  789.58    9.16   0
   7  -2   1  196.48    6.63   0
   8  -2   1    3.59    5.56   0
   9  -2   1   24.68    7.12   0
  10  -2   1   -1.44   11.49   0
  10  -2   1    7.91    7.71   0
  -9  -1   1   -6.68    7.28   0
   9   1  -1   18.79    7.67   0
   9   1  -1   39.14    9.36   0
   8   1  -1   11.65    5.93   0
  -8  -1   1   -4.53    6.07   0
   7   1  -1  127.03    6.07   0
  -7  -1   1  137.70    6.44   0
   6   1  -1   25.01    4.90   0
  -6  -1   1   28.82    4.89   0
   5   1  -1    1.77    4.78   0
  -5  -1   1   -1.08    4.70   0
   4   1  -1    3.63    4.74   0
  -4  -1   1    6.81    4.60   0
  -3  -1   1    4.44    4.66   0
   3   1  -1    0.87    4.81   0
   2   1  -1  554.79    9.31   0
  -2  -1   1  597.23    9.61   0
   1   1  -1  377.15   10.10   0
  -1  -1   1  402.69   10.26   0
   1  -1   1 1035.48   19.62   0
  -2   1  -1  778.58   11.62   0
   2  -1   1  785.68   11.48   0
   3  -1   1  473.35    8.14   0
  -3   1  -1  533.02    8.54   0
   4  -1   1   37.19    4.74   0
  -4   1  -1   37.39    4.80   0
  -5   1  -1  111.40    5.45   0
   5  -1   1  120.92    5.51   0
   6  -1   1    9.22    5.24   0
  -6   1  -1    6.57    5.15   0
  -7   1  -1  228.95    7.22   0
   7  -1   1  202.37    7.22   0
  -8   1  -1   22.41    6.18   0
   8  -1   1   24.48    6.37   0
   9  -1   1   -4.09    7.14   0
  -9   1  -1   -3.08    6.78   0
   9   0  -1    5.15    8.08   0
  -9   0   1    4.09    6.40   0
   9   0  -1    9.67    5.89   0
   8   0  -1   12.17    5.81   0
  -8   0   1   12.00    5.29   0
   7   0  -1   91.81    5.75   0
  -7   0   1   80.68    5.52   0
  -6   0   1  310.58    6.90   0
   6   0  -1  314.20    7.08   0
   5   0  -1   -1.69    4.61   0
  -5   0   1    4.78    4.42   0
   4   0  -1   26.57    4.80   0
  -4   0   1   29.87    4.69   0
   3   0  -1   52.71    5.16   0
  -3   0   1   49.95    4.89   0
  -2   0   1  564.92   10.32   0
   2   0  -1  578.91   10.35   0
  -1   0  -1 1916.32   21.42   0
   1   0   1 2318.12   23.27   0
  -2   0  -1  264.51    7.88   0
   2   0   1  267.48    7.78   0
   3   0   1   93.48    5.87   0
  -3   0  -1   92.44    5.72   0
  -4   0  -1   34.95    4.96   0
   4   0   1   39.46    5.08   0
  -5   0  -1  328.34    7.49   0
   5   0   1  357.47    7.57   0
   6   0   1  400.39    7.90   0
  -6   0  -1  390.71    7.85   0
   7   0   1   78.50    6.34   0
  -7   0  -1   87.19    6.32   0
   8   0   1    6.23    6.36   0
  -8   0  -1    4.59    6.27   0
  -9   0  -1   -0.70    6.71   0
   9   0   1   -1.41    7.41   0
  10  -1  -1    3.54   10.85   0
  10  -1  -1    6.13    6.83   0
  -9   1   1    7.29    5.46   0
   9  -1  -1    6.92    8.49   0
   9  -1  -1   12.06    5.51   0
   8  -1  -1   48.06    5.24   0
   8  -1  -1   37.51    8.36   0
  -8   1   1   33.01    5.42   0
  -7   1   1  412.23    8.36   0
   7  -1  -1  481.88    8.37   0
   7  -1  -1  550.64   11.31   0
   6  -1  -1  114.37    7.70   0
  -6   1   1   93.39    5.55   0
   6  -1  -1  114.93    5.43   0
   5  -1  -1    2.90    4.36   0
   5  -1  -1    3.36    6.45   0
  -5   1   1    3.58    4.49   0
  -4   1   1  277.31    6.63   0
   4  -1  -1  240.97    9.42   0
   4  -1  -1  290.56    6.57   0
   3  -1  -1  489.65    8.38   0
   3  -1  -1  442.95   12.59   0
  -3   1   1  490.12    8.33   0
  -2   1   1 3338.91   36.56   0
   2  -1  -1 3243.79   35.36   0
   2  -1  -1 3316.93   22.16   0
   1  -1  -1  909.87   15.51   0
   0  -1  -1   74.50    7.60   0
   0   1   1   84.44    7.71   0
  -1  -1  -1  595.45   10.99   0
   1   1   1  600.48   10.99   0
   2   1   1  239.53    7.13   0
  -2  -1  -1  211.93    6.76   0
   3   1   1  820.59    9.61   0
  -3  -1  -1  794.54    9.55   0
  -4  -1  -1   -2.07    4.96   0
   4   1   1   -0.32    5.11   0
  -5  -1  -1  188.12    6.45   0
   5   1   1  130.20    7.15   0
  -6  -1  -1   90.71    6.56   0
   6   1   1   84.80    6.58   0
   7   1   1   14.14    6.05   0
  -7  -1  -1   16.48    5.90   0
  -8  -1  -1    3.86    6.77   0
   8   1   1   13.35    6.94   0
  10  -2  -1    1.48   11.87   0
  10  -2  -1    1.16    6.95   0
   9  -2  -1    1.33    5.74   0
   9  -2  -1    0.25    9.59   0
   8  -2  -1   72.74    9.31   0
   8  -2  -1   63.11    5.66   0
   7  -2  -1  434.39    7.54   0
   7  -2  -1  474.60   13.75   0
   6  -2  -1  303.91    6.47   0
   6  -2  -1  255.10   10.49   0
   5  -2  -1    2.38    4.51   0
   5  -2  -1   -0.15    8.21   0
   4  -2  -1  238.68    6.31   0
  -3   2   1   40.12   10.60   0
   3  -2  -1   38.96    5.17   0
   2  -2  -1 3164.67   20.06   0
   1  -2  -1 6352.74   30.65   0
  -1   2   1 6334.85   30.34   0
   0  -2  -1    8.19    5.80   0
   0   2   1    9.71    5.59   0
   1   2   1  424.96    8.39   0
  -1  -2  -1  411.08    9.21   0
  -2  -2  -1  377.40    7.97   0
   2   2   1  427.59    7.98   0
   3   2   1  129.38    6.24   0
  -3  -2  -1  135.13    5.94   0
   4   2   1  149.70    7.14   0
  -4  -2  -1  163.52    6.68   0
  -5  -2  -1   22.77    5.84   0
   5   2   1   27.26    5.42   0
   6   2   1   37.85    6.14   0
  -6  -2  -1   33.65    5.98   0
   7   2   1    6.21    6.49   0
  -7  -2  -1    1.84    6.37   0
  -8  -2  -1   -2.26    7.56   0
   8   2   1   -1.95    7.28   0
  10  -3  -1    0.64    6.74   0
   9  -3  -1    9.22    5.71   0
   8  -3  -1    0.81    5.58   0
   7  -3  -1   35.20    4.81   0
   6  -3  -1  132.50    5.64   0
   5  -3  -1    0.78    4.64   0
   3  -3  -1  203.89    6.44   0
   2  -3  -1  160.38    6.18   0
  -2   3   1  155.68    6.28   0
  -1   3   1   24.34    5.58   0
   1  -3  -1   24.44    5.44   0
   0   3   1   63.04    5.84   0
   0  -3  -1   55.20    5.94   0
  -1  -3  -1  341.86    7.46   0
   1   3   1  353.14    8.17   0
   2   3   1  225.70    6.98   0
  -2  -3  -1  155.45    7.04   0
  -3  -3  -1   66.23    5.47   0
   3   3   1   68.95    5.98   0
   4   3   1    0.77    5.04   0
  -4  -3  -1    0.45    4.83   0
   5   3   1    7.33    5.88   0
  -5  -3  -1    5.44    5.73   0
   6   3   1   26.85    6.97   0
  -6  -3  -1   42.87    6.65   0
  -7  -3  -1    3.59    6.95   0
   7   3   1    1.46    7.21   0
  10  -4  -1    7.59    6.61   0
   9  -4  -1   -0.50    5.78   0
   8  -4  -1   28.72    5.33   0
   7  -4  -1  155.65    5.68   0
   6  -4  -1    0.58    4.91   0
   5  -4  -1   52.26    5.01   0
   5  -4  -1   46.47    5.13   0
   4  -4  -1  305.50    6.35   0
   3  -4  -1    7.32    4.64   0
   2  -4  -1  162.76    6.27   0
  -2   4   1  148.97    5.97   0
  -1   4   1  434.20    7.68   0
   1  -4  -1  441.85    8.08   0
   0  -4  -1  556.74    8.88   0
   0   4   1  595.21    8.52   0
   1   4   1  498.00    8.28   0
  -1  -4  -1  442.58    8.56   0
  -2  -4  -1  148.89    6.97   0
   2   4   1  180.98    7.24   0
   3   4   1   33.34    5.52   0
  -3  -4  -1   32.51    5.47   0
   4   4   1   47.74    6.22   0
  -4  -4  -1   52.22    6.01   0
   5   4   1   -2.79    5.57   0
  -5  -4  -1    0.83    5.91   0
   6   4   1   22.44    7.52   0
  -6  -4  -1   15.62    7.69   0
  -7  -4  -1   21.73    7.95   0
   7   4   1   -3.83    8.62   0
  10  -5  -1    2.64    6.55   0
   9  -5  -1   36.71    5.92   0
   8  -5  -1   69.91    5.49   0
   7  -5  -1   -2.46    4.54   0
   7  -5  -1   -0.18    4.89   0
   6  -5  -1  171.84    5.61   0
   6  -5  -1  168.79    5.70   0
   5  -5  -1    5.04    4.97   0
   4  -5  -1   35.29    5.03   0
  -3   5   1  302.97    6.66   0
   3  -5  -1  284.48    6.75   0
   2  -5  -1   43.93    5.62   0
  -2   5   1   50.44    5.33   0
   1  -5  -1  288.21    7.91   0
  -1   5   1  316.92    6.95   0
   0  -5  -1    7.45    5.53   0
   0   5   1    8.59    5.95   0
  -1  -5  -1   21.99    5.72   0
   1   5   1   20.28    5.60   0
   2   5   1    4.75    5.11   0
  -2  -5  -1    8.25    5.71   0
   3   5   1    6.08    5.57   0
  -3  -5  -1   -3.72    5.45   0
   4   5   1   22.18    5.64   0
  -4  -5  -1   20.56    5.89   0
  -5  -5  -1   28.60    7.29   0
   5   5   1   31.57    7.52   0
   6   5   1   -1.30    8.10   0
  -6  -5  -1   -1.93    7.49   0
  10  -6  -1   -3.39    6.65   0
  10  -6  -1    1.17    6.01   0
   9  -6  -1   14.03    5.84   0
   9  -6  -1   17.99    5.53   0
   8  -6  -1   13.09    5.50   0
   8  -6  -1    9.49    5.37   0
   7  -6  -1   19.54    5.33   0
   7  -6  -1   26.01    5.39   0
   6  -6  -1   43.81    5.08   0
   5  -6  -1    5.96    5.06   0
   4  -6  -1   93.54    5.87   0
  -3   6   1   15.10    5.23   0
   3  -6  -1   15.28    5.62   0
   2  -6  -1    0.60    5.75   0
  -2   6   1    2.39    5.39   0
   1  -6  -1   -0.40    5.52   0
  -1   6   1    1.68    5.12   0
   0  -6  -1    2.97    5.94   0
   0   6   1    3.00    5.02   0
   1   6   1   29.11    5.80   0
  -1  -6  -1   26.87    6.02   0
  -2  -6  -1   15.99    6.01   0
   2   6   1   14.74    6.10   0
   3   6   1    3.84    6.42   0
  -3  -6  -1    9.23    6.30   0
   4   6   1   15.46    6.65   0
  -4  -6  -1    4.48    7.10   0
   5   6   1    5.90    7.60   0
  -5  -6  -1    1.61    6.87   0
  10  -7  -1    6.27    7.63   0
  10  -7  -1   11.25    7.21   0
   9  -7  -1    5.57    6.40   0
   9  -7  -1    6.89    6.48   0
   8  -7  -1    9.88    5.93   0
   8  -7  -1   14.77    5.70   0
   7  -7  -1    4.90    5.52   0
   6  -7  -1    7.05    5.46   0
  -6   7   1   14.13   10.01   0
   5  -7  -1  289.20    6.75   0
   4  -7  -1   51.27    5.44   0
   3  -7  -1    0.32    6.07   0
  -3   7   1    0.48    5.41   0
  -2   7   1    4.92    5.44   0
   2  -7  -1   -0.63    5.83   0
   1  -7  -1   25.14    6.19   0
  -1   7   1   26.48    5.79   0
   0  -7  -1   39.65    6.14   0
   0   7   1   54.89    6.07   0
   1   7   1   30.38    6.09   0
  -1  -7  -1   20.41    6.26   0
  -2  -7  -1   30.97    7.01   0
   2   7   1   34.40    6.90   0
  -3  -7  -1   22.72    7.59   0
   3   7   1   29.57    7.48   0
   4   7   1   24.99    8.09   0
  -4  -7  -1    9.20    7.16   0
   9  -8  -1   26.54    7.06   0
   9  -8  -1   23.77    7.33   0
   8  -8  -1    1.30    6.74   0
   8  -8  -1    0.54    6.40   0
   7  -8  -1    9.03    6.19   0
   6  -8  -1   22.14    5.90   0
   5  -8  -1    0.32    5.82   0
  -4   8   1  522.92    9.24   0
   4  -8  -1  453.44    9.80   0
  -3   8   1    4.36    5.82   0
   3  -8  -1    2.10    6.10   0
  -2   8   1   53.01    6.08   0
   2  -8  -1   51.49    6.45   0
  -1   8   1   34.97    6.46   0
   1  -8  -1   34.91    6.45   0
   0  -8  -1   17.55    7.23   0
   0   8   1   15.65    6.69   0
   1   8   1    3.50    6.97   0
  -1  -8  -1    1.84    7.26   0
   2   8   1   14.76    7.66   0
  -2  -8  -1   16.87    7.84   0
   9  -9  -1   11.36    7.70   0
   9  -9  -1   19.93    7.83   0
   8  -9  -1   27.00    7.26   0
   7  -9  -1    3.48    6.57   0
  -7   9   1    1.17   13.92   0
   6  -9  -1   39.30    7.27   0
   5  -9  -1  131.13    7.57   0
  -4   9   1    0.66    5.88   0
   4  -9  -1   10.51    6.55   0
   3  -9  -1    1.72    6.70   0
  -3   9   1    1.49    6.39   0
  -2   9   1    5.22    6.84   0
   2  -9  -1   -0.28    6.38   0
   1  -9  -1   19.42    7.40   0
  -1   9   1   17.32    7.07   0
   0   9   1   23.55    7.26   0
   0  -9  -1   15.41    7.04   0
   1   9   1   10.80    7.89   0
  -1  -9  -1   18.51    8.30   0
   7 -10  -1   14.46    7.79   0
  -7  10   1    7.02   12.62   0
   6 -10  -1    9.27    7.28   0
   5 -10  -1   13.44    7.36   0
  -4  10   1    3.39    7.23   0
   4 -10  -1   10.10    6.66   0
  -3  10   1   10.68    7.23   0
   3 -10  -1   -1.98    7.52   0
  -2  10   1   28.43    7.51   0
   2 -10  -1   20.17    8.19   0
   1 -10  -1    6.14    8.49   0
  -1  10   1   17.18    8.41   0
  -2  11  -2    5.62    7.16   0
   3 -11   2   -2.63    6.66   0
  -3  11  -2   -6.23    7.00   0
  -3  11  -2    0.53    7.84   0
  -4  11  -2    8.51    9.37   0
  -4  11  -2   41.44    7.19   0
   4 -11   2   17.92    7.49   0
   5 -11   2    1.00    7.22   0
   6 -11   2   -5.43    7.51   0
  -6  11  -2   -0.32    9.39   0
   0 -10   2    2.66    7.20   0
   0  10  -2    5.88    6.82   0
   1 -10   2    5.59    6.40   0
  -1  10  -2    7.97    6.66   0
   2 -10   2    6.51    6.12   0
  -2  10  -2   13.14    6.01   0
  -3  10  -2    0.28    7.32   0
  -3  10  -2   -4.66    6.12   0
   3 -10   2   -2.35    6.98   0
  -4  10  -2   68.80    6.81   0
  -4  10  -2  113.93    9.11   0
   4 -10   2   89.13    6.90   0
   5 -10   2   -2.58    6.94   0
  -6  10  -2    5.81    9.39   0
   6 -10   2    9.01    6.80   0
   7 -10   2    4.68    7.12   0
   8 -10   2    7.27    7.83   0
  -2  -9   2    6.11    6.57   0
   2   9  -2    1.28    6.90   0
  -1  -9   2    7.13    7.05   0
   1   9  -2    4.36    6.55   0
   0  -9   2   -2.38    6.20   0
   0   9  -2   11.15    5.97   0
   1  -9   2   52.27    5.98   0
  -1   9  -2   50.13    5.70   0
   2  -9   2   21.64    6.15   0
  -2   9  -2   29.93    5.70   0
   3  -9   2   17.84    5.72   0
  -3   9  -2   23.28    5.59   0
  -4   9  -2    4.76    5.64   0
   4  -9   2    1.75    5.69   0
  -4   9  -2    9.85    6.76   0
  -5   9  -2    1.32    8.34   0
   5  -9   2    3.86    5.74   0
   6  -9   2   17.19    6.06   0
  -6   9  -2   18.03    9.84   0
   7  -9   2  238.65    7.81   0
   8  -9   2   19.46    7.14   0
   8  -9   2   24.81    7.16   0
   9  -9   2    2.24    7.75   0
   9  -9   2    3.78    7.63   0
   3   8  -2   -4.58    6.76   0
  -3  -8   2   -0.22    7.08   0
  -2  -8   2    7.47    5.98   0
   2   8  -2    8.28    6.05   0
   1   8  -2   61.97    6.23   0
  -1  -8   2   58.23    6.33   0
   0   8  -2   20.87    5.34   0
   0  -8   2   15.93    5.56   0
   1  -8   2    0.96    5.25   0
  -1   8  -2    0.06    5.26   0
   2  -8   2   24.25    5.88   0
  -2   8  -2   28.07    5.33   0
  -3   8  -2   37.33    5.65   0
   3  -8   2   32.67    5.77   0
   4  -8   2   -3.15    4.90   0
  -5   8  -2    9.53    7.69   0
   5  -8   2   -2.02    5.35   0
  -6   8  -2  107.55   11.90   0
   6  -8   2  126.67    6.24   0
   7  -8   2    1.92    5.87   0
   8  -8   2   25.68    6.48   0
   8  -8   2   22.96    6.36   0
   9  -8   2   -6.16    6.82   0
   9  -8   2   -1.70    7.03   0
  -5  -7   2    9.57    7.54   0
   5   7  -2   16.15    7.47   0
   4   7  -2    3.72    5.95   0
  -4  -7   2    6.03    6.27   0
  -3  -7   2   -3.52    5.94   0
   3   7  -2    0.33    5.92   0
   2   7  -2   25.29    5.17   0
  -2  -7   2   20.46    5.72   0
   1   7  -2  260.30    6.92   0
  -1  -7   2  223.21    7.17   0
   0   7  -2   51.53    6.03   0
   0  -7   2   50.36    6.30   0
   1  -7   2    9.32    4.92   0
  -1   7  -2    6.10    4.74   0
  -2   7  -2   70.17    5.29   0
   2  -7   2   66.96    5.71   0
  -3   7  -2    5.17    4.61   0
   3  -7   2    4.17    4.99   0
  -3   7  -2    5.49    4.98   0
   4  -7   2   24.32    5.06   0
  -5   7  -2   51.69    8.56   0
   5  -7   2   43.32    5.44   0
   6  -7   2    4.37    4.97   0
   7  -7   2   79.52    6.38   0
   7  -7   2   83.16    5.88   0
   8  -7   2    8.55    5.97   0
   8  -7   2    4.60    6.27   0
   9  -7   2    8.84    6.73   0
   9  -7   2    7.09    6.97   0
  10  -7   2   24.73    7.12   0
  10  -7   2   18.52    7.83   0
   6   6  -2   28.34    7.96   0
  -6  -6   2    4.08    7.85   0
   5   6  -2   -1.70    6.14   0
  -5  -6   2   -2.26    6.05   0
   4   6  -2    3.80    5.49   0
  -4  -6   2   -4.09    5.72   0
  -3  -6   2  144.93    6.47   0
   3   6  -2  146.76    6.05   0
  -2  -6   2   23.94    5.56   0
   2   6  -2   39.37    5.42   0
   1   6  -2   24.00    5.03   0
  -1  -6   2   15.12    5.60   0
   0   6  -2   20.67    5.23   0
   0  -6   2   16.25    5.55   0
  -1   6  -2   40.19    5.21   0
   1  -6   2   36.48    5.65   0
   2  -6   2  174.82    6.59   0
  -2   6  -2  198.45    6.28   0
   3  -6   2  741.32    8.89   0
  -3   6  -2  715.08   10.54   0
  -3   6  -2  854.13    9.05   0
   4  -6   2    0.94    5.08   0
  -4   6  -2    5.33    7.05   0
   5  -6   2   24.04    5.17   0
   6  -6   2   93.81    5.75   0
   6  -6   2   92.75    5.65   0
   7  -6   2   29.53    5.78   0
   7  -6   2   37.15    5.56   0
   8  -6   2   12.82    5.93   0
   8  -6   2   15.66    6.43   0
   9  -6   2    4.07    6.41   0
   9  -6   2    3.86    5.92   0
  10  -6   2    6.11    7.58   0
  10  -6   2    8.08    7.56   0
  -7  -5   2   13.14    7.31   0
   6   5  -2   22.69    5.93   0
  -6  -5   2   14.68    6.06   0
  -5  -5   2    7.27    5.38   0
   5   5  -2    8.39    5.87   0
  -4  -5   2   59.98    5.35   0
   4   5  -2   48.91    5.87   0
  -3  -5   2    3.17    4.83   0
   3   5  -2   -3.22    4.99   0
   2   5  -2  121.78    6.14   0
  -2  -5   2  115.78    6.09   0
   1   5  -2   71.46    5.66   0
  -1  -5   2   43.52    5.89   0
   0   5  -2   89.16    5.88   0
   0  -5   2  113.52    6.03   0
  -1   5  -2  630.00    8.25   0
   1  -5   2  601.33    8.86   0
   2  -5   2 1379.91   11.57   0
  -2   5  -2 1382.21   13.23   0
  -2   5  -2 1208.81   10.67   0
   3  -5   2   10.58    4.92   0
  -4   5  -2  150.08    8.63   0
   4  -5   2  155.83    5.65   0
   5  -5   2   10.49    5.04   0
   6  -5   2   71.49    5.47   0
   6  -5   2   66.59    5.49   0
   7  -5   2  259.06    7.00   0
   8  -5   2   31.49    5.80   0
   9  -5   2   12.23    6.31   0
  10  -5   2    9.52    6.63   0
   7   4  -2    7.49    6.63   0
  -7  -4   2    5.88    6.59   0
   6   4  -2   30.89    5.91   0
  -6  -4   2   29.13    5.67   0
  -5  -4   2   35.39    5.35   0
   5   4  -2   41.06    5.58   0
   4   4  -2   -0.05    4.67   0
  -4  -4   2    0.60    4.69   0
  -3  -4   2   80.64    5.93   0
   3   4  -2  105.99    6.10   0
   2   4  -2  302.52    7.13   0
  -2  -4   2  216.60    7.30   0
   1   4  -2   78.03    5.51   0
  -1  -4   2   63.56    5.53   0
   0   4  -2    4.83    4.94   0
   0  -4   2    1.73    5.12   0
   1  -4   2   42.13    5.57   0
  -1   4  -2   39.93    5.43   0
   2  -4   2  181.10    6.83   0
  -2   4  -2  182.60    7.71   0
  -2   4  -2  193.22    6.38   0
   3  -4   2  313.15    6.76   0
   4  -4   2   17.79    5.00   0
   5  -4   2   34.63    5.08   0
   6  -4   2    7.96    4.67   0
   7  -4   2   59.09    5.85   0
   8  -4   2   12.02    5.23   0
   9  -4   2   -0.73    5.94   0
  10  -4   2    4.41    7.54   0
   8   3  -2    1.50    6.84   0
  -8  -3   2   -3.58    6.63   0
   7   3  -2   13.56    5.33   0
  -7  -3   2   12.07    5.96   0
  -6  -3   2  113.43    6.05   0
   6   3  -2  109.35    6.03   0
   5   3  -2   35.91    5.49   0
  -5  -3   2   38.16    5.45   0
  -4  -3   2   12.74    4.93   0
   4   3  -2   23.30    5.29   0
  -3  -3   2  203.75    6.82   0
   3   3  -2  237.38    6.92   0
  -2  -3   2   14.30    4.90   0
   2   3  -2   16.90    5.07   0
   1   3  -2  595.54    8.77   0
  -1  -3   2  607.96    9.38   0
   0   3  -2  859.91   10.61   0
   0  -3   2  934.17   11.47   0
   1  -3   2   40.05    5.97   0
  -1   3  -2   40.21    5.43   0
  -1   3  -2   33.43    5.86   0
   2  -3   2  371.10    7.91   0
   3  -3   2   97.89    8.38   0
   3  -3   2  101.63    5.73   0
   4  -3   2  116.41    9.32   0
   4  -3   2  103.07    5.27   0
   5  -3   2  152.27    5.83   0
   5  -3   2  150.85    8.56   0
   6  -3   2   15.64    4.90   0
   6  -3   2   15.71    8.06   0
   7  -3   2   -0.22    5.84   0
   8  -3   2    1.52    5.78   0
   9  -3   2    7.35    7.21   0
   9  -3   2    3.96   10.73   0
  10  -3   2   -0.82    7.96   0
  10  -3   2    3.55   16.77   0
  10  -3   2    1.94   15.93   0
   9   2  -2    3.13    8.90   0
   9   2  -2    1.23    7.34   0
  -9  -2   2   -0.24    6.31   0
   8   2  -2    6.50    5.92   0
  -8  -2   2    0.75    5.65   0
   8   2  -2    1.51    6.47   0
   7   2  -2  233.46    7.38   0
  -7  -2   2  239.92    7.47   0
   6   2  -2   64.08    5.86   0
  -6  -2   2   67.66    5.68   0
  -5  -2   2    3.50    4.78   0
   5   2  -2    0.54    5.05   0
  -4  -2   2   -0.82    4.62   0
   4   2  -2    4.47    4.84   0
  -3  -2   2   30.13    5.04   0
   3   2  -2   37.84    5.07   0
  -2  -2   2   23.81    5.35   0
   2   2  -2   19.21    5.46   0
   1   2  -2 4599.12   24.00   0
  -1  -2   2 4344.93   24.11   0
   0   2  -2 8776.26   37.51   0
   0  -2   2 9999.99   40.93   0
   0   2  -2 8754.07   35.53   0
  -1   2  -2  111.91    7.01   0
   1  -2   2  115.07    7.12   0
  -1   2  -2  114.81    7.12   0
   1  -2   2  145.86    8.67   0
   2  -2   2   37.82    6.44   0
   3  -2   2  652.68    9.22   0
   4  -2   2  266.35    6.44   0
   5  -2   2   32.43    5.40   0
   6  -2   2  600.36    8.35   0
   7  -2   2    1.95    5.80   0
   8  -2   2   27.00    6.04   0
   9  -2   2   28.39    7.17   0
   9   1  -2   20.37    6.92   0
  -9  -1   2    3.54    6.85   0
   9   1  -2    5.71    8.59   0
  -8  -1   2   24.35    6.06   0
   8   1  -2   26.26    6.41   0
   8   1  -2   16.99    6.09   0
   7   1  -2    4.89    5.22   0
  -7  -1   2   -2.66    4.77   0
   6   1  -2  102.12    5.67   0
  -6  -1   2   78.22    5.22   0
   5   1  -2    4.89    4.64   0
  -5  -1   2    2.94    4.44   0
  -4  -1   2  627.39    9.04   0
   4   1  -2  639.74    8.36   0
  -3  -1   2  979.48   11.23   0
   3   1  -2 1040.56   10.73   0
   2   1  -2    3.36    5.62   0
  -2  -1   2    7.16    5.41   0
   2   1  -2    6.23    5.33   0
  -1  -1   2 1205.89   14.64   0
   1   1  -2 1136.90   14.22   0
  -1  -1   2 1191.36   16.91   0
   1   1  -2 1112.68   15.79   0
   0   1  -2 1372.47   24.29   0
   0  -1   2 1681.16   17.79   0
   0  -1   2 1592.14   25.93   0
   0   1  -2 1693.80   17.91   0
   1  -1   2  238.95   10.29   0
   1  -1   2  235.32    8.42   0
  -2   1  -2  984.53   12.32   0
   2  -1   2  941.74   12.09   0
  -3   1  -2   21.89    4.97   0
   3  -1   2   16.28    5.02   0
   4  -1   2  304.78    6.83   0
  -4   1  -2  347.92    7.23   0
   5  -1   2   58.65    5.98   0
  -5   1  -2   83.59    5.81   0
  -6   1  -2   42.96    5.95   0
   6  -1   2   39.64    5.40   0
   7  -1   2    2.58    6.13   0
  -7   1  -2   -0.66    6.06   0
   8  -1   2   -0.86    6.46   0
  -8   1  -2   -0.98    6.28   0
  -9   1  -2   98.51    7.51   0
   9  -1   2   78.14    8.29   0
  -9   0   2   23.24    6.45   0
   9   0  -2   35.19    8.91   0
   9   0  -2   31.60    6.95   0
   8   0  -2   19.25    7.23   0
   8   0  -2   15.55    5.67   0
  -8   0   2   12.48    5.40   0
   7   0  -2    2.39    5.17   0
   7   0  -2    8.88    5.64   0
  -7   0   2    6.74    5.24   0
   6   0  -2    5.65    6.04   0
  -6   0   2    5.88    4.73   0
   6   0  -2    5.02    4.89   0
   5   0  -2   87.01    5.21   0
   5   0  -2   93.42    6.62   0
  -5   0   2   77.69    5.45   0
  -4   0   2 1245.44   11.52   0
   4   0  -2 1334.89   11.17   0
   4   0  -2 1344.20   14.04   0
   3   0  -2  587.35   10.54   0
   3   0  -2  558.11    8.85   0
  -3   0   2  557.26    9.13   0
   2   0  -2    8.96    6.58   0
  -2   0   2    8.24    6.98   0
   2   0  -2    7.19    6.71   0
  -2   0   2    9.06    5.56   0
  -1   0   2    9.03    7.39   0
  -1   0   2    9.68    5.74   0
   1   0  -2    8.13    5.84   0
   1   0  -2   12.54    7.66   0
   0   0  -2   16.16   11.59   0
   0   0   2   17.36   11.06   0
   1   0   2  535.00   11.91   0
   2   0   2  515.10    9.66   0
  -2   0  -2  517.33    9.56   0
  -3   0  -2   14.19    4.86   0
   3   0   2   19.31    5.04   0
  -4   0  -2  203.14    6.18   0
   4   0   2  159.87    6.11   0
   5   0   2   10.40    5.42   0
  -5   0  -2   -0.73    5.13   0
  -6   0  -2   66.36    5.46   0
   6   0   2   70.07    6.10   0
   7   0   2    3.12    5.43   0
  -7   0  -2    2.43    5.54   0
   8   0   2   12.13    6.86   0
  -8   0  -2   12.28    6.65   0
   9   0   2    5.18    7.53   0
  -9   0  -2    6.39    7.32   0
  10  -1  -2   11.55    7.18   0
  10  -1  -2    1.70   11.01   0
  -9   1   2   12.23    6.16   0
   9  -1  -2   21.27    9.35   0
   9  -1  -2   16.96    5.85   0
   8  -1  -2   71.88    7.48   0
  -8   1   2   55.21    5.63   0
   8  -1  -2   56.11    5.68   0
   7  -1  -2   78.48    5.47   0
  -7   1   2   78.74    5.31   0
   7  -1  -2   87.18    7.97   0
  -6   1   2  102.81    5.99   0
   6  -1  -2  116.27    6.55   0
   6  -1  -2  122.44    7.49   0
   5  -1  -2  364.54    9.76   0
  -5   1   2  350.29    7.41   0
   5  -1  -2  407.25    7.10   0
   4  -1  -2  150.85    5.74   0
  -4   1   2  145.20    5.80   0
   4  -1  -2  134.45    7.92   0
   3  -1  -2 1152.42   11.80   0
   3  -1  -2 1104.69   15.21   0
  -3   1   2 1170.14   16.27   0
   2  -1  -2  206.19    7.46   0
  -2   1   2  189.79    7.79   0
  -1   1   2 4924.60   33.75   0
   0   1   2 1314.02   18.27   0
  -1  -1  -2  531.01    9.91   0
   1   1   2  563.61   10.13   0
  -2  -1  -2   86.12    5.28   0
   2   1   2   84.98    5.80   0
   3   1   2    0.76    4.69   0
  -3  -1  -2    3.59    4.50   0
  -4  -1  -2  284.52    7.39   0
   4   1   2  254.35    7.32   0
   5   1   2  123.12    6.26   0
  -5  -1  -2  102.49    6.11   0
   6   1   2    0.84    6.35   0
  -6  -1  -2    3.75    5.56   0
  -7  -1  -2  -10.36    6.19   0
   7   1   2   -4.92    6.32   0
  -8  -1  -2    1.07    7.00   0
   8   1   2    2.23    7.50   0
  10  -2  -2    1.68   12.41   0
  10  -2  -2    9.64    6.81   0
   9  -2  -2   15.26    9.29   0
   9  -2  -2   11.47    6.17   0
   8  -2  -2    2.80    4.96   0
   8  -2  -2    9.00    8.28   0
   7  -2  -2    5.52    4.67   0
   7  -2  -2   10.71    8.22   0
   6  -2  -2    5.81    5.05   0
   6  -2  -2   12.31    6.86   0
   5  -2  -2    2.68    4.63   0
   5  -2  -2    2.06    7.57   0
   4  -2  -2  817.00    9.18   0
  -4   2   2  857.56   16.39   0
  -3   2   2    1.85    5.51   0
   2  -2  -2  904.28   11.48   0
  -1   2   2 5660.12   28.73   0
   1  -2  -2 4778.70   26.77   0
   0   2   2  250.36    7.31   0
   0  -2  -2  227.12    7.23   0
   1   2   2    0.45    5.03   0
  -1  -2  -2    1.47    5.73   0
  -2  -2  -2   20.57    5.72   0
   2   2   2   28.89    5.13   0
   3   2   2  172.21    6.95   0
  -3  -2  -2  199.26    6.48   0
  -4  -2  -2  489.90    8.86   0
   4   2   2  352.39    9.35   0
  -5  -2  -2  416.75    8.56   0
   5   2   2  358.30    8.12   0
  -6  -2  -2    3.88    5.78   0
   6   2   2   10.61    5.83   0
   7   2   2    4.98    7.03   0
  -7  -2  -2   -0.43    6.78   0
  -8  -2  -2   -2.15    7.58   0
   8   2   2   -0.53    7.82   0
  10  -3  -2    9.27    6.55   0
   9  -3  -2   97.59    6.56   0
   8  -3  -2  274.35    6.87   0
   7  -3  -2   21.74    4.92   0
   6  -3  -2  121.97    5.45   0
   5  -3  -2   77.69    5.13   0
  -4   3   2   24.41    7.53   0
   3  -3  -2  260.36    6.80   0
   2  -3  -2   48.31    5.59   0
  -2   3   2   47.94    5.45   0
   1  -3  -2    6.25    5.54   0
  -1   3   2    5.96    5.31   0
   0  -3  -2  606.50    9.66   0
   0   3   2  647.51    9.43   0
   1   3   2   13.90    5.02   0
  -1  -3  -2   18.07    5.00   0
   2   3   2   23.24    5.53   0
  -2  -3  -2   14.35    5.41   0
   3   3   2  112.83    6.85   0
  -3  -3  -2  107.69    6.53   0
  -4  -3  -2   43.50    5.66   0
   4   3   2   48.56    6.64   0
   5   3   2   -3.48    6.23   0
  -5  -3  -2   -3.39    5.43   0
   6   3   2   12.78    5.95   0
  -6  -3  -2    9.03    6.45   0
   7   3   2   25.01    7.58   0
  -7  -3  -2   24.72    7.60   0
  10  -4  -2   31.66    6.97   0
   9  -4  -2   91.39    6.50   0
   8  -4  -2   38.24    5.57   0
   7  -4  -2   51.67    5.35   0
   6  -4  -2  212.98    6.26   0
   5  -4  -2   60.77    5.40   0
  -5   4   2   62.31    9.41   0
   4  -4  -2  179.13    6.11   0
   3  -4  -2  370.00    7.25   0
   2  -4  -2   37.92    5.46   0
  -2   4   2   33.39    5.12   0
   1  -4  -2   82.19    6.70   0
  -1   4   2   82.65    5.57   0
   0   4   2  135.57    6.21   0
   0  -4  -2  120.44    6.45   0
   1   4   2   25.90    5.65   0
  -1  -4  -2   14.52    5.65   0
  -2  -4  -2   14.52    5.82   0
   2   4   2   22.79    5.94   0
  -3  -4  -2   15.66    5.21   0
   3   4   2   14.27    6.01   0
  -4  -4  -2   -0.17    5.99   0
   4   4   2    4.51    5.68   0
  -5  -4  -2    1.98    6.29   0
   5   4   2    4.94    6.42   0
  -6  -4  -2   15.05    7.08   0
   6   4   2    4.26    7.47   0
  10  -5  -2    3.21    6.78   0
   9  -5  -2    6.27    5.95   0
   8  -5  -2   37.59    5.47   0
   8  -5  -2   36.05    5.63   0
   7  -5  -2   91.44    5.71   0
   7  -5  -2   87.16    5.69   0
   6  -5  -2  268.40    6.42   0
   6  -5  -2  274.67    6.48   0
   5  -5  -2   41.16    5.17   0
   4  -5  -2  116.89    6.12   0
   3  -5  -2   33.31    5.76   0
  -3   5   2   29.59    5.58   0
   2  -5  -2   60.71    6.31   0
  -2   5   2   54.39    5.90   0
  -1   5   2  349.25    8.46   0
   1  -5  -2  314.70    8.99   0
   0   5   2   80.00    6.34   0
   0  -5  -2   62.29    7.14   0
  -1  -5  -2   26.59    5.70   0
   1   5   2   27.13    5.66   0
   2   5   2   26.84    5.78   0
  -2  -5  -2   21.68    5.63   0
   3   5   2   41.91    6.06   0
  -3  -5  -2   32.36    6.08   0
  -4  -5  -2    3.23    6.31   0
   4   5   2    2.33    6.76   0
  -5  -5  -2   -4.14    7.13   0
   5   5   2    2.96    7.23   0
  10  -6  -2    1.02    6.96   0
  10  -6  -2    7.98    7.11   0
   9  -6  -2    6.62    5.95   0
   9  -6  -2    0.37    6.27   0
   8  -6  -2   -3.76    5.74   0
   8  -6  -2    2.50    5.64   0
   7  -6  -2    1.54    5.54   0
   7  -6  -2    3.73    5.47   0
  -6   6   2   78.23   11.08   0
   6  -6  -2   82.56    6.19   0
   5  -6  -2  409.18    7.47   0
   4  -6  -2  291.10    7.21   0
   3  -6  -2   18.86    5.77   0
  -3   6   2   20.23    5.54   0
   2  -6  -2    5.06    5.85   0
  -2   6   2    0.02    5.62   0
  -1   6   2   58.26    5.82   0
   1  -6  -2   53.16    6.28   0
   0   6   2   72.41    6.13   0
   0  -6  -2   63.20    6.20   0
   1   6   2   81.36    6.52   0
  -1  -6  -2   74.06    6.98   0
   2   6   2  420.58    8.41   0
  -2  -6  -2  363.24    8.47   0
   3   6   2   -4.59    6.40   0
  -3  -6  -2    2.94    6.33   0
   4   6   2    0.09    7.56   0
  -4  -6  -2    0.98    7.14   0
  10  -7  -2   -1.26    7.54   0
  10  -7  -2    2.04    7.34   0
   9  -7  -2   -1.73    6.37   0
   9  -7  -2    0.30    6.12   0
   8  -7  -2    5.16    6.19   0
   8  -7  -2   -2.48    6.37   0
   7  -7  -2    1.98    5.69   0
   6  -7  -2    0.04    5.72   0
   5  -7  -2   28.05    5.81   0
   4  -7  -2   10.07    5.70   0
   3  -7  -2   13.30    5.98   0
  -3   7   2   24.99    5.66   0
  -2   7   2   45.39    5.96   0
   2  -7  -2   38.07    6.25   0
  -1   7   2    5.81    6.30   0
   1  -7  -2    1.09    6.00   0
   0  -7  -2    1.85    6.13   0
   0   7   2   12.68    5.80   0
  -1  -7  -2    9.83    6.29   0
   1   7   2   33.32    6.17   0
   2   7   2    5.48    6.74   0
  -2  -7  -2    4.51    6.59   0
   3   7   2    6.69    7.26   0
  -3  -7  -2    6.74    7.59   0
   9  -8  -2   -1.17    7.53   0
   9  -8  -2    6.87    7.13   0
   8  -8  -2    9.43    6.82   0
   8  -8  -2    6.48    6.75   0
  -7   8   2    7.94   15.21   0
  -7   8   2   10.84   15.36   0
   7  -8  -2    8.66    6.38   0
   6  -8  -2    4.58    6.16   0
   5  -8  -2    6.30    5.39   0
   4  -8  -2    2.90    5.95   0
  -4   8   2    4.00    5.83   0
   3  -8  -2   17.52    6.27   0
  -3   8   2   29.87    5.79   0
   2  -8  -2   21.86    6.02   0
  -2   8   2   15.40    6.04   0
  -1   8   2    5.17    6.22   0
   1  -8  -2   -8.41    6.35   0
   0  -8  -2    3.67    6.88   0
   0   8   2    2.15    6.61   0
  -1  -8  -2   13.05    7.45   0
   1   8   2   21.29    7.18   0
  -2  -8  -2    4.11    7.92   0
   2   8   2   -3.08    7.80   0
   8  -9  -2    1.16    7.53   0
   7  -9  -2   19.56    7.19   0
  -7   9   2   28.43   11.74   0
   6  -9  -2   26.12    7.50   0
   5  -9  -2    7.38    6.91   0
   4  -9  -2   19.06    7.40   0
  -4   9   2   28.17    7.03   0
  -3   9   2   55.65    7.16   0
   3  -9  -2   38.17    8.16   0
   2  -9  -2   -4.23    7.28   0
  -2   9   2   -4.40    6.32   0
  -1   9   2   21.13    7.08   0
   1  -9  -2   15.63    8.06   0
   0  -9  -2    9.77    7.90   0
   0   9   2   -0.81    6.74   0
   7 -10  -2    5.36    8.20   0
  -7  10   2    2.57   12.50   0
   6 -10  -2    5.17    7.62   0
   5 -10  -2    0.46    7.69   0
  -4  10   2   16.52    7.02   0
   4 -10  -2   -4.83    8.00   0
  -3  10   2   15.71    7.60   0
   3 -10  -2   12.93    8.34   0
   2 -10  -2    6.35    8.20   0
  -2  11  -3   12.34    7.52   0
  -2  11  -3   14.33    8.30   0
   2 -11   3   23.41    7.76   0
  -3  11  -3   12.19    8.37   0
  -3  11  -3    5.82    7.32   0
   3 -11   3   -1.92    6.71   0
  -4  11  -3   16.19    7.23   0
  -4  11  -3   13.14    9.27   0
   4 -11   3   -2.71    7.89   0
   5 -11   3    4.97    7.82   0
  -6  11  -3   12.12   10.70   0
   6 -11   3   19.02    8.10   0
   1  10  -3    3.42    7.42   0
  -1 -10   3    6.29    8.26   0
   0  10  -3   -3.96    7.04   0
   0 -10   3    2.06    6.86   0
   1 -10   3   -1.65    7.02   0
  -1  10  -3    1.25    6.87   0
  -1  10  -3    8.78    6.55   0
   2 -10   3    0.08    6.83   0
  -2  10  -3    2.94    7.61   0
  -2  10  -3    3.23    6.33   0
  -3  10  -3    9.75    6.28   0
   3 -10   3    5.24    6.77   0
  -3  10  -3   20.70    6.46   0
   4 -10   3    5.37    6.50   0
  -4  10  -3   -2.75    7.59   0
  -4  10  -3   -4.00    6.36   0
   5 -10   3   13.29    6.65   0
   6 -10   3    2.97    6.61   0
  -6  10  -3    1.59    9.74   0
   7 -10   3   -3.50    7.18   0
   8 -10   3   -0.61    7.78   0
   8 -10   3    1.22    7.87   0
  -2  -9   3    9.57    7.38   0
   2   9  -3   11.27    7.25   0
   1   9  -3    2.98    6.65   0
  -1  -9   3    1.66    6.73   0
   0  -9   3   28.99    5.96   0
   0   9  -3   35.76    5.61   0
  -1   9  -3    6.06    5.98   0
   1  -9   3    7.97    6.48   0
  -2   9  -3   48.14    6.51   0
  -2   9  -3   38.39    5.72   0
   2  -9   3   33.67    6.36   0
  -3   9  -3   15.46    5.79   0
  -3   9  -3   16.97    6.21   0
   3  -9   3   15.59    5.95   0
   4  -9   3    0.30    6.11   0
  -4   9  -3    2.31    6.58   0
   5  -9   3   13.87    5.67   0
  -5   9  -3   23.23    7.82   0
   6  -9   3   35.56    6.66   0
  -6   9  -3   26.52    9.25   0
   7  -9   3    7.08    6.61   0
   8  -9   3    4.03    7.27   0
   8  -9   3    0.89    6.35   0
   9  -9   3    6.75    7.98   0
   4   8  -3    0.13    7.45   0
  -4  -8   3    3.43    7.60   0
   3   8  -3   22.83    7.31   0
  -3  -8   3   22.33    7.02   0
  -2  -8   3    4.78    6.39   0
   2   8  -3    5.42    6.21   0
  -1  -8   3   -4.52    6.36   0
   1   8  -3   -0.20    5.83   0
   0   8  -3  271.94    7.53   0
   0  -8   3  249.77    7.71   0
  -1   8  -3   30.86    5.64   0
   1  -8   3   19.10    5.82   0
   2  -8   3   34.94    5.57   0
  -2   8  -3   41.16    5.63   0
  -2   8  -3   34.03    5.61   0
  -3   8  -3    3.19    6.23   0
   3  -8   3    8.57    5.64   0
  -3   8  -3    7.85    5.79   0
   4  -8   3    6.59    5.66   0
  -5   8  -3   43.64    7.71   0
   5  -8   3   34.14    6.16   0
   6  -8   3  104.63    6.61   0
   7  -8   3   -0.47    6.31   0
   7  -8   3    0.66    6.34   0
   8  -8   3    6.48    6.01   0
   8  -8   3    6.63    6.64   0
   9  -8   3   31.18    7.36   0
   9  -8   3   18.91    7.36   0
  -5  -7   3   -2.32    7.26   0
   5   7  -3    6.46    6.68   0
   4   7  -3   15.42    6.52   0
  -4  -7   3    6.65    6.58   0
   3   7  -3   16.74    6.21   0
  -3  -7   3   17.57    6.29   0
  -2  -7   3    2.95    5.66   0
   2   7  -3    2.41    5.90   0
  -1  -7   3   69.27    6.39   0
   1   7  -3   93.32    5.86   0
   0   7  -3  172.17    6.85   0
   0  -7   3  123.86    6.86   0
  -1   7  -3   87.23    5.68   0
   1  -7   3   88.74    6.08   0
   2  -7   3   -5.03    5.37   0
  -2   7  -3    1.00    5.33   0
  -2   7  -3    0.87    5.17   0
  -3   7  -3   56.98    5.51   0
  -3   7  -3   56.87    6.14   0
   3  -7   3   41.39    6.50   0
   4  -7   3  220.49    6.51   0
   5  -7   3  375.85    7.59   0
  -5   7  -3  391.06   11.24   0
   6  -7   3  200.11    6.57   0
   7  -7   3    6.82    5.68   0
   7  -7   3   10.44    5.61   0
   8  -7   3   14.22    6.41   0
   8  -7   3   19.01    6.33   0
   9  -7   3    3.91    7.54   0
   9  -7   3   10.81    7.02   0
   6   6  -3   -1.01    7.39   0
  -6  -6   3    1.51    7.16   0
   5   6  -3    4.82    6.42   0
  -5  -6   3    8.98    6.53   0
   4   6  -3    4.65    5.39   0
  -4  -6   3   -8.60    6.36   0
   3   6  -3   57.86    6.42   0
  -3  -6   3   61.19    6.09   0
  -2  -6   3   19.75    5.44   0
   2   6  -3   16.52    5.42   0
   1   6  -3    2.39    5.26   0
  -1  -6   3    3.92    5.49   0
   0  -6   3  175.09    7.86   0
   0   6  -3  188.07    6.81   0
   1  -6   3   68.76    5.82   0
  -1   6  -3   71.22    5.63   0
  -1   6  -3   93.08    6.81   0
  -2   6  -3   31.79    5.33   0
   2  -6   3   38.00    5.59   0
  -2   6  -3   34.90    6.09   0
   3  -6   3   60.55    5.68   0
  -3   6  -3   53.49    5.50   0
  -3   6  -3   50.15    5.59   0
   4  -6   3   59.95    5.46   0
   5  -6   3   88.14    5.58   0
   6  -6   3   18.71    5.23   0
   6  -6   3   25.57    5.30   0
   7  -6   3    6.00    5.76   0
   7  -6   3   -3.88    5.40   0
   8  -6   3   55.05    6.64   0
   8  -6   3   48.84    6.13   0
   9  -6   3   52.75    7.16   0
   9  -6   3   54.19    7.31   0
  10  -6   3    4.68    7.65   0
  10  -6   3   -2.94    7.56   0
   7   5  -3   14.71    7.58   0
   7   5  -3   24.25    8.04   0
  -7  -5   3   10.58    7.30   0
   6   5  -3    4.32    6.47   0
  -6  -5   3   -0.87    6.38   0
  -5  -5   3   26.36    5.79   0
   5   5  -3   24.80    6.14   0
   4   5  -3  157.29    6.47   0
  -4  -5   3  130.30    6.29   0
  -3  -5   3    4.92    4.95   0
   3   5  -3   -1.67    4.89   0
   2   5  -3   62.85    5.86   0
  -2  -5   3   52.99    5.97   0
   1   5  -3   10.25    5.16   0
  -1  -5   3    8.88    5.38   0
   0   5  -3  388.33    7.27   0
   0  -5   3  326.96    8.01   0
  -1   5  -3  236.28    6.52   0
  -1   5  -3  251.99    7.40   0
   1  -5   3  238.96    6.89   0
   2  -5   3   21.37    5.08   0
  -2   5  -3   18.87    5.10   0
  -2   5  -3   12.16    5.81   0
   3  -5   3  266.96    6.56   0
   4  -5   3    5.87    5.30   0
  -4   5  -3    3.08    6.59   0
   5  -5   3   -5.56    5.15   0
   5  -5   3   -3.12    5.25   0
   6  -5   3  145.37    5.84   0
   6  -5   3  154.08    5.85   0
   7  -5   3   39.91    6.33   0
   8  -5   3   86.47    6.77   0
   9  -5   3   35.23    6.87   0
  10  -5   3   -2.76    7.71   0
  -7  -4   3   -3.12    6.42   0
   7   4  -3    6.91    5.99   0
   7   4  -3    0.97    7.43   0
   6   4  -3   -3.43    5.82   0
  -6  -4   3   -1.32    5.71   0
  -5  -4   3   91.49    6.31   0
   5   4  -3  104.03    6.45   0
   4   4  -3  137.42    6.29   0
  -4  -4   3  130.97    5.96   0
  -3  -4   3   59.04    5.93   0
   3   4  -3   78.72    5.96   0
  -2  -4   3    1.32    4.93   0
   2   4  -3   -0.18    4.95   0
   1   4  -3 1416.91   11.80   0
  -1  -4   3 1191.20   12.66   0
   0   4  -3   17.98    5.14   0
   0   4  -3   16.76    4.97   0
   0  -4   3   15.83    5.37   0
  -1   4  -3  598.74    9.40   0
   1  -4   3  689.55    9.61   0
  -1   4  -3  679.62    9.38   0
   2  -4   3  182.57    6.39   0
  -2   4  -3  196.74    7.61   0
  -2   4  -3  196.38    6.48   0
   3  -4   3   30.67    6.45   0
   3  -4   3   29.50    4.84   0
   4  -4   3  238.32    8.77   0
   4  -4   3  209.75    6.13   0
   5  -4   3  941.45   15.21   0
   5  -4   3 1030.51    9.90   0
   6  -4   3  472.29    7.59   0
   6  -4   3  422.76   13.06   0
   7  -4   3    8.65    5.46   0
   7  -4   3    8.64    9.11   0
   8  -4   3   -1.62    5.87   0
   8  -4   3    2.27   11.40   0
   9  -4   3    6.97    7.06   0
   8   3  -3   42.31    7.26   0
   8   3  -3   28.59    8.98   0
  -8  -3   3   30.15    6.98   0
  -7  -3   3   13.67    6.32   0
   7   3  -3   12.45    7.81   0
   7   3  -3   12.51    5.89   0
  -6  -3   3    4.04    5.23   0
   6   3  -3    6.64    5.43   0
   5   3  -3  107.81    5.86   0
  -5  -3   3   98.16    6.06   0
   4   3  -3   66.82    5.93   0
  -4  -3   3   54.76    5.82   0
  -3  -3   3   27.66    5.06   0
   3   3  -3   38.18    5.38   0
  -2  -3   3   20.33    4.86   0
   2   3  -3   22.95    4.94   0
   1   3  -3   62.73    5.61   0
   1   3  -3   81.46    6.64   0
  -1  -3   3   64.05    5.81   0
   0   3  -3 2253.41   16.84   0
   0   3  -3 2086.92   15.30   0
   0  -3   3 2177.08   16.82   0
   1  -3   3  538.02    9.01   0
   1  -3   3  580.86    9.71   0
  -1   3  -3  530.07    9.25   0
  -1   3  -3  420.32    8.62   0
   2  -3   3   56.77    6.31   0
  -2   3  -3   44.85    5.33   0
   2  -3   3   42.10    5.27   0
   3  -3   3  150.77    7.39   0
   3  -3   3  117.64    5.77   0
   4  -3   3    7.83    4.63   0
   4  -3   3    5.03    6.08   0
   5  -3   3    2.13    5.12   0
   5  -3   3    4.03    6.50   0
   6  -3   3  430.97    7.52   0
   6  -3   3  390.60   10.05   0
   7  -3   3   33.21    6.11   0
   8  -3   3   33.39    6.20   0
   8  -3   3   27.54    7.58   0
   9  -3   3   10.49    6.77   0
   9  -3   3    0.43    9.45   0
   9   2  -3    2.05    8.80   0
  -9  -2   3   -1.91    7.29   0
   9   2  -3    1.23    7.47   0
   8   2  -3    3.17    7.54   0
   8   2  -3    4.28    6.48   0
  -8  -2   3    6.11    5.84   0
   7   2  -3  197.34    8.57   0
  -7  -2   3  148.75    6.70   0
   7   2  -3  148.15    7.21   0
   6   2  -3   70.52    5.77   0
   6   2  -3   91.01    6.18   0
  -6  -2   3   63.13    5.82   0
   5   2  -3   83.97    6.16   0
  -5  -2   3   86.49    6.02   0
   5   2  -3  107.16    6.23   0
   4   2  -3   83.48    6.05   0
  -4  -2   3   71.00    5.65   0
   4   2  -3   76.86    5.66   0
  -3  -2   3   16.33    4.67   0
   3   2  -3   16.87    5.07   0
   3   2  -3   13.11    4.96   0
  -2  -2   3   94.03    5.86   0
   2   2  -3   76.50    6.08   0
   2   2  -3   98.65    5.79   0
   1   2  -3    7.08    3.37   0
   1   2  -3   10.48    5.12   0
  -1  -2   3   10.17    5.02   0
   0   2  -3  711.05   12.49   0
   0   2  -3  850.13   11.05   0
   0  -2   3  899.29   11.38   0
   0  -2   3  837.85   13.57   0
   1  -2   3   29.61    5.37   0
   1  -2   3   38.46    6.48   0
  -1   2  -3   36.81    5.52   0
   2  -2   3   46.29    5.29   0
   2  -2   3   44.87    5.33   0
   3  -2   3    6.38    4.77   0
   4  -2   3   41.93    4.93   0
   5  -2   3   28.49    5.37   0
   6  -2   3    2.61    5.09   0
   7  -2   3   31.99    5.75   0
   8  -2   3   -2.20    6.28   0
   9  -2   3    9.54    7.49   0
   9   1  -3   -0.01    7.04   0
  -9  -1   3   -3.62    6.83   0
   9   1  -3   -0.93    8.25   0
   8   1  -3   -1.04    5.68   0
   8   1  -3    1.55    5.81   0
  -8  -1   3    2.84    5.75   0
   7   1  -3   18.25    5.53   0
   7   1  -3   25.73    6.68   0
  -7  -1   3   23.73    5.42   0
   6   1  -3    8.93    5.00   0
   6   1  -3   13.66    6.03   0
  -6  -1   3   16.71    5.02   0
  -5  -1   3    3.40    4.81   0
   5   1  -3   -0.27    5.00   0
   5   1  -3   -2.22    5.92   0
  -4  -1   3  115.38    5.99   0
   4   1  -3  134.33    5.86   0
   4   1  -3  138.52    5.96   0
  -3  -1   3  362.02    7.97   0
   3   1  -3  398.70    7.81   0
   3   1  -3  390.88    7.96   0
   2   1  -3  828.82   11.24   0
  -2  -1   3  823.24   10.68   0
   2   1  -3  756.93   10.30   0
  -2  -1   3  771.51   11.44   0
  -1  -1   3   13.25    5.14   0
   1   1  -3   12.61    5.05   0
  -1  -1   3   13.51    6.72   0
   1   1  -3   15.19    5.76   0
   0  -1   3  137.80    6.44   0
   0  -1   3  163.07   13.34   0
   0   1  -3  119.34    6.22   0
   0   1  -3  127.70   12.15   0
   1  -1   3  268.48   10.03   0
   2  -1   3   48.02    6.12   0
  -3   1  -3 1090.99   11.24   0
   3  -1   3 1219.17   12.32   0
   4  -1   3   62.41    5.42   0
  -4   1  -3   44.76    5.15   0
   5  -1   3   11.91    5.26   0
  -5   1  -3   12.17    5.14   0
   6  -1   3    2.55    5.22   0
  -6   1  -3    4.21    5.09   0
   7  -1   3   36.85    6.51   0
  -7   1  -3   36.80    5.94   0
  -8   1  -3    5.21    6.15   0
   8  -1   3   -0.84    6.23   0
   9  -1   3    3.78    7.56   0
  10   0  -3    4.48   10.16   0
  10   0  -3   -4.45    7.81   0
 -10   0   3    6.13    7.52   0
   9   0  -3   -1.38    7.60   0
   9   0  -3    9.56    6.52   0
  -9   0   3   -1.53    6.38   0
  -8   0   3   -5.32    5.66   0
   8   0  -3   -3.39    6.11   0
   8   0  -3   -0.28    7.23   0
  -7   0   3   21.48    4.95   0
   7   0  -3   15.33    5.34   0
   7   0  -3   21.75    6.44   0
   6   0  -3   73.60    5.97   0
  -6   0   3   67.55    5.77   0
   6   0  -3   86.60    6.34   0
  -5   0   3   45.22    5.25   0
   5   0  -3   65.61    6.40   0
   5   0  -3   59.02    5.33   0
  -4   0   3  343.32    7.23   0
   4   0  -3  351.18    7.03   0
   4   0  -3  375.43    8.47   0
  -3   0   3   93.48    5.75   0
  -3   0   3   98.76    6.16   0
   3   0  -3  101.17    5.75   0
   3   0  -3   78.77    5.34   0
  -2   0   3   84.33    5.69   0
   2   0  -3   86.54    5.64   0
   2   0  -3   96.34    6.95   0
  -2   0   3   91.03    6.01   0
   1   0  -3  939.58   20.15   0
  -1   0   3 1041.88   12.11   0
   0   0   3   91.04   12.90   0
   0   0  -3   85.03   11.87   0
   1   0   3  191.38    8.87   0
  -2   0  -3 3286.48   20.68   0
   2   0   3 2800.41   19.60   0
  -3   0  -3    2.61    4.66   0
   3   0   3    4.73    4.78   0
   4   0   3    4.81    5.27   0
  -4   0  -3    2.49    4.98   0
  -5   0  -3    3.07    6.27   0
   5   0   3    4.04    6.39   0
  -6   0  -3    2.13    5.26   0
   6   0   3   -0.81    5.45   0
   7   0   3   19.17    6.09   0
  -7   0  -3   23.56    6.23   0
   8   0   3   81.56    7.32   0
  -8   0  -3   70.47    7.01   0
  10  -1  -3    5.57    7.27   0
  10  -1  -3    1.24   10.58   0
   9  -1  -3    9.32    8.84   0
   9  -1  -3    6.41    6.14   0
  -9   1   3    6.05    5.99   0
   8  -1  -3    0.26    6.53   0
   8  -1  -3   -5.82    5.58   0
  -8   1   3   -4.92    5.40   0
  -7   1   3    0.93    5.22   0
   7  -1  -3    2.51    6.51   0
   7  -1  -3    4.78    5.63   0
  -6   1   3   28.11    5.86   0
   6  -1  -3   41.16    6.62   0
   6  -1  -3   36.12    5.26   0
  -5   1   3  480.91    8.10   0
   5  -1  -3  466.35    9.98   0
   5  -1  -3  495.01    7.75   0
  -4   1   3   30.49    4.86   0
   4  -1  -3   24.67    4.92   0
  -4   1   3   32.14    6.83   0
   4  -1  -3   29.49    6.22   0
  -3   1   3  316.36    8.27   0
   3  -1  -3  333.59    8.16   0
  -2   1   3  115.37    6.69   0
   2  -1  -3  122.63    7.20   0
  -1   1   3  291.88   10.21   0
   0   1   3   83.49    7.64   0
   1   1   3   -0.58    5.00   0
  -2  -1  -3  103.46    6.50   0
   2   1   3   95.82    6.00   0
  -3  -1  -3  147.15    6.51   0
   3   1   3  143.79    6.62   0
  -4  -1  -3   13.18    5.29   0
   4   1   3   14.81    5.51   0
  -5  -1  -3   51.37    5.72   0
   5   1   3   55.30    6.32   0
  -6  -1  -3   81.33    6.39   0
   6   1   3   65.58    6.94   0
  -7  -1  -3    2.72    6.23   0
   7   1   3    0.93    6.39   0
   8   1   3   14.72    7.50   0
  -8  -1  -3    1.81    7.61   0
  10  -2  -3   18.45   12.66   0
  10  -2  -3    5.09    7.33   0
   9  -2  -3    2.71    9.29   0
   9  -2  -3   -0.45    5.49   0
   8  -2  -3    4.64    5.63   0
   8  -2  -3    1.77    8.28   0
   7  -2  -3  244.90   10.38   0
   7  -2  -3  220.75    6.95   0
   6  -2  -3   61.44    5.25   0
   6  -2  -3   63.13    7.46   0
   5  -2  -3  330.86    6.73   0
   4  -2  -3   34.64    4.94   0
  -4   2   3   28.22    7.07   0
   3  -2  -3  262.54    6.92   0
  -3   2   3  251.62    7.34   0
   2  -2  -3   90.86    6.14   0
  -1   2   3  328.05    9.07   0
   0   2   3   24.44    6.19   0
   0  -2  -3   21.39    6.21   0
  -1  -2  -3    1.75    5.74   0
   1   2   3    0.94    6.21   0
  -2  -2  -3  196.27    8.17   0
   2   2   3  266.59    8.17   0
  -3  -2  -3   17.50    5.21   0
   3   2   3   14.72    6.37   0
   4   2   3  132.96    6.76   0
  -4  -2  -3  151.82    6.64   0
  -5  -2  -3   83.71    6.26   0
   5   2   3   64.78    7.35   0
  -6  -2  -3   25.24    6.00   0
   6   2   3   21.07    6.09   0
   7   2   3   -2.55    6.94   0
  -7  -2  -3    0.90    6.64   0
  10  -3  -3   18.44    6.88   0
   9  -3  -3   13.08    5.67   0
   8  -3  -3  446.50    8.37   0
   7  -3  -3   67.10    5.30   0
   6  -3  -3   55.11    5.42   0
  -5   3   3   13.47    7.17   0
   5  -3  -3   11.16    4.99   0
  -4   3   3    2.63    5.83   0
   4  -3  -3    5.68    4.72   0
   3  -3  -3 1759.33   13.41   0
   2  -3  -3 2865.25   18.19   0
  -2   3   3 3089.54   18.26   0
  -1   3   3  102.40    6.89   0
   1  -3  -3   95.27    6.22   0
   0   3   3    2.36    4.85   0
   0  -3  -3   -0.59    5.98   0
  -1  -3  -3    3.10    5.24   0
   1   3   3    0.26    6.29   0
   2   3   3   93.28    6.53   0
  -2  -3  -3  110.99    6.33   0
  -3  -3  -3  145.08    6.71   0
   3   3   3  151.17    7.11   0
   4   3   3    8.00    6.24   0
  -4  -3  -3    7.13    5.59   0
  -5  -3  -3   60.43    6.16   0
   5   3   3   64.41    6.41   0
  -6  -3  -3   -3.69    6.21   0
   6   3   3    4.04    6.57   0
  -7  -3  -3   -3.65    7.87   0
  10  -4  -3    3.63    6.52   0
   9  -4  -3    6.48    6.19   0
   8  -4  -3   84.30    6.11   0
   7  -4  -3   96.38    5.64   0
  -6   4   3   17.82    9.25   0
   6  -4  -3   13.66    5.05   0
   6  -4  -3   15.83    5.17   0
  -5   4   3    8.90    6.84   0
   5  -4  -3   10.00    5.41   0
   4  -4  -3  125.61    5.95   0
   3  -4  -3  703.92    9.48   0
   2  -4  -3  737.38   10.70   0
  -2   4   3  791.49    9.74   0
  -1   4   3   29.09    5.66   0
   1  -4  -3   31.16    5.85   0
   0  -4  -3   59.63    6.17   0
   0   4   3   74.01    6.18   0
  -1  -4  -3  235.49    7.33   0
   1   4   3  219.67    7.68   0
   2   4   3    1.42    5.98   0
  -2  -4  -3   12.17    5.31   0
   3   4   3  165.17    7.15   0
  -3  -4  -3  166.69    7.53   0
   4   4   3   10.78    6.16   0
  -4  -4  -3   10.67    5.91   0
   5   4   3    7.74    6.33   0
  -5  -4  -3    1.71    6.12   0
  -6  -4  -3    2.34    7.55   0
   6   4   3   14.67    7.74   0
  10  -5  -3   94.77    7.62   0
   9  -5  -3   51.51    6.56   0
   9  -5  -3   54.91    6.12   0
   8  -5  -3    8.92    5.71   0
   8  -5  -3   13.91    5.53   0
   7  -5  -3  108.75    5.87   0
   7  -5  -3  113.33    5.98   0
   6  -5  -3   49.43    5.22   0
  -6   5   3   50.18    9.03   0
   6  -5  -3   50.72    5.25   0
   5  -5  -3  346.47    7.97   0
   4  -5  -3  120.38    6.23   0
   3  -5  -3   -0.92    5.64   0
  -3   5   3    3.14    5.18   0
   2  -5  -3   47.06    6.11   0
  -2   5   3   34.34    5.84   0
  -1   5   3    1.07    5.37   0
   1  -5  -3   -2.09    5.78   0
   0   5   3   73.74    6.28   0
   0  -5  -3   74.04    6.53   0
  -1  -5  -3  131.58    6.55   0
   1   5   3  133.35    6.61   0
  -2  -5  -3    8.80    6.78   0
   2   5   3    8.00    5.86   0
   3   5   3    2.60    6.65   0
  -3  -5  -3    1.08    6.51   0
   4   5   3    7.81    6.25   0
  -4  -5  -3    9.66    6.67   0
  -5  -5  -3    2.57    7.56   0
   5   5   3    7.19    7.80   0
  10  -6  -3    7.57    7.62   0
  10  -6  -3   -0.89    7.25   0
   9  -6  -3    4.74    6.52   0
   9  -6  -3   -0.23    6.60   0
   8  -6  -3    9.98    6.02   0
   8  -6  -3   15.79    6.18   0
   7  -6  -3   20.51    5.74   0
   7  -6  -3   20.12    5.61   0
   6  -6  -3    9.12    6.12   0
  -6   6   3   12.85    7.51   0
   5  -6  -3  285.20    7.12   0
   4  -6  -3  174.73    6.61   0
  -3   6   3   17.19    5.40   0
   3  -6  -3   13.57    5.78   0
   2  -6  -3   -0.48    5.63   0
  -2   6   3    0.02    5.35   0
  -1   6   3   15.80    6.03   0
   1  -6  -3    9.82    5.90   0
   0   6   3   75.56    6.23   0
   0  -6  -3   61.47    6.48   0
  -1  -6  -3   -2.14    7.03   0
   1   6   3    7.54    6.14   0
  -2  -6  -3   11.22    5.90   0
   2   6   3   16.81    5.88   0
   3   6   3    1.79    6.59   0
  -3  -6  -3    2.59    6.46   0
   4   6   3   10.61    7.59   0
  -4  -6  -3   14.64    7.37   0
  10  -7  -3    2.27    7.76   0
  10  -7  -3   -0.93    7.90   0
   9  -7  -3  -10.79    6.90   0
   9  -7  -3   -6.04    7.39   0
   8  -7  -3   68.15    6.15   0
   8  -7  -3   60.62    6.77   0
  -7   7   3  140.40   13.97   0
   7  -7  -3  125.99    7.12   0
   6  -7  -3    0.37    5.59   0
   5  -7  -3  101.38    6.68   0
   4  -7  -3    6.73    6.92   0
   3  -7  -3    0.22    6.47   0
  -3   7   3    4.23    6.53   0
   2  -7  -3   48.64    6.61   0
  -2   7   3   57.98    6.83   0
  -1   7   3    1.68    5.84   0
   1  -7  -3   -7.43    6.21   0
   0   7   3   17.40    6.06   0
   0  -7  -3   29.85    6.22   0
   1   7   3    7.82    6.23   0
  -1  -7  -3   17.41    6.45   0
   2   7   3    1.04    7.11   0
  -2  -7  -3   -0.53    6.89   0
   3   7   3    1.10    7.87   0
  -3  -7  -3    9.36    7.99   0
   9  -8  -3   -0.24    7.43   0
   9  -8  -3   -3.82    6.65   0
   8  -8  -3   15.62    7.42   0
   8  -8  -3   13.96    6.59   0
   7  -8  -3    4.26    7.23   0
  -7   8   3    2.24   10.07   0
   6  -8  -3    0.33    6.70   0
   5  -8  -3   27.42    6.31   0
   4  -8  -3   12.05    6.43   0
   3  -8  -3    7.25    6.35   0
  -3   8   3   -5.45    5.93   0
   2  -8  -3   -4.56    6.26   0
  -2   8   3   -0.29    6.46   0
   1  -8  -3   -6.08    7.58   0
  -1   8   3   -1.25    6.57   0
   0  -8  -3   -0.41    7.82   0
   0   8   3    3.94    6.78   0
  -1  -8  -3    7.51    7.93   0
   1   8   3    4.73    7.51   0
   8  -9  -3   12.29    7.94   0
   8  -9  -3    8.53    7.79   0
   7  -9  -3   -1.19    6.58   0
  -7   9   3    0.08   10.57   0
   6  -9  -3   -3.70    8.03   0
   5  -9  -3    5.56    6.80   0
   4  -9  -3    3.17    6.74   0
  -3   9   3    0.34    6.54   0
   3  -9  -3   -0.83    6.88   0
   2  -9  -3   22.72    7.49   0
  -2   9   3   20.08    7.19   0
   1  -9  -3    5.76    8.05   0
  -1   9   3    9.63    7.61   0
   5 -10  -3   12.28    8.37   0
   4 -10  -3    1.30    8.27   0
  -2  11  -4    0.63    9.03   0
   2 -11   4   -1.09    8.04   0
  -2  11  -4   13.64    7.54   0
  -3  11  -4    9.59    7.36   0
   3 -11   4   -2.77    7.79   0
  -3  11  -4    3.51    7.55   0
   4 -11   4    5.51    7.63   0
  -4  11  -4   -0.28    7.67   0
   5 -11   4    4.36    7.66   0
   6 -11   4   32.33    8.36   0
  -6  11  -4   23.15   10.10   0
  -1 -10   4   15.80    8.14   0
   1  10  -4   11.18    8.03   0
   1  10  -4   15.62    8.08   0
   0  10  -4   -7.67    7.06   0
   0 -10   4    7.14    7.43   0
   0  10  -4    6.73    7.29   0
   1 -10   4   44.03    7.50   0
  -1  10  -4   57.67    7.19   0
  -1  10  -4   49.54    7.16   0
  -2  10  -4    3.62    8.30   0
   2 -10   4    4.03    6.78   0
  -2  10  -4    2.84    6.50   0
  -3  10  -4   39.40    7.32   0
   3 -10   4   14.27    7.17   0
  -3  10  -4   36.86    6.68   0
   4 -10   4   22.75    6.83   0
  -4  10  -4   14.83    7.06   0
   5 -10   4   47.99    6.70   0
   6 -10   4    3.85    7.14   0
  -6  10  -4    1.85    9.72   0
   7 -10   4   21.27    7.64   0
  -3  -9   4    2.34    7.16   0
  -2  -9   4   -7.01    7.29   0
   2   9  -4    3.24    7.16   0
   2   9  -4    6.67    7.13   0
   1   9  -4   21.32    6.63   0
   1   9  -4   24.91    6.40   0
  -1  -9   4   11.04    6.33   0
   0  -9   4   22.03    6.87   0
   0   9  -4   21.09    6.27   0
   0   9  -4   18.39    6.44   0
  -1   9  -4    3.37    6.13   0
   1  -9   4    1.11    6.63   0
  -1   9  -4   11.11    5.80   0
  -2   9  -4    7.43    6.23   0
   2  -9   4    6.17    6.32   0
  -2   9  -4    7.97    5.76   0
   3  -9   4   47.36    6.43   0
  -3   9  -4   57.00    7.04   0
  -3   9  -4   33.18    6.11   0
   4  -9   4   41.97    6.06   0
  -4   9  -4   35.97    7.16   0
   5  -9   4    1.36    6.07   0
  -5   9  -4   13.47    8.26   0
   6  -9   4   25.33    6.00   0
   7  -9   4    1.81    6.88   0
   8  -9   4   20.71    7.63   0
   8  -9   4   17.94    7.54   0
  -4  -8   4   49.85    8.10   0
   4   8  -4   53.63    8.05   0
   4   8  -4   61.96    7.81   0
   3   8  -4    2.29    6.80   0
   3   8  -4   -3.79    6.12   0
  -3  -8   4    2.52    6.76   0
   2   8  -4   -0.38    6.21   0
   2   8  -4    7.64    6.12   0
  -2  -8   4   -1.80    6.64   0
   1   8  -4    3.12    5.92   0
   1   8  -4    3.19    5.70   0
  -1  -8   4    2.35    6.15   0
   0   8  -4   18.32    5.82   0
   0  -8   4   18.44    6.13   0
   0   8  -4   17.84    6.34   0
  -1   8  -4   -2.18    5.75   0
  -1   8  -4    6.21    6.01   0
   1  -8   4    4.67    6.14   0
   2  -8   4   16.10    6.03   0
  -2   8  -4   12.91    5.60   0
  -2   8  -4   12.97    5.47   0
   3  -8   4  139.15    6.81   0
  -3   8  -4  159.23    6.45   0
  -3   8  -4  128.31    6.42   0
   4  -8   4   10.37    5.90   0
  -4   8  -4   11.94    6.76   0
   5  -8   4   30.10    5.86   0
  -5   8  -4   26.31    7.10   0
   6  -8   4   72.85    6.56   0
   7  -8   4    7.77    6.19   0
   7  -8   4   16.50    6.51   0
   8  -8   4    2.54    6.91   0
   8  -8   4   -0.33    6.93   0
   9  -8   4   18.80    7.49   0
   9  -8   4   11.14    8.01   0
   5   7  -4   12.58    7.56   0
  -5  -7   4   20.73    7.49   0
   5   7  -4   38.57    7.78   0
   4   7  -4    0.74    6.64   0
  -4  -7   4    4.38    5.90   0
   4   7  -4    1.12    6.44   0
  -3  -7   4   22.77    5.94   0
   3   7  -4   25.59    6.31   0
   3   7  -4   30.77    5.96   0
  -2  -7   4   25.93    6.27   0
   2   7  -4   36.83    6.05   0
   2   7  -4   39.99    5.45   0
   1   7  -4   10.70    5.76   0
   1   7  -4    6.67    6.12   0
  -1  -7   4    2.58    5.50   0
   0  -7   4   25.64    5.35   0
   0   7  -4   22.33    6.03   0
   0   7  -4   44.30    5.31   0
   1  -7   4   -3.99    5.44   0
  -1   7  -4   -2.54    5.12   0
  -1   7  -4    1.50    5.37   0
  -2   7  -4   94.22    6.45   0
  -2   7  -4  103.66    5.87   0
   2  -7   4  124.81    6.20   0
   3  -7   4   10.43    5.50   0
  -3   7  -4    7.28    5.92   0
  -3   7  -4    8.40    5.25   0
   4  -7   4   30.32    5.24   0
   5  -7   4   51.01    5.72   0
   6  -7   4   73.31    5.93   0
   7  -7   4   50.78    6.66   0
   7  -7   4   47.74    6.09   0
   8  -7   4    5.86    6.34   0
   8  -7   4    7.34    6.38   0
   9  -7   4    8.41    7.56   0
   9  -7   4    9.17    6.99   0
   6   6  -4   21.26    7.72   0
   6   6  -4    3.23    7.54   0
  -6  -6   4   16.91    7.41   0
   5   6  -4   11.27    6.74   0
  -5  -6   4    4.81    6.43   0
   5   6  -4   10.97    6.53   0
  -4  -6   4   18.80    6.00   0
   4   6  -4   25.71    5.84   0
   4   6  -4   12.74    6.11   0
  -3  -6   4   11.15    5.50   0
   3   6  -4    8.52    5.35   0
   3   6  -4   12.58    5.87   0
  -2  -6   4  245.52    7.55   0
   2   6  -4  312.38    7.53   0
   2   6  -4  427.20    7.48   0
   1   6  -4  323.04    7.46   0
   1   6  -4  334.78    6.98   0
  -1  -6   4  330.29    7.52   0
   0   6  -4   23.06    5.36   0
   0   6  -4   13.22    5.16   0
   0  -6   4   20.24    5.71   0
  -1   6  -4   -0.26    5.19   0
  -1   6  -4    4.81    5.32   0
   1  -6   4    1.78    5.64   0
   2  -6   4    5.96    5.57   0
  -2   6  -4    4.00    5.13   0
  -2   6  -4    3.47    5.40   0
   3  -6   4  184.78    6.74   0
  -3   6  -4  167.74    6.39   0
   4  -6   4  206.12    7.48   0
   5  -6   4   30.40    5.22   0
   6  -6   4   -5.40    5.37   0
   6  -6   4    3.72    5.36   0
   7  -6   4   12.26    5.69   0
   7  -6   4   17.66    5.73   0
   8  -6   4   -5.78    6.15   0
   8  -6   4    0.20    6.19   0
   9  -6   4    0.03    7.30   0
   9  -6   4    6.86    7.37   0
  -7  -5   4    7.72    7.33   0
   7   5  -4   -5.42    7.75   0
   7   5  -4   -6.57    6.77   0
   6   5  -4   68.99    6.94   0
  -6  -5   4   39.59    6.67   0
   6   5  -4   36.11    6.89   0
   5   5  -4   14.77    5.99   0
   5   5  -4   15.07    5.48   0
  -5  -5   4    4.80    5.87   0
  -4  -5   4    5.04    5.46   0
   4   5  -4   -2.75    5.81   0
   4   5  -4    4.85    5.59   0
  -3  -5   4  116.81    5.98   0
   3   5  -4  136.22    5.61   0
   3   5  -4  127.93    6.27   0
   2   5  -4  621.96    7.89   0
  -2  -5   4  427.45    9.45   0
   2   5  -4  516.09    9.38   0
  -1  -5   4   -0.93    5.70   0
   1   5  -4    3.17    5.53   0
   1   5  -4   -0.93    4.89   0
   0   5  -4   62.72    5.57   0
   0   5  -4   84.32    5.63   0
   0  -5   4   70.86    5.88   0
  -1   5  -4   33.30    5.33   0
  -1   5  -4   41.34    5.62   0
   1  -5   4   37.97    5.76   0
   2  -5   4   98.60    5.82   0
  -2   5  -4   95.67    5.84   0
  -2   5  -4   95.92    5.77   0
   3  -5   4  417.26    7.77   0
  -3   5  -4  436.18    9.15   0
   4  -5   4  288.98    6.84   0
   5  -5   4   -0.29    6.72   0
   5  -5   4   -1.66    5.86   0
   5  -5   4    0.09    5.82   0
   6  -5   4  119.39    5.89   0
   6  -5   4  119.98    9.18   0
   6  -5   4  124.52    5.86   0
   7  -5   4    5.26   10.24   0
   7  -5   4    6.59    5.67   0
   8  -5   4    0.40    6.08   0
   9  -5   4    2.32    6.62   0
  -8  -4   4   53.11    8.08   0
   8   4  -4   -2.20    9.09   0
   8   4  -4   -9.35    8.37   0
   7   4  -4  238.13    8.83   0
  -7  -4   4  198.42    7.96   0
   7   4  -4  195.41    8.22   0
  -6  -4   4    2.85    6.01   0
   6   4  -4   -1.88    6.27   0
   6   4  -4    1.08    5.91   0
   5   4  -4    2.46    5.93   0
   5   4  -4    8.29    5.93   0
  -5  -4   4    7.36    5.68   0
  -4  -4   4   12.54    5.67   0
   4   4  -4   19.94    5.29   0
   4   4  -4   13.59    5.15   0
  -3  -4   4    7.75    5.17   0
   3   4  -4    6.99    5.40   0
   3   4  -4    1.72    5.49   0
  -2  -4   4   18.03    5.40   0
   2   4  -4   34.79    4.94   0
   2   4  -4   28.34    5.39   0
   1   4  -4 2779.20   15.28   0
   1   4  -4 3167.38   17.03   0
  -1  -4   4 2610.03   18.26   0
   0   4  -4 1144.50   11.32   0
   0   4  -4 1168.45   10.98   0
   0  -4   4 1156.76   11.90   0
   1  -4   4 1031.87   11.40   0
  -1   4  -4  781.74    9.76   0
  -1   4  -4  874.25   10.48   0
   2  -4   4  261.32    6.97   0
   2  -4   4  359.55    8.41   0
  -2   4  -4  309.59    7.34   0
   3  -4   4    4.68    5.77   0
   3  -4   4    7.37    4.75   0
   4  -4   4    8.50    6.30   0
   4  -4   4   12.34    5.03   0
   4  -4   4   13.80    5.03   0
   5  -4   4   59.11    5.52   0
   5  -4   4   75.09    7.07   0
   6  -4   4  428.43    7.69   0
   6  -4   4  417.39   10.47   0
   7  -4   4   68.42    6.49   0
   7  -4   4   66.86    9.04   0
   8  -4   4   -0.36    8.73   0
   8  -4   4    6.38    5.79   0
   9  -4   4    4.55   11.94   0
   9  -4   4   -2.81    6.84   0
  -8  -3   4   -0.45    7.19   0
   8   3  -4    8.92    7.17   0
   8   3  -4   -1.13    7.22   0
   7   3  -4    0.06    6.93   0
   7   3  -4    1.14    5.79   0
  -7  -3   4   -2.09    6.22   0
  -6  -3   4   74.29    6.48   0
   6   3  -4  127.69    6.87   0
   6   3  -4   92.34    6.70   0
   5   3  -4   71.91    5.88   0
   5   3  -4   51.05    5.59   0
  -5  -3   4   50.02    5.27   0
   4   3  -4   16.00    5.34   0
  -4  -3   4   10.15    5.23   0
   4   3  -4   11.85    5.33   0
  -3  -3   4  176.46    6.96   0
   3   3  -4  249.91    6.67   0
   3   3  -4  242.64    6.89   0
  -2  -3   4  266.97    7.56   0
   2   3  -4  313.52    7.29   0
   2   3  -4  248.38    6.51   0
   1   3  -4   81.67    5.72   0
  -1  -3   4   68.59    6.54   0
   1   3  -4   75.94    5.97   0
   0  -3   4   30.19    6.47   0
   0   3  -4   36.38    5.41   0
   0   3  -4   29.98    5.21   0
   0  -3   4   33.87    5.22   0
   1  -3   4  165.56    6.95   0
  -1   3  -4  165.27    6.23   0
   1  -3   4  201.90    7.22   0
  -1   3  -4  153.68    7.37   0
   2  -3   4  769.96   10.38   0
   2  -3   4  576.69    9.43   0
   3  -3   4   72.81    5.27   0
   3  -3   4   74.94    5.47   0
   3  -3   4   70.40    5.36   0
   4  -3   4   -2.84    5.66   0
   4  -3   4    1.29    4.59   0
   5  -3   4  141.60    6.73   0
   5  -3   4  139.26    7.14   0
   6  -3   4   50.59    5.49   0
   6  -3   4   47.76    6.96   0
   7  -3   4   34.37    7.24   0
   7  -3   4   34.97    6.16   0
   8  -3   4   53.33    6.51   0
   8  -3   4   50.24    8.93   0
   9  -3   4   14.61    7.39   0
   9  -3   4   23.12   10.23   0
  -9  -2   4    4.43    7.40   0
   9   2  -4    0.43    8.89   0
   9   2  -4    6.40    7.53   0
   8   2  -4    3.02    7.19   0
   8   2  -4    0.11    6.52   0
  -8  -2   4   -2.66    5.65   0
  -7  -2   4   60.29    6.12   0
   7   2  -4   69.40    6.31   0
   7   2  -4   76.23    6.50   0
   6   2  -4  172.72    6.74   0
  -6  -2   4  128.45    6.71   0
   6   2  -4  212.99    7.57   0
   5   2  -4   52.65    5.71   0
  -5  -2   4   39.32    5.47   0
   5   2  -4   70.80    6.83   0
   4   2  -4  153.07    6.34   0
  -4  -2   4  113.26    6.64   0
   4   2  -4  153.80    6.51   0
   3   2  -4  195.68    6.25   0
  -3  -2   4  170.74    6.46   0
   3   2  -4  197.95    6.41   0
  -2  -2   4  154.97    7.55   0
   2   2  -4  135.62    5.71   0
   2   2  -4  177.05    6.53   0
  -1  -2   4  208.65    8.30   0
  -1  -2   4  137.52    4.81   0
   1   2  -4  203.03    6.33   0
   1   2  -4  217.89    8.19   0
   0   2  -4   63.74    7.13   0
   0  -2   4   75.25    7.40   0
   0  -2   4   72.60    5.69   0
   0   2  -4   67.31    5.64   0
   1  -2   4  185.61    8.36   0
   1  -2   4  215.36    6.56   0
   2  -2   4   81.47    5.82   0
   2  -2   4   84.49    5.44   0
   3  -2   4  212.60    6.60   0
   4  -2   4    1.95    4.74   0
   5  -2   4   77.50    6.62   0
   6  -2   4    3.44    5.27   0
   7  -2   4   20.84    6.00   0
   8  -2   4   10.68    6.70   0
   9  -2   4    9.21    7.90   0
   9   1  -4    3.20    7.25   0
   9   1  -4    1.30    8.19   0
  -9  -1   4    4.94    7.13   0
   8   1  -4   46.95    6.75   0
   8   1  -4   55.85    7.36   0
  -8  -1   4   40.17    6.41   0
   7   1  -4   51.43    5.83   0
  -7  -1   4   51.06    6.06   0
   7   1  -4   64.89    6.06   0
   6   1  -4   75.42    5.94   0
  -6  -1   4   59.21    5.75   0
   6   1  -4  121.63    6.46   0
   5   1  -4  123.58    5.91   0
   5   1  -4  116.83    6.34   0
  -5  -1   4   99.61    6.43   0
   4   1  -4  179.97    6.37   0
   4   1  -4  160.37    6.03   0
  -4  -1   4  175.93    6.36   0
   3   1  -4   67.48    5.53   0
  -3  -1   4   52.80    5.45   0
   3   1  -4   59.34    5.36   0
  -2  -1   4  461.78   10.15   0
   2   1  -4  477.74   10.20   0
  -2  -1   4  461.57    8.26   0
   2   1  -4  476.33    8.25   0
  -1  -1   4  159.21    5.96   0
   1   1  -4  163.13    5.82   0
   1   1  -4  155.64   10.07   0
  -1  -1   4  147.68    9.59   0
   0  -1   4    3.74   14.48   0
   0  -1   4    3.29   13.78   0
   0  -1   4    3.50    4.59   0
   1  -1   4  474.15   12.65   0
   2  -1   4   69.87    6.77   0
   3  -1   4   14.72    4.92   0
  -3   1  -4   15.45    4.80   0
   4  -1   4   -0.49    5.74   0
  -4   1  -4    0.75    4.70   0
   5  -1   4    8.25    6.09   0
  -5   1  -4    7.25    5.11   0
   6  -1   4   16.94    5.51   0
  -6   1  -4   24.31    5.45   0
   7  -1   4   -2.32    5.63   0
  -7   1  -4   -1.38    5.53   0
   8  -1   4   -3.84    7.92   0
  -8   1  -4    1.63    6.74   0
  10   0  -4   12.48    7.96   0
  10   0  -4    3.07    9.87   0
 -10   0   4    2.52    7.72   0
   9   0  -4    5.94    8.34   0
  -9   0   4    3.43    6.60   0
   9   0  -4    2.87    7.24   0
   8   0  -4    4.57    5.81   0
  -8   0   4    7.32    6.08   0
   8   0  -4    3.02    6.94   0
   7   0  -4   13.28    5.29   0
   7   0  -4    3.62    5.31   0
  -7   0   4    9.50    5.23   0
   6   0  -4   31.02    5.57   0
  -6   0   4   22.85    5.50   0
   6   0  -4   32.04    5.02   0
   5   0  -4   20.83    5.10   0
   5   0  -4   24.57    4.98   0
  -5   0   4   19.08    5.19   0
   4   0  -4  301.70    7.10   0
  -4   0   4  278.96    7.15   0
   4   0  -4  325.60    7.16   0
   3   0  -4   82.73    6.33   0
   3   0  -4   69.49    5.37   0
  -3   0   4   76.52    5.64   0
  -3   0   4   84.51    5.48   0
   2   0  -4  261.71    6.85   0
   2   0  -4  264.53    8.78   0
  -2   0   4  223.56    6.61   0
   1   0  -4  540.59   19.29   0
   1   0  -4  439.03   18.52   0
  -1   0   4  508.28    8.23   0
   0   0  -4   33.44   11.61   0
   0   0   4   33.99   12.43   0
  -1   0  -4   11.66    7.31   0
   1   0   4   12.76    6.69   0
   2   0   4    7.54    6.01   0
   3   0   4   16.95    6.26   0
  -3   0  -4   13.20    6.01   0
   4   0   4   -0.21    5.96   0
  -4   0  -4    0.48    5.65   0
   5   0   4  140.77    7.35   0
  -5   0  -4  145.20    7.23   0
  -6   0  -4   -2.27    6.39   0
   6   0   4    4.14    5.75   0
   7   0   4    9.36    6.99   0
  -7   0  -4   14.35    6.48   0
  -8   0  -4   30.04    7.74   0
   8   0   4   15.56    7.85   0
  10  -1  -4    4.75    7.51   0
  10  -1  -4    3.01   10.46   0
   9  -1  -4    6.93    8.38   0
   9  -1  -4   12.53    6.82   0
  -8   1   4   28.20    6.00   0
   8  -1  -4   31.27    5.49   0
   8  -1  -4   39.73    7.06   0
  -7   1   4   56.10    5.55   0
   7  -1  -4   62.47    5.25   0
   7  -1  -4   77.58    7.01   0
  -6   1   4    6.22    5.30   0
   6  -1  -4    5.89    5.09   0
   6  -1  -4    6.39    5.34   0
   5  -1  -4  399.21    8.12   0
   5  -1  -4  434.88    7.84   0
  -4   1   4  604.25   10.23   0
   4  -1  -4  549.54    9.56   0
   4  -1  -4  606.26    8.52   0
  -3   1   4   40.61    5.99   0
   3  -1  -4   42.62    6.26   0
   2  -1  -4   40.36    6.38   0
  -2   1   4   49.51    5.13   0
   1  -1  -4  424.80   12.80   0
   0  -1  -4  518.25   12.60   0
   0   1   4  492.45   12.09   0
   1   1   4  537.83   11.45   0
   2   1   4  160.34    7.85   0
  -2  -1  -4  117.77    7.63   0
  -3  -1  -4  103.94    6.12   0
   3   1   4   88.41    7.37   0
  -4  -1  -4   29.66    6.61   0
   4   1   4   23.60    6.93   0
   5   1   4   39.60    5.73   0
  -5  -1  -4   45.17    5.45   0
   6   1   4   31.05    6.37   0
  -6  -1  -4   23.80    5.79   0
  -7  -1  -4   -4.83    7.13   0
   7   1   4    5.07    7.54   0
  10  -2  -4    0.55    7.31   0
   9  -2  -4   23.59    7.05   0
   8  -2  -4   -3.53    5.72   0
   7  -2  -4   20.18    5.58   0
   6  -2  -4   55.67    5.65   0
  -5   2   4  228.51    8.44   0
   5  -2  -4  213.93    6.47   0
   4  -2  -4  301.73    7.32   0
  -4   2   4  283.21    8.07   0
  -3   2   4   49.40    5.16   0
   3  -2  -4   54.84    6.33   0
  -1   2   4   64.16    7.02   0
   0   2   4  585.04   11.59   0
  -1  -2  -4  234.54    8.02   0
   1   2   4  295.85    8.32   0
  -2  -2  -4   -1.14    4.77   0
   2   2   4    0.16    5.05   0
   3   2   4   10.41    6.52   0
  -3  -2  -4   15.80    5.26   0
  -4  -2  -4    2.38    6.05   0
   4   2   4    8.56    5.41   0
  -5  -2  -4   12.16    5.70   0
   5   2   4   10.27    6.08   0
   6   2   4    8.74    6.65   0
  -6  -2  -4   10.09    6.61   0
  -7  -2  -4    4.85    7.30   0
   7   2   4    1.38    7.47   0
  10  -3  -4   -1.02    6.31   0
   9  -3  -4    1.87    6.71   0
   8  -3  -4   10.77    5.54   0
   7  -3  -4   12.06    5.10   0
  -6   3   4   17.70    7.92   0
   6  -3  -4   13.13    5.43   0
  -5   3   4   19.41    6.58   0
   5  -3  -4   15.81    5.16   0
   5  -3  -4   19.05    5.10   0
  -4   3   4  312.61    7.43   0
   4  -3  -4  341.47    7.94   0
   3  -3  -4   80.33    6.61   0
   2  -3  -4  597.68   10.52   0
  -2   3   4  537.73    9.59   0
  -1   3   4  461.46    8.80   0
   1  -3  -4  396.77    9.37   0
   0   3   4  102.14    7.46   0
   0  -3  -4   74.40    7.25   0
  -1  -3  -4   36.77    5.66   0
   1   3   4   41.74    5.75   0
   2   3   4   23.24    6.67   0
  -2  -3  -4   21.10    6.44   0
   3   3   4  210.28    8.03   0
  -3  -3  -4  207.90    7.26   0
   4   3   4  134.29    6.90   0
  -4  -3  -4  127.32    6.99   0
  -5  -3  -4   17.94    6.56   0
   5   3   4   31.01    7.21   0
  -6  -3  -4    2.42    7.64   0
   6   3   4   -4.26    7.50   0
  10  -4  -4   14.98    7.64   0
   9  -4  -4   41.50    6.67   0
   8  -4  -4   22.10    5.51   0
   7  -4  -4   24.36    5.37   0
  -6   4   4   52.92    8.75   0
   6  -4  -4   45.36    5.44   0
   6  -4  -4   43.39    6.29   0
   5  -4  -4  923.46    9.88   0
  -5   4   4  912.59   12.46   0
   5  -4  -4  901.99    9.67   0
   4  -4  -4    1.92    5.26   0
   3  -4  -4   56.92    5.68   0
   2  -4  -4   72.16    6.09   0
  -2   4   4   84.64    5.85   0
  -1   4   4    8.08    6.15   0
   1  -4  -4    7.27    5.46   0
   0   4   4   -1.09    5.21   0
   0  -4  -4   -0.71    5.22   0
  -1  -4  -4  395.71    9.03   0
   1   4   4  434.27    9.75   0
  -2  -4  -4  356.57    8.19   0
   2   4   4  393.51    8.42   0
  -3  -4  -4  111.59    7.52   0
   3   4   4  127.57    7.62   0
   4   4   4   14.69    7.32   0
  -4  -4  -4   34.13    7.32   0
  -5  -4  -4   -1.95    7.14   0
   5   4   4    0.02    8.28   0
  10  -5  -4   65.13    7.72   0
  10  -5  -4   61.17    7.68   0
   9  -5  -4  197.02    8.12   0
   9  -5  -4  194.68    8.05   0
   8  -5  -4   21.80    5.77   0
   8  -5  -4   21.52    5.67   0
   7  -5  -4   33.90    5.71   0
  -7   5   4   34.57   10.61   0
   7  -5  -4   32.63    5.71   0
   6  -5  -4   10.96    5.22   0
  -6   5   4    7.87    7.39   0
   6  -5  -4   12.02    5.21   0
   5  -5  -4   52.08    6.75   0
   4  -5  -4  648.68   10.37   0
   3  -5  -4  208.46    7.58   0
  -3   5   4  238.80    7.16   0
   2  -5  -4   78.47    7.41   0
  -2   5   4   78.76    6.01   0
  -1   5   4  118.38    7.51   0
   1  -5  -4  106.05    8.18   0
   0   5   4   -2.53    6.31   0
   0  -5  -4   -1.55    5.59   0
   1   5   4   18.46    6.30   0
  -1  -5  -4   11.83    5.43   0
   2   5   4   77.42    6.60   0
  -2  -5  -4   65.05    7.32   0
   3   5   4    2.97    7.85   0
  -3  -5  -4    3.37    7.62   0
   4   5   4   32.85    7.75   0
  -4  -5  -4   29.93    7.45   0
  10  -6  -4   21.98    7.66   0
  10  -6  -4   29.20    7.56   0
   9  -6  -4   92.42    7.45   0
   9  -6  -4   92.04    7.76   0
   8  -6  -4   -1.00    6.22   0
   8  -6  -4   -2.14    6.13   0
  -7   6   4   49.93   11.13   0
   7  -6  -4   47.59    5.98   0
   7  -6  -4   34.80    6.13   0
   6  -6  -4   66.63    6.01   0
  -6   6   4   60.88    8.02   0
   5  -6  -4   36.01    5.72   0
   4  -6  -4  124.33    7.05   0
   3  -6  -4   22.92    6.01   0
  -3   6   4   27.86    6.57   0
   2  -6  -4   61.69    6.53   0
  -2   6   4   75.37    6.23   0
  -1   6   4   42.79    5.85   0
   1  -6  -4   44.93    6.20   0
   0   6   4   10.99    6.55   0
   0  -6  -4   11.36    6.22   0
  -1  -6  -4    4.51    6.15   0
   1   6   4    3.04    7.21   0
   2   6   4    9.39    7.22   0
  -2  -6  -4    4.94    7.07   0
  -3  -6  -4    4.07    7.31   0
   3   6   4    5.10    7.57   0
   9  -7  -4    6.53    7.08   0
   9  -7  -4    1.58    6.91   0
   8  -7  -4   11.93    6.36   0
   8  -7  -4   17.45    6.39   0
   7  -7  -4   29.48    6.32   0
   7  -7  -4   28.45    6.28   0
  -7   7   4   29.60    9.82   0
   6  -7  -4  100.02    6.64   0
   5  -7  -4    6.86    6.18   0
   4  -7  -4    1.57    6.05   0
   3  -7  -4   42.85    6.57   0
  -3   7   4   55.70    6.30   0
   2  -7  -4    0.72    6.17   0
  -2   7   4    2.59    6.44   0
  -1   7   4  100.17    7.33   0
   1  -7  -4   88.41    8.10   0
   0   7   4   17.98    7.44   0
   0  -7  -4   19.56    7.20   0
   1   7   4   13.87    8.30   0
  -1  -7  -4    2.65    7.72   0
   2   7   4    0.37    7.81   0
  -2  -7  -4    9.94    7.64   0
   9  -8  -4    4.31    7.75   0
   9  -8  -4    4.64    7.49   0
   8  -8  -4   -5.25    6.97   0
   8  -8  -4   -0.06    7.04   0
   7  -8  -4    2.69    7.08   0
  -7   8   4    2.95    9.24   0
   6  -8  -4    9.00    6.36   0
   5  -8  -4    2.73    6.47   0
   4  -8  -4   -7.31    7.07   0
   3  -8  -4    1.50    8.04   0
  -3   8   4    1.77    6.70   0
   2  -8  -4   49.53    7.69   0
  -2   8   4   52.08    7.51   0
   1  -8  -4    3.45    7.58   0
  -1   8   4    5.00    7.15   0
   0  -8  -4    0.79    8.02   0
   0   8   4    6.31    8.40   0
   7  -9  -4   -0.11    8.00   0
  -7   9   4    4.47   10.70   0
   6  -9  -4   14.09    8.02   0
   5  -9  -4   -2.91    7.56   0
   4  -9  -4    4.47    7.64   0
   3  -9  -4    4.27    8.29   0
  -3   9   4    6.06    7.55   0
  -2   9   4    2.45    7.39   0
   2  -9  -4    1.82    8.00   0
  -2  11  -5   20.62    8.11   0
   2 -11   5   13.22    8.34   0
  -2  11  -5   12.81    7.86   0
  -3  11  -5   25.67    7.54   0
   3 -11   5   18.58    7.80   0
  -3  11  -5   20.10    7.76   0
   4 -11   5    3.00    7.76   0
  -4  11  -5   11.29    8.00   0
   5 -11   5   -0.74    8.09   0
  -1 -10   5   30.16    8.51   0
   1  10  -5   28.58    8.25   0
   1  10  -5   45.74    8.28   0
   0  10  -5    3.50    7.12   0
   0  10  -5   -1.60    7.15   0
   0 -10   5    5.57    7.56   0
  -1  10  -5   -1.40    6.74   0
   1 -10   5    5.96    6.59   0
  -1  10  -5    7.09    6.93   0
  -2  10  -5   25.72    7.54   0
   2 -10   5   11.04    6.51   0
  -2  10  -5   22.62    7.16   0
  -3  10  -5    0.78    6.14   0
  -3  10  -5    4.87    6.70   0
   3 -10   5    3.71    6.20   0
   4 -10   5    3.65    6.92   0
  -4  10  -5    5.55    6.98   0
   5 -10   5    6.81    7.06   0
   6 -10   5   31.20    7.46   0
   7 -10   5   21.20    7.81   0
   3   9  -5   -0.74    8.27   0
   3   9  -5   12.29    7.75   0
  -2  -9   5    9.36    7.57   0
   2   9  -5    1.99    7.35   0
   2   9  -5   12.13    7.02   0
   1   9  -5    3.56    6.96   0
   1   9  -5    8.08    6.91   0
  -1  -9   5    7.23    7.23   0
   0   9  -5    3.01    6.54   0
   0   9  -5   -0.94    6.66   0
   0  -9   5    7.04    6.21   0
  -1   9  -5    6.85    6.81   0
  -1   9  -5   16.80    5.80   0
   1  -9   5   12.39    6.64   0
  -2   9  -5   -2.45    6.11   0
   2  -9   5   -0.15    6.07   0
  -2   9  -5    0.65    5.85   0
   3  -9   5   33.71    6.39   0
  -3   9  -5   47.32    6.30   0
  -3   9  -5   48.63    6.09   0
   4  -9   5    4.03    6.03   0
  -4   9  -5    0.99    7.01   0
   5  -9   5   -2.26    6.51   0
   6  -9   5   46.67    6.83   0
   7  -9   5    1.24    6.61   0
   7  -9   5    0.31    7.28   0
   8  -9   5   19.57    7.60   0
   8  -9   5   22.60    7.55   0
   4   8  -5    3.24    7.95   0
   4   8  -5    0.97    7.48   0
  -4  -8   5   -6.34    7.95   0
   3   8  -5   55.09    7.29   0
  -3  -8   5   50.56    7.90   0
   3   8  -5   69.44    7.11   0
  -2  -8   5   17.28    6.92   0
   2   8  -5    3.09    6.70   0
   2   8  -5   20.73    5.75   0
   1   8  -5   57.39    6.37   0
   1   8  -5   62.95    6.16   0
  -1  -8   5   48.95    6.72   0
   0   8  -5   -0.88    5.77   0
   0   8  -5   10.25    5.64   0
   0  -8   5    9.28    5.86   0
  -1   8  -5   38.84    6.65   0
   1  -8   5   33.38    6.36   0
  -1   8  -5   42.55    5.84   0
   2  -8   5   74.00    6.62   0
  -2   8  -5  108.67    6.03   0
  -2   8  -5  100.67    6.27   0
   3  -8   5   12.33    5.81   0
  -3   8  -5   20.55    5.30   0
  -3   8  -5   28.67    5.78   0
   4  -8   5   -0.20    5.97   0
  -4   8  -5    0.01    7.33   0
   5  -8   5    7.05    5.86   0
  -5   8  -5    5.05    7.28   0
   6  -8   5   15.30    5.90   0
   7  -8   5   29.71    6.86   0
   7  -8   5   18.79    6.33   0
   8  -8   5   -4.54    6.89   0
   8  -8   5    0.11    7.02   0
   5   7  -5   -2.34    7.78   0
  -5  -7   5    0.23    7.46   0
   5   7  -5    1.97    7.49   0
   4   7  -5   82.25    6.68   0
   4   7  -5   97.75    6.68   0
  -4  -7   5   55.87    7.05   0
  -3  -7   5    5.10    6.52   0
   3   7  -5    3.45    6.34   0
   3   7  -5   11.00    5.58   0
  -2  -7   5   -5.96    5.83   0
   2   7  -5   -2.35    5.96   0
   2   7  -5   -4.55    5.29   0
   1   7  -5   43.69    5.78   0
   1   7  -5   32.94    5.99   0
  -1  -7   5   25.50    5.99   0
   0   7  -5   26.60    5.96   0
   0  -7   5   25.37    5.74   0
   0   7  -5   23.12    5.30   0
  -1   7  -5  187.22    6.30   0
  -1   7  -5  155.24    6.28   0
   1  -7   5  113.47    7.26   0
   2  -7   5  138.72    6.97   0
  -2   7  -5  201.10    7.43   0
  -2   7  -5  141.91    6.65   0
   3  -7   5    3.61    5.42   0
  -3   7  -5   10.80    6.03   0
   4  -7   5   20.20    5.49   0
  -4   7  -5   15.33    5.79   0
   5  -7   5   57.86    6.02   0
   6  -7   5   32.84    6.05   0
   6  -7   5   33.03    6.71   0
   7  -7   5   26.23    5.97   0
   7  -7   5   27.64    5.84   0
   8  -7   5    0.43    7.15   0
   8  -7   5   -0.08    6.51   0
   9  -7   5    9.19    7.82   0
   9  -7   5    6.39    7.63   0
   6   6  -5    0.19    7.57   0
   6   6  -5   -2.46    7.60   0
  -6  -6   5  -12.03    7.45   0
   5   6  -5    9.92    6.46   0
  -5  -6   5   -0.13    6.56   0
   5   6  -5  -11.71    6.59   0
  -4  -6   5    2.47    6.40   0
   4   6  -5   10.30    5.97   0
   4   6  -5    7.53    6.06   0
  -3  -6   5   20.84    6.13   0
   3   6  -5   54.40    5.64   0
   3   6  -5   33.22    6.02   0
  -2  -6   5    2.46    5.44   0
   2   6  -5    5.58    5.34   0
   2   6  -5    4.72    5.33   0
   1   6  -5  972.97   11.44   0
   1   6  -5  919.82    9.16   0
  -1  -6   5  737.52   10.88   0
   0   6  -5    3.51    5.68   0
   0   6  -5    2.13    5.91   0
   0  -6   5   -5.61    6.06   0
  -1   6  -5   16.94    5.32   0
  -1   6  -5   18.10    5.81   0
   1  -6   5   15.10    6.72   0
   2  -6   5   99.64    6.11   0
  -2   6  -5   94.61    7.03   0
  -2   6  -5   86.22    6.91   0
   3  -6   5   -1.86    5.42   0
  -3   6  -5    3.80    5.80   0
   4  -6   5  117.43    5.94   0
   5  -6   5 1351.88   11.16   0
   5  -6   5 1331.85   11.19   0
   6  -6   5   80.67    7.24   0
   6  -6   5  114.24    6.26   0
   7  -6   5    2.00    5.57   0
   7  -6   5    4.89    5.52   0
   8  -6   5    1.76    6.36   0
   8  -6   5   -7.47    6.52   0
   9  -6   5    4.65    7.35   0
   9  -6   5   -6.23    7.40   0
  -7  -5   5   -0.81    7.47   0
   7   5  -5   -5.88    7.77   0
   7   5  -5  -10.14    7.71   0
   6   5  -5    2.51    6.65   0
   6   5  -5   -0.12    6.47   0
  -6  -5   5    6.31    5.96   0
   5   5  -5    9.05    5.84   0
   5   5  -5    9.71    5.81   0
  -5  -5   5    5.45    5.33   0
  -4  -5   5    5.13    5.72   0
   4   5  -5   45.17    5.91   0
   4   5  -5   28.64    5.85   0
   3   5  -5   31.37    5.34   0
  -3  -5   5   25.36    5.23   0
   3   5  -5   33.53    5.30   0
  -2  -5   5    2.73    5.62   0
   2   5  -5    4.45    5.69   0
   2   5  -5   -1.34    4.76   0
   1   5  -5    3.17    5.38   0
   1   5  -5    1.04    4.87   0
  -1  -5   5   -4.59    5.52   0
   0   5  -5  277.05    7.01   0
   0   5  -5  209.34    6.87   0
   0  -5   5  166.23    7.73   0
   1  -5   5  108.86    6.09   0
  -1   5  -5   90.90    5.92   0
  -1   5  -5   92.41    5.82   0
   2  -5   5   -0.22    5.06   0
  -2   5  -5    1.49    5.74   0
  -2   5  -5    0.19    5.20   0
   3  -5   5  171.24    6.19   0
   3  -5   5  209.64    6.60   0
  -3   5  -5  177.26    6.40   0
   4  -5   5  346.80    8.88   0
   4  -5   5  344.72    7.25   0
   5  -5   5    1.12    6.27   0
   5  -5   5   -0.21    5.15   0
   5  -5   5   -5.66    6.00   0
   6  -5   5  134.41    8.39   0
   6  -5   5  115.97    6.76   0
   6  -5   5  122.02    5.95   0
   7  -5   5    1.45    7.63   0
   7  -5   5    8.62    6.46   0
   7  -5   5   -2.21    5.68   0
   8  -5   5   36.18    6.97   0
   8  -5   5   30.59   10.01   0
   9  -5   5   29.85   16.72   0
   9  -5   5   47.82    7.69   0
   8   4  -5   -8.10    8.18   0
  -8  -4   5    5.48    7.79   0
   8   4  -5   -4.03    9.50   0
  -7  -4   5   74.88    7.42   0
   7   4  -5  119.60    7.82   0
   7   4  -5   56.42    8.05   0
  -6  -4   5    7.37    6.15   0
   6   4  -5    6.03    5.94   0
   6   4  -5    4.82    6.27   0
  -5  -4   5   22.69    5.72   0
   5   4  -5   42.39    6.19   0
   5   4  -5   25.78    5.91   0
   4   4  -5  111.84    5.69   0
  -4  -4   5   73.82    5.80   0
   4   4  -5   91.74    6.03   0
  -3  -4   5  252.22    8.68   0
   3   4  -5  313.59    9.02   0
   3   4  -5  484.57    7.59   0
  -2  -4   5   29.59    6.50   0
   2   4  -5   38.20    5.06   0
   2   4  -5   31.76    6.62   0
   1   4  -5   22.47    5.91   0
   1   4  -5   20.30    5.17   0
  -1  -4   5   15.20    5.31   0
   0   4  -5  160.86    6.39   0
   0   4  -5  145.47    6.07   0
   0  -4   5  151.54    6.84   0
  -1   4  -5   11.18    4.89   0
   1  -4   5   11.93    4.74   0
   1  -4   5    9.45    6.64   0
  -1   4  -5    7.31    6.11   0
   2  -4   5    3.63    4.63   0
   2  -4   5   -1.54    5.03   0
  -2   4  -5   -1.79    4.68   0
   3  -4   5   36.94    5.14   0
   3  -4   5   38.55    6.25   0
   4  -4   5   47.08    5.03   0
   4  -4   5   51.94    5.33   0
   4  -4   5   46.65    5.30   0
   5  -4   5   85.19    6.83   0
   5  -4   5   62.06    5.93   0
   6  -4   5    1.36    5.90   0
   6  -4   5   -1.11    6.73   0
   7  -4   5   46.42    8.72   0
   7  -4   5   54.65    6.21   0
   8  -4   5    7.51    8.87   0
   8  -4   5   12.39    6.80   0
   9  -4   5    0.19   11.05   0
   9  -4   5   13.21    7.88   0
   8   3  -5   22.39    8.69   0
   8   3  -5   15.81    7.46   0
  -8  -3   5   27.01    7.17   0
   7   3  -5   -1.08    6.79   0
  -7  -3   5   -5.10    6.87   0
   7   3  -5   -3.17    6.59   0
   6   3  -5   54.52    6.26   0
  -6  -3   5   35.14    5.70   0
   6   3  -5   38.24    5.67   0
  -5  -3   5    6.66    5.08   0
   5   3  -5    1.86    5.18   0
   5   3  -5    2.16    5.60   0
   4   3  -5  528.81    8.19   0
  -4  -3   5  346.64    8.98   0
   4   3  -5  336.83    9.06   0
  -3  -3   5  153.38    6.95   0
   3   3  -5  197.07    6.86   0
   3   3  -5  247.73    6.51   0
   2   3  -5   70.11    5.50   0
  -2  -3   5   58.56    5.58   0
   2   3  -5   55.42    6.77   0
   1   3  -5  207.81    7.07   0
  -1  -3   5  222.81    6.18   0
   1   3  -5  226.56    6.10   0
  -1  -3   5  178.01    8.44   0
   0   3  -5  402.94   10.00   0
   0  -3   5  495.85   10.83   0
   0  -3   5  496.37    7.64   0
   0   3  -5  395.10    7.24   0
   1  -3   5   37.16    6.93   0
   1  -3   5   43.68    5.01   0
  -1   3  -5   48.20    4.96   0
   2  -3   5  716.17    9.49   0
   2  -3   5  508.38    9.35   0
   3  -3   5   58.00    5.93   0
   3  -3   5   43.81    5.02   0
   3  -3   5   38.99    5.14   0
   4  -3   5  183.27    6.22   0
   4  -3   5  225.49    7.29   0
   5  -3   5   19.21    5.95   0
   5  -3   5   18.98    5.61   0
   6  -3   5    1.15    6.62   0
   6  -3   5    1.57    5.06   0
   7  -3   5   71.66    6.30   0
   7  -3   5   52.72    7.90   0
   8  -3   5   -0.15    6.99   0
   8  -3   5    0.46    8.83   0
   9  -3   5    4.90    7.86   0
   9  -3   5   10.75    9.58   0
   9   2  -5    1.62    8.64   0
  -9  -2   5    9.05    8.00   0
   9   2  -5    9.56    7.93   0
  -8  -2   5   38.24    6.74   0
   8   2  -5   49.32    6.60   0
   8   2  -5   12.67    7.03   0
   7   2  -5    4.42    5.81   0
  -7  -2   5    4.86    5.53   0
   7   2  -5   -2.53    5.73   0
  -6  -2   5   79.27    6.10   0
   6   2  -5  121.05    6.92   0
   6   2  -5   83.14    6.35   0
  -5  -2   5  172.42    7.37   0
   5   2  -5  284.83    7.15   0
   5   2  -5  210.86    7.45   0
  -4  -2   5    1.43    6.05   0
   4   2  -5    5.39    5.40   0
   4   2  -5    4.21    6.38   0
   3   2  -5   40.70    5.19   0
  -3  -2   5   26.44    4.97   0
   3   2  -5   26.39    5.30   0
   2   2  -5    7.46    4.66   0
  -2  -2   5    5.63    5.89   0
   2   2  -5    5.10    5.37   0
  -2  -2   5    9.10    4.85   0
  -1  -2   5  924.27   16.01   0
   1   2  -5  858.84   14.09   0
  -1  -2   5  962.27    9.82   0
   1   2  -5  783.42    8.94   0
   0  -2   5 1355.50   11.32   0
   0  -2   5 1258.10   21.01   0
   0   2  -5 1181.72   10.70   0
   0   2  -5 1010.17   18.44   0
   1  -2   5  371.42   11.86   0
   1  -2   5  354.34   11.20   0
   1  -2   5  450.77    7.48   0
   2  -2   5  591.34   11.55   0
   2  -2   5  630.25    8.42   0
   3  -2   5   14.40    4.89   0
   3  -2   5   13.84    5.81   0
   4  -2   5   60.81    5.50   0
   5  -2   5   47.23    5.67   0
   6  -2   5   14.06    5.32   0
   7  -2   5    1.59    6.48   0
   8  -2   5   63.92    7.59   0
   9   1  -5    4.43    6.88   0
   9   1  -5   15.44    8.67   0
  -9  -1   5   14.54    7.53   0
   8   1  -5   16.05    6.45   0
   8   1  -5   13.62    7.31   0
  -8  -1   5    9.79    6.39   0
   7   1  -5   13.29    5.73   0
  -7  -1   5    4.70    5.28   0
   7   1  -5    6.82    5.24   0
  -6  -1   5    5.97    5.24   0
   6   1  -5   12.61    5.36   0
   6   1  -5   18.79    5.99   0
   5   1  -5  122.54    6.42   0
   5   1  -5  164.67    6.17   0
  -5  -1   5  112.37    6.38   0
   4   1  -5  191.25    7.44   0
   4   1  -5  192.52    6.50   0
  -4  -1   5  164.60    7.39   0
   3   1  -5   27.70    5.39   0
  -3  -1   5   30.49    4.97   0
  -3  -1   5   31.28    5.19   0
   3   1  -5   28.58    4.80   0
  -2  -1   5  159.53    5.76   0
  -2  -1   5  151.72    8.08   0
   2   1  -5  160.77    5.70   0
   2   1  -5  162.74    8.45   0
  -1  -1   5  403.39   16.46   0
   1   1  -5  447.71   17.54   0
  -1  -1   5  455.59    7.54   0
   0  -1   5  164.34    5.80   0
   1  -1   5   25.84    8.72   0
   1  -1   5   23.65    4.62   0
   2  -1   5   15.64    6.84   0
   3  -1   5   28.72    6.26   0
   4  -1   5   85.99    5.97   0
  -4   1  -5   78.87    6.51   0
   5  -1   5   89.10    6.88   0
  -5   1  -5  113.26    5.95   0
   6  -1   5    3.21    5.76   0
  -6   1  -5   13.56    6.46   0
   7  -1   5    5.12    6.66   0
  -7   1  -5    7.83    6.83   0
   8  -1   5   -1.73    7.51   0
 -10   0   5   10.95    7.76   0
  -9   0   5    0.71    6.63   0
   9   0  -5   -0.68    6.73   0
   9   0  -5   -1.74    7.85   0
  -8   0   5  129.56    6.56   0
   8   0  -5  100.83    7.07   0
   8   0  -5  189.63    8.39   0
   7   0  -5    1.79    6.56   0
   7   0  -5    9.04    5.42   0
  -7   0   5    6.51    5.32   0
  -6   0   5    9.69    5.34   0
   6   0  -5   11.99    5.52   0
   6   0  -5   15.69    4.91   0
  -5   0   5  180.26    6.82   0
   5   0  -5  225.87    6.94   0
   5   0  -5  246.67    7.29   0
  -4   0   5    1.62    4.72   0
  -4   0   5    0.67    5.70   0
   4   0  -5   -0.57    5.55   0
   4   0  -5    0.12    4.77   0
  -3   0   5   24.88    6.10   0
  -3   0   5   23.33    4.88   0
   3   0  -5   22.64    5.15   0
   3   0  -5   23.58    4.66   0
  -2   0   5  277.96    7.00   0
   2   0  -5  284.05   10.53   0
  -1   0   5  446.78    7.42   0
   1   0   5   53.70    8.37   0
  -1   0  -5   51.84    7.78   0
   2   0   5   47.27    7.34   0
  -3   0  -5   56.05    5.22   0
   3   0   5   51.68    5.56   0
   4   0   5    3.61    5.53   0
  -4   0  -5    3.11    5.64   0
   5   0   5   -2.96    5.03   0
  -5   0  -5    4.96    4.81   0
  -6   0  -5    5.64    6.43   0
   6   0   5    2.84    7.55   0
  -7   0  -5    1.91    7.05   0
   7   0   5    2.58    8.20   0
  10  -1  -5    2.94    8.02   0
  10  -1  -5    2.21    9.64   0
   9  -1  -5   26.62    7.06   0
   9  -1  -5   24.60    8.73   0
   8  -1  -5   22.94    5.75   0
   8  -1  -5   19.75    7.37   0
   7  -1  -5    7.91    5.18   0
   7  -1  -5   -0.45    6.64   0
   6  -1  -5   15.98    5.20   0
   6  -1  -5   21.78    5.87   0
  -5   1   5    5.20    6.25   0
   5  -1  -5    3.76    4.63   0
   5  -1  -5    3.36    5.08   0
   4  -1  -5    8.63    5.93   0
  -4   1   5   13.37    4.90   0
  -3   1   5    2.81    4.61   0
   3  -1  -5    1.29    5.76   0
   2  -1  -5  623.38   13.05   0
   2  -1  -5  637.29   12.40   0
  -2   1   5  748.40    8.96   0
   1  -1  -5    3.29    7.60   0
   0   1   5   23.27    7.72   0
   0  -1  -5   15.44    7.72   0
   1   1   5   84.15    7.73   0
   2   1   5   96.44    7.48   0
  -3  -1  -5   26.10    5.81   0
   3   1   5   20.92    5.27   0
   4   1   5   30.56    6.31   0
  -4  -1  -5   37.90    6.20   0
   5   1   5   11.01    6.89   0
  -5  -1  -5   17.65    5.74   0
  -6  -1  -5   19.78    6.67   0
   6   1   5   20.58    6.83   0
   7   1   5    6.39    7.97   0
  -7  -1  -5   -5.86    7.79   0
  10  -2  -5    2.81    7.30   0
   9  -2  -5    1.80    6.25   0
   8  -2  -5   -3.78    5.68   0
   7  -2  -5   18.92    5.25   0
   6  -2  -5  100.46    6.86   0
  -6   2   5  133.05    7.47   0
  -5   2   5    9.50    4.83   0
   5  -2  -5    7.19    4.85   0
   4  -2  -5    8.77    4.86   0
  -4   2   5    4.27    4.83   0
   4  -2  -5    5.32    4.86   0
   3  -2  -5   28.71    5.96   0
  -3   2   5   25.74    4.92   0
  -1   2   5   87.26    7.36   0
   0   2   5    3.76    6.49   0
   1   2   5  533.49   11.88   0
   2   2   5    3.03    5.70   0
  -2  -2  -5    2.59    5.60   0
   3   2   5    9.00    5.18   0
  -3  -2  -5    7.80    4.91   0
  -4  -2  -5   10.63    5.49   0
   4   2   5    9.93    5.77   0
  -5  -2  -5   18.57    6.52   0
   5   2   5    1.69    6.50   0
   6   2   5   12.98    7.59   0
  -6  -2  -5   16.92    7.07   0
  10  -3  -5   13.35    7.23   0
   9  -3  -5    6.87    6.26   0
   8  -3  -5   -4.26    5.61   0
   7  -3  -5   78.07    5.97   0
  -6   3   5  849.05   12.38   0
   6  -3  -5  782.05    9.48   0
   5  -3  -5   23.74    5.98   0
  -5   3   5   23.83    4.99   0
   5  -3  -5   21.03    5.24   0
   4  -3  -5    1.56    5.47   0
  -4   3   5   -0.30    5.56   0
   4  -3  -5   -0.71    4.97   0
   3  -3  -5   -0.09    5.23   0
  -2   3   5   -0.23    5.89   0
  -1   3   5   83.11    6.70   0
   0   3   5   92.83    7.05   0
   0  -3  -5   82.20    6.98   0
  -1  -3  -5   22.91    5.14   0
   1   3   5   35.29    6.23   0
  -2  -3  -5   61.60    6.40   0
   2   3   5   62.34    6.61   0
  -3  -3  -5   -1.45    6.43   0
   3   3   5    4.95    5.87   0
  -4  -3  -5   35.38    6.50   0
   4   3   5   32.52    6.89   0
  -5  -3  -5    3.33    7.01   0
   5   3   5    3.66    7.16   0
  10  -4  -5    3.18    6.95   0
   9  -4  -5   44.43    6.88   0
   8  -4  -5   50.39    6.55   0
  -7   4   5   47.42    8.36   0
   7  -4  -5   42.61    6.01   0
   7  -4  -5   44.68    5.86   0
   6  -4  -5    2.28    5.11   0
  -6   4   5    3.40    6.69   0
   6  -4  -5    0.27    5.11   0
   5  -4  -5  421.38    7.88   0
  -5   4   5  415.33    9.06   0
   5  -4  -5  418.39    7.95   0
   4  -4  -5  263.92    7.29   0
   3  -4  -5  272.39    8.38   0
   2  -4  -5   50.79    5.99   0
  -2   4   5   63.22    6.59   0
  -1   4   5   27.42    6.20   0
   1  -4  -5   23.58    6.55   0
   0   4   5    9.98    6.03   0
   0  -4  -5    7.31    6.01   0
  -1  -4  -5    1.47    5.08   0
   1   4   5   -2.76    5.26   0
   2   4   5   77.44    7.12   0
  -2  -4  -5   84.68    6.34   0
   3   4   5   -1.87    6.48   0
  -3  -4  -5    9.02    6.36   0
   4   4   5   12.33    8.11   0
  -4  -4  -5   12.82    7.08   0
  -5  -4  -5   -4.74    8.14   0
   5   4   5    3.64    8.21   0
  10  -5  -5   -1.47    7.04   0
  10  -5  -5   -0.74    7.18   0
   9  -5  -5    8.28    6.59   0
   9  -5  -5    6.42    6.27   0
   8  -5  -5   17.15    5.56   0
   8  -5  -5   18.37    5.90   0
   7  -5  -5   63.01    6.13   0
  -7   5   5   70.98    9.19   0
   7  -5  -5   47.16    6.08   0
   6  -5  -5   24.47    5.29   0
  -6   5   5   24.06    7.05   0
   6  -5  -5   23.91    5.30   0
   5  -5  -5   67.15    6.02   0
  -5   5   5   60.07    6.67   0
   4  -5  -5  323.48    9.06   0
   3  -5  -5  179.05    8.01   0
   2  -5  -5   99.28    7.58   0
  -2   5   5   87.38    6.89   0
  -1   5   5    1.21    6.06   0
   1  -5  -5    5.54    6.21   0
   0   5   5   25.00    5.55   0
   0  -5  -5   30.56    5.59   0
   1   5   5   75.44    6.54   0
  -1  -5  -5   61.88    6.50   0
   2   5   5  125.37    8.44   0
  -2  -5  -5  125.85    7.58   0
   3   5   5    3.84    7.17   0
  -3  -5  -5    0.99    6.99   0
   4   5   5   10.23    9.45   0
  -4  -5  -5    3.84    9.01   0
  10  -6  -5    8.81    7.68   0
  10  -6  -5    5.25    7.88   0
   9  -6  -5    2.43    6.54   0
   9  -6  -5    6.43    7.22   0
   8  -6  -5   23.12    6.71   0
   8  -6  -5   18.32    6.20   0
   7  -6  -5    8.22    6.16   0
   7  -6  -5    9.18    6.34   0
  -7   6   5    9.72    7.38   0
   6  -6  -5   11.39    5.98   0
  -6   6   5   18.17    7.37   0
   5  -6  -5   -1.50    5.74   0
   4  -6  -5   65.40    7.13   0
   3  -6  -5   89.82    6.83   0
  -3   6   5  101.38    6.55   0
   2  -6  -5   -0.72    6.08   0
  -2   6   5   12.59    5.81   0
  -1   6   5   -1.60    6.80   0
   1  -6  -5    7.77    6.09   0
   0  -6  -5    4.84    6.48   0
   0   6   5    5.82    7.41   0
   1   6   5   70.29    7.07   0
  -1  -6  -5   50.69    7.80   0
   2   6   5   31.99    8.55   0
  -2  -6  -5   36.55    8.24   0
   9  -7  -5   28.75    7.68   0
   9  -7  -5   11.73    7.53   0
  -8   7   5    2.66   13.50   0
   8  -7  -5    9.92    6.81   0
   8  -7  -5    1.10    6.73   0
   7  -7  -5    8.58    7.62   0
   7  -7  -5    6.03    6.48   0
  -7   7   5    9.28    8.51   0
   6  -7  -5   27.79    6.87   0
   5  -7  -5   51.05    7.36   0
   4  -7  -5    0.71    7.77   0
   3  -7  -5   43.72    8.30   0
  -3   7   5   43.29    7.89   0
   2  -7  -5   -5.37    7.50   0
  -2   7   5   -2.49    6.75   0
   1  -7  -5    8.72    7.97   0
  -1   7   5   12.16    6.50   0
   0   7   5   11.91    7.96   0
   0  -7  -5   10.88    7.26   0
   1   7   5   -4.66    8.99   0
  -1  -7  -5   -3.96    8.21   0
   8  -8  -5   37.56    7.74   0
  -8   8   5   33.26   14.26   0
   8  -8  -5   35.59    8.12   0
   7  -8  -5    6.27    7.57   0
  -7   8   5    1.26   10.02   0
   6  -8  -5   19.51    8.60   0
   5  -8  -5   18.56    7.68   0
   4  -8  -5   -3.29    8.79   0
   3  -8  -5   14.28    8.83   0
  -3   8   5   23.77    7.99   0
   2  -8  -5    1.09    8.59   0
  -2   8   5   -5.85    7.42   0
   1  -8  -5    3.26    9.67   0
  -1   8   5    3.46    9.02   0
   6  -9  -5    4.82    8.40   0
   5  -9  -5   -7.24    8.50   0
   4  -9  -5    1.71    8.85   0
  -2  11  -6    5.72    8.00   0
   2 -11   6   -1.03    7.80   0
  -2  11  -6   -2.81    7.68   0
  -3  11  -6    5.57    7.62   0
   3 -11   6    2.95    7.55   0
  -3  11  -6    9.27    7.34   0
   4 -11   6    9.77    7.96   0
  -4  11  -6    5.60    8.81   0
  -1 -10   6    5.59    7.29   0
   1  10  -6    2.59    7.62   0
   1  10  -6    2.23    7.88   0
   0  10  -6   12.93    7.30   0
   0  10  -6   15.23    7.33   0
   0 -10   6    5.96    7.72   0
  -1  10  -6   11.65    6.96   0
   1 -10   6   22.36    7.13   0
  -1  10  -6   13.08    6.98   0
  -2  10  -6   61.00    7.45   0
   2 -10   6   40.47    7.05   0
  -2  10  -6   49.46    6.82   0
   3 -10   6    1.83    6.57   0
  -3  10  -6    0.63    6.47   0
  -3  10  -6   -2.23    6.36   0
   4 -10   6    4.13    6.73   0
  -4  10  -6    3.27    8.22   0
   5 -10   6   26.87    7.43   0
   6 -10   6    7.38    7.32   0
   7 -10   6   -7.98    8.06   0
   2   9  -6    2.82    7.31   0
  -2  -9   6    2.33    7.75   0
   2   9  -6   -3.43    7.00   0
   1   9  -6    3.23    7.33   0
   1   9  -6   -3.82    6.86   0
  -1  -9   6    9.68    7.50   0
   0   9  -6   82.93    6.81   0
   0   9  -6   86.46    7.05   0
   0  -9   6   60.59    7.11   0
  -1   9  -6   41.33    5.97   0
   1  -9   6   33.67    7.13   0
  -1   9  -6   45.82    6.76   0
   2  -9   6   10.18    6.10   0
  -2   9  -6   23.19    7.28   0
  -2   9  -6   15.61    5.97   0
   3  -9   6    6.97    6.58   0
  -3   9  -6    8.99    5.82   0
  -3   9  -6    7.25    6.30   0
   4  -9   6   12.60    5.98   0
  -4   9  -6   23.10    7.51   0
   5  -9   6   40.24    7.13   0
   6  -9   6    7.55    6.75   0
   7  -9   6    6.06    7.20   0
   7  -9   6   -5.51    7.14   0
   4   8  -6    4.97    7.72   0
   4   8  -6   12.69    6.53   0
  -4  -8   6   -5.61    7.77   0
   3   8  -6    1.81    6.02   0
   3   8  -6    0.53    7.06   0
  -3  -8   6    3.68    7.14   0
  -2  -8   6    1.87    6.46   0
   2   8  -6   -0.24    6.27   0
   2   8  -6    8.28    5.93   0
   1   8  -6   33.47    6.22   0
   1   8  -6   36.10    6.52   0
  -1  -8   6   28.83    6.34   0
   0   8  -6   59.83    6.21   0
   0   8  -6   61.62    6.50   0
   0  -8   6   60.02    6.51   0
  -1   8  -6    2.34    5.98   0
   1  -8   6    1.48    6.40   0
  -1   8  -6   -2.06    6.07   0
   2  -8   6    9.48    6.10   0
  -2   8  -6   14.03    5.69   0
  -2   8  -6    6.53    5.76   0
   3  -8   6   55.98    6.35   0
  -3   8  -6   69.48    6.24   0
   4  -8   6  101.26    6.83   0
  -4   8  -6  116.62    7.15   0
   5  -8   6    3.35    5.81   0
   6  -8   6   44.05    6.69   0
   6  -8   6   52.55    7.09   0
   7  -8   6    6.27    7.85   0
   7  -8   6    5.48    6.92   0
   8  -8   6   16.86    7.72   0
   8  -8   6   25.55    7.57   0
   5   7  -6   13.24    7.82   0
   5   7  -6   27.59    7.54   0
  -5  -7   6   27.88    7.63   0
   4   7  -6   28.72    7.56   0
   4   7  -6   39.48    6.72   0
  -4  -7   6   24.93    7.21   0
  -3  -7   6    1.90    6.29   0
   3   7  -6    4.15    6.15   0
   3   7  -6    0.03    5.56   0
  -2  -7   6   40.59    6.85   0
   2   7  -6   38.67    6.14   0
   2   7  -6   57.04    5.64   0
   1   7  -6    8.36    5.61   0
   1   7  -6    8.97    5.69   0
  -1  -7   6   11.33    5.90   0
   0   7  -6   48.78    5.64   0
   0   7  -6   49.85    5.68   0
   0  -7   6   34.24    5.88   0
  -1   7  -6    2.07    5.31   0
   1  -7   6   -2.89    5.87   0
  -1   7  -6    4.32    6.09   0
   2  -7   6   18.94    5.67   0
  -2   7  -6    2.98    5.39   0
  -2   7  -6    5.45    5.25   0
   3  -7   6   28.93    5.64   0
  -3   7  -6   33.59    5.46   0
   4  -7   6   19.29    6.43   0
  -4   7  -6   23.98    7.07   0
   5  -7   6   40.75    6.10   0
   6  -7   6   21.66    6.06   0
   6  -7   6   12.42    6.91   0
   7  -7   6   40.06    7.21   0
   7  -7   6   33.79    7.33   0
   8  -7   6   12.88    7.32   0
   8  -7   6    5.77    7.63   0
   6   6  -6   14.81    6.86   0
   6   6  -6    3.48    8.04   0
  -6  -6   6    9.14    7.51   0
   5   6  -6   21.59    7.06   0
   5   6  -6   49.45    6.89   0
  -5  -6   6   35.16    6.60   0
   4   6  -6   11.49    6.54   0
   4   6  -6    9.84    5.72   0
  -4  -6   6    4.28    6.06   0
  -3  -6   6   -0.49    5.86   0
   3   6  -6   -2.51    6.46   0
   3   6  -6   -2.26    4.89   0
  -2  -6   6  198.52    7.20   0
   2   6  -6  251.84    7.44   0
   2   6  -6  327.63    6.83   0
   1   6  -6  333.63    7.90   0
   1   6  -6  454.73    7.28   0
  -1  -6   6  267.66    8.15   0
   0   6  -6   10.78    5.26   0
   0   6  -6    8.70    5.27   0
   0  -6   6    9.73    6.78   0
   1  -6   6    5.35    5.90   0
  -1   6  -6   -1.03    5.74   0
  -1   6  -6    3.86    6.33   0
   2  -6   6   23.40    6.65   0
  -2   6  -6   26.89    5.60   0
  -2   6  -6   25.37    5.44   0
   3  -6   6    1.78    6.27   0
  -3   6  -6    4.55    6.11   0
   4  -6   6  158.76    6.52   0
   4  -6   6  184.73    7.82   0
   5  -6   6    7.72    5.11   0
   5  -6   6    8.95    6.68   0
   5  -6   6    4.86    5.30   0
   6  -6   6   18.25    5.91   0
   6  -6   6   17.40    7.51   0
   6  -6   6   11.93    6.84   0
   7  -6   6   11.37    8.76   0
   7  -6   6   18.92    6.50   0
   7  -6   6   13.67    7.32   0
   8  -6   6    1.97    7.04   0
   8  -6   6   -1.76    7.13   0
  -7  -5   6  -11.56    7.49   0
   7   5  -6    2.44    7.77   0
   7   5  -6    2.91    7.54   0
  -6  -5   6   22.05    6.59   0
   6   5  -6   21.44    6.86   0
   6   5  -6    4.91    6.99   0
   5   5  -6  126.85    6.84   0
   5   5  -6   72.94    6.58   0
  -5  -5   6   74.63    6.34   0
   4   5  -6   13.80    5.70   0
   4   5  -6    5.48    5.76   0
  -4  -5   6    4.52    5.62   0
  -3  -5   6   67.19    5.95   0
   3   5  -6   99.85    5.62   0
   3   5  -6   66.65    7.00   0
  -2  -5   6  165.48    7.70   0
   2   5  -6  195.05    7.48   0
   2   5  -6  225.44    5.86   0
   1   5  -6    0.90    5.03   0
   1   5  -6    0.99    5.00   0
  -1  -5   6    1.04    5.32   0
   0   5  -6   68.41    6.62   0
   0   5  -6  101.15    5.85   0
   0  -5   6   75.92    6.21   0
   1  -5   6   90.03    7.36   0
  -1   5  -6   97.17    6.08   0
  -1   5  -6   91.68    5.89   0
   2  -5   6  167.68    6.77   0
   2  -5   6  208.45    6.52   0
  -2   5  -6  208.34    6.76   0
   3  -5   6   67.27    6.59   0
   3  -5   6   95.48    5.81   0
   4  -5   6    1.25    5.75   0
   4  -5   6    0.64    5.44   0
   4  -5   6    2.08    4.76   0
   5  -5   6   41.56    6.12   0
   5  -5   6   34.01    5.75   0
   5  -5   6   25.25    6.11   0
   6  -5   6   -0.93    5.47   0
   6  -5   6    2.57    6.60   0
   6  -5   6    2.29    5.48   0
   7  -5   6   -1.98    6.59   0
   7  -5   6    3.59    8.38   0
   7  -5   6    7.28    6.50   0
   8  -5   6   37.11   10.11   0
   8  -5   6   55.28    7.68   0
   8  -5   6   58.71    8.35   0
   8   4  -6    5.72    8.08   0
  -8  -4   6    4.07    7.76   0
  -7  -4   6    9.20    6.73   0
   7   4  -6    4.36    7.13   0
   7   4  -6    5.72    6.99   0
  -6  -4   6   12.09    5.85   0
   6   4  -6    2.83    6.51   0
   6   4  -6   16.93    6.11   0
   5   4  -6   43.08    6.27   0
   5   4  -6   82.22    6.24   0
  -5  -4   6   50.93    6.07   0
   4   4  -6   14.25    5.66   0
   4   4  -6   22.60    5.89   0
  -4  -4   6   20.62    6.37   0
   3   4  -6  503.52    7.60   0
  -3  -4   6  277.07    8.95   0
   3   4  -6  327.74    8.52   0
  -2  -4   6  305.51    8.99   0
   2   4  -6  413.56    9.05   0
   2   4  -6  431.21    7.22   0
   1   4  -6   26.51    6.53   0
   1   4  -6   33.41    5.27   0
  -1  -4   6   23.38    6.41   0
   0   4  -6   11.59    5.20   0
   0  -4   6   12.02    5.03   0
   0   4  -6    7.57    4.97   0
   0  -4   6   10.20    5.44   0
   1  -4   6   33.25    5.13   0
   1  -4   6   30.72    6.94   0
  -1   4  -6   23.07    5.19   0
  -1   4  -6   29.52    6.46   0
   2  -4   6  108.85    6.15   0
   2  -4   6  129.52    5.95   0
   3  -4   6  722.95    9.15   0
   3  -4   6  609.63    9.43   0
   3  -4   6  590.71    8.91   0
   4  -4   6  152.25    6.56   0
   4  -4   6  150.55    5.81   0
   4  -4   6  151.53    6.76   0
   5  -4   6   55.71    6.77   0
   5  -4   6   41.36    6.35   0
   5  -4   6   39.20    5.33   0
   6  -4   6   15.24    6.30   0
   6  -4   6    1.95    6.74   0
   7  -4   6   29.79    8.00   0
   7  -4   6   33.92    6.51   0
   8  -4   6   -3.25    7.06   0
   8  -4   6    3.43    8.76   0
  -8  -3   6    4.36    7.39   0
   8   3  -6   -1.10    8.48   0
   8   3  -6   -0.10    7.27   0
  -7  -3   6    7.86    6.48   0
   7   3  -6   16.72    6.33   0
   7   3  -6   18.39    6.98   0
  -6  -3   6   41.55    5.98   0
   6   3  -6   63.16    6.23   0
   6   3  -6   42.85    6.41   0
  -5  -3   6   14.61    5.40   0
   5   3  -6   32.79    5.71   0
   5   3  -6   20.43    5.55   0
   4   3  -6   17.54    5.23   0
   4   3  -6   17.36    5.47   0
  -4  -3   6   13.84    5.37   0
   3   3  -6   95.58    5.49   0
   3   3  -6   88.65    6.02   0
  -3  -3   6   49.54    5.73   0
  -2  -3   6  232.94    6.30   0
  -2  -3   6  156.59    7.67   0
   2   3  -6  241.33    7.38   0
   2   3  -6  231.06    6.18   0
  -1  -3   6   35.00    6.94   0
   1   3  -6   35.84    7.01   0
  -1  -3   6   44.68    4.87   0
   1   3  -6   41.68    4.86   0
   0  -3   6    0.80    4.63   0
   0   3  -6    3.36    4.64   0
   0  -3   6   -0.31    7.40   0
   0   3  -6    3.91    6.44   0
   1  -3   6  351.94   10.35   0
   1  -3   6  378.78    7.00   0
   2  -3   6  192.46    9.47   0
   2  -3   6  295.34    6.82   0
   2  -3   6  251.74    8.45   0
   3  -3   6  176.56    6.11   0
   3  -3   6  170.22    7.28   0
   3  -3   6  143.99    6.23   0
   4  -3   6    3.28    4.82   0
   4  -3   6    4.07    4.73   0
   5  -3   6   33.14    6.13   0
   5  -3   6   17.73    6.26   0
   6  -3   6   21.52    5.75   0
   6  -3   6   23.96    6.87   0
   7  -3   6    2.17    6.42   0
   7  -3   6   22.72    6.50   0
   8  -3   6   13.60    8.65   0
   8  -3   6   18.79    8.53   0
   9   2  -6   -3.38    8.73   0
  -9  -2   6   11.75    7.47   0
   9   2  -6    5.08    7.94   0
  -8  -2   6    0.38    6.32   0
   8   2  -6   18.97    7.64   0
   8   2  -6   -0.60    6.55   0
   7   2  -6   16.15    6.18   0
   7   2  -6    6.95    6.49   0
  -7  -2   6   12.47    5.83   0
   6   2  -6   20.95    5.47   0
  -6  -2   6   14.98    5.54   0
   6   2  -6    8.38    5.74   0
  -5  -2   6   93.57    7.14   0
   5   2  -6  177.42    6.30   0
   5   2  -6  102.94    6.70   0
  -4  -2   6    5.58    5.15   0
   4   2  -6   16.18    5.34   0
   4   2  -6   13.82    5.38   0
  -3  -2   6   16.26    4.93   0
  -3  -2   6   22.24    5.29   0
   3   2  -6   29.01    5.07   0
   3   2  -6   14.66    6.46   0
  -2  -2   6  834.43    8.96   0
   2   2  -6  826.68   13.08   0
   2   2  -6  855.27    8.99   0
  -2  -2   6  764.35   12.86   0
   1   2  -6  111.89    9.29   0
  -1  -2   6  146.18    5.63   0
  -1  -2   6  104.77   10.00   0
   1   2  -6  112.65    5.34   0
   0  -2   6  160.19   13.80   0
   0  -2   6  213.28    5.96   0
   1  -2   6   46.90    9.23   0
   1  -2   6   37.95    9.16   0
   1  -2   6   59.12    5.17   0
   2  -2   6    2.62    4.89   0
   2  -2   6   -0.75    6.74   0
   2  -2   6    3.08    6.77   0
   3  -2   6   19.70    6.04   0
   3  -2   6   16.81    5.03   0
   4  -2   6   23.88    4.72   0
   5  -2   6  169.59    7.80   0
   6  -2   6   67.03    7.43   0
   7  -2   6    5.43    6.35   0
   8  -2   6    2.33    8.80   0
   9   1  -6   -1.61    7.02   0
   9   1  -6    1.80    8.08   0
  -9  -1   6   -7.02    7.20   0
   8   1  -6    6.96    6.39   0
  -8  -1   6   13.19    6.25   0
   8   1  -6    0.28    7.38   0
   7   1  -6  107.80    7.31   0
   7   1  -6  176.14    6.77   0
  -7  -1   6   95.48    7.44   0
   6   1  -6   72.29    6.14   0
  -6  -1   6   62.60    6.68   0
   6   1  -6  106.13    6.12   0
   5   1  -6    4.76    5.19   0
  -5  -1   6    4.53    4.97   0
   5   1  -6   -0.11    6.06   0
   4   1  -6   69.89    5.82   0
  -4  -1   6   86.53    6.29   0
  -4  -1   6   84.28    5.79   0
   4   1  -6   98.16    5.62   0
   3   1  -6  230.92    8.85   0
  -3  -1   6  247.78    8.40   0
  -3  -1   6  224.99    7.54   0
   3   1  -6  240.71    6.34   0
  -2  -1   6    2.50    6.83   0
  -2  -1   6    0.57    4.62   0
   2   1  -6    4.81    4.61   0
   2   1  -6    3.37    7.42   0
  -1  -1   6  354.07    6.74   0
   0  -1   6   17.75    4.50   0
   1  -1   6   41.09    4.72   0
   1  -1   6   35.63   10.29   0
   1  -1   6   31.55    9.30   0
   2  -1   6  291.36   10.16   0
   3  -1   6    9.22    6.53   0
   4  -1   6   70.82    6.69   0
  -4   1  -6   70.25    6.72   0
   5  -1   6   -3.17    5.46   0
  -5   1  -6   -0.41    6.09   0
   6  -1   6   25.94    6.58   0
   7  -1   6    2.52    7.90   0
   9   0  -6   -1.37    6.39   0
  -9   0   6   16.72    6.47   0
   9   0  -6    4.61    8.10   0
  -8   0   6   17.41    5.50   0
   8   0  -6   16.81    6.40   0
   8   0  -6   25.08    7.41   0
   7   0  -6  164.43    7.41   0
  -7   0   6  158.59    6.95   0
   7   0  -6  225.47    7.29   0
  -6   0   6   16.04    5.35   0
   6   0  -6   15.20    5.29   0
   6   0  -6   22.22    4.84   0
   5   0  -6    8.19    5.02   0
   5   0  -6    6.84    4.93   0
  -5   0   6    9.49    6.20   0
  -5   0   6    8.80    4.96   0
  -4   0   6   10.96    6.21   0
   4   0  -6   18.33    5.78   0
   4   0  -6   15.86    5.10   0
   3   0  -6  243.04    8.72   0
  -3   0   6  261.91    6.49   0
   2   0  -6  486.47   15.00   0
  -2   0   6  534.55    7.76   0
   2   0  -6  383.26   13.53   0
  -1   0   6  167.63    5.73   0
   1   0   6  123.44   10.39   0
  -1   0  -6  119.43    9.05   0
  -2   0  -6   24.98    6.43   0
   2   0   6   20.89    6.87   0
   3   0   6   24.34    5.41   0
  -4   0  -6    2.87    6.01   0
   4   0   6    2.93    6.30   0
  -5   0  -6    5.29    6.54   0
   5   0   6    7.93    7.15   0
  -6   0  -6   24.63    6.84   0
   6   0   6   14.04    6.36   0
  -7   0  -6    2.52    7.33   0
   7   0   6   -2.16    7.70   0
  10  -1  -6    3.10    7.66   0
   9  -1  -6    5.39    6.64   0
   9  -1  -6   -3.86    8.55   0
   8  -1  -6   47.16    6.13   0
   8  -1  -6   74.81    8.04   0
   7  -1  -6   50.06    5.71   0
   7  -1  -6   52.42    7.23   0
   6  -1  -6   12.05    6.05   0
  -5   1   6  198.73    6.61   0
   5  -1  -6  198.59    6.70   0
   4  -1  -6   84.27    6.52   0
  -4   1   6   86.59    5.75   0
   3  -1  -6  229.85    8.82   0
  -3   1   6  213.71    6.27   0
   3  -1  -6  194.72    8.20   0
   2  -1  -6  160.02   10.40   0
   2  -1  -6  143.10    8.74   0
  -2   1   6  176.03    5.82   0
   1  -1  -6    9.95    8.74   0
   0   1   6  159.95    9.37   0
   0  -1  -6  134.74    9.75   0
  -1  -1  -6  140.00    8.46   0
   1   1   6  147.40    8.69   0
   2   1   6   49.53    7.32   0
  -3  -1  -6    1.96    6.04   0
   3   1   6    2.67    5.58   0
   4   1   6   -0.40    6.79   0
  -4  -1  -6    0.86    6.26   0
  -5  -1  -6   21.50    7.02   0
   5   1   6    1.27    7.62   0
  -6  -1  -6   -0.82    8.18   0
   6   1   6    4.66    8.19   0
  10  -2  -6    2.69    7.34   0
   9  -2  -6   -1.03    7.06   0
   8  -2  -6    0.89    5.75   0
   7  -2  -6   15.66    6.30   0
   6  -2  -6  188.85    6.34   0
  -6   2   6  218.81    8.21   0
  -5   2   6  687.86    9.39   0
   5  -2  -6  744.94    9.41   0
   4  -2  -6    3.51    4.58   0
  -4   2   6    4.60    4.85   0
  -3   2   6    5.93    5.03   0
   3  -2  -6    5.19    6.51   0
   2  -2  -6    1.25    7.22   0
   1  -2  -6   -1.23    6.93   0
  -1   2   6    1.39    6.62   0
   0   2   6   37.96    7.42   0
   0  -2  -6   29.53    6.95   0
   1   2   6  701.00   13.35   0
   2   2   6   66.05    7.39   0
  -2  -2  -6   56.33    7.15   0
  -3  -2  -6   13.85    5.67   0
   3   2   6    1.90    7.42   0
  -4  -2  -6   13.26    6.55   0
   4   2   6   12.37    6.05   0
   5   2   6    6.51    7.62   0
  -5  -2  -6    1.27    7.14   0
  -6  -2  -6   13.01    8.72   0
   6   2   6   -0.19    8.18   0
  10  -3  -6   -3.50    7.33   0
   9  -3  -6   12.36    6.67   0
   8  -3  -6   29.25    5.86   0
   7  -3  -6   18.47    5.28   0
  -7   3   6   21.19    7.51   0
  -6   3   6  110.74    7.66   0
   6  -3  -6  112.16    6.73   0
   6  -3  -6  102.05    5.83   0
   5  -3  -6    5.40    5.75   0
  -5   3   6    5.77    5.48   0
   5  -3  -6    8.46    5.78   0
   4  -3  -6   82.45    6.44   0
   4  -3  -6   76.71    5.52   0
  -4   3   6   72.08    5.60   0
  -1   3   6  343.41    9.56   0
   0   3   6  269.78    8.96   0
   1   3   6    8.88    6.70   0
  -1  -3  -6    2.84    6.46   0
   2   3   6   12.22    7.37   0
  -2  -3  -6    9.70    6.94   0
   3   3   6    6.89    6.70   0
  -3  -3  -6   15.94    6.47   0
  -4  -3  -6   14.90    6.66   0
   4   3   6   10.08    6.88   0
   5   3   6    0.35    8.82   0
  -5  -3  -6   20.16    8.42   0
  10  -4  -6   -5.52    7.31   0
   9  -4  -6   14.88    7.39   0
   9  -4  -6   17.54    6.89   0
   8  -4  -6   14.34    6.24   0
   8  -4  -6   10.58    6.34   0
  -7   4   6    2.29    7.77   0
   7  -4  -6    2.44    5.60   0
   7  -4  -6    6.37    6.45   0
   6  -4  -6   18.61    5.25   0
  -6   4   6   24.34    6.89   0
   6  -4  -6   26.02    5.32   0
   5  -4  -6   46.28    5.39   0
   5  -4  -6   45.36    6.15   0
  -5   4   6   45.62    6.43   0
   4  -4  -6    4.99    6.47   0
   3  -4  -6    3.31    6.41   0
   2  -4  -6   22.90    5.92   0
  -2   4   6   29.69    6.53   0
   1  -4  -6   51.34    6.98   0
  -1   4   6   49.37    6.24   0
   0  -4  -6   56.86    6.60   0
   0   4   6   74.09    6.74   0
   1   4   6   -0.58    6.79   0
  -1  -4  -6    5.05    5.87   0
   2   4   6    5.61    6.12   0
  -2  -4  -6   17.53    6.76   0
   3   4   6   12.87    7.64   0
  -3  -4  -6    8.79    6.75   0
  -4  -4  -6    7.04    8.06   0
   4   4   6    7.31    8.51   0
  10  -5  -6   -0.46    7.56   0
  10  -5  -6    5.77    7.53   0
   9  -5  -6   10.08    7.02   0
   9  -5  -6    7.38    7.04   0
  -8   5   6  103.24   10.49   0
   8  -5  -6   88.97    8.08   0
   8  -5  -6   75.31    7.20   0
   7  -5  -6   85.44    7.66   0
  -7   5   6   80.33    8.58   0
   7  -5  -6   64.77    6.67   0
   6  -5  -6   60.93    6.31   0
   6  -5  -6   75.65    6.18   0
  -6   5   6   68.02    7.81   0
   5  -5  -6   17.53    5.77   0
  -5   5   6   19.07    5.78   0
   4  -5  -6    1.62    6.80   0
   3  -5  -6  103.93    7.97   0
   2  -5  -6   13.81    6.96   0
  -2   5   6   15.19    6.56   0
   1  -5  -6    3.17    6.71   0
  -1   5   6    5.28    6.92   0
   0   5   6   43.00    6.20   0
   0  -5  -6   37.77    6.83   0
   1   5   6    2.25    6.41   0
  -1  -5  -6    1.56    7.26   0
   2   5   6   40.31    8.66   0
  -2  -5  -6   47.04    7.94   0
   3   5   6   61.45    8.50   0
  -3  -5  -6   54.76    8.03   0
   9  -6  -6   18.54    8.16   0
   9  -6  -6   57.64    7.78   0
   8  -6  -6    9.42    7.18   0
   8  -6  -6   -1.96    7.15   0
  -8   6   6    0.05    9.71   0
   7  -6  -6    1.39    6.51   0
   7  -6  -6   -3.70    6.42   0
  -7   6   6    1.84    8.37   0
   6  -6  -6   22.51    6.62   0
  -6   6   6   36.73    8.32   0
   5  -6  -6   84.97    7.19   0
   4  -6  -6   28.78    6.80   0
   3  -6  -6    0.20    6.42   0
   2  -6  -6   24.70    7.50   0
  -2   6   6   25.79    6.27   0
   1  -6  -6    3.41    6.30   0
  -1   6   6    8.60    6.33   0
   0   6   6   25.14    7.85   0
   0  -6  -6   20.62    7.95   0
   1   6   6   -1.76    8.23   0
  -1  -6  -6    3.41    7.06   0
   2   6   6    1.06    7.82   0
  -2  -6  -6    2.92    8.73   0
   8  -7  -6   -1.13    7.44   0
  -8   7   6    0.11   11.40   0
   8  -7  -6   -1.51    8.27   0
   7  -7  -6    0.45    7.11   0
   7  -7  -6   -3.90    7.45   0
  -7   7   6    4.62    9.24   0
   6  -7  -6   53.11    8.62   0
  -6   7   6   68.61    8.64   0
   5  -7  -6  135.35    8.78   0
   4  -7  -6   54.45    7.24   0
   3  -7  -6    1.43    6.64   0
   2  -7  -6   19.45    7.10   0
  -2   7   6   10.85    6.83   0
  -1   7   6   14.24    8.23   0
   1  -7  -6    0.19    7.56   0
   0   7   6    0.27    7.91   0
   0  -7  -6   13.14    8.65   0
   7  -8  -6   11.62    8.67   0
  -7   8   6   13.33    9.16   0
   6  -8  -6    0.17    8.22   0
   5  -8  -6   29.48    8.32   0
   4  -8  -6    0.13    8.19   0
   3  -8  -6    8.31    8.16   0
   2  -8  -6    5.18    8.54   0
  -2   8   6    5.18    8.02   0
  -1 -10   7    9.99    8.74   0
   1  10  -7    5.51    7.88   0
   0  10  -7   -0.65    7.67   0
   0  10  -7   10.08    6.52   0
   0 -10   7    4.08    7.87   0
  -1  10  -7    5.49    7.31   0
   1 -10   7   -4.91    7.41   0
  -1  10  -7   -0.36    7.14   0
  -2  10  -7   36.00    7.42   0
   2 -10   7   24.46    7.49   0
  -2  10  -7   50.65    7.56   0
  -3  10  -7   33.36    8.27   0
   3 -10   7   30.42    7.27   0
   4 -10   7    1.15    7.20   0
  -4  10  -7    8.53    8.38   0
   5 -10   7    5.57    8.48   0
  -5  10  -7   -0.85    8.95   0
   6 -10   7   -6.58    7.78   0
   2   9  -7   -0.35    7.65   0
  -2  -9   7    3.12    7.78   0
   2   9  -7   13.03    7.21   0
  -1  -9   7   73.20    7.79   0
   1   9  -7  113.23    8.41   0
   1   9  -7  130.98    7.63   0
   0   9  -7    2.76    6.29   0
   0   9  -7    2.48    6.59   0
   0  -9   7    1.40    6.87   0
  -1   9  -7    9.49    6.29   0
   1  -9   7    9.99    6.62   0
  -1   9  -7   10.96    6.17   0
   2  -9   7   52.98    6.64   0
  -2   9  -7   65.77    7.29   0
  -2   9  -7   54.71    6.64   0
   3  -9   7   11.73    6.96   0
  -3   9  -7    5.52    7.51   0
   4  -9   7    1.68    7.94   0
  -4   9  -7   -3.57    7.71   0
   5  -9   7   16.12    7.68   0
   6  -9   7   22.36    7.21   0
   7  -9   7    9.96    8.81   0
   7  -9   7   11.12    8.71   0
   4   8  -7   10.63    8.08   0
   4   8  -7    9.13    7.55   0
  -4  -8   7    7.33    7.86   0
   3   8  -7    2.03    6.66   0
  -3  -8   7    2.97    7.56   0
   3   8  -7    2.03    6.57   0
  -2  -8   7  167.64    8.94   0
   2   8  -7  204.78    8.04   0
   2   8  -7  271.77    7.64   0
   1   8  -7   31.85    5.90   0
   1   8  -7   44.89    6.58   0
  -1  -8   7   38.04    6.27   0
   0   8  -7    5.88    5.82   0
   0   8  -7    6.57    6.17   0
   0  -8   7    5.63    6.09   0
  -1   8  -7    4.14    5.83   0
   1  -8   7    0.72    6.18   0
  -1   8  -7   -0.35    5.80   0
   2  -8   7   -3.08    6.26   0
  -2   8  -7    1.62    6.07   0
  -2   8  -7    0.36    6.31   0
   3  -8   7   19.32    6.46   0
  -3   8  -7   28.95    6.11   0
   4  -8   7  105.77    7.59   0
  -4   8  -7  116.15    7.65   0
   5  -8   7  376.03    8.98   0
   6  -8   7    3.09    6.83   0
   6  -8   7    2.56    7.81   0
   7  -8   7    1.24    7.28   0
   7  -8   7    4.36    7.25   0
   5   7  -7    4.89    7.76   0
   5   7  -7    2.22    7.55   0
  -5  -7   7    1.37    7.92   0
   4   7  -7   -3.80    6.70   0
   4   7  -7   12.83    6.68   0
  -4  -7   7   11.70    6.65   0
   3   7  -7   22.77    6.22   0
  -3  -7   7    9.87    6.11   0
   3   7  -7   22.21    5.80   0
  -2  -7   7    8.99    7.07   0
   2   7  -7    5.31    5.93   0
   2   7  -7    7.59    5.64   0
   1   7  -7  140.30    6.73   0
   1   7  -7  209.15    6.90   0
  -1  -7   7  123.11    6.98   0
   0   7  -7    7.18    6.04   0
   0   7  -7    4.91    5.75   0
   0  -7   7    2.61    6.18   0
  -1   7  -7  117.45    6.32   0
   1  -7   7   87.06    6.52   0
  -1   7  -7   87.16    6.68   0
   2  -7   7   69.60    5.91   0
  -2   7  -7   73.26    6.00   0
  -2   7  -7   59.76    6.67   0
   3  -7   7    6.67    6.18   0
  -3   7  -7   -0.21    5.11   0
   4  -7   7    3.65    6.96   0
   5  -7   7   46.58    6.26   0
   5  -7   7   58.56    6.39   0
   6  -7   7   52.08    6.60   0
   6  -7   7   55.47    6.59   0
   7  -7   7   12.40    6.88   0
   7  -7   7    4.78    7.78   0
   8  -7   7    2.56    9.08   0
   8  -7   7   -2.29    8.14   0
   6   6  -7    5.81    7.77   0
   6   6  -7    7.38    7.84   0
  -6  -6   7   -3.41    7.42   0
   5   6  -7   10.19    7.49   0
   5   6  -7   17.66    6.89   0
  -5  -6   7   16.24    6.58   0
  -4  -6   7    7.56    5.71   0
   4   6  -7   14.36    5.72   0
   4   6  -7    5.19    5.57   0
   3   6  -7   47.56    6.21   0
  -3  -6   7   50.19    6.17   0
   3   6  -7   62.11    5.51   0
  -2  -6   7   44.27    5.83   0
   2   6  -7   61.05    5.89   0
   2   6  -7   75.57    5.69   0
   1   6  -7   19.82    6.75   0
   1   6  -7   44.90    5.70   0
  -1  -6   7   16.75    6.43   0
   0   6  -7   58.02    5.80   0
   0   6  -7   86.32    5.69   0
   0  -6   7   54.90    6.04   0
   1  -6   7  175.22    7.53   0
  -1   6  -7  299.08    6.98   0
  -1   6  -7  192.62    7.71   0
   2  -6   7   24.85    6.44   0
  -2   6  -7   27.74    6.37   0
   3  -6   7   53.19    5.85   0
   3  -6   7   43.92    6.50   0
   4  -6   7   28.73    6.36   0
   4  -6   7   29.79    6.48   0
   4  -6   7   33.36    6.18   0
   5  -6   7   -2.59    6.95   0
   5  -6   7    2.76    6.76   0
   5  -6   7    3.69    6.83   0
   6  -6   7   56.05    8.49   0
   6  -6   7   67.58    6.57   0
   6  -6   7   65.34    7.23   0
   7  -6   7   11.03    6.51   0
   7  -6   7   -0.16    8.58   0
   7  -6   7    3.94    7.50   0
   8  -6   7    4.05   11.04   0
   8  -6   7   -3.07    7.44   0
   8  -6   7   10.45    8.54   0
   7   5  -7   -1.78    7.79   0
  -7  -5   7   11.52    7.72   0
   7   5  -7    4.32    7.80   0
  -6  -5   7    3.00    7.52   0
   6   5  -7    3.45    6.45   0
   6   5  -7    8.30    6.40   0
   5   5  -7   31.12    6.75   0
   5   5  -7   16.89    5.78   0
  -5  -5   7   15.62    5.75   0
   4   5  -7   54.58    6.27   0
   4   5  -7   89.65    6.18   0
  -4  -5   7   45.00    6.17   0
   3   5  -7   13.09    6.48   0
  -3  -5   7   15.03    6.18   0
   3   5  -7   29.84    5.65   0
  -2  -5   7   17.92    6.12   0
   2   5  -7   15.08    5.16   0
   2   5  -7   18.89    5.18   0
   1   5  -7    1.19    5.62   0
   1   5  -7   -4.73    5.01   0
  -1  -5   7    1.62    5.01   0
   0   5  -7  108.80    7.10   0
   0   5  -7  140.97    6.06   0
   0  -5   7  107.85    6.49   0
   1  -5   7    0.05    6.03   0
   1  -5   7    1.07    6.40   0
  -1   5  -7    5.76    5.67   0
  -1   5  -7    3.14    4.96   0
   2  -5   7  146.12    7.40   0
   2  -5   7  135.54    6.19   0
  -2   5  -7  145.81    6.27   0
   3  -5   7    9.03    6.42   0
   3  -5   7    7.35    5.44   0
   4  -5   7   52.54    5.70   0
   4  -5   7   52.87    5.45   0
   4  -5   7   48.91    5.53   0
   5  -5   7   29.80    5.76   0
   5  -5   7   26.80    7.02   0
   5  -5   7   25.79    5.81   0
   6  -5   7   50.71    6.97   0
   6  -5   7   43.21    7.59   0
   6  -5   7   57.37    6.22   0
   7  -5   7    0.98    7.80   0
   7  -5   7   -2.09    7.08   0
   7  -5   7   -3.08    6.42   0
   8  -5   7    2.27    9.58   0
   8  -5   7    3.27    7.56   0
   8  -5   7    3.26    8.41   0
   7   4  -7   38.80    7.29   0
  -7  -4   7   30.83    7.01   0
   7   4  -7   11.95    7.06   0
   6   4  -7   30.20    6.45   0
  -6  -4   7   23.25    6.10   0
   6   4  -7   23.47    6.23   0
  -5  -4   7   50.87    6.11   0
   5   4  -7   78.21    6.07   0
   5   4  -7   46.21    6.36   0
   4   4  -7    1.53    6.13   0
   4   4  -7   -2.59    5.71   0
  -4  -4   7    0.76    5.99   0
   3   4  -7   11.16    6.05   0
  -3  -4   7    9.39    5.14   0
   3   4  -7   18.76    4.81   0
   2   4  -7   -3.46    4.94   0
  -2  -4   7   -1.94    5.78   0
   2   4  -7    3.58    4.79   0
  -1  -4   7    2.28    4.98   0
   1   4  -7   -1.98    6.10   0
  -1  -4   7    9.32    5.06   0
   1   4  -7   -2.99    4.96   0
   0  -4   7   22.28    4.90   0
   0   4  -7   21.45    5.17   0
   0  -4   7   15.70    6.57   0
   0   4  -7   18.64    6.46   0
   1  -4   7  351.21    7.14   0
   1  -4   7  366.40   10.88   0
  -1   4  -7  295.78    6.82   0
   2  -4   7  184.92    8.43   0
   2  -4   7  217.64    7.32   0
   3  -4   7  225.42    7.97   0
   3  -4   7  228.72    7.98   0
   3  -4   7  258.94    7.79   0
   4  -4   7  116.87    7.34   0
   4  -4   7  134.29    6.96   0
   4  -4   7  118.65    7.01   0
   5  -4   7    0.74    5.59   0
   5  -4   7   -1.09    5.43   0
   5  -4   7   -1.17    5.62   0
   6  -4   7    1.96    6.53   0
   6  -4   7   -1.85    6.78   0
   7  -4   7    1.67    6.61   0
   7  -4   7   -1.01    7.62   0
   8  -4   7   46.26    8.48   0
   8  -4   7   62.35   10.43   0
  -8  -3   7   12.41    7.47   0
   8   3  -7   -0.63    7.77   0
   8   3  -7    2.14    7.38   0
   7   3  -7    9.42    7.14   0
   7   3  -7    6.11    6.68   0
  -7  -3   7    7.70    6.77   0
  -6  -3   7   -1.42    5.79   0
   6   3  -7    6.34    5.85   0
   6   3  -7    4.25    6.85   0
  -5  -3   7   26.92    5.33   0
   5   3  -7   47.10    6.01   0
   5   3  -7   22.14    5.53   0
  -4  -3   7  208.81    7.98   0
   4   3  -7  359.91    7.40   0
   4   3  -7  223.77    8.32   0
   3   3  -7  101.60    7.26   0
   3   3  -7  144.93    5.94   0
  -3  -3   7   97.40    6.94   0
   2   3  -7   -0.36    6.53   0
  -2  -3   7   -0.98    5.02   0
  -2  -3   7    0.29    5.94   0
   2   3  -7   -0.11    4.91   0
   1   3  -7   28.98    7.44   0
  -1  -3   7   25.50    6.53   0
  -1  -3   7   48.75    4.94   0
   1   3  -7   31.24    4.71   0
   0  -3   7   19.40    4.80   0
   0   3  -7   27.19    4.59   0
   0  -3   7   16.82    7.63   0
   1  -3   7   54.73    8.37   0
   1  -3   7   56.33    5.55   0
   1  -3   7   40.25    7.95   0
   2  -3   7    7.58    7.17   0
   2  -3   7    3.53    6.92   0
   2  -3   7    1.67    5.31   0
   3  -3   7   41.09    6.85   0
   3  -3   7   43.35    5.50   0
   3  -3   7   37.42    6.82   0
   4  -3   7   11.55    6.19   0
   4  -3   7   10.72    6.34   0
   5  -3   7   42.40    7.21   0
   5  -3   7   48.57    5.55   0
   6  -3   7    2.01    5.79   0
   6  -3   7    3.51    5.67   0
   7  -3   7    4.48    7.04   0
   7  -3   7    2.41    7.82   0
   8  -3   7   28.09    8.16   0
  -8  -2   7   52.47    7.13   0
   8   2  -7  -11.61    8.60   0
   8   2  -7   -2.35    7.54   0
  -7  -2   7    5.27    5.90   0
   7   2  -7    3.01    6.50   0
   7   2  -7   -4.36    6.14   0
  -6  -2   7    0.32    6.01   0
   6   2  -7    0.26    5.67   0
   6   2  -7   -0.62    5.46   0
   5   2  -7  306.02    6.94   0
  -5  -2   7  225.86    8.19   0
   5   2  -7  259.21    7.96   0
  -4  -2   7  463.55    9.27   0
   4   2  -7  404.82    7.28   0
   4   2  -7  328.88    9.56   0
  -3  -2   7   13.28    5.49   0
  -3  -2   7   11.01    6.16   0
   3   2  -7   17.40    5.06   0
   3   2  -7    6.33    6.31   0
   2   2  -7   18.30    7.19   0
  -2  -2   7   21.41    4.97   0
  -2  -2   7   16.19    6.99   0
   2   2  -7   14.96    4.85   0
  -1  -2   7  110.44   12.14   0
  -1  -2   7  146.96    5.33   0
   1   2  -7  107.50   12.21   0
   0  -2   7   40.61    4.99   0
   1  -2   7  320.88   22.31   0
   1  -2   7  383.88   24.21   0
   1  -2   7  457.47    7.72   0
   2  -2   7  116.12    8.92   0
   2  -2   7  139.44    5.94   0
   2  -2   7  109.72    9.21   0
   3  -2   7   25.76    7.85   0
   3  -2   7   42.14    5.41   0
   4  -2   7   36.45    7.14   0
   4  -2   7   46.67    5.50   0
   5  -2   7   -3.56    6.84   0
   6  -2   7    0.69    6.12   0
   7  -2   7   -1.03    7.21   0
  -9  -1   7   62.50    7.51   0
   9   1  -7   -7.32    9.19   0
   9   1  -7    5.34    8.08   0
   8   1  -7   -1.57    6.62   0
   8   1  -7   -0.09    6.39   0
  -8  -1   7    1.51    6.47   0
   7   1  -7    6.77    6.91   0
  -7  -1   7    0.97    5.99   0
   7   1  -7    3.89    5.64   0
  -6  -1   7    9.16    5.91   0
   6   1  -7   13.38    5.25   0
   6   1  -7   11.57    5.99   0
   5   1  -7   21.88    5.22   0
   5   1  -7   34.54    5.35   0
  -5  -1   7   30.06    5.12   0
   4   1  -7  168.78    7.72   0
  -4  -1   7  200.15    7.43   0
  -4  -1   7  172.79    6.61   0
   4   1  -7  162.86    6.30   0
  -3  -1   7  108.99    5.88   0
   3   1  -7   85.22    5.67   0
  -3  -1   7   89.81    6.82   0
   3   1  -7   89.06    8.04   0
   2   1  -7  465.29   15.83   0
  -2  -1   7  469.32    7.24   0
  -1  -1   7  194.69    5.75   0
   0  -1   7   56.06    4.97   0
   1  -1   7  191.89    6.01   0
   2  -1   7    1.49    7.96   0
   3  -1   7   41.88    8.10   0
   4  -1   7  105.50    8.19   0
   5  -1   7    3.15    7.13   0
   6  -1   7   -0.21    8.00   0
   7  -1   7    2.83    8.70   0
   9   0  -7    7.85    7.82   0
   9   0  -7    7.09    9.01   0
   8   0  -7   13.53    6.78   0
   8   0  -7   12.91    6.29   0
   7   0  -7    0.49    6.55   0
   7   0  -7   -2.05    6.53   0
   6   0  -7   31.27    6.21   0
   6   0  -7   34.94    5.33   0
   5   0  -7    0.78    5.61   0
  -5   0   7    3.50    5.59   0
   5   0  -7    3.02    5.16   0
   4   0  -7   62.62    6.85   0
  -4   0   7   75.89    6.71   0
   3   0  -7   12.01    6.81   0
  -3   0   7   19.34    5.11   0
  -2   0   7  197.34    6.01   0
  -1   0   7  359.90    6.73   0
   0   0   7  248.96    5.93   0
   1   0   7  277.70   14.86   0
   2   0   7    8.44    7.00   0
  -2   0  -7    9.04    7.51   0
   3   0   7   27.15    7.72   0
   4   0   7   77.07    8.13   0
   5   0   7   30.26    7.73   0
  -5   0  -7   40.76    7.20   0
   6   0   7    4.80    8.30   0
  -6   0  -7    8.25    7.10   0
   9  -1  -7   29.99    7.48   0
   8  -1  -7   39.07    7.75   0
   7  -1  -7   11.20    5.71   0
  -6   1   7  383.11    8.88   0
   6  -1  -7  287.20    7.86   0
  -5   1   7   17.54    5.42   0
   5  -1  -7   17.91    5.99   0
  -4   1   7   65.38    5.63   0
   4  -1  -7   61.77    6.82   0
   3  -1  -7   -1.22    7.37   0
   3  -1  -7   -0.33    6.57   0
  -3   1   7   -1.60    5.23   0
   2  -1  -7   12.58    9.43   0
   2  -1  -7   13.42    8.39   0
  -2   1   7   15.71    4.96   0
   1  -1  -7   21.84   12.09   0
   1  -1  -7   28.09   11.61   0
   0  -1  -7   90.19   10.50   0
   0   1   7  102.10   10.52   0
   1   1   7   61.89    9.27   0
  -1  -1  -7   63.62    8.33   0
   2   1   7   19.88    7.42   0
  -2  -1  -7   22.55    7.14   0
   3   1   7   63.05    7.47   0
  -4  -1  -7    9.91    6.10   0
   4   1   7    5.94    7.28   0
   5   1   7    2.60    7.01   0
  -5  -1  -7   -4.86    8.35   0
  -6  -1  -7   -1.26    7.66   0
   6   1   7    2.26    9.14   0
  10  -2  -7   -5.88    7.63   0
   9  -2  -7    4.12    7.39   0
   8  -2  -7   -2.87    6.43   0
  -7   2   7   18.07    6.51   0
   7  -2  -7   10.58    6.36   0
   6  -2  -7   48.20    6.36   0
  -6   2   7   52.39    5.94   0
   5  -2  -7  276.65    8.46   0
  -5   2   7  313.00    7.92   0
   5  -2  -7  288.75    8.46   0
  -4   2   7   38.28    6.29   0
   4  -2  -7   37.94    6.26   0
   3  -2  -7    3.77    7.23   0
   3  -2  -7   -1.22    6.35   0
  -3   2   7   -0.77    5.30   0
   2  -2  -7   15.17    8.24   0
   1  -2  -7   48.92    8.68   0
   0   2   7    5.43    8.03   0
   0  -2  -7    3.24    7.61   0
   1   2   7   12.56    7.30   0
  -1  -2  -7    8.25    6.78   0
   2   2   7   13.05    6.69   0
   3   2   7    5.52    7.70   0
  -3  -2  -7   12.40    7.15   0
   4   2   7    1.35    8.23   0
  -4  -2  -7    1.41    7.30   0
  -5  -2  -7   -0.58    7.39   0
   5   2   7   -2.80    8.70   0
  10  -3  -7    0.44    7.72   0
   9  -3  -7   10.63    8.20   0
   8  -3  -7    6.88    7.25   0
   7  -3  -7   16.18    5.75   0
  -7   3   7   27.55    7.43   0
   7  -3  -7   12.24    6.69   0
   6  -3  -7   15.13    5.42   0
  -6   3   7   10.19    5.68   0
   6  -3  -7   15.06    5.44   0
   5  -3  -7    4.39    6.53   0
   5  -3  -7    2.17    5.16   0
  -5   3   7   -2.20    5.01   0
   4  -3  -7    5.01    6.09   0
  -4   3   7   -0.32    5.92   0
   3  -3  -7   -0.79    6.97   0
   2  -3  -7   49.31    7.51   0
  -1   3   7    9.56    6.74   0
   1  -3  -7    7.20    6.60   0
   0   3   7   64.31    8.18   0
   0  -3  -7   59.33    7.42   0
   1   3   7    7.19    7.53   0
   2   3   7   22.42    7.47   0
  -2  -3  -7   23.54    6.37   0
  -3  -3  -7    0.46    7.45   0
   3   3   7   -6.86    7.91   0
   4   3   7   10.53    8.77   0
  -4  -3  -7   18.39    8.77   0
   9  -4  -7   -0.41    7.16   0
   9  -4  -7   -0.15    7.26   0
   8  -4  -7    7.99    7.16   0
  -8   4   7    6.99    8.85   0
   8  -4  -7   -1.40    7.42   0
  -7   4   7   48.18    8.53   0
   7  -4  -7   49.65    7.44   0
   7  -4  -7   44.14    7.23   0
   6  -4  -7   55.10    6.22   0
   6  -4  -7   72.38    7.04   0
  -6   4   7   58.60    7.53   0
   5  -4  -7    2.97    6.85   0
   5  -4  -7    6.55    6.84   0
  -5   4   7    5.22    5.06   0
   4  -4  -7    3.58    6.09   0
  -4   4   7    3.81    5.03   0
  -1   4   7   13.62    6.83   0
   0   4   7    0.51    7.13   0
   1   4   7   10.96    8.37   0
  -1  -4  -7    9.63    7.57   0
   2   4   7    6.62    6.89   0
  -2  -4  -7    2.26    6.61   0
  -3  -4  -7    5.76    8.43   0
   3   4   7   15.50    8.75   0
   9  -5  -7    7.79    8.40   0
   9  -5  -7   11.34    7.66   0
  -8   5   7    5.54   10.07   0
   8  -5  -7   23.10    7.76   0
   8  -5  -7   19.91    7.82   0
   7  -5  -7   81.16    6.80   0
   7  -5  -7   84.30    6.75   0
  -7   5   7   89.27    9.50   0
   6  -5  -7    9.34    6.93   0
   6  -5  -7   13.45    6.56   0
  -6   5   7   13.03    7.12   0
   5  -5  -7   12.35    6.10   0
  -5   5   7    4.68    5.91   0
   4  -5  -7   -1.44    6.62   0
   3  -5  -7   32.78    6.86   0
   2  -5  -7   62.76    7.76   0
  -2   5   7   82.61    8.28   0
  -1   5   7   33.28    6.64   0
   1  -5  -7   23.79    6.55   0
   0   5   7    5.71    8.14   0
   0  -5  -7    5.59    6.51   0
   1   5   7    2.82    8.20   0
  -1  -5  -7    4.49    7.88   0
   2   5   7   -3.10    8.69   0
  -2  -5  -7   -0.32    9.00   0
   9  -6  -7   -2.18    8.20   0
   8  -6  -7    1.96    7.36   0
   8  -6  -7   16.87    8.51   0
  -8   6   7   10.93   10.51   0
   7  -6  -7    1.35    7.71   0
  -7   6   7    3.41    8.24   0
   7  -6  -7    1.17    7.26   0
   6  -6  -7   41.39    7.22   0
   6  -6  -7   45.36    6.61   0
  -6   6   7   49.54    7.91   0
   5  -6  -7   66.69    7.49   0
   4  -6  -7   24.80    7.88   0
   3  -6  -7   39.89    7.45   0
   2  -6  -7    9.86    6.98   0
  -2   6   7   11.55    6.86   0
   1  -6  -7    3.80    8.26   0
  -1   6   7    2.60    8.14   0
   0  -6  -7    1.58    8.13   0
   0   6   7   -1.19    8.51   0
  -1  -6  -7   51.30    8.40   0
   7  -7  -7   21.32    8.73   0
   7  -7  -7   15.11    7.62   0
  -7   7   7   18.84    9.76   0
   6  -7  -7   -0.70    8.89   0
  -6   7   7   -3.51    9.31   0
   5  -7  -7   11.00    7.43   0
   4  -7  -7   31.80    8.82   0
   3  -7  -7    5.04    8.70   0
  -2   7   7    7.99    7.74   0
   2  -7  -7   14.87    8.71   0
   1  -7  -7    1.03    8.06   0
  -1   7   7    0.53    9.25   0
   0  10  -8   24.14    7.48   0
   0 -10   8   13.68    9.17   0
   0  10  -8   11.77    8.12   0
  -1  10  -8   18.46    7.55   0
   1 -10   8   16.57    8.10   0
  -1  10  -8   12.63    8.52   0
  -2  10  -8   12.54    7.29   0
   2 -10   8    7.18    7.54   0
  -2  10  -8   14.93    8.17   0
   3 -10   8   -5.07    7.70   0
  -3  10  -8    0.86    8.75   0
   4 -10   8   58.16    9.50   0
  -4  10  -8   72.48    9.02   0
   5 -10   8   -0.23    9.44   0
   2   9  -8    1.76    7.63   0
  -2  -9   8   10.65    8.03   0
   2   9  -8   16.23    7.60   0
  -1  -9   8    4.65    8.62   0
   1   9  -8    8.42    7.34   0
   1   9  -8   11.14    7.16   0
   0   9  -8   60.01    7.32   0
   0  -9   8   38.58    7.85   0
   0   9  -8   48.40    7.46   0
  -1   9  -8   23.38    6.24   0
   1  -9   8   14.10    7.45   0
  -1   9  -8   12.39    7.92   0
   2  -9   8    7.80    6.59   0
  -2   9  -8    4.20    7.08   0
  -2   9  -8   -4.08    7.56   0
   3  -9   8    2.29    6.86   0
  -3   9  -8    2.42    6.58   0
   4  -9   8   20.11    8.01   0
  -4   9  -8   22.64    8.18   0
   5  -9   8   99.42    8.38   0
   6  -9   8    5.15    8.59   0
   6  -9   8   -0.28    7.72   0
   4   8  -8   -1.65    7.74   0
   3   8  -8   -0.98    7.61   0
  -3  -8   8   -1.57    8.42   0
   3   8  -8   -0.58    6.64   0
   2   8  -8   68.63    7.95   0
  -2  -8   8   69.93    9.03   0
   2   8  -8   89.19    6.65   0
  -1  -8   8   95.61    8.62   0
   1   8  -8  108.14    7.30   0
   1   8  -8  134.13    7.31   0
   0   8  -8   53.41    7.64   0
   0   8  -8   67.43    6.65   0
   0  -8   8   44.80    7.86   0
  -1   8  -8   42.52    6.16   0
   1  -8   8   32.71    6.97   0
  -1   8  -8   28.25    7.48   0
   2  -8   8    8.78    6.36   0
  -2   8  -8   14.21    5.84   0
  -2   8  -8    9.47    6.02   0
   3  -8   8   20.65    7.14   0
  -3   8  -8   26.90    7.72   0
   4  -8   8    4.10    6.27   0
   5  -8   8   52.14    6.72   0
   5  -8   8   44.05    7.57   0
   6  -8   8   -1.49    8.16   0
   6  -8   8   -0.21    8.73   0
   7  -8   8    0.37    8.59   0
   7  -8   8    3.72    8.50   0
   5   7  -8    2.06    7.54   0
   5   7  -8   10.54    7.83   0
  -5  -7   8    7.42    7.54   0
   4   7  -8   17.96    7.59   0
   4   7  -8   26.63    6.32   0
  -4  -7   8   19.73    8.47   0
   3   7  -8   21.17    7.23   0
  -3  -7   8   18.00    6.86   0
   3   7  -8   24.99    5.49   0
   2   7  -8    9.56    6.88   0
  -2  -7   8    9.78    6.70   0
   2   7  -8   25.02    5.57   0
  -1  -7   8    7.21    5.89   0
   1   7  -8    4.48    5.82   0
   1   7  -8    5.88    5.87   0
   0   7  -8   19.41    6.75   0
   0  -7   8   18.55    6.75   0
   0   7  -8   12.64    5.72   0
   1  -7   8   57.33    6.48   0
  -1   7  -8   76.10    6.37   0
  -1   7  -8   61.37    6.99   0
   2  -7   8    6.94    6.09   0
  -2   7  -8   11.60    5.92   0
   3  -7   8   21.55    7.11   0
  -3   7  -8   22.35    6.07   0
   4  -7   8   27.69    6.83   0
   5  -7   8    1.06    6.15   0
   5  -7   8    7.75    6.39   0
   5  -7   8    7.34    5.97   0
   6  -7   8   -0.77    7.49   0
   6  -7   8   -1.62    6.62   0
   6  -7   8    1.80    8.43   0
   7  -7   8    9.03    8.25   0
   7  -7   8   11.38    8.14   0
  -6  -6   8   -1.62    8.21   0
   6   6  -8   -2.14    7.60   0
   6   6  -8   -0.66    7.82   0
   5   6  -8    4.98    8.40   0
   5   6  -8   13.98    7.27   0
  -5  -6   8   14.67    7.34   0
   4   6  -8   10.86    6.84   0
   4   6  -8   30.70    5.98   0
  -4  -6   8   17.02    6.72   0
   3   6  -8    4.78    6.40   0
  -3  -6   8    4.26    6.18   0
   3   6  -8    8.41    5.81   0
   2   6  -8    9.50    5.83   0
  -2  -6   8   17.26    6.55   0
   2   6  -8   25.81    6.10   0
  -1  -6   8   19.79    5.80   0
   1   6  -8   30.48    6.35   0
   1   6  -8   24.04    5.70   0
   0   6  -8   14.15    5.95   0
   0  -6   8    6.42    5.81   0
   0   6  -8   11.54    5.53   0
   1  -6   8   14.76    5.97   0
  -1   6  -8   23.58    5.80   0
  -1   6  -8   30.23    6.70   0
   2  -6   8   10.12    6.09   0
   2  -6   8    2.06    6.69   0
  -2   6  -8    4.45    5.64   0
   3  -6   8   28.77    7.70   0
   3  -6   8   43.64    5.53   0
   4  -6   8  102.28    8.03   0
   4  -6   8  129.79    7.60   0
   4  -6   8  140.69    6.71   0
   5  -6   8    0.16    6.80   0
   5  -6   8    0.67    6.62   0
   5  -6   8    1.14    5.78   0
   6  -6   8    5.37    6.85   0
   6  -6   8    4.81    8.25   0
   6  -6   8   15.75    7.79   0
   7  -6   8   72.26    7.59   0
   7  -6   8   75.46    9.50   0
   7  -6   8   72.80    8.64   0
  -6  -5   8   70.32    8.01   0
   6   5  -8   63.48    7.90   0
   6   5  -8  107.41    8.00   0
   5   5  -8    1.89    6.74   0
   5   5  -8   11.35    6.79   0
  -5  -5   8    3.80    6.62   0
   4   5  -8   26.32    6.29   0
   4   5  -8   28.80    6.71   0
  -4  -5   8   25.00    6.89   0
   3   5  -8   18.02    5.62   0
  -3  -5   8   22.91    5.51   0
   3   5  -8   23.41    5.56   0
   2   5  -8    1.09    5.23   0
  -2  -5   8    1.30    6.13   0
   2   5  -8    5.96    5.29   0
   1   5  -8   70.83    5.97   0
  -1  -5   8   55.26    6.95   0
   1   5  -8   91.62    5.66   0
   0  -5   8  173.97    5.96   0
   0   5  -8  134.94    6.08   0
   0  -5   8  117.11    8.15   0
   0   5  -8  149.43    7.96   0
   1  -5   8    1.19    4.95   0
   1  -5   8    0.51    6.87   0
  -1   5  -8   -0.97    5.12   0
   2  -5   8    7.39    5.23   0
   2  -5   8    6.68    6.95   0
   3  -5   8   -1.00    6.89   0
   3  -5   8    0.55    5.25   0
   3  -5   8   -1.84    7.01   0
   4  -5   8    5.18    6.76   0
   4  -5   8    2.52    5.49   0
   4  -5   8   -1.57    6.73   0
   5  -5   8    1.91    6.93   0
   5  -5   8   -0.08    6.69   0
   5  -5   8    3.92    6.65   0
   6  -5   8    4.68    6.25   0
   6  -5   8   -2.38    6.42   0
   6  -5   8    2.45    7.28   0
   7  -5   8    9.71    8.40   0
   7  -5   8    6.61    7.26   0
   7  -5   8   -2.98    8.31   0
   7   4  -8    5.95    7.46   0
   7   4  -8   -1.56    7.35   0
  -7  -4   8    6.60    7.14   0
  -6  -4   8   23.75    6.89   0
   6   4  -8   50.88    6.59   0
   6   4  -8   12.14    7.01   0
  -5  -4   8   42.63    7.14   0
   5   4  -8   44.15    7.63   0
   5   4  -8   71.83    6.56   0
   4   4  -8    3.37    5.51   0
   4   4  -8   10.44    5.74   0
  -4  -4   8    3.05    6.10   0
   3   4  -8   47.70    5.96   0
   3   4  -8   53.84    5.08   0
  -3  -4   8   41.12    6.61   0
   2   4  -8  222.22    8.28   0
  -2  -4   8  254.24    6.34   0
  -2  -4   8  176.43    8.36   0
   2   4  -8  264.07    6.07   0
   1   4  -8   85.23    7.61   0
  -1  -4   8   71.70    7.78   0
  -1  -4   8   85.48    5.21   0
   1   4  -8  100.98    5.29   0
   0  -4   8   75.30    5.53   0
   0   4  -8   68.01    5.44   0
   0   4  -8   60.68    8.35   0
   0  -4   8   52.25    7.77   0
   1  -4   8    6.14    5.13   0
   1  -4   8    7.41    7.94   0
   2  -4   8    7.06    7.89   0
   2  -4   8    5.30    7.56   0
   2  -4   8    5.33    5.08   0
   3  -4   8   39.95    7.26   0
   3  -4   8   39.31    7.63   0
   3  -4   8   34.56    6.24   0
   4  -4   8   47.99    6.93   0
   4  -4   8   49.16    5.57   0
   4  -4   8   46.53    7.28   0
   5  -4   8   -0.15    5.87   0
   5  -4   8    2.68    7.54   0
   5  -4   8   -0.29    7.12   0
   6  -4   8   -1.27    6.43   0
   6  -4   8   -3.67    6.64   0
   6  -4   8    3.74    7.11   0
   7  -4   8    1.11    7.57   0
   7  -4   8    6.13    8.41   0
   7  -4   8   -4.48    8.24   0
  -8  -3   8    3.58    7.42   0
   8   3  -8    3.81    8.57   0
   8   3  -8   -0.34    7.65   0
  -7  -3   8    5.39    7.03   0
   7   3  -8    4.72    7.14   0
   7   3  -8    9.51    7.41   0
   6   3  -8   44.89    5.76   0
   6   3  -8   32.10    6.73   0
  -6  -3   8   32.58    7.36   0
  -5  -3   8   14.23    5.39   0
   5   3  -8   19.38    5.38   0
   5   3  -8   14.28    5.61   0
  -4  -3   8   68.27    6.96   0
   4   3  -8   78.20    6.32   0
   4   3  -8  117.44    6.15   0
  -3  -3   8  239.24    8.93   0
  -3  -3   8  333.02    6.80   0
   3   3  -8  221.11    9.06   0
   3   3  -8  286.14    6.40   0
  -2  -3   8    2.33    6.46   0
   2   3  -8    1.89    7.58   0
  -2  -3   8    3.06    4.73   0
   2   3  -8    5.21    4.38   0
  -1  -3   8  176.23    5.66   0
   1   3  -8  172.58    5.37   0
  -1  -3   8  113.80    9.90   0
   1   3  -8  130.57   10.22   0
   0  -3   8   24.58    4.88   0
   0  -3   8   15.31   11.93   0
   0  -3   8   18.12   12.09   0
   1  -3   8   12.44   10.77   0
   1  -3   8   15.72    5.70   0
   1  -3   8    9.47   11.51   0
   2  -3   8  298.07   12.85   0
   2  -3   8  359.22    7.00   0
   2  -3   8  282.30   12.01   0
   3  -3   8   78.41    8.12   0
   3  -3   8   86.03    5.73   0
   3  -3   8   82.27    8.33   0
   4  -3   8   26.14    6.95   0
   4  -3   8   28.23    5.61   0
   4  -3   8   29.26    6.76   0
   5  -3   8   16.70    7.55   0
   5  -3   8   24.55    6.05   0
   6  -3   8    1.31    8.08   0
   6  -3   8   -1.08    6.31   0
   7  -3   8    9.94    7.93   0
   7  -3   8   17.76    9.13   0
  -8  -2   8    5.42    7.21   0
   8   2  -8    2.44    7.92   0
   8   2  -8    1.17    8.06   0
   7   2  -8   15.76    6.91   0
  -7  -2   8   15.92    6.49   0
   7   2  -8    6.07    6.78   0
  -6  -2   8   24.94    6.88   0
   6   2  -8   40.24    6.98   0
   6   2  -8   22.99    6.94   0
  -5  -2   8    3.84    5.35   0
   5   2  -8   12.30    5.41   0
   5   2  -8    6.34    6.37   0
  -4  -2   8   56.16    7.15   0
  -4  -2   8   69.89    5.48   0
   4   2  -8   65.17    5.98   0
   4   2  -8   53.52    7.69   0
  -3  -2   8   87.48    8.24   0
  -3  -2   8  107.30    5.78   0
   3   2  -8   81.10    9.24   0
   3   2  -8   99.63    5.56   0
   2   2  -8   32.33    9.74   0
  -2  -2   8   33.66    8.84   0
  -2  -2   8   34.88    4.83   0
  -1  -2   8   50.20    4.81   0
   0  -2   8   14.66    4.81   0
   1  -2   8  315.98    6.95   0
   2  -2   8  253.92   13.90   0
   2  -2   8  245.04    7.36   0
   2  -2   8  263.59   14.22   0
   3  -2   8   41.21    8.28   0
   3  -2   8   57.64    5.58   0
   3  -2   8   44.81    7.80   0
   4  -2   8   -1.11    7.44   0
   4  -2   8    0.97    5.56   0
   5  -2   8    0.38    7.63   0
   5  -2   8   -3.23    7.41   0
   6  -2   8    8.45    8.48   0
   6  -2   8   46.06    7.34   0
  -9  -1   8    3.53    8.01   0
   9   1  -8    0.58    8.93   0
   9   1  -8    9.10    8.96   0
  -8  -1   8   19.66    7.04   0
   8   1  -8    8.72    6.85   0
   8   1  -8    4.34    7.34   0
   7   1  -8   36.33    6.98   0
  -7  -1   8   46.47    6.68   0
   7   1  -8   76.49    6.87   0
   6   1  -8    2.73    6.46   0
  -6  -1   8    0.80    6.42   0
   6   1  -8    1.87    5.63   0
   5   1  -8  228.84    8.57   0
  -5  -1   8  396.52    7.67   0
   5   1  -8  364.80    7.16   0
  -5  -1   8  238.25    8.03   0
  -4  -1   8    1.54    5.10   0
   4   1  -8    5.28    5.07   0
   4   1  -8    1.48    6.40   0
  -3  -1   8  105.57    5.58   0
   3   1  -8   80.11    9.28   0
  -2  -1   8   85.26    5.31   0
  -1  -1   8    7.60    4.52   0
   0  -1   8  176.32    5.73   0
   1  -1   8   13.75    5.49   0
   2  -1   8   71.02   11.13   0
   2  -1   8  119.65    5.76   0
   3  -1   8    3.88    7.96   0
   4  -1   8   -0.09    7.76   0
   5  -1   8    4.39    8.04   0
   6  -1   8    5.31    8.95   0
   9   0  -8    6.92    7.63   0
   9   0  -8    6.29    7.51   0
   8   0  -8    8.00    6.55   0
   8   0  -8    6.47    7.64   0
   7   0  -8    8.87    5.99   0
   6   0  -8  529.03   11.33   0
  -6   0   8  719.74   10.50   0
   5   0  -8   22.73    6.44   0
  -5   0   8   16.64    6.52   0
   4   0  -8   30.21    7.85   0
  -4   0   8   33.27    5.42   0
   3   0  -8   53.16   10.08   0
   3   0  -8   52.87   10.02   0
  -3   0   8   66.58    5.30   0
  -2   0   8    3.79    5.15   0
  -1   0   8   -0.72    4.42   0
   0   0   8  527.08    7.16   0
   2   0   8   11.40    8.46   0
   3   0   8   -1.32    7.14   0
   4   0   8   14.95    8.26   0
   5   0   8    8.37    8.40   0
   6   0   8    0.69    9.20   0
   9  -1  -8    6.79    8.56   0
   8  -1  -8   80.78    7.91   0
   7  -1  -8   15.48    5.89   0
  -6   1   8    5.11    5.70   0
   6  -1  -8    4.42    6.70   0
  -5   1   8   23.61    5.54   0
   5  -1  -8   18.02    7.53   0
  -4   1   8   18.74    5.95   0
   4  -1  -8   26.15    7.31   0
   4  -1  -8   26.13    7.46   0
   3  -1  -8  337.80   14.04   0
  -3   1   8  390.29    7.08   0
   3  -1  -8  353.96   13.84   0
  -2   1   8  208.38    6.11   0
  -1   1   8    8.84    4.63   0
   1   1   8    0.00    8.42   0
  -1  -1  -8    1.49    7.74   0
   2   1   8   26.78    8.24   0
  -2  -1  -8   25.24    8.13   0
   3   1   8   16.14    8.74   0
  -3  -1  -8   59.97    8.31   0
   4   1   8    1.11    7.87   0
   5   1   8   -3.73    9.29   0
  -5  -1  -8   15.54    9.52   0
   9  -2  -8   -3.82    7.59   0
   8  -2  -8   11.43    6.36   0
  -7   2   8   14.13    7.69   0
   7  -2  -8   10.48    6.41   0
  -6   2   8   11.69    5.79   0
   6  -2  -8   11.96    6.65   0
   6  -2  -8    4.84    6.65   0
   5  -2  -8   -1.05    6.81   0
  -5   2   8    5.27    5.12   0
   4  -2  -8   49.46    8.16   0
   4  -2  -8   49.57    7.52   0
  -4   2   8   38.80    5.50   0
   3  -2  -8  214.98   10.74   0
  -3   2   8  174.43    7.20   0
   3  -2  -8  245.46   10.57   0
   2  -2  -8   39.84    8.79   0
  -2   2   8   37.63    5.48   0
   2  -2  -8   30.42    9.53   0
   1  -2  -8    1.39    8.74   0
   0   2   8   24.20    8.09   0
   0  -2  -8   24.27    8.09   0
   1   2   8   18.18    8.18   0
  -1  -2  -8   16.79    7.68   0
   2   2   8   34.25    8.27   0
  -2  -2  -8   30.15    7.68   0
   3   2   8    2.81    8.05   0
   4   2   8   -0.16    8.96   0
   9  -3  -8    8.15    8.42   0
   9  -3  -8   10.84    8.51   0
   8  -3  -8   22.50    6.49   0
   8  -3  -8   22.60    7.48   0
   7  -3  -8   85.67    6.60   0
  -7   3   8  118.82    7.55   0
   7  -3  -8   89.48    7.50   0
   6  -3  -8    2.83    6.59   0
  -6   3   8   -0.83    5.95   0
   6  -3  -8    0.70    6.75   0
  -5   3   8    1.01    5.52   0
   5  -3  -8    0.68    6.48   0
   4  -3  -8   63.90    7.99   0
   4  -3  -8   70.12    7.14   0
  -4   3   8   66.48    5.66   0
   3  -3  -8    8.27    6.89   0
   3  -3  -8    4.30    7.70   0
  -3   3   8    0.52    5.81   0
   2  -3  -8   28.87    7.97   0
   1  -3  -8   10.33    6.89   0
   0  -3  -8    3.71    6.92   0
   0   3   8    2.12    7.31   0
   1   3   8    6.61    7.98   0
  -1  -3  -8   11.85    7.45   0
   2   3   8    4.04    8.29   0
   3   3   8    3.12    9.19   0
   9  -4  -8   12.88    8.60   0
   9  -4  -8    0.72    7.66   0
   8  -4  -8   -1.18    6.81   0
  -8   4   8   -1.84    9.12   0
   8  -4  -8   -2.74    7.90   0
   7  -4  -8   -3.58    7.61   0
  -7   4   8    1.97    6.58   0
   7  -4  -8   -9.52    7.60   0
   6  -4  -8    0.18    7.06   0
  -6   4   8    5.66    6.83   0
   6  -4  -8    3.95    5.78   0
   5  -4  -8    1.21    6.71   0
  -5   4   8   -2.40    6.73   0
   4  -4  -8    7.90    7.61   0
  -4   4   8   13.32    5.88   0
   3  -4  -8   20.83    8.41   0
   2  -4  -8    8.97    7.63   0
   1  -4  -8    9.80    8.11   0
  -1   4   8    1.94    7.76   0
   0  -4  -8   32.79    8.22   0
   0   4   8   37.41    8.81   0
   1   4   8    4.85    8.84   0
   2   4   8   -1.68    8.92   0
   8  -5  -8   -1.97    8.23   0
   8  -5  -8    8.17    7.08   0
  -8   5   8   -2.97    9.62   0
   7  -5  -8    0.06    7.04   0
  -7   5   8   -0.15    8.21   0
   7  -5  -8    3.07    6.72   0
   6  -5  -8    5.36    6.80   0
   6  -5  -8    3.80    6.48   0
  -6   5   8   10.73    7.71   0
   5  -5  -8   26.30    7.94   0
   5  -5  -8   19.05    8.12   0
  -5   5   8   26.55    6.35   0
  -1   5   8   46.02    8.92   0
   0   5   8   -1.79    8.33   0
   1   5   8   -1.85    9.38   0
  -1  -5  -8    9.06    9.01   0
   8  -6  -8   30.35    9.32   0
  -8   6   8   22.13   10.85   0
   8  -6  -8   -1.57    8.10   0
   7  -6  -8   10.33    8.37   0
   7  -6  -8    5.15    7.96   0
  -7   6   8    5.03    9.06   0
   6  -6  -8   -0.38    8.74   0
   6  -6  -8    2.86    7.95   0
  -6   6   8    3.25    8.61   0
   5  -6  -8    2.06    9.31   0
  -5   6   8    7.33    8.04   0
   4  -6  -8   -1.08    8.51   0
   3  -6  -8   -4.32    9.44   0
   2  -6  -8   -3.79    9.34   0
   1  -6  -8   19.74    8.97   0
  -1   6   8   11.48   10.22   0
   6  -7  -8   12.86    8.92   0
  -6   7   8   21.84    8.31   0
   5  -7  -8    8.11    9.93   0
   4  -7  -8    5.26   10.38   0
  -1  10  -9    0.06    7.59   0
   1 -10   9    1.85    8.32   0
  -1  10  -9    1.75    7.92   0
  -2  10  -9   -4.40    8.54   0
   2 -10   9   -3.53    8.22   0
   3 -10   9    2.28    8.92   0
  -3  10  -9   -2.18    8.84   0
   4 -10   9   81.49    8.79   0
  -4  10  -9   79.13    8.78   0
   2   9  -9   -1.76    8.55   0
   2   9  -9    1.24    6.98   0
   1   9  -9   -1.06    8.08   0
  -1  -9   9   30.14    8.09   0
   1   9  -9   23.44    8.19   0
   0   9  -9    4.48    7.25   0
   0  -9   9   -3.41    7.56   0
   0   9  -9    1.18    7.41   0
  -1   9  -9   -0.73    6.77   0
   1  -9   9    2.47    7.97   0
  -1   9  -9    1.68    7.81   0
   2  -9   9   20.05    7.19   0
  -2   9  -9   29.08    7.50   0
   3  -9   9   12.34    8.79   0
  -3   9  -9   15.06    7.32   0
   4  -9   9   25.11    8.91   0
   5  -9   9    0.03    8.47   0
   5  -9   9    2.12    8.72   0
   3   8  -9    0.97    8.02   0
  -3  -8   9   11.18    8.22   0
   3   8  -9   20.12    7.17   0
   2   8  -9   20.89    7.62   0
  -2  -8   9   47.70    8.63   0
   2   8  -9   52.82    7.33   0
   1   8  -9   24.37    6.59   0
  -1  -8   9   14.80    6.71   0
   1   8  -9   42.63    6.36   0
   0   8  -9    2.83    6.86   0
   0  -8   9   -2.65    7.39   0
   0   8  -9    0.46    6.03   0
  -1   8  -9   45.27    6.55   0
   1  -8   9   38.36    7.93   0
  -1   8  -9   36.79    7.36   0
   2  -8   9   31.25    6.90   0
  -2   8  -9   26.49    6.61   0
   3  -8   9   21.92    7.93   0
  -3   8  -9   28.35    7.06   0
   4  -8   9    5.25    8.64   0
   5  -8   9    3.51    8.08   0
   5  -8   9   -1.88    8.01   0
   6  -8   9    6.58    8.02   0
   6  -8   9   11.97    9.01   0
   4   7  -9    5.85    7.69   0
   4   7  -9    0.39    7.10   0
  -4  -7   9    5.52    7.69   0
   3   7  -9   -1.64    7.35   0
  -3  -7   9   54.23    7.20   0
   3   7  -9   98.82    6.73   0
   2   7  -9   39.30    7.63   0
  -2  -7   9   40.82    7.50   0
   2   7  -9   72.32    6.40   0
   1   7  -9   32.01    7.24   0
  -1  -7   9   30.74    7.03   0
   1   7  -9   38.66    7.15   0
   0   7  -9   20.40    6.32   0
   0  -7   9   12.48    7.07   0
   0   7  -9   17.70    7.21   0
  -1   7  -9   14.98    5.99   0
   1  -7   9   12.20    6.35   0
  -1   7  -9   19.10    6.36   0
   2  -7   9   54.10    7.71   0
  -2   7  -9   72.75    6.26   0
   3  -7   9   56.83    8.39   0
   4  -7   9    7.02    7.58   0
   4  -7   9    1.44    7.17   0
   4  -7   9    4.62    6.67   0
   5  -7   9   -1.27    8.35   0
   5  -7   9    2.46    8.52   0
   5  -7   9    0.60    8.19   0
   6  -7   9   13.02    8.72   0
   6  -7   9   17.23    8.96   0
   6  -7   9   21.70    8.60   0
   5   6  -9   -3.92    7.45   0
   5   6  -9    3.45    7.29   0
  -5  -6   9   -7.28    7.44   0
   4   6  -9   -1.24    6.50   0
   4   6  -9   -0.08    6.64   0
  -4  -6   9    1.55    7.17   0
   3   6  -9   13.95    6.35   0
  -3  -6   9   16.77    7.28   0
   3   6  -9   23.73    6.48   0
   2   6  -9   38.55    6.95   0
  -2  -6   9   33.97    7.15   0
   2   6  -9   47.20    5.95   0
   1   6  -9   31.89    7.01   0
  -1  -6   9   18.15    7.29   0
   1   6  -9   48.05    6.52   0
   0   6  -9   32.81    5.59   0
   0   6  -9   22.85    7.07   0
   0  -6   9   12.98    7.62   0
   1  -6   9   61.22    6.67   0
   1  -6   9   64.13    8.07   0
  -1   6  -9   84.03    6.99   0
   2  -6   9   13.06    6.57   0
   2  -6   9   14.29    7.76   0
   3  -6   9   17.49    7.66   0
   3  -6   9   21.61    6.01   0
   3  -6   9   19.31    7.37   0
   4  -6   9    8.47    8.07   0
   4  -6   9   14.52    7.74   0
   4  -6   9    7.86    7.85   0
   5  -6   9   -0.78    7.57   0
   5  -6   9   -0.47    7.95   0
   5  -6   9   -2.18    7.61   0
   6  -6   9    1.12    8.51   0
   6  -6   9    2.41    8.50   0
   6  -6   9    2.81    8.29   0
   7  -6   9    3.49    9.07   0
  -6  -5   9    1.64    7.29   0
   6   5  -9    0.90    8.53   0
   6   5  -9    6.47    7.75   0
  -5  -5   9    2.74    7.00   0
   5   5  -9   -8.94    7.32   0
   5   5  -9   -2.11    6.99   0
   4   5  -9    4.01    5.85   0
   4   5  -9    9.42    6.78   0
  -4  -5   9    6.42    6.65   0
   3   5  -9   60.40    6.88   0
   3   5  -9   97.12    6.16   0
  -3  -5   9   54.00    6.56   0
   2   5  -9   78.26    7.09   0
  -2  -5   9   66.08    7.66   0
   2   5  -9  100.71    6.00   0
   1   5  -9    1.44    6.94   0
  -1  -5   9    6.26    6.82   0
  -1  -5   9    3.46    5.44   0
   1   5  -9    8.53    5.49   0
   0  -5   9   39.55    7.99   0
   0  -5   9   63.59    6.06   0
   0   5  -9   63.11    6.11   0
   0   5  -9   51.72    8.23   0
   1  -5   9   56.40    5.74   0
   1  -5   9   38.07    8.51   0
   2  -5   9   39.45    5.67   0
   2  -5   9   23.05    7.55   0
   2  -5   9   28.31    7.66   0
   3  -5   9   14.40    7.77   0
   3  -5   9    9.62    6.58   0
   3  -5   9   13.23    7.35   0
   4  -5   9   18.16    8.10   0
   4  -5   9   20.17    7.91   0
   4  -5   9   19.88    6.34   0
   5  -5   9   42.07    8.76   0
   5  -5   9   43.44    6.44   0
   5  -5   9   49.78    8.14   0
   6  -5   9    3.61    7.99   0
   6  -5   9    8.75    8.39   0
   6  -5   9    5.10    8.96   0
   7  -5   9    2.75    8.91   0
   7   4  -9    2.05    8.91   0
   7   4  -9    7.96    7.55   0
  -7  -4   9    0.95    8.57   0
   6   4  -9   11.03    6.66   0
   6   4  -9   17.84    6.53   0
  -6  -4   9    7.70    6.52   0
  -5  -4   9    6.52    6.09   0
   5   4  -9    3.24    6.23   0
   5   4  -9    0.26    6.69   0
  -4  -4   9   24.22    6.17   0
   4   4  -9   22.49    7.77   0
   4   4  -9   36.49    6.13   0
  -3  -4   9    5.61    6.55   0
   3   4  -9    5.75    7.21   0
   3   4  -9    8.61    5.45   0
   2   4  -9   49.68    7.99   0
  -2  -4   9   61.12    5.31   0
   2   4  -9   52.17    5.40   0
  -2  -4   9   38.81    7.44   0
  -1  -4   9   55.36    5.46   0
  -1  -4   9   40.05    7.94   0
   1   4  -9   53.27    5.38   0
   1   4  -9   45.30    8.87   0
   0  -4   9   27.97    9.73   0
   0  -4   9   41.37    5.45   0
   1  -4   9   30.94    9.20   0
   1  -4   9   45.57    5.50   0
   1  -4   9   29.85    9.75   0
   2  -4   9   59.12    9.71   0
   2  -4   9   59.71   10.78   0
   2  -4   9   86.15    5.87   0
   3  -4   9    9.33    8.01   0
   3  -4   9   15.66    5.33   0
   3  -4   9    8.95    8.27   0
   4  -4   9   12.23    8.39   0
   4  -4   9    8.00    7.17   0
   4  -4   9    6.81    7.65   0
   5  -4   9   40.91    8.81   0
   5  -4   9   59.12    6.85   0
   5  -4   9   59.44    8.72   0
   6  -4   9   -1.88    8.61   0
   6  -4   9    0.78    6.92   0
   6  -4   9    6.08    9.11   0
  -7  -3   9   18.04    8.30   0
   7   3  -9   16.61    7.34   0
   7   3  -9    4.39    8.44   0
  -6  -3   9    8.92    6.25   0
   6   3  -9   -3.07    6.37   0
   6   3  -9    6.11    7.15   0
   5   3  -9    0.98    6.98   0
   5   3  -9    6.37    5.75   0
  -5  -3   9   -0.41    6.47   0
   4   3  -9   -0.42    7.13   0
   4   3  -9   -2.29    5.67   0
  -4  -3   9    2.91    6.41   0
   3   3  -9   36.22    7.94   0
  -3  -3   9   65.17    5.61   0
   3   3  -9   47.08    5.84   0
  -3  -3   9   45.31    7.74   0
   2   3  -9   -1.67    8.51   0
  -2  -3   9   -0.81    5.17   0
   2   3  -9    1.11    4.96   0
  -2  -3   9   -1.64    8.37   0
  -1  -3   9    3.63    5.00   0
   0  -3   9    2.27    5.04   0
   1  -3   9   33.59    5.39   0
   2  -3   9   31.23    5.45   0
   3  -3   9    4.27    9.01   0
   3  -3   9    3.24    8.84   0
   3  -3   9   10.69    5.90   0
   4  -3   9   26.05    8.28   0
   4  -3   9   32.97    5.86   0
   4  -3   9   22.06    8.19   0
   5  -3   9    1.25    8.70   0
   5  -3   9   12.24    6.65   0
   5  -3   9    2.98    8.35   0
   6  -3   9   -0.09    8.71   0
   6  -3   9    0.31    8.30   0
   6  -3   9    0.86    9.04   0
  -8  -2   9   25.50    7.69   0
   8   2  -9   21.68    8.07   0
   8   2  -9   11.37    7.98   0
  -7  -2   9   35.17    6.91   0
   7   2  -9   43.74    7.64   0
   7   2  -9    8.78    6.93   0
  -6  -2   9   11.70    6.06   0
   6   2  -9   20.13    6.52   0
   6   2  -9    8.24    7.01   0
  -5  -2   9    5.64    5.65   0
   5   2  -9   -0.26    6.92   0
   5   2  -9    6.23    6.09   0
  -4  -2   9   -3.88    5.69   0
   4   2  -9    1.12    6.81   0
   4   2  -9    2.28    5.17   0
  -4  -2   9    0.46    7.18   0
   3   2  -9   38.66    8.62   0
  -3  -2   9   42.85    5.61   0
  -2  -2   9   82.03    5.38   0
  -1  -2   9   -0.46    4.70   0
   0  -2   9  461.26    7.26   0
   1  -2   9  238.47    6.65   0
   2  -2   9   44.41    5.72   0
   3  -2   9   -0.54    5.60   0
   3  -2   9    4.16    9.90   0
   3  -2   9   -2.05    9.11   0
   4  -2   9   -0.92    5.50   0
   4  -2   9    0.18    7.92   0
   4  -2   9   -0.71    8.72   0
   5  -2   9    1.79    7.07   0
   5  -2   9    1.09    8.99   0
   6  -2   9   42.23    8.20   0
   6  -2   9    4.54   10.33   0
   8   1  -9    2.55    8.28   0
   8   1  -9    1.75    8.42   0
   7   1  -9   37.28    7.15   0
   7   1  -9    2.60    7.29   0
   6   1  -9  150.03    7.55   0
   6   1  -9  109.14    8.20   0
  -5  -1   9  229.20    7.37   0
   5   1  -9  147.30    9.03   0
  -4  -1   9  122.75    6.87   0
   4   1  -9   96.43    9.30   0
   3   1  -9    0.83   11.89   0
  -3  -1   9    1.36    5.36   0
   3   1  -9   -0.80   12.40   0
  -2  -1   9    1.25    4.55   0
  -1  -1   9   -1.92    4.83   0
   0  -1   9  117.80    5.78   0
   1  -1   9  207.20    6.35   0
   2  -1   9    4.15    5.63   0
   3  -1   9    7.34   10.41   0
   3  -1   9   36.89    5.88   0
   4  -1   9   -1.26    9.15   0
   4  -1   9    6.76    6.43   0
   5  -1   9    0.65    9.25   0
   5  -1   9   -5.30    7.14   0
   9   0  -9    1.63    8.84   0
   8   0  -9    5.24    7.88   0
   7   0  -9   15.28    7.34   0
   6   0  -9   -6.05    7.31   0
  -6   0   9    4.77    6.31   0
   5   0  -9  211.54    9.71   0
  -5   0   9  304.84    7.48   0
  -4   0   9  107.65    6.06   0
   4   0  -9   80.10    8.77   0
   4   0  -9   70.19    9.20   0
  -3   0   9   10.78    5.26   0
  -2   0   9   14.71    5.07   0
  -1   0   9  161.24    5.98   0
   0   0   9  135.95    5.53   0
   1   0   9  119.20    5.88   0
   2   0   9   -1.71   12.10   0
   3   0   9   32.17    9.95   0
   4   0   9    1.75    8.88   0
   5   0   9   -6.35    9.93   0
   9  -1  -9    4.40    7.71   0
   8  -1  -9    7.58    7.91   0
   7  -1  -9    3.25    7.52   0
  -7   1   9   -1.60    6.57   0
   6  -1  -9   -2.91    6.87   0
  -6   1   9    2.43    6.21   0
   5  -1  -9   36.34    6.94   0
  -5   1   9   40.05    6.06   0
   5  -1  -9   37.13    7.05   0
   4  -1  -9    0.36    8.31   0
   4  -1  -9    0.22    8.11   0
  -4   1   9    4.38    5.41   0
  -3   1   9   -0.71    5.37   0
  -2   1   9   83.53    5.96   0
  -1   1   9   86.50    5.87   0
   0   1   9    2.58    4.66   0
   2   1   9   48.17   10.60   0
  -2  -1  -9   44.87    9.59   0
   3   1   9    3.10    9.30   0
  -3  -1  -9   -0.89    8.73   0
   4   1   9   -9.11   10.04   0
  -4  -1  -9   45.02    9.57   0
   9  -2  -9   -0.84    8.61   0
   8  -2  -9    0.82    8.05   0
   8  -2  -9   12.16    7.07   0
  -7   2   9    1.19    7.71   0
   7  -2  -9    8.16    7.29   0
   7  -2  -9    6.33    6.38   0
  -6   2   9   19.01    6.63   0
   6  -2  -9   12.81    8.19   0
   5  -2  -9   66.11    8.45   0
  -5   2   9   58.66    6.32   0
   5  -2  -9   56.31    8.28   0
   4  -2  -9   27.60    9.97   0
  -4   2   9   15.77    6.91   0
   4  -2  -9   25.82    8.43   0
   3  -2  -9   38.46   11.02   0
  -3   2   9   43.29    5.64   0
   3  -2  -9   33.36   11.44   0
  -2   2   9    4.59    5.08   0
   0  -2  -9   15.54   10.59   0
  -1  -2  -9    2.18    8.81   0
   1   2   9    0.23    9.75   0
   2   2   9   -1.08   10.12   0
  -2  -2  -9    8.33    8.91   0
   3   2   9   42.21   11.06   0
  -3  -2  -9   69.85   10.25   0
   9  -3  -9   -2.87    8.67   0
   9  -3  -9   22.82    8.84   0
  -8   3   9    2.34    9.11   0
   8  -3  -9   -4.61    7.94   0
   8  -3  -9   -5.92    8.55   0
  -7   3   9   27.60    7.43   0
   7  -3  -9   14.10    6.81   0
   7  -3  -9   19.65    7.76   0
   6  -3  -9    6.62    7.96   0
  -6   3   9    0.67    7.32   0
   5  -3  -9   53.33    9.02   0
   5  -3  -9   40.53    8.78   0
  -5   3   9   50.08    7.61   0
   4  -3  -9   56.51    8.91   0
  -4   3   9   65.10    6.58   0
   4  -3  -9   59.50    8.40   0
   3  -3  -9    0.43    7.92   0
   3  -3  -9    3.53    8.25   0
  -3   3   9    3.29    5.59   0
   2  -3  -9   26.54    9.50   0
   1  -3  -9   34.96    9.72   0
   0  -3  -9    6.29    8.96   0
   0   3   9    9.49    9.89   0
  -1  -3  -9   -1.34    8.80   0
   1   3   9    4.15    9.14   0
   2   3   9   -1.02   10.86   0
  -2  -3  -9    3.36    9.23   0
  -8   4   9   -1.72   10.00   0
   8  -4  -9    7.13    8.85   0
   8  -4  -9    0.67    8.60   0
   7  -4  -9   10.23    8.82   0
   7  -4  -9   12.37    8.28   0
  -7   4   9   11.53    8.35   0
   6  -4  -9   80.77    8.31   0
  -6   4   9   79.34    8.21   0
   5  -4  -9    3.06    7.35   0
   5  -4  -9    3.21    8.69   0
  -5   4   9    4.28    6.57   0
   4  -4  -9   18.05    8.68   0
  -4   4   9   18.70    6.30   0
   4  -4  -9   25.04    8.07   0
   3  -4  -9    5.38    8.37   0
  -3   4   9    6.04    6.03   0
   2  -4  -9    0.64    8.67   0
   1  -4  -9   -0.02    8.89   0
   0  -4  -9   15.27    9.64   0
   0   4   9    8.03   10.34   0
  -1  -4  -9    0.04    9.21   0
   1   4   9   -0.34   10.22   0
  -8   5   9    0.18    9.46   0
   7  -5  -9   20.57   10.09   0
  -7   5   9   22.64    8.10   0
   7  -5  -9   10.81    8.62   0
   6  -5  -9   -2.05    8.59   0
  -6   5   9    7.03    7.89   0
  -5   5   9   -1.47    7.21   0
   5  -5  -9   -0.67    8.34   0
   4  -5  -9    0.98    8.42   0
   4  -5  -9    1.78    9.62   0
  -4   5   9   -0.69    7.36   0
   3  -5  -9    2.82    9.69   0
   2  -5  -9   -0.18    9.24   0
   1  -5  -9    1.58    9.09   0
   6  -6  -9    2.33    9.77   0
   6  -6  -9    0.28    8.12   0
  -6   6   9    2.23    8.64   0
   5  -6  -9   -2.74    8.98   0
  -5   6   9    5.98    7.82   0
   3  -6  -9   15.59    9.41   0
  -1  -9  10   -0.89    8.24   0
   1   9 -10    2.25    8.07   0
   1   9 -10   -0.88    7.63   0
   0  -9  10    6.52    7.64   0
   0   9 -10   15.13    7.48   0
   0   9 -10   -2.10    8.35   0
  -1   9 -10   81.36    8.38   0
  -1   9 -10   62.33    8.77   0
   1  -9  10   68.04    8.54   0
   2  -9  10    6.93    9.32   0
  -2   9 -10    2.61    7.67   0
   3  -9  10    1.61    8.84   0
   4  -9  10    0.85    8.16   0
   3   8 -10    6.08    9.02   0
   3   8 -10    5.47    6.71   0
   2   8 -10    5.76    8.17   0
  -2  -8  10    8.43    7.61   0
   2   8 -10    6.43    6.49   0
  -1  -8  10   13.87    7.37   0
   1   8 -10   14.02    7.35   0
   1   8 -10   17.19    7.91   0
   0  -8  10   23.91    8.41   0
   0   8 -10   31.51    7.48   0
   0   8 -10   30.47    8.53   0
  -1   8 -10   -2.21    6.56   0
   1  -8  10   -1.87    8.10   0
   2  -8  10    8.79    8.86   0
  -2   8 -10   13.94    7.92   0
   3  -8  10    1.22    7.46   0
   4  -8  10   42.17   10.12   0
   4  -8  10   48.01    9.01   0
   5  -8  10   -2.57    9.80   0
   5  -8  10   11.41    9.88   0
   4   7 -10    6.54    8.87   0
   4   7 -10   16.63    7.70   0
  -4  -7  10   18.27    8.61   0
   3   7 -10   -0.75    7.05   0
  -3  -7  10    2.51    6.91   0
   3   7 -10    1.70    6.77   0
   2   7 -10    2.52    7.75   0
  -2  -7  10    7.29    8.09   0
   2   7 -10   -1.19    6.53   0
  -1  -7  10    7.52    8.12   0
   1   7 -10    4.90    7.03   0
   1   7 -10    4.17    7.85   0
   0  -7  10   42.56    9.02   0
   0   7 -10   56.11    7.13   0
   0   7 -10   49.88    8.80   0
  -1   7 -10   41.92    6.67   0
   1  -7  10   32.11    8.58   0
   2  -7  10   -0.18    8.49   0
   3  -7  10   39.06    7.33   0
   3  -7  10   25.59    8.98   0
   3  -7  10   32.29    7.87   0
   4  -7  10   -5.48    9.26   0
   4  -7  10   34.81    9.26   0
   4  -7  10   29.71    7.18   0
   5  -7  10    9.40    8.83   0
   5  -7  10    4.51    8.12   0
   5  -7  10    9.46    9.22   0
  -5  -6  10   11.98    8.24   0
   5   6 -10    8.26    8.61   0
   5   6 -10   13.33    8.40   0
   4   6 -10   22.06    8.16   0
   4   6 -10   31.63    7.49   0
  -4  -6  10   24.46    8.07   0
   3   6 -10   59.07    7.39   0
   3   6 -10  119.11    7.06   0
  -3  -6  10   65.00    8.51   0
   2   6 -10   24.65    8.02   0
  -2  -6  10   16.10    8.32   0
   2   6 -10   33.36    6.26   0
  -1  -6  10   25.01    8.17   0
   1   6 -10   36.58    6.85   0
   1   6 -10   29.83    7.74   0
   0  -6  10   57.35    8.64   0
   0  -6  10   96.31    6.54   0
   0   6 -10  102.99    6.76   0
   1  -6  10    4.48    5.83   0
   1  -6  10    7.26    8.45   0
   2  -6  10   -1.21    6.11   0
   2  -6  10   -2.30    8.42   0
   2  -6  10   -1.80    7.95   0
   3  -6  10   -0.60    7.52   0
   3  -6  10   -0.96    6.84   0
   3  -6  10   -0.87    8.87   0
   4  -6  10   52.45    9.25   0
   4  -6  10   51.55    9.66   0
   4  -6  10   52.07    7.16   0
   5  -6  10    5.23    8.20   0
   5  -6  10   13.33    8.81   0
   5  -6  10   13.55    7.94   0
   6  -6  10    0.49    9.38   0
   6  -6  10    9.05    8.11   0
   6  -6  10   -0.64    9.43   0
   6   5 -10   -7.94    8.58   0
  -6  -5  10    7.93    7.43   0
   6   5 -10    0.72    7.99   0
   5   5 -10   49.00    8.28   0
  -5  -5  10   38.58    8.23   0
   5   5 -10   57.89    7.78   0
  -4  -5  10   46.77    6.78   0
   4   5 -10   47.65    7.06   0
   4   5 -10   68.82    7.12   0
   3   5 -10    4.84    8.15   0
   3   5 -10   10.28    6.15   0
  -3  -5  10   -0.20    7.94   0
   2   5 -10    3.68    7.54   0
   2   5 -10   14.36    5.75   0
  -2  -5  10    5.13    7.62   0
  -1  -5  10    4.46    5.47   0
  -1  -5  10    7.04    7.82   0
   1   5 -10    7.33    5.17   0
   1   5 -10   13.88    8.12   0
   0  -5  10    5.79    9.30   0
   0  -5  10    3.55    5.83   0
   1  -5  10   28.45   10.15   0
   1  -5  10   44.55    5.80   0
   1  -5  10   41.82    9.87   0
   2  -5  10   -0.52    5.41   0
   2  -5  10    1.57    8.93   0
   2  -5  10    2.32   10.39   0
   3  -5  10   65.11    9.46   0
   3  -5  10   57.05   10.56   0
   3  -5  10   80.12    6.26   0
   4  -5  10    2.88    9.06   0
   4  -5  10   -1.61    7.40   0
   4  -5  10    1.80    9.32   0
   5  -5  10   -0.87    9.25   0
   5  -5  10    1.66    7.40   0
   5  -5  10    2.49    8.95   0
   6  -5  10   -2.28    9.74   0
   6  -5  10   -4.29    9.63   0
   6  -5  10   -0.52    7.70   0
  -6  -4  10   17.35    8.69   0
   6   4 -10    4.84    8.32   0
   6   4 -10    4.20    7.47   0
   5   4 -10    5.13    7.58   0
   5   4 -10   14.26    6.84   0
  -5  -4  10    2.77    7.76   0
   4   4 -10   24.83    7.92   0
  -4  -4  10   21.49    8.29   0
   4   4 -10   35.46    6.51   0
   3   4 -10    0.76    8.09   0
  -3  -4  10   10.57    5.59   0
  -3  -4  10    1.84    7.91   0
   3   4 -10    4.17    5.50   0
   2   4 -10    4.94    8.58   0
  -2  -4  10    4.17    4.90   0
  -2  -4  10    2.60    8.43   0
   2   4 -10    5.27    5.17   0
  -1  -4  10   39.12    5.38   0
  -1  -4  10   23.68   11.86   0
   0  -4  10    5.13    5.65   0
   1  -4  10    0.06    6.24   0
   2  -4  10    1.55    5.69   0
   3  -4  10   15.48   11.23   0
   3  -4  10   11.80   12.67   0
   3  -4  10   11.97    6.28   0
   4  -4  10    2.16    9.18   0
   4  -4  10    1.71    9.35   0
   4  -4  10    3.54    6.91   0
   5  -4  10    5.72    9.11   0
   5  -4  10   -1.29    9.98   0
   5  -4  10   -2.09    7.03   0
   6  -4  10   -0.38   10.36   0
   6  -4  10   25.46    8.96   0
  -7  -3  10   56.13    8.97   0
   7   3 -10   11.43    8.27   0
   7   3 -10   34.34    8.39   0
   6   3 -10    3.77    8.29   0
   6   3 -10   16.87    6.17   0
  -6  -3  10    7.32    8.38   0
   5   3 -10   70.40    8.78   0
  -5  -3  10   73.72    8.71   0
   5   3 -10  102.10    7.02   0
  -4  -3  10   54.85    6.16   0
   4   3 -10   49.96    8.03   0
   4   3 -10   48.92    6.60   0
  -4  -3  10   37.04    8.21   0
   3   3 -10    0.64    9.11   0
  -3  -3  10   -1.12    5.42   0
  -3  -3  10    1.77    8.84   0
   3   3 -10    0.25    5.28   0
  -2  -3  10  129.59    5.87   0
  -1  -3  10  263.03    6.59   0
   0  -3  10   10.41    5.37   0
   1  -3  10   38.36    6.35   0
   2  -3  10   -1.46    5.65   0
   3  -3  10    7.59    5.67   0
   4  -3  10   19.62   10.24   0
   4  -3  10   24.82    6.75   0
   4  -3  10    5.77   11.09   0
   5  -3  10    2.57    7.40   0
   5  -3  10   -0.08   10.69   0
   5  -3  10    2.66   10.19   0
   7   2 -10    2.99    7.63   0
   7   2 -10    8.90    7.34   0
  -7  -2  10   15.01    8.75   0
  -6  -2  10  170.00    9.61   0
   6   2 -10  190.56    9.68   0
   6   2 -10  327.92    7.76   0
  -5  -2  10    4.69    6.12   0
   5   2 -10    0.85    7.76   0
   5   2 -10    4.73    5.88   0
  -4  -2  10    5.64    5.83   0
   4   2 -10    2.28    8.55   0
  -3  -2  10   19.43    5.87   0
  -2  -2  10   72.80    5.56   0
  -1  -2  10    1.36    5.01   0
   0  -2  10  247.29    6.34   0
   1  -2  10   57.72    5.87   0
   2  -2  10   11.51    5.58   0
   3  -2  10    6.72    6.15   0
   4  -2  10    2.80   10.91   0
   4  -2  10    9.91    6.73   0
   4  -2  10    6.75   10.51   0
   5  -2  10   -0.93   10.78   0
   5  -2  10   11.75    7.43   0
   5  -2  10   -3.05   10.41   0
   8   1 -10    4.60    7.97   0
   7   1 -10    6.93    8.67   0
  -6  -1  10   18.96    6.65   0
   6   1 -10   12.56    8.36   0
  -5  -1  10    3.82    6.38   0
   5   1 -10   -0.50    8.04   0
  -4  -1  10   -1.61    5.49   0
   4   1 -10    0.65   10.07   0
   4   1 -10    1.55   10.35   0
  -3  -1  10   10.22    5.57   0
  -2  -1  10   66.41    6.07   0
  -1  -1  10   -1.86    5.01   0
   0  -1  10  108.61    6.36   0
   1  -1  10   51.22    6.16   0
   2  -1  10    0.40    6.31   0
   3  -1  10   25.96    7.00   0
   4  -1  10    0.32   11.15   0
   4  -1  10   -1.17    6.77   0
   8   0 -10    6.25    9.23   0
   7   0 -10    4.97    7.98   0
   6   0 -10   19.69    8.16   0
  -6   0  10   17.47    6.94   0
  -5   0  10    4.12    5.77   0
   5   0 -10    4.20    7.97   0
   5   0 -10    1.92    8.11   0
   4   0 -10   -1.02   15.09   0
  -4   0  10   -3.40    5.56   0
   4   0 -10    1.00   14.77   0
  -3   0  10   13.91    5.76   0
  -2   0  10   18.84    5.43   0
  -1   0  10    1.97    5.14   0
   0   0  10   51.50    5.29   0
   1   0  10   61.43    6.31   0
   2   0  10    6.14    6.31   0
   3   0  10    3.49   13.62   0
   3   0  10    8.40    6.92   0
   4   0  10   -3.51   11.69   0
   8  -1 -10    7.92    8.50   0
   7  -1 -10  116.42    9.86   0
  -7   1  10  178.01    9.16   0
   6  -1 -10   88.81    9.31   0
  -6   1  10  126.30    8.29   0
   6  -1 -10   72.53    9.65   0
   5  -1 -10    8.08    9.26   0
   5  -1 -10    9.39    8.20   0
  -5   1  10   13.44    5.97   0
  -4   1  10   90.42    6.14   0
  -3   1  10   -2.54    5.54   0
  -2   1  10   25.64    5.78   0
  -1   1  10   66.42    5.93   0
   0   1  10    9.09    5.17   0
   1   1  10    6.16    6.12   0
   3   1  10   -1.83   11.79   0
   8  -2 -10    3.00    9.51   0
   8  -2 -10    7.45    8.93   0
   7  -2 -10   10.94    9.05   0
  -7   2  10   55.69    8.56   0
   6  -2 -10    9.81    9.63   0
   6  -2 -10    6.06    9.14   0
  -6   2  10    2.51    6.61   0
   5  -2 -10   -0.35    9.85   0
   5  -2 -10   -0.23    8.64   0
  -5   2  10   -2.05    6.39   0
   4  -2 -10   20.08   12.85   0
  -4   2  10   27.89    6.36   0
   4  -2 -10   15.51   12.39   0
  -3   2  10   85.78    6.46   0
  -2   2  10   21.79    6.38   0
  -1   2  10   48.81    6.39   0
  -2  -2 -10    6.39   11.61   0
   2   2  10    1.08   12.33   0
  -8   3  10    4.00    9.44   0
   8  -3 -10   -1.68    9.59   0
   8  -3 -10    0.84    9.76   0
   7  -3 -10    4.34    9.44   0
  -7   3  10   -1.18    8.25   0
   7  -3 -10    4.05    8.10   0
   6  -3 -10    9.60    9.08   0
  -6   3  10   13.16    7.98   0
   6  -3 -10    8.18    9.08   0
   5  -3 -10    9.85    9.38   0
   5  -3 -10    9.51    9.34   0
  -5   3  10    3.07    7.22   0
   4  -3 -10   49.51   11.30   0
  -4   3  10   57.20    7.43   0
   4  -3 -10   41.68   11.09   0
   3  -3 -10   42.76   14.72   0
   3  -3 -10   53.78   14.50   0
  -3   3  10   50.26    6.85   0
  -2   3  10    3.24    6.36   0
   0  -3 -10    0.70   12.79   0
  -1  -3 -10   13.19   12.20   0
   1   3  10    4.05   13.08   0
   7  -4 -10    2.03    9.42   0
  -7   4  10    1.96    8.75   0
   7  -4 -10    1.68    9.25   0
   6  -4 -10    6.94    9.22   0
   6  -4 -10   10.22    9.90   0
  -6   4  10   15.27    7.43   0
   5  -4 -10    4.34    9.41   0
   5  -4 -10    1.58    9.94   0
  -5   4  10    6.18    7.96   0
   4  -4 -10   17.36    9.67   0
  -4   4  10   18.30    6.81   0
   4  -4 -10   12.87    9.88   0
   3  -4 -10    3.93   10.42   0
  -3   4  10    5.45    6.68   0
   3  -4 -10    5.35    9.65   0
   2  -4 -10    3.94   11.56   0
   1  -4 -10    3.16   11.24   0
   6  -5 -10    4.70   10.33   0
   6  -5 -10    0.05    9.54   0
  -6   5  10    3.35    7.81   0
   5  -5 -10    3.32   10.13   0
   5  -5 -10    4.39   10.39   0
  -5   5  10    9.11    8.47   0
   4  -5 -10    5.87   10.60   0
  -4   5  10   13.87    7.21   0
   4  -5 -10    1.53   11.00   0
   3  -5 -10   19.61   10.95   0
  -3   5  10   23.58    7.69   0
   1  -9  11   -3.42   10.33   0
   2   8 -11   -3.54    9.92   0
   2   8 -11   -3.36    7.65   0
  -1  -8  11    9.05    9.33   0
   1   8 -11    6.21    7.11   0
   1   8 -11   11.51    8.86   0
   0  -8  11   31.04    9.30   0
   0   8 -11   41.49    8.64   0
   0   8 -11   14.22    9.89   0
  -1   8 -11    1.37    7.14   0
   1  -8  11   -5.53    9.31   0
   2  -8  11   -0.45    9.72   0
   3  -8  11    8.12   10.13   0
   3  -8  11   10.69    9.72   0
   4  -8  11    4.25    9.57   0
   3   7 -11    8.24    8.90   0
   3   7 -11    6.22    7.49   0
  -3  -7  11    1.80    7.94   0
   2   7 -11   30.31    9.07   0
  -2  -7  11   25.13    9.28   0
   2   7 -11   48.57    7.97   0
  -1  -7  11    8.06    9.40   0
   1   7 -11   18.85    7.55   0
   1   7 -11   11.17    9.05   0
   0  -7  11    1.82    8.84   0
   0   7 -11    0.43    7.29   0
   1  -7  11    2.34    9.72   0
   2  -7  11   22.73    6.98   0
   2  -7  11   12.07    9.77   0
   2  -7  11   21.11   10.23   0
   3  -7  11   -1.46    9.88   0
   3  -7  11    2.74    8.23   0
   3  -7  11    0.45   10.33   0
   4  -7  11   16.42    8.62   0
   4  -7  11   14.03   10.77   0
   4  -7  11    2.94   10.70   0
  -4  -6  11    7.20    8.95   0
   4   6 -11    3.31    9.90   0
   4   6 -11   22.34    7.60   0
   3   6 -11   22.85    8.78   0
   3   6 -11   36.28    7.30   0
  -3  -6  11   18.64    8.31   0
   2   6 -11   68.21    7.11   0
  -2  -6  11   44.29    9.37   0
   2   6 -11   51.20    9.24   0
  -1  -6  11   -0.15    8.96   0
   1   6 -11    7.04    6.53   0
   1   6 -11   -0.38    9.09   0
   0  -6  11   -1.58    6.48   0
   0  -6  11    0.74    9.43   0
   1  -6  11    3.12   10.81   0
   1  -6  11    7.78    6.94   0
   1  -6  11   10.25   10.03   0
   2  -6  11   68.51    6.68   0
   2  -6  11   53.07   12.25   0
   2  -6  11   64.10   10.89   0
   3  -6  11   30.25   10.38   0
   3  -6  11   17.99    7.60   0
   3  -6  11   24.39   10.68   0
   4  -6  11    1.60   11.06   0
   4  -6  11    7.84    7.68   0
   4  -6  11    2.29   10.50   0
   5  -6  11    6.32   11.54   0
   5  -6  11   15.11    7.96   0
   5   5 -11    3.10    9.54   0
   5   5 -11    7.32    7.76   0
  -5  -5  11   -1.53    9.05   0
   4   5 -11   -2.05    8.69   0
  -4  -5  11    1.32    9.06   0
   4   5 -11    7.61    7.07   0
   3   5 -11   69.66    9.42   0
  -3  -5  11   59.60    9.92   0
   3   5 -11   88.80    6.99   0
  -2  -5  11   19.44    9.07   0
  -2  -5  11   22.25    6.22   0
   2   5 -11   31.58    6.10   0
   2   5 -11   22.61    8.92   0
  -1  -5  11    2.67   11.22   0
  -1  -5  11    1.90    5.99   0
   0  -5  11   48.58    6.68   0
   1  -5  11   80.87    7.00   0
   2  -5  11   20.22    6.82   0
   3  -5  11   19.99   16.23   0
   3  -5  11   11.65    6.97   0
   3  -5  11   16.94   17.76   0
   4  -5  11    2.46   11.69   0
   4  -5  11    0.23   13.35   0
   4  -5  11    4.17    7.08   0
   5  -5  11    2.90   11.91   0
   5  -5  11    5.66    8.70   0
   6   4 -11    1.47    9.03   0
  -6  -4  11    0.20    8.87   0
   6   4 -11    1.38    7.36   0
   5   4 -11    3.16    8.22   0
  -5  -4  11    8.33    8.12   0
   5   4 -11    4.11    7.24   0
   4   4 -11    4.76    9.24   0
  -4  -4  11    1.33    9.03   0
   4   4 -11    0.02    6.31   0
   3   4 -11   14.89    9.33   0
  -3  -4  11   29.28    6.34   0
  -3  -4  11   21.84    9.26   0
   3   4 -11   29.62    6.01   0
  -2  -4  11   72.73    6.03   0
  -1  -4  11   85.20    6.49   0
   0  -4  11  231.61    7.16   0
   1  -4  11    1.27    6.49   0
   2  -4  11   14.72    6.28   0
   3  -4  11    7.42    6.28   0
   4  -4  11    6.94   18.84   0
   4  -4  11    8.83    7.98   0
   4  -4  11    1.95   18.26   0
   6   3 -11   -0.51    8.62   0
   6   3 -11    4.14    7.26   0
  -6  -3  11    3.01    8.94   0
   5   3 -11    2.40    9.35   0
  -5  -3  11    3.20    8.36   0
   5   3 -11   -0.31    6.63   0
   4   3 -11   30.08   10.14   0
  -4  -3  11   33.18    6.14   0
  -3  -3  11   17.92    5.89   0
  -2  -3  11   12.04    5.62   0
  -1  -3  11    0.09    5.63   0
   0  -3  11    8.54    5.72   0
   1  -3  11   97.43    6.80   0
   2  -3  11   59.10    6.71   0
   3  -3  11    4.46    7.01   0
   4  -3  11   43.09    7.75   0
   7   2 -11    1.30    8.90   0
   6   2 -11   14.07    9.47   0
  -5  -2  11    2.61    7.04   0
   5   2 -11    1.51    8.68   0
   4   2 -11   21.22   13.42   0
  -4  -2  11   24.57    6.83   0
  -3  -2  11    6.20    5.33   0
  -2  -2  11    1.21    5.63   0
  -1  -2  11    7.95    5.57   0
   0  -2  11   -3.38    5.75   0
   1  -2  11    8.98    6.38   0
   2  -2  11    7.25    6.44   0
   3  -2  11    4.44    6.78   0
   4  -2  11   11.14    8.41   0
   7   1 -11   -2.49    8.55   0
  -6  -1  11    3.42    6.99   0
   6   1 -11    3.62    9.28   0
  -5  -1  11   -0.45    6.28   0
   5   1 -11    0.37   10.31   0
   5   1 -11    0.88   10.75   0
  -4  -1  11    1.07    6.34   0
  -3  -1  11  183.03    7.22   0
  -2  -1  11   13.70    5.59   0
  -1  -1  11   27.41    5.47   0
   0  -1  11    8.80    5.74   0
   1  -1  11    5.04    5.94   0
   2  -1  11    9.27    6.07   0
   3  -1  11   30.67    7.45   0
   7   0 -11   -1.43    9.05   0
  -6   0  11   12.23    7.35   0
   6   0 -11    6.87    9.30   0
   6   0 -11    7.43    9.41   0
   5   0 -11   22.23   13.71   0
  -5   0  11   19.29    6.33   0
   5   0 -11   13.98   13.81   0
  -4   0  11   57.05    6.45   0
  -3   0  11    1.94    6.30   0
  -2   0  11    2.06    5.91   0
  -1   0  11    7.92    5.91   0
   0   0  11    8.56    5.74   0
   1   0  11    0.54    6.48   0
   2   0  11    1.65    7.27   0
   7  -1 -11    3.42    9.98   0
  -7   1  11   53.55    9.28   0
   7  -1 -11   28.92    9.98   0
   6  -1 -11   28.30   10.65   0
   6  -1 -11   39.61   10.77   0
  -6   1  11   47.92    7.80   0
  -5   1  11   19.90    6.57   0
  -4   1  11    5.64    6.34   0
  -3   1  11    2.03    6.36   0
  -2   1  11   17.79    6.43   0
  -1   1  11  124.35    7.37   0
   0   1  11   68.01    5.98   0
   1   1  11   -0.63    6.79   0
   2   1  11   -1.12    6.83   0
   7  -2 -11   14.12   10.49   0
   7  -2 -11   14.86    9.62   0
  -7   2  11   18.35    8.05   0
   6  -2 -11   57.91   11.93   0
   6  -2 -11   54.90   11.05   0
  -6   2  11   64.37    8.05   0
   5  -2 -11    0.44   16.41   0
  -5   2  11    5.84    7.85   0
   5  -2 -11    3.47   16.53   0
  -4   2  11    9.54    6.37   0
  -3   2  11    4.61    6.57   0
  -2   2  11   32.55    6.86   0
  -1   2  11    5.39    6.96   0
   0   2  11    1.22    7.17   0
   1   2  11    3.38    7.46   0
   6  -3 -11    4.74   11.37   0
   6  -3 -11   -5.71   11.03   0
  -6   3  11   10.35    8.13   0
   5  -3 -11    1.89   13.08   0
  -5   3  11    6.37    8.34   0
   5  -3 -11    3.80   13.49   0
  -4   3  11    6.26    7.20   0
  -3   3  11    0.90    7.10   0
  -2   3  11    6.73    7.20   0
  -1   3  11    1.17    7.57   0
  -5   4  11   43.01    8.63   0
   5  -4 -11   18.21   13.09   0
   5  -4 -11   21.16   13.12   0
   4  -4 -11   -0.30   16.94   0
   4  -4 -11    0.90   17.38   0
  -4   4  11    0.78    7.45   0
  -3   4  11    5.06    7.63   0
   1  -8  12   18.75   11.68   0
   2   7 -12   -3.12    7.77   0
  -2  -7  12   -0.09    9.76   0
   2   7 -12   -0.01    9.67   0
  -1  -7  12   -1.38   10.74   0
   1   7 -12    0.59    7.99   0
   0  -7  12    8.51   11.28   0
   1  -7  12   13.65   11.64   0
   1  -7  12   15.12   11.23   0
   2  -7  12    0.83   11.97   0
   2  -7  12    0.65   11.87   0
   2  -7  12   -0.00    7.49   0
   3  -7  12   17.51   12.96   0
   3  -7  12   14.57    8.38   0
   3  -7  12   17.31   13.75   0
   3   6 -12   -0.55    9.41   0
  -3  -6  12    1.44    9.64   0
   3   6 -12    6.61    6.79   0
  -2  -6  12    1.43   10.30   0
   2   6 -12    4.45    6.60   0
   2   6 -12    1.80   10.03   0
  -1  -6  12    3.74   12.78   0
   0  -6  12    2.25    7.03   0
   1  -6  12    2.99    7.52   0
   2  -6  12   -2.08    7.27   0
   3  -6  12   10.17    7.60   0
   4   5 -12    3.63    9.98   0
  -4  -5  12   18.62    9.95   0
   4   5 -12   22.44    7.88   0
  -3  -5  12    5.56   10.41   0
   3   5 -12   12.32    6.36   0
   3   5 -12    6.41   10.70   0
  -2  -5  12   -2.04    6.96   0
  -1  -5  12   37.34    7.67   0
   0  -5  12   -2.79    6.84   0
   1  -5  12    4.78    6.35   0
   2  -5  12    3.12    7.36   0
   3  -5  12    3.76    7.24   0
   5   4 -12   22.17   11.06   0
   5   4 -12   20.02    7.84   0
  -5  -4  12   22.74   10.97   0
   4   4 -12   18.28   11.36   0
  -3  -4  12    0.34    6.65   0
  -2  -4  12   13.82    6.09   0
  -1  -4  12    4.52    6.45   0
   0  -4  12  182.77    7.56   0
   1  -4  12    2.84    6.90   0
   2  -4  12    2.51    7.01   0
   3  -4  12   -3.29    8.31   0
   5   3 -12    6.59   11.42   0
  -4  -3  12   41.27    7.38   0
  -3  -3  12    4.49    6.89   0
  -2  -3  12    7.29    6.03   0
  -1  -3  12   10.59    6.14   0
   0  -3  12    2.71    6.35   0
   1  -3  12   -2.08    6.72   0
   2  -3  12    9.38    7.55   0
   3  -3  12    2.19    7.43   0
   6   2 -12    9.14   10.61   0
   5   2 -12    8.91   15.10   0
  -5  -2  12   16.24    7.31   0
   5   2 -12    8.82   15.07   0
  -4  -2  12   11.91    7.01   0
  -3  -2  12   -0.07    6.31   0
  -2  -2  12   12.14    6.30   0
  -1  -2  12   31.30    6.47   0
   0  -2  12    7.35    5.93   0
   1  -2  12   -7.40    6.91   0
   2  -2  12    1.59    7.22   0
  -6  -1  12   12.65    7.78   0
   6   1 -12   11.47   12.17   0
   6   1 -12    8.29   11.95   0
  -5  -1  12   46.22    7.36   0
  -4  -1  12   24.49    7.07   0
  -3  -1  12   22.49    6.66   0
  -2  -1  12    9.99    6.49   0
  -1  -1  12   -1.43    6.13   0
   0  -1  12   26.59    6.65   0
   1  -1  12    3.37    6.94   0
   2  -1  12   17.71    7.95   0
   6   0 -12    2.94   14.80   0
  -6   0  12    4.17    7.83   0
   6   0 -12    2.17   14.77   0
  -5   0  12    5.76    6.95   0
  -4   0  12    0.01    6.96   0
  -3   0  12    4.36    6.92   0
  -2   0  12    4.33    6.54   0
  -1   0  12    8.16    6.65   0
   0   0  12    8.65    6.17   0
   1   0  12    5.31    7.38   0
  -6   1  12    2.74    7.73   0
  -5   1  12    0.62    7.33   0
  -4   1  12   -0.12    7.03   0
  -3   1  12   10.33    7.01   0
  -2   1  12    2.82    7.12   0
  -1   1  12   59.65    7.64   0
   0   1  12    2.52    7.28   0
  -5   2  12    1.56    8.47   0
  -4   2  12   -4.02    7.56   0
  -3   2  12   -4.23    8.05   0
  -2   2  12   19.48    7.57   0
  -1  -6  13  109.55    9.20   0
   0  -6  13   22.15    8.37   0
   1  -6  13   -3.65    7.84   0
  -2  -5  13    3.22    6.69   0
  -1  -5  13    5.43    6.63   0
   0  -5  13    7.19    7.67   0
   1  -5  13    4.01    7.95   0
  -3  -4  13    6.97    7.28   0
  -2  -4  13    8.68    6.30   0
  -1  -4  13   -0.29    7.00   0
   0  -4  13   -5.16    7.52   0
   1  -4  13   11.10    7.86   0
  -4  -3  13   -0.52    7.76   0
  -3  -3  13   59.86    7.54   0
  -2  -3  13   27.64    6.43   0
  -1  -3  13   -6.93    6.58   0
   0  -3  13    2.01    7.48   0
   1  -3  13   25.86    8.06   0
  -4  -2  13   34.70    7.19   0
  -3  -2  13    0.97    6.57   0
  -2  -2  13   -0.25    7.06   0
  -1  -2  13   -2.66    6.15   0
   0  -2  13   -6.62    6.99   0
   1  -2  13    2.80    7.71   0
  -4  -1  13    2.74    7.43   0
  -3  -1  13   -3.13    7.57   0
  -2  -1  13    4.30    6.41   0
  -1  -1  13   -1.97    7.25   0
   0  -1  13    1.23    7.28   0
  -4   0  13   19.40    7.89   0
  -3   0  13    6.09    7.82   0
  -2   0  13    5.33    6.88   0
;
_shelx_hkl_checksum              14944
loop_
_space_group_symop_operation_xyz
'x, y, z'
'-x, -y, -z'
loop_
_atom_site_label
_atom_site_type_symbol
_atom_site_fract_x
_atom_site_fract_y
_atom_site_fract_z
_atom_site_U_iso_or_equiv
_atom_site_adp_type
_atom_site_occupancy
_atom_site_site_symmetry_order
_atom_site_calc_flag
_atom_site_refinement_flags_posn
_atom_site_refinement_flags_adp
Cl1 Cl 0.61938(10) 1.04098(9) 0.72759(8) 0.0395(2) Uani 1 1 d . .
N1 N 0.4345(3) 0.8013(3) 0.8373(2) 0.0297(4) Uani 1 1 d . .
N2 N 0.7731(3) 0.9585(3) 0.9327(3) 0.0372(5) Uani 1 1 d . .
N3 N 0.2496(3) 0.3621(3) 0.6749(2) 0.0336(5) Uani 1 1 d . .
O1 O 0.2602(2) 0.5936(2) 0.93462(19) 0.0342(4) Uani 1 1 d . .
C1 C 0.6081(4) 0.9190(3) 0.8465(3) 0.0327(5) Uani 1 1 d . .
C2 C 0.7598(4) 0.8680(4) 1.0279(3) 0.0387(6) Uani 1 1 d . .
H2 H 0.873882 0.890051 1.093746 0.046 Uiso 1 1 calc R U
C3 C 0.5899(4) 0.7456(4) 1.0346(3) 0.0354(6) Uani 1 1 d . .
H3 H 0.582655 0.686169 1.104561 0.043 Uiso 1 1 calc R U
C4 C 0.4294(3) 0.7145(3) 0.9322(3) 0.0305(5) Uani 1 1 d . .
C5 C 0.1023(3) 0.5261(3) 0.8150(3) 0.0311(5) Uani 1 1 d . .
C6 C -0.0465(4) 0.5673(4) 0.8324(3) 0.0358(6) Uani 1 1 d . .
H6 H -0.039374 0.648574 0.923158 0.043 Uiso 1 1 calc R U
C7 C -0.2122(4) 0.4891(4) 0.7154(3) 0.0384(6) Uani 1 1 d . .
H7 H -0.317457 0.516692 0.727542 0.046 Uiso 1 1 calc R U
C8 C -0.2215(4) 0.3743(4) 0.5855(3) 0.0350(6) Uani 1 1 d . .
H8 H -0.332106 0.325554 0.506431 0.042 Uiso 1 1 calc R U
C9 C -0.0700(3) 0.3261(3) 0.5656(3) 0.0313(5) Uani 1 1 d . .
C10 C 0.0966(3) 0.4027(3) 0.6829(3) 0.0304(5) Uani 1 1 d . .
C11 C -0.0719(4) 0.2064(4) 0.4340(3) 0.0345(5) Uani 1 1 d . .
H11 H -0.178730 0.153923 0.351285 0.041 Uiso 1 1 calc R U
C12 C 0.0812(4) 0.1666(4) 0.4266(3) 0.0382(6) Uani 1 1 d . .
H12 H 0.081966 0.085396 0.338970 0.046 Uiso 1 1 calc R U
C13 C 0.2371(4) 0.2473(4) 0.5499(3) 0.0367(6) Uani 1 1 d . .
H13 H 0.341629 0.216602 0.542646 0.044 Uiso 1 1 calc R U
loop_
_atom_site_aniso_label
_atom_site_aniso_U_11
_atom_site_aniso_U_22
_atom_site_aniso_U_33
_atom_site_aniso_U_23
_atom_site_aniso_U_13
_atom_site_aniso_U_12
Cl1 0.0426(4) 0.0399(3) 0.0445(4) 0.0197(3) 0.0198(3) 0.0202(3)
N1 0.0310(10) 0.0328(10) 0.0288(11) 0.0104(9) 0.0092(8) 0.0173(9)
N2 0.0325(11) 0.0407(12) 0.0385(13) 0.0092(10) 0.0101(9) 0.0191(10)
N3 0.0322(11) 0.0395(12) 0.0351(12) 0.0154(10) 0.0097(9) 0.0199(9)
O1 0.0347(9) 0.0405(10) 0.0305(10) 0.0154(8) 0.0099(7) 0.0169(8)
C1 0.0356(13) 0.0329(12) 0.0330(14) 0.0079(11) 0.0128(11) 0.0196(11)
C2 0.0338(13) 0.0445(14) 0.0363(15) 0.0066(12) 0.0043(11) 0.0227(12)
C3 0.0409(14) 0.0373(13) 0.0339(14) 0.0107(11) 0.0100(11) 0.0243(12)
C4 0.0346(13) 0.0320(12) 0.0297(13) 0.0085(10) 0.0112(10) 0.0201(10)
C5 0.0317(12) 0.0349(12) 0.0325(13) 0.0163(11) 0.0111(10) 0.0163(10)
C6 0.0365(14) 0.0378(13) 0.0395(15) 0.0161(12) 0.0155(12) 0.0187(11)
C7 0.0351(13) 0.0420(14) 0.0478(17) 0.0200(13) 0.0162(12) 0.0220(12)
C8 0.0282(12) 0.0383(13) 0.0417(16) 0.0187(12) 0.0081(11) 0.0150(11)
C9 0.0310(12) 0.0346(12) 0.0332(13) 0.0169(11) 0.0099(10) 0.0152(10)
C10 0.0314(12) 0.0339(12) 0.0346(13) 0.0187(11) 0.0125(10) 0.0171(10)
C11 0.0334(13) 0.0388(13) 0.0326(14) 0.0145(11) 0.0083(11) 0.0158(11)
C12 0.0419(15) 0.0417(14) 0.0346(15) 0.0129(12) 0.0129(12) 0.0211(12)
C13 0.0374(14) 0.0434(14) 0.0380(15) 0.0157(12) 0.0144(11) 0.0238(12)
loop_
_atom_type_symbol
_atom_type_description
_atom_type_scat_dispersion_real
_atom_type_scat_dispersion_imag
_atom_type_scat_source
C C 0.0033 0.0016 'International Tables Vol C Tables 4.2.6.8 and 6.1.1.4'
H H 0.0000 0.0000 'International Tables Vol C Tables 4.2.6.8 and 6.1.1.4'
N N 0.0061 0.0033 'International Tables Vol C Tables 4.2.6.8 and 6.1.1.4'
O O 0.0106 0.0060 'International Tables Vol C Tables 4.2.6.8 and 6.1.1.4'
Cl Cl 0.1484 0.1585 'International Tables Vol C Tables 4.2.6.8 and 6.1.1.4'
loop_
_geom_angle_atom_site_label_1
_geom_angle_atom_site_label_2
_geom_angle_atom_site_label_3
_geom_angle
C1 N1 C4 114.0(2)
C1 N2 C2 113.9(2)
C13 N3 C10 116.4(2)
C4 O1 C5 118.59(19)
N2 C1 N1 129.7(2)
N2 C1 Cl1 115.01(19)
N1 C1 Cl1 115.25(19)
N2 C2 C3 123.3(2)
N2 C2 H2 118.4
C3 C2 H2 118.4
C2 C3 C4 115.5(2)
C2 C3 H3 122.2
C4 C3 H3 122.2
N1 C4 O1 119.3(2)
N1 C4 C3 123.5(2)
O1 C4 C3 117.1(2)
C6 C5 O1 119.2(2)
C6 C5 C10 122.1(2)
O1 C5 C10 118.4(2)
C5 C6 C7 119.7(3)
C5 C6 H6 120.1
C7 C6 H6 120.1
C8 C7 C6 120.1(2)
C8 C7 H7 120.0
C6 C7 H7 120.0
C7 C8 C9 121.2(2)
C7 C8 H8 119.4
C9 C8 H8 119.4
C11 C9 C8 123.9(2)
C11 C9 C10 117.0(2)
C8 C9 C10 119.2(2)
N3 C10 C5 118.9(2)
N3 C10 C9 123.4(2)
C5 C10 C9 117.7(2)
C12 C11 C9 119.3(2)
C12 C11 H11 120.3
C9 C11 H11 120.3
C11 C12 C13 119.0(3)
C11 C12 H12 120.5
C13 C12 H12 120.5
N3 C13 C12 124.8(2)
N3 C13 H13 117.6
C12 C13 H13 117.6
loop_
_geom_bond_atom_site_label_1
_geom_bond_atom_site_label_2
_geom_bond_distance
Cl1 C1 1.738(3)
N1 C1 1.325(3)
N1 C4 1.326(3)
N2 C1 1.313(3)
N2 C2 1.347(3)
N3 C13 1.312(3)
N3 C10 1.367(3)
O1 C4 1.346(3)
O1 C5 1.399(3)
C2 C3 1.371(4)
C2 H2 0.9500
C3 C4 1.387(4)
C3 H3 0.9500
C5 C6 1.354(3)
C5 C10 1.415(4)
C6 C7 1.410(4)
C6 H6 0.9500
C7 C8 1.358(4)
C7 H7 0.9500
C8 C9 1.410(3)
C8 H8 0.9500
C9 C11 1.409(4)
C9 C10 1.418(4)
C11 C12 1.364(4)
C11 H11 0.9500
C12 C13 1.400(4)
C12 H12 0.9500
C13 H13 0.9500
loop_
_geom_hbond_atom_site_label_D
_geom_hbond_atom_site_label_H
_geom_hbond_atom_site_label_A
_geom_hbond_distance_DH
_geom_hbond_distance_HA
_geom_hbond_distance_DA
_geom_hbond_angle_DHA
_geom_hbond_site_symmetry_A
C2 H2 N2 0.95 2.68 3.328(3) 126.0 2_777
C3 H3 N3 0.95 2.58 3.437(3) 149.6 2_667
C12 H12 Cl1 0.95 2.99 3.669(3) 129.9 2_666
