#------------------------------------------------------------------------------
#$Date: 2019-11-11 17:11:30 +0200 (Mon, 11 Nov 2019) $
#$Revision: 226671 $
#$URL: file:///home/coder/svn-repositories/cod/cif/4/03/51/4035194.cif $
#------------------------------------------------------------------------------
#
# This file is available in the Crystallography Open Database (COD),
# http://www.crystallography.net/
#
# All data on this site have been placed in the public domain by the
# contributors.
#
data_4035194
loop_
_publ_author_name
'Liang, Deqiang'
'Dong, Qishan'
'Xu, Penghui'
'Dong, Ying'
'Li, Weili'
'Ma, Yinhai'
_publ_section_title
;
 Synthesis of CF<sub>3</sub>CH<sub>2</sub>-Containing Indolines by
 Transition-Metal-Free Aryltrifluoromethylation of Unactivated Alkenes.
;
_journal_issue                   19
_journal_name_full               'The Journal of organic chemistry'
_journal_page_first              11978
_journal_page_last               11986
_journal_paper_doi               10.1021/acs.joc.8b01861
_journal_volume                  83
_journal_year                    2018
_chemical_formula_moiety         'C17 H16 F3 N O2 S'
_chemical_formula_sum            'C17 H16 F3 N O2 S'
_chemical_formula_weight         355.37
_space_group_crystal_system      triclinic
_space_group_IT_number           2
_space_group_name_Hall           '-P 1'
_space_group_name_H-M_alt        'P -1'
_atom_sites_solution_hydrogens   geom
_atom_sites_solution_primary     iterative
_atom_sites_solution_secondary   difmap
_audit_creation_date             2018-09-05
_audit_creation_method
;
  Olex2 1.2
  (compiled Apr 23 2013 17:54:37, GUI svn.r4466)
;
_cell_angle_alpha                94.560(15)
_cell_angle_beta                 105.319(17)
_cell_angle_gamma                101.949(16)
_cell_formula_units_Z            2
_cell_length_a                   8.2932(16)
_cell_length_b                   9.6779(17)
_cell_length_c                   10.890(2)
_cell_measurement_reflns_used    1364
_cell_measurement_temperature    293(2)
_cell_measurement_theta_max      69.8270
_cell_measurement_theta_min      4.7250
_cell_volume                     816.3(3)
_computing_cell_refinement       'CrysAlisPro 1.171.38.41 (Rigaku OD, 2015)'
_computing_data_collection       'CrysAlisPro 1.171.38.41 (Rigaku OD, 2015)'
_computing_data_reduction        'CrysAlisPro 1.171.38.41 (Rigaku OD, 2015)'
_computing_molecular_graphics
;
O. V. Dolomanov, L. J. Bourhis, R. J. Gildea, J. A. K. Howard and H. Puschmann,
OLEX2: a complete structure solution, refinement and analysis program.
J. Appl. Cryst. (2009). 42, 339-341.
;
_computing_publication_material
;
O. V. Dolomanov, L. J. Bourhis, R. J. Gildea, J. A. K. Howard and H. Puschmann,
OLEX2: a complete structure solution, refinement and analysis program.
J. Appl. Cryst. (2009). 42, 339-341.
;
_computing_structure_refinement
;
SHELXL, G.M. Sheldrick, Acta Cryst.
(2008). A64, 112-122
;
_computing_structure_solution
'SUPERFLIP, J. Appl. Cryst. (2007) 40, 786-790'
_diffrn_ambient_temperature      293(2)
_diffrn_detector                 'CCD plate'
_diffrn_detector_area_resol_mean 16.0793
_diffrn_detector_type            Eos
_diffrn_measured_fraction_theta_full 0.9790
_diffrn_measured_fraction_theta_max 0.9508
_diffrn_measurement_details
;
List of Runs (angles in degrees, time in seconds):

  # Type    Start    End  Width  t~exp~   \w     \q     \k     \f   Frames
--------------------------------------------------------------------------
  1  \w     28.00  69.00   1.00    1.00    --    0.00  57.00 -60.00   41
  2  \w     46.00 117.00   1.00    2.48    --   54.00  57.00 -90.00   71
  3  \w    135.00 177.00   1.00    2.48    --  108.00  37.00   0.00   42
  4  \w    141.00 169.00   1.00    2.48    --  108.00  37.00  60.00   28
  5  \w    102.00 170.00   1.00    2.48    --  108.00  63.00 150.00   68
  6  \w     88.00 137.00   1.00    2.48    --  108.00  37.00  60.00   49
  7  \w     84.00 110.00   1.00    2.48    --  108.00  37.00   0.00   26
  8  \w    116.00 142.00   1.00    2.48    --  108.00 111.00 -90.00   26
  9  \w     75.00 140.00   1.00    2.48    --  108.00 -25.00-180.00   65
 10  \w     71.00 107.00   1.00    2.48    --  108.00-111.00   0.00   36
 11  \w     58.00 127.00   1.00    2.48    --  108.00 -50.00  60.00   69
 12  \w     51.00 138.00   1.00    2.48    --  108.00 -91.00  60.00   87
 13  \w     49.00 128.00   1.00    2.48    --  108.00 -37.00   0.00   79
 14  \w     46.00 113.00   1.00    2.48    --   54.00  57.00 150.00   67
 15  \w     40.00 112.00   1.00    2.48    --  108.00 -63.00 -60.00   72
 16  \w     45.00 110.00   1.00    2.48    --  108.00 -63.00-150.00   65
 17  \w     39.00 110.00   1.00    2.48    --   54.00-125.00-120.00   71
 18  \w     32.00  60.00   1.00    2.48    --   54.00 -37.00-120.00   28
 19  \w     35.00  68.00   1.00    2.48    --  108.00 -25.00-180.00   33
 20  \w     40.00 115.00   1.00    2.48    --   54.00  57.00-150.00   75
 21  \w     -2.00  46.00   1.00    2.48    --   54.00 -57.00 -30.00   48
 22  \w     36.00 111.00   1.00    2.48    --  108.00-111.00-120.00   75
 23  \w     -9.00  69.00   1.00    2.48    --   54.00 -77.00  60.00   78
 24  \w     -9.00  18.00   1.00    1.00    --    0.00 -57.00 150.00   27
 25  \w    -52.00 -27.00   1.00    1.00    --    0.00 -57.00 150.00   25
 26  \w    -16.00  22.00   1.00    1.00    --    0.00  57.00 -60.00   38
;
_diffrn_measurement_device       'four-circle diffractometer'
_diffrn_measurement_device_type  'SuperNova, Dual, Cu at zero, Eos'
_diffrn_measurement_method       '\w scans'
_diffrn_orient_matrix_type
'CrysAlisPro convention (1999,Acta A55,543-557)'
_diffrn_orient_matrix_UB_11      0.0790204000
_diffrn_orient_matrix_UB_12      -0.0936402000
_diffrn_orient_matrix_UB_13      0.0957575000
_diffrn_orient_matrix_UB_21      -0.1650370000
_diffrn_orient_matrix_UB_22      -0.0308373000
_diffrn_orient_matrix_UB_23      0.0429968000
_diffrn_orient_matrix_UB_31      -0.0763348000
_diffrn_orient_matrix_UB_32      -0.1315357000
_diffrn_orient_matrix_UB_33      -0.1045884000
_diffrn_radiation_monochromator  mirror
_diffrn_radiation_probe          x-ray
_diffrn_radiation_type           'Cu K\a'
_diffrn_radiation_wavelength     1.54184
_diffrn_reflns_av_R_equivalents  0.0405
_diffrn_reflns_av_unetI/netI     0.0536
_diffrn_reflns_limit_h_max       9
_diffrn_reflns_limit_h_min       -9
_diffrn_reflns_limit_k_max       10
_diffrn_reflns_limit_k_min       -11
_diffrn_reflns_limit_l_max       9
_diffrn_reflns_limit_l_min       -12
_diffrn_reflns_number            4456
_diffrn_reflns_theta_full        63.64
_diffrn_reflns_theta_max         63.64
_diffrn_reflns_theta_min         4.25
_diffrn_source                   'micro-focus sealed X-ray tube'
_diffrn_source_type              'SuperNova (Cu) X-ray Source'
_exptl_absorpt_coefficient_mu    2.152
_exptl_absorpt_correction_T_max  1.00000
_exptl_absorpt_correction_T_min  0.54475
_exptl_absorpt_correction_type   multi-scan
_exptl_absorpt_process_details
;
CrysAlisPro 1.171.38.41 (Rigaku Oxford Diffraction, 2015)
Empirical absorption correction using spherical harmonics,
 implemented in SCALE3 ABSPACK scaling algorithm.
;
_exptl_crystal_colour            colourless
_exptl_crystal_density_diffrn    1.446
_exptl_crystal_density_method    'not measured'
_exptl_crystal_description       plate
_exptl_crystal_F_000             368
_exptl_crystal_size_max          0.21
_exptl_crystal_size_mid          0.10
_exptl_crystal_size_min          0.02
_refine_diff_density_max         0.241
_refine_diff_density_min         -0.353
_refine_diff_density_rms         0.054
_refine_ls_extinction_method     none
_refine_ls_goodness_of_fit_ref   1.145
_refine_ls_hydrogen_treatment    mixed
_refine_ls_matrix_type           full
_refine_ls_number_parameters     218
_refine_ls_number_reflns         2590
_refine_ls_number_restraints     0
_refine_ls_restrained_S_all      1.145
_refine_ls_R_factor_all          0.0909
_refine_ls_R_factor_gt           0.0628
_refine_ls_shift/su_max          0.002
_refine_ls_shift/su_mean         0.000
_refine_ls_structure_factor_coef Fsqd
_refine_ls_weighting_details
'calc w=1/[\s^2^(Fo^2^)+(0.0557P)^2^+0.9348P] where P=(Fo^2^+2Fc^2^)/3'
_refine_ls_weighting_scheme      calc
_refine_ls_wR_factor_gt          0.1644
_refine_ls_wR_factor_ref         0.1787
_reflns_number_gt                1792
_reflns_number_total             2590
_reflns_threshold_expression     >2sigma(I)
_cod_data_source_file            jo8b01861_si_002.cif
_cod_data_source_block           exp_2846
_cod_original_cell_volume        816.4(3)
_cod_database_code               4035194
_reflns_odcompleteness_completeness 97.90
_reflns_odcompleteness_iscentric 1
_reflns_odcompleteness_theta     66.97
_olex2_refinement_description
;
1. Fixed Uiso
 At 1.2 times of:
  All C(H) groups, All C(H,H) groups
 At 1.5 times of:
  All C(H,H,H) groups
2.a Secondary CH2 refined with riding coordinates:
 C14(H14A,H14B), C16(H16A,H16B)
2.b Aromatic/amide H refined with riding coordinates:
 C1(H1), C2(H2), C3(H3), C4(H4), C5(H5), C8(H8), C9(H9), C10(H10), C11(H11)
2.c Idealised Me refined as rotating group:
 C15(H15A,H15B,H15C)
;
_oxdiff_exptl_absorpt_empirical_details
;
Empirical correction (ABSPACK) includes:
- Absorption correction using spherical harmonics
- Frame scaling
;
_oxdiff_exptl_absorpt_empirical_full_max 1.478
_oxdiff_exptl_absorpt_empirical_full_min 0.637
_shelx_res_file
;
TITL CF solution in P-1 
CELL 1.54184 8.2932 9.67787 10.89035 94.5602 105.3188 101.9492 
ZERR 2 0.00158 0.00168 0.0021 0.015 0.0172 0.0156 
LATT 1 
SFAC C  H  N  O  F  S  
UNIT 34 32 2 4 6 2 
omit     2   8   4 
omit     2   7   5 
omit     5   5   5 
omit     4   5   6 
omit     2   5   7 
omit    1  10   3 
omit     2   6   7 
omit    3   3   7 
omit     2   6   5 
omit     3   6   6 
omit     5   4   5 
omit     0   9   6 
omit     4   4   6 
omit     4   6   5 
omit    0   7   3 
omit   -9   1   0 
omit   8   2   1 
omit   2   5   1 
omit   1  10   1 
omit   7   3   2 
omit   0   7   2 
omit   3   7   2 
omit   2   8   2 
omit   2   9   2 
omit   8  -6   3 
omit   6   4   3 
omit   3   6   3 
omit   2   7   3 
omit   0   8   3 
omit   2   8   3 
omit   6   2   4 
omit   6   3   4 
omit   6   4   4 
omit   3   5   4 
omit   0   6   4 
omit   2   6   4 
omit   2   7   4 
omit  -2   8   4 
omit   0   8   4 
omit   6   1   5 
omit   4   2   5 
omit   5   3   5 
omit  -3   6   5 
omit  -4   7   5 
omit  -1   8   5 
omit   0   8   5 
omit   4   1   6 
omit   5   1   6 
omit   4   2   6 
omit   5   2   6 
omit   5   3   6 
omit   2   5   6 
omit  -3   6   6 
omit  -2   6   6 
omit   1   6   6 
omit  -3   8   6 
omit  -2   8   6 
omit      2   7   6 
omit     1   9   4 
omit    -1   7   4 
omit     5   6   4 
omit     2   4   7 
omit     3   4   7 
omit     3   2   7 
omit     1   8   5 
omit     2   1  11 
omit     3   5   7 
omit     4   3   6 
omit     0   7   7 
L.S. 4
ACTA
BOND $H 
FMAP 2
PLAN 25
htab 2 
conf 
shel 999 0.86 
WGHT  0.053600  0.957400 
FVAR 10.210160
C1     1   0.063992  0.239961  1.005657 11.000000  0.081480  0.070420 = 
           0.067560  0.012220  0.031800  0.024100
AFIX 43
H1     2  -0.004739  0.150556  1.004709 11.000000 -1.200000
AFIX 0
C2     1   0.187245  0.308258  1.115931 11.000000  0.106720  0.104680 = 
           0.067610  0.014970  0.029790  0.040120
AFIX 43
H2     2   0.203315  0.264941  1.190035 11.000000 -1.200000
AFIX 0
C3     1   0.286939  0.440390  1.117190 11.000000  0.083790  0.111350 = 
           0.071730 -0.013520  0.010000  0.034970
AFIX 43
H3     2   0.370580  0.486419  1.192447 11.000000 -1.200000
AFIX 0
C4     1   0.264842  0.505889  1.008415 11.000000  0.087920  0.065200 = 
           0.095890 -0.012590  0.015630  0.007170
AFIX 43
H4     2   0.332457  0.596107  1.010444 11.000000 -1.200000
AFIX 0
C5     1   0.141865  0.437205  0.896130 11.000000  0.076550  0.055270 = 
           0.074870  0.005860  0.022700  0.017950
AFIX 43
H5     2   0.126642  0.480083  0.821778 11.000000 -1.200000
AFIX 0
C6     1   0.042131  0.304276  0.895929 11.000000  0.050850  0.054070 = 
           0.056600  0.003040  0.020350  0.022600
C7     1   0.122153  0.216524  0.612066 11.000000  0.042000  0.038620 = 
           0.043910 -0.004560  0.011560  0.005350
C8     1   0.100965  0.326277  0.540270 11.000000  0.058360  0.044440 = 
           0.059240  0.005820  0.014600  0.015460
AFIX 43
H8     2   0.004385  0.363727  0.530117 11.000000 -1.200000
AFIX 0
C9     1   0.228237  0.378817  0.483838 11.000000  0.079610  0.046630 = 
           0.065650  0.008710  0.024780  0.010520
AFIX 43
H9     2   0.218401  0.454008  0.436422 11.000000 -1.200000
AFIX 0
C10    1   0.368792  0.320932  0.497242 11.000000  0.074370  0.055250 = 
           0.080890  0.011540  0.039530  0.005380
AFIX 43
H10    2   0.451468  0.355972  0.456887 11.000000 -1.200000
AFIX 0
C11    1   0.389348  0.211632  0.569611 11.000000  0.048480  0.056350 = 
           0.076230  0.004660  0.026070  0.009530
AFIX 43
H11    2   0.485785  0.174095  0.579096 11.000000 -1.200000
AFIX 0
C12    1   0.264723  0.158706  0.627793 11.000000  0.039470  0.043930 = 
           0.048710 -0.003020  0.010750  0.006280
C13    1   0.261902  0.046969  0.717463 11.000000  0.042570  0.044030 = 
           0.049680  0.002610  0.011530  0.015420
C14    1   0.070014  0.012163  0.715803 11.000000  0.048770  0.039940 = 
           0.056760  0.004010  0.016030  0.010600
AFIX 23
H14A   2   0.006447 -0.074694  0.657664 11.000000 -1.200000
H14B   2   0.059421  0.000459  0.801183 11.000000 -1.200000
AFIX 0
C15    1   0.378684  0.114225  0.852792 11.000000  0.054030  0.060440 = 
           0.055140 -0.009650  0.003040  0.014570
AFIX 137
H15A   2   0.496497  0.137051  0.851565 11.000000 -1.500000
H15B   2   0.364888  0.047893  0.912394 11.000000 -1.500000
H15C   2   0.347551  0.199708  0.878878 11.000000 -1.500000
AFIX 0
C16    1   0.315116 -0.083021  0.664804 11.000000  0.053010  0.051760 = 
           0.055800  0.003570  0.015930  0.019160
AFIX 23
H16A   2   0.237681 -0.119613  0.579388 11.000000 -1.200000
H16B   2   0.429609 -0.050821  0.655668 11.000000 -1.200000
AFIX 0
C17    1   0.316422 -0.202895  0.741919 11.000000  0.077190  0.058050 = 
           0.062060  0.000940  0.014490  0.032340
F1     5   0.174768 -0.239995  0.779680 11.000000  0.118150  0.084980 = 
           0.145290  0.059520  0.076850  0.050850
F2     5   0.447502 -0.178063  0.847741 11.000000  0.132180  0.095430 = 
           0.083000  0.014240 -0.021530  0.050750
F3     5   0.326052 -0.321939  0.676454 11.000000  0.129570  0.057870 = 
           0.104200  0.002970  0.035810  0.044540
N1     3   0.004586  0.137544  0.670273 11.000000  0.041660  0.040100 = 
           0.058110  0.003000  0.017430  0.012900
O1     4  -0.171526  0.313090  0.674943 11.000000  0.055690  0.077020 = 
           0.075900  0.016910  0.014840  0.039190
O2     4  -0.220962  0.095992  0.779809 11.000000  0.048500  0.072620 = 
           0.106360  0.010390  0.039830  0.003110
S1     6  -0.105484  0.211966  0.750828 11.000000  0.043310  0.058920 = 
           0.072950  0.006790  0.023540  0.018150
Q1     1   0.321800 -0.178400  0.865500 11.000000  0.050000      0.24
Q2     1  -0.074300  0.148100  0.823600 11.000000  0.050000      0.22
Q3     1   0.310500 -0.054200  0.905600 11.000000  0.050000      0.19
Q4     1   0.170700  0.027900  0.711100 11.000000  0.050000      0.18
Q5     1   0.123700  0.185700  0.886100 11.000000  0.050000      0.18
Q6     1   0.369700 -0.289100  0.597100 11.000000  0.050000      0.18
Q7     1  -0.125400  0.104100  0.904100 11.000000  0.050000      0.17
Q8     1   0.376400  0.003500  1.038700 11.000000  0.050000      0.17
Q9     1   0.603900  0.478000  0.220300 11.000000  0.050000      0.17
Q10    1   0.201600  0.195400  0.626100 11.000000  0.050000      0.17
Q11    1  -0.169000  0.001500  0.830100 11.000000  0.050000      0.16
Q12    1   0.408600  0.311400  0.778700 11.000000  0.050000      0.16
Q13    1   0.303100  0.728300  0.999600 11.000000  0.050000      0.16
Q14    1   0.322600  0.459300  0.818700 11.000000  0.050000      0.16
Q15    1   0.062600  0.313800  0.707400 11.000000  0.050000      0.16
Q16    1  -0.088100  0.275500  0.881300 11.000000  0.050000      0.16
Q17    1   0.343900 -0.094800  0.976200 11.000000  0.050000      0.16
Q18    1   0.030600  0.307900  0.939500 11.000000  0.050000      0.16
Q19    1   0.287400  0.097800  0.682300 11.000000  0.050000      0.15
Q20    1   0.363200  0.310400  0.365700 11.000000  0.050000      0.15
Q21    1  -0.182800  0.135600  1.014100 11.000000  0.050000      0.15
Q22    1   0.233400 -0.306000  0.882900 11.000000  0.050000      0.15
Q23    1   0.404800  0.616200  0.971200 11.000000  0.050000      0.15
Q24    1   0.303300 -0.097700  0.545300 11.000000  0.050000      0.15
Q25    1   0.024700  0.101800  0.978700 11.000000  0.050000      0.14
HKLF 4 
END  
;
loop_
_space_group_symop_id
_space_group_symop_operation_xyz
1 'x, y, z'
2 '-x, -y, -z'
loop_
_atom_site_label
_atom_site_type_symbol
_atom_site_fract_x
_atom_site_fract_y
_atom_site_fract_z
_atom_site_U_iso_or_equiv
_atom_site_adp_type
_atom_site_occupancy
_atom_site_symmetry_multiplicity
_atom_site_calc_flag
_atom_site_refinement_flags_posn
C1 C 0.0640(7) 0.2400(6) 1.0057(5) 0.0701(15) Uani 1 1 d .
H1 H -0.0047 0.1506 1.0047 0.084 Uiso 1 1 calc R
C2 C 0.1872(9) 0.3083(8) 1.1159(6) 0.0896(19) Uani 1 1 d .
H2 H 0.2033 0.2649 1.1900 0.108 Uiso 1 1 calc R
C3 C 0.2869(9) 0.4404(8) 1.1172(6) 0.091(2) Uani 1 1 d .
H3 H 0.3706 0.4864 1.1924 0.109 Uiso 1 1 calc R
C4 C 0.2648(8) 0.5059(7) 1.0084(7) 0.0882(18) Uani 1 1 d .
H4 H 0.3325 0.5961 1.0104 0.106 Uiso 1 1 calc R
C5 C 0.1419(7) 0.4372(5) 0.8961(6) 0.0686(14) Uani 1 1 d .
H5 H 0.1266 0.4801 0.8218 0.082 Uiso 1 1 calc R
C6 C 0.0421(6) 0.3043(5) 0.8959(4) 0.0516(11) Uani 1 1 d .
C7 C 0.1222(5) 0.2165(4) 0.6121(4) 0.0429(10) Uani 1 1 d .
C8 C 0.1010(6) 0.3263(5) 0.5403(4) 0.0541(12) Uani 1 1 d .
H8 H 0.0044 0.3637 0.5301 0.065 Uiso 1 1 calc R
C9 C 0.2282(7) 0.3788(5) 0.4838(5) 0.0638(13) Uani 1 1 d .
H9 H 0.2184 0.4540 0.4364 0.077 Uiso 1 1 calc R
C10 C 0.3688(7) 0.3209(5) 0.4972(5) 0.0682(14) Uani 1 1 d .
H10 H 0.4515 0.3560 0.4569 0.082 Uiso 1 1 calc R
C11 C 0.3893(6) 0.2116(5) 0.5696(5) 0.0595(13) Uani 1 1 d .
H11 H 0.4858 0.1741 0.5791 0.071 Uiso 1 1 calc R
C12 C 0.2647(5) 0.1587(4) 0.6278(4) 0.0455(10) Uani 1 1 d .
C13 C 0.2619(5) 0.0470(4) 0.7175(4) 0.0452(10) Uani 1 1 d .
C14 C 0.0700(5) 0.0122(4) 0.7158(4) 0.0485(11) Uani 1 1 d .
H14A H 0.0064 -0.0747 0.6577 0.058 Uiso 1 1 calc R
H14B H 0.0594 0.0005 0.8012 0.058 Uiso 1 1 calc R
C15 C 0.3787(6) 0.1142(5) 0.8528(4) 0.0599(13) Uani 1 1 d .
H15A H 0.4965 0.1371 0.8516 0.090 Uiso 1 1 calc GR
H15B H 0.3649 0.0479 0.9124 0.090 Uiso 1 1 calc GR
H15C H 0.3476 0.1997 0.8789 0.090 Uiso 1 1 calc GR
C16 C 0.3151(6) -0.0830(5) 0.6648(4) 0.0527(11) Uani 1 1 d .
H16A H 0.2377 -0.1196 0.5794 0.063 Uiso 1 1 calc R
H16B H 0.4296 -0.0508 0.6557 0.063 Uiso 1 1 calc R
C17 C 0.3164(7) -0.2029(5) 0.7419(5) 0.0648(14) Uani 1 1 d .
F1 F 0.1748(5) -0.2400(4) 0.7797(4) 0.1019(12) Uani 1 1 d .
F2 F 0.4475(5) -0.1781(4) 0.8477(3) 0.1102(13) Uani 1 1 d .
F3 F 0.3261(5) -0.3219(3) 0.6765(3) 0.0939(11) Uani 1 1 d .
N1 N 0.0046(4) 0.1375(4) 0.6703(3) 0.0458(9) Uani 1 1 d .
O1 O -0.1715(4) 0.3131(4) 0.6749(3) 0.0664(10) Uani 1 1 d .
O2 O -0.2210(4) 0.0960(4) 0.7798(4) 0.0742(11) Uani 1 1 d .
S1 S -0.10548(14) 0.21197(13) 0.75083(12) 0.0563(4) Uani 1 1 d .
loop_
_atom_site_aniso_label
_atom_site_aniso_U_11
_atom_site_aniso_U_22
_atom_site_aniso_U_33
_atom_site_aniso_U_23
_atom_site_aniso_U_13
_atom_site_aniso_U_12
C1 0.081(4) 0.070(4) 0.068(4) 0.012(3) 0.032(3) 0.024(3)
C2 0.107(5) 0.105(5) 0.068(4) 0.015(4) 0.030(4) 0.040(4)
C3 0.084(4) 0.111(6) 0.072(4) -0.014(4) 0.010(4) 0.035(4)
C4 0.088(4) 0.065(4) 0.096(5) -0.013(4) 0.016(4) 0.007(3)
C5 0.077(4) 0.055(3) 0.075(4) 0.006(3) 0.023(3) 0.018(3)
C6 0.051(3) 0.054(3) 0.057(3) 0.003(2) 0.020(2) 0.023(2)
C7 0.042(2) 0.039(2) 0.044(2) -0.005(2) 0.0116(19) 0.0054(18)
C8 0.058(3) 0.044(3) 0.059(3) 0.006(2) 0.015(2) 0.015(2)
C9 0.080(4) 0.047(3) 0.066(3) 0.009(3) 0.025(3) 0.011(3)
C10 0.074(4) 0.055(3) 0.081(4) 0.012(3) 0.040(3) 0.005(3)
C11 0.048(3) 0.056(3) 0.076(3) 0.005(3) 0.026(2) 0.010(2)
C12 0.039(2) 0.044(2) 0.049(3) -0.003(2) 0.011(2) 0.0063(19)
C13 0.043(2) 0.044(2) 0.050(3) 0.003(2) 0.012(2) 0.015(2)
C14 0.049(2) 0.040(2) 0.057(3) 0.004(2) 0.016(2) 0.011(2)
C15 0.054(3) 0.060(3) 0.055(3) -0.010(3) 0.003(2) 0.015(2)
C16 0.053(3) 0.052(3) 0.056(3) 0.004(2) 0.016(2) 0.019(2)
C17 0.077(4) 0.058(3) 0.062(3) 0.001(3) 0.014(3) 0.032(3)
F1 0.118(3) 0.085(2) 0.145(3) 0.060(2) 0.077(3) 0.051(2)
F2 0.132(3) 0.095(3) 0.083(2) 0.014(2) -0.022(2) 0.051(2)
F3 0.130(3) 0.0579(19) 0.104(3) 0.0030(18) 0.036(2) 0.045(2)
N1 0.0417(19) 0.040(2) 0.058(2) 0.0030(18) 0.0174(17) 0.0129(16)
O1 0.0557(19) 0.077(2) 0.076(2) 0.0169(19) 0.0148(17) 0.0392(18)
O2 0.0485(19) 0.073(2) 0.106(3) 0.010(2) 0.040(2) 0.0031(17)
S1 0.0433(6) 0.0589(7) 0.0729(8) 0.0068(6) 0.0235(6) 0.0182(5)
loop_
_atom_type_symbol
_atom_type_description
_atom_type_scat_dispersion_real
_atom_type_scat_dispersion_imag
_atom_type_scat_source
C C 0.0181 0.0091 'International Tables Vol C Tables 4.2.6.8 and 6.1.1.4'
H H 0.0000 0.0000 'International Tables Vol C Tables 4.2.6.8 and 6.1.1.4'
N N 0.0311 0.0180 'International Tables Vol C Tables 4.2.6.8 and 6.1.1.4'
O O 0.0492 0.0322 'International Tables Vol C Tables 4.2.6.8 and 6.1.1.4'
F F 0.0727 0.0534 'International Tables Vol C Tables 4.2.6.8 and 6.1.1.4'
S S 0.3331 0.5567 'International Tables Vol C Tables 4.2.6.8 and 6.1.1.4'
loop_
_geom_angle_atom_site_label_1
_geom_angle_atom_site_label_2
_geom_angle_atom_site_label_3
_geom_angle
C2 C1 H1 120.2
C2 C1 C6 119.7(6)
C6 C1 H1 120.2
C1 C2 H2 120.0
C1 C2 C3 120.0(6)
C3 C2 H2 120.0
C2 C3 H3 119.6
C2 C3 C4 120.7(6)
C4 C3 H3 119.6
C3 C4 H4 120.1
C3 C4 C5 119.8(6)
C5 C4 H4 120.1
C4 C5 H5 120.5
C6 C5 C4 119.0(5)
C6 C5 H5 120.5
C1 C6 S1 119.9(4)
C5 C6 C1 120.8(5)
C5 C6 S1 119.1(4)
C8 C7 C12 122.0(4)
C8 C7 N1 128.4(4)
C12 C7 N1 109.4(4)
C7 C8 H8 121.1
C7 C8 C9 117.9(4)
C9 C8 H8 121.1
C8 C9 H9 119.7
C10 C9 C8 120.7(5)
C10 C9 H9 119.7
C9 C10 H10 119.5
C9 C10 C11 121.1(5)
C11 C10 H10 119.5
C10 C11 H11 120.4
C10 C11 C12 119.1(4)
C12 C11 H11 120.4
C7 C12 C13 111.2(4)
C11 C12 C7 119.3(4)
C11 C12 C13 129.4(4)
C12 C13 C14 101.3(3)
C12 C13 C15 109.3(4)
C12 C13 C16 110.5(3)
C15 C13 C14 110.6(4)
C16 C13 C14 112.4(3)
C16 C13 C15 112.2(3)
C13 C14 H14A 110.7
C13 C14 H14B 110.7
H14A C14 H14B 108.8
N1 C14 C13 105.1(3)
N1 C14 H14A 110.7
N1 C14 H14B 110.7
C13 C15 H15A 109.5
C13 C15 H15B 109.5
C13 C15 H15C 109.5
H15A C15 H15B 109.5
H15A C15 H15C 109.5
H15B C15 H15C 109.5
C13 C16 H16A 108.1
C13 C16 H16B 108.1
H16A C16 H16B 107.3
C17 C16 C13 116.8(4)
C17 C16 H16A 108.1
C17 C16 H16B 108.1
F1 C17 C16 113.5(4)
F2 C17 C16 114.2(5)
F2 C17 F1 105.9(5)
F2 C17 F3 105.0(4)
F3 C17 C16 112.4(4)
F3 C17 F1 105.0(4)
C7 N1 C14 108.6(3)
C7 N1 S1 123.4(3)
C14 N1 S1 119.0(3)
N1 S1 C6 106.91(19)
O1 S1 C6 108.9(2)
O1 S1 N1 106.06(19)
O2 S1 C6 108.5(2)
O2 S1 N1 105.5(2)
O2 S1 O1 120.2(2)
loop_
_geom_bond_atom_site_label_1
_geom_bond_atom_site_label_2
_geom_bond_distance
C1 H1 0.9300
C1 C2 1.367(8)
C1 C6 1.378(7)
C2 H2 0.9300
C2 C3 1.368(9)
C3 H3 0.9300
C3 C4 1.375(9)
C4 H4 0.9300
C4 C5 1.381(8)
C5 H5 0.9300
C5 C6 1.377(7)
C6 S1 1.759(5)
C7 C8 1.381(6)
C7 C12 1.387(6)
C7 N1 1.425(5)
C8 H8 0.9300
C8 C9 1.386(6)
C9 H9 0.9300
C9 C10 1.374(7)
C10 H10 0.9300
C10 C11 1.380(7)
C11 H11 0.9300
C11 C12 1.382(6)
C12 C13 1.514(6)
C13 C14 1.552(6)
C13 C15 1.538(6)
C13 C16 1.535(6)
C14 H14A 0.9700
C14 H14B 0.9700
C14 N1 1.496(5)
C15 H15A 0.9600
C15 H15B 0.9600
C15 H15C 0.9600
C16 H16A 0.9700
C16 H16B 0.9700
C16 C17 1.485(6)
C17 F1 1.335(6)
C17 F2 1.324(6)
C17 F3 1.334(5)
N1 S1 1.648(3)
O1 S1 1.433(3)
O2 S1 1.431(3)
loop_
_geom_torsion_atom_site_label_1
_geom_torsion_atom_site_label_2
_geom_torsion_atom_site_label_3
_geom_torsion_atom_site_label_4
_geom_torsion
C1 C2 C3 C4 0.0(10)
C1 C6 S1 N1 -95.5(4)
C1 C6 S1 O1 150.3(4)
C1 C6 S1 O2 17.9(4)
C2 C1 C6 C5 -0.6(7)
C2 C1 C6 S1 175.5(4)
C2 C3 C4 C5 -0.6(9)
C3 C4 C5 C6 0.7(8)
C4 C5 C6 C1 -0.1(7)
C4 C5 C6 S1 -176.2(4)
C5 C6 S1 N1 80.6(4)
C5 C6 S1 O1 -33.6(4)
C5 C6 S1 O2 -166.0(4)
C6 C1 C2 C3 0.6(9)
C7 C8 C9 C10 1.3(8)
C7 C12 C13 C14 18.1(5)
C7 C12 C13 C15 -98.7(4)
C7 C12 C13 C16 137.4(4)
C7 N1 S1 C6 -71.1(4)
C7 N1 S1 O1 45.0(4)
C7 N1 S1 O2 173.5(3)
C8 C7 C12 C11 -0.3(7)
C8 C7 C12 C13 176.3(4)
C8 C7 N1 C14 169.2(4)
C8 C7 N1 S1 -44.3(6)
C8 C9 C10 C11 -1.6(8)
C9 C10 C11 C12 0.9(8)
C10 C11 C12 C7 0.0(7)
C10 C11 C12 C13 -175.9(5)
C11 C12 C13 C14 -165.7(5)
C11 C12 C13 C15 77.5(6)
C11 C12 C13 C16 -46.4(6)
C12 C7 C8 C9 -0.4(7)
C12 C7 N1 C14 -5.5(5)
C12 C7 N1 S1 141.0(3)
C12 C13 C14 N1 -20.1(4)
C12 C13 C16 C17 -179.3(4)
C13 C14 N1 C7 16.6(4)
C13 C14 N1 S1 -131.6(3)
C13 C16 C17 F1 47.0(6)
C13 C16 C17 F2 -74.5(6)
C13 C16 C17 F3 166.0(4)
C14 C13 C16 C17 -66.9(5)
C14 N1 S1 C6 72.2(3)
C14 N1 S1 O1 -171.6(3)
C14 N1 S1 O2 -43.1(4)
C15 C13 C14 N1 95.6(4)
C15 C13 C16 C17 58.5(5)
C16 C13 C14 N1 -138.1(4)
N1 C7 C8 C9 -174.5(4)
N1 C7 C12 C11 174.8(4)
N1 C7 C12 C13 -8.6(5)
loop_
_refln_index_h
_refln_index_k
_refln_index_l
_refln_F_squared_meas
_refln_F_squared_sigma
_refln_scale_group_code
0 0 1 13014.6 604.293 24
0 0 2 259933 3785.89 24
0 0 3 722.299 343.598 24
0 0 4 8191.83 585.374 20
0 0 4 7686.26 404.1 14
0 0 5 46865.1 1589.81 20
0 0 6 5644.55 641.571 20
0 0 7 4676.69 638.165 20
0 0 8 29044.7 1686.2 20
0 0 -8 26731 1769.01 17
0 0 -9 5887.39 884.415 17
0 0 9 5021.03 790.563 20
0 0 -9 4023.62 1115.59 12
0 0 -9 5062.65 879.947 22
0 0 -10 -50.3573 304.615 22
0 0 -10 3144.34 1244.19 12
0 0 -11 342.347 313.507 22
0 0 -11 16471 1726.02 12
0 0 -12 473.616 281.533 22
0 1 -12 62.5294 222.844 22
0 1 -11 255.62 317.032 22
0 1 -10 1487.51 574.663 11
0 1 -10 836.161 441.548 22
0 1 -9 3625.33 949.148 12
0 1 -9 6749.48 988.416 17
0 -1 9 4847.6 846.614 20
0 1 -9 6336.82 954.629 11
0 -1 8 -135.789 358.547 20
0 -1 7 24975 1439.03 20
0 -1 6 2849.49 480.827 20
0 -1 5 446.46 177.792 14
0 -1 5 555.497 240.189 20
0 -1 4 34.0129 95.5078 14
0 -1 4 84.7406 153.91 20
0 -1 3 6159.1 386.548 14
0 1 -3 5704.71 711.267 24
0 1 -2 104675 2281.53 24
0 1 -1 179734 2088.26 24
0 1 0 59112 661.558 1
0 1 1 18471.6 771.212 24
0 1 1 17793.2 641.383 26
0 1 2 997298 7856.17 24
0 1 2 999999 6612.44 26
0 1 3 67104.8 2537.42 24
0 1 3 66579 2121.97 26
0 -1 -3 67219.5 1523.42 17
0 -1 -4 561.016 227.185 17
0 -1 -5 48553.4 1757.76 17
0 -1 -6 37.4532 227.414 17
0 1 6 154.392 221.574 20
0 1 7 6268.29 755.891 20
0 -1 -7 5436.04 759.539 17
0 -1 -8 2197.15 925.054 12
0 -1 -8 987.594 425.993 17
0 -1 -8 1075.33 453.331 22
0 1 8 1398.13 438.113 20
0 -1 -9 1404.29 505.923 22
0 -1 -9 831.11 411.444 17
0 -1 -10 3442.82 745.558 22
0 -1 -10 3697.3 1236.98 12
0 -1 -11 14721 1565.79 12
0 -1 -11 253.859 250.651 22
0 -1 -12 -47.1071 250.059 22
0 2 -12 229.029 234.119 22
0 2 -11 82.0095 293.002 22
0 2 -10 2051.11 622.545 11
0 2 -9 4210.54 822.699 3
0 2 -9 4501.99 822.158 11
0 -2 9 3678.89 740.946 20
0 -2 8 10136.6 1039.55 20
0 -2 7 8621.4 873.091 20
0 -2 6 949.929 329.681 20
0 -2 5 14702 908.949 20
0 -2 5 13022.2 823.576 14
0 -2 4 4481.52 454.91 14
0 -2 4 4363.99 460.826 20
0 -2 4 4700.52 381.74 21
0 -2 3 34902.3 1157.38 20
0 2 -3 37896.6 1681.01 24
0 -2 3 38126.7 1246.95 14
0 -2 3 37421.6 1022.42 21
0 -2 2 98959.3 1600.76 20
0 2 -2 96838.5 2122.22 24
0 -2 2 94898.3 1638.51 21
0 2 -1 17888.2 639.384 24
0 -2 0 568715 2954.38 26
0 2 1 394390 3386.69 26
0 2 1 393651 3852.25 24
0 2 2 442.634 168.401 26
0 -2 -2 478.766 170.544 23
0 2 2 428.503 226.357 24
0 -2 -3 599.309 196.341 17
0 2 3 706.583 263.385 26
0 2 3 746.308 357.361 24
0 -2 -3 748.966 222.658 23
0 -2 -4 4426.25 528.957 17
0 -2 -5 1239.68 368.107 17
0 -2 -6 9363.32 921.042 17
0 2 6 9417.45 868.604 20
0 -2 -7 662.943 320.805 17
0 -2 -8 4708.66 776.694 17
0 -2 -8 4488.85 826.513 22
0 -2 -9 -1201.8 999.527 12
0 -2 -9 337.782 368.662 22
0 -2 -10 1414.37 546.594 22
0 -2 -10 429.781 917.613 12
0 -2 -11 12073.4 1340.46 12
0 -2 -11 68.0814 283.518 22
0 -2 -12 1707.22 391.088 22
0 3 -12 1443.81 373.967 22
0 3 -11 122.372 240.807 3
0 3 -10 4872.2 825.726 3
0 3 -10 3882.28 766.48 11
0 -3 9 2462.74 663.999 20
0 3 -9 2354.67 629.129 3
0 3 -9 2066.5 619.981 11
0 -3 8 15029 1314.35 20
0 3 -8 15655.5 1385.99 11
0 3 -8 16652.2 1507.71 3
0 -3 7 5332.2 781.476 20
0 -3 6 4399.6 622.377 20
0 -3 5 121746 2643.49 20
0 -3 4 10331.7 1295.9 25
0 -3 4 8596.7 682.82 20
0 -3 4 10210.3 670.807 21
0 -3 3 55309.3 1502.07 20
0 -3 3 56215.8 1525.65 21
0 -3 2 18751.7 994.891 25
0 3 -2 20532.4 965.834 24
0 -3 2 20547.1 914.52 21
0 -3 2 19333.6 793.352 20
0 -3 1 211916 2402.81 1
0 3 -1 215377 2049.5 24
0 -3 1 210299 2241.82 20
0 -3 0 23163 798.054 17
0 -3 0 24610.2 820.922 23
0 -3 0 23888.4 687.622 26
0 3 0 19247.5 480.62 24
0 -3 0 23774.8 990.633 21
0 3 0 20159.2 505.54 25
0 3 1 26263.4 1019.93 24
0 -3 -1 24696.1 862.089 23
0 3 1 25767.4 885.764 1
0 -3 -1 24877.1 906.41 17
0 -3 -1 25571 1002.7 21
0 3 2 175384 3624.61 24
0 -3 -2 166534 2391.34 21
0 -3 -2 167232 2524.19 23
0 3 2 168881 3032.17 26
0 -3 -2 170017 2615.55 17
0 -3 -3 13384.4 852.139 17
0 3 3 12628.8 1009 26
0 -3 -3 13495 820.682 23
0 -3 -4 2208.97 406.907 23
0 -3 -4 2997.61 473.063 17
0 -3 -5 121653 3101.89 17
0 -3 -6 7247.22 852.7 17
0 -3 -7 50.5588 284.613 22
0 -3 -7 -175.301 358.373 17
0 -3 -8 4132.31 809.029 22
0 -3 -8 2827.92 659.91 17
0 -3 -9 27.7006 366.081 22
0 -3 -9 -761.374 918.523 12
0 -3 -10 2064.51 598.293 22
0 -3 -11 -93.5691 265.57 22
0 4 -12 -76.2031 206.343 22
0 4 -11 369.832 277.141 3
0 4 -10 1755.14 573.323 3
0 4 -9 -164.25 396.164 11
0 4 -9 72.8972 271.882 3
0 4 -8 429.266 342.772 11
0 -4 8 715.25 513.441 20
0 -4 7 573.853 449.573 20
0 -4 6 8699.63 880.625 20
0 -4 5 15649.5 1042.93 20
0 -4 4 102361 2412.02 20
0 -4 4 100300 2382.56 21
0 -4 3 27021.8 1240.09 21
0 -4 3 25821.1 1129.25 20
0 -4 2 162439 3022.66 21
0 -4 2 160744 2487.64 20
0 -4 1 59281.3 1827.74 21
0 -4 1 59007 1364.68 20
0 -4 0 8213.44 579.726 23
0 -4 0 7801.75 681.808 21
0 -4 0 8182.38 616.058 17
0 -4 -1 22637 997.842 17
0 -4 -1 25152.9 1217.25 21
0 -4 -1 23298.4 996.287 23
0 -4 -2 21270.2 1059.28 21
0 -4 -2 20971.2 1032.88 17
0 -4 -2 20456 1014.37 23
0 -4 -3 2858.63 426.195 23
0 -4 -3 2629.01 446.596 17
0 -4 -4 14130.2 1042 17
0 -4 -4 12499.2 956.439 23
0 -4 -5 10526.6 998.361 17
0 -4 -6 59904.8 2530.06 17
0 -4 -7 16191.4 1485.58 22
0 -4 -7 15342.2 1367.33 17
0 -4 -8 5810.5 942.252 22
0 -4 -9 235.094 379.97 22
0 -4 -10 131.927 335.067 22
0 5 -12 62.7663 154.81 22
0 5 -11 303.715 261.457 3
0 5 -10 -256.588 316.017 3
0 5 -9 7105.42 1046.92 3
0 -5 8 -29.1217 533.342 20
0 -5 7 12179.8 1132.42 20
0 5 -7 12994.5 1265.61 11
0 -5 7 13304.2 1207.59 5
0 -5 6 11579.1 1083.86 20
0 -5 5 1293.98 350.562 21
0 -5 5 1322.37 478.878 20
0 -5 4 16662 1073.47 20
0 -5 4 15033.6 1053.74 21
0 -5 3 3474.23 485.543 20
0 -5 3 3424.66 521.673 21
0 -5 2 28391.8 1468.4 21
0 -5 1 1023.51 286.179 23
0 -5 1 728.856 331.381 21
0 -5 0 42.8163 194.655 21
0 -5 0 57.3317 149.219 23
0 -5 -1 506.951 215.781 23
0 -5 -1 364.288 271.185 21
0 -5 -2 1398.5 375.837 21
0 -5 -2 2319.47 533.183 17
0 -5 -2 1743.42 366.551 23
0 -5 -3 14372.9 1047.5 17
0 -5 -4 18848 1272.41 17
0 -5 -5 19656.2 1406.32 17
0 -5 -6 44624.9 2233.13 17
0 -5 -6 45121.5 2436.98 22
0 -5 -7 419.547 414.595 22
0 -5 -7 2414.57 553.378 10
0 -5 -8 13799.7 1399.91 22
0 -5 -9 8932.31 1068.01 22
0 6 -11 91.9503 184.422 3
0 6 -10 480.037 332.537 3
0 6 -9 1495.69 527.224 3
0 -6 8 7028.36 889.035 5
0 -6 7 18845.8 1398.92 20
0 -6 7 17560 1532.37 5
0 -6 6 10360.8 1117.93 5
0 -6 6 9843.17 982.853 20
0 -6 5 57482.7 2271.45 21
0 -6 4 3932.89 620.307 21
0 -6 3 16486.1 1230.55 21
0 -6 2 21502.4 1315.54 23
0 -6 2 24583 1514.11 21
0 -6 1 19480.9 1207.33 23
0 -6 1 21161.6 1450.15 21
0 -6 0 12386.4 951.313 23
0 -6 0 13454.8 1181.16 21
0 -6 -1 3494.47 619.677 21
0 -6 -2 12427.4 1203.78 17
0 -6 -3 8670.47 996.635 17
0 -6 -4 43.8193 411.677 10
0 -6 -4 4374.4 839.267 17
0 -6 -5 1948.55 569.762 10
0 -6 -5 4310.4 858.056 17
0 -6 -6 2838.79 628.857 10
0 -6 -7 5785.69 802.238 10
0 7 -11 261.428 198.141 3
0 7 -10 1915.06 492.58 3
0 7 -9 40.7533 311.317 3
0 -7 8 301.279 259.36 5
0 -7 7 -132.988 237.237 5
0 -7 6 4697.39 777.062 5
0 -7 5 32468.1 2028.9 5
0 -7 5 30211.6 1758.39 21
0 -7 4 38328.3 2015.62 21
0 -7 4 36794 2070.34 23
0 -7 4 41937.2 2340.95 5
0 -7 3 432.894 362.421 21
0 -7 3 260.341 241.357 23
0 -7 2 16984.2 1401.31 21
0 -7 1 1637.38 515.69 21
0 -7 0 15937.3 1418.72 21
0 -7 -2 3905.05 1449.49 22
0 -7 -2 408.569 327.189 15
0 -7 -3 20869.9 1627.8 17
0 -7 -4 14500.6 1498.09 10
0 -7 -4 11304.2 1743.1 22
0 -7 -5 -939.663 490.486 10
0 -7 -6 1333.43 504.142 10
0 -7 -7 11063.1 958.064 10
0 8 -10 36.0396 190.624 3
0 8 -9 549.873 346.895 3
0 -8 8 62.4381 190.363 5
0 8 -8 -158.572 300.71 3
0 -8 7 2763.66 578.366 5
0 -8 6 1346.2 477.606 5
0 -8 5 24845.4 1833.43 5
0 -8 4 785.663 374.754 15
0 -8 4 586.752 372.798 5
0 -8 3 -515.253 375.947 5
0 -8 3 -84.4799 268.484 21
0 -8 3 -38.6406 262.692 15
0 -8 2 4744.4 820.089 21
0 -8 2 4238.76 850.524 5
0 -8 2 6144.41 904.064 15
0 -8 1 2098.87 574.469 15
0 -8 1 1371.21 551.634 5
0 -8 0 9288.25 1140.66 5
0 -8 0 10699.2 1227.07 15
0 -8 -1 188.064 306.389 15
0 -8 -1 -1307.66 565.08 10
0 -8 -2 -954.303 561.147 10
0 -8 -2 -57.2528 297.666 15
0 -8 -3 6185.05 1937.24 22
0 -8 -3 -4.66998 527.473 10
0 -8 -4 34918.9 2595.48 22
0 -8 -4 13576.4 1411.02 10
0 -8 -5 11696.5 1864.35 22
0 -8 -5 -401.027 398.302 10
0 -8 -6 6397.4 1782.44 22
0 -8 -6 7022.81 853.268 10
0 -8 -7 26185.2 1182.84 10
0 -8 -7 18590.3 1687.62 22
0 9 -9 337.232 199.288 3
0 -9 8 -336.778 211.2 5
0 9 -8 80.9433 187.35 6
0 9 -8 103.722 229.687 3
0 -9 7 692.699 332.383 5
0 9 -7 628.313 350.922 3
0 -9 6 312.566 269.675 5
0 -9 5 3940.5 738 5
0 -9 5 3492.25 584.719 15
0 -9 4 -105.574 275.236 15
0 -9 4 -164.624 277.064 5
0 -9 3 88.4879 241.371 15
0 -9 3 251.361 342.71 5
0 -9 2 335.094 325.861 15
0 -9 2 269.923 340.937 5
0 -9 1 455.189 359.679 15
0 -9 0 16804.6 1398.4 10
0 -9 0 16748.5 1489.33 15
0 -9 -1 39.7465 239.054 15
0 -9 -1 -315.99 427.777 10
0 -9 -2 6517.54 928.549 15
0 -9 -2 5870.28 925.118 10
0 -9 -3 -221.791 430.456 10
0 -9 -4 3762.58 704.95 10
0 -9 -5 8582.34 885.309 10
0 -9 -6 21509.2 1077.04 10
0 -10 7 -7.95621 151.325 5
0 10 -7 16.2164 187.525 6
0 -10 6 55.3425 175.242 5
0 -10 5 777.403 335.811 5
0 -10 5 554.429 222.67 15
0 -10 4 507.695 253.254 15
0 -10 4 523.606 293.05 5
0 -10 3 249.235 238.416 15
0 -10 2 172.535 273.037 15
0 -10 1 3513.24 638.721 15
0 -10 0 4108.65 689.955 15
0 -10 -1 4152.1 663.74 15
0 -10 -1 2956.21 546.803 10
0 -10 -2 1099.66 351.454 15
0 -10 -2 1274.9 408.666 10
0 -10 -3 2478.55 495.477 10
0 -10 -4 8893.66 759.891 10
0 11 -5 -25.5174 164.193 6
0 -11 4 393.562 183.958 15
0 -11 3 35.0664 157.107 15
0 -11 2 144.402 209.552 15
0 -11 1 171.978 226.04 15
0 -11 0 2257.57 412.817 15
0 -11 -1 2512.33 396.473 15
1 -11 -3 2737.11 402.424 10
1 -11 -2 425.317 231.295 10
1 -11 -2 112.342 172.752 15
1 -11 -1 777.074 294.963 15
1 -11 -1 475.361 228.976 10
1 -11 0 2019.91 435.092 15
1 -11 1 2396.42 457.907 15
1 -11 2 1262.85 360.345 15
1 -11 3 192.918 162.873 15
1 -11 4 -129.056 159.832 15
1 -10 -5 4642.61 575.044 10
1 -10 -4 63.8697 284.176 10
1 -10 -3 2158.57 467.224 15
1 -10 -3 1624.37 551.188 10
1 -10 -2 736.645 348.547 15
1 -10 -2 39.2009 381.855 10
1 -10 -1 8358.68 981.335 10
1 -10 -1 7569.69 945.114 15
1 -10 0 -573.503 403.485 10
1 -10 0 -101.168 279.423 15
1 -10 1 4263.8 751.801 15
1 -10 2 1376.18 472.077 5
1 -10 2 2140.45 553.377 15
1 -10 3 942.272 386.718 5
1 -10 3 943.104 369.948 15
1 -10 4 2008.3 506.589 5
1 -10 4 1916.92 429.297 15
1 -10 5 3686.68 633.693 5
1 -10 6 115.032 217.861 5
-1 10 -7 1165.42 300.847 3
1 -10 7 2081.63 416.718 5
1 -9 -6 2692.44 517.896 10
1 -9 -5 -386.88 408.091 10
1 -9 -4 3292.79 719.449 10
1 -9 -3 536.64 398.817 15
1 -9 -3 -620.64 658.911 10
1 -9 -2 17782.1 1635.94 10
1 -9 -2 18114.6 1602.64 15
1 -9 -1 3015.19 727.501 15
1 -9 0 21499.7 1739.08 15
1 -9 1 298.019 328.48 15
1 -9 1 566.26 354.014 5
1 -9 2 6754.77 1040.12 5
1 -9 2 7209.46 1013.41 15
1 -9 3 9900.66 1128.73 15
1 -9 3 9421.6 1187.95 5
1 -9 4 512.238 366.962 5
1 -9 4 941.229 402.98 15
1 -9 5 -38.0251 281.143 5
1 -9 6 290.959 263.148 5
1 -9 7 -135.847 234.529 5
-1 9 -8 90.6964 203.268 3
1 -9 8 -87.2607 159.243 5
-1 9 -9 -74.1678 169.394 3
1 -8 -8 8602.73 1310.97 22
1 -8 -7 13227.5 1683.1 22
1 -8 -7 4776.02 640.367 10
1 -8 -6 -92.8511 361.755 10
1 -8 -6 5231.84 1791.81 22
1 -8 -5 11472.9 2039.87 22
1 -8 -5 1626.04 624.437 10
1 -8 -4 17748.7 2268.74 22
1 -8 -4 10091.1 1308.31 10
1 -8 -3 26858.6 2006.07 15
1 -8 -3 31833.2 2673.79 22
1 -8 -2 24327.6 1890.87 15
1 -8 -1 3109.67 703.842 21
1 -8 -1 3639.45 767.872 15
1 -8 0 24678.6 1848.21 21
1 -8 0 23950.7 1795.69 15
1 -8 1 -51.674 373.423 21
1 -8 1 254.191 336.823 15
1 -8 1 -56.2577 221.19 5
1 -8 2 25903.9 1814.46 15
1 -8 2 24621.9 1915.18 5
1 -8 2 25020.1 1771.86 21
1 -8 3 162.172 290.212 15
1 -8 3 -3.80888 254.967 5
1 -8 3 -84.099 223.476 21
1 -8 4 3540.72 691.316 21
1 -8 4 4367.97 822.128 5
1 -8 4 3641.83 689.128 15
1 -8 5 2458.42 638.788 5
1 -8 6 4851.25 817.184 5
1 -8 7 5144.8 809.993 5
1 -8 8 118.604 237.307 5
-1 8 -9 443.13 314.323 3
1 -8 9 392.432 261.609 5
-1 8 -10 46.1511 142.925 3
1 -7 -9 2155.11 1078.95 22
1 -7 -7 864.512 401.764 10
1 -7 -6 3995.24 813.265 10
1 -7 -5 -132.742 2042.76 22
1 -7 -5 10345.4 1257.21 10
1 -7 -4 26901.1 1788 17
1 -7 -3 1099.23 427.579 15
1 -7 -2 685.08 349.263 21
1 -7 -1 10897.2 1162.08 21
1 -7 0 2278.44 561.291 21
1 -7 1 13298.2 1231.29 21
1 -7 2 665.889 378.491 21
1 -7 3 3555.44 648.247 21
1 -7 4 1598.73 530.553 5
1 -7 4 1651.3 465.196 21
-1 7 -4 1793.97 554.006 7
1 -7 5 -302.476 314.019 5
1 -7 5 80.596 262.893 21
1 -7 6 505.228 374.603 5
1 -7 7 3809.1 722.256 5
1 -7 8 1964.21 543.696 5
-1 7 -9 707.027 366.5 3
1 -7 9 701.531 297.677 5
-1 7 -10 435.146 282.301 3
1 -6 -7 1244.99 445.786 10
1 -6 -6 5977.48 970.16 17
1 -6 -6 4087.17 785.074 10
1 -6 -5 2270.05 732.07 17
1 -6 -4 7018.32 1011.69 17
1 -6 -3 12718.3 1115.04 17
1 -6 -2 29627.1 1524.85 17
1 -6 -2 16605.7 1274.12 21
1 -6 -1 26838.2 1616.18 21
1 -6 0 5926.28 766.715 21
1 -6 1 50627.9 2134.35 21
1 -6 2 27.9141 205.158 21
1 -6 3 74050 2541.78 21
1 -6 4 196.939 244.288 21
1 -6 5 15459.9 1196.43 21
1 -6 6 1163.2 447.045 5
1 -6 7 5890.89 949.292 5
1 -6 8 18879.3 1507.98 5
-1 6 -9 2498.54 605.102 3
-1 6 -10 987.871 383.615 3
-1 6 -11 99.5583 180.243 3
1 -5 -9 582.154 449.069 22
1 -5 -8 73.7913 341.813 22
1 -5 -7 423.319 349.97 17
1 -5 -7 -215.771 390.629 22
1 -5 -6 2848.04 638.115 10
1 -5 -6 4415.7 741.224 17
1 -5 -6 3135.81 697.158 22
1 -5 -5 1151.4 444.097 17
1 -5 -4 4137.48 661.928 17
1 -5 -3 10068.7 873.842 17
1 -5 -2 14501.1 955.144 17
1 -5 -2 12198.7 972.941 21
1 -5 -1 6410.77 711.282 17
1 -5 -1 2653.88 499.328 21
1 -5 0 2384.25 481.602 21
1 -5 1 29955.7 1500.38 21
1 -5 2 20391.2 1197.88 21
1 -5 3 42163 1743.43 21
1 -5 4 67.1291 168.978 21
1 -5 4 194.191 325.307 20
1 -5 5 9890.98 907.839 20
1 -5 6 1013.89 499.838 20
1 -5 7 14797.6 1276.25 20
-1 5 -7 14525.5 1460.97 11
1 -5 7 17724.3 1484.42 5
1 -5 8 632.571 589.024 20
-1 5 -8 329.44 362.037 11
-1 5 -9 6436.29 931.636 3
-1 5 -9 4809.41 900.128 11
-1 5 -10 1356.43 457.977 3
-1 5 -11 272.231 208.448 3
1 -4 -11 533.221 330.124 22
1 -4 -10 -672.58 377.538 22
1 -4 -9 8075.68 1064.91 22
1 -4 -8 7320.74 959.904 17
1 -4 -8 7139.96 1018.54 22
1 -4 -7 42806.4 2201.63 17
1 -4 -7 44379.1 2333.76 22
1 -4 -6 25398.7 1596.55 17
1 -4 -5 5569.83 735.374 17
1 -4 -4 187494 3624.31 17
1 -4 -3 3211.92 462.251 17
1 -4 -2 104890 2184.44 17
1 -4 -2 106740 2472.81 21
1 -4 -2 103446 1920.54 18
1 -4 -1 5307.53 597.669 26
-1 4 1 6236.68 591.647 1
1 -4 -1 6033.11 621.395 21
1 -4 -1 6672.19 550.175 17
1 -4 -1 5973.79 476.515 18
-1 4 0 19542.4 1073.05 25
1 -4 0 18149.9 1020.14 21
1 -4 0 16881.2 703.131 23
1 -4 1 174546 3402.62 1
1 -4 1 178867 3079.58 21
1 -4 2 4791.56 522.527 21
1 -4 2 5034.51 457.433 20
1 -4 2 4288.99 599.163 1
1 -4 3 229685 3296.4 20
1 -4 3 229826 3524.58 21
1 -4 4 39834.7 1506.61 21
1 -4 4 38773.3 1484.84 20
1 -4 5 9876.63 835.886 20
1 -4 6 9087.14 898.866 20
1 -4 7 -188.176 501.56 20
-1 4 -8 34601.5 2144.34 11
1 -4 8 29451.6 1922.19 20
-1 4 -9 2989.06 649.115 3
-1 4 -9 1896.73 672.379 11
-1 4 -10 1007.76 511.422 11
-1 4 -10 2554.32 596.915 3
-1 4 -12 95.2778 167.224 22
1 -3 -12 944.409 325.515 22
1 -3 -11 1393.36 446.77 22
1 -3 -10 -559.829 416.385 22
1 -3 -9 4055.27 756.341 22
1 -3 -8 -457.306 365.102 17
1 -3 -8 -27.1019 318.121 22
1 -3 -7 31174.9 1812.83 17
1 -3 -6 306.364 292.061 17
1 -3 -5 125829 3031.79 17
1 -3 -4 15009.5 951.17 17
1 -3 -3 2093.73 343.316 17
-1 3 3 2042.74 484.185 24
1 -3 -2 28059.9 1408.41 26
-1 3 2 30505 1431.91 1
1 -3 -2 29832.9 1085.36 21
1 -3 -2 28762.5 1026.33 17
1 -3 -2 28436 908.387 18
1 -3 -1 13581.1 633.062 17
1 -3 -1 13866.3 780.539 21
1 -3 -1 13347.2 888.422 26
-1 3 1 13666.3 830.484 1
1 -3 -1 14201.7 631.62 18
1 -3 0 159531 2108.02 18
1 -3 0 155784 2852.47 1
1 -3 1 46796.6 1620.05 1
-1 3 -1 51627.5 1952.8 25
1 -3 1 49223.1 1431.75 14
1 -3 2 21689.5 974.521 14
1 -3 2 21621.9 833.198 20
1 -3 3 356695 6744.5 25
1 -3 3 351369 3810.72 20
-1 3 -3 347896 5957.06 24
1 -3 3 348138 4071.05 14
1 -3 4 172.164 210.967 20
1 -3 4 396.467 188.704 21
1 -3 4 333.835 222.736 14
1 -3 5 193.279 186.199 14
1 -3 5 165.911 226.581 20
1 -3 6 6293.91 717.836 14
1 -3 6 6031.08 727.806 20
1 -3 7 4842.23 724.236 20
1 -3 8 1902.72 629.373 20
-1 3 -8 2100.97 625.967 12
-1 3 -9 185.724 271.784 3
-1 3 -9 179.945 424.429 11
-1 3 -10 1816.19 618.669 11
-1 3 -11 -158.178 258.509 22
-1 3 -12 564.234 244.414 22
1 -2 -12 2497.25 498.66 22
1 -2 -11 -513.78 421.358 22
1 -2 -10 711.014 381.157 22
1 -2 -9 4492.46 812.176 22
1 -2 -9 4377.84 747.185 17
1 -2 -8 20555.5 1573.39 22
1 -2 -8 18190.8 1436.78 17
1 -2 -7 7032.04 835.739 17
1 -2 -6 94784.9 2699.39 17
-1 2 5 1185.62 264.201 20
1 -2 -5 1437.47 355.456 17
-1 2 4 198093 2620.31 20
1 -2 -4 197516 3090.15 17
1 -2 -3 48385.6 1311.5 17
-1 2 3 44403.5 1838.93 26
1 -2 -2 8810.58 499.853 17
1 -2 -2 9190.08 746.5 26
1 -2 -1 5057.17 332.737 17
1 -2 -1 4395.24 474.591 26
-1 2 1 4895.11 500.143 1
1 -2 0 288951 3363.04 1
-1 2 -1 138416 3029.16 25
1 -2 2 1228.07 216.541 20
1 -2 2 1568.51 457.805 25
-1 2 -3 138713 3757.53 24
1 -2 3 139254 2188.24 14
1 -2 3 138415 2296.04 20
1 -2 4 12729.2 730.675 14
1 -2 4 13450.1 830.527 20
1 -2 5 810.287 239.166 14
1 -2 5 990.636 320.239 20
1 -2 6 -157.662 241.163 20
1 -2 6 -38.212 156.067 14
1 -2 7 12837.1 1139.96 20
1 -2 8 25020.7 1653.1 20
-1 2 -8 27108.8 1912.72 11
1 -2 9 10407.7 1186.55 20
-1 2 -9 12293.7 1364.77 11
-1 2 -9 8477.83 1174.75 12
-1 2 -10 44.3957 292.011 22
-1 2 -10 255.361 479.393 11
-1 2 -11 209.791 271.126 22
-1 2 -11 -314.883 387.161 11
-1 2 -12 10.4915 179.189 22
1 -1 -12 3149.22 593.13 22
1 -1 -12 1772.03 384.526 16
1 -1 -11 5.28292 311.992 22
1 -1 -10 6062.8 931.207 22
1 -1 -9 870.33 416.402 22
1 -1 -9 907.515 380.085 17
1 -1 -8 1686.15 501.082 17
-1 1 8 2297.62 507.644 20
1 -1 -7 1739.94 457.954 17
-1 1 7 1237.5 349.466 20
1 -1 -6 1662.88 403.433 17
-1 1 6 1897.73 380.618 20
-1 1 5 2826.84 396.668 20
1 -1 -5 2699.81 417.733 17
-1 1 4 1819.42 493.358 24
-1 1 4 1696.86 275.877 20
1 -1 -4 1616.17 301.588 17
-1 1 3 79424 1386.03 20
1 -1 -3 77954.5 1524.32 17
1 -1 -2 395494 4468.15 26
1 -1 -1 4462.88 426.91 26
1 -1 0 12353.5 617.802 1
1 -1 1 259919 3813.41 25
1 -1 2 317153 5602.33 25
1 -1 2 334200 2666.3 14
-1 1 -3 33942.1 1904.17 24
1 -1 3 28296.2 891.75 14
1 -1 4 11567.9 643.094 14
1 -1 5 5696.69 516.216 14
1 -1 5 6696.11 683.242 20
1 -1 6 -48.531 237.293 20
1 -1 7 2672.4 573.239 20
-1 1 -8 12217.2 1302.99 11
1 -1 8 14596.2 1262.45 20
1 -1 9 5915.79 849.222 20
-1 1 -9 4318.66 1063.36 12
-1 1 -9 6432.87 1034.08 11
-1 1 -9 5363.69 922.365 22
-1 1 -9 5566.64 914.046 17
-1 1 -10 4032.63 785.538 11
-1 1 -10 2624.25 657.14 22
-1 1 -11 3187.59 607.883 22
-1 1 -11 2397.04 577.573 11
-1 1 -12 473.759 249.542 22
1 0 -13 677.173 246.124 22
1 0 -12 20.0065 226.755 22
1 0 -11 428.117 310.973 22
1 0 -10 3467.85 727.463 22
1 0 -10 8025.82 1414.82 12
-1 0 9 11346.7 1066.78 20
1 0 -9 9833.4 1099.69 17
1 0 -9 10016.4 1173.35 22
-1 0 8 -31.2734 239.676 20
1 0 -8 132.342 285.393 17
-1 0 7 7046.69 761.594 20
-1 0 6 17927.5 1035.78 20
-1 0 5 11705.2 747.491 20
-1 0 4 33625.5 1873.74 24
-1 0 4 35080.1 1138.06 20
-1 0 4 35573.4 1779.6 26
-1 0 3 19787.6 738.86 20
1 0 -2 16923.1 857.588 26
1 0 -1 91758.9 1613.2 26
1 0 0 246780 2368.34 1
1 0 1 162405 2941.57 25
1 0 2 223001 4475.79 25
1 0 3 148723 2036.66 14
-1 0 -3 159695 4233.1 24
1 0 4 68227.8 1499.34 14
1 0 5 24865 993.909 14
1 0 6 27442.1 1536.07 20
-1 0 -7 603.732 382.028 17
1 0 7 788.48 362.26 20
-1 0 -8 12678.7 1289.1 17
1 0 8 12540.7 1174.08 20
-1 0 -8 12791.2 1343.3 22
-1 0 -8 13652.4 1524.79 12
-1 0 -8 10312.9 1160.91 11
-1 0 -9 1101.6 489.333 11
-1 0 -9 250.315 331.203 22
-1 0 -10 -154.12 309.544 22
-1 0 -10 796.646 1131.8 12
-1 0 -11 869.389 385.757 22
-1 0 -11 16473.6 1744.21 12
-1 0 -12 -220.68 221.136 22
1 1 -13 736.59 272.089 22
1 1 -12 3572.92 615.447 22
1 1 -11 313.032 316.526 22
1 1 -10 282.484 363.799 11
1 1 -10 529.289 417.69 22
-1 -1 9 1868.04 512.438 20
1 1 -9 1126.48 477.445 11
1 1 -9 1217.3 375.564 3
1 1 -9 1431.73 507.944 17
-1 -1 8 2937.62 562.879 20
-1 -1 7 3341.28 520.122 20
-1 -1 6 20362 1120.21 20
-1 -1 5 32347.4 1283.57 20
-1 -1 4 50348.4 2241.39 24
-1 -1 4 51038.2 2130.35 26
-1 -1 4 51082.8 1434.74 20
-1 -1 3 180089 3290.49 26
-1 -1 3 185111 3572.12 24
-1 -1 2 484534 4215.13 26
1 1 -1 674514 3529.13 26
1 1 0 4941.87 282.099 1
-1 -1 0 6096.05 453.346 25
1 1 1 550490 5234.6 25
1 1 2 973614 8988.23 25
-1 -1 -2 965400 5381.77 17
-1 -1 -3 176694 2864.4 23
-1 -1 -3 178110 2723.79 17
-1 -1 -3 172647 4543.5 24
-1 -1 -4 320768 4350.55 17
1 1 4 332646 3468.46 14
-1 -1 -5 2277.83 486.105 17
-1 -1 -6 27200.9 1649.3 17
-1 -1 -7 3826.99 700.079 17
1 1 7 3299.89 612.293 20
-1 -1 -8 1175.42 474.667 17
1 1 8 532.393 343.062 20
-1 -1 -8 452.956 390.227 22
-1 -1 -9 6453.58 1036.61 22
-1 -1 -9 6139.89 1288.63 12
-1 -1 -10 1840.81 579.631 22
-1 -1 -10 623.778 1041.26 12
-1 -1 -11 -92.1357 304.575 22
-1 -1 -11 16149.1 1555.37 12
1 2 -13 2586.81 409.119 22
1 2 -12 86.1091 226.75 22
1 2 -11 928.948 380.644 3
1 2 -11 1097.43 444.18 22
1 2 -10 -201.356 285.757 3
1 2 -9 2491.66 656.385 3
-1 -2 9 3196.45 647.071 20
1 2 -9 1621.25 512.544 11
-1 -2 8 2723.84 602.518 20
-1 -2 7 174.391 268.57 20
-1 -2 6 504.041 298.814 20
-1 -2 5 12852.5 869.23 20
-1 -2 4 32648 1226.9 20
-1 -2 4 32016.5 1842.6 24
-1 -2 4 30330.3 1628.28 26
-1 -2 3 35379.5 1438.81 26
-1 -2 3 37938.3 1649.85 24
-1 -2 3 35352.1 1191.15 20
-1 -2 3 39266 1105.63 21
-1 -2 2 18502.5 885.373 24
-1 -2 2 18209.1 777.901 26
-1 -2 2 18452.1 746.202 21
-1 -2 1 19302.7 523.975 24
-1 -2 1 19152.6 698.808 20
-1 -2 0 1983.25 194.538 24
-1 -2 0 1830.69 218.829 17
-1 -2 -1 758.583 213.687 17
-1 -2 -1 836.734 214.309 23
-1 -2 -1 790.384 231.144 24
1 2 1 924.874 233.184 25
-1 -2 -2 2779.66 369.232 23
-1 -2 -2 2937.92 349.075 17
-1 -2 -3 536139 5013.26 17
-1 -2 -3 539522 5283.5 23
-1 -2 -4 57122.1 1878.59 17
-1 -2 -4 54794.3 1934.66 23
-1 -2 -5 10340.4 923.282 17
-1 -2 -6 520.408 335.132 17
-1 -2 -7 1405.9 496.395 22
-1 -2 -7 1146.55 441.06 17
1 2 7 659.478 348.887 20
-1 -2 -8 -20.2715 285.553 17
-1 -2 -8 281.965 379.93 22
-1 -2 -9 1284.63 1042.79 12
-1 -2 -9 504.411 409.212 22
-1 -2 -10 -199.871 378.847 22
-1 -2 -10 -1948.83 1013.6 12
-1 -2 -11 13741.2 1307.98 12
-1 -2 -11 1880.2 446.136 22
1 3 -13 57.0798 148.731 22
1 3 -12 3191.18 563.237 22
1 3 -12 3298.38 533.981 3
1 3 -11 190.626 277.51 3
1 3 -10 110.251 278.986 3
1 3 -9 9090.2 1200.95 3
-1 -3 9 7464.97 990.937 20
1 3 -8 2399.84 603.669 11
-1 -3 8 3965.72 718.636 20
1 3 -8 3057.31 697.141 3
-1 -3 7 289.239 364.004 20
-1 -3 6 9703.47 877.366 20
-1 -3 5 108.58 273.499 20
-1 -3 4 130432 2664.52 20
-1 -3 4 129702 2512.9 21
-1 -3 3 2191.84 356.166 20
-1 -3 3 1768.18 317.61 21
-1 -3 2 89029.4 1431.82 26
-1 -3 2 92665.6 1624.43 25
-1 -3 2 97677 1919.01 20
-1 -3 2 94100.7 2071.92 21
-1 -3 1 16614.7 821.682 23
-1 -3 1 15448 832.804 21
-1 -3 0 15219.6 786.872 23
-1 -3 0 13200.6 767.122 21
-1 -3 0 13199.4 636.238 17
-1 -3 -1 220.047 160.389 17
-1 -3 -1 320.796 191.814 23
-1 -3 -2 37519.4 1421.49 23
-1 -3 -2 37570.4 1354.42 17
-1 -3 -3 37419.2 1510.02 17
-1 -3 -3 36934.3 1528.77 23
-1 -3 -4 6286.15 722.428 23
-1 -3 -4 6440.15 704.087 17
-1 -3 -5 29145.9 1623.85 17
-1 -3 -6 826.356 378.655 17
-1 -3 -7 13250.9 1315.67 17
-1 -3 -7 13303.7 1361.51 22
-1 -3 -8 7001.23 1047.49 22
-1 -3 -8 22724.9 2013.1 12
-1 -3 -9 173.499 337.231 22
-1 -3 -9 1800.56 1108.69 12
-1 -3 -10 1232.64 456.613 22
-1 -3 -10 -1369.99 953.687 12
-1 -3 -11 10600.7 994.687 12
-1 -3 -11 1221.59 362.22 22
1 4 -12 170.799 205.205 3
1 4 -12 131.333 215.482 22
1 4 -11 3602.49 678.868 3
1 4 -10 889.448 479.765 3
-1 -4 9 16986.5 1343.31 20
1 4 -9 14048.9 1472.1 3
1 4 -8 6538.73 994.576 3
-1 -4 8 4433.83 754.952 20
-1 -4 7 15486.5 1216.69 20
-1 -4 6 4823.23 694.29 20
-1 -4 5 777.108 360.38 20
-1 -4 4 14105.5 961.99 21
-1 -4 4 14041.3 956.509 20
-1 -4 3 28179.2 1331.37 21
-1 -4 3 27143.2 1260.22 20
-1 -4 2 1169.07 266.46 20
-1 -4 2 1247.03 338.491 21
-1 -4 1 3299.39 443.781 23
-1 -4 1 2479.17 445.916 21
-1 -4 0 63530.5 1859.69 23
-1 -4 0 67143.9 1990.29 21
-1 -4 -1 1123.31 288.471 17
-1 -4 -1 1405.66 329.058 23
-1 -4 -2 38263.4 1605.73 23
-1 -4 -2 36119.6 1433.35 17
-1 -4 -3 23774.8 1293.27 17
-1 -4 -3 22951.3 1333.52 23
-1 -4 -4 27845.7 1579.58 23
-1 -4 -4 30626.6 1613.37 17
-1 -4 -5 10767.7 1066.06 17
-1 -4 -6 75.1727 283.682 17
-1 -4 -6 -1063.33 478.91 22
-1 -4 -7 3567.57 724.433 17
-1 -4 -7 18227.3 1869.3 12
-1 -4 -7 16761.6 1206.64 10
-1 -4 -7 2700.43 688.529 22
-1 -4 -8 -28.0581 343.921 22
-1 -4 -8 17735 1895.9 12
-1 -4 -9 2734.53 646.971 22
-1 -4 -9 3068.38 1055.87 12
-1 -4 -10 -1891.36 799.342 12
1 5 -12 1.63085 171.577 22
1 5 -12 -5.13147 151.583 3
1 5 -11 1579.8 467.889 3
1 5 -10 228.818 356.2 3
1 5 -9 180.038 296.307 3
1 5 -8 3936.66 791.992 3
-1 -5 8 4891.84 765.206 20
-1 -5 7 539.699 369.863 20
-1 -5 6 7806.95 870.936 20
-1 -5 5 4034.22 616.264 20
-1 -5 4 68177.2 2295.47 20
-1 -5 4 70066.1 2332.98 21
-1 -5 3 1494.36 405.568 21
-1 -5 3 1674.41 376.053 20
-1 -5 2 34112 1595.01 23
-1 -5 2 29714.8 1560.25 21
-1 -5 1 18671.3 1156.59 23
-1 -5 1 16469.8 1176.32 21
-1 -5 0 5969.58 663.017 23
-1 -5 -1 9157.58 916.813 17
-1 -5 -1 5417.01 663.112 23
-1 -5 -2 244.453 208.634 23
-1 -5 -2 1630.45 507.795 17
-1 -5 -3 185.309 222.92 23
-1 -5 -3 -111.966 379.023 17
-1 -5 -4 13808.9 1188.52 23
-1 -5 -4 16379.9 1235.84 17
-1 -5 -5 7233.84 969.888 22
-1 -5 -5 6542.64 853.336 17
-1 -5 -6 1368.17 461.06 17
-1 -5 -6 1033.59 499.869 22
-1 -5 -7 30224.7 1562.77 10
-1 -5 -7 37049.9 2306.16 12
-1 -5 -8 19996.3 1790.08 12
-1 -5 -9 -215.351 735.886 12
1 6 -11 297.981 250.912 3
1 6 -10 -26.4537 278.059 3
1 6 -9 1757.83 534.692 3
1 6 -8 3506.16 755.656 3
-1 -6 7 5748.08 827.329 20
-1 -6 7 7518.32 934.989 5
-1 -6 6 6345.33 885.114 5
-1 -6 6 6401.67 830.427 20
-1 -6 5 17130.8 1295.88 20
-1 -6 4 1628.77 504.901 23
-1 -6 3 4951.1 742.88 23
-1 -6 3 4243.89 673.824 21
-1 -6 2 4301.29 693.233 21
-1 -6 2 4602.77 700.864 23
-1 -6 1 424.284 285.478 23
-1 -6 0 160.078 214.647 23
-1 -6 -1 19089.8 1376.17 23
-1 -6 -2 4318.59 701.532 23
-1 -6 -2 19305.4 1373.6 17
-1 -6 -3 19350 1524.73 12
-1 -6 -3 20178 1628.97 10
-1 -6 -4 3809.04 725.58 12
-1 -6 -4 4158.79 753.554 10
-1 -6 -5 896.26 493.551 10
-1 -6 -6 372.579 861.586 12
-1 -6 -6 8152.63 958.034 10
-1 -6 -7 35032.4 1618.34 10
-1 -6 -7 25642 1866.97 12
1 7 -11 244.75 191.923 3
1 7 -10 408.604 285.407 3
1 7 -9 109.466 219.122 6
1 7 -9 637.345 414.233 3
1 7 -8 3848.66 761.77 3
-1 -7 8 3753.2 626.734 5
-1 -7 7 3303.96 622.181 5
1 7 -7 4029.46 739.492 3
-1 -7 6 20607.3 1587.76 5
-1 -7 6 15819.7 1460.71 23
-1 -7 5 16434.1 1469.53 23
-1 -7 5 17211 1490.2 5
-1 -7 5 17771.5 1327.92 15
-1 -7 4 10281 1198.42 5
-1 -7 4 9396.95 1015.97 15
-1 -7 4 9337.1 1098.15 23
-1 -7 3 14651.4 1436.34 5
-1 -7 3 15360.9 1314.84 15
-1 -7 3 14560 1350.77 23
-1 -7 2 237.006 239.623 23
-1 -7 2 228.633 267.575 15
-1 -7 2 142.48 257.94 5
-1 -7 1 10401.2 1139.45 15
-1 -7 1 8142.41 979.38 23
-1 -7 0 2096.02 561.787 15
-1 -7 -1 9149.98 1136.22 10
-1 -7 -1 9452.38 1132.21 15
-1 -7 -2 7819.2 1074.53 10
-1 -7 -2 8181.56 1076.08 12
-1 -7 -2 9473.31 1124.14 15
-1 -7 -3 -8.62854 467.277 10
-1 -7 -3 806.151 410.318 12
-1 -7 -4 2659 671.279 10
-1 -7 -4 3681.33 731.835 12
-1 -7 -4 2954.22 1665.82 22
-1 -7 -5 4623.38 805.683 10
-1 -7 -6 11821.4 1392.29 12
-1 -7 -6 1957.45 1519.28 22
-1 -7 -7 7503.89 1531.77 22
1 8 -10 23.8964 180.831 3
1 8 -9 403.098 320.498 3
1 8 -9 275.457 209.832 6
1 8 -8 2904.11 610.169 3
1 8 -8 2267.93 517.025 6
-1 -8 8 2169.97 472.708 5
1 8 -7 191.064 253.857 3
-1 -8 7 -290.424 255.962 5
-1 -8 6 4006.84 731.848 5
-1 -8 5 4280.85 687.092 15
-1 -8 5 4231.81 777.864 5
-1 -8 4 434.448 380.886 5
-1 -8 4 379.469 288.917 15
-1 -8 3 78.1011 273.071 15
-1 -8 3 143.47 243.054 5
-1 -8 2 2316.67 647.112 5
-1 -8 2 3215.85 655.908 15
-1 -8 1 11.9366 214.648 15
-1 -8 0 3280.05 666.056 10
-1 -8 0 4871.62 825.309 15
-1 -8 -1 4265.15 749.781 10
-1 -8 -1 4798.96 825.297 15
-1 -8 -2 13662 1359.23 10
-1 -8 -2 15267.4 1373.13 15
-1 -8 -2 14384.1 1424.21 12
-1 -8 -3 -83.2246 394.43 10
-1 -8 -3 468.864 343.774 12
-1 -8 -4 4225.31 789.01 10
-1 -8 -5 17256.6 1254.36 10
1 9 -9 1071.02 279.571 6
1 9 -8 306.639 292.366 6
1 9 -7 1603.32 489.872 6
-1 -9 7 1703.13 484.311 5
-1 -9 6 565.82 315.232 5
-1 -9 5 2243.3 587.867 5
-1 -9 5 2677.41 503.33 15
-1 -9 4 -127.966 285.044 5
-1 -9 4 338.702 284.793 15
-1 -9 3 5772.17 829.42 15
-1 -9 2 1756.44 505.869 15
-1 -9 1 4593.76 753.213 15
-1 -9 0 -7.51162 256.114 15
-1 -9 -1 705.037 368.771 10
-1 -9 -1 705.705 374.335 15
-1 -9 -1 -409.545 339.388 12
-1 -9 -2 -261.107 275.467 12
-1 -9 -2 -220.142 285.067 15
-1 -9 -3 4745.34 726.045 10
-1 -9 -4 16415.2 1125.11 10
1 10 -7 104.439 186.64 6
1 10 -6 164.904 246.118 6
-1 -10 5 23.2243 150.279 15
-1 -10 4 222.145 202.405 15
-1 -10 3 -254.501 271.73 15
-1 -10 2 1.88574 246.36 15
-1 -10 1 -16.4144 284.386 15
-1 -10 1 285.426 279.936 12
-1 -10 0 -271.715 294.103 15
-1 -10 0 137.397 237.153 12
-1 -10 -1 -176.699 258.986 15
-1 -10 -1 4765.98 561.74 10
-1 -10 -2 13407.6 862.963 10
-1 -10 -3 19732.9 977.56 10
-1 -11 4 114.916 143.394 15
-1 -11 3 149.515 167.92 12
-1 -11 3 905.482 255.569 15
-1 -11 2 189.184 177.981 15
-1 -11 1 176.618 175.778 15
-1 -11 0 188.292 171.058 15
2 -11 -3 1757.36 376.279 10
2 -11 -2 32.9613 168.676 15
2 -11 -2 -435.822 309.57 10
2 -11 -1 48.6795 193.946 15
2 -11 0 951.114 335.3 15
2 -11 1 30.4195 203.223 15
2 -11 2 26.0479 172.467 15
2 -11 3 640.733 257.504 15
2 -11 3 417.379 219.561 5
2 -11 4 118.427 156.08 5
2 -11 5 -156.12 154.57 5
2 -10 -5 -9.38655 278.389 10
2 -10 -4 1108.21 487.57 10
2 -10 -3 607.857 351.288 15
2 -10 -3 -322.539 460.41 10
2 -10 -2 184.095 307.853 15
2 -10 -2 -848.162 524.284 10
2 -10 -1 9738.85 1128.62 15
2 -10 0 -19.8294 288.409 15
2 -10 1 14201.6 1325.2 15
2 -10 2 -31.5489 244.77 15
2 -10 2 -256.468 273.64 5
2 -10 3 3416.68 676.347 5
2 -10 3 3828.29 642.933 15
2 -10 4 864.488 365.778 5
2 -10 5 1123.61 382.128 5
2 -10 6 571.21 273.904 5
-2 10 -7 710.275 251.182 3
2 -10 7 1336.98 311.627 5
2 -9 -7 3020.64 453.647 10
2 -9 -6 -122.771 307.72 10
2 -9 -5 -554.746 486.758 10
2 -9 -4 7720.13 1117.6 10
2 -9 -3 3787.71 780.597 15
2 -9 -2 280.845 324.901 15
2 -9 -1 118.483 260.658 15
2 -9 0 263.369 304.167 15
2 -9 1 6171.98 932.821 5
2 -9 1 6835.9 1031.55 15
2 -9 2 779.005 387.522 15
2 -9 2 1033.6 458.965 5
2 -9 3 15296 1398.21 15
2 -9 3 15032.4 1455.92 5
-2 9 -3 15553.2 1392.5 7
2 -9 4 8381.02 1068.81 5
2 -9 5 105.413 298.897 5
2 -9 6 408.941 286.208 5
2 -9 7 52.4412 210.511 5
-2 9 -8 268.442 212.398 3
2 -9 8 389.357 216.179 5
2 -8 -8 5532.7 1331.63 22
2 -8 -7 830.283 386.559 10
2 -8 -7 3765.2 1577.87 22
2 -8 -6 6215.4 1742.48 22
2 -8 -6 582.645 454.283 10
2 -8 -5 7855.43 1968.62 22
2 -8 -5 2499.14 742.473 10
2 -8 -4 13.7122 273.86 15
2 -8 -4 3764.97 1833.39 22
2 -8 -3 21089.9 2205.73 22
2 -8 -3 16061.9 1571.13 15
2 -8 -2 1350.35 498.026 15
2 -8 -1 21588.8 1692.86 15
2 -8 -1 21284.4 1454.63 16
2 -8 -1 20739.5 1711.69 21
2 -8 0 9627.77 1170.62 21
2 -8 0 8891.19 1101.74 15
2 -8 1 29413.6 2026.49 5
2 -8 1 29041.3 1906.6 15
2 -8 1 27834.7 1919.32 21
2 -8 2 54915.1 2831.43 5
2 -8 2 54946.2 2620.86 15
-2 8 -2 53510.5 2663.2 7
2 -8 2 54653 2614.77 21
2 -8 3 4255.02 878.908 5
2 -8 3 4823.44 836.226 15
-2 8 -3 4376.78 828.435 7
2 -8 3 4628.19 793.034 21
2 -8 4 6376.26 993.009 5
2 -8 4 6716.72 921.378 21
-2 8 -4 6744.13 999.477 7
2 -8 5 869.57 486.38 5
2 -8 6 588.869 376.818 5
2 -8 7 64.848 291.181 5
2 -8 8 514.872 266.085 5
2 -8 9 457.763 220.925 5
-2 8 -9 410.867 270.25 3
2 -7 -7 2230.64 552.216 10
2 -7 -6 2685.23 732.888 10
2 -7 -5 31736.6 1959.42 17
2 -7 -4 -2573.25 1545.03 22
2 -7 -3 8911.63 1562.06 22
2 -7 -3 4990.3 822.735 15
2 -7 -2 8106.11 1012.09 21
2 -7 -1 12187.5 1237.19 21
2 -7 0 31465.4 1929.6 21
2 -7 1 40702.5 2152.77 21
2 -7 2 14968.2 1310.36 21
2 -7 3 18804.6 1458.68 21
-2 7 -4 512.271 395.857 7
2 -7 4 613.894 348.448 5
2 -7 4 789.677 384.717 21
2 -7 5 -135.219 287.784 5
-2 7 -5 329.259 389.986 7
2 -7 6 796.243 402.554 5
2 -7 7 -24.0007 275.753 5
2 -7 8 40.755 225.924 5
-2 7 -9 1441.94 408.016 3
2 -7 9 1728.03 403.272 5
-2 7 -10 431.349 242.617 3
2 -6 -6 25641.2 1732.23 17
2 -6 -6 6031.01 1255.5 22
2 -6 -5 3711.08 926.913 17
2 -6 -4 19766.3 1393.98 17
2 -6 -3 38131.7 1778.54 17
2 -6 -2 1136.11 422.126 21
2 -6 -1 657.358 338.459 21
2 -6 0 63.1569 241.925 21
2 -6 1 3721.43 636.607 21
2 -6 2 666.562 319.312 21
2 -6 3 1039.74 398.19 21
2 -6 4 1395.76 427.262 21
2 -6 5 886.41 432.192 5
-2 6 -5 683.89 402.434 7
-2 6 -6 1266.12 493.938 11
2 -6 6 880.957 450.508 5
-2 6 -7 1548.87 532.409 11
2 -6 7 623.182 414.16 5
-2 6 -8 273.317 279.98 11
2 -6 8 40.5311 260.747 5
-2 6 -9 935.397 388.881 3
2 -6 9 879.507 376.253 5
-2 6 -10 -49.401 197.316 3
2 -5 -10 1645.58 542.495 22
2 -5 -9 5758.04 904.788 22
2 -5 -8 -189.972 326.29 22
2 -5 -7 8571.97 1039.15 17
2 -5 -7 7900.85 943.652 16
2 -5 -7 9795.72 1166.96 22
2 -5 -6 17274.9 1464.31 22
2 -5 -6 14288.2 1179.41 16
2 -5 -6 14518.3 1276.45 17
2 -5 -5 55513 2231.58 17
2 -5 -4 46452.1 1867.61 17
2 -5 -3 9148.94 807.444 17
2 -5 -3 8174.38 692.717 18
2 -5 -2 27792.6 1238.01 17
2 -5 -2 27393.1 1498.53 21
2 -5 -2 26833.4 1219.76 18
2 -5 -1 1292.94 319.376 18
2 -5 -1 1833.77 434.206 21
2 -5 0 9792.13 892.938 21
2 -5 0 10158.3 783.592 18
2 -5 1 4498.24 598.706 21
2 -5 2 21080.7 1255.83 21
2 -5 3 40947.2 1789.78 21
2 -5 4 24742.3 1415.49 21
2 -5 5 15189.4 1153.24 20
2 -5 6 2305.89 683.608 5
-2 5 -6 3566.57 696.419 11
2 -5 6 2888.28 643.673 20
-2 5 -7 20379.1 1702.07 11
2 -5 7 22896.8 1805.52 5
2 -5 7 21315 1535.24 20
-2 5 -8 -105.88 292.1 11
2 -5 8 113.577 287.581 5
-2 5 -9 3765.3 742.483 11
-2 5 -9 4492.98 740.998 3
-2 5 -10 785.923 345.796 3
-2 5 -11 509.546 231.196 22
2 -4 -11 285.208 303.504 22
2 -4 -10 541.819 279.091 16
2 -4 -10 191.371 309.9 22
2 -4 -9 2832.11 579.611 16
2 -4 -9 2853.09 709.297 22
2 -4 -8 187.808 298.092 17
2 -4 -8 -31.4593 216.537 16
2 -4 -8 -84.2583 401.083 22
2 -4 -7 1579.67 462.888 17
2 -4 -7 1149.37 370.651 16
2 -4 -7 823.903 446.844 22
2 -4 -6 21718.4 1450.16 17
2 -4 -5 288.993 261.723 17
2 -4 -4 12751.1 914.532 17
2 -4 -3 36471.9 1354.73 18
2 -4 -3 36362.7 1363.81 17
2 -4 -3 38025.1 1544.28 21
2 -4 -2 5370.38 511.845 17
2 -4 -2 5261.08 621.916 21
2 -4 -2 4675.44 491.137 18
2 -4 -1 106579 3249.32 26
2 -4 -1 109090 2230.97 18
2 -4 0 18452.5 922.927 18
-2 4 0 18823.5 1327.64 25
2 -4 0 17583.4 1310.73 1
2 -4 0 17424.1 1000.91 14
2 -4 1 1309.3 284.994 18
-2 4 -1 960.552 407.734 25
2 -4 1 1324.92 335.229 14
2 -4 2 11793.8 879.671 14
2 -4 3 26089.7 1349.4 14
2 -4 3 24653.4 1154.99 20
2 -4 4 10918.2 852.913 20
2 -4 4 9195.56 870.614 14
2 -4 4 10707.3 858.211 21
2 -4 5 117.457 268.138 20
2 -4 5 -43.793 245.266 14
2 -4 6 7478.49 901.667 14
2 -4 6 8010.92 893.73 20
2 -4 7 -725.396 627.848 20
2 -4 7 -40.8685 287.486 5
-2 4 -7 138.383 318.767 11
2 -4 8 1146.3 648.419 20
-2 4 -8 2606.3 665.356 11
2 -4 8 2821.25 659.405 5
-2 4 -9 190.686 390.692 11
-2 4 -10 -106.638 364.4 11
-2 4 -11 888.675 302.822 22
2 -3 -12 22.6839 215.534 22
2 -3 -11 2436.69 485.259 16
2 -3 -11 3816.11 671.649 22
2 -3 -10 126.497 349.244 22
2 -3 -10 517.813 279.627 16
2 -3 -9 1283.21 474.775 22
2 -3 -9 1123.06 405.502 16
2 -3 -8 -742.735 403.27 17
2 -3 -8 -601.929 388.453 22
2 -3 -7 7016.25 882.928 17
2 -3 -6 38852.7 1848.5 17
2 -3 -5 78793.2 2341.29 17
2 -3 -4 228663 3486.33 17
-2 3 4 237808 3245.59 2
-2 3 3 78422.6 1660.96 2
2 -3 -3 74809.9 1725.51 17
-2 3 2 63071.1 2299.28 1
2 -3 -2 61053.9 1384.82 17
2 -3 -2 64340.6 2422.17 26
-2 3 2 61479 1279.75 2
-2 3 1 103885 1478.49 2
2 -3 -1 101617 1950.59 14
-2 3 1 106269 2772.19 1
2 -3 -1 102587 1644.71 17
2 -3 0 1663.42 273.322 18
2 -3 0 1771.62 304.188 14
-2 3 0 1623.92 212.762 2
2 -3 0 1436.81 391.052 1
2 -3 1 57661.5 1539.11 14
2 -3 1 55205.1 2202 1
-2 3 -1 52406.5 2372.86 25
2 -3 1 60428.1 1254.19 20
2 -3 1 58254.5 1452.4 18
2 -3 2 31266.7 1081.48 20
2 -3 2 31583.7 1207.93 14
2 -3 3 60708.1 1762.94 14
2 -3 3 62379 1745.47 20
2 -3 4 1564.88 358.646 20
2 -3 4 1501.5 351.346 14
2 -3 5 120422 3065.52 20
2 -3 5 111728 2846.44 14
2 -3 6 44043.2 1955.43 14
2 -3 6 45218.2 2052.19 20
2 -3 7 44616.3 2176.95 20
-2 3 -7 40171.1 2397.56 11
2 -3 7 44000 2075.04 14
-2 3 -7 43600.3 2480.6 12
-2 3 -8 7522.52 1107.28 11
-2 3 -8 5521.78 938.662 12
2 -3 8 7937.09 1004.64 20
-2 3 -9 3270.79 870.075 12
-2 3 -9 7230.67 1129.03 11
-2 3 -10 2145.76 614.579 11
-2 3 -10 2401.32 574.347 22
-2 3 -11 -409.893 379.117 11
-2 3 -11 215.61 191.865 22
2 -2 -12 476.103 297.738 22
2 -2 -12 399.957 222.327 16
2 -2 -11 694.172 356.951 16
2 -2 -11 255.331 341.305 22
2 -2 -10 548.692 332.385 22
2 -2 -9 17751 1511.48 22
2 -2 -9 17017.5 1461.17 17
2 -2 -8 6487.07 892.833 22
2 -2 -8 6926.95 902.772 17
2 -2 -7 181.932 239.005 17
2 -2 -6 68646.9 2257.25 17
2 -2 -5 9555.48 760.997 17
2 -2 -4 8020.73 604.209 17
-2 2 3 46787.9 2057.33 1
-2 2 3 46394.5 1298.75 2
2 -2 -3 43108.3 1192.88 17
2 -2 -3 45224.7 2047.31 26
2 -2 -2 187030 2045.39 17
-2 2 2 186692 3736.74 1
-2 2 2 186747 2201.68 2
2 -2 -2 181224 3775.32 26
-2 2 1 738485 3975.54 2
-2 2 1 745855 6891.55 1
2 -2 -1 736638 7006.78 1
2 -2 0 192997 3553.9 1
2 -2 0 191400 2198.4 14
-2 2 0 193619 2083.34 2
-2 2 -1 40182 1987.19 25
2 -2 1 39517.9 1023.41 18
2 -2 1 39779.6 1768.99 1
2 -2 1 39361.1 1090.89 14
2 -2 2 6755.85 524.869 14
2 -2 3 11907.2 724.056 14
2 -2 4 5613.99 563.286 14
2 -2 5 797.526 285.248 14
2 -2 5 1175.31 367.873 20
2 -2 6 1495.2 428.703 20
2 -2 6 1523.71 386.637 14
2 -2 7 26525 1732.92 20
-2 2 -7 29477.5 1981.67 11
2 -2 8 519.586 360.646 20
-2 2 -8 164.09 456.76 11
-2 2 -9 771.731 539.545 11
-2 2 -10 265.617 420.778 11
-2 2 -10 -250.228 294.18 22
-2 2 -11 122.108 217.915 22
-2 2 -11 -178.816 311.434 11
2 -1 -13 1763.96 362.486 22
2 -1 -12 130.173 211.204 16
2 -1 -12 -417.613 324.835 22
2 -1 -11 -18.0583 269.142 22
2 -1 -10 11024 1216.95 22
2 -1 -9 5728 877.801 22
2 -1 -9 6229.5 870.659 17
2 -1 -8 14279.9 1219.09 17
-2 1 7 593.17 250.145 20
2 -1 -7 1587.19 421.532 17
2 -1 -6 14691.6 1007.7 17
-2 1 6 13407.8 849.504 20
-2 1 5 2417.58 346.12 20
2 -1 -5 3286.68 443.492 17
2 -1 -4 152939 2377.6 17
-2 1 4 153848 2146.46 20
2 -1 -3 101493 1520.66 17
-2 1 3 103511 1449.56 20
2 -1 -2 586440 6243.99 26
-2 1 2 578621 3917.88 2
2 -1 -1 476383 5161.75 1
2 -1 0 15612.1 946.173 1
2 -1 0 15207.8 615.5 14
-2 1 -1 29451.4 923.293 23
2 -1 2 37815.3 1152.85 14
2 -1 3 711.438 219.786 14
2 -1 4 59436 1655.93 14
2 -1 5 29329.9 1292.19 14
2 -1 6 83455.5 2831.94 20
2 -1 6 81712.4 2350.87 14
2 -1 7 16679.7 1397.77 20
-2 1 -8 3816.99 812.439 11
-2 1 -8 4824.75 895.695 17
2 -1 8 3517.99 714.084 20
-2 1 -8 1763.96 768.57 12
-2 1 -9 585.098 520.127 11
-2 1 -9 -54.6863 815.624 12
-2 1 -9 176.343 306.155 22
-2 1 -10 187.921 385.951 11
-2 1 -10 140.675 276.043 22
-2 1 -11 277.029 292.517 11
-2 1 -11 1010.29 336.846 22
2 0 -13 1180.28 324.642 22
2 0 -13 721.675 230.272 16
2 0 -12 25.3124 253.25 22
2 0 -11 7936.27 1003.38 22
2 0 -10 1544.89 512.694 3
2 0 -10 621.552 395.365 22
2 0 -9 4567.43 808.862 3
-2 0 9 5801.5 772.66 20
2 0 -9 4139.05 760.618 22
2 0 -8 182.68 248.546 17
-2 0 8 180.206 259.314 20
2 0 -7 9122.24 903.773 17
-2 0 7 11353.7 926.808 20
-2 0 6 2448.04 409.346 20
-2 0 5 719.442 242.415 20
-2 0 4 1225.38 371.429 26
-2 0 4 1888.72 292.783 20
-2 0 3 97011.8 1828.56 2
2 0 -3 93760.7 2621.08 26
-2 0 3 90498.9 1573.07 20
-2 0 2 1490.92 225.598 20
-2 0 2 1712.68 372.619 1
2 0 -2 1356.45 321.211 26
-2 0 1 307414 3883.19 1
2 0 -1 315319 3924.57 1
2 0 0 158029 2694.59 1
-2 0 -1 129624 1983.85 23
-2 0 -1 140600 3712.7 25
2 0 2 40547.2 2014.86 25
-2 0 -2 37820 1261.74 23
2 0 3 14887.7 807.9 14
2 0 4 15402.7 886.519 14
2 0 5 1575.57 325.753 14
-2 0 -6 2091.77 572.005 17
-2 0 -7 1874.5 524.016 11
-2 0 -7 2875.52 697.709 17
2 0 7 2063.13 552.015 20
-2 0 -8 1683.51 603.168 22
-2 0 -8 2457.82 636.534 17
2 0 8 1825.66 523.942 20
-2 0 -8 1594.67 603.447 11
-2 0 -9 3705.22 790.816 22
-2 0 -9 5025.25 844.948 11
-2 0 -10 3089.26 621.773 11
-2 0 -10 3780.37 698.171 22
-2 0 -11 4334.78 599.87 22
-2 0 -11 21084.2 1628.41 12
2 1 -13 1019.95 308.061 22
2 1 -12 2690.19 551.166 22
2 1 -11 3740.6 711.783 22
2 1 -11 4227.15 750.14 3
2 1 -10 3844.86 741.527 22
2 1 -10 4795.84 860.8 3
2 1 -9 2502.49 672.044 3
-2 -1 9 3099.47 604.87 20
-2 -1 8 7872 867.443 20
-2 -1 7 1215.42 369.102 20
-2 -1 6 4909.99 578.752 20
-2 -1 5 10920.1 766.007 20
-2 -1 4 11590.1 732.527 20
-2 -1 4 11270.9 1035.66 26
-2 -1 3 364.728 176.691 20
-2 -1 3 143.837 159.598 2
-2 -1 2 8963.74 551.4 20
2 1 -2 9435.81 677.651 26
-2 -1 2 10231.7 510.304 2
-2 -1 2 9267.42 693.985 1
-2 -1 1 17.3795 88.9852 2
-2 -1 1 -6.00332 118.744 1
-2 -1 1 75.0407 124.94 23
-2 -1 0 79336.7 1451.44 2
-2 -1 0 80561.8 2318.46 25
2 1 0 78304.8 1736.06 1
-2 -1 0 78390.4 1568.35 23
-2 -1 -1 87.8284 104.859 17
-2 -1 -1 144.177 157.371 23
-2 -1 -2 92997.5 2079.04 23
-2 -1 -2 87015 1767.65 17
2 1 2 88924.3 2884.15 25
-2 -1 -2 83955.9 3081.3 24
-2 -1 -3 20937.2 1134.49 23
-2 -1 -3 21368 1035.23 17
-2 -1 -4 80324.7 2333.84 17
2 1 4 80404.4 2054.3 14
2 1 5 1542.95 339.175 14
-2 -1 -5 2036.07 480.074 17
-2 -1 -6 2956.18 602.064 17
2 1 7 181.288 274.002 20
-2 -1 -7 42.8159 306.647 11
-2 -1 -7 826.833 399.352 17
-2 -1 -7 -464.775 375.887 22
-2 -1 -8 -275.413 372.362 11
-2 -1 -8 -73.826 300.723 22
-2 -1 -9 167.403 323.286 22
-2 -1 -9 -398.869 1033.27 12
-2 -1 -10 -169.579 369.874 22
-2 -1 -10 3224.41 1234.31 12
-2 -1 -11 16673.8 1417.89 12
2 2 -13 974.781 287.374 22
2 2 -12 1103.13 393.474 3
2 2 -12 2395.52 507.096 22
2 2 -11 10229.8 1125.41 22
2 2 -11 10880.7 1178.57 3
2 2 -10 9707.15 1214.19 3
-2 -2 9 507.209 376.629 20
2 2 -9 -125.961 354.322 3
-2 -2 8 6552.88 807.564 20
-2 -2 7 1858.26 489.533 20
-2 -2 6 125.716 262.353 20
-2 -2 5 5625.54 632.849 20
-2 -2 4 75000.1 2611.85 26
-2 -2 4 71397 2584.21 24
-2 -2 4 75869.5 1947.32 20
-2 -2 3 10577.7 688.911 20
-2 -2 3 11121.5 620.996 2
-2 -2 2 7248.45 532.254 1
-2 -2 2 7836.43 445 2
-2 -2 2 7308.86 553.763 20
-2 -2 1 79553.8 1358.81 2
-2 -2 1 77138.4 1783.23 23
2 2 -1 79320.7 1383.92 26
-2 -2 1 79150.7 1886.38 25
-2 -2 0 1070.89 182.197 17
-2 -2 0 1448.51 265.756 23
2 2 0 1043.95 179.109 1
-2 -2 -1 5735.19 515.987 17
-2 -2 -1 8173.69 647.367 23
-2 -2 -1 7014.61 743.856 24
-2 -2 -2 60885.7 1634.92 17
-2 -2 -2 63584.6 1932.09 23
-2 -2 -3 70881.6 1975.55 17
-2 -2 -3 70267.3 2191.25 23
-2 -2 -4 21576.7 1252.04 17
-2 -2 -4 19479.6 1337.76 23
-2 -2 -5 2079.39 471.374 17
-2 -2 -6 17489.2 1408.42 17
2 2 7 643.956 324.877 20
-2 -2 -7 1840.58 549.975 17
-2 -2 -7 1461.29 523.322 22
-2 -2 -8 -623.603 426.76 22
-2 -2 -8 13946.8 1785.59 12
-2 -2 -9 -853.41 424.261 22
-2 -2 -9 -115.411 1046.18 12
-2 -2 -10 -14.7636 242.244 22
-2 -2 -10 1314.34 990.322 12
-2 -2 -11 14609.9 1151.45 12
2 3 -12 2409.74 498.791 3
2 3 -12 2459.15 494.63 22
2 3 -11 9418.86 1091.04 3
2 3 -10 6110.28 1017.13 3
-2 -3 9 16840.4 1333.17 20
2 3 -9 16949.8 1617.61 3
2 3 -8 -197.381 287.126 3
-2 -3 8 804.714 417.865 20
-2 -3 7 534.753 389.799 20
-2 -3 6 8889.62 853.255 2
-2 -3 6 12258.5 995.897 20
-2 -3 5 6595.05 633.467 2
-2 -3 5 9132.5 832.524 20
-2 -3 4 2172.87 413.332 20
-2 -3 3 11965.7 852.68 20
-2 -3 2 72140.2 1945.76 23
-2 -3 1 56579 1716.17 23
-2 -3 0 31256.4 1002.79 17
-2 -3 0 35374.2 1422.19 23
-2 -3 -1 15339.6 1005.04 23
-2 -3 -1 15129.8 817.133 17
-2 -3 -2 48247.6 1614.47 17
-2 -3 -2 47481.4 1859.72 23
-2 -3 -3 -19.1447 205.161 17
-2 -3 -3 154.873 239.751 23
-2 -3 -4 25080.7 1443.93 17
-2 -3 -4 22653.4 1506.35 23
-2 -3 -5 20618.5 1457.09 17
-2 -3 -6 6530.91 902.717 17
-2 -3 -6 3382.02 1100.59 12
-2 -3 -7 609.698 390.903 22
-2 -3 -7 23300.2 2119.97 12
-2 -3 -8 1008.02 466.968 22
-2 -3 -8 17421.8 1920.79 12
-2 -3 -9 467.969 1025.48 12
-2 -3 -9 50.0819 272.491 22
-2 -3 -10 1871.19 865.158 12
2 4 -12 200.29 236.452 3
2 4 -12 19.7799 214.542 22
2 4 -11 3087.04 643.371 3
2 4 -10 4490.15 847.787 3
-2 -4 9 2951.48 645.165 20
2 4 -9 2665.6 693.092 3
2 4 -8 4984.35 866.206 3
2 4 -8 3138.07 703.017 6
-2 -4 8 3898.24 686.776 20
-2 -4 7 8948.23 953.137 20
-2 -4 6 3592.88 642.703 20
-2 -4 5 50095.5 2048.47 20
-2 -4 4 1847.47 412.89 20
-2 -4 3 68708.5 2258.62 23
-2 -4 2 1826.26 393.213 23
-2 -4 1 2135.07 423.147 23
-2 -4 0 3601.69 529.438 17
-2 -4 0 2239.15 429.393 23
-2 -4 -1 -150.118 277.035 17
-2 -4 -1 158.231 226.777 23
-2 -4 -2 15427.5 998.559 17
-2 -4 -2 16391.6 1224.18 23
-2 -4 -3 8627.87 815.524 17
-2 -4 -3 7366.64 871.852 23
-2 -4 -4 1728.91 484.649 23
-2 -4 -4 1514.56 429.63 17
-2 -4 -5 14724.5 1142.81 10
-2 -4 -5 20855 1480.17 17
-2 -4 -6 1783.11 526.767 17
-2 -4 -6 1120.05 957.527 12
-2 -4 -7 24509.1 2128.21 12
-2 -4 -8 18682.5 1866.64 12
-2 -4 -9 636.782 899.494 12
2 5 -12 307.157 200.461 22
2 5 -12 283.79 205.117 3
2 5 -11 2654.31 554.878 3
2 5 -10 3463.7 728.053 3
2 5 -9 7783.6 1042.88 3
2 5 -9 5781.15 866.098 6
2 5 -8 143.817 319.867 6
2 5 -8 243.829 318.364 3
-2 -5 8 38.0191 289.505 20
-2 -5 7 -660.631 379.577 20
2 5 -7 19.9139 277.695 3
-2 -5 6 17053.4 1328.96 20
-2 -5 5 65546.8 2540.68 20
-2 -5 4 8551.05 972.767 23
-2 -5 3 3819.47 620.57 23
-2 -5 2 36922.9 1831.3 23
-2 -5 1 48.4557 245.944 23
-2 -5 0 19030.6 1351.81 23
-2 -5 -1 96.5922 236.397 23
-2 -5 -1 6219.29 850.327 17
-2 -5 -2 15939.9 1155.42 17
-2 -5 -2 15787.5 1305.08 23
-2 -5 -3 7080.68 843.758 17
-2 -5 -3 5714.21 835.284 23
-2 -5 -4 8326.21 1026.83 23
-2 -5 -4 5128.09 846.266 17
-2 -5 -4 9048.54 974.597 10
-2 -5 -4 7765.49 1042.8 12
-2 -5 -5 8236.11 1015.3 17
-2 -5 -5 16480.6 1272.25 10
-2 -5 -6 31623.5 1657.61 10
-2 -5 -6 2529.78 1083.18 12
-2 -5 -7 34122.7 2225.81 12
-2 -5 -8 10853.5 1484.23 12
2 6 -11 -118.455 201.157 3
2 6 -10 30.1897 217.612 3
2 6 -9 108.443 324.542 3
2 6 -9 -359.724 328.887 6
2 6 -8 -41.2436 275.64 6
2 6 -8 82.2677 276.856 3
-2 -6 7 -586.299 386.15 20
2 6 -7 367.804 369.261 3
-2 -6 6 23831.7 1698.28 5
-2 -6 6 22132.2 1719.16 23
-2 -6 5 23147 1696.78 5
-2 -6 5 24194.7 1763.29 23
-2 -6 5 23235.2 1528.25 15
-2 -6 4 28200.4 1868.16 23
-2 -6 3 2491.73 590.184 23
-2 -6 2 11869.6 1193.43 23
-2 -6 1 1591.34 505.51 23
-2 -6 0 9003.46 1035.43 23
-2 -6 -1 184.721 314.266 23
-2 -6 -2 15450.7 1457.09 23
-2 -6 -2 13700.3 1267.99 10
-2 -6 -2 18632.4 1588.5 12
-2 -6 -3 10834.9 1217.13 23
-2 -6 -3 10844.3 1134.88 10
-2 -6 -3 14158.2 1411.61 12
-2 -6 -4 5239.29 887.529 10
-2 -6 -4 51.2 259.035 12
-2 -6 -5 23431.5 1529.29 10
-2 -6 -6 12745.3 1529.54 12
-2 -6 -7 28768.5 1930.79 12
-2 -6 -8 2255.66 811.601 12
2 7 -11 77.7236 173.92 3
2 7 -10 88.787 182.967 6
2 7 -10 54.8998 217.028 3
2 7 -9 416.436 316.485 6
2 7 -9 484.42 332.608 3
2 7 -8 101.893 240.097 3
2 7 -8 -4.34182 299.56 6
-2 -7 7 1366.51 474.742 5
-2 -7 6 11641.5 1276.05 5
-2 -7 5 20761.5 1476.35 15
-2 -7 5 21379.1 1682.15 5
-2 -7 5 24095.4 1837.42 23
-2 -7 4 878.474 387.606 15
-2 -7 4 1171.68 490.977 23
-2 -7 4 526.283 439.397 5
-2 -7 3 17445.5 1693.52 5
-2 -7 3 18267.2 1455.09 15
-2 -7 3 18077.9 1584.66 23
-2 -7 2 478.247 305.963 15
-2 -7 2 283.337 364.472 23
-2 -7 1 14604.7 1338.33 15
-2 -7 1 12401.5 1336.76 23
-2 -7 0 -295.705 333.774 10
-2 -7 0 220.527 286.588 15
-2 -7 0 -385.787 345.224 23
-2 -7 -1 2861.53 620.114 10
-2 -7 -1 3391.52 712.541 15
-2 -7 -1 2521.13 642.892 23
-2 -7 -2 3309.64 751.952 12
-2 -7 -2 3007.89 678.058 10
-2 -7 -3 5095.14 860.42 10
-2 -7 -3 -133.286 282.163 12
-2 -7 -4 18057 1404.77 10
-2 -7 -4 4755.33 687.174 12
-2 -7 -5 40283 1897.63 10
-2 -7 -6 23492.6 1680.54 12
-2 -7 -7 10075.2 1106.95 12
2 8 -9 328.309 259.037 6
2 8 -9 177.171 176.706 3
2 8 -8 994.975 365.436 6
2 8 -7 -150.51 310.7 6
-2 -8 7 -213.739 229.356 5
-2 -8 6 2140.38 584.443 5
-2 -8 6 3450.26 581.874 15
-2 -8 5 717.479 398.388 5
-2 -8 5 697.023 342.993 15
-2 -8 4 11824 1128.91 15
-2 -8 3 31296.2 1849.17 15
-2 -8 2 93.2499 253.072 15
-2 -8 1 3156.87 634.257 15
-2 -8 0 211.958 259.015 15
-2 -8 -1 -200.673 338.092 12
-2 -8 -1 42.8959 259.177 15
-2 -8 -2 -430.717 370.103 12
-2 -8 -2 5317.1 863.96 10
-2 -8 -3 15706 1367.69 10
-2 -8 -3 852.515 427.536 12
-2 -8 -4 37793.5 1719.82 10
-2 -8 -5 11263 1199.33 12
2 9 -8 1030.32 352.746 6
2 9 -7 1185.16 434.227 6
2 9 -6 -59.5028 246.561 6
-2 -9 6 76.3678 137.898 15
2 9 -5 99.023 253.527 6
-2 -9 5 569.662 287.17 15
-2 -9 4 -56.6337 218.26 15
2 9 -3 114.641 272.882 6
-2 -9 3 40.4169 256.377 15
-2 -9 2 642.997 377.767 15
-2 -9 1 252.43 342.556 15
-2 -9 0 154.673 334.813 12
-2 -9 0 291.834 280.502 15
-2 -9 -1 968.525 471.214 12
-2 -9 -1 683.274 339.136 15
-2 -9 -2 20093.6 1159.65 10
-2 -9 -2 100.89 244.233 12
-2 -9 -4 3107.13 720.748 12
2 10 -7 255.493 171.251 6
2 10 -6 833.63 316.344 6
2 10 -5 60.2086 192.63 6
-2 -10 5 336.336 211.377 15
2 10 -4 73.9744 190.463 6
-2 -10 4 110.662 196.803 15
-2 -10 3 1539.1 376.531 15
-2 -10 2 229.604 243.052 15
-2 -10 1 -420.046 306.005 12
-2 -10 1 -6.3149 211.728 15
-2 -10 0 67.4434 213.554 12
-2 -10 0 359.825 244.327 15
-2 -10 -1 459.503 258.99 12
3 -11 -3 7082.35 741.606 10
3 -11 -3 6325.74 638.364 15
3 -11 -2 -542.196 357.484 10
3 -11 -2 -186.963 218.546 15
3 -11 -1 1258.59 399.666 10
3 -11 -1 2260.13 478.294 15
3 -11 0 325.737 246.348 15
3 -11 0 -555.903 301.555 10
3 -11 1 2429.99 483.546 15
3 -11 2 174.978 198.959 15
3 -11 3 3166.09 472.782 5
3 -11 3 3782.23 454.659 15
3 -11 4 1246.52 300.805 5
3 -10 -6 580.222 241.025 10
3 -10 -5 -970.636 394.614 10
3 -10 -4 319.787 380.146 10
3 -10 -4 901.443 350.687 15
3 -10 -3 4693.16 785.704 15
3 -10 -2 8208.5 1055.67 15
3 -10 -1 3385.7 703.151 15
3 -10 0 2428.15 606.654 15
3 -10 1 341.616 314.261 15
3 -10 2 722.207 314.868 5
3 -10 2 923.448 383.877 15
3 -10 3 255.403 243.772 5
3 -10 3 245.938 223.082 15
3 -10 4 197.359 230.255 5
3 -10 5 416.024 258.847 5
3 -10 6 202.415 180.529 5
3 -10 7 -51.7004 122.73 5
3 -9 -7 1790.3 383.486 10
3 -9 -6 2024.99 529.426 10
3 -9 -5 -801.45 524.571 10
3 -9 -4 5571.01 933.379 15
3 -9 -3 11946.6 1070.56 16
3 -9 -3 12658.7 1378.74 15
3 -9 -2 4376.2 860.299 15
3 -9 -1 15641.2 1507.65 15
3 -9 0 289.335 322.653 15
3 -9 1 4190.82 792.89 15
-3 9 -1 4383.58 831.873 7
3 -9 2 200.749 329.769 15
3 -9 2 22.4284 236.73 5
-3 9 -2 273.738 353.183 7
3 -9 3 12906.1 1335.8 5
3 -9 3 12347.4 1189.75 15
-3 9 -3 12946.4 1275.54 7
3 -9 4 340.84 334.326 5
-3 9 -4 292.906 361.414 7
3 -9 5 722.172 379.272 5
3 -9 6 -62.1513 250.252 5
3 -9 7 790.684 295.503 5
-3 9 -8 283.2 186.726 3
3 -9 8 530.013 210.63 5
3 -8 -8 8187.21 1446.94 22
3 -8 -7 -916.825 402.057 10
3 -8 -7 4124.11 1613.54 22
3 -8 -6 39.0557 396.977 10
3 -8 -6 5297.01 1794.52 22
3 -8 -5 2886.97 558.619 16
3 -8 -5 8219.87 1940.05 22
3 -8 -4 2506.53 540.529 16
3 -8 -4 2185.57 615.007 15
3 -8 -3 3630.82 651.807 16
3 -8 -3 3268.29 720.878 15
3 -8 -2 4846.42 732.812 16
3 -8 -2 4585.91 831.413 15
3 -8 -2 4997.58 870.019 21
3 -8 -1 23263.9 1559.95 16
3 -8 -1 22354.9 1706.68 15
3 -8 -1 23326.7 1852.75 21
3 -8 0 3772.37 723.387 15
3 -8 0 4243.55 813.64 21
3 -8 1 6.49954 244.73 15
-3 8 -1 -205.199 477.195 7
3 -8 1 125.068 291.098 21
3 -8 2 2498.03 606.454 15
3 -8 2 2153.81 643.134 5
-3 8 -2 2364.3 665.267 7
3 -8 2 2240.05 611.296 21
3 -8 3 1557.21 540.162 5
-3 8 -3 2317.11 670.85 7
3 -8 3 1836.69 522.058 21
3 -8 4 -544.797 374.942 5
-3 8 -4 -61.3836 287.048 7
3 -8 5 -153.289 317.017 5
-3 8 -5 -25.1595 285.779 7
3 -8 6 221.286 299.285 5
3 -8 7 371.388 321.65 5
3 -8 8 598.281 279.065 5
-3 8 -9 96.1448 174.43 3
3 -7 -7 134.494 223.55 16
3 -7 -7 -435.439 387.923 10
3 -7 -6 3018.97 594.741 16
3 -7 -5 7271.55 881.332 16
3 -7 -5 5739.04 1455.79 22
3 -7 -4 4909.01 1525.43 22
3 -7 -4 1705.71 476.869 16
3 -7 -3 18889.4 1342.89 16
3 -7 -3 25757.1 2078.93 22
3 -7 -2 1174.8 397.219 16
3 -7 -2 1098.6 429.499 21
3 -7 -1 93182.9 3473.99 21
3 -7 0 64.1897 289.683 21
3 -7 1 14121.4 1337.56 21
3 -7 2 1513.43 557.049 5
3 -7 2 1777.25 511.45 21
-3 7 -2 1180.44 502.726 7
3 -7 3 37767.7 2138.86 21
-3 7 -3 39602.5 2385.14 7
3 -7 3 35890.1 2008.13 9
3 -7 4 19753.7 1733.9 5
3 -7 4 20017.5 1548.4 9
-3 7 -4 17743.8 1614.79 7
3 -7 4 19547.1 1551.94 21
3 -7 5 895.702 466.369 5
-3 7 -5 1169.83 485.55 7
3 -7 6 4855.52 892.697 5
3 -7 7 3768.39 759.752 5
3 -7 8 38.9662 233.048 5
3 -7 9 249.183 187.769 5
-3 7 -9 179.972 200.189 3
3 -6 -9 1130.48 348.818 16
3 -6 -8 2776.17 562.428 16
3 -6 -7 -176.879 271.567 16
3 -6 -6 8731.92 1219.39 17
3 -6 -6 1457.31 445.945 16
3 -6 -5 -721.675 367.966 16
3 -6 -5 9012.6 1198.29 17
3 -6 -4 16572.3 1256.81 17
3 -6 -3 15328.5 1108.13 18
3 -6 -2 1008.47 409.898 21
3 -6 -2 1146.15 356.829 18
3 -6 -1 12317.9 1000.34 18
3 -6 -1 13078.3 1217.76 21
3 -6 0 5729 813.191 21
3 -6 1 1313.28 447.476 21
3 -6 2 8667.46 971.597 21
3 -6 3 322.389 301.982 21
3 -6 4 460.226 323.226 9
3 -6 4 917.977 452.857 5
3 -6 4 445.999 316.165 21
-3 6 -4 609.93 387.576 7
3 -6 5 11804.4 1349.82 5
-3 6 -5 10910.3 1227.3 7
-3 6 -6 5631.58 856.991 11
3 -6 6 4686.95 906.094 5
-3 6 -7 4036.67 746.376 11
3 -6 7 3571.85 776.024 5
-3 6 -8 -81.4217 234.223 11
3 -6 8 -557.97 363.985 5
3 -6 9 552.098 256.041 5
-3 6 -9 499.681 290.749 3
3 -5 -10 969.233 329.957 16
3 -5 -9 540.139 263.123 16
3 -5 -9 1432.73 531.586 22
3 -5 -8 806.653 371.48 16
3 -5 -8 1037.14 523.803 22
3 -5 -7 240.262 273.318 16
3 -5 -7 660.448 433.457 22
3 -5 -6 685.214 576.077 17
3 -5 -6 1697.38 460.523 16
3 -5 -6 1967.24 580.899 22
3 -5 -5 78960 2491.22 17
3 -5 -4 5734.55 731.346 17
3 -5 -4 3552.97 540.282 18
3 -5 -3 41549.6 1964.38 21
3 -5 -3 39901.9 1497.65 17
3 -5 -3 38251.1 1634.7 18
3 -5 -2 18764 1116.64 18
3 -5 -1 25993.8 1317.4 18
3 -5 0 12983.1 935.319 18
3 -5 1 1420.5 411.841 14
3 -5 2 2254.84 526.525 14
3 -5 3 59770.5 2385.37 14
3 -5 4 58.1545 284.19 14
3 -5 4 445.731 293.062 21
3 -5 5 3250.11 872.896 5
3 -5 5 7065.97 919.111 14
-3 5 -6 251.795 291.323 11
3 -5 6 559.253 452.313 5
3 -5 6 -70.7231 345.841 14
3 -5 7 2627.05 705.429 5
-3 5 -7 2366.25 595.287 11
-3 5 -8 466.25 283.119 11
3 -5 8 337.138 340.73 5
-3 5 -9 -488.121 334.244 11
3 -5 9 -578.858 305.674 5
-3 5 -10 -576.534 317.746 11
3 -4 -11 89.8874 178.365 16
3 -4 -11 805.688 411.854 22
3 -4 -10 533.011 301.052 16
3 -4 -10 621.635 405.533 22
3 -4 -9 8803.27 1024.14 16
3 -4 -9 10586.7 1217.7 22
3 -4 -8 5482.87 841.429 16
3 -4 -8 6212.7 954.15 22
3 -4 -7 42317.7 2209.43 16
3 -4 -7 57162 2631.69 22
3 -4 -6 11711.6 1034.64 17
-3 4 6 11036.1 874.73 2
3 -4 -5 26060.6 1352.53 17
-3 4 5 25270.5 1202.51 2
3 -4 -4 -90.3045 302.279 17
-3 4 4 319.168 154.95 2
3 -4 -3 83711.3 1878.31 17
-3 4 3 89546.3 1906.16 2
-3 4 2 193415 2619.93 2
3 -4 -1 4974.01 547.794 18
3 -4 -1 5136.26 577.12 14
-3 4 1 4999.04 424.466 2
3 -4 0 16198.9 1014.91 14
3 -4 0 16405 952.974 18
3 -4 1 1920.13 365.375 18
3 -4 1 1895.65 398.681 14
3 -4 2 95776.1 2586.87 14
3 -4 3 8352.49 823.68 14
3 -4 4 21868.6 1298.25 20
3 -4 4 22909.6 1402.17 14
3 -4 5 38985.4 1852.19 20
3 -4 5 41300.5 2017.86 14
3 -4 6 1064.98 425.148 20
-3 4 -6 976.281 427.293 11
3 -4 6 434.099 337.371 14
-3 4 -6 741.288 414.486 12
-3 4 -7 23827.4 1834.69 11
3 -4 7 28832.6 1829.71 14
3 -4 7 27843.8 1754.34 20
-3 4 -8 435.577 378.116 11
3 -4 8 1126.07 498.765 5
-3 4 -9 2956.07 681.081 11
-3 4 -10 94.2556 303.768 11
3 -3 -12 -72.1777 153.824 16
3 -3 -12 266.777 270.538 22
3 -3 -11 956.107 366.832 16
3 -3 -11 1164.09 453.804 22
3 -3 -10 1524.11 495.928 16
3 -3 -10 844.496 407.449 22
3 -3 -9 554.978 380.338 22
3 -3 -9 723.584 367.252 16
-3 3 8 28543 1694.95 2
3 -3 -8 26919.1 1856.37 22
-3 3 7 137.451 239.712 2
-3 3 6 15108 1058.78 2
3 -3 -5 5596.59 589.576 17
-3 3 5 6824.68 654.043 2
3 -3 -4 18875.4 908.569 17
-3 3 4 19686.7 976.4 2
3 -3 -3 18633.1 793.849 17
-3 3 3 19134.6 884.978 2
-3 3 2 184554 2562.8 2
-3 3 1 841.549 205.684 2
3 -3 -1 1012.14 264.217 14
-3 3 0 1128.56 229.104 2
3 -3 0 1228.48 278.621 14
3 -3 0 974.329 251.808 18
3 -3 1 58531.6 1583.79 18
3 -3 1 59799.1 1696.58 14
3 -3 2 39001.1 1461.03 14
3 -3 3 37351.5 1531.24 14
3 -3 4 4673.66 627.287 14
3 -3 5 16882.9 1269.74 20
3 -3 5 18465.2 1271.66 14
3 -3 6 3801 694.421 20
-3 3 -6 3594.66 703.134 11
3 -3 6 4622.89 707.116 14
3 -3 7 5409.48 853.894 20
-3 3 -7 5475.65 946.537 11
3 -3 7 5940.85 827.714 14
-3 3 -7 5177.88 898.552 12
-3 3 -8 3627.4 812.62 11
3 -3 8 2604.2 654.506 5
-3 3 -8 3553.34 776.86 12
-3 3 -9 330.912 453.735 11
-3 3 -10 1218.41 510.902 11
-3 3 -11 -223.836 263.929 11
3 -2 -12 108.095 179.033 16
3 -2 -12 415.45 306.421 22
3 -2 -11 717.517 367.287 16
3 -2 -11 1066.02 420.889 22
3 -2 -10 -126.807 417.968 22
3 -2 -9 5819.12 892.103 22
-3 2 9 5698.54 909.986 2
-3 2 8 -20.6728 257.965 2
-3 2 7 38132.1 1890.32 2
-3 2 6 14271 1102.48 2
-3 2 5 33610.5 1435.46 2
-3 2 4 3129.81 416.089 2
-3 2 3 74010.6 1696.76 2
-3 2 2 103337 1912.76 2
-3 2 1 362.508 163.579 2
3 -2 -1 340.951 161.257 14
3 -2 -1 503.784 269.936 1
3 -2 0 14860.4 737.119 14
-3 2 0 15996.9 790.925 2
3 -2 1 3925.55 380.363 18
3 -2 1 3414.66 406.559 14
3 -2 2 1087.47 213.605 18
3 -2 2 948.848 275.538 14
3 -2 3 93145.2 2252.47 14
3 -2 4 347.024 219.789 14
3 -2 5 81475.8 2505.79 14
3 -2 6 9238.71 1053.12 20
3 -2 6 10944.2 1007.44 14
3 -2 7 13962.5 1349.53 20
-3 2 -7 17992.8 1614.63 11
-3 2 -7 13479.4 1433.97 12
-3 2 -8 489.585 414.625 11
-3 2 -9 3728.56 779.994 11
-3 2 -9 4770.11 1128.22 12
-3 2 -10 388.215 402.711 11
-3 2 -11 690.889 284.068 11
3 -1 -13 123.022 142.168 16
3 -1 -12 423.139 294.673 16
3 -1 -12 -90.4317 263.172 22
3 -1 -11 1356.42 471.654 22
3 -1 -10 964.884 460.129 22
-3 1 9 5720.17 943.848 2
3 -1 -9 5764.98 912.02 22
-3 1 8 21757.8 1566.73 2
-3 1 7 -85.1691 268.656 2
-3 1 6 3734.95 583.604 2
-3 1 5 1132.87 322.431 2
-3 1 5 1366.59 259.179 20
-3 1 4 59028.5 1405.17 20
-3 1 4 62704.5 1733.87 2
-3 1 3 162134 2504.5 2
-3 1 2 257432 4771.53 1
-3 1 2 258278 3011.99 2
3 -1 -2 264213 4817.4 26
-3 1 1 54884.5 1388.18 2
3 -1 -1 54973.7 2149.14 1
3 -1 0 38741.1 1823.91 1
3 -1 0 37030.2 1177.81 14
-3 1 0 38741.7 2073.52 25
-3 1 0 37883.9 1060.92 23
-3 1 0 37797.4 1224.17 2
-3 1 -1 1671.51 307.128 23
3 -1 1 1856.78 313.282 14
3 -1 1 1659.96 226.62 18
3 -1 2 208.644 190.847 14
3 -1 3 2967.16 431.369 14
3 -1 4 1219.93 343.4 14
3 -1 5 1141.28 330.505 14
3 -1 6 11686.7 988.991 14
3 -1 7 -174.892 350.01 20
-3 1 -7 -525.684 443.327 11
-3 1 -7 303.71 360.819 17
-3 1 -7 -31.7851 328.407 8
-3 1 -8 2748.71 696.654 11
-3 1 -8 1602.8 776.675 12
-3 1 -9 1794.4 594.02 11
-3 1 -9 2062.6 1057.67 12
-3 1 -10 1064.53 449.865 11
-3 1 -10 8496.58 1437.72 12
3 0 -13 -5.26072 146.058 16
3 0 -12 1989.8 482.968 22
3 0 -11 1004.41 398.967 19
3 0 -11 1953.69 545.336 22
3 0 -10 280.718 311.46 22
3 0 -10 708.845 408.622 3
-3 0 9 3715.56 802.614 2
3 0 -9 3740.32 810.515 3
3 0 -9 3743.38 728.355 22
-3 0 8 279.313 229.277 20
-3 0 8 -172.402 350.662 2
-3 0 7 816.265 305.005 20
-3 0 7 395.842 352.833 2
-3 0 6 101988 2974.19 2
-3 0 6 99957.5 2387.08 20
-3 0 5 2885.97 482.876 2
-3 0 5 3211.88 426.631 20
-3 0 4 11103.9 697.127 20
-3 0 4 13035.2 804.522 2
-3 0 3 9487.5 633.665 2
3 0 -3 9016.1 922.966 26
-3 0 3 9558.98 949.857 1
-3 0 3 9568.33 521.945 23
-3 0 2 7164.02 514.102 2
-3 0 2 7400.85 458.745 23
3 0 -2 6680.44 740.535 26
-3 0 2 7035.68 755.973 1
-3 0 1 28780.1 1011.36 2
-3 0 1 29242.4 954.421 23
3 0 -1 28385.5 1456.4 1
-3 0 0 920.226 235.746 2
3 0 0 1016.12 321.95 1
-3 0 0 722.801 201.484 23
-3 0 0 744.541 346.104 25
3 0 1 360.327 210.9 1
-3 0 -1 449.706 218.156 23
-3 0 -2 83933.1 2225.35 23
3 0 3 212463 3514.33 14
-3 0 -4 20412.5 1314.63 17
3 0 4 22392.4 1205.04 14
-3 0 -5 30356.8 1733.95 17
3 0 5 27737.2 1402.91 14
-3 0 -6 260.772 300.87 17
-3 0 -6 -39.8295 411.489 8
3 0 7 2308.59 581.339 20
-3 0 -7 2729.7 700.87 11
-3 0 -8 -73.0003 419.368 11
-3 0 -8 2229.88 978.421 12
-3 0 -9 382.92 373.13 11
-3 0 -9 -1234.99 1043.45 12
-3 0 -10 340.462 313.505 11
-3 0 -10 6430.23 1347.65 12
3 1 -13 71.3798 175.503 16
3 1 -12 149.75 224.28 19
3 1 -12 739.303 336.854 22
3 1 -11 249.648 335.84 3
3 1 -11 79.7445 263.731 22
3 1 -10 10974.2 1309.92 3
3 1 -10 9148.01 1103.76 22
-3 -1 9 1070.09 391.722 20
-3 -1 9 628.222 448.945 2
3 1 -9 803.834 506.114 3
-3 -1 8 1250.8 419.186 20
-3 -1 8 307.509 379.227 2
-3 -1 7 2227.08 480.462 20
-3 -1 7 1846.96 516.887 2
-3 -1 6 5077.23 618.178 20
-3 -1 6 3293.47 641.33 2
-3 -1 5 7846.11 745.735 2
-3 -1 5 7007.62 653.133 20
-3 -1 4 39411.4 1400.12 2
-3 -1 4 36190.9 1362.48 20
-3 -1 3 6906.86 787.252 1
-3 -1 3 7434.59 566.496 2
3 1 -3 7183.56 768.81 26
-3 -1 3 6845.39 534.624 23
-3 -1 2 344597 4862.61 1
-3 -1 2 335345 3744.45 23
3 1 -2 342425 4790.56 26
-3 -1 2 346240 3511.57 2
-3 -1 1 6640.72 508.744 2
-3 -1 1 7329.48 567.72 23
3 1 0 2798.88 451.32 1
-3 -1 0 2427.51 561.39 25
-3 -1 0 2637.56 387.308 23
-3 -1 0 2224.46 359.082 2
3 1 1 11706.2 964.384 1
-3 -1 -1 11053.6 809.362 23
-3 -1 -2 87.9474 133.361 17
-3 -1 -2 152.908 206.23 23
-3 -1 -3 12070.1 846.116 17
-3 -1 -3 10004.6 999.221 23
-3 -1 -4 19848.3 1216.47 17
3 1 4 19080.9 1165.23 14
-3 -1 -5 29931.1 1675.38 17
3 1 5 26344 1402.01 14
-3 -1 -6 -150.854 254.779 11
-3 -1 -6 -304.003 287.645 17
-3 -1 -7 549.145 360.857 11
-3 -1 -7 843.305 385.929 17
-3 -1 -8 2183.51 592.403 11
-3 -1 -8 8624.01 1492.13 12
-3 -1 -9 1263.67 458.015 11
-3 -1 -9 -2759.24 1200.17 12
-3 -1 -10 5656.17 1224.12 12
3 2 -13 117.86 137.183 19
3 2 -12 -12.2209 205.478 22
3 2 -11 2134.52 616.306 3
3 2 -11 1869.84 536.139 22
3 2 -10 5156.45 924.244 3
-3 -2 9 2298.18 556.048 20
3 2 -9 2022.62 661.704 3
-3 -2 9 1674.94 565.894 2
3 2 -8 4579.41 866.505 3
-3 -2 8 3977.46 674.458 20
-3 -2 8 2678.09 702.169 2
-3 -2 7 2225.15 487.173 20
-3 -2 7 2181.06 504.855 2
-3 -2 6 3282.16 529.762 20
-3 -2 6 3135.58 542.57 2
-3 -2 5 1837.58 395.761 2
-3 -2 5 2142.31 457.55 20
-3 -2 4 18144.7 1096.94 20
-3 -2 4 17216.8 926.958 2
-3 -2 3 63613 1607.27 2
-3 -2 3 66522.6 1867.49 23
-3 -2 2 34885.2 1173.04 2
-3 -2 2 37218.2 1391.9 23
-3 -2 1 61665 1827.84 23
-3 -2 1 63472.7 1629.63 2
-3 -2 0 35345 1473.48 23
-3 -2 -1 38915.9 1680.39 23
-3 -2 -2 19685.6 1295.76 23
-3 -2 -3 3768.56 526.006 17
-3 -2 -3 4116.41 653.082 23
-3 -2 -4 10982.6 949.072 17
3 2 4 10739.7 982.236 14
-3 -2 -4 10127.7 1146.47 23
-3 -2 -5 83.0749 241.964 17
-3 -2 -6 941.065 367.2 11
-3 -2 -6 888.582 407.752 17
-3 -2 -7 23653.9 2140.25 12
-3 -2 -8 7671.4 1630.93 12
-3 -2 -9 -2395.28 1189.05 12
-3 -2 -10 5581.62 1057.19 12
3 3 -13 272.606 165.023 19
3 3 -12 39.0105 211.504 3
3 3 -11 1049.71 453.092 3
3 3 -10 26931.1 1969.11 3
3 3 -9 25496.8 1915.3 3
-3 -3 9 22611.4 1576.34 20
-3 -3 8 53.1588 335.012 20
3 3 -8 287.183 327.009 6
3 3 -8 -95.6713 309.283 3
-3 -3 7 1885.32 519.199 20
-3 -3 6 5439.81 780.822 20
-3 -3 5 12413.3 1055.82 20
-3 -3 4 13986.8 1041.38 23
-3 -3 3 6851.04 705.494 23
-3 -3 2 183425 3511.73 23
-3 -3 1 14728 1027.92 23
-3 -3 0 -22.9327 211.782 23
-3 -3 -1 57.5607 242.589 23
-3 -3 -2 231.595 265.639 23
-3 -3 -3 14693.2 1273.89 23
-3 -3 -4 336.925 238.762 17
-3 -3 -4 147.495 254.413 23
-3 -3 -6 7960.94 1527.96 12
-3 -3 -7 32956 2446.15 12
-3 -3 -8 8944.74 1600.08 12
-3 -3 -9 -2019.22 1078.53 12
3 4 -12 2316.65 501.995 3
3 4 -11 -92.8456 276.342 3
3 4 -10 10209.9 1155.99 3
3 4 -9 169.947 343.969 6
3 4 -9 350.965 358.377 3
3 4 -8 18155.4 1547.94 3
-3 -4 8 18662.7 1453.14 20
3 4 -8 18636.6 1635.31 6
3 4 -7 58805.6 2701.12 3
-3 -4 7 66680.6 2711.72 20
3 4 -7 67853.6 3044.73 6
-3 -4 6 219.693 325.871 20
-3 -4 5 260.305 268.284 23
-3 -4 4 4636.03 709.354 23
-3 -4 3 13196.9 1088.97 23
-3 -4 2 13460 1093.04 23
-3 -4 1 17906 1274.47 23
-3 -4 0 76157.8 2708.23 23
-3 -4 -1 1354.77 439.866 23
-3 -4 -2 36187.5 2022.28 23
-3 -4 -3 11713.3 1206.66 23
-3 -4 -4 420.01 366.667 23
-3 -4 -4 374.53 357.045 12
-3 -4 -6 12527 1795.35 12
-3 -4 -7 29317.1 2309.74 12
-3 -4 -8 5990.12 1352.37 12
-3 -4 -9 -1797.41 846.441 12
3 5 -12 158.614 197.206 3
3 5 -11 595.966 313.074 3
3 5 -10 -82.2363 312.322 3
3 5 -10 274.423 253.139 6
3 5 -9 5568.79 871.223 3
3 5 -9 4141.33 758.803 6
3 5 -8 6228.01 906.051 3
3 5 -8 5253.25 865.749 6
3 5 -7 967.647 475.354 6
3 5 -7 673.669 389.071 3
-3 -5 7 638.667 388.578 23
3 5 -6 2052.75 591.576 6
-3 -5 6 2772.74 711.322 23
-3 -5 5 -55.0243 258.741 23
-3 -5 4 11046.6 1151.99 23
-3 -5 3 9021.64 1017.07 23
-3 -5 2 492.24 307.501 23
-3 -5 1 17468.8 1410.13 23
-3 -5 0 6863.37 969.553 23
-3 -5 -1 15061.2 1377.24 23
-3 -5 -2 10925 1065.78 10
-3 -5 -2 10982.7 1223.88 23
-3 -5 -2 12089.5 1300.49 12
-3 -5 -3 362.163 368.51 23
-3 -5 -3 -10.7341 280.324 12
-3 -5 -4 36205.4 1841.23 10
-3 -5 -4 3270.18 740.36 12
-3 -5 -6 23846.6 2049.57 12
-3 -5 -7 26848.1 1980.12 12
-3 -5 -8 693.251 830.479 12
3 6 -11 944.452 302.859 3
3 6 -10 -14.5072 252.417 3
3 6 -10 27.8381 207.905 6
3 6 -9 232.825 295.406 6
3 6 -9 34.2912 217.418 3
3 6 -8 4670.95 775.683 3
3 6 -8 3800.26 731.733 6
3 6 -7 13018.9 1379.83 6
3 6 -6 182.684 331.637 6
-3 -6 6 -234.149 261.231 5
-3 -6 6 241.756 294.913 15
-3 -6 6 105.803 237.398 23
-3 -6 5 7915.55 1012.88 5
-3 -6 5 8966.79 1000.18 15
-3 -6 5 9795.59 1177.66 23
-3 -6 4 22825.7 1589.18 15
-3 -6 4 22459 1759.48 23
-3 -6 3 4668.12 747.809 15
-3 -6 3 4365.57 830.814 23
-3 -6 2 15058 1331.6 15
-3 -6 2 15917.5 1497.36 23
-3 -6 1 1242.64 457.47 15
-3 -6 1 1624.95 535.975 23
-3 -6 0 22072.4 1617.53 15
-3 -6 0 18365.7 1696.02 23
-3 -6 -1 772.413 441.548 12
-3 -6 -1 315.128 333.332 23
-3 -6 -2 4763.09 857.283 12
-3 -6 -2 3849.78 777.727 23
-3 -6 -3 30361.5 1761.13 10
-3 -6 -3 1097.53 466.098 12
-3 -6 -5 -251.804 1043.95 12
-3 -6 -6 35044 2136.81 12
-3 -6 -7 11597.5 1308.33 12
3 7 -10 -72.6244 157.656 3
3 7 -10 -179.65 193.959 6
3 7 -9 144.795 260.52 6
3 7 -8 -153.471 334.834 6
3 7 -7 1704 517.804 6
3 7 -6 319.098 324.666 6
-3 -7 6 198.209 252.744 15
3 7 -5 637.742 342.654 6
-3 -7 5 599.453 360.862 15
3 7 -4 2470.45 607.09 6
-3 -7 4 1999.17 528.228 15
-3 -7 3 12670.5 1222.33 15
-3 -7 3 11583.2 1370.64 23
3 7 -3 12053.8 1369.6 6
-3 -7 2 24418 1709.88 15
-3 -7 2 23180.2 1906.96 23
-3 -7 1 47.7783 264.144 15
-3 -7 1 -277.071 324.877 23
-3 -7 0 1971.19 584.01 15
-3 -7 -1 3546.92 775.281 12
-3 -7 -1 3291.61 669.779 15
-3 -7 -2 532.535 435.418 12
-3 -7 -2 24529.2 1538.76 10
-3 -7 -3 2672.47 720.952 12
-3 -7 -5 10380.1 1341.65 12
-3 -7 -6 27556.9 1565.96 12
3 8 -9 281.765 222.856 6
3 8 -8 368.411 263.662 6
3 8 -7 1088.75 428.158 6
3 8 -6 1557.89 494.586 6
-3 -8 6 1671.92 422.11 15
3 8 -5 101.743 260.077 6
-3 -8 5 173.664 232.486 15
-3 -8 4 13662.9 1196.48 15
3 8 -4 12578.8 1261.62 6
-3 -8 3 9257.24 1017.29 15
-3 -8 2 8322.49 983.97 15
-3 -8 1 11891.4 1184.15 15
-3 -8 0 563.463 435.683 12
-3 -8 0 1561.84 482.288 15
-3 -8 -1 3992.25 839.214 12
-3 -8 -2 -103.851 316.739 12
-3 -8 -4 5044.62 901.208 12
3 9 -8 105.593 159.697 6
3 9 -7 312.39 256.339 6
3 9 -6 991.793 346.579 6
3 9 -5 -27.3841 213.277 6
-3 -9 5 249.327 228.796 15
-3 -9 4 1127.94 377.767 15
-3 -9 3 916.908 359.518 15
-3 -9 2 10376 979.349 15
-3 -9 1 10053.5 949.389 15
-3 -9 1 4058.84 797.847 12
-3 -9 0 -70.9032 298.659 12
-3 -9 0 197.739 257.086 15
-3 -9 -1 776.053 383.33 12
-3 -9 -3 1366.97 562.853 12
-3 -10 5 769.681 261.179 13
-3 -10 4 56.0394 133.898 13
-3 -10 3 -80.5744 222.697 12
-3 -10 2 290.032 257.2 12
-3 -10 1 55.7242 185.558 12
-3 -10 0 175.963 194.889 12
4 -11 -3 81.2289 219.026 10
4 -11 -3 704.293 255.263 15
4 -11 -2 1295.29 355.299 15
4 -11 -1 3631.18 553.492 15
4 -11 0 63.4349 185.695 15
4 -11 1 244.034 190.949 15
4 -11 2 171.286 158.355 15
4 -10 -5 -722.324 357.229 10
4 -10 -4 -173.34 236.32 15
4 -10 -3 814.608 396.381 15
4 -10 -2 5458.94 854.156 15
4 -10 -1 2427.31 611.784 15
4 -10 0 3853.14 707.17 15
4 -10 1 9383.97 1020.16 15
-4 10 -1 10065.8 1041.57 7
4 -10 2 5160.28 705.135 15
-4 10 -2 5002.27 748.644 7
4 -10 3 200.674 202.202 5
4 -10 4 75.6125 160.552 5
4 -10 5 44.1166 156.898 5
4 -10 6 47.3801 118.539 5
4 -9 -7 824.06 315.268 10
4 -9 -6 516.292 260.78 16
4 -9 -6 309.546 306.537 10
4 -9 -5 1605.82 423.972 16
4 -9 -5 952.165 413.386 15
4 -9 -4 377.373 339.372 16
4 -9 -4 -75.3436 261.039 15
4 -9 -3 997.354 423.399 16
4 -9 -3 445.062 368.992 15
4 -9 -2 1490.61 516.591 16
4 -9 -2 1430.84 525.302 15
4 -9 -1 6093.15 931.582 15
-4 9 1 5420.31 958.332 7
4 -9 0 11235.3 1214.79 15
-4 9 0 9907.3 1248.72 7
4 -9 1 86.0155 273.127 15
-4 9 -1 -5.24977 343.519 7
4 -9 2 585.497 344.045 15
4 -9 2 -127.989 211.775 5
-4 9 -2 28.6852 279.009 7
4 -9 3 3380.34 679.128 5
-4 9 -3 3117.01 663.584 7
4 -9 4 310.884 279.988 5
-4 9 -4 237.703 273.689 7
4 -9 5 258.081 239.166 5
4 -9 6 264.175 241.112 5
4 -9 7 247.316 181.654 5
4 -8 -8 -210.151 196.283 16
4 -8 -7 2520.58 477.447 16
4 -8 -7 1234.02 475.147 10
4 -8 -6 363.309 279.974 16
4 -8 -5 1802.11 477.402 16
4 -8 -5 1264.17 496.545 15
4 -8 -4 7403.36 902.274 16
4 -8 -4 5560.54 951.489 15
4 -8 -3 4258.05 701.54 16
4 -8 -2 19090.2 1448.48 16
4 -8 -2 18812.9 1650.1 21
4 -8 -1 6900.01 916.411 16
4 -8 -1 7886.9 1109.57 21
4 -8 0 24643.9 1902.01 21
4 -8 1 52248.8 2484.38 15
4 -8 1 52492.4 2725.98 21
4 -8 2 1537.37 536.649 15
4 -8 2 3226.85 621.029 9
4 -8 2 2877.08 657.026 5
-4 8 -2 2815.39 707.112 7
4 -8 3 4384.18 827.801 5
4 -8 3 3733.33 672.635 9
-4 8 -3 3330.61 756.409 7
4 -8 4 -398.477 363.618 5
-4 8 -4 -138.348 334.692 7
-4 8 -5 3682.59 737.065 7
4 -8 5 4287.33 822.605 5
4 -8 6 84.0183 247.823 5
4 -8 7 331.37 252.941 5
4 -8 8 497.769 213.044 5
-4 8 -8 263.995 198.087 3
4 -7 -9 157.87 194.291 16
4 -7 -9 11317.9 1473.58 22
4 -7 -8 1420.51 377.016 16
4 -7 -8 5850.2 1574.33 22
4 -7 -7 5.16555 262.176 16
4 -7 -7 2066.68 1495.26 22
4 -7 -6 3107.04 637.914 16
4 -7 -6 9314.83 1824.18 22
4 -7 -5 6058.75 832.151 16
4 -7 -5 18990.4 1977.81 22
4 -7 -4 655.278 367.001 16
4 -7 -3 2726.47 549.829 18
4 -7 -3 1978.26 501.404 16
4 -7 -2 3766.84 642.744 18
4 -7 -2 3740.58 661.088 16
4 -7 -2 4318.74 807.999 21
4 -7 -1 23188.5 1520.01 16
4 -7 -1 22052.6 1761.06 21
4 -7 0 17885.5 1388.12 16
4 -7 0 17627.1 1289.29 9
4 -7 0 17611.7 1548.17 21
4 -7 1 444.742 285.553 9
4 -7 1 527.484 366.256 21
4 -7 2 1202.37 456.191 9
4 -7 2 1331.1 490.082 5
4 -7 2 1246.36 482.924 21
4 -7 3 1639.62 507.082 9
4 -7 3 1096.11 487.036 5
-4 7 -3 1517.79 542.783 7
4 -7 3 1569.12 487.666 21
4 -7 4 4447.64 867.478 5
4 -7 4 3203.86 765.437 9
-4 7 -4 3772.43 742.467 7
4 -7 4 4473.04 801.323 21
4 -7 5 370.146 376.915 5
-4 7 -5 435.073 335.599 7
4 -7 6 -231.365 366.608 5
4 -7 7 -370.201 333.653 5
4 -7 8 -198.229 202.899 5
4 -6 -10 49.4447 162.883 16
4 -6 -9 955.681 365.54 16
4 -6 -8 1135.12 406.604 16
4 -6 -7 6670.45 902.225 16
4 -6 -6 1354.55 456.565 16
4 -6 -5 -95.0823 290.673 16
4 -6 -4 26090.2 1613.73 16
4 -6 -4 23692.3 1498.37 18
4 -6 -3 13090.8 1105.77 18
4 -6 -2 26471.2 1536.94 18
4 -6 -2 30491.5 1974.24 21
4 -6 -1 17129.2 1237.73 18
4 -6 0 1976.54 465.805 18
4 -6 2 6666.63 895.3 14
4 -6 3 708.801 354.748 9
4 -6 3 100.333 382.161 14
4 -6 3 628.356 505.093 5
-4 6 -3 1264.72 500.345 7
4 -6 3 715.456 397.405 21
4 -6 4 3905.08 711.281 9
4 -6 4 2734.15 624.868 14
4 -6 4 3588.88 698.878 21
4 -6 4 3576.65 895.673 5
-4 6 -4 3786.01 778.485 7
4 -6 5 20264.1 1818.09 5
-4 6 -5 19636.4 1632.92 7
4 -6 6 2734.78 719.167 5
-4 6 -7 228.376 234.672 11
4 -6 7 357.587 327.873 5
-4 6 -8 874.987 336.434 11
4 -6 8 0.44116 275.791 5
4 -6 9 -130.654 167.966 5
4 -5 -11 225.536 187.28 16
4 -5 -10 4707.68 674.046 16
4 -5 -9 1109.92 418.174 16
4 -5 -8 7228.83 972.48 16
4 -5 -8 8322.06 1056.04 22
4 -5 -7 4115.35 725.478 16
4 -5 -6 13794.2 1272.13 16
4 -5 -5 5926.72 757.629 18
4 -5 -4 1639.9 420.593 18
4 -5 -3 6388.65 748.217 18
4 -5 -2 27880 1467.37 18
4 -5 -1 14802.5 1068.51 18
4 -5 0 9953.77 881.414 18
4 -5 0 9109.54 900.976 14
4 -5 1 21954.9 1314.48 18
4 -5 1 20974.3 1388.58 14
4 -5 2 872.219 402.488 14
4 -5 3 491.836 375.429 14
4 -5 4 133.596 229.461 9
4 -5 4 49.3796 292.106 14
-4 5 -4 66.9914 320.865 7
-4 5 -5 -103.129 266.095 11
4 -5 5 81.8857 276.049 9
4 -5 5 -113.563 378.045 14
-4 5 -5 388.412 302.491 7
-4 5 -6 24329.4 1744.11 11
4 -5 6 20701.9 1827.42 5
-4 5 -7 1696.42 486.884 11
4 -5 7 1696.4 591.531 5
-4 5 -8 416.921 312.37 11
4 -5 8 -0.50246 250.271 5
-4 5 -9 21.5619 246.154 11
4 -5 9 -525.581 255.149 5
4 -4 -12 -151.752 154.025 16
4 -4 -11 223.494 244.082 16
4 -4 -10 985.58 376.95 16
4 -4 -9 188.171 295.94 16
4 -4 -8 3322.29 727.609 16
4 -4 -7 1392.62 459.971 16
-4 4 7 1499.35 391.363 2
-4 4 6 802.006 286.378 2
-4 4 5 9791.53 803.537 2
-4 4 4 4540.3 522.848 2
-4 4 3 21948.7 1090.67 2
-4 4 2 12966.4 833.707 2
4 -4 -1 131770 2926.53 18
4 -4 -1 135422 2839.76 14
-4 4 1 125390 2625.71 2
4 -4 0 24352.8 1246.31 18
4 -4 0 22928.7 1257.59 14
4 -4 1 38578.1 1558.17 18
4 -4 1 35669.2 1597.61 14
4 -4 2 98.0038 272.539 14
4 -4 3 9445.72 938.863 14
4 -4 4 17871.5 1345.38 14
-4 4 -5 20997 1605.7 11
4 -4 5 18390.5 1365.68 9
4 -4 5 21896.4 1546.95 14
4 -4 6 2664.84 625.66 20
-4 4 -6 3029.91 670.805 11
4 -4 6 3498.01 708.228 14
-4 4 -7 11185.8 1215.56 11
-4 4 -8 179.614 338.052 11
4 -4 8 41.6393 303.676 5
-4 4 -9 918.05 404.309 11
4 -4 9 18.1603 191.37 5
-4 4 -10 -512.297 286.562 11
4 -3 -12 48.0052 172.378 16
4 -3 -11 1110.25 425.179 16
4 -3 -10 5101.26 857.223 16
4 -3 -9 1197.48 488.779 16
4 -3 -8 12869.4 1349.18 16
-4 3 8 14079 1198.17 2
4 -3 -7 69.8399 263.795 16
-4 3 7 87.568 189.371 2
-4 3 6 11548.4 956.987 2
-4 3 5 18629 1093.08 2
-4 3 4 -30.8494 174.93 2
-4 3 3 122236 2504.04 2
-4 3 2 193867 3177.35 2
4 -3 -1 5401.95 527.578 14
-4 3 1 5557.54 560.461 2
4 -3 0 5371.35 556.06 18
4 -3 0 4737.89 535.464 14
-4 3 0 4148.21 553.12 2
4 -3 1 27072.9 1190.79 18
4 -3 1 26719.9 1285.17 14
4 -3 2 -13.7983 210.787 14
4 -3 3 412.548 307.537 14
4 -3 4 15571.7 1187.41 14
4 -3 5 7623.24 941.241 20
-4 3 -5 10032.4 1143.05 11
4 -3 5 12189.2 1121.49 14
-4 3 -5 11594.3 1321.98 13
-4 3 -6 88361.9 3391.1 11
4 -3 6 91045.4 3150.05 14
-4 3 -6 80026.4 3066.17 8
-4 3 -6 91658.2 3493.81 12
-4 3 -7 7122.08 1024.93 11
-4 3 -7 6513.29 960.448 12
-4 3 -8 1498.51 576.813 11
-4 3 -8 -164.85 559.135 12
-4 3 -9 1764.6 540.223 11
-4 3 -10 -149.81 271.091 11
4 -2 -12 -41.5873 215.093 16
4 -2 -11 933.932 442.666 16
4 -2 -10 -33.2315 366.782 16
4 -2 -9 1336.29 464.532 19
-4 2 9 2714.93 603.979 2
4 -2 -8 3328.44 690.342 19
-4 2 8 2617.98 588.042 2
-4 2 7 7753.51 859.395 2
-4 2 6 18777.1 1203.48 2
-4 2 5 4997.69 603.405 2
-4 2 4 169556 3030.25 2
-4 2 3 44684.3 1529.6 2
-4 2 2 50546.2 1604.72 2
4 -2 -1 10994.8 699.697 14
-4 2 1 10933.9 778.419 2
4 -2 0 131334 2551.33 14
-4 2 0 133910 2902.21 2
4 -2 1 1599.85 288.26 18
4 -2 1 1753.4 371.594 14
4 -2 2 314.701 240.376 14
4 -2 3 30736.3 1484.08 14
4 -2 4 -27.1925 245.767 14
-4 2 -5 14268.3 1335.53 11
4 -2 5 16126.1 1241.33 14
4 -2 6 -470.742 444.662 20
-4 2 -6 -54.3128 273.242 11
4 -2 6 -52.8166 211.049 14
-4 2 -6 72.6367 299.349 8
-4 2 -6 -748.135 658.855 12
-4 2 -7 -249.87 394.904 11
-4 2 -7 30.3146 307.393 8
-4 2 -8 13604.8 1352.53 11
-4 2 -8 11172.9 1276.38 12
-4 2 -9 643.821 433.805 11
-4 2 -9 3875.39 1098.87 12
-4 2 -10 287.587 293.465 11
4 -1 -13 10.5982 135.205 16
4 -1 -12 937.151 367.957 16
4 -1 -11 1940.93 506.954 19
4 -1 -10 4250.87 819.032 19
4 -1 -9 -315.191 346.012 19
-4 1 9 55.9465 319.965 2
4 -1 -8 13445 1371.19 19
-4 1 8 14297.3 1275.92 2
-4 1 7 1049.93 385.69 2
-4 1 6 23259 1356.55 2
-4 1 5 12969 945.095 2
-4 1 4 252.666 243.507 2
-4 1 3 4209.22 500.121 2
-4 1 2 6951.7 607.248 2
4 -1 -2 6846.78 565.45 14
4 -1 -1 31624.9 1259.41 14
-4 1 1 31520.6 1296.36 2
4 -1 0 32468 1328.43 14
-4 1 0 32676.1 1212.46 23
-4 1 0 31275.9 1398.71 2
4 -1 1 30566 1360.61 14
-4 1 -1 31240.4 1353.57 23
4 -1 2 910.95 314.112 14
4 -1 3 896.725 300.959 14
4 -1 4 13007.1 1016.31 14
-4 1 -5 6956.97 1013.35 11
4 -1 5 8205.59 873.542 14
-4 1 -5 10124.3 1189.8 8
-4 1 -6 2205.96 621.648 11
4 -1 6 1764.06 425.476 14
-4 1 -6 1199.15 450.869 8
-4 1 -7 3851.24 788.187 11
-4 1 -7 2107.17 641.565 8
-4 1 -7 3795.96 877.065 12
-4 1 -8 53.3569 418.507 11
-4 1 -8 -743.927 796.595 12
-4 1 -9 1666.12 518.856 11
-4 1 -9 3079.89 1122.28 12
-4 1 -10 475.816 290.536 11
4 0 -13 17.8103 134.536 16
4 0 -12 1076.49 359.853 19
4 0 -12 968.952 380.249 16
4 0 -11 4.24937 274.151 19
4 0 -10 2383.54 647.095 19
4 0 -9 2433.17 675.596 3
-4 0 9 2185.65 613.997 2
-4 0 8 186.506 313.761 2
4 0 -8 -304.126 341.075 3
-4 0 7 11060.7 1061.81 2
-4 0 7 11497.1 947.725 20
-4 0 6 63122.9 2071.26 20
-4 0 6 69108.5 2335.87 2
-4 0 5 9642.6 823.946 2
-4 0 4 91648.9 2265.38 2
-4 0 3 11083.7 778.261 2
-4 0 2 81496.6 2044.91 2
-4 0 2 82070.7 1853.31 23
-4 0 1 8993.35 666.293 23
-4 0 1 9781.69 743.022 2
-4 0 0 14829.7 998.591 2
-4 0 0 14606.4 926.64 23
-4 0 -1 41187.6 1624.06 23
4 0 2 17585.9 1141.16 14
-4 0 -2 17440.3 1173.98 23
4 0 3 7029.11 760.058 14
4 0 4 5412.77 687.903 14
-4 0 -5 622.658 368.528 11
4 0 5 505.27 256.709 14
-4 0 -5 913.529 443.634 8
-4 0 -6 2626.58 662.304 11
-4 0 -6 1555.89 583.492 8
-4 0 -7 -762.544 480.095 11
-4 0 -7 6226.27 1157.82 12
-4 0 -8 2307.9 612.524 11
-4 0 -8 863.641 923.408 12
-4 0 -9 572.695 351.608 11
-4 0 -9 591.641 1020.27 12
-4 0 -10 6853.34 1032.11 12
4 1 -13 -36.6915 160.508 16
4 1 -12 -53.4854 192.956 19
4 1 -11 1477.96 461.299 19
4 1 -10 638.671 570.233 3
4 1 -9 2820.02 764.728 3
-4 -1 9 3363.02 687.47 2
-4 -1 8 85.8012 284.144 20
4 1 -8 -424.208 310.534 6
4 1 -8 781.206 444.534 3
-4 -1 8 167.923 357.467 2
-4 -1 7 6162.55 815.678 2
-4 -1 7 5262.49 715.932 20
-4 -1 6 18391.1 1241.3 2
-4 -1 6 19184.1 1250.53 20
-4 -1 5 3.59943 146.032 23
-4 -1 5 234.569 281.956 2
-4 -1 4 25447.7 1224.07 2
-4 -1 4 24675.3 1135.36 23
-4 -1 3 35731.4 1382.35 2
-4 -1 3 33422.8 1308.68 23
-4 -1 2 23169.9 1131.18 2
-4 -1 2 23955.7 1139.55 23
-4 -1 1 17413.8 1042.05 2
-4 -1 1 18548.9 1062.24 23
-4 -1 0 51.6222 176.616 23
-4 -1 -1 27997.1 1475.35 23
-4 -1 -2 18921 1311.84 23
4 1 3 991.685 334.841 14
-4 -1 -3 755.238 392.259 23
4 1 4 21021.2 1383.18 14
-4 -1 -5 6570.88 989.862 11
-4 -1 -5 7671.45 1072.51 8
-4 -1 -6 223.551 271.876 11
-4 -1 -6 16754.3 1817.42 12
-4 -1 -7 -792.091 440.243 11
-4 -1 -7 11275 1588.17 12
-4 -1 -8 141.355 354.44 11
-4 -1 -8 185.237 1043.45 12
-4 -1 -9 840.352 321.773 11
-4 -1 -9 1280.29 1029.66 12
4 2 -13 53.5105 133.289 19
4 2 -12 1091.17 403.756 19
4 2 -10 2159.16 680.656 3
-4 -2 9 -813.993 380.173 20
4 2 -9 379.85 325.519 6
4 2 -9 -107.645 376.715 3
-4 -2 9 39.2057 340.731 2
4 2 -8 10795.1 1262.35 3
-4 -2 8 12541.1 1138.16 2
-4 -2 8 10517.1 1091.72 20
4 2 -8 11966.8 1362.66 6
-4 -2 7 255.111 291.941 20
-4 -2 7 459.503 362.694 2
-4 -2 6 34590.1 1681.19 2
-4 -2 6 36811.7 1780.73 23
-4 -2 5 8027.43 770.33 2
-4 -2 5 9083.71 839.377 23
-4 -2 4 60679.9 1895.77 2
-4 -2 4 64852.8 2095.91 23
-4 -2 3 55763.1 1813.51 2
-4 -2 3 57631.7 1947.42 23
-4 -2 2 59.5196 179.693 2
-4 -2 2 123.766 207.479 23
-4 -2 1 65099.1 2155.62 2
-4 -2 1 68594.8 2267.2 23
-4 -2 0 56955.7 2210.84 23
-4 -2 -1 -56.0785 240.489 23
-4 -2 -2 18874.3 1441.52 23
-4 -2 -3 439.778 370.204 23
-4 -2 -4 11096 1243.2 8
-4 -2 -4 8472.6 1249.19 12
-4 -2 -5 -29.159 219.256 11
-4 -2 -5 3423.22 1188.6 12
-4 -2 -6 2500.86 605.599 11
-4 -2 -6 21160.1 2096.37 12
-4 -2 -7 312.579 297.541 11
-4 -2 -7 19536.3 2009.88 12
-4 -2 -8 75.4272 1041.69 12
-4 -2 -9 53.4262 860.03 12
4 3 -12 -11.958 181.69 19
4 3 -11 205.43 293.235 3
4 3 -10 216.695 337.923 3
4 3 -9 398.014 358.546 6
4 3 -9 62.7294 328.57 3
4 3 -8 458.872 341.26 6
4 3 -8 197.242 265.562 3
4 3 -7 1954.1 618.712 6
4 3 -7 2206.32 580.132 3
-4 -3 7 2472.12 560.575 23
-4 -3 6 171.054 286.181 23
-4 -3 5 5035.72 713.551 23
-4 -3 4 1968.47 452.549 23
-4 -3 3 4866 666.256 23
-4 -3 2 12949.5 1066.87 23
-4 -3 1 64214.9 2431.55 23
-4 -3 0 7.99834 251.292 23
-4 -3 -1 100057 3363.4 23
-4 -3 -2 6965.51 972.418 23
-4 -3 -3 12834.9 1333.39 23
-4 -3 -3 11812.4 1261.09 12
4 3 4 22.712 182.947 14
-4 -3 -5 397.356 298.373 11
-4 -3 -5 1219.98 1090.85 12
-4 -3 -6 25032.7 2224.16 12
-4 -3 -7 16792.2 1974.83 12
-4 -3 -8 -1120.78 1060.44 12
4 4 -12 1096.89 324.218 19
4 4 -11 -126.478 230.305 3
4 4 -10 2141.41 513.679 6
4 4 -10 2464.36 561.953 3
4 4 -9 -19.0203 317.353 6
4 4 -9 75.5589 279.279 3
4 4 -8 15799.2 1400.76 3
-4 -4 8 11602.5 1185.53 23
4 4 -8 14022.4 1445.47 6
4 4 -7 24839.4 1735.63 3
-4 -4 7 25243.4 1754.32 23
4 4 -7 21877.9 1797.84 6
-4 -4 6 50629.1 2447.15 23
4 4 -6 46646.8 2570.61 6
-4 -4 5 3742.97 682.096 23
-4 -4 4 34721.1 1954.01 23
-4 -4 3 470.226 313.503 23
-4 -4 2 6823.61 895.617 23
-4 -4 1 1646.79 493.556 23
-4 -4 0 39824.3 2234.12 23
-4 -4 -1 31970.8 2056.04 23
-4 -4 -2 21948.4 1730.22 23
-4 -4 -2 22886 1768.82 12
-4 -4 -3 3079.15 723.071 23
-4 -4 -3 2722.03 706.043 12
-4 -4 -5 2036.8 1176.65 12
-4 -4 -6 29380.5 2250.75 12
-4 -4 -7 10428.4 1544.65 12
-4 -4 -8 -1780.23 880.7 12
4 5 -11 415.37 279.524 19
4 5 -11 436.243 305.382 3
4 5 -10 2100.92 529.622 3
4 5 -10 1792.27 461.394 6
4 5 -9 342.673 337.419 6
4 5 -9 805.362 368.356 3
4 5 -8 12509 1193.64 3
4 5 -8 9164.45 1123.57 6
4 5 -7 2655.04 686.484 6
-4 -5 6 24213 1815.57 23
4 5 -6 21395.4 1691.07 6
-4 -5 5 12893.4 1330.48 15
-4 -5 5 17221.3 1525.15 23
4 5 -5 13838.6 1355.68 6
4 5 -4 3124.91 671.198 6
-4 -5 4 2984.13 642.326 15
-4 -5 4 2765.84 655.081 23
-4 -5 3 519.113 320.878 15
-4 -5 3 190.691 291.343 23
-4 -5 2 5339.25 794.207 15
-4 -5 2 6838.04 977.887 23
-4 -5 1 7497.3 912.938 15
-4 -5 1 9501.95 1142.17 23
-4 -5 0 8052.91 921.204 15
-4 -5 0 8531.23 1062.57 13
-4 -5 0 8878.79 1151.91 23
-4 -5 -1 30408.2 2111.9 23
-4 -5 -1 32543 2153.62 12
-4 -5 -2 6499.87 1014.39 23
-4 -5 -2 7329.14 1070.51 12
-4 -5 -3 5647.26 963.073 12
-4 -5 -5 10394.4 1505.05 12
-4 -5 -6 33582.2 2077.6 12
-4 -5 -7 2791.77 997.515 12
4 6 -10 482.05 281.045 6
4 6 -10 110.805 163.83 19
4 6 -10 348.555 221.751 3
4 6 -9 1954.84 516.843 6
4 6 -8 569.122 356.597 6
4 6 -7 1155.27 445.701 6
4 6 -6 -61.6857 302.177 6
4 6 -5 1516.3 528.349 6
-4 -6 5 1552.62 538.241 15
4 6 -4 1732.36 574.457 6
-4 -6 4 1971.07 568.52 15
-4 -6 4 3056.25 733.549 23
-4 -6 3 9.28361 219.47 15
-4 -6 3 -208.778 313.61 23
-4 -6 2 4719.13 807.834 15
-4 -6 2 5658.71 981.5 23
-4 -6 1 2255.45 561.206 15
-4 -6 1 1869.79 575.565 23
-4 -6 1 2502.62 608.693 13
-4 -6 0 3992.83 725.624 15
-4 -6 0 4937.79 931.217 12
-4 -6 -1 488.585 412.971 12
-4 -6 -2 177.901 344.334 12
-4 -6 -3 3002.45 572.87 12
-4 -6 -4 -883.558 1014.4 12
-4 -6 -5 21404.9 1706.49 12
-4 -6 -6 14597 1417.9 12
4 7 -10 4.50615 156.528 6
4 7 -9 313 258.669 6
4 7 -8 -26.429 242.267 6
4 7 -7 66.4935 224.433 6
4 7 -6 1571.32 476.687 6
4 7 -5 4236.66 772.299 6
4 7 -4 -336.788 344.001 6
-4 -7 4 -53.8557 283.206 15
-4 -7 3 724.183 413.447 15
-4 -7 2 2633.79 613.881 15
-4 -7 2 1912.68 663.75 13
-4 -7 1 2220.22 582.909 15
-4 -7 1 1442.58 522.479 13
-4 -7 0 1867.81 668.724 12
-4 -7 0 2504.63 592.698 15
-4 -7 -1 -302.534 393.945 12
-4 -7 -2 2363.19 640.783 12
-4 -7 -4 9303.96 1154.12 12
-4 -7 -5 26685.1 1497.42 12
4 8 -9 148.379 176.132 6
4 8 -8 1149.46 339.046 6
4 8 -7 181.535 260.973 6
4 8 -6 1937.41 492.533 6
4 8 -5 491.928 320.258 6
-4 -8 3 816.516 404.896 15
-4 -8 3 1075.54 436.099 13
-4 -8 2 8004.67 926.957 15
-4 -8 2 8348.04 1019.1 13
-4 -8 1 4374.85 827.769 12
-4 -8 0 -41.5719 297.453 12
-4 -8 -1 1162.21 492.641 12
-4 -8 -3 3279.84 747.546 12
-4 -9 7 265.408 195.51 13
4 9 -6 794.032 255.679 6
-4 -9 6 743.02 298.859 13
-4 -9 5 105.848 200.63 13
-4 -9 4 2686.08 496.065 13
-4 -9 3 -410.032 317.257 12
-4 -9 3 21.3682 160.311 13
-4 -9 2 169.901 283.558 12
-4 -9 1 -161.782 271.533 12
-4 -9 0 1462.19 445.356 12
5 -11 -2 -41.0975 150.151 15
5 -11 -1 -169.484 177.114 15
5 -11 0 151.146 164.575 15
5 -11 1 305.517 162.026 15
5 -10 -5 1510.3 390.122 10
5 -10 -5 1831.65 367.853 15
5 -10 -4 295.929 220.895 15
5 -10 -3 231.073 263.927 15
5 -10 -2 367.65 306.555 15
5 -10 -1 7.45159 223.767 15
-5 10 1 -152.516 266.091 7
5 -10 0 9.57721 222.423 15
-5 10 0 359.879 309.114 7
5 -10 1 2008.27 466.855 15
-5 10 -1 1946.49 477.141 7
-5 10 -2 2296.81 500.964 7
5 -10 4 1036.27 268.698 5
5 -9 -7 774.832 254.369 16
5 -9 -6 1450.73 372.825 16
5 -9 -5 452.8 296.102 16
5 -9 -5 418.64 294.444 15
5 -9 -4 1293.36 440.539 16
5 -9 -4 752.046 388.514 15
5 -9 -3 93.9777 283.542 16
5 -9 -3 -45.4473 255.837 15
5 -9 -2 2731.76 671.405 15
5 -9 -1 1839.75 540.705 15
5 -9 0 1520.94 536.67 15
-5 9 0 2036.24 589.333 7
5 -9 1 240.217 259.709 15
5 -9 1 142.374 195.036 9
-5 9 -1 83.8633 276.313 7
5 -9 2 397.625 287.405 9
-5 9 -2 128.827 271.966 7
5 -9 3 1746.52 434.23 5
-5 9 -3 2241.39 544.642 7
5 -9 4 -138.89 202.357 5
-5 9 -4 58.8453 200.837 7
5 -9 5 1007.75 342.826 5
5 -9 6 363.541 205.533 5
5 -8 -8 102.085 175.408 16
5 -8 -7 2686.7 507.329 16
5 -8 -6 264.198 311.798 16
5 -8 -5 1724.54 511.068 16
5 -8 -5 526.842 330.756 15
5 -8 -4 1170.92 439.748 16
5 -8 -3 2551.83 592.703 16
5 -8 -2 84.5054 312.123 16
5 -8 -1 -59.2811 294.813 16
5 -8 0 11691.4 1089.21 9
5 -8 1 9497.78 1034.77 15
5 -8 1 12488.8 1161.34 9
5 -8 2 3780.26 705.33 5
5 -8 2 4121.26 738.098 9
-5 8 -2 4499.63 822.966 7
5 -8 3 863.368 377.669 9
5 -8 3 737.973 375.515 5
-5 8 -3 1011.57 447.72 7
5 -8 4 688.218 332.521 5
-5 8 -4 741.887 385.385 7
5 -8 5 722.275 357.061 5
5 -8 6 -11.9893 213.156 5
5 -8 7 -36.3851 151.952 5
5 -7 -9 235.21 214.363 16
5 -7 -8 1429.68 407.181 16
5 -7 -7 -22.9079 277.388 16
5 -7 -6 2951.09 621.446 16
5 -7 -5 2341.24 559.936 16
5 -7 -4 2338.91 550.622 16
5 -7 -3 9285.67 1020.97 18
5 -7 -3 10724.9 1104.42 16
5 -7 -2 22656 1572.21 18
5 -7 -2 24501.6 1615.87 16
5 -7 -2 20964.2 1444.33 9
5 -7 -2 22329 1803.69 21
5 -7 -1 9289.32 1021.41 16
5 -7 -1 9220.12 975.85 9
5 -7 -1 8533.72 1127.14 21
5 -7 0 24596 1628.07 9
5 -7 0 26958.3 1975.21 21
5 -7 1 -8.03135 226.178 9
5 -7 1 169.335 286.733 21
5 -7 2 33339.6 2179.38 5
5 -7 2 39150.8 2118.48 9
-5 7 -2 35495.5 2338.09 7
5 -7 2 31251.9 2100.44 21
5 -7 3 21790.9 1790.98 5
5 -7 3 25078.4 1709.71 9
-5 7 -3 23035 1823.04 7
5 -7 4 -8.7773 270.884 9
5 -7 4 -83.9884 394.448 5
-5 7 -4 139.152 294.221 7
5 -7 5 2550.11 622.93 5
-5 7 -5 2048.77 552.162 7
5 -7 6 798.974 385.803 5
5 -7 7 -329.178 270.974 5
5 -7 8 79.4681 141.717 5
5 -6 -10 38.7038 206.781 16
5 -6 -9 2691.48 534.471 16
5 -6 -8 4890.83 773.893 16
5 -6 -7 5071.19 846.642 16
5 -6 -6 -21.9033 314.497 16
5 -6 -5 1251.19 408.76 18
5 -6 -5 1504.8 499.479 16
5 -6 -4 757.297 357.574 18
5 -6 -4 1309.09 440.237 16
5 -6 -3 7488.65 897.262 18
5 -6 -3 8774.39 967.061 16
5 -6 -3 6854.75 841.841 9
5 -6 -3 8227.37 1062.42 21
5 -6 -2 130.818 239.062 18
5 -6 -2 -40.8156 248.602 16
5 -6 -2 469.876 284.579 9
5 -6 -1 68334.3 2578.56 18
5 -6 -1 73763 2680.75 16
5 -6 -1 68749.9 2585.97 9
5 -6 0 53.5812 234.859 18
5 -6 0 144.575 287.22 16
5 -6 0 269.783 245.176 9
5 -6 1 89426.4 3126.31 9
5 -6 1 90463.9 3145.6 14
5 -6 2 -388.248 290.205 9
5 -6 2 -221.621 390.299 14
5 -6 2 678.739 407.436 5
5 -6 3 3824.54 722.343 9
5 -6 3 3691.2 715.564 14
5 -6 3 3149.2 884.557 5
-5 6 -3 2446.3 685.19 7
5 -6 4 5018.94 980.526 5
5 -6 4 4198.67 844.504 9
-5 6 -4 5381.62 882.931 7
-5 6 -5 4180.89 775.132 7
5 -6 5 4046.76 873.885 5
5 -6 6 258.377 367.561 5
5 -6 7 -179.529 291.538 5
5 -6 8 -79.1364 230.868 5
5 -5 -11 1670.71 355.166 16
5 -5 -10 -50.0756 265.738 16
5 -5 -9 -44.1535 319.253 16
5 -5 -8 18471.7 1552.28 16
5 -5 -7 611.797 401.93 16
5 -5 -6 3522.05 648.894 18
5 -5 -6 3125.51 698.065 16
5 -5 -5 935.173 350.803 18
5 -5 -5 942.04 388.723 16
5 -5 -5 587.801 323.285 9
5 -5 -4 544.063 303.377 18
5 -5 -3 25252 1555.11 18
5 -5 -2 31745.4 1691.81 18
5 -5 -1 20049.7 1323.97 18
5 -5 0 26029.7 1510.89 18
5 -5 0 24325.6 1496.6 14
5 -5 1 17856.1 1346.19 14
5 -5 2 12292.3 1162.26 9
5 -5 2 12934.4 1187.2 14
-5 5 -2 13980.7 1554.5 13
5 -5 3 35157.7 1953.71 9
5 -5 3 32439.8 1922.77 14
-5 5 -3 32519.7 2142.05 7
5 -5 4 523.088 345.52 9
5 -5 4 423.026 370.26 14
-5 5 -4 170.191 265.032 7
5 -5 5 113.412 262.632 9
-5 5 -6 4682.35 761.646 11
5 -5 6 5583.2 978.356 5
5 -5 7 600.04 435.325 5
-5 5 -7 1911.15 474.788 11
-5 5 -8 58.9062 198.437 11
5 -5 8 -67.1635 230.222 5
5 -4 -11 202.311 247.804 16
5 -4 -10 2976.98 641.315 16
5 -4 -9 4213.56 796.613 16
5 -4 -8 22801.4 1794.64 16
5 -4 -7 443.193 358.235 16
5 -4 -7 773.018 396.795 19
-5 4 7 554.487 254.474 2
5 -4 -6 37940.8 2143.54 19
5 -4 -6 38541.7 2114.97 16
-5 4 6 36698.7 1717.4 2
5 -4 -6 35464.7 1891.05 4
-5 4 5 6961.26 738.11 2
-5 4 4 31902.7 1532.76 2
-5 4 3 820.243 291.353 2
5 -4 -2 995.319 345.19 18
-5 4 2 1137.78 339.343 2
5 -4 -1 16689.5 1146.13 18
-5 4 1 14462.5 1157.71 2
5 -4 0 945.271 322.119 18
5 -4 0 1378.65 415.2 14
5 -4 1 10366.2 891.919 18
5 -4 1 11336.4 1010.57 14
5 -4 2 9753.56 989.155 14
5 -4 3 3966.7 648.77 9
5 -4 3 4965.2 775.283 14
-5 4 -3 3776.09 795.965 13
-5 4 -4 18685.2 1500.03 11
5 -4 4 21005.9 1465.56 9
5 -4 4 20601.6 1545.19 14
-5 4 -4 16437.9 1708.97 13
-5 4 -5 225.609 283.679 11
5 -4 5 337.425 268.746 9
5 -4 5 985.869 464.13 14
-5 4 -5 430.91 393.484 8
-5 4 -6 2367.35 582.042 11
-5 4 -6 1002.72 421.954 8
-5 4 -7 1465.6 464.303 11
5 -4 7 2235.35 692.433 5
-5 4 -8 2659.6 546.032 11
5 -4 8 757.952 379.583 5
-5 4 -9 122.423 216.7 11
5 -3 -12 606.298 264.877 16
5 -3 -11 1979.16 493.922 16
5 -3 -10 470.407 369.923 16
5 -3 -9 -371.468 298.205 19
5 -3 -9 -170.133 361.762 16
5 -3 -8 2771.49 658.597 19
5 -3 -8 2634.68 672.94 16
-5 3 8 2845.61 578.914 2
5 -3 -7 2769.07 663.412 19
5 -3 -7 2974.59 683.158 16
-5 3 7 3145.71 573.213 2
-5 3 6 3233.33 571.946 2
-5 3 5 3090.54 522.441 2
-5 3 4 6950.4 717.198 2
-5 3 3 13898.5 1011.74 2
-5 3 2 1259.92 363.739 2
5 -3 -1 4914.86 586.058 14
-5 3 1 5682.69 713.345 2
5 -3 0 -24.4331 160.543 18
5 -3 0 -150.283 258.279 14
5 -3 1 34047 1449.51 18
5 -3 1 29588.2 1528.44 14
5 -3 2 832.911 360.56 14
5 -3 3 3807.93 643.491 14
-5 3 -4 5779.73 850.17 11
5 -3 4 5887.01 745.22 9
5 -3 4 6199.98 846.168 14
-5 3 -4 5277.84 906.762 13
5 -3 5 -391.993 563.883 20
-5 3 -5 119.44 307.253 11
5 -3 5 605.111 400.971 14
-5 3 -5 841.978 489.577 13
-5 3 -5 181.241 296.253 8
-5 3 -6 5350.19 896.051 11
-5 3 -6 4152.92 757.157 8
-5 3 -7 -25.3292 335.146 11
-5 3 -7 -64.9067 291.804 8
-5 3 -8 4096.35 701.016 11
5 -3 8 1032.37 429.164 5
-5 3 -9 5003.55 684.783 11
5 -2 -12 98.6922 215.68 16
5 -2 -11 239.187 278.95 16
5 -2 -10 -60.3203 263.924 19
5 -2 -10 17.744 324.622 16
5 -2 -9 1417.45 563.023 19
5 -2 -9 1439.47 529.867 16
5 -2 -8 850.75 421.169 19
5 -2 -8 107.058 278.757 16
-5 2 8 759.802 367.293 2
5 -2 -7 612.927 394.018 4
5 -2 -7 850.24 452.404 19
5 -2 -7 1217.76 463.894 16
-5 2 7 1275.11 417.133 2
-5 2 6 31434.4 1654.61 2
-5 2 5 69.0992 229.555 2
-5 2 4 17794.9 1120.09 2
-5 2 3 54251.3 1957.85 2
-5 2 2 1228.78 364.874 2
5 -2 -1 3627.87 499.371 14
-5 2 1 4409.61 622.054 2
5 -2 0 393.657 209.195 18
5 -2 0 956.691 341.25 14
5 -2 1 2966.89 527.508 14
5 -2 2 26512.9 1473.93 14
5 -2 3 1896.18 481.083 14
-5 2 -4 19828.5 1560.56 11
5 -2 4 19890.5 1416.49 14
-5 2 -4 21511.4 1715.56 13
-5 2 -5 11479.1 1256.68 11
5 -2 5 11648 1121.2 14
-5 2 -5 9936.05 1258.09 13
-5 2 -5 13240.5 1391.94 8
-5 2 -6 3537.86 740.875 11
-5 2 -6 2063.95 606.855 8
-5 2 -7 5665.96 896.999 11
-5 2 -7 4027.04 713.991 12
-5 2 -8 11005 1115.63 11
-5 2 -8 8859.41 1156.38 12
-5 2 -9 1052.04 390.913 11
5 -1 -12 -231.507 209.665 19
5 -1 -12 -120.887 222.925 16
5 -1 -11 979.922 462.874 19
5 -1 -11 392.594 295.099 16
5 -1 -10 6542.71 997.737 19
5 -1 -10 6619.84 963.495 16
5 -1 -9 -73.5975 351.154 19
5 -1 -8 2917.49 699.055 19
-5 1 8 3267.26 654.995 2
5 -1 -7 19003 1577.82 19
-5 1 7 18092.1 1371.34 2
5 -1 -7 16496.8 1591.35 6
-5 1 6 3726.24 627.042 2
-5 1 5 30315.1 1553.74 2
-5 1 4 4189.47 572.253 2
-5 1 3 40808.3 1710.45 2
-5 1 2 6571.59 725.89 2
5 -1 -2 5821.8 637.928 14
5 -1 -1 2667.64 479.489 14
-5 1 1 2747.19 519.792 2
5 -1 0 13965.3 1029.03 14
5 -1 1 17951.7 1211.22 14
5 -1 2 84.3288 211.049 14
5 -1 3 718.284 326.887 14
-5 1 -4 424.337 345.753 11
5 -1 4 297.819 281.093 14
-5 1 -4 583.775 376.286 13
-5 1 -4 709.568 448.765 8
-5 1 -5 6334.44 970.233 11
5 -1 5 6399.53 836.412 14
-5 1 -5 6801.05 1007.3 13
-5 1 -5 5999.55 947.833 8
-5 1 -6 76.0601 295.092 11
-5 1 -6 -221.172 370.745 8
-5 1 -6 -917.251 571.394 12
-5 1 -7 6224.22 962.447 11
-5 1 -7 2278.15 763.497 12
-5 1 -8 500.659 397.352 11
-5 1 -8 2001.55 891.501 12
-5 1 -9 4093.3 570.287 11
5 0 -12 1228.14 384.715 19
5 0 -12 1025.11 346.744 16
5 0 -11 2364.35 626.835 19
5 0 -11 1505.2 451.372 16
5 0 -10 7419.77 1095.15 19
5 0 -9 1602.11 564.257 19
5 0 -8 20214.9 1704.52 19
-5 0 8 22406.8 1563.67 2
5 0 -8 20365.6 1741.6 6
5 0 -7 1453.74 536.703 6
5 0 -7 1297.43 476.359 19
-5 0 7 2234.04 557.543 2
-5 0 6 39239.9 1892.52 2
-5 0 5 3322.31 564.235 2
-5 0 4 44806.3 1804.14 2
-5 0 3 11128.2 938.817 2
-5 0 2 22747.9 1321.81 2
-5 0 1 841.218 336.859 2
-5 0 0 8767.43 851.95 23
5 0 1 1596.57 410.305 14
-5 0 -1 1613.75 421.587 23
5 0 2 3308.74 593.31 14
5 0 3 9016.14 945.602 14
-5 0 -3 10338.6 1276.36 8
-5 0 -4 707.533 448.882 11
5 0 4 1023.57 372.147 14
-5 0 -4 738.365 363.788 13
-5 0 -4 1344.97 549.382 8
-5 0 -5 682.541 399.235 11
-5 0 -5 104.023 327.949 8
-5 0 -6 2815.78 696.321 11
-5 0 -6 702.887 434.255 8
-5 0 -7 -1216.48 526.489 11
-5 0 -7 -1769.13 958.437 12
-5 0 -8 449.662 368.115 11
-5 0 -8 432.712 819.654 12
5 1 -12 1870.01 454.567 19
5 1 -12 819.529 308.197 16
5 1 -11 1581.1 479.575 19
5 1 -10 80.4447 300.198 19
5 1 -9 4126.13 783.789 19
5 1 -9 4772.9 917.798 6
5 1 -8 6030.21 909.623 19
-5 -1 8 6797.28 901.695 2
5 1 -8 5140.31 998.15 6
5 1 -7 13776.1 1312.14 19
-5 -1 7 13272.6 1215.23 2
5 1 -7 16266.5 1579.02 6
-5 -1 6 11507.9 1050.14 2
-5 -1 5 41631.9 1867.2 2
-5 -1 4 57924.3 2124.1 2
-5 -1 3 69773.7 2314.04 2
-5 -1 2 29496.8 1486.43 23
-5 -1 2 30262.6 1588.03 2
-5 -1 1 4093.55 621.107 23
-5 -1 0 7004.93 842.408 23
-5 -1 -1 4680.49 707.957 23
5 1 2 2098.2 526.476 14
-5 -1 -2 2056.51 532.347 23
5 1 3 6475.83 846.102 14
-5 -1 -3 6542.38 928.573 13
-5 -1 -3 5494.66 928.488 8
-5 -1 -3 6056.32 981.477 12
-5 -1 -4 -171.905 300.229 11
5 1 4 49.7969 196.162 14
-5 -1 -4 -218.804 332.728 8
-5 -1 -5 229.267 291.163 11
-5 -1 -5 -128.818 318.274 8
-5 -1 -6 507.819 345.72 11
-5 -1 -6 9685.73 1419.42 12
-5 -1 -7 2413.3 613.422 11
-5 -1 -7 2925.87 1083.72 12
-5 -1 -8 -560.067 307.198 11
-5 -1 -8 -997.528 934.444 12
5 2 -12 1258.72 386.275 19
5 2 -12 367.757 180.033 16
5 2 -11 339.434 317.808 19
5 2 -10 3330.68 708.926 6
5 2 -10 1937.1 572.756 19
5 2 -9 805.88 415.237 6
5 2 -9 65.4235 262.119 19
5 2 -8 1505.59 641.378 6
5 2 -8 1221.83 557.158 3
-5 -2 8 2633.74 568.59 2
5 2 -7 7307.89 1027.49 19
-5 -2 7 8751.81 932.959 2
5 2 -7 10222 1278.35 6
5 2 -6 3153.07 715.419 6
-5 -2 6 2854.38 545.39 2
-5 -2 5 1019.43 331.041 2
-5 -2 4 17382.9 1197.77 2
-5 -2 4 17603.9 1213.33 23
-5 -2 3 821.116 316.639 2
-5 -2 3 294.018 238.802 23
-5 -2 2 387.548 283.319 2
-5 -2 2 626.114 346.481 23
-5 -2 1 370.878 274.061 23
-5 -2 0 5867.63 832.194 23
-5 -2 -1 171.935 249.662 23
-5 -2 -2 13967.8 1332.76 13
-5 -2 -2 12253.1 1290.75 8
-5 -2 -2 16790.4 1505.38 23
-5 -2 -2 16351.7 1389.28 12
5 2 3 2765.68 586.361 14
-5 -2 -3 2190.38 614.106 8
-5 -2 -4 448.801 354.437 11
-5 -2 -4 225.73 328.222 8
-5 -2 -4 1206.81 1035.11 12
-5 -2 -5 1222.02 542.945 11
-5 -2 -5 16633.5 1820.04 12
-5 -2 -6 951.087 450.413 11
-5 -2 -6 17512.1 1835.2 12
-5 -2 -7 -550.423 341.843 11
-5 -2 -7 2323.01 1049.78 12
-5 -2 -8 -550.937 819.764 12
5 3 -12 1014.54 322.766 19
5 3 -11 -4.14161 228.061 19
5 3 -10 1695.25 509.873 6
5 3 -10 532.917 339.27 19
5 3 -9 184.673 298.122 6
5 3 -9 19.7278 231.95 19
5 3 -9 178.208 355.879 3
5 3 -8 16987.3 1562.35 3
5 3 -8 24530.5 1897.39 6
5 3 -7 496.053 384.074 6
5 3 -7 443.421 303.765 19
-5 -3 6 10060.8 1068.95 23
5 3 -6 8773.82 1148.64 6
5 3 -5 -158.569 275.384 6
-5 -3 5 78.1824 238.334 23
-5 -3 4 3985.72 680.299 23
-5 -3 3 4473.35 726.601 23
-5 -3 2 15242.7 1307.24 23
-5 -3 1 6010.43 869.83 23
-5 -3 0 6729.37 943.283 13
-5 -3 0 5937.47 947.151 23
-5 -3 -1 58244.3 2717.15 13
-5 -3 -1 62065.4 2868.17 23
-5 -3 -1 61575.7 2743.55 12
-5 -3 -2 261.718 296.605 13
-5 -3 -2 227.814 361.891 23
-5 -3 -2 -73.6007 248.053 12
-5 -3 -4 848.922 429.582 11
-5 -3 -4 1241.33 1002.88 12
-5 -3 -5 -23.5758 220.615 11
-5 -3 -5 21590.2 1958.28 12
-5 -3 -6 681.426 303.653 11
-5 -3 -6 17388.7 1781.17 12
-5 -3 -7 1278.42 945.574 12
5 4 -12 -6.09872 123.009 19
5 4 -11 295.149 240.46 6
5 4 -11 -6.83206 215.401 19
5 4 -10 -355.888 281.091 6
5 4 -10 -190.893 236.751 19
5 4 -9 745.882 389.175 6
5 4 -9 234.656 256.927 19
5 4 -8 90.5706 245.937 6
5 4 -8 -486.669 317.391 19
5 4 -7 35.3225 258.961 6
5 4 -6 -452.893 332.828 6
-5 -4 6 90.0834 243.653 23
5 4 -5 1576.3 581.128 6
-5 -4 5 1567.4 494.234 23
5 4 -4 1673.88 540.327 6
-5 -4 4 2563.89 605.99 23
-5 -4 3 4261.34 780.95 23
-5 -4 2 5380.1 873.503 13
-5 -4 2 5844.61 935.569 23
-5 -4 1 19860.8 1620.15 13
-5 -4 1 22655.1 1787.44 23
-5 -4 0 21021.8 1691.42 13
-5 -4 0 22539.8 1806.25 23
-5 -4 0 20187.8 1623.66 12
-5 -4 -1 5969.97 914.451 13
-5 -4 -1 4637.37 913.493 23
-5 -4 -1 6321 948.878 12
-5 -4 -2 6110.61 946.26 12
-5 -4 -4 223.622 245.624 11
-5 -4 -4 3174.66 1142.45 12
-5 -4 -5 28072.9 2032.46 12
-5 -4 -6 9756.49 1371.38 12
5 5 -11 227.252 208.501 6
5 5 -11 17.146 128.226 19
5 5 -10 327.84 235.929 6
5 5 -10 297.335 223.023 19
5 5 -9 340.965 284.034 6
5 5 -8 9351.1 1074.26 6
5 5 -7 1856.21 567.367 6
5 5 -6 3298.93 697.547 6
5 5 -5 -316.802 322.551 6
-5 -5 4 7026.57 1051.34 23
5 5 -4 7566.21 1048.78 6
-5 -5 3 87.6735 330.821 23
-5 -5 3 231.205 320.304 13
-5 -5 2 18784.3 1642.55 13
-5 -5 2 16410.5 1627 23
-5 -5 1 268.26 335.528 12
-5 -5 1 208.322 274.185 13
-5 -5 0 10782.1 1211.73 13
-5 -5 0 9831.06 1190.98 12
-5 -5 -1 3395.32 713.391 12
-5 -5 -2 16558.6 1511.04 12
-5 -5 -4 1562.44 1232.14 12
-5 -5 -5 31352.2 1855.51 12
-5 -5 -6 2466.62 867.124 12
5 6 -10 157.02 191.463 6
5 6 -9 1345.69 387.027 6
5 6 -8 -26.1468 238.473 6
5 6 -7 377.74 317.91 6
5 6 -6 253.126 279.991 6
5 6 -5 211.342 310.9 6
-5 -6 4 3399.54 750.308 13
-5 -6 3 513.051 405.536 13
-5 -6 2 88.1505 341.902 13
-5 -6 1 762.845 449.667 12
-5 -6 1 875.226 413.029 13
-5 -6 0 815.234 462.901 12
-5 -6 0 1411.31 457.755 13
-5 -6 -1 710.526 470.992 12
-5 -6 -4 26071.5 1651.37 12
5 7 -9 392.006 219.175 6
-5 -7 8 3217.17 524.397 13
5 7 -8 3073 537.602 6
5 7 -7 532.461 285.804 6
-5 -7 7 455.034 307.904 13
5 7 -6 441.93 285.708 6
-5 -7 6 28.9657 248.671 13
5 7 -5 -169.307 230.443 6
-5 -7 5 -0.53237 253.399 13
-5 -7 4 1770.67 539.347 13
-5 -7 3 143.104 263.43 13
-5 -7 2 -593.96 407.766 12
-5 -7 2 224.947 281.412 13
-5 -7 1 -428.652 361.349 12
-5 -7 1 -342.53 283.545 13
-5 -7 0 947.45 472.718 12
-5 -7 -1 343.386 303.318 12
-5 -7 -3 9851.68 1038.37 12
5 8 -7 225.577 180.321 6
-5 -8 7 170.15 166.618 13
5 8 -6 -426.426 209.862 6
-5 -8 6 122.555 187.682 13
-5 -8 5 501.765 275.992 13
-5 -8 4 50.7545 188.583 13
-5 -8 3 32.1756 226.189 12
-5 -8 3 190.926 202.012 13
-5 -8 2 -329.853 293.16 12
-5 -8 2 129.859 202.092 13
-5 -8 1 167.53 254.338 12
-5 -8 0 182.594 260.429 12
6 -10 -4 260.584 201.72 15
6 -10 -3 1801.6 417.108 15
6 -10 -2 787.503 323.191 15
-6 10 2 983.07 333.243 7
6 -10 -1 1996.62 448.154 15
-6 10 1 1562.23 430.463 7
6 -10 0 48.9411 169.539 15
-6 10 0 11.9389 197.162 7
6 -10 1 1789.11 346.741 15
-6 10 -1 2017.36 441.866 7
-6 10 -2 3.51603 175.072 7
6 -9 -6 5294.12 618.326 16
6 -9 -5 173.311 293.07 16
6 -9 -5 -76.6378 205.561 15
6 -9 -4 748.394 349.972 16
6 -9 -4 84.2607 212.653 15
6 -9 -3 1862.19 511.179 15
6 -9 -2 -42.8052 273.026 15
6 -9 -1 244.467 255.138 15
6 -9 0 713.893 317.997 15
6 -9 0 1093.64 360.991 9
-6 9 0 875.588 439.856 7
6 -9 1 442.502 243.154 15
6 -9 1 237.108 230.287 9
-6 9 -1 39.3965 246.706 7
-6 9 -2 2843.32 580.574 7
-6 9 -3 257.786 253.779 7
6 -9 4 658.416 249.992 5
6 -8 -8 3896.27 496.616 16
6 -8 -7 2253.37 476.869 16
6 -8 -6 226.624 287.559 16
6 -8 -6 198.663 211.966 15
6 -8 -5 9976.58 1037.65 16
6 -8 -4 2490.98 581.484 16
6 -8 -3 10599.1 1106.81 16
6 -8 -2 809.229 370.42 16
6 -8 -2 255.04 218.148 9
6 -8 -1 1211.57 416.509 9
6 -8 0 3709.41 656.018 9
6 -8 1 403.44 260.257 15
6 -8 1 429.009 300.717 9
-6 8 -1 290.826 355.791 7
6 -8 2 475.511 339.553 9
-6 8 -2 672.129 395.214 7
6 -8 3 91.0448 224.903 9
6 -8 3 -155.589 285.956 5
-6 8 -3 -19.2594 261.854 7
6 -8 4 -87.0197 234.162 5
-6 8 -4 212.121 239.185 7
6 -8 5 224.816 202.011 5
6 -8 6 44.3171 129.169 5
6 -7 -9 1348.74 341.925 16
6 -7 -8 99.3848 267.426 16
6 -7 -7 1360.91 462.17 16
6 -7 -6 30.2085 352.993 16
6 -7 -5 770.393 415.079 16
6 -7 -4 459.093 350.871 16
6 -7 -3 3973.61 696.55 16
6 -7 -3 3688.64 637.514 9
6 -7 -2 -178.75 261.761 16
6 -7 -2 -49.6303 209.828 9
6 -7 -1 498.272 300.09 9
6 -7 0 7508.94 930.788 9
6 -7 1 -62.0976 247.742 9
6 -7 2 5637.3 870.384 5
6 -7 2 5819.61 844.02 9
-6 7 -2 7122.53 1048.64 7
6 -7 3 482.648 344.67 9
6 -7 3 194.94 322.253 5
-6 7 -3 197.839 287.334 7
6 -7 4 2288.26 537.805 9
6 -7 4 1564.27 496.055 5
-6 7 -4 2096.01 554.02 7
6 -7 5 -400.895 344.975 5
6 -7 6 679.982 303.565 5
6 -7 7 -0.23097 114.449 5
6 -6 -10 1868.38 381.616 16
6 -6 -9 1674.55 459.616 16
6 -6 -8 45.1006 303.461 16
6 -6 -7 2656.1 638.226 16
6 -6 -6 1231.06 476.596 16
6 -6 -5 8150.41 998.279 16
6 -6 -5 7780.39 942.92 9
6 -6 -4 1165.62 408.804 16
6 -6 -4 992.329 390.716 9
6 -6 -3 17621.8 1414.96 18
6 -6 -3 19274.8 1428.89 16
6 -6 -3 17352.3 1405.72 9
6 -6 -2 772.805 366.024 18
6 -6 -2 584.424 324.722 16
6 -6 -2 791.188 351.925 9
6 -6 -1 17399.4 1370.48 18
6 -6 -1 19883.3 1464.24 16
6 -6 -1 18066.4 1409.68 9
6 -6 0 3500.39 678.261 9
6 -6 1 8949.5 1048.29 9
6 -6 2 13835.6 1450.61 5
6 -6 2 15244 1356.67 9
6 -6 3 5157.09 935.03 5
6 -6 3 4578.84 768.043 9
-6 6 -3 4787.51 846.906 7
6 -6 4 17366.2 1660.71 5
6 -6 4 18138.3 1575.94 9
6 -6 5 842.193 468.876 5
6 -6 6 225.686 294.186 5
6 -6 7 83.2239 187.318 5
6 -5 -11 5024.72 545.629 16
6 -5 -10 1693.06 455.997 16
6 -5 -9 0.46757 288.479 16
6 -5 -8 5.24823 334.587 16
6 -5 -7 131.907 291.736 16
6 -5 -7 -172.284 250.352 9
6 -5 -6 757.85 396.629 16
6 -5 -6 657.312 360.63 9
6 -5 -5 269.047 265.67 18
6 -5 -5 205.257 243.377 16
6 -5 -5 20.6166 240.029 9
6 -5 -4 1332 461.545 18
6 -5 -4 1251.26 427.491 16
6 -5 -4 1220.64 423.479 9
6 -5 -3 33038.8 1877.41 18
6 -5 -3 32454.8 1762.34 16
6 -5 -3 30205.6 1845.36 9
6 -5 -2 27116.9 1656.99 18
6 -5 -2 29185.4 1659.12 16
6 -5 -2 25648.1 1675.01 9
6 -5 -1 17855.8 1332.39 18
6 -5 -1 18242.3 1409.28 9
6 -5 0 26460.2 1596.13 18
6 -5 0 26208.9 1689.36 9
-6 5 0 27349.7 2111.35 13
6 -5 1 28339.1 1765.12 9
6 -5 1 25723.1 1704.36 14
-6 5 -1 24967.3 2122.28 13
6 -5 2 265.983 308.781 9
6 -5 2 464.697 384.732 14
-6 5 -2 161.105 421.908 13
6 -5 3 28404.2 1787.49 9
6 -5 4 4720.81 764.931 9
-6 5 -5 16329.7 1346.62 8
-6 5 -6 1933.15 450.709 11
6 -5 6 1318.87 512.39 5
-6 5 -7 439.61 231.814 11
6 -5 7 11.5966 217.018 5
6 -4 -11 645.714 279.758 16
6 -4 -10 2351.23 552.812 16
6 -4 -9 301.324 342.729 16
6 -4 -8 4777.62 821.65 16
6 -4 -7 18631.3 1535.23 16
6 -4 -7 16340.4 1356.02 4
-6 4 6 8076.29 877.56 2
6 -4 -6 8006.22 975.296 16
6 -4 -6 8772.4 1048.74 4
6 -4 -5 1892.1 494.475 16
-6 4 5 2591.32 512.053 2
6 -4 -5 2047.71 554.008 4
-6 4 4 47405.3 2069.51 2
6 -4 -4 44826.6 2049 16
6 -4 -4 45441.3 2280.59 9
6 -4 -4 47058.2 2266.82 4
6 -4 -3 10889.6 1066.86 18
6 -4 -3 10192.1 1086.97 9
6 -4 -3 10765.8 1089.77 4
-6 4 3 11023.8 1041.59 2
6 -4 -2 13632.3 1146.42 18
6 -4 -2 13795.5 1222.97 9
-6 4 2 14212.6 1271.12 2
6 -4 -1 808.332 326.85 18
6 -4 -1 552.711 286.844 9
6 -4 0 10349 952.807 18
6 -4 0 11000.2 1077.54 9
6 -4 0 9626.27 998.113 14
-6 4 0 11355 1290.42 13
6 -4 1 3399.33 630.427 9
6 -4 1 3320.88 687.875 14
-6 4 -1 3185.27 764.463 13
6 -4 2 17705.8 1380.95 9
6 -4 2 18306.9 1455.54 14
-6 4 -2 17522.3 1705.47 13
6 -4 3 2367.63 535.519 9
6 -4 3 2477.15 664.512 14
-6 4 -3 2082.43 651.427 13
-6 4 -4 9768.87 1082.39 11
6 -4 4 14140.8 1198.36 9
-6 4 -5 21.9774 233.592 11
-6 4 -5 212.469 376.226 8
-6 4 -6 -58.6472 253.484 11
-6 4 -6 -33.9783 276.951 8
-6 4 -7 252.381 282.57 11
6 -4 7 543.546 343.343 5
-6 4 -8 344.451 240.721 11
6 -3 -11 5982.03 732.865 16
6 -3 -10 200.27 289.864 16
6 -3 -9 1394.03 531.885 19
6 -3 -9 2019.81 569.751 16
6 -3 -8 2467.34 666.418 19
6 -3 -8 2325.94 603.908 16
6 -3 -8 2910.12 648.87 4
6 -3 -7 6261.24 1019.35 19
6 -3 -7 5871.24 864.068 16
-6 3 7 5704.81 792.302 2
6 -3 -7 5425.61 871.248 4
6 -3 -6 5060.28 877.765 19
-6 3 6 4261.08 662.311 2
6 -3 -6 4420.47 724.611 16
6 -3 -6 4790.18 837.688 4
6 -3 -5 41028.5 2273.1 19
-6 3 5 36612.9 1830.11 2
6 -3 -5 38135.2 2109 4
-6 3 4 30598.3 1678.99 2
-6 3 3 80.7534 218.591 2
-6 3 2 1775.4 475.654 2
6 -3 -1 1020.69 328.11 18
6 -3 0 1269.65 422.504 14
6 -3 1 13362.2 1141.2 9
6 -3 1 13052.7 1162 14
-6 3 -1 13655.6 1373.06 13
6 -3 2 767.604 326.363 9
6 -3 2 912.955 444.604 14
-6 3 -2 1004.86 482.772 13
-6 3 -3 8561.12 1039.03 11
6 -3 3 8961.16 1039.33 14
-6 3 -3 10393.2 1300.41 13
-6 3 -4 1676.49 518.717 11
-6 3 -4 1525.55 552.662 13
-6 3 -5 1332.83 507.614 11
-6 3 -5 2126.83 585.283 8
-6 3 -6 5740.25 841.087 11
-6 3 -6 1905.12 516.22 8
-6 3 -7 318.98 344.928 11
-6 3 -8 669.671 306.715 11
6 -2 -12 2382.13 384.961 16
6 -2 -11 250.991 236.699 19
6 -2 -11 434.33 291.739 16
6 -2 -10 3388.27 742.693 19
6 -2 -10 2360.2 556.656 16
6 -2 -9 218.986 318.094 19
6 -2 -9 192.265 274.232 16
6 -2 -8 -101.348 439.95 4
6 -2 -8 106.156 330.411 19
6 -2 -8 190.778 309.729 16
6 -2 -7 4001.33 853.591 4
6 -2 -7 4500.08 854.669 19
-6 2 7 4516.68 705.4 2
6 -2 -7 3975.75 709.261 16
6 -2 -6 9134 1121.5 19
-6 2 6 9374.96 981.03 2
6 -2 -6 9811.74 1163.38 4
6 -2 -5 7750.75 976.397 19
-6 2 5 8146.12 895.626 2
6 -2 -5 8537.46 1099.77 4
-6 2 4 597.689 323.854 2
-6 2 3 2946.61 565.385 2
-6 2 2 2942.01 585.128 2
6 -2 -1 209.331 272.231 14
6 -2 0 501.212 339.851 14
6 -2 1 4151.99 667.952 14
-6 2 -1 2912.78 674.012 13
-6 2 -2 1078.35 475.667 11
6 -2 2 1391.72 451.571 14
-6 2 -2 1832.19 577.92 13
-6 2 -3 1073.8 492.218 11
6 -2 3 535.047 329.709 14
-6 2 -3 1112.1 503.15 13
-6 2 -4 -485.592 358.197 11
-6 2 -4 -394.671 353.967 13
-6 2 -4 90.0736 307.926 8
-6 2 -5 108.941 295.547 11
-6 2 -5 322.723 350.552 13
-6 2 -5 -478.173 361.07 8
-6 2 -6 -797.343 469.467 11
-6 2 -6 -96.5665 301.554 8
-6 2 -7 -377.643 346.089 11
-6 2 -8 1823.74 419.611 11
6 -1 -12 4802.33 621.648 19
6 -1 -12 4034.12 472.807 16
6 -1 -11 -15.197 233.728 19
6 -1 -11 394.469 249.773 16
6 -1 -10 274.237 314.615 19
6 -1 -10 902.033 383.418 16
6 -1 -9 118.798 413.588 4
6 -1 -9 70.5502 330.028 19
6 -1 -9 -155.639 236.874 16
6 -1 -8 2081.03 618.777 19
6 -1 -8 1825.63 618.599 4
6 -1 -7 11443.5 1284.19 19
-6 1 7 13078.7 1192.45 2
6 -1 -6 3179.17 696.005 19
-6 1 6 3346.39 634.935 2
-6 1 5 43436.3 2042.73 2
-6 1 4 20548.7 1399.05 2
-6 1 3 1969.18 481.007 2
-6 1 2 2666.62 573.931 2
6 -1 -1 5677.19 777.985 14
6 -1 0 5915.47 818.984 14
6 -1 1 16753.5 1339.24 14
-6 1 -1 17025.4 1492.84 13
6 -1 2 286.335 257.091 14
-6 1 -2 401.916 377.075 13
-6 1 -3 8158.05 1093.65 11
6 -1 3 8413.78 949.297 14
-6 1 -3 8969.62 1152.58 13
-6 1 -4 -32.5999 311.541 11
-6 1 -4 10.1673 263.016 13
-6 1 -4 296.448 378.9 8
-6 1 -5 3010.43 713.354 11
-6 1 -5 3138.66 713.073 13
-6 1 -5 2196.32 625.905 8
-6 1 -6 -119.51 334.119 8
-6 1 -7 394.961 359.131 11
-6 1 -8 353.84 263.238 11
6 0 -12 -33.6407 188.834 19
6 0 -11 -45.2467 245.398 19
6 0 -11 -93.2957 201.228 16
6 0 -10 -191.496 309.794 19
6 0 -9 1983.69 622.2 19
6 0 -8 12929.8 1355.06 19
6 0 -7 118.687 272.38 19
-6 0 7 211.679 328.435 2
6 0 -7 -205.195 368.569 6
6 0 -6 27591.5 1881.12 19
-6 0 6 26042.3 1688.11 2
6 0 -6 27997.9 2127.13 6
-6 0 5 22906.2 1524.34 2
6 0 -5 22288.7 1840.78 6
-6 0 4 25380.7 1575.01 2
-6 0 3 12079.5 1107.71 2
6 0 -2 6257.27 838.868 14
-6 0 2 5940.84 902.673 2
6 0 -1 -26.6142 327.124 14
6 0 0 4259.58 707.796 14
6 0 1 -13.9643 304.784 14
-6 0 -1 32.7579 318.461 13
6 0 2 2350.96 552.636 14
-6 0 -2 2636.2 675.807 13
-6 0 -2 3465.62 841.836 8
-6 0 -3 -10.426 290.251 11
6 0 3 95.3315 200.728 14
-6 0 -3 85.3209 260.255 13
-6 0 -3 18.9785 342.003 8
-6 0 -4 4677.93 883.5 11
-6 0 -4 5230.9 893.507 13
-6 0 -4 3330.85 788.302 8
-6 0 -5 89.3699 294.29 11
-6 0 -5 268.401 332.737 8
-6 0 -6 326.603 351.446 11
-6 0 -7 1036.93 443.845 11
6 1 -12 726.288 287.803 19
6 1 -11 400.608 294.324 19
6 1 -10 243.999 304.064 19
6 1 -9 1379.5 474.496 19
6 1 -9 826.955 590.104 6
6 1 -8 8918.03 1111.67 19
6 1 -8 6409.96 1295.43 6
6 1 -7 24604.5 1802.53 19
-6 -1 7 23964.4 1626.1 2
6 1 -7 27816.7 2145.07 6
6 1 -6 23107.4 1728.6 19
-6 -1 6 21742 1533.27 2
6 1 -6 24613.7 1987.24 6
6 1 -5 38404.8 2128.02 19
-6 -1 5 36834.5 1956.11 2
6 1 -5 36172.6 2318.13 6
-6 -1 4 27409.5 1680.57 2
-6 -1 3 3114.71 628.236 2
-6 -1 1 10946.4 1191.7 13
6 1 0 23886 1688.13 14
-6 -1 0 28551.1 1937.71 13
6 1 1 14081.9 1278.74 14
-6 -1 -1 16307.9 1519.67 13
-6 -1 -1 17922.6 1629.82 8
-6 -1 -1 16502.5 1401.25 23
6 1 2 11104.3 1144.75 14
-6 -1 -2 11523.8 1323.8 13
-6 -1 -2 11392.9 1351.54 8
-6 -1 -3 4888.9 836.327 13
-6 -1 -3 2926.99 725.728 8
-6 -1 -4 1284.45 501.026 11
-6 -1 -4 685.051 456.413 8
-6 -1 -5 211.632 293.439 11
-6 -1 -5 4773.97 984.024 12
-6 -1 -6 -549.457 364.112 11
-6 -1 -6 -1818.88 785.142 12
-6 -1 -7 -206.601 254.184 11
-6 -1 -7 -156.513 610.689 12
6 2 -12 558.664 232.032 19
6 2 -11 845.542 338.183 19
6 2 -10 323.343 301.67 19
6 2 -10 670.144 356.833 6
6 2 -9 271.729 324.678 6
6 2 -9 571.875 364.305 19
6 2 -8 -63.9209 347.647 6
6 2 -8 339.144 300.043 19
6 2 -7 23114.7 1770.33 19
6 2 -7 26876.8 2032.05 6
6 2 -6 5.80286 251.571 6
6 2 -6 -85.3521 208.156 19
-6 -2 5 34074.1 2072.4 13
6 2 -5 31299 2075.73 6
6 2 -4 9.92113 288.636 6
-6 -2 4 -286.392 290.37 13
-6 -2 3 25416.7 1778.11 13
-6 -2 2 5956.3 887.263 13
-6 -2 1 7660.57 1019.15 13
-6 -2 1 7475.12 962.619 23
-6 -2 0 789.413 417.947 13
-6 -2 0 516.469 345.875 23
-6 -2 -1 18664.7 1613.72 13
-6 -2 -1 18419.4 1571.66 23
-6 -2 -2 900.237 458.444 8
-6 -2 -2 1403.3 513.024 13
-6 -2 -3 748.186 451.922 8
-6 -2 -3 2801.81 618.261 13
-6 -2 -4 -301.068 322.66 11
-6 -2 -4 8503.33 1359.53 12
-6 -2 -5 193.747 271.696 11
-6 -2 -5 8769.82 1224.49 12
-6 -2 -6 -495.99 742.87 12
6 3 -11 95.9762 165.305 19
6 3 -10 131.699 207.492 19
6 3 -10 110.51 281.884 6
6 3 -9 1824.2 579.027 6
6 3 -9 2351.2 560.038 19
6 3 -8 7122.81 924.888 19
6 3 -8 8736.99 1105.02 6
6 3 -7 1667.92 586.51 6
-6 -3 6 13610.5 1398.2 13
6 3 -6 13450.5 1400.65 6
6 3 -5 1151.86 516.908 6
-6 -3 5 1907.84 571.117 13
-6 -3 4 5827.74 963.662 13
6 3 -4 5592.11 882.424 6
-6 -3 3 549.961 350.725 13
-6 -3 3 541.533 352.801 23
-6 -3 2 7801.25 1038.25 13
-6 -3 2 6741.01 994.853 23
-6 -3 1 1289.38 478.099 13
-6 -3 1 492.648 407.16 23
-6 -3 0 10711.6 1235.54 13
-6 -3 0 10378.9 1189.58 23
-6 -3 -1 1826.59 552.989 13
-6 -3 -2 640.918 359.973 13
-6 -3 -3 -24.5142 301.166 11
-6 -3 -3 1741.58 971.76 12
-6 -3 -4 -88.5075 242.735 11
-6 -3 -4 16339.5 1545.83 12
-6 -3 -5 120.178 212.623 11
-6 -3 -5 8674.66 1201.44 12
6 4 -10 2199.42 504.287 6
6 4 -10 1894.77 405.004 19
6 4 -9 551.078 338.057 6
6 4 -9 844.921 322.229 19
6 4 -8 84.0755 231.207 6
6 4 -7 1157.52 497.396 6
-6 -4 7 795.077 404.579 13
-6 -4 6 8267.16 1116.28 13
6 4 -6 9324.98 1139.06 6
6 4 -5 237.152 304.232 6
-6 -4 5 134.584 297.18 13
-6 -4 4 10638 1243.88 13
6 4 -4 10596.2 1213.85 6
-6 -4 3 -211.91 332.193 13
-6 -4 2 213.345 296.723 13
-6 -4 1 4867.91 853.546 13
-6 -4 0 813.354 439.276 13
-6 -4 0 31.0413 271.907 12
-6 -4 -1 1012.71 434.471 13
-6 -4 -1 288.508 951.312 12
-6 -4 -3 341.138 305.014 11
-6 -4 -3 11696.6 1374.91 12
-6 -4 -4 181.976 201.011 11
-6 -4 -4 22091.1 1586.33 12
-6 -4 -5 5980.45 1015.5 12
6 5 -10 811.06 307.412 6
6 5 -9 464.206 303.929 6
6 5 -8 -72.7504 189.565 6
-6 -5 8 -137.037 211.764 13
6 5 -7 -183.575 246.398 6
-6 -5 7 -128.358 243.464 13
6 5 -6 26.9238 232.77 6
-6 -5 6 -3.91361 267.201 13
6 5 -5 554.812 382.034 6
-6 -5 5 443.186 398.044 13
-6 -5 4 -642.798 405.361 13
-6 -5 3 1302.21 494.415 13
-6 -5 2 206.697 308.959 12
-6 -5 2 2765.87 701.116 13
-6 -5 1 82.313 265.554 12
-6 -5 1 1034.25 423.262 13
-6 -5 0 2402.94 587.02 13
-6 -5 0 559.736 433.101 12
-6 -5 -2 -153.943 219.738 11
-6 -5 -3 17384.9 1402.52 12
-6 -5 -4 15967.7 1232.07 12
6 6 -9 147.403 154.586 6
6 6 -8 -210.645 205.327 6
-6 -6 8 313.763 212.932 13
6 6 -7 306.202 279.257 6
-6 -6 7 540.839 306.085 13
6 6 -6 659.451 317.592 6
-6 -6 6 636.442 334.918 13
-6 -6 5 383.957 361.403 13
-6 -6 4 -306.519 281.914 12
-6 -6 4 1230.89 470.442 13
-6 -6 3 18.405 238.433 12
-6 -6 3 458.346 353.595 13
-6 -6 2 65.7614 242.386 12
-6 -6 2 64.3516 259.673 13
-6 -6 1 4098.07 697.026 13
-6 -6 1 846.916 424.959 12
-6 -6 0 938.856 392.447 12
-6 -6 -2 4361.06 817.637 12
6 7 -7 124.367 152.263 6
-6 -7 7 176.064 168.036 13
-6 -7 6 507.616 262.494 13
-6 -7 5 -73.7757 179.877 12
-6 -7 5 1387 408.583 13
-6 -7 4 262.491 252.619 12
-6 -7 4 15.5242 213.109 13
-6 -7 3 -137.97 223.565 12
-6 -7 3 207.075 235.456 13
-6 -7 2 341.76 218.974 13
-6 -7 2 10.2423 194.79 12
-6 -7 1 24.738 187.7 12
7 -10 -2 149.878 165.619 15
-7 10 1 292.235 208.182 7
7 -9 -5 516.108 228.435 15
7 -9 -4 1762.97 408.119 15
7 -9 -3 5587.09 748.665 15
7 -9 -2 467.431 284.449 15
7 -9 -1 3392.57 524.336 9
7 -9 -1 1754.07 433.053 15
-7 9 1 3786.88 652.643 7
7 -9 0 251.283 190.78 15
7 -9 0 464.479 260.924 9
-7 9 0 602.843 344.212 7
7 -9 1 -35.5003 182.471 9
-7 9 -1 -53.1942 222.535 7
-7 9 -2 766.041 292.491 7
7 -8 -7 1843.8 394.383 16
7 -8 -6 2734.95 516.153 16
7 -8 -6 778.979 280.182 15
7 -8 -5 162.854 276.811 16
7 -8 -4 3657.41 613.239 16
7 -8 -3 137.723 215.686 9
7 -8 -2 6460.38 762.325 9
7 -8 -1 42.8917 187.858 9
7 -8 0 1244.02 396.994 9
-7 8 0 1021.77 517.021 7
7 -8 1 3765.57 642.223 9
-7 8 -1 4741.72 781.542 7
7 -8 2 1268.04 377.841 9
-7 8 -2 1349.86 416.698 7
-7 8 -3 255.722 236.112 7
7 -8 4 232.37 169.583 5
7 -7 -8 26.4884 240.298 16
7 -7 -7 5310.06 717.137 16
7 -7 -6 268.307 263.518 16
7 -7 -5 1901.24 496.368 16
7 -7 -5 2239.46 475.53 9
7 -7 -4 22.6735 275.138 16
7 -7 -4 -164.516 231.367 9
7 -7 -3 27656.6 1641.02 16
7 -7 -3 26345.8 1633.78 9
7 -7 -2 46.0649 238.709 9
7 -7 -1 21494 1512.21 9
7 -7 0 219.735 276.329 9
7 -7 1 2468.93 556.435 9
-7 7 -1 1513.65 555.921 7
7 -7 2 582.589 329.656 9
-7 7 -2 473.718 367.79 7
7 -7 3 2019.25 522.033 9
7 -7 3 931.713 363.162 5
-7 7 -3 2867.41 560.277 7
7 -7 4 349.926 255.344 5
7 -7 5 -94.1074 171.934 5
7 -6 -9 2084.31 429.131 16
7 -6 -8 194.839 283.035 16
7 -6 -7 1124.8 443.257 16
7 -6 -7 858.141 316.897 9
7 -6 -6 873.313 392.421 16
7 -6 -6 1608.18 466.6 9
7 -6 -5 5295.15 762.785 16
7 -6 -5 5051.95 801.184 9
7 -6 -4 1015.66 373.716 16
7 -6 -4 866.03 424.505 9
7 -6 -3 719.758 347.066 16
7 -6 -3 870.031 384.697 9
7 -6 -2 7416.27 889.218 16
7 -6 -2 7022.63 922.78 9
7 -6 -1 463.872 327.167 9
7 -6 0 936.974 411.71 9
7 -6 1 -164.793 257.352 9
7 -6 2 935.377 389.602 9
7 -6 2 1348.31 534.632 5
-7 6 -2 1220.66 445.538 7
7 -6 3 272.525 298.558 9
7 -6 3 447.231 371.677 5
7 -6 4 930.651 426.501 5
-7 6 -4 2506.22 500.617 8
7 -6 5 127.45 273.201 5
7 -6 6 -198.657 171.156 5
7 -5 -10 359.39 226.742 16
7 -5 -9 4551.43 654.337 16
7 -5 -8 3782.68 649.965 16
7 -5 -8 3720.58 649.02 9
7 -5 -7 -146.939 251.285 16
7 -5 -7 -73.9032 275.056 9
7 -5 -6 194.021 268.351 16
7 -5 -6 -62.9576 294.97 9
7 -5 -5 2324.86 529.17 16
7 -5 -5 2375.6 617.433 9
7 -5 -4 442.599 263.72 16
7 -5 -4 445.18 338.976 9
7 -5 -3 4224.41 745.475 9
7 -5 -2 284.587 296.335 9
7 -5 -1 10753.6 1126.77 9
7 -5 0 1970.35 539.985 9
-7 5 0 1494.9 545.436 13
7 -5 1 14641.7 1300.68 9
-7 5 -1 9949.77 1372.11 13
7 -5 2 74.8324 256.91 9
7 -5 3 22600.6 1561.32 9
-7 5 -4 203.541 303.927 8
7 -5 4 2082.56 646.628 5
-7 5 -5 904.346 330.735 8
7 -5 5 1266.68 451.726 5
7 -5 6 3.85748 189.698 5
7 -4 -10 2609.14 457.751 16
7 -4 -10 1590.84 378.49 9
7 -4 -9 3571.03 616.956 16
7 -4 -9 3288.33 657.853 9
7 -4 -8 980.015 392.224 16
7 -4 -8 887.679 445.741 9
7 -4 -7 1483.78 468.164 16
7 -4 -7 1908.2 591.283 9
7 -4 -7 1894.85 567.594 4
7 -4 -6 7665.7 888.028 16
7 -4 -6 9116.69 1150.09 9
7 -4 -6 8198.76 1072.94 4
7 -4 -5 678.896 341.124 9
7 -4 -5 472.426 430.157 4
7 -4 -4 4059.49 710.714 18
7 -4 -4 5004.7 841.085 9
-7 4 4 5162.62 778.628 2
7 -4 -4 4288.61 832.686 4
7 -4 -3 6059.8 835.637 18
7 -4 -3 7322.94 966.865 9
-7 4 3 6938.25 959.923 2
7 -4 -2 6394.6 820.559 18
7 -4 -2 5504.04 825.463 9
7 -4 -1 135.749 241.937 9
-7 4 1 372.475 337.206 13
7 -4 0 7969.91 963.41 9
-7 4 0 8497.76 1138.02 13
7 -4 1 10881.6 1090.27 9
-7 4 -1 9611 1284.14 13
7 -4 2 10740.8 1074.96 9
-7 4 -2 10284.3 1345.61 13
7 -4 3 12738.4 1095.12 9
-7 4 -3 11783.4 1433.76 13
-7 4 -4 5118.29 816.087 8
-7 4 -5 3341.84 565.466 11
-7 4 -5 2383.72 546.927 8
-7 4 -6 -206.702 193.849 11
-7 4 -6 -15.5682 202.861 8
7 -3 -11 1447.5 335.471 9
7 -3 -10 25.3006 202.588 16
7 -3 -9 1793.83 461.548 16
7 -3 -9 2036.24 544.897 4
7 -3 -8 6683.67 827.121 16
7 -3 -8 7542.47 977.639 4
7 -3 -7 430.508 465.883 4
7 -3 -6 2800.52 734.115 4
7 -3 -5 44092.9 2458.14 4
-7 3 5 42256.5 2119.59 2
-7 3 4 126.151 279.223 2
7 -3 -4 97.5794 272.771 9
7 -3 -4 147.696 452.284 4
7 -3 -3 18307.9 1383.07 18
7 -3 -3 18365.8 1483.25 9
7 -3 -3 18453.3 1466.39 4
-7 3 3 20222.4 1556.59 2
7 -3 -2 726.746 389.934 9
-7 3 2 669.546 309.58 13
7 -3 -2 1114.29 505.863 4
7 -3 -1 3547.22 631.682 9
-7 3 1 3119.33 669.386 13
7 -3 0 16955.7 1369.13 9
-7 3 0 16299.7 1539.58 13
7 -3 1 6543.76 821.154 9
-7 3 -1 5448.85 954.653 13
-7 3 -2 1693.06 638.929 13
-7 3 -3 3159.52 680.045 11
-7 3 -3 4352.8 922.734 13
-7 3 -4 1021.93 406.284 11
-7 3 -4 283.9 502.881 13
-7 3 -4 1270.57 499.005 8
-7 3 -5 245.695 262.621 11
-7 3 -5 39.7404 264.065 8
-7 3 -6 662.795 327.684 11
7 -2 -9 6355.85 1039.41 19
7 -2 -9 6698.81 920.655 4
7 -2 -8 420.884 408.387 19
7 -2 -8 462.134 466.932 4
7 -2 -7 11538.5 1330.73 19
7 -2 -7 11583.6 1345.7 4
7 -2 -6 -112.995 462.58 4
7 -2 -5 651.019 573.249 4
-7 2 5 1210.57 430.062 2
7 -2 -4 30199 1946.09 4
-7 2 4 27864.5 1780.98 2
7 -2 -3 18645.2 1470.75 9
-7 2 3 16969.3 1506.01 2
7 -2 -3 18565.2 1441.98 4
7 -2 -2 3016.59 640.393 9
-7 2 2 2144.65 570.535 13
7 -2 -2 2422.55 623.939 4
7 -2 -1 5622.69 790.154 9
-7 2 1 4593.86 842.981 13
7 -2 0 -99.342 411.444 14
-7 2 0 539.215 369.472 13
-7 2 -1 2362.79 586.673 11
7 -2 1 2671.61 669.072 14
-7 2 -1 3298.31 747.279 13
-7 2 -2 117.193 252.882 11
-7 2 -2 318.292 370.603 13
-7 2 -3 4789.12 816.221 11
-7 2 -3 6118.34 1032.68 13
-7 2 -3 6831.19 1031.27 8
-7 2 -4 871.219 414.579 11
-7 2 -4 245.873 365.959 13
-7 2 -4 1024.26 484.36 8
-7 2 -5 2712.94 605.263 11
-7 2 -5 822.52 372.719 8
-7 2 -6 -20.3981 264.57 11
7 -1 -10 3351.94 676.007 19
7 -1 -10 3999.61 650.891 4
7 -1 -9 201.165 365.244 19
7 -1 -9 154.149 445.532 4
7 -1 -8 11543.2 1298.92 19
7 -1 -8 11711.8 1344.02 4
7 -1 -7 -54.958 474.702 4
7 -1 -7 235.086 339.633 19
7 -1 -6 4123.08 786.345 19
7 -1 -6 4334.02 932.977 4
7 -1 -5 6849.82 1108.7 4
-7 1 5 8321.95 1001.88 2
7 -1 -4 12044 1257.29 4
-7 1 4 13193.7 1280.91 2
7 -1 -3 5668.92 908.694 9
-7 1 3 5781.12 883.557 13
-7 1 3 6272.99 962.828 2
7 -1 -3 5584.19 894.29 4
-7 1 2 9257.19 1089.62 13
7 -1 -1 384.022 379.366 14
-7 1 1 126.279 258.627 13
7 -1 0 3473.24 677.184 14
-7 1 0 3296.92 718.657 13
-7 1 -1 2296.92 644.169 13
-7 1 -2 168.64 264.813 11
-7 1 -2 257.245 346.674 13
-7 1 -2 68.744 333.633 8
-7 1 -3 1161.64 493.225 11
-7 1 -3 1245.55 529.481 13
-7 1 -3 1213.18 526.25 8
-7 1 -4 1228.4 503.969 11
-7 1 -4 1224.06 530.205 13
-7 1 -4 459.888 363.475 8
-7 1 -5 -27.5942 341.923 11
-7 1 -5 54.0178 247.298 8
-7 1 -6 621.703 346.063 11
7 0 -11 1521.77 395.792 19
7 0 -10 2115.78 562.464 4
7 0 -10 1466.43 477.101 19
7 0 -9 1414.07 548.797 4
7 0 -9 1527.86 518.625 19
7 0 -8 1188.71 500.552 19
7 0 -8 731.081 503.796 4
7 0 -7 3782.58 755.719 19
7 0 -6 214.639 307.196 19
7 0 -5 11060.7 1221.52 19
-7 0 5 12623 1246.73 2
-7 0 4 15042.9 1318.67 13
-7 0 4 16694.9 1453.25 2
7 0 -4 15161.8 1439.15 4
-7 0 3 59908.8 2700.3 13
-7 0 3 62283.8 2881.6 2
7 0 -3 61617.5 2524.88 4
-7 0 2 6018.25 921.977 13
7 0 -1 6870.77 934.517 14
-7 0 1 8621.01 1087.78 13
7 0 0 -192.493 377.711 14
-7 0 0 -166.039 310.404 13
-7 0 -1 2353.16 649.479 13
-7 0 -1 2344.5 680.423 8
-7 0 -2 902.02 446.243 13
-7 0 -2 948.994 524.639 8
-7 0 -3 1748.03 565.168 11
-7 0 -3 1818.79 567.798 13
-7 0 -3 910.855 469.573 8
-7 0 -4 699.779 389.35 11
-7 0 -4 757.036 394.287 13
-7 0 -4 226.497 353.192 8
-7 0 -5 1156.19 451.886 11
-7 0 -6 -429.826 286.053 11
7 1 -11 14.0858 192.274 19
7 1 -11 172.12 247.484 4
7 1 -10 -206.286 324.021 4
7 1 -10 -6.19604 245.355 19
7 1 -9 1136.24 422.507 19
7 1 -8 1359.25 481.669 19
7 1 -7 1869.54 550.716 19
7 1 -6 11517.9 1259.57 19
7 1 -6 11665.7 1446.71 6
-7 -1 5 744.313 362.851 13
-7 -1 4 18136.5 1508.12 13
-7 -1 4 15822.4 1448.35 2
-7 -1 3 2541.16 641.56 13
-7 -1 2 23008.3 1773.67 13
-7 -1 1 23024.2 1803.01 13
-7 -1 0 34.742 314.192 13
-7 -1 -1 9187.75 1149.2 13
-7 -1 -1 6999.53 1009.09 8
-7 -1 -2 104.818 254.949 13
-7 -1 -2 420.017 380.655 8
-7 -1 -3 384.425 358.835 11
-7 -1 -3 96.5954 279.425 8
-7 -1 -3 457.351 336.394 13
-7 -1 -4 584.016 367.595 11
-7 -1 -5 354.908 271.213 11
7 2 -11 101.231 159.801 19
7 2 -10 398.896 249.416 19
7 2 -10 393.567 356.695 4
7 2 -9 2573.42 556.141 19
7 2 -8 90.3162 225.897 19
7 2 -8 -68.3907 249.916 6
7 2 -7 1102.84 447.297 19
7 2 -7 1401.39 516.177 6
-7 -2 6 241.261 295.477 13
7 2 -6 -175.476 314.786 6
-7 -2 5 11531.7 1232.38 13
7 2 -5 8829.34 1204.87 6
-7 -2 4 9221.37 1132.23 13
-7 -2 3 21534.8 1710.42 13
-7 -2 2 27493.1 1930.57 13
-7 -2 1 14000.2 1392.03 13
-7 -2 0 114.128 293.072 13
-7 -2 -1 254.504 344.711 13
-7 -2 -2 759.435 348.323 13
-7 -2 -3 1767.06 537.583 11
-7 -2 -3 5448.14 751.134 13
-7 -2 -4 113.522 247.318 11
7 3 -10 610.815 256.085 19
7 3 -9 1471.62 374.14 19
7 3 -8 836.925 398.89 6
7 3 -7 567.109 386.445 6
7 3 -6 417.188 418.361 6
-7 -3 6 376.483 300.905 13
7 3 -5 1934.29 612.948 6
-7 -3 5 1949.19 570.466 13
-7 -3 4 896.212 462.887 13
-7 -3 3 11268.8 1270.62 13
-7 -3 2 2357.33 621.872 13
-7 -3 1 9983.71 1180.97 13
-7 -3 0 156.951 261.511 13
-7 -3 -1 -246.464 286.012 13
-7 -3 -2 76.8646 273.217 11
-7 -3 -2 2805.15 548.961 13
-7 -3 -3 -102.577 219.355 11
-7 -3 -4 385.647 214.032 11
7 4 -10 1371.34 309.612 4
7 4 -8 82.2508 211.483 6
7 4 -7 58.6038 224.309 6
-7 -4 7 100.036 210.571 13
7 4 -6 -44.6336 310.112 6
-7 -4 6 -321.449 279.535 13
-7 -4 5 1718.67 521.103 13
7 4 -5 2289.05 550.101 6
-7 -4 4 8623.44 1098.96 13
-7 -4 3 344.83 373.392 13
-7 -4 2 5082.7 855.57 13
-7 -4 1 17.4115 269.68 13
-7 -4 0 1120.45 438.939 13
-7 -4 -1 147.437 245.322 13
-7 -4 -2 -37.4859 181.357 11
7 5 -8 614.482 277.128 6
-7 -5 7 409.695 249.242 13
7 5 -7 249.452 223.504 6
-7 -5 6 40.8762 232.484 13
7 5 -6 -151.528 247.773 6
-7 -5 5 1392.49 459.528 13
-7 -5 4 60.1921 261.027 13
-7 -5 3 1171.38 452.492 13
-7 -5 2 1878.31 515.185 13
-7 -5 1 130.873 268.838 13
-7 -5 0 149.175 204.028 13
-7 -5 -1 -356.814 199.876 11
-7 -6 6 109.318 168.295 13
-7 -6 5 642.703 288.83 13
-7 -6 4 568.889 290.144 13
-7 -6 3 22.3751 193.934 13
-7 -6 2 119.329 189.582 13
-7 -6 1 85.8022 143.951 13
8 -9 -3 323.396 196.944 15
-8 9 2 -108.647 183.262 7
-8 9 1 2118.61 381.253 7
8 -8 -4 6073.04 618.158 9
8 -8 -3 1055.99 304.314 9
8 -8 -2 3411.74 527.409 9
8 -8 -1 2896.09 487.943 9
-8 8 1 2717.53 546.293 7
8 -8 0 104.216 189.653 9
-8 8 0 -6.18657 198.309 7
8 -8 1 1026.41 339.823 9
-8 8 -1 1247.26 324.62 7
8 -7 -7 3276.27 453.934 16
8 -7 -6 1097.5 314.71 16
8 -7 -6 1106.11 302.671 9
8 -7 -5 3459.17 516.938 16
8 -7 -5 4669.58 621.11 9
8 -7 -4 3913.21 599.079 9
8 -7 -3 2539.96 519.399 9
8 -7 -2 -140.206 254.108 9
8 -7 -1 4011.51 620.059 9
8 -7 0 1.43334 185.854 9
-8 7 0 147.858 221.273 7
8 -7 1 459.987 263.858 9
-8 7 -1 733.553 329.107 7
8 -7 2 118.235 192.979 9
8 -6 -8 1008.71 280.774 16
8 -6 -7 1995.32 407.336 16
8 -6 -7 1767.87 395.864 9
8 -6 -6 279.416 222.197 16
8 -6 -6 206.45 282.715 9
8 -6 -5 17903.5 1358.84 9
8 -6 -4 3644.34 662.557 9
8 -6 -3 2140.28 528.622 9
8 -6 -2 2701.97 585.998 9
8 -6 -1 2940.34 598.851 9
8 -6 0 939.262 375.343 9
8 -6 1 11695.6 1031.33 9
8 -6 2 4.17545 191.544 9
-8 6 -3 5521.31 653.146 8
8 -6 3 988.606 324.708 5
8 -5 -8 833.708 326.211 9
8 -5 -7 858.902 396.532 9
8 -5 -6 2391.89 584.58 9
8 -5 -5 1059.18 466.19 9
8 -5 -4 43.5576 273.207 9
8 -5 -3 840.113 382.351 9
8 -5 -2 441.78 331.33 9
8 -5 -1 2952.1 601.576 9
8 -5 0 3628.5 675.917 9
8 -5 1 -66.7675 216.298 9
8 -5 2 3445.27 574.536 9
8 -5 2 1719.3 529.698 5
8 -5 3 292.354 289.249 5
-8 5 -3 24.4116 215.563 8
8 -5 4 -14.9617 210.41 5
-8 5 -4 -3.82599 204.032 8
8 -4 -9 1422.21 384.981 9
8 -4 -8 682.723 317.331 9
8 -4 -7 5768.87 865.957 9
8 -4 -6 -1.05753 295.427 9
8 -4 -5 3650.63 714.422 9
8 -4 -4 422.488 346.929 9
8 -4 -3 1668.78 498.036 9
8 -4 -2 845.39 381.457 9
8 -4 -1 5272.74 786.159 9
-8 4 1 4200.06 769.043 13
8 -4 0 9183.99 985.927 9
-8 4 0 7380.27 1034.69 13
8 -4 1 7997.15 877.846 9
-8 4 -1 4824.95 993.061 13
-8 4 -2 396.36 386.306 13
-8 4 -3 558.487 315.31 8
-8 4 -4 132.244 205.802 8
8 -4 4 976.046 398.125 5
8 -3 -10 2071.48 415.07 9
8 -3 -9 122.053 266.814 9
8 -3 -8 4373.32 780.267 9
8 -3 -8 5025.06 801.742 4
8 -3 -7 317.23 355.913 9
8 -3 -7 281.467 424.36 4
8 -3 -6 765.551 429.728 9
8 -3 -6 1743.28 616.134 4
8 -3 -5 720.788 398.502 9
8 -3 -5 456.871 488.585 4
8 -3 -4 2194.66 568.664 9
8 -3 -4 2420.02 659.501 4
8 -3 -3 4526.71 767.191 9
8 -3 -2 407.387 321.652 9
-8 3 2 254.397 281.969 13
8 -3 -1 5930.36 802.223 9
-8 3 1 5344.14 856.135 13
8 -3 0 9225.32 953.72 9
-8 3 0 9803.46 1194.11 13
-8 3 -1 583.965 409.508 13
-8 3 -2 3952.19 862.153 13
-8 3 -2 7196.43 973.83 8
-8 3 -3 288.034 350.381 13
-8 3 -3 437.776 306.859 8
-8 3 -4 817.304 268.088 11
-8 3 -4 415.132 284.468 8
8 -3 5 929.491 300.312 5
8 -2 -10 43.4803 192.646 9
8 -2 -9 8351.9 913.431 4
8 -2 -8 409.379 479.146 4
8 -2 -7 5552.27 906.623 4
8 -2 -6 1672.7 514.468 9
8 -2 -6 1556.76 621.226 4
8 -2 -5 3044.33 636.506 9
8 -2 -5 2860.73 693.615 4
8 -2 -4 2918.86 645.419 9
8 -2 -4 3705.2 783.024 4
8 -2 -3 3171.77 644.857 9
-8 2 3 2878.55 605.099 13
8 -2 -3 2845.61 635.323 4
8 -2 -2 2951.34 590.753 9
-8 2 2 2909.15 637.788 13
-8 2 1 22733.6 1728.46 13
-8 2 0 2250.71 624.976 13
-8 2 -1 5812.72 835.657 11
-8 2 -1 10956.4 1268.27 13
-8 2 -2 148.145 232.227 11
-8 2 -2 -125.826 321.588 13
-8 2 -2 16.2985 274.536 8
-8 2 -3 736.459 365.048 11
-8 2 -3 928.068 429.976 13
-8 2 -3 731.574 345.246 8
-8 2 -4 -364.323 260.853 11
-8 2 -4 -199.441 264.711 8
8 -1 -10 1333.31 388.171 4
8 -1 -9 2730.9 615.637 4
8 -1 -8 4123.84 765.661 4
8 -1 -7 913.818 515.928 4
8 -1 -6 10035 1212.88 4
8 -1 -5 897.371 400.239 9
8 -1 -5 1104.22 528.01 4
8 -1 -4 80.4911 262.779 9
8 -1 -4 -102.8 383.867 4
-8 1 3 219.719 263.819 13
-8 1 2 14891.7 1378.51 13
-8 1 1 5140.88 851.119 13
-8 1 0 10838.7 1217.39 13
-8 1 0 11752.9 1305.39 8
-8 1 -1 436.86 316.8 11
-8 1 -1 1035.49 462.176 13
-8 1 -1 806.626 403.972 8
-8 1 -2 2871.96 561.112 11
-8 1 -2 3590.3 705.751 13
-8 1 -2 2362.61 584.801 8
-8 1 -3 -68.4911 207.835 11
-8 1 -3 -243.589 295.399 13
-8 1 -3 -76.5638 246.538 8
8 0 -10 1133.18 381.94 4
8 0 -9 5542.72 787.234 4
8 0 -8 4499.08 804.043 4
8 0 -7 5331.01 844.338 4
8 0 -6 3673.99 754.639 4
8 0 -5 3216.79 768.586 4
-8 0 4 1227.53 421.869 13
8 0 -4 1234.52 491.437 4
-8 0 3 1782.9 505.375 13
-8 0 2 108.625 247.911 13
-8 0 1 17867.5 1521.48 13
-8 0 0 4558.81 796.734 13
-8 0 0 3080.1 640.753 8
-8 0 -1 395.05 314.677 11
-8 0 -1 1259.89 467.83 13
-8 0 -1 406.039 372.802 8
-8 0 -2 43.1003 221.87 11
-8 0 -2 -58.7104 256.605 13
-8 0 -2 153.214 233.591 8
-8 0 -3 1199.37 383.813 11
-8 0 -3 1190.28 393.444 13
-8 0 -4 -539.126 268.06 11
8 1 -10 142.607 242.467 4
8 1 -9 2781.99 547.671 4
8 1 -8 797.375 413.44 4
8 1 -7 2456.32 593.513 4
8 1 -6 581.079 421.989 4
8 1 -5 1181.25 562.378 4
-8 -1 5 1877.29 483.415 13
-8 -1 4 479.262 325.605 13
-8 -1 3 2886.23 658.393 13
-8 -1 2 7983.55 1034.25 13
-8 -1 1 21635.1 1618.17 13
-8 -1 0 2132.58 584.42 13
-8 -1 -1 2062.5 590.364 11
-8 -1 -1 6898.44 903.661 13
-8 -1 -2 -104.589 224.6 11
-8 -1 -2 -81.0075 225.334 13
-8 -1 -3 134.831 199.993 11
-8 -1 -3 222.088 209.982 13
8 2 -9 929.67 345.684 4
8 2 -8 306.429 324.12 4
8 2 -7 401.874 354.449 4
8 2 -6 1055.73 483.521 4
-8 -2 6 1636.37 463.529 13
8 2 -5 790.297 424.38 4
-8 -2 5 925.854 387.039 13
-8 -2 4 6758 934.413 13
-8 -2 3 241.22 302.837 13
-8 -2 2 8579.85 1071.47 13
-8 -2 1 2124.13 545.315 13
-8 -2 0 9036.03 988.408 13
-8 -2 -1 1528.78 445.05 11
-8 -2 -1 6818.08 846.012 13
-8 -2 -2 -252.614 231.334 11
-8 -2 -2 73.7222 176.033 13
-8 -2 -3 -135.2 144.799 11
8 3 -9 73.0421 188.56 4
8 3 -8 564.292 290.595 4
8 3 -7 1277.46 381.081 4
8 3 -6 79.636 327.731 4
-8 -3 6 11.5426 185.814 13
-8 -3 5 2297.05 541.447 13
-8 -3 4 192.466 270.42 13
-8 -3 3 6692.01 877.242 13
-8 -3 2 -343.542 293.09 13
-8 -3 1 1865.04 455.536 13
-8 -3 0 2020.59 457.87 13
-8 -3 -1 105.943 182.396 11
-8 -3 -1 777.754 281.944 13
8 4 -7 -110.537 244.886 4
-8 -4 6 644.421 283.137 13
-8 -4 5 -87.5305 193.523 13
-8 -4 4 74.1329 217.051 13
-8 -4 3 320.714 262.898 13
-8 -4 2 551.459 286.963 13
-8 -4 1 -17.4065 180.882 13
-8 -4 0 -205.605 180.134 11
-8 -4 0 277.005 187.013 13
-8 -5 5 514.114 234.934 13
-8 -5 4 571.914 256.709 13
-8 -5 3 1241.1 322.244 13
9 -7 -4 3395.02 474.269 9
9 -7 -3 -11.3258 150.102 9
9 -7 -2 4139.47 519.327 9
-9 7 2 3029.47 466.399 7
9 -7 -1 1232.25 301.209 9
9 -7 0 3101.62 415.869 9
9 -6 -6 302.409 211.545 9
9 -6 -5 2922.09 493.637 9
9 -6 -4 1074.71 320.968 9
9 -6 -3 2918.19 487.4 9
9 -6 -2 39.3871 164.563 9
9 -6 -1 1523.03 357.109 9
9 -6 0 95.4318 154.273 9
9 -6 1 836.975 245.146 9
-9 6 -1 1326.1 336.976 8
9 -5 -7 916.455 309.615 9
9 -5 -6 3444.01 548.585 9
9 -5 -5 682.189 311.467 9
9 -5 -4 1237.81 388.797 9
9 -5 -3 89.4155 179.038 9
9 -5 -2 689.868 285.523 9
9 -5 -1 1047.4 315.242 9
9 -5 0 3824.83 530.384 9
9 -5 1 -68.4621 142.095 9
-9 5 -1 28.3492 176.675 8
-9 5 -2 3240.21 453.05 8
9 -4 -8 915.835 287.15 9
9 -4 -7 2094.45 451.179 9
9 -4 -6 155.645 261.056 9
9 -4 -5 1233.57 389.018 9
9 -4 -4 4860.39 703.945 9
9 -4 -3 2024.92 455.689 9
9 -4 -2 -29.241 188.192 9
9 -4 -1 3884.97 555.413 9
-9 4 1 2273.22 503.063 13
-9 4 -1 5220.2 697.068 8
-9 4 -2 423.131 263.171 8
9 -3 -8 3965.55 562.385 9
9 -3 -7 2626.37 504.591 9
9 -3 -6 4662 669.164 9
9 -3 -5 228.445 254.877 9
9 -3 -4 5558.57 737.513 9
9 -3 -3 431.458 265.935 9
9 -3 -2 6375.33 740.824 9
-9 3 2 5125.23 716.224 13
-9 3 1 391.509 331.537 13
-9 3 0 2634.59 570.414 13
-9 3 0 3264.43 620.953 8
-9 3 -1 167.82 246.401 13
-9 3 -1 258.105 265.112 8
-9 3 -2 2214.73 448.242 8
9 -2 -9 1560.18 325.933 9
9 -2 -8 5141.21 631.899 9
9 -2 -7 2253.84 470.438 9
9 -2 -7 1969.39 527.36 4
9 -2 -6 6301.49 779.242 9
9 -2 -6 5833.11 794.575 4
9 -2 -5 2526.34 515.215 9
9 -2 -4 922.959 345.851 9
-9 2 3 1470.39 420.153 13
-9 2 2 351.401 280.738 13
-9 2 1 2597.67 569.976 13
-9 2 1 1925.86 497.9 8
-9 2 0 41.8418 276.459 13
-9 2 0 87.6154 239.475 8
-9 2 -1 2318.08 528.306 13
-9 2 -1 1504.51 406.919 8
-9 2 -2 1075.87 383.117 13
-9 2 -2 349.351 241.459 8
9 -1 -8 480.774 237.009 9
9 -1 -8 393.992 309.748 4
9 -1 -7 12614.9 1011.45 9
9 -1 -7 13333.8 1080.09 4
9 -1 -6 -180.746 229.044 9
9 -1 -6 177.424 343.854 4
9 -1 -5 4415.83 648.293 9
9 -1 -5 3532.54 640.333 4
-9 1 3 2235.22 509.016 13
-9 1 2 1306.59 430.893 13
-9 1 1 1084.42 370.535 13
-9 1 0 5008.33 738.788 13
-9 1 0 1315.67 388.241 8
-9 1 -1 370.662 212.396 11
-9 1 -1 510.32 307.808 13
-9 1 -1 79.6586 193.148 8
-9 1 -2 790.51 296.067 13
9 0 -8 898.528 260.454 9
9 0 -8 742.536 317.242 4
9 0 -7 102.037 338.913 4
9 0 -6 1708.47 501.039 4
9 0 -5 870.663 421.369 4
-9 0 4 2771.66 520.048 13
-9 0 3 -124.462 238.543 13
-9 0 2 5334.64 731.076 13
-9 0 1 554.028 242.478 11
-9 0 1 2482.16 525.543 13
-9 0 0 358.992 232.092 11
-9 0 0 758.977 320.045 13
-9 0 -1 110.25 154.887 11
-9 0 -1 490.231 246.48 13
9 1 -8 65.4195 215.754 4
9 1 -7 826.767 342.573 4
9 1 -6 779.146 393.278 4
-9 -1 5 1273.78 348.875 13
-9 -1 4 179.836 214.195 13
-9 -1 3 4730.17 672.204 13
-9 -1 2 -19.0454 236.258 13
-9 -1 1 -101.665 164.202 11
-9 -1 1 704.238 328.574 13
-9 -1 0 -55.1672 152.449 11
-9 -1 0 1117.16 341.139 13
-9 -1 -1 2150.69 411.847 13
-9 -2 5 365.692 220.989 13
-9 -2 4 1324.44 371.647 13
-9 -2 3 -76.3176 216.625 13
-9 -2 2 3421.56 540.704 13
-9 -2 1 -284.972 186.934 11
-9 -2 1 -308.369 216.953 13
-9 -3 4 -10.3642 144.102 13
-9 -3 3 1514.73 338.544 13
