#------------------------------------------------------------------------------
#$Date: 2019-11-11 19:48:31 +0200 (Mon, 11 Nov 2019) $
#$Revision: 227140 $
#$URL: file:///home/coder/svn-repositories/cod/cif/4/03/56/4035692.cif $
#------------------------------------------------------------------------------
#
# This file is available in the Crystallography Open Database (COD),
# http://www.crystallography.net/
#
# All data on this site have been placed in the public domain by the
# contributors.
#
data_4035692
loop_
_publ_author_name
'Wang, Qiang'
'Jin, Jia-Ni'
'Chen, Xi'
'Wang, Xin-Gang'
'Zhang, Bo-Sheng'
'Ma, Jun-Wei'
'Liang, Yong-Min'
_publ_section_title
;
 Synthesis of Difluoroalkyl Unsaturated \b-Amino Acid Derivatives
 Exclusively through Alkyne Difunctionalization.
;
_journal_issue                   23
_journal_name_full               'The Journal of organic chemistry'
_journal_page_first              14626
_journal_page_last               14636
_journal_paper_doi               10.1021/acs.joc.8b02440
_journal_volume                  83
_journal_year                    2018
_chemical_formula_moiety         'C13 H19 F2 N O5'
_chemical_formula_sum            'C13 H19 F2 N O5'
_chemical_formula_weight         307.29
_space_group_crystal_system      triclinic
_space_group_IT_number           2
_space_group_name_Hall           '-P 1'
_space_group_name_H-M_alt        'P -1'
_atom_sites_solution_hydrogens   geom
_atom_sites_solution_primary     iterative
_atom_sites_solution_secondary   difmap
_audit_creation_date             2018-07-27
_audit_creation_method
;
Olex2 1.2
(compiled 2017.03.28 svn.r3405 for OlexSys, GUI svn.r5337)
;
_cell_angle_alpha                92.577(13)
_cell_angle_beta                 94.129(16)
_cell_angle_gamma                93.294(13)
_cell_formula_units_Z            2
_cell_length_a                   5.7929(11)
_cell_length_b                   10.1326(13)
_cell_length_c                   13.119(3)
_cell_measurement_reflns_used    1617
_cell_measurement_temperature    173.00(10)
_cell_measurement_theta_max      27.1650
_cell_measurement_theta_min      3.7860
_cell_volume                     765.8(2)
_computing_cell_refinement
;
CrysAlisPro, Agilent Technologies,
Version 1.171.36.28 (release 01-02-2013 CrysAlis171 .NET)
(compiled Feb  1 2013,16:14:44)
;
_computing_data_collection
;
CrysAlisPro, Agilent Technologies,
Version 1.171.36.28 (release 01-02-2013 CrysAlis171 .NET)
(compiled Feb  1 2013,16:14:44)
;
_computing_data_reduction
;
CrysAlisPro, Agilent Technologies,
Version 1.171.36.28 (release 01-02-2013 CrysAlis171 .NET)
(compiled Feb  1 2013,16:14:44)
;
_computing_molecular_graphics    'Olex2 (Dolomanov et al., 2009)'
_computing_publication_material  'Olex2 (Dolomanov et al., 2009)'
_computing_structure_refinement  'ShelXL (Sheldrick, 2015)'
_computing_structure_solution
;
Superflip (Palatinus & Chapuis, 2007;Palatinus & van der Lee, 2008;
Palatinus et al., 2012)
;
_diffrn_ambient_temperature      173.00(10)
_diffrn_detector_area_resol_mean 16.0733
_diffrn_measured_fraction_theta_full 0.996
_diffrn_measured_fraction_theta_max 0.996
_diffrn_measurement_details
;
#__ type_ start__ end____ width___ exp.time_
  1 omega  -51.00  -25.00   2.0000    5.0000
omega____ theta____ kappa____ phi______ frames
    -      -19.4273   77.0000 -150.0000 13

#__ type_ start__ end____ width___ exp.time_
  2 omega   25.00   51.00   2.0000    5.0000
omega____ theta____ kappa____ phi______ frames
    -      -19.4273   77.0000 -150.0000 13

#__ type_ start__ end____ width___ exp.time_
  3 omega   -7.00   19.00   2.0000    5.0000
omega____ theta____ kappa____ phi______ frames
    -      -19.4273  -99.0000   90.0000 13

#__ type_ start__ end____ width___ exp.time_
  4 omega   -1.00   31.00   2.0000    5.0000
omega____ theta____ kappa____ phi______ frames
    -       22.7867   57.0000    0.0000 16

#__ type_ start__ end____ width___ exp.time_
  5 omega  -45.00   47.00   2.0000    5.0000
omega____ theta____ kappa____ phi______ frames
    -       22.7867  -57.0000  -30.0000 46

#__ type_ start__ end____ width___ exp.time_
  6 omega    2.00   92.00   2.0000    5.0000
omega____ theta____ kappa____ phi______ frames
    -       22.7867   57.0000  120.0000 45

#__ type_ start__ end____ width___ exp.time_
  7 omega  -48.00   46.00   2.0000    5.0000
omega____ theta____ kappa____ phi______ frames
    -       22.7867  -57.0000 -150.0000 47
;
_diffrn_measurement_device_type  'SuperNova, Dual, Cu at zero, Eos'
_diffrn_measurement_method       '\w scans'
_diffrn_orient_matrix_UB_11      -0.0805933000
_diffrn_orient_matrix_UB_12      -0.0088002000
_diffrn_orient_matrix_UB_13      0.0377088000
_diffrn_orient_matrix_UB_21      0.0929019000
_diffrn_orient_matrix_UB_22      -0.0025797000
_diffrn_orient_matrix_UB_23      0.0380085000
_diffrn_orient_matrix_UB_31      0.0008112000
_diffrn_orient_matrix_UB_32      0.0696014000
_diffrn_orient_matrix_UB_33      0.0088757000
_diffrn_radiation_monochromator  mirror
_diffrn_radiation_type           MoK\a
_diffrn_radiation_wavelength     0.71073
_diffrn_reflns_av_R_equivalents  0.0214
_diffrn_reflns_av_unetI/netI     0.0446
_diffrn_reflns_limit_h_max       6
_diffrn_reflns_limit_h_min       -7
_diffrn_reflns_limit_k_max       12
_diffrn_reflns_limit_k_min       -12
_diffrn_reflns_limit_l_max       16
_diffrn_reflns_limit_l_min       -16
_diffrn_reflns_number            4881
_diffrn_reflns_theta_full        26.02
_diffrn_reflns_theta_max         26.02
_diffrn_reflns_theta_min         3.53
_diffrn_source                   'SuperNova (Mo) X-ray Source'
_exptl_absorpt_coefficient_mu    0.117
_exptl_absorpt_correction_T_max  1.00000
_exptl_absorpt_correction_T_min  0.80960
_exptl_absorpt_correction_type   multi-scan
_exptl_absorpt_process_details
;
CrysAlisPro, Agilent Technologies,
Version 1.171.36.28 (release 01-02-2013 CrysAlis171 .NET)
(compiled Feb  1 2013,16:14:44)
Empirical absorption correction using spherical harmonics,
 implemented in SCALE3 ABSPACK scaling algorithm.
;
_exptl_crystal_colour            'clear light colourless'
_exptl_crystal_colour_lustre     clear
_exptl_crystal_colour_modifier   light
_exptl_crystal_colour_primary    colourless
_exptl_crystal_density_diffrn    1.333
_exptl_crystal_density_method    'not measured'
_exptl_crystal_description       block
_exptl_crystal_F_000             324
_exptl_crystal_size_max          0.27
_exptl_crystal_size_mid          0.24
_exptl_crystal_size_min          0.21
_refine_diff_density_max         0.424
_refine_diff_density_min         -0.269
_refine_diff_density_rms         0.049
_refine_ls_extinction_method     none
_refine_ls_goodness_of_fit_ref   1.042
_refine_ls_hydrogen_treatment    constr
_refine_ls_matrix_type           full
_refine_ls_number_parameters     195
_refine_ls_number_reflns         3006
_refine_ls_number_restraints     0
_refine_ls_restrained_S_all      1.042
_refine_ls_R_factor_all          0.0630
_refine_ls_R_factor_gt           0.0477
_refine_ls_shift/su_max          0.001
_refine_ls_shift/su_mean         0.000
_refine_ls_structure_factor_coef Fsqd
_refine_ls_weighting_details
'calc w=1/[\s^2^(Fo^2^)+(0.0440P)^2^+0.3012P] where P=(Fo^2^+2Fc^2^)/3'
_refine_ls_weighting_scheme      calc
_refine_ls_wR_factor_gt          0.1078
_refine_ls_wR_factor_ref         0.1212
_reflns_number_gt                2328
_reflns_number_total             3006
_reflns_threshold_expression     >2sigma(I)
_iucr_refine_instructions_details
;
TITL 2641 in P-1
CELL 0.71073 5.792875 10.132619 13.119489 92.5769 94.129 93.2945
ZERR 2 0.001114 0.001319 0.002556 0.0131 0.0158 0.013
LATT 1
SFAC C H F N O
UNIT 26 38 4 2 10
 
L.S. 4
PLAN  20
BOND $H
HTAB
CONF
fmap 2
acta
SHEL 999 0.81
REM <olex2.extras>
REM <HklSrc "%.\\2641.hkl">
REM </olex2.extras>
 
WGHT    0.044000    0.301200
FVAR      10.01614
F1    3    0.971789    0.172356    0.137805    11.00000    0.06220    0.03527 =
         0.02736   -0.00153   -0.01221   -0.00236
F2    3    1.308115    0.099132    0.182006    11.00000    0.06874    0.03351 =
         0.05064    0.00178    0.02337    0.02559
O1    5    0.744581    0.602879    0.016909    11.00000    0.04546    0.03766 =
         0.01739    0.00147    0.00399    0.01706
O2    5    0.901210    0.533960    0.385246    11.00000    0.06078    0.04465 =
         0.01629    0.00031    0.00290    0.03088
O3    5    1.186285    0.401137    0.425584    11.00000    0.05416    0.04318 =
         0.01495    0.00041    0.00008    0.02362
AFIX 147
H3    2    1.156017    0.424132    0.483603    11.00000   -1.50000
AFIX   0
O4    5    0.843952    0.158318    0.324770    11.00000    0.04147    0.04703 =
         0.04274    0.01698    0.01217    0.01641
O5    5    1.158748    0.047792    0.360681    11.00000    0.04579    0.07673 =
         0.06744    0.04984    0.01214    0.02211
N1    4    0.807989    0.574408    0.186206    11.00000    0.03867    0.02485 =
         0.01486    0.00093    0.00458    0.01082
AFIX  43
H1    2    0.769451    0.595778    0.246575    11.00000   -1.20000
AFIX   0
C1    1    0.570083    0.756627    0.129728    11.00000    0.02640    0.02336 =
         0.02255    0.00066    0.00302    0.00556
C2    1    0.709428    0.637519    0.103614    11.00000    0.02770    0.02053 =
         0.01916    0.00167    0.00109    0.00118
C3    1    0.964270    0.479401    0.175237    11.00000    0.03260    0.02079 =
         0.01587   -0.00072    0.00299    0.00431
AFIX  43
H3A   2    0.992292    0.452220    0.108841    11.00000   -1.20000
AFIX   0
C4    1    1.081329    0.421651    0.252188    11.00000    0.03213    0.02060 =
         0.01785   -0.00011    0.00319    0.00477
C5    1    1.047142    0.456589    0.358267    11.00000    0.04109    0.02646 =
         0.01860    0.00226    0.00085    0.01068
C6    1    1.250836    0.319639    0.226920    11.00000    0.03090    0.02861 =
         0.01718    0.00280    0.00321    0.00723
AFIX  23
H6A   2    1.374627    0.323470    0.281041    11.00000   -1.20000
H6B   2    1.319340    0.342217    0.164179    11.00000   -1.20000
AFIX   0
C7    1    1.145024    0.179804    0.213993    11.00000    0.03959    0.02612 =
         0.02272   -0.00091    0.00256    0.01454
C8    1    1.050760    0.119574    0.309392    11.00000    0.03250    0.02533 =
         0.03163    0.00594   -0.00028    0.00398
C9    1    0.727649    0.102396    0.409841    11.00000    0.05168    0.06194 =
         0.06176    0.02447    0.02145    0.01035
AFIX  23
H9A   2    0.576590    0.062746    0.384877    11.00000   -1.20000
H9B   2    0.818097    0.033514    0.438562    11.00000   -1.20000
AFIX   0
C10   1    0.699976    0.204515    0.489078    11.00000    0.10604    0.07281 =
         0.04391    0.01085    0.03125    0.00080
AFIX 137
H10A  2    0.624430    0.276910    0.459173    11.00000   -1.50000
H10B  2    0.849595    0.235550    0.520041    11.00000   -1.50000
H10C  2    0.607671    0.168362    0.540223    11.00000   -1.50000
AFIX   0
C11   1    0.478015    0.755336    0.235840    11.00000    0.04940    0.03917 =
         0.03403    0.00132    0.01285    0.01827
AFIX 137
H11A  2    0.388578    0.673829    0.242416    11.00000   -1.50000
H11B  2    0.381763    0.828375    0.244840    11.00000   -1.50000
H11C  2    0.605805    0.762991    0.286995    11.00000   -1.50000
AFIX   0
C12   1    0.736602    0.877897    0.122985    11.00000    0.03808    0.02467 =
         0.06664   -0.00076    0.01026    0.00456
AFIX 137
H12A  2    0.865422    0.874251    0.172872    11.00000   -1.50000
H12B  2    0.657018    0.956740    0.136064    11.00000   -1.50000
H12C  2    0.792002    0.878903    0.055783    11.00000   -1.50000
AFIX   0
C13   1    0.367526    0.760499    0.048652    11.00000    0.03717    0.04643 =
         0.03963   -0.00300   -0.00421    0.01587
AFIX 137
H13A  2    0.425780    0.762255   -0.017982    11.00000   -1.50000
H13B  2    0.284848    0.838387    0.060999    11.00000   -1.50000
H13C  2    0.264807    0.683286    0.052047    11.00000   -1.50000
HKLF 4
 
REM  2641 in P-1
REM R1 =  0.0477 for   2328 Fo > 4sig(Fo)  and  0.0630 for all   3006 data
REM    195 parameters refined using      0 restraints
 
END  
     
WGHT      0.0440      0.3011 
REM Highest difference peak  0.424,  deepest hole -0.269,  1-sigma level  0.049
Q1    1   0.8476  0.1429  0.4561  11.00000  0.05    0.42
Q2    1   1.0967  0.1568  0.2630  11.00000  0.05    0.21
Q3    1   0.6322  0.7003  0.1161  11.00000  0.05    0.19
Q4    1   0.9059  0.2034  0.3750  11.00000  0.05    0.18
Q5    1   1.1718  0.2599  0.2309  11.00000  0.05    0.18
Q6    1   1.0459  0.4245  0.2967  11.00000  0.05    0.18
Q7    1   0.9724  0.4015  0.2120  11.00000  0.05    0.17
Q8    1   1.0494 -0.0028  0.3315  11.00000  0.05    0.16
Q9    1   0.7230  0.3005  0.4797  11.00000  0.05    0.16
Q10   1   0.9381  0.1926  0.5132  11.00000  0.05    0.15
Q11   1   1.0852  0.3452  0.2415  11.00000  0.05    0.15
Q12   1   0.7683  0.0008  0.4149  11.00000  0.05    0.14
Q13   1   0.7268  0.9994 -0.0194  11.00000  0.05    0.14
Q14   1   0.3763  0.9042  0.0584  11.00000  0.05    0.13
Q15   1   0.3188  0.5455  0.0999  11.00000  0.05    0.13
Q16   1   0.6291  0.7993  0.1285  11.00000  0.05    0.13
Q17   1   0.6652  0.4802 -0.0151  11.00000  0.05    0.13
Q18   1   0.6266  0.4751  0.1829  11.00000  0.05    0.13
Q19   1   1.2835  0.2386  0.0823  11.00000  0.05    0.13
Q20   1   1.4609  0.4174  0.2591  11.00000  0.05    0.13

  REM The information below was added by Olex2.
  REM
  REM R1 = 0.0477 for 2328 Fo > 4sig(Fo) and 0.0630 for all 5383 data
  REM n/a parameters refined using n/a restraints
  REM Highest difference peak 0.42, deepest hole -0.27
  REM Mean Shift 0, Max Shift 0.001.

  REM +++ Tabular Listing of Refinement Information +++
  REM R1_all = 0.0630
  REM R1_gt = 0.0477
  REM wR_ref = 0.1212
  REM GOOF = 1.042
  REM Shift_max = 0.001
  REM Shift_mean = 0
  REM Reflections_all = 5383
  REM Reflections_gt = 2328
  REM Parameters = n/a
  REM Hole = -0.27
  REM Peak = 0.42
  REM Flack = n/a

  
;
_cod_data_source_file            jo8b02440_si_003.cif
_cod_data_source_block           2641
_cod_original_cell_volume        765.9(2)
_cod_database_code               4035692
_reflns_odcompleteness_completeness 99.59
_reflns_odcompleteness_iscentric 1
_reflns_odcompleteness_theta     26.32
_olex2_refinement_description
;
1. Fixed Uiso
 At 1.2 times of:
  All C(H) groups, All C(H,H) groups, All N(H) groups
 At 1.5 times of:
  All C(H,H,H) groups, All O(H) groups
2.a Secondary CH2 refined with riding coordinates:
 C6(H6A,H6B), C9(H9A,H9B)
2.b Aromatic/amide H refined with riding coordinates:
 N1(H1), C3(H3A)
2.c Idealised Me refined as rotating group:
 C10(H10A,H10B,H10C), C11(H11A,H11B,H11C), C12(H12A,H12B,H12C), C13(H13A,H13B,
 H13C)
2.d Idealised tetrahedral OH refined as rotating group:
 O3(H3)
;
_olex2_date_sample_data_collection 2018-07-27
_olex2_submission_special_instructions 'No special instructions were received'
loop_
_space_group_symop_id
_space_group_symop_operation_xyz
1 'x, y, z'
2 '-x, -y, -z'
loop_
_atom_site_label
_atom_site_type_symbol
_atom_site_fract_x
_atom_site_fract_y
_atom_site_fract_z
_atom_site_U_iso_or_equiv
_atom_site_adp_type
_atom_site_occupancy
_atom_site_calc_flag
_atom_site_refinement_flags_posn
F1 F 0.9718(2) 0.17236(11) 0.13781(9) 0.0427(4) Uani 1 d .
F2 F 1.3081(2) 0.09913(12) 0.18201(11) 0.0492(4) Uani 1 d .
O1 O 0.7446(3) 0.60288(14) 0.01691(10) 0.0329(4) Uani 1 d .
O2 O 0.9012(3) 0.53396(15) 0.38525(10) 0.0395(4) Uani 1 d .
O3 O 1.1863(3) 0.40114(15) 0.42558(10) 0.0368(4) Uani 1 d .
H3 H 1.1560 0.4241 0.4836 0.055 Uiso 1 calc GR
O4 O 0.8440(3) 0.15832(15) 0.32477(12) 0.0423(4) Uani 1 d .
O5 O 1.1587(3) 0.04779(19) 0.36068(14) 0.0608(6) Uani 1 d .
N1 N 0.8080(3) 0.57441(15) 0.18621(11) 0.0257(4) Uani 1 d .
H1 H 0.7695 0.5958 0.2466 0.031 Uiso 1 calc R
C1 C 0.5701(3) 0.75663(17) 0.12973(14) 0.0239(4) Uani 1 d .
C2 C 0.7094(3) 0.63752(17) 0.10361(14) 0.0225(4) Uani 1 d .
C3 C 0.9643(3) 0.47940(17) 0.17524(14) 0.0230(4) Uani 1 d .
H3A H 0.9923 0.4522 0.1088 0.028 Uiso 1 calc R
C4 C 1.0813(3) 0.42165(17) 0.25219(14) 0.0234(4) Uani 1 d .
C5 C 1.0471(4) 0.45659(18) 0.35827(14) 0.0284(4) Uani 1 d .
C6 C 1.2508(3) 0.31964(18) 0.22692(14) 0.0252(4) Uani 1 d .
H6A H 1.3746 0.3235 0.2810 0.030 Uiso 1 calc R
H6B H 1.3193 0.3422 0.1642 0.030 Uiso 1 calc R
C7 C 1.1450(4) 0.17980(19) 0.21399(15) 0.0290(5) Uani 1 d .
C8 C 1.0508(4) 0.11957(19) 0.30939(16) 0.0297(5) Uani 1 d .
C9 C 0.7276(5) 0.1024(3) 0.4098(2) 0.0567(7) Uani 1 d .
H9A H 0.5766 0.0627 0.3849 0.068 Uiso 1 calc R
H9B H 0.8181 0.0335 0.4386 0.068 Uiso 1 calc R
C10 C 0.7000(6) 0.2045(3) 0.4891(2) 0.0730(9) Uani 1 d .
H10A H 0.6244 0.2769 0.4592 0.109 Uiso 1 calc GR
H10B H 0.8496 0.2355 0.5200 0.109 Uiso 1 calc GR
H10C H 0.6077 0.1684 0.5402 0.109 Uiso 1 calc GR
C11 C 0.4780(4) 0.7553(2) 0.23584(16) 0.0398(5) Uani 1 d .
H11A H 0.3886 0.6738 0.2424 0.060 Uiso 1 calc GR
H11B H 0.3818 0.8284 0.2448 0.060 Uiso 1 calc GR
H11C H 0.6058 0.7630 0.2870 0.060 Uiso 1 calc GR
C12 C 0.7366(4) 0.87790(19) 0.1230(2) 0.0428(6) Uani 1 d .
H12A H 0.8654 0.8743 0.1729 0.064 Uiso 1 calc GR
H12B H 0.6570 0.9567 0.1361 0.064 Uiso 1 calc GR
H12C H 0.7920 0.8789 0.0558 0.064 Uiso 1 calc GR
C13 C 0.3675(4) 0.7605(2) 0.04865(17) 0.0411(6) Uani 1 d .
H13A H 0.4258 0.7623 -0.0180 0.062 Uiso 1 calc GR
H13B H 0.2848 0.8384 0.0610 0.062 Uiso 1 calc GR
H13C H 0.2648 0.6833 0.0520 0.062 Uiso 1 calc GR
loop_
_atom_site_aniso_label
_atom_site_aniso_U_11
_atom_site_aniso_U_22
_atom_site_aniso_U_33
_atom_site_aniso_U_23
_atom_site_aniso_U_13
_atom_site_aniso_U_12
F1 0.0622(9) 0.0353(7) 0.0274(6) -0.0015(5) -0.0122(6) -0.0024(6)
F2 0.0687(10) 0.0335(7) 0.0506(8) 0.0018(6) 0.0234(7) 0.0256(6)
O1 0.0455(9) 0.0377(8) 0.0174(7) 0.0015(6) 0.0040(6) 0.0171(7)
O2 0.0608(10) 0.0447(8) 0.0163(7) 0.0003(6) 0.0029(7) 0.0309(8)
O3 0.0542(10) 0.0432(8) 0.0149(7) 0.0004(7) 0.0001(6) 0.0236(7)
O4 0.0415(9) 0.0470(9) 0.0427(9) 0.0170(8) 0.0122(7) 0.0164(7)
O5 0.0458(10) 0.0767(12) 0.0674(12) 0.0498(11) 0.0121(9) 0.0221(9)
N1 0.0387(10) 0.0248(8) 0.0149(7) 0.0009(6) 0.0046(7) 0.0108(7)
C1 0.0264(10) 0.0234(9) 0.0225(9) 0.0007(8) 0.0030(8) 0.0056(7)
C2 0.0277(10) 0.0205(9) 0.0192(9) 0.0017(7) 0.0011(7) 0.0012(7)
C3 0.0326(10) 0.0208(8) 0.0159(9) -0.0007(7) 0.0030(8) 0.0043(7)
C4 0.0321(11) 0.0206(9) 0.0178(9) -0.0001(7) 0.0032(8) 0.0048(8)
C5 0.0411(12) 0.0265(10) 0.0186(9) 0.0023(8) 0.0009(8) 0.0107(9)
C6 0.0309(10) 0.0286(10) 0.0172(9) 0.0028(8) 0.0032(8) 0.0072(8)
C7 0.0396(12) 0.0261(9) 0.0227(10) -0.0009(8) 0.0026(9) 0.0145(8)
C8 0.0325(11) 0.0253(9) 0.0316(11) 0.0059(9) -0.0003(9) 0.0040(8)
C9 0.0517(16) 0.0619(16) 0.0618(17) 0.0245(15) 0.0215(13) 0.0103(13)
C10 0.106(3) 0.073(2) 0.0439(16) 0.0109(15) 0.0313(16) 0.0008(18)
C11 0.0494(14) 0.0392(12) 0.0340(12) 0.0013(10) 0.0129(10) 0.0183(10)
C12 0.0381(13) 0.0247(10) 0.0666(16) -0.0008(11) 0.0103(11) 0.0046(9)
C13 0.0372(13) 0.0464(13) 0.0396(13) -0.0030(11) -0.0042(10) 0.0159(10)
loop_
_atom_type_symbol
_atom_type_description
_atom_type_scat_dispersion_real
_atom_type_scat_dispersion_imag
_atom_type_scat_source
C C 0.0033 0.0016 'International Tables Vol C Tables 4.2.6.8 and 6.1.1.4'
H H 0.0000 0.0000 'International Tables Vol C Tables 4.2.6.8 and 6.1.1.4'
F F 0.0171 0.0103 'International Tables Vol C Tables 4.2.6.8 and 6.1.1.4'
N N 0.0061 0.0033 'International Tables Vol C Tables 4.2.6.8 and 6.1.1.4'
O O 0.0106 0.0060 'International Tables Vol C Tables 4.2.6.8 and 6.1.1.4'
loop_
_geom_angle_atom_site_label_1
_geom_angle_atom_site_label_2
_geom_angle_atom_site_label_3
_geom_angle
C5 O3 H3 109.5
C8 O4 C9 117.28(17)
C2 N1 H1 118.8
C3 N1 H1 118.8
C3 N1 C2 122.48(16)
C11 C1 C2 113.92(15)
C11 C1 C12 109.86(18)
C11 C1 C13 109.56(17)
C12 C1 C2 105.41(16)
C12 C1 C13 109.59(17)
C13 C1 C2 108.38(16)
O1 C2 N1 120.72(16)
O1 C2 C1 123.15(16)
N1 C2 C1 116.02(15)
N1 C3 H3A 117.1
C4 C3 N1 125.81(17)
C4 C3 H3A 117.1
C3 C4 C5 121.05(17)
C3 C4 C6 119.17(16)
C5 C4 C6 119.77(15)
O2 C5 O3 121.67(17)
O2 C5 C4 123.58(16)
O3 C5 C4 114.74(16)
C4 C6 H6A 108.7
C4 C6 H6B 108.7
C4 C6 C7 114.15(16)
H6A C6 H6B 107.6
C7 C6 H6A 108.7
C7 C6 H6B 108.7
F1 C7 F2 106.00(15)
F1 C7 C6 109.54(15)
F1 C7 C8 108.57(17)
F2 C7 C6 108.71(17)
F2 C7 C8 106.71(15)
C6 C7 C8 116.76(16)
O4 C8 C7 111.48(16)
O5 C8 O4 126.3(2)
O5 C8 C7 122.21(19)
O4 C9 H9A 109.5
O4 C9 H9B 109.5
H9A C9 H9B 108.1
C10 C9 O4 110.7(2)
C10 C9 H9A 109.5
C10 C9 H9B 109.5
C9 C10 H10A 109.5
C9 C10 H10B 109.5
C9 C10 H10C 109.5
H10A C10 H10B 109.5
H10A C10 H10C 109.5
H10B C10 H10C 109.5
C1 C11 H11A 109.5
C1 C11 H11B 109.5
C1 C11 H11C 109.5
H11A C11 H11B 109.5
H11A C11 H11C 109.5
H11B C11 H11C 109.5
C1 C12 H12A 109.5
C1 C12 H12B 109.5
C1 C12 H12C 109.5
H12A C12 H12B 109.5
H12A C12 H12C 109.5
H12B C12 H12C 109.5
C1 C13 H13A 109.5
C1 C13 H13B 109.5
C1 C13 H13C 109.5
H13A C13 H13B 109.5
H13A C13 H13C 109.5
H13B C13 H13C 109.5
loop_
_geom_bond_atom_site_label_1
_geom_bond_atom_site_label_2
_geom_bond_distance
F1 C7 1.361(2)
F2 C7 1.361(2)
O1 C2 1.210(2)
O2 C5 1.245(2)
O3 H3 0.8200
O3 C5 1.319(2)
O4 C8 1.308(2)
O4 C9 1.464(3)
O5 C8 1.187(2)
N1 H1 0.8600
N1 C2 1.387(2)
N1 C3 1.369(2)
C1 C2 1.530(2)
C1 C11 1.527(3)
C1 C12 1.528(3)
C1 C13 1.529(3)
C3 H3A 0.9300
C3 C4 1.350(2)
C4 C5 1.451(3)
C4 C6 1.508(2)
C6 H6A 0.9700
C6 H6B 0.9700
C6 C7 1.509(3)
C7 C8 1.538(3)
C9 H9A 0.9700
C9 H9B 0.9700
C9 C10 1.457(4)
C10 H10A 0.9600
C10 H10B 0.9600
C10 H10C 0.9600
C11 H11A 0.9600
C11 H11B 0.9600
C11 H11C 0.9600
C12 H12A 0.9600
C12 H12B 0.9600
C12 H12C 0.9600
C13 H13A 0.9600
C13 H13B 0.9600
C13 H13C 0.9600
loop_
_geom_torsion_atom_site_label_1
_geom_torsion_atom_site_label_2
_geom_torsion_atom_site_label_3
_geom_torsion_atom_site_label_4
_geom_torsion
F1 C7 C8 O4 -43.3(2)
F1 C7 C8 O5 137.0(2)
F2 C7 C8 O4 -157.18(17)
F2 C7 C8 O5 23.1(3)
N1 C3 C4 C5 0.7(3)
N1 C3 C4 C6 -179.07(17)
C2 N1 C3 C4 174.23(18)
C3 N1 C2 O1 6.0(3)
C3 N1 C2 C1 -170.20(16)
C3 C4 C5 O2 4.5(3)
C3 C4 C5 O3 -174.54(18)
C3 C4 C6 C7 -89.4(2)
C4 C6 C7 F1 58.9(2)
C4 C6 C7 F2 174.25(14)
C4 C6 C7 C8 -65.0(2)
C5 C4 C6 C7 90.8(2)
C6 C4 C5 O2 -175.73(19)
C6 C4 C5 O3 5.2(3)
C6 C7 C8 O4 81.1(2)
C6 C7 C8 O5 -98.6(2)
C8 O4 C9 C10 113.7(3)
C9 O4 C8 O5 -3.7(3)
C9 O4 C8 C7 176.6(2)
C11 C1 C2 O1 160.35(19)
C11 C1 C2 N1 -23.5(2)
C12 C1 C2 O1 -79.1(2)
C12 C1 C2 N1 97.0(2)
C13 C1 C2 O1 38.1(3)
C13 C1 C2 N1 -145.77(17)
loop_
_refln_index_h
_refln_index_k
_refln_index_l
_refln_F_squared_meas
_refln_F_squared_sigma
_refln_scale_group_code
0 0 -3 56866.9 1040.25 7
0 0 3 59630.2 1157.75 5
0 0 4 68576.9 1435 5
0 0 -4 71498.3 1342.25 7
0 0 5 106433 1975.45 5
0 0 -5 107676 1858.55 7
0 0 -6 29395.1 1084.92 7
0 0 6 30186.3 1153.01 5
0 0 -7 607.746 191.6 7
0 0 7 1247.55 263.512 5
0 0 -8 13170.1 846.901 7
0 0 8 13047.9 878.962 5
0 0 -9 4056.43 504.377 7
0 0 -9 4307.6 629.214 2
0 0 9 4264.61 535.515 5
0 0 10 1368.14 335.816 5
0 0 -10 1348.78 382.431 2
0 0 -10 798.157 251.701 7
0 0 11 6995.74 764.905 5
0 0 -11 5204.08 751.659 2
0 0 -11 6380.32 707.933 7
0 0 -12 683.884 296.301 2
0 0 -12 256.698 126.613 7
0 0 -13 1609.84 386.343 7
0 0 -13 2046.56 518.624 2
0 0 -14 2043.72 542.655 2
0 0 -14 1686.91 416.475 7
0 0 -14 1740.08 434.937 6
0 0 -15 3976.89 681.408 7
0 0 -15 2555.08 548.078 6
0 0 -15 3170.8 698.223 2
0 0 -16 7986.72 993.477 7
0 0 -16 8069.44 991.595 6
0 0 -16 7011.77 1084.01 2
0 0 -17 1036.16 381.233 7
0 1 -17 123.976 158.507 7
0 1 -16 369.751 247.802 2
0 1 -16 1518.1 440.565 7
0 1 -15 13294.8 1458.72 2
0 1 -15 13901 1282.75 7
0 1 -14 1960.43 455.527 7
0 1 -14 1680.93 397.595 6
0 1 -14 1513.65 475.988 2
0 1 -13 -112.599 189.668 2
0 1 -13 -176.469 172.754 7
0 1 -12 18525.6 1488.67 2
0 1 -12 17290.7 1233.06 7
0 1 -11 36782.8 1739.21 7
0 1 -11 38565.1 2050.28 2
0 1 -10 244.18 207.898 2
0 1 -10 26.4113 115.879 7
0 -1 10 403.99 175.598 5
0 1 -9 2182.53 454.562 2
0 1 -9 2298.19 394.849 7
0 -1 9 1999.19 341.883 5
0 1 -8 17356.1 1000.99 7
0 -1 8 16627.5 923.663 5
0 1 -7 9693.66 696.395 7
0 -1 7 9450.74 650.209 5
0 -1 6 13996.8 722.284 5
0 1 -6 12387 735.144 7
0 -1 5 202296 2461.14 5
0 1 -5 204439 2719.33 7
0 1 -5 203209 2571.01 5
0 1 -4 172066 2062.23 5
0 1 -4 169125 2244.29 7
0 -1 4 174193 1970.15 5
0 1 -3 42888.4 995.962 7
0 1 -3 42446.9 841.948 5
0 -1 3 43120.3 805.725 5
0 -1 3 42327.5 1100.96 2
0 1 -2 270450 2120.63 7
0 -1 2 279124 2365.33 2
0 1 2 100096 1471.46 5
0 1 3 17703.9 716.474 5
0 1 4 6934.66 500.287 5
0 1 5 20797.9 961.174 5
0 1 6 49055 1583.73 5
0 -1 -7 12348.8 733.246 7
0 1 7 13030.4 874.888 5
0 1 8 1577.71 335.174 5
0 -1 -8 1489.06 279.69 7
0 1 9 11739 931.345 5
0 -1 -9 11083.7 811.586 7
0 -1 -10 3609.64 482.697 7
0 1 10 2822.69 482.093 5
0 1 11 3824.35 598.118 5
0 -1 -11 3074.47 487.428 7
0 -1 -12 160.809 134.159 2
0 -1 -12 -7.39569 95.8804 7
0 -1 -13 3217.01 539.501 7
0 -1 -13 2235.94 512.839 2
0 -1 -14 2658.87 521.847 7
0 -1 -14 3231.19 678.997 2
0 -1 -15 69.267 204.242 2
0 -1 -15 117.372 204.133 6
0 -1 -15 13.1106 122.431 7
0 -1 -16 609.671 274.521 7
0 -1 -16 788.706 295.067 6
0 -1 -16 548.973 290.546 2
0 -1 -17 1842.27 507.536 6
0 2 -17 309.745 283.616 7
0 2 -16 13636.4 1544.97 2
0 2 -16 13583.5 1343.52 7
0 2 -15 2902.81 660.39 2
0 2 -15 2646.6 577.893 7
0 2 -14 2043.23 551.966 2
0 2 -14 1444.64 396.682 7
0 2 -13 1240.28 372.116 7
0 2 -13 915.924 263.262 6
0 2 -13 1384.31 431.531 2
0 2 -12 3011.8 537.46 7
0 2 -12 3617.85 682.438 2
0 2 -11 155970 3613.03 7
0 2 -11 161801 4236.43 2
0 2 -10 1941 438.692 2
0 2 -10 1344.3 335.544 7
0 2 -9 37255.1 1592.17 7
0 2 -9 38954.8 1869.44 2
0 2 -8 460.051 159.258 7
0 -2 8 559.825 160.994 5
0 2 -7 39905.1 1478.12 7
0 -2 7 41412.6 1244.1 5
0 2 -6 32132.1 1242.07 7
0 -2 6 32569.5 993.815 5
0 2 -6 30911.9 1011.89 5
0 2 -5 850.163 172.385 7
0 -2 5 1269.03 165.401 5
0 2 -5 1391.3 186.786 5
0 2 -4 83166.2 1670.83 7
0 2 -4 79521.5 1168.67 5
0 -2 4 81389.7 1102.79 5
0 2 -3 96137.8 1636.56 7
0 2 -2 134.946 64.375 7
0 2 -1 13282.6 463.511 7
0 2 0 6.28615 21.6799 5
0 2 0 -5.07763 15.1859 7
0 2 1 463711 3111.18 5
0 -2 -1 471025 2567.66 1
0 -2 -1 467232 2129.76 7
0 -2 -1 460853 2054.39 4
0 2 2 6734.05 360.294 3
0 2 2 6934.57 444.045 5
0 2 2 6830.5 276.804 4
0 2 3 24416.7 930.229 5
0 2 4 122572 2306.32 5
0 2 5 405769 4507.93 5
0 2 6 770.896 217.762 5
0 2 7 52712 1873.56 5
0 2 8 7317.69 735.889 5
0 -2 -8 7918.88 627.132 7
0 -2 -9 5768.32 567.015 7
0 2 9 6512.36 730.52 5
0 -2 -10 3778.97 503.187 7
0 2 10 3828.96 581.509 5
0 -2 -11 3969.4 539.399 7
0 2 11 4385.08 648.833 5
0 2 12 3713.54 632.457 5
0 -2 -12 3473.25 529.407 7
0 -2 -13 8492.58 862.529 7
0 -2 -14 6004.76 767.428 7
0 -2 -14 6858.06 987.704 2
0 -2 -15 115.953 153.202 2
0 -2 -15 69.885 122.439 7
0 -2 -15 159.774 149.098 6
0 -2 -16 1260.21 447.79 2
0 -2 -16 1090.72 384.881 6
0 -2 -17 76.0125 160.671 6
0 3 -16 17821.3 1547.79 7
0 3 -15 8251.75 1173.24 2
0 3 -15 7373.22 964.987 7
0 3 -14 459.263 276.883 2
0 3 -14 610.682 271.186 7
0 3 -13 3609.65 616.328 7
0 3 -13 3545.9 715.389 2
0 3 -12 734.987 295.02 7
0 3 -12 709.843 309.94 2
0 3 -11 9547.15 915.958 7
0 3 -11 9872.34 1054.92 2
0 3 -10 -47.5512 175.716 2
0 3 -10 133.731 74.0494 7
0 3 -9 4759.67 598.224 7
0 3 -9 4387.99 649.416 2
0 3 -8 2333.09 380.402 7
0 3 -7 1100.7 245.738 7
0 3 -7 1103.73 187.315 5
0 3 -6 56390.8 1171.54 5
0 3 -6 60575.3 1773.63 7
0 3 -5 2246.47 190.153 5
0 3 -5 1977.44 305.405 7
0 3 -4 23868.9 960.408 7
0 3 -3 29335.8 968.025 7
0 3 -2 8789.2 484.713 7
0 -3 1 203841 1682.05 5
0 3 -1 203946 1535.32 5
0 3 -1 202367 2087.19 7
0 -3 1 201004 1480.4 6
0 -3 0 305742 2624.57 5
0 -3 0 308579 2380.19 7
0 3 0 307918 2459.05 5
0 3 0 306040 2301.75 7
0 -3 -1 108924 1311.27 7
0 -3 -1 107696 1491.39 1
0 3 1 107045 1230.73 7
0 3 1 107657 1705.59 5
0 -3 -1 110437 1834.44 5
0 -3 -2 164265 1565.44 7
0 3 2 164288 2401.91 5
0 -3 -2 164232 1548.25 4
0 3 3 18325.4 882.21 5
0 3 3 16840 529.468 4
0 3 4 71300.6 1875.77 5
0 3 5 80.0688 133.152 5
0 3 6 37803.8 1577.21 5
0 3 7 93.4778 166.961 5
0 3 8 378.157 208.022 5
0 3 9 11778.6 1025.32 5
0 -3 -10 785.296 232.635 7
0 3 10 1419.21 376.278 5
0 -3 -11 44176 1774.79 7
0 3 11 48103.3 2262.75 5
0 -3 -12 4069.63 564.115 7
0 3 12 4909.07 755.567 5
0 -3 -13 144.161 109.191 7
0 -3 -15 558.73 322.498 6
0 -3 -16 1271.56 481.209 2
0 -3 -16 373.576 162.544 6
0 4 -16 344.714 258.033 7
0 4 -15 1033.84 368.188 7
0 4 -14 4875.13 747.527 7
0 4 -13 2403.38 514.512 7
0 4 -12 1555.72 407.691 7
0 4 -11 11167.2 1014.86 7
0 4 -10 41753.9 1890.31 7
0 4 -9 28899.2 1505.6 7
0 4 -9 29650 930.79 6
0 4 -8 30007.8 838.778 6
0 4 -8 29953.3 1455.53 7
0 4 -7 24778.7 636.629 6
0 4 -7 25053.5 699.983 5
0 4 -7 26274.2 1283.76 7
0 4 -6 58010.7 747.971 6
0 4 -6 57152 751.257 6
0 4 -6 59107.8 781.914 5
0 4 -5 242.993 123.839 7
0 4 -4 7696.88 575.304 7
0 4 -3 107.532 40.5498 7
0 -4 2 1507.65 128.221 5
0 -4 2 1591.15 115.09 6
0 4 -2 1467.43 213.695 7
0 4 -1 11093.2 437.478 5
0 -4 1 10990.2 484.338 5
0 4 -1 10374.9 529.115 7
0 -4 1 10641.2 420.127 6
0 4 0 95870.9 1564.1 5
0 4 0 91769.6 1470.22 7
0 4 0 92525.3 1630.52 1
0 -4 0 93978.3 1676.15 5
0 4 1 8560.53 481.803 1
0 4 1 7799.29 512.334 5
0 4 1 9096.03 421.526 7
0 -4 -1 8706.65 436.25 7
0 -4 -2 10892.7 468.516 7
0 -4 -2 10361 442.494 4
0 4 2 10848.7 664.793 5
0 -4 -3 1424.71 166.055 7
0 4 3 1467.99 261.061 5
0 4 4 4969.71 528.2 5
0 4 5 418.742 179.73 5
0 4 6 61671 2094.48 5
0 4 7 41526.5 1832.55 5
0 4 8 2508.05 491.11 5
0 4 9 4201.4 638.608 5
0 -4 -10 294.897 138.559 7
0 4 10 11.4933 101.438 5
0 -4 -11 5956.32 639.441 7
0 4 11 6092.35 847.527 5
0 -4 -12 5420.03 641.629 7
0 4 12 5695.55 846.89 5
0 -4 -14 1943.28 558.845 6
0 -4 -15 2049.35 562.041 6
0 5 -15 4058.38 738.485 7
0 5 -14 4921.79 779.962 7
0 5 -13 1474.3 433.173 7
0 5 -12 35452.7 1940.18 7
0 5 -11 5254.59 717.879 7
0 5 -10 23957.2 1468.25 7
0 5 -9 19091 1262.59 7
0 5 -8 245.492 110.187 7
0 5 -7 127.789 108.498 7
0 5 -6 -49.5145 107.788 7
0 5 -5 1803.17 310.996 7
0 5 -4 44413.6 1466.13 7
0 5 -3 10945 680.314 7
0 5 -2 10294.5 620.889 7
0 -5 2 10491.1 377.537 6
0 -5 2 10172.3 423.526 5
0 -5 1 20521.1 669.617 6
0 5 -1 21209.8 842.489 7
0 -5 1 21166.6 774.635 5
0 5 0 12430.8 600.567 7
0 -5 0 12313.4 609.492 6
0 5 0 13532.7 648.705 5
0 5 0 12485.2 662.541 1
0 5 1 48181.8 1105.44 7
0 5 1 48275.9 1377.27 5
0 5 1 51307.8 1323.32 1
0 -5 -2 55102.8 1142.45 4
0 5 2 52485 1577.05 5
0 -5 -3 2396.87 238.643 4
0 5 3 2791.32 390.415 5
0 5 4 8181.88 716.558 5
0 -5 -4 8011.8 636.385 3
0 5 5 1808.72 363.458 5
0 5 6 547.928 214.741 5
0 5 7 12910.3 1059.4 5
0 5 8 14979.5 1195.81 5
0 5 9 6008.07 808.82 5
0 5 10 3368.55 618.671 5
0 5 11 -35.8875 98.423 5
0 -5 -14 1841.05 522.139 6
0 6 -14 511.685 325.947 7
0 6 -13 183.672 198.22 7
0 6 -12 3838.45 659.419 7
0 6 -11 1335.11 382.439 7
0 6 -10 1530.25 388.801 7
0 6 -9 8533.42 872.943 7
0 6 -8 38.6165 115.714 7
0 6 -7 20289.2 1225.72 7
0 6 -6 6695.14 676.702 7
0 6 -5 31329 1369.86 7
0 6 -4 30746.1 1291.1 7
0 6 -3 6727.32 573.945 7
0 -6 3 7081.23 245.281 5
0 -6 3 7107.15 247.251 6
0 -6 2 26079.3 689.707 6
0 6 -2 25651.3 1058.04 7
0 -6 2 25480.7 781.513 5
0 -6 1 9990.19 520.194 6
0 6 -1 11771.3 674.059 7
0 6 0 15836.2 739.774 7
0 -6 0 16968.3 781.564 6
0 -6 -1 2797.63 348.637 6
0 6 1 2980.51 304.581 7
0 6 1 2909.64 362.855 5
0 -6 -2 32.6044 28.9893 4
0 -6 -2 81.7128 81.9546 3
0 6 2 24.8785 61.902 5
0 -6 -3 10582.7 556.311 4
0 -6 -3 10753.3 767.981 3
0 6 3 12359.6 875.36 5
0 -6 -4 -24.8751 69.11 3
0 6 4 182.075 127.866 5
0 -6 -5 12604.6 882.521 3
0 6 5 12700 989.148 5
0 6 6 1549.53 359.609 5
0 6 7 1127.54 318.363 5
0 6 8 105.68 130.215 5
0 6 9 1079.64 366.694 5
0 6 10 656.677 325.627 5
0 -6 -12 456.675 296.324 6
0 -6 -13 14643.2 1477.94 6
0 -6 -14 5599.37 971.708 6
0 7 -14 27.9895 133.263 7
0 7 -13 3819.74 694.017 7
0 7 -12 544.515 254.333 7
0 7 -11 258.533 255.746 7
0 7 -10 3489.72 588.737 7
0 7 -9 51668 2210.11 7
0 7 -8 20782.9 1331.35 7
0 7 -7 4990.1 618.62 7
0 7 -6 1016.77 259.198 7
0 7 -5 6081.17 629.538 7
0 7 -4 14307.2 927.488 7
0 7 -3 1321.72 263.524 7
0 -7 3 1547.78 145.714 5
0 -7 3 1827.35 147.999 6
0 -7 2 11910.3 513.695 6
0 7 -2 11793.8 768.292 7
0 7 -1 19631.1 1008.96 1
0 7 -1 19443.1 935.547 7
0 -7 1 18966.8 782.53 6
0 -7 0 4372.49 422.308 6
0 7 0 3663.18 429.579 1
0 7 0 3722.44 389.182 7
0 -7 -1 32543.4 1071.74 4
0 7 1 32109.9 1079.09 7
0 7 1 32461.4 1258.06 1
0 -7 -1 33541.7 1303.74 6
0 -7 -2 75550.8 1608.93 4
0 -7 -2 76372.1 2109.14 6
0 -7 -2 79498 2192.2 3
0 7 2 81305.9 2194.56 5
0 -7 -3 4198.75 375.552 4
0 7 3 4441.23 543.541 5
0 -7 -3 4538.59 533.376 3
0 7 4 1378.78 330.489 5
0 -7 -4 1139.87 273.995 3
0 7 5 3352.17 532.046 5
0 -7 -5 3353.58 490.615 3
0 7 6 0.28974 77.2311 5
0 7 7 983.1 308.216 5
0 7 8 2876.09 554.845 5
0 7 9 13616.7 1284.1 5
0 -7 -11 1010.42 397.584 6
0 -7 -12 1029.96 395.548 6
0 -7 -13 2662.71 655.502 6
0 8 -13 1593.62 448.697 7
0 8 -12 1595.89 412.294 7
0 8 -11 1909.96 467.06 7
0 8 -10 12871.6 1169.61 7
0 8 -9 3526.43 600.756 7
0 8 -8 6684.64 785.525 7
0 8 -7 10.1933 121.921 7
0 8 -6 7848.98 786.093 7
0 8 -5 4315.24 564.175 7
0 8 -4 1514.97 325.932 7
0 8 -3 9773.64 773.73 7
0 8 -2 -102.163 106.698 1
0 -8 2 33.47 45.4135 6
0 8 -2 -34.8311 55.9853 7
0 -8 1 12494.2 678.947 6
0 8 -1 12231.4 788.763 7
0 8 -1 12782.1 864.928 1
0 -8 0 368.404 116.018 6
0 8 0 397.666 140.148 1
0 8 0 360.625 137.082 7
0 -8 -1 2666.25 329.372 4
0 -8 -1 2830.82 404.55 6
0 8 1 1884.15 334.295 1
0 8 1 3083.01 363.129 7
0 -8 -2 22204.2 1214.34 6
0 -8 -2 22193.3 1249.05 3
0 -8 -2 21344.5 918.517 4
0 -8 -3 1830.65 379.599 3
0 -8 -3 1405.57 237.389 4
0 -8 -3 1595.98 342.234 6
0 -8 -4 11744.5 981.862 6
0 8 4 10404.1 926.779 5
0 -8 -4 8768.81 815.162 3
0 -8 -5 10319.4 901.347 3
0 8 5 10218.8 966.302 5
0 -8 -5 10405.4 972.032 6
0 -8 -6 4304.87 656.211 6
0 8 6 5562.45 755.581 5
0 -8 -7 42079 2143.96 6
0 -8 -8 102.149 203.683 6
0 -8 -9 -269.343 226.309 6
0 -8 -10 2288.7 566.655 6
0 -8 -11 -103.961 238.348 6
0 -8 -12 3336.73 725.373 6
0 9 -12 2016.36 516.961 7
0 9 -11 968.988 351.632 7
0 9 -10 1297.74 356.381 7
0 9 -9 7393.73 881.623 7
0 9 -8 19.7711 99.1056 7
0 9 -7 11342.7 1012.18 7
0 9 -6 -179.016 195.55 7
0 9 -5 7177.81 756.975 7
0 9 -4 2982.36 460.669 7
0 9 -3 6483.75 664.443 7
0 9 -3 6341.67 688.87 1
0 9 -2 13732.3 923.373 7
0 9 -2 14644.5 1026.23 1
0 9 -1 10581.8 847.456 1
0 9 -1 10592.7 777.582 7
0 9 0 1957.75 326.911 7
0 9 0 1951.94 359.217 1
0 -9 0 1803.87 313.604 6
0 -9 -1 6513.09 629.081 6
0 9 1 7040.14 576.21 7
0 9 1 7297.61 689.484 1
0 -9 -1 7151.35 579.488 4
0 -9 -2 42.6046 67.3255 4
0 -9 -2 26.6524 71.9174 6
0 -9 -2 125.512 106.659 3
0 -9 -3 759.782 263.294 3
0 -9 -3 499.082 162.969 4
0 -9 -3 958.654 280.715 6
0 -9 -4 1760.41 400.91 6
0 -9 -4 980.415 295.057 3
0 -9 -5 2791.18 508.308 3
0 -9 -5 4248.61 652.785 6
0 -9 -6 1251.35 343.214 6
0 -9 -7 35330.6 2032.08 6
0 -9 -8 299.33 192.084 6
0 -9 -9 -120.73 137.53 6
0 -9 -10 4826.76 840.384 6
0 -9 -11 813.756 318.27 6
0 10 -11 -8.74328 144.536 7
0 10 -10 3819.43 666.177 7
0 10 -9 729.001 289.676 7
0 10 -8 4695.43 705.756 7
0 10 -7 360.591 158.104 7
0 10 -6 68.8819 100.589 7
0 10 -5 22953.4 1403.97 7
0 10 -4 23747.2 1375.57 7
0 10 -4 21769.9 1369.21 1
0 10 -3 5555.13 643.453 7
0 10 -3 5247.87 663.092 1
0 10 -2 7750.09 726.282 7
0 10 -2 7947.83 782.527 1
0 10 -1 2868.16 458.021 1
0 10 -1 2826.23 413.749 7
0 10 0 612.789 192.014 7
0 -10 0 701.582 201.565 4
0 10 0 1028.33 292.466 1
0 -10 -1 1472.33 367.787 3
0 -10 -1 1945.5 358.077 6
0 10 1 2153.28 390.999 1
0 -10 -2 17659.5 1157.79 6
0 -10 -2 15907.2 1212.94 3
0 -10 -3 334.336 268.609 3
0 -10 -3 285.94 201.46 6
0 -10 -4 105.789 103.982 3
0 -10 -4 136.282 135.864 6
0 -10 -5 301.803 171.398 3
0 -10 -5 198.654 169.116 6
0 -10 -6 1000.18 358.145 6
0 -10 -7 10518 1161.95 6
0 -10 -8 1275.8 432.373 6
0 -10 -9 -113.249 228.984 6
0 -10 -10 432.563 242.554 6
0 11 -9 5845.77 842.886 7
0 11 -8 -2.92993 95.1233 7
0 11 -7 483.322 186.55 7
0 11 -6 704.915 262.115 7
0 11 -5 26.1321 154.911 1
0 11 -5 82.0449 138.55 7
0 11 -4 15625.7 1214.2 1
0 11 -4 16499.4 1193.39 7
0 11 -3 711.069 240.274 1
0 11 -3 1307.1 334.393 7
0 11 -2 683.06 249.341 1
0 11 -2 571.875 215.275 7
0 11 -1 1000.96 297.851 1
0 11 0 1002.9 311.767 1
0 -11 -1 1538.81 380.844 3
0 -11 -2 602.681 261.842 3
0 -11 -3 257.903 157.82 3
0 -11 -4 496.555 235.926 3
0 -11 -4 509.335 215.477 6
0 -11 -5 211.046 174.832 6
0 -11 -5 -2.22503 166.708 3
0 -11 -6 194.766 169.842 6
0 -11 -7 7326.37 984.377 6
0 -11 -8 -180.121 237.758 6
0 12 -8 -30.4983 162.179 7
0 12 -7 141.681 118.737 7
0 12 -6 -22.4348 57.2358 7
0 12 -6 174.712 111.671 1
0 12 -5 2769.75 542.914 1
0 12 -5 3707.71 602.835 7
0 12 -4 4972.66 715.474 1
0 12 -3 4179.33 648.684 1
0 12 -2 3044.02 551.875 1
0 12 -1 3166.32 550.103 1
0 12 0 2734.53 494.71 1
0 -12 0 3545.76 629.45 3
0 -12 -1 477.779 257.464 3
0 -12 -2 2561.08 550.614 3
0 -12 -3 1409.6 426.44 3
0 -12 -4 1603.58 453.537 3
0 -12 -5 1594.61 459.168 3
0 -12 -6 313.932 234.127 6
0 -12 -7 357.775 294.116 6
0 13 -4 5994.41 819.541 1
0 13 -3 947.01 320.914 1
0 13 -2 5753.57 777.485 1
0 13 -1 2369.61 490.642 1
1 -13 -3 216.218 146.685 3
1 -13 -2 73.9872 155.796 3
1 -13 -1 3299.47 632.881 3
1 -13 0 93.1683 150.238 3
-1 13 -4 -85.4876 109.067 7
-1 13 -5 3359.41 620.526 7
-1 13 -6 -2.32405 146.168 7
1 -12 -7 487.41 212.346 6
1 -12 -5 64.2517 111.106 3
1 -12 -4 455.38 213.599 3
1 -12 -3 3268.73 597.424 3
1 -12 -2 -162.992 154.574 3
1 -12 -1 6697.4 851.58 3
1 -12 0 -27.0293 94.3002 3
1 -12 1 471.535 199.997 4
-1 12 -1 275.323 136.677 1
-1 12 -2 11920.9 1022.71 1
-1 12 -2 11634.8 1015.09 7
-1 12 -3 8668.52 905.627 7
-1 12 -3 7461.75 820.631 1
-1 12 -4 2509.51 479.912 1
-1 12 -4 2684.04 525.692 7
-1 12 -5 3342.58 584.16 1
-1 12 -5 3260.11 577.119 7
-1 12 -6 -196.262 182.241 7
-1 12 -7 55.2998 142.067 7
1 -11 -9 6994.14 1045.21 6
1 -11 -8 1436.19 429.299 6
-1 11 8 1879.29 522.338 5
1 -11 -7 -103.65 173.782 6
-1 11 7 207.879 212.453 5
-1 11 6 929.436 340.327 5
1 -11 -6 1403.12 406.961 6
-1 11 5 47.4268 117.164 5
1 -11 -5 -206.375 179.013 6
1 -11 -5 -21.6548 161.477 3
1 -11 -4 5402.9 747.977 3
1 -11 -4 4866.37 735.94 6
1 -11 -3 315.992 149.667 3
1 -11 -2 7069.73 817.068 3
1 -11 -1 2721.48 508.121 3
1 -11 -1 2455.66 421.287 4
-1 11 0 4215.69 556.185 1
1 -11 0 4408.84 563.718 4
-1 11 -1 31.3993 61.5197 7
-1 11 -1 -84.1643 63.7188 1
-1 11 -2 1302.96 316.57 7
-1 11 -2 887.296 257.14 1
-1 11 -3 6726.11 743.672 1
-1 11 -3 6451.69 748.73 7
-1 11 -4 1385.08 358.029 1
-1 11 -4 449.549 188.545 7
-1 11 -5 225.074 153.131 7
-1 11 -6 245.63 181.917 7
-1 11 -7 47.5875 145.696 7
-1 11 -8 582.55 262.313 7
-1 11 -9 537.795 258.219 7
-1 10 10 728.548 368.888 5
-1 10 9 1372.9 474.702 5
-1 10 8 1652.09 500.063 5
-1 10 7 6597.67 923.653 5
-1 10 6 1191.75 388.118 5
-1 10 5 8179.36 944.701 5
1 -10 -5 8988.24 918.621 3
1 -10 -4 4300.7 634.546 3
1 -10 -4 4297.79 524.273 4
-1 10 4 4697.13 694.657 5
1 -10 -3 4764.32 549.887 4
1 -10 -3 5149.87 678.08 3
-1 10 3 5061.85 682.366 5
1 -10 -2 821.998 219.741 4
-1 10 2 538.991 213.532 5
1 -10 -2 859.411 270.327 3
1 -10 -1 15711.1 1151.08 3
-1 10 1 15097.1 989.622 1
1 -10 -1 14883 982.784 4
-1 10 0 3207.98 461.725 1
1 -10 0 4140.89 521.16 4
-1 10 0 4037.32 524.789 7
-1 10 -1 36.7444 89.9498 7
-1 10 -1 325.862 142.962 1
-1 10 -2 25091.2 1335.47 1
-1 10 -2 25665.2 1395.79 7
-1 10 -3 5446.83 662.016 7
-1 10 -3 5633.44 666.036 1
-1 10 -4 20075.2 1309.81 7
-1 10 -5 2417.44 473.05 7
-1 10 -6 168.787 160.897 7
-1 10 -7 113.778 109.738 7
-1 10 -8 -80.4546 80.5349 7
-1 10 -9 11212.1 1148.67 7
-1 10 -10 475.937 267.391 7
-1 9 11 1603.74 487.755 5
-1 9 10 1183.56 422.941 5
-1 9 9 798.331 306.814 5
-1 9 8 9482.34 1111.63 5
-1 9 7 70.1402 135.942 5
-1 9 6 32.4816 145.895 5
1 -9 -5 5770.92 697.549 3
-1 9 5 5183.03 729.137 5
-1 9 4 2249.46 470.657 5
1 -9 -4 1665.97 362.602 3
1 -9 -4 2094.84 349.885 4
1 -9 -3 2213.85 413.078 3
1 -9 -3 2549.79 386.181 4
-1 9 3 2113.38 425.783 5
1 -9 -2 2325.85 368.097 4
-1 9 2 2252.59 421.733 5
1 -9 -2 1836.71 374.008 3
-1 9 1 11801.6 811.063 1
-1 9 1 12072.6 909.957 5
1 -9 -1 11220.5 813.773 4
-1 9 0 15170.5 957.739 7
-1 9 0 13397.7 890.757 1
-1 9 0 13581 889.222 5
-1 9 -1 1143.42 261.825 1
-1 9 -1 1863.82 354.689 7
-1 9 -2 8704.49 772.837 7
-1 9 -2 7834.22 715.093 1
-1 9 -3 29770.4 1472.57 7
-1 9 -4 16024.6 1124.27 7
-1 9 -5 31445.4 1620.91 7
-1 9 -6 2343.16 449.75 7
-1 9 -7 435.976 221.994 7
-1 9 -8 3270.16 569.062 7
-1 9 -9 1895.62 434.165 7
-1 9 -10 607.896 280.144 7
-1 9 -11 812.418 367.554 7
-1 8 12 10026.9 1269.95 5
-1 8 11 220.906 215.442 5
-1 8 10 1590.58 430.796 5
-1 8 9 5594.2 855.112 5
-1 8 8 3283.52 630.196 5
-1 8 7 36774.9 2021.23 5
-1 8 6 554.532 254.037 5
1 -8 -5 104.297 97.6514 3
-1 8 5 -128.476 177.535 5
1 -8 -4 15338.1 899.423 4
1 -8 -4 15456.6 1035.73 3
-1 8 4 15623.1 1175.1 5
1 -8 -3 1785.1 329.181 3
-1 8 3 1661.1 358.292 5
1 -8 -3 2502.43 357.319 4
-1 8 2 16525.7 1089.2 5
1 -8 -2 18050 1071.41 3
1 -8 -2 17417.4 955.198 4
1 -8 -1 33516.4 1337.79 4
-1 8 1 35359.8 1507.66 5
-1 8 1 34637.8 1287.97 1
-1 8 0 15069.2 907.912 5
-1 8 0 15039.5 903.463 7
-1 8 0 15842.6 896.075 1
-1 8 -1 1596.74 271.355 5
-1 8 -1 1666.24 290.463 1
-1 8 -1 1326.72 273.793 7
-1 8 -2 13647.9 685.979 5
-1 8 -2 13239 907.649 7
1 -8 2 13372.7 633.379 6
-1 8 -3 10956.5 854.438 7
-1 8 -4 12877.7 957.487 7
-1 8 -5 2718.92 460.823 7
-1 8 -6 -54.2677 118.167 7
-1 8 -7 4596.28 632.339 7
-1 8 -8 16541.4 1248.47 7
-1 8 -9 1601.34 407.571 7
-1 8 -10 14929.4 1268.64 7
-1 8 -11 2539.36 545.628 7
-1 8 -12 2199.73 518.484 7
-1 7 13 5356.34 932.407 5
-1 7 12 10339.8 1256.62 5
-1 7 11 2144.62 538.52 5
-1 7 10 232.081 159.508 5
-1 7 9 467.242 275.664 5
-1 7 8 4659.46 740.86 5
-1 7 7 80834.6 2938.39 5
-1 7 6 27828 1645.36 5
1 -7 -5 27536.6 1318.19 3
-1 7 5 28572.8 1590.8 5
1 -7 -4 8686.81 646.359 4
-1 7 4 8416.78 831.482 5
1 -7 -4 8573.03 719.452 3
-1 7 3 13856.6 1008.89 5
1 -7 -3 13407.9 787.49 4
1 -7 -3 14783.4 909.813 3
-1 7 2 43052.1 1697.14 5
1 -7 -2 43089.5 1399.26 4
1 -7 -2 42654.4 1524.87 3
-1 7 1 31227.8 1349.8 5
1 -7 -1 32843.3 1224.5 4
-1 7 1 35413.9 1266.45 7
-1 7 0 896.401 216.042 5
-1 7 0 692.41 197.531 7
-1 7 -1 95.3555 83.4992 7
-1 7 -1 210.226 104.207 5
-1 7 -2 156.041 77.3514 5
-1 7 -2 98.8207 82.9018 7
-1 7 -3 1898.25 205.84 5
1 -7 3 1681.81 154.831 6
-1 7 -3 1395.56 300.283 7
-1 7 -4 3466.03 479.818 7
-1 7 -5 40157.5 1678.72 7
-1 7 -6 75.8527 86.1262 7
-1 7 -7 1126.08 307.828 7
-1 7 -8 820.135 276.564 7
-1 7 -9 276.171 225.293 7
-1 7 -10 7041.01 853.383 7
-1 7 -11 5936.02 794.859 7
-1 7 -12 509.519 215.207 7
-1 7 -13 -92.4359 246.042 7
-1 6 14 3612.35 767.354 5
-1 6 13 -113.531 152.555 5
-1 6 12 -130.385 193.776 5
-1 6 11 209.774 145.652 5
-1 6 10 -78.722 202.306 5
-1 6 9 12127.5 1195.49 5
-1 6 8 783.324 307.378 5
-1 6 7 16421.9 1273.83 5
-1 6 6 2645.64 488.414 5
-1 6 5 1020.8 323.355 5
1 -6 -4 2362.13 348.675 3
-1 6 4 2743.87 455.54 5
1 -6 -4 3010.52 359.621 4
-1 6 3 16151.2 1054.63 5
1 -6 -3 16760.6 825.676 4
1 -6 -3 16736.3 893.864 3
1 -6 -2 5684.89 507.515 3
-1 6 2 5976.79 603.589 5
1 -6 -2 6120.71 489.774 4
-1 6 1 5087.96 525.036 5
1 -6 -1 5086.92 449.138 4
-1 6 1 4497.08 423.226 7
-1 6 1 5108.84 415.171 1
-1 6 0 33393.3 1084.17 1
-1 6 0 33325.6 1195.41 7
-1 6 0 31754.2 1203.21 5
-1 6 -1 31124.8 1084.29 5
-1 6 -1 31443.5 1192.92 7
-1 6 -2 1314.52 252.523 7
-1 6 -2 1496.07 210.76 5
-1 6 -3 35883.7 895.106 5
1 -6 3 36551.4 594.089 6
-1 6 -4 24175.9 563.969 5
-1 6 -4 22956.8 1165.36 7
-1 6 -5 47.6802 99.0121 7
-1 6 -6 1604.2 338.92 7
-1 6 -7 63.9132 98.7563 7
-1 6 -8 2381.04 436.268 7
-1 6 -9 7325.9 791.028 7
-1 6 -10 2171.61 469.007 7
-1 6 -11 7975.4 902.864 7
-1 6 -12 -113.628 162.904 7
-1 6 -13 99.4281 148.304 7
-1 6 -14 82.0702 150.617 7
-1 5 14 77.0004 198.379 5
-1 5 13 6911.52 986.327 5
-1 5 12 2722.82 587.541 5
-1 5 11 271.615 202.421 5
-1 5 10 42.5812 123.252 5
-1 5 9 12329.5 1157.81 5
-1 5 8 2399.85 468.132 5
-1 5 7 7971.12 869.96 5
-1 5 6 4212.65 618.979 5
-1 5 5 5960.28 677.961 5
-1 5 4 11765.1 904.835 5
1 -5 -4 14243.9 785.701 3
-1 5 3 32011.4 1406.88 5
1 -5 -3 31412.6 1107.69 3
1 -5 -3 32105.8 1072.75 4
1 -5 -2 123829 2076.7 4
1 -5 -2 128572 2150.93 3
-1 5 2 121788 2580.83 5
-1 5 1 60667.7 1437.27 7
1 -5 -1 58264.6 1418.45 4
-1 5 1 60965.3 1714.59 5
-1 5 1 58251.1 1255.22 1
-1 5 0 21624 939.458 5
-1 5 0 23579.8 928.408 7
-1 5 0 22728.7 805.912 1
-1 5 -1 1297.54 228.834 7
-1 5 -1 1516.33 222.203 5
-1 5 -2 7148.59 558.915 7
1 -5 2 6468.46 324.864 6
-1 5 -2 6955.86 431.058 5
-1 5 -3 29330.7 774.538 5
-1 5 -3 29115.1 1179.83 7
1 -5 3 29592.8 486.52 6
-1 5 -4 5294.97 289.085 5
-1 5 -4 4865.95 507.615 7
-1 5 -5 4719.63 251.172 5
-1 5 -5 5120.41 546.336 7
-1 5 -6 41152.3 1598.93 7
-1 5 -6 37195.8 743.899 5
-1 5 -7 17674.1 1102.65 7
-1 5 -8 1894.42 362.837 7
-1 5 -9 14364.4 1085.32 7
-1 5 -10 17636.4 1247.84 7
-1 5 -11 375.206 184.66 7
-1 5 -12 12251.2 1123.3 7
-1 5 -13 -222.502 185.954 7
-1 5 -14 3416.94 638.766 7
-1 5 -15 6292.58 910.096 7
1 -4 -16 2501.81 633.805 2
1 -4 -15 136.664 172.091 2
-1 4 15 438.085 301.244 5
-1 4 14 1350.38 474.953 5
1 -4 -14 1628.2 422.83 7
-1 4 13 637.954 315.657 5
-1 4 12 2074.28 516.537 5
-1 4 11 5393.82 787.904 5
-1 4 10 18505.5 1420.44 5
-1 4 9 2838.25 521.086 5
-1 4 8 343.946 131.257 5
-1 4 7 19917.5 1321.12 5
-1 4 6 7265.28 753.784 5
-1 4 5 5232.82 620.604 5
-1 4 4 3416.94 463.441 5
-1 4 3 335.24 145.283 5
1 -4 -3 172.246 62.4428 3
1 -4 -3 206.835 60.4429 4
-1 4 2 37779.4 1348.22 5
1 -4 -2 36708.3 1040.34 4
1 -4 -2 36481.5 1032.06 3
-1 4 1 28329.3 1083.55 5
-1 4 1 29899.1 929.978 7
-1 4 1 29182.6 764.602 1
1 -4 -1 30620.6 942.889 4
-1 4 0 20400.8 793.294 7
-1 4 0 19866.3 837.695 5
-1 4 -1 92225.1 1756.96 7
-1 4 -1 88835.8 1587.06 5
1 -4 1 90451.1 1456.73 5
-1 4 -2 57698.1 1466.56 7
-1 4 -2 55596 1126.62 5
1 -4 2 57301.4 869.969 6
-1 4 -3 9029.19 395.192 5
-1 4 -3 9179.15 610.574 7
1 -4 3 8919 276.51 6
1 -4 4 124814 1071.1 6
-1 4 -4 134584 2491.61 7
-1 4 -5 298.599 173.448 7
-1 4 -5 289.379 53.2443 6
-1 4 -6 46847.7 1034.86 5
-1 4 -6 48156.5 756.07 6
-1 4 -6 47640.9 1635.62 7
-1 4 -7 43677.6 1881.33 2
-1 4 -7 42888.3 1628.5 7
-1 4 -7 42618.5 825.512 6
-1 4 -8 3384.6 263.105 6
-1 4 -8 3038.4 459.066 7
-1 4 -8 3695.4 583.033 2
-1 4 -9 33439.7 1590.45 7
-1 4 -9 36059.9 1920.33 2
-1 4 -9 36625.8 982.762 6
-1 4 -10 20414.5 1299.02 7
-1 4 -10 22534.5 1585.94 2
-1 4 -11 16353 1419.42 2
-1 4 -11 16023.4 1213.95 7
-1 4 -12 640.637 287.284 2
-1 4 -12 464.241 192.841 7
-1 4 -13 -157.367 190.404 2
-1 4 -13 -57.495 103.097 7
-1 4 -14 111.041 133.498 7
-1 4 -14 124.848 201.975 2
-1 4 -15 5400.23 986.784 2
-1 4 -15 5848.37 862.611 7
-1 4 -16 3166.54 655.867 7
1 -3 -16 2693.8 658.171 2
-1 3 16 4039.81 793.677 5
1 -3 -15 5423.16 877.256 2
1 -3 -15 6057.78 853.211 7
-1 3 15 7105.3 1022.49 5
1 -3 -14 1941.17 518.151 2
-1 3 14 2221.06 555.06 5
1 -3 -14 2540.64 542.743 7
1 -3 -13 17631 1322.25 7
1 -3 -13 16354 1405.56 2
-1 3 13 19309 1552.48 5
-1 3 12 2454.18 542.383 5
-1 3 11 10227.4 1066.98 5
-1 3 10 2810.66 549.138 5
-1 3 9 -74.7729 142.428 5
-1 3 8 336.248 205.237 5
-1 3 7 4242.95 579.287 5
-1 3 6 8113.64 767.646 5
-1 3 5 4399.73 533.978 5
-1 3 4 8466.52 696.037 5
-1 3 3 995.155 221.046 5
1 -3 -2 101669 1203.59 1
1 -3 -2 100608 1586.31 4
1 -3 -2 98378.3 1444.61 3
-1 3 2 102200 2068.56 5
-1 3 1 95657.5 1837.76 5
1 -3 -1 93918.1 1492.71 4
-1 3 1 94727.8 1098.94 1
-1 3 0 86559.3 1562.6 5
-1 3 0 85555.7 1475.38 7
1 -3 0 84521.7 1474.04 5
-1 3 -1 21042.4 766.72 7
1 -3 1 19840.4 569.648 6
-1 3 -1 20336.8 685.58 5
1 -3 2 49882 742.205 6
-1 3 -2 50992.4 1266.84 7
-1 3 -2 51390.9 954.052 5
1 -3 3 4386.45 221.509 6
-1 3 -3 4050.58 217.01 6
-1 3 -3 3850.22 371.278 7
1 -3 4 113921 1285.22 6
-1 3 -4 113944 2131.81 7
-1 3 -4 116538 1137.52 6
-1 3 -5 81805.3 1079.24 6
-1 3 -5 80086 1899.01 7
-1 3 -6 4365.75 291.587 6
-1 3 -6 4053.47 455.95 7
-1 3 -7 131.873 102.219 7
-1 3 -7 380.146 92.4854 6
-1 3 -8 6163.46 723.598 2
-1 3 -8 6187.68 624.645 7
-1 3 -8 7029.22 462.879 6
-1 3 -9 2936.64 327.401 6
-1 3 -9 2531.07 417.498 7
-1 3 -9 2378.71 472.633 2
-1 3 -10 96.2012 169.55 2
-1 3 -10 33.2421 48.5213 6
-1 3 -10 95.7817 95.6085 7
-1 3 -11 8836.29 654.919 6
-1 3 -11 8434.54 843.558 7
-1 3 -11 8581.53 1014.91 2
-1 3 -12 28914.4 1644.48 7
-1 3 -12 29361.3 1976.15 2
-1 3 -13 4200.16 775.443 2
-1 3 -13 5714.24 762.427 7
-1 3 -14 450.042 281.148 2
-1 3 -14 7.0461 108.094 7
-1 3 -15 359.169 207.565 2
-1 3 -15 149.383 155.158 7
-1 3 -16 24.5058 167.091 7
1 -2 -17 6214.02 927.224 7
1 -2 -17 6755.93 1067.69 2
1 -2 -16 464.172 292.174 2
-1 2 16 11.9822 131.178 5
1 -2 -16 236.526 186.268 7
1 -2 -15 -22.3986 106.507 2
1 -2 -15 263.934 206.187 7
-1 2 15 352.115 250.765 5
1 -2 -14 4177.95 684.059 7
-1 2 14 4733.23 769.749 5
1 -2 -14 4019.5 738.133 2
1 -2 -13 5280.71 720.826 7
1 -2 -13 5054.65 786.621 2
-1 2 13 3949.22 686.846 5
1 -2 -12 1842.87 414.529 7
1 -2 -12 2450.45 538.054 2
-1 2 12 1245.03 363.492 5
1 -2 -11 709.908 282.304 2
-1 2 11 451.733 216.851 5
-1 2 10 15880.4 1226.77 5
-1 2 9 14100.3 1121.09 5
-1 2 8 36.9278 71.7753 5
-1 2 7 50095.1 1901.83 5
-1 2 6 3072.38 454.636 5
-1 2 5 2599.47 387.989 5
-1 2 4 35620.4 1340.69 5
-1 2 3 3765.22 269.154 3
-1 2 3 3459.78 379.687 5
-1 2 2 176321 1553.28 3
1 -2 -2 177731 1603.27 3
1 -2 -2 176992 1933.17 4
-1 2 2 179745 2509.19 5
1 -2 -1 17332.7 576.175 4
-1 2 1 17625.9 715.849 5
-1 2 0 7110.71 377.245 7
-1 2 0 7604.75 414.025 5
1 -2 1 84080.3 1248.93 2
-1 2 -1 85750.6 1370.2 7
1 -2 1 83133.4 1073.67 6
1 -2 2 20138.6 481.072 6
-1 2 -2 19077.3 715.088 2
-1 2 -2 19847.6 493.843 6
-1 2 -2 19976.8 713.3 7
-1 2 -3 16113.6 684.171 7
1 -2 3 16106.4 487.091 6
-1 2 -3 16399.1 452.759 6
1 -2 4 19630.9 637.382 6
-1 2 -4 19963.8 817.318 7
-1 2 -4 20602.9 587.626 6
-1 2 -5 470.261 97.665 6
-1 2 -5 709.453 165.069 7
-1 2 -6 27366 854.202 6
-1 2 -6 26915.9 1111.81 7
-1 2 -7 20396 1023.47 7
-1 2 -7 20582.5 821.187 6
-1 2 -8 13451.7 882.165 7
-1 2 -8 12809.6 705.516 6
-1 2 -9 29983.7 1157.31 6
-1 2 -9 32005.5 1433.81 7
-1 2 -9 33481.6 1804.16 2
-1 2 -10 558.606 266.911 2
-1 2 -10 901.566 216.044 6
-1 2 -10 478.689 222.008 7
-1 2 -11 34631.3 1662.77 7
-1 2 -11 34489.9 2011.68 2
-1 2 -11 36551.5 1462.82 6
-1 2 -12 42722.1 1663.31 6
-1 2 -12 45195.4 1979.39 7
-1 2 -12 41353.8 2307.48 2
-1 2 -13 652.728 308.758 2
-1 2 -13 1323.77 311.332 6
-1 2 -13 1455.19 379.094 7
-1 2 -14 -14.7357 126.665 7
-1 2 -14 -373.097 253.46 2
-1 2 -15 2383.89 598.846 2
-1 2 -15 1619.96 438.173 7
-1 2 -16 10789.4 1401.04 2
-1 2 -16 10166.6 1121.45 7
-1 2 -17 141.823 75.7924 7
1 -1 -17 1460.3 492.779 2
1 -1 -17 2419.34 585.095 7
1 -1 -16 29.337 111.814 7
-1 1 16 43.2739 136.477 5
1 -1 -16 -11.1809 134.02 2
-1 1 15 898.174 378.538 5
1 -1 -15 919.006 336.621 7
1 -1 -15 573.905 320.247 2
-1 1 14 11521.2 1178.72 5
1 -1 -14 9986.3 1151.95 2
1 -1 -14 9760.11 1051.63 7
1 -1 -13 13537.1 1176.13 7
1 -1 -13 10259.1 1109.69 2
-1 1 13 12061.8 1162.17 5
1 -1 -12 7094.38 884.611 2
1 -1 -12 7120 802.793 7
-1 1 12 6502.41 823.413 5
-1 1 11 12689.4 1100.5 5
1 -1 -11 14974.8 1111.28 7
1 -1 -11 13809.1 1176.18 2
1 -1 -10 46329.7 2008.65 2
-1 1 10 47132.1 2046.96 5
1 -1 -9 14705.3 1068.03 2
-1 1 9 14681.9 1089.29 5
1 -1 -8 1593.21 326.151 2
-1 1 8 1216.94 294.198 5
-1 1 7 95503.6 2514.2 5
1 -1 -7 96023.9 2342.16 2
-1 1 6 137938 2855.88 5
-1 1 5 21763 1060.48 5
-1 1 4 20152.5 936.936 5
-1 1 3 22289.7 897.471 5
-1 1 2 44268.9 1134.58 5
-1 1 1 14.4692 22.6576 5
1 -1 -1 44.1532 38.647 4
-1 1 0 10775.1 415.278 6
1 -1 0 11597.6 403.834 4
-1 1 -1 504227 2893.81 7
-1 1 -1 493395 2536.92 6
1 -1 2 68956 1015.75 6
-1 1 -2 70858.6 975.505 6
-1 1 -2 67538.2 1161.59 7
-1 1 -3 27.7283 32.0204 7
-1 1 -3 19.1909 27.1314 6
1 -1 3 -0.85754 30.673 6
1 -1 4 4202.1 327.619 6
-1 1 -4 4856.7 331.08 6
-1 1 -4 4597.37 362.057 7
-1 1 -5 9629.08 521.303 6
-1 1 -5 9663.49 568.415 7
-1 1 -6 114650 2156.73 7
-1 1 -6 116000 1967.62 6
-1 1 -7 5139.07 486.048 7
-1 1 -7 4624.93 423.182 6
-1 1 -8 92.9339 84.0009 6
-1 1 -8 225.766 132.477 7
-1 1 -9 90272.2 2198.43 6
-1 1 -9 90653.8 2942.97 2
-1 1 -9 87032.6 2288.52 7
-1 1 -10 113434 3476.26 2
-1 1 -10 109271 2705.52 7
-1 1 -10 113581 2616.88 6
-1 1 -11 32701.2 1956.22 2
-1 1 -11 34456.4 1601.06 7
-1 1 -11 33044 1486.98 6
-1 1 -12 39437.7 2236.43 2
-1 1 -12 40637.1 1849.1 7
-1 1 -12 40545.1 1735.89 6
-1 1 -13 4808.3 634.448 6
-1 1 -13 5880.47 732.032 7
-1 1 -13 4156.94 760.874 2
-1 1 -14 105.302 129.535 7
-1 1 -14 13.6766 109.142 2
-1 1 -14 105.036 129.536 6
-1 1 -15 206.169 153.753 7
-1 1 -15 405.735 269.195 2
-1 1 -16 2926.41 721.463 2
-1 1 -16 4097.45 684.539 7
-1 1 -17 394.82 215.649 7
1 0 -17 1815.9 528.074 7
1 0 -17 1731.83 546.866 2
-1 0 16 1143.74 398.153 5
1 0 -16 1333.15 468.428 2
1 0 -16 1175.99 405.342 7
1 0 -15 900.69 307.051 7
1 0 -15 490.999 274.136 2
-1 0 15 378.714 216.598 5
1 0 -14 232.24 99.0313 2
1 0 -14 192.821 121.698 7
-1 0 14 184.297 158.924 5
1 0 -13 7966.5 909.116 7
-1 0 13 7871.85 898.31 5
1 0 -13 7067.24 930.612 2
1 0 -12 129.631 133.26 2
1 0 -12 360.569 185.186 7
-1 0 12 218.727 161.284 5
1 0 -11 14495.9 1205.91 2
1 0 -11 15838.2 1158.49 7
1 0 -10 1119.42 325.61 2
1 0 -10 1131.57 305.777 7
-1 0 10 1247.86 311.925 5
1 0 -9 4285.87 581.126 2
-1 0 9 4189.16 556.971 5
1 0 -8 6219.28 649.269 2
-1 0 8 5876.16 635.142 5
1 0 -7 9.07093 57.051 2
-1 0 7 81.308 75.9069 5
1 0 -6 128809 2499.75 2
-1 0 6 125934 2548.66 5
1 0 -5 95615.8 1945.62 2
-1 0 5 93862.4 2044.77 5
-1 0 4 229108 2903.18 5
1 0 -4 226554 2624.31 2
-1 0 3 33463.8 1005.2 5
-1 0 3 33777 865.889 2
1 0 -3 35790.7 877.996 2
-1 0 2 171387 1588.91 2
-1 0 2 168398 1967.57 5
-1 0 1 51945 938.883 6
1 0 0 262671 1602.73 4
-1 0 0 261719 1403.4 1
-1 0 -1 118044 1284.71 6
-1 0 -1 117320 1127.92 7
1 0 2 13576.8 439.95 7
-1 0 -2 13969.7 500.924 6
-1 0 -2 13714.4 432.319 7
1 0 3 188213 1895.9 7
-1 0 -3 182955 2063.87 6
-1 0 -3 187842 1833.15 7
-1 0 -4 25763.8 768.429 7
1 0 4 27567.4 829.828 7
-1 0 -4 25247.5 853.769 6
-1 0 -5 15914.9 682.776 7
-1 0 -5 16794.3 759.641 6
-1 0 -6 1190.88 224.458 6
-1 0 -6 1730.28 246.151 7
-1 0 -7 164.896 67.3239 6
-1 0 -7 204.556 107.819 7
-1 0 -8 6209.51 546.133 7
-1 0 -8 6612.32 595.472 6
-1 0 -9 41.2199 54.9704 7
-1 0 -9 237.45 128.489 6
-1 0 -10 -10.7507 93.0202 6
-1 0 -10 103.349 131.493 7
-1 0 -11 27135.8 1442.67 6
-1 0 -11 29573.7 1441.6 7
-1 0 -12 1244.85 319.409 6
-1 0 -12 1449.26 431.53 2
-1 0 -12 1495.19 344.184 7
-1 0 -13 16885.3 1537.06 2
-1 0 -13 17590.5 1264.32 6
-1 0 -13 17776.4 1240.44 7
-1 0 -14 -48.129 64.0754 6
-1 0 -14 -2.43198 157.921 2
-1 0 -14 -21.1568 119.749 7
-1 0 -15 2025.57 598.556 2
-1 0 -15 2189.31 472.743 7
-1 0 -15 2160.28 477.635 6
-1 0 -16 11869.5 1152.29 7
-1 0 -16 10581.1 1373.32 2
1 1 -17 304.623 207.336 7
1 1 -16 -7.97005 156.382 7
1 1 -16 349.708 243.158 2
1 1 -15 -87.641 160.7 2
-1 -1 15 27.6907 101.218 5
1 1 -15 79.9836 115.841 7
1 1 -14 5395.73 798.033 7
-1 -1 14 5932.48 776.194 5
1 1 -14 5153.21 843.146 2
1 1 -13 1169.28 388.206 2
1 1 -13 1167.09 356.056 7
-1 -1 13 1373.08 364.068 5
1 1 -12 341.084 194.186 7
1 1 -12 622.683 293.914 2
-1 -1 12 387.372 185.803 5
-1 -1 11 6168.47 704.689 5
1 1 -11 6218.47 795.564 2
1 1 -11 5322.03 671.478 7
1 1 -10 2065.99 414.696 7
1 1 -10 2161.02 442.741 2
-1 -1 10 2236.88 403.818 5
1 1 -9 12663.8 946.007 7
-1 -1 9 12276.9 901.065 5
1 1 -9 10192.5 901.268 2
-1 -1 8 6263.77 614.884 5
1 1 -8 6677.58 695.762 2
1 1 -8 6360.82 645.202 7
-1 -1 7 5269.04 530.147 5
1 1 -7 6892.23 649.167 2
-1 -1 6 75731.7 1851.79 5
1 1 -6 82051.8 2053.67 2
-1 -1 5 459165 4214.3 5
1 1 -4 33859.5 964.225 5
-1 -1 4 34374.7 1029.17 5
-1 -1 3 55030 1237.51 2
1 1 -3 55123.9 1082.65 5
-1 -1 3 53015.8 1128.83 5
-1 -1 2 391417 2691.96 5
-1 -1 1 164565 1588.27 6
-1 -1 0 361131 2248.01 1
-1 -1 0 355732 2304.97 6
1 1 1 617168 3029.33 3
-1 -1 -1 587505 3273.61 6
-1 -1 -2 2987.03 146.826 7
1 1 2 3088.94 155.989 7
1 1 2 2939.63 247.697 3
-1 -1 -2 2898.49 260.853 6
-1 -1 -3 101822 1688.46 6
-1 -1 -3 99361.8 1103.22 7
1 1 3 99455 1154.86 7
1 1 4 316.971 80.7379 7
-1 -1 -4 260.84 69.2696 7
-1 -1 -4 306.806 111.579 6
-1 -1 -5 60114.7 1604.8 6
-1 -1 -5 63451.6 1242.26 7
-1 -1 -6 -5.36511 89.3321 6
-1 -1 -6 104.602 65.7721 7
-1 -1 -7 2887.33 327.352 7
-1 -1 -7 2940.7 400.374 6
-1 -1 -8 3887.9 413.225 7
-1 -1 -8 3566.62 460.367 6
-1 -1 -9 8558.95 764.15 6
-1 -1 -9 8007.08 638.829 7
-1 -1 -10 6701.2 719.513 6
-1 -1 -10 6469.95 615.851 7
-1 -1 -11 54332.9 2149.09 6
-1 -1 -11 53953.7 1883.19 7
-1 -1 -12 1336.06 321.822 7
-1 -1 -12 538.611 232.429 6
-1 -1 -13 2792.39 478.475 7
-1 -1 -13 2781.16 517.652 6
-1 -1 -14 106.765 80.4582 2
-1 -1 -14 19.5113 140.085 6
-1 -1 -14 27.6343 66.0976 7
-1 -1 -15 10812.3 1124.15 6
-1 -1 -15 8828.78 1204.52 2
-1 -1 -16 3127.5 725.473 2
-1 -1 -16 4550.98 740.912 6
1 2 -16 7230.24 993.423 7
1 2 -15 5166.03 813.328 7
1 2 -14 6877.98 906.166 7
-1 -2 13 5704.62 702.641 5
1 2 -13 5963.43 876.664 2
1 2 -13 6010.15 822.232 7
1 2 -12 1443.69 384.944 7
1 2 -12 1512.62 418.619 2
-1 -2 12 1113.09 296.078 5
1 2 -11 197.315 183.959 2
-1 -2 11 -2.72794 67.1562 5
1 2 -11 83.5505 119.186 7
1 2 -10 4364.35 649.876 2
-1 -2 10 2730.27 423.627 5
1 2 -10 3552.59 541.061 7
-1 -2 9 5986.35 592.738 5
1 2 -9 5924.61 674.97 7
-1 -2 8 4638.83 500.065 5
1 2 -8 4543.64 558.569 7
1 2 -7 6720.09 630.154 7
-1 -2 7 6597.67 561.395 5
1 2 -6 145946 2763.11 7
-1 -2 6 147297 2400.12 5
-1 -2 5 21515.1 829.067 5
1 2 -5 22305.1 993.497 7
1 2 -5 21801.1 770.574 5
-1 -2 4 70398.7 1335.03 5
1 2 -4 70886.2 1254.05 6
1 2 -4 72144.1 1635.75 7
1 2 -3 83287.4 1591.51 7
-1 -2 3 82915.7 1266 5
1 2 -3 82587.2 1221.77 6
-1 -2 2 14.6029 16.3619 6
1 2 -2 6.74155 13.7123 6
-1 -2 1 6907.97 331.519 6
1 2 -1 6580.75 327.321 6
-1 -2 0 812762 3858.59 6
-1 -2 0 865198 4229.86 1
-1 -2 -1 96224.2 1493.78 6
-1 -2 -2 72270.1 1426.29 6
-1 -2 -3 20991.7 364.54 7
-1 -2 -3 20836.4 848.414 6
-1 -2 -4 9562.69 630.015 6
-1 -2 -4 10910.9 379.123 7
-1 -2 -5 212903 3191.42 6
-1 -2 -5 211975 2056.95 7
-1 -2 -6 12666.1 579.279 7
-1 -2 -6 13390.7 866.765 6
-1 -2 -7 1996.69 254.289 7
-1 -2 -7 2044.68 358.883 6
-1 -2 -8 12550.9 710.089 7
-1 -2 -8 12211.5 915.953 6
-1 -2 -9 1026.85 276.165 6
-1 -2 -9 671.832 190.038 7
-1 -2 -10 4830.39 511.181 7
-1 -2 -10 3752.79 561.956 6
-1 -2 -11 -0.1955 66.4013 7
-1 -2 -11 -170.047 198.697 6
-1 -2 -12 19227 1151.17 7
-1 -2 -12 19670.3 1398.05 6
-1 -2 -13 156.312 176.681 6
-1 -2 -13 262.055 134.902 7
-1 -2 -14 919.654 315.814 6
-1 -2 -15 6811.4 931.726 6
-1 -2 -16 -39.7028 121.767 6
1 3 -16 13017.6 1357.36 7
1 3 -15 2524.87 573.986 7
1 3 -14 3935.58 698.258 7
1 3 -13 3146.42 592.657 7
1 3 -12 442.697 167.831 7
-1 -3 12 551.632 205.731 5
-1 -3 11 23534.4 1218.75 5
1 3 -11 24410.3 1517.62 7
1 3 -10 585.773 217.272 7
-1 -3 10 844.501 217.027 5
-1 -3 9 5178.9 511.508 5
1 3 -9 5634 663.664 7
-1 -3 8 2469.6 340.641 5
1 3 -8 2536.71 438.133 7
1 3 -7 184.9 128.294 7
-1 -3 7 59.8566 80.9458 5
1 3 -6 101122 1603.03 5
1 3 -6 105007 2408.69 7
-1 -3 6 101013 1799.55 5
1 3 -5 61695.5 1145.42 6
-1 -3 5 59447.9 1250.19 5
1 3 -5 60950.6 1714.81 7
1 3 -4 67404.6 1083.35 6
1 3 -4 69629.3 1686.85 7
-1 -3 4 69397.3 1188.81 5
-1 -3 3 15177.8 536.76 6
1 3 -3 14681.2 707.863 7
1 3 -3 15080.4 483.627 6
1 3 -2 90743.9 1582.95 7
1 3 -2 89829.4 1233.73 6
-1 -3 2 91996.1 1253.85 6
1 3 -1 -6.6608 27.7196 7
-1 -3 1 78.0174 28.5825 6
1 3 -1 53.5907 41.6081 6
-1 -3 0 999999 4744.3 6
1 3 0 979426 3727.89 7
1 3 1 109215 883.026 7
-1 -3 -1 110969 1769.9 6
-1 -3 -2 225620 2751.51 6
-1 -3 -3 5279.8 460.456 6
1 3 3 5415.98 189.567 4
-1 -3 -4 10063.3 694.931 6
-1 -3 -4 10227.5 305.121 7
-1 -3 -5 5553.51 559.237 6
-1 -3 -5 5370.3 289.534 7
-1 -3 -6 12884.3 885.928 6
-1 -3 -6 13957.6 558.642 7
-1 -3 -7 3090.79 301.422 7
-1 -3 -7 2620.07 418.554 6
-1 -3 -8 60.7309 61.1342 7
-1 -3 -8 -53.823 123.848 6
-1 -3 -9 233.462 128.543 6
-1 -3 -9 387.512 145.879 7
-1 -3 -10 500.843 159.482 7
-1 -3 -10 754.72 262.564 6
-1 -3 -11 640.078 181.773 7
-1 -3 -11 233.191 132.517 6
-1 -3 -12 188.123 202.265 6
-1 -3 -13 135.737 125.663 6
-1 -3 -14 310.546 187.655 6
-1 -3 -15 341.008 187.918 6
-1 -3 -16 814.339 355.177 6
1 4 -15 126.187 153.774 7
1 4 -14 204.816 234.525 7
1 4 -13 43.1012 101.785 7
1 4 -12 1818.41 444.972 7
1 4 -11 71666.2 2668.26 7
1 4 -10 7186.63 795.363 7
-1 -4 10 6373.44 531.71 5
-1 -4 9 8627.69 583.664 5
1 4 -9 8759.54 856.119 7
1 4 -8 3787.47 533.318 7
-1 -4 8 3944.31 367.021 5
-1 -4 7 23.1918 29.5562 5
1 4 -7 477.106 188.469 7
-1 -4 6 -81.9061 46.888 5
1 4 -6 -19.771 37.9561 6
1 4 -6 -84.7827 80.0298 7
1 4 -5 110662 2405.85 7
-1 -4 5 109858 1478.71 5
1 4 -5 109044 1343.45 6
1 4 -4 44326.6 839.996 6
-1 -4 4 43094.2 850.988 5
1 4 -4 45679.2 1438.46 7
1 4 -3 28094.2 1026.85 7
-1 -4 3 28230.5 725.426 6
1 4 -3 27980 706.058 6
1 4 -2 3101.28 312.836 7
1 4 -2 2443.85 230.114 6
-1 -4 2 2954.44 235.636 6
1 4 -1 70165.1 1321.22 7
-1 -4 1 70356.9 1251.08 6
-1 -4 0 29244.5 760.285 7
-1 -4 0 29727.2 905.48 6
1 4 0 30132.9 745.753 7
-1 -4 -1 22716.6 873.04 6
1 4 1 21822.9 520.604 7
-1 -4 -1 22367.3 556.732 7
-1 -4 -2 29308.7 497.612 7
-1 -4 -2 31159.9 1111.38 6
-1 -4 -3 14057.2 809.483 6
1 4 4 75174.4 909.059 4
-1 -4 -4 77450.6 2046.24 6
-1 -4 -4 72554.5 705.854 7
-1 -4 -5 57936.9 872.607 7
1 4 5 57493.6 957.354 4
-1 -4 -6 10167.1 839.978 6
-1 -4 -6 10320.7 453.412 7
-1 -4 -7 -6.20954 86.0258 6
-1 -4 -7 119.829 57.1353 7
-1 -4 -8 371.316 106.3 7
-1 -4 -8 470.103 227.284 6
-1 -4 -9 3949.92 394.768 7
-1 -4 -9 4094.4 630.163 6
-1 -4 -10 5259.54 733.864 6
-1 -4 -11 2572.82 540.253 6
-1 -4 -12 128.41 171.605 6
-1 -4 -13 10152.5 1149.65 6
-1 -4 -14 1375.69 439.943 6
-1 -4 -15 417.361 293.024 6
1 5 -15 -193.095 219.639 7
1 5 -14 315.823 201.45 7
1 5 -13 8548.71 1014.99 7
1 5 -12 447.897 247.934 7
1 5 -11 31503.2 1805.59 7
1 5 -10 338.822 215.769 7
1 5 -9 18397.4 1268.37 7
1 5 -8 -78.483 107.864 7
1 5 -7 17213.5 1109.42 7
-1 -5 7 17160.3 525.517 5
1 5 -6 16887.3 507.735 6
1 5 -6 16458.5 1018.18 7
-1 -5 6 16454.8 468.4 5
1 5 -5 8795.66 375.603 6
1 5 -5 8877.85 707.134 7
-1 -5 5 8539.88 340.519 5
-1 -5 4 8630.64 417.954 6
1 5 -4 9130.17 670.237 7
1 5 -4 8328.26 389.036 6
-1 -5 4 8821.89 357.536 5
1 5 -3 9307.28 449.091 6
1 5 -3 9268.78 631.794 7
-1 -5 3 9155.43 431.987 6
1 5 -2 13434.8 687.481 7
-1 -5 2 13250.7 536.74 6
-1 -5 2 11916.9 550.746 5
1 5 -1 16866.5 704.727 7
-1 -5 1 16833.8 668.623 6
-1 -5 0 -34.7115 64.5279 6
1 5 0 -22.2878 40.3818 7
-1 -5 -1 46537.9 1347.74 6
-1 -5 -1 46163.3 960.964 7
1 5 1 45381.1 895.475 7
-1 -5 -2 18675.7 919.897 6
-1 -5 -2 18462.8 521.116 7
-1 -5 -2 18884.2 474.19 4
-1 -5 -3 63547.7 1837.37 6
-1 -5 -3 62454.8 810.286 7
-1 -5 -4 10304.4 785.667 6
-1 -5 -4 10445.4 304.064 7
-1 -5 -5 12867.2 369.074 7
-1 -5 -5 13742.1 972.334 6
-1 -5 -6 13894 1023.55 6
-1 -5 -6 13716.5 481.852 7
-1 -5 -7 27277.3 1521.48 6
-1 -5 -7 26076.9 760.545 7
-1 -5 -8 1231.11 341.508 6
-1 -5 -9 2259.83 484.881 6
-1 -5 -10 85.2319 188.77 6
-1 -5 -11 4150.51 706.768 6
-1 -5 -12 443.706 244.154 6
-1 -5 -13 228.302 183.932 6
-1 -5 -14 5731.86 925.003 6
1 6 -14 119.564 104.256 7
1 6 -13 460.204 293.644 7
1 6 -12 5498.81 784.729 7
1 6 -11 -102.959 173.176 7
1 6 -10 194.227 108.989 7
1 6 -9 313.098 146.358 7
1 6 -8 1196.72 319.652 7
1 6 -7 13417 997.613 7
1 6 -6 54744.8 1924.59 7
1 6 -5 2032.45 354.067 7
1 6 -4 31181 812.527 6
1 6 -4 31306.8 1296.11 7
-1 -6 4 31616.3 713.845 5
-1 -6 4 31921.6 815.454 6
-1 -6 3 36124.1 936.273 5
-1 -6 3 37821.2 905.476 6
-1 -6 2 114.899 55.7662 6
1 6 -2 119.989 59.7115 7
-1 -6 1 7412.08 478.993 6
1 6 -1 7457.11 506.432 7
1 6 0 35474.3 1007.93 7
-1 -6 0 35480.8 1149.86 6
1 6 1 13856.7 831.052 1
1 6 1 12733.4 532.977 7
-1 -6 -1 13741 777.931 6
-1 -6 -2 37960.9 1403.54 6
-1 -6 -2 36234.7 788.988 4
-1 -6 -2 35999.9 865.677 7
-1 -6 -3 25312.1 644.251 7
-1 -6 -3 27018.1 1271.18 6
-1 -6 -4 -51.7993 83.9678 3
-1 -6 -4 14.4102 15.7707 7
-1 -6 -5 3347.17 496.28 6
-1 -6 -6 178.812 107.633 6
-1 -6 -7 2028.38 443.229 6
-1 -6 -8 1048.71 302.945 6
-1 -6 -9 6871.65 874.608 6
-1 -6 -10 7015.07 912.84 6
-1 -6 -11 27382.5 1877.77 6
-1 -6 -12 2764.87 607.406 6
-1 -6 -13 3469.85 721.194 6
1 7 -14 3977.62 738.843 7
1 7 -13 1364.74 420.882 7
1 7 -12 10332.2 1122.18 7
1 7 -11 830.402 277.896 7
1 7 -10 212.023 155.133 7
1 7 -9 6108.22 762.755 7
1 7 -8 5012.7 653.829 7
1 7 -7 12013.7 976.983 7
1 7 -6 3118.2 479.403 7
1 7 -5 19471 1128.88 7
-1 -7 4 424.937 93.991 6
1 7 -4 375.263 146.814 7
-1 -7 3 250.343 82.2494 6
1 7 -3 319.605 122.828 7
1 7 -2 1550.11 266.943 7
1 7 -2 1282.27 270.382 1
-1 -7 2 1798.4 229.014 6
-1 -7 1 7718.71 520.882 6
1 7 -1 7554.11 670.24 1
1 7 -1 7767.58 559.414 7
-1 -7 0 48125.4 1435.29 6
1 7 0 48753.8 1680.71 1
1 7 0 47285.7 1264.34 7
1 7 1 7771.07 659.776 1
-1 -7 -1 6307.1 565.418 6
1 7 1 7008.97 438.255 7
-1 -7 -2 1421.93 173.205 4
-1 -7 -2 1335.47 317.992 3
-1 -7 -2 1282.37 280.119 6
-1 -7 -3 4425.2 535.357 6
-1 -7 -3 3788.3 518.661 3
-1 -7 -4 709.232 238.405 6
-1 -7 -4 546.98 209.643 3
-1 -7 -5 161.954 146.684 6
-1 -7 -5 353.761 206.704 3
-1 -7 -6 8863.19 896.855 6
-1 -7 -7 20433.5 1419.88 6
-1 -7 -8 880.306 314.242 6
-1 -7 -9 251.125 164.953 6
-1 -7 -10 166.12 290.214 6
-1 -7 -11 1783.04 500.884 6
-1 -7 -12 -53.3349 160.914 6
1 8 -13 5612.98 873.411 7
1 8 -12 1253.8 423.15 7
1 8 -11 104.235 212.174 7
1 8 -10 246.879 197.035 7
1 8 -9 2408.55 485.169 7
1 8 -8 2121.42 445.973 7
1 8 -7 4330.71 599.394 7
1 8 -6 1923.78 394.513 7
1 8 -5 7875.45 734.902 7
1 8 -4 3320.79 460.028 7
1 8 -3 295.098 117.346 7
-1 -8 3 437.652 110.799 6
1 8 -3 342.138 149.309 1
-1 -8 2 12288.5 634.123 6
1 8 -2 11817.7 784.173 7
1 8 -2 11757.7 900.882 1
1 8 -1 3507.12 475.772 1
1 8 -1 3325.36 386.283 7
-1 -8 1 3469.51 377.648 6
1 8 0 18255.8 1096.75 1
-1 -8 0 18046 931.347 6
1 8 0 17680.8 833.654 7
-1 -8 -1 505.207 124.419 4
-1 -8 -1 362.018 143.623 6
1 8 1 289.661 95.1271 7
1 8 1 190.475 126.916 1
-1 -8 -1 369.278 159.634 3
-1 -8 -2 1061.45 285.446 3
-1 -8 -2 416.55 166.857 6
-1 -8 -3 948.154 288.557 3
-1 -8 -3 715.856 252.324 6
-1 -8 -4 -30.4259 83.5111 6
-1 -8 -4 41.4715 145.984 3
-1 -8 -5 3832.73 581.182 3
-1 -8 -5 4225.71 613.746 6
-1 -8 -6 2318.58 485.559 6
-1 -8 -7 3504.12 614.79 6
-1 -8 -8 18596.2 1474.77 6
-1 -8 -9 -149.862 180.953 6
-1 -8 -10 5077.99 833.273 6
-1 -8 -11 2717.87 643.445 6
1 9 -12 509.24 300.632 7
1 9 -11 723.855 293.344 7
1 9 -10 711.071 290.773 7
1 9 -9 -117.693 116.866 7
1 9 -8 10493.9 1014.53 7
1 9 -7 6650.11 775.563 7
1 9 -6 271.297 109.844 7
1 9 -5 1389 323.606 7
1 9 -4 31374.7 1474.62 7
1 9 -4 30362.6 1583.87 1
1 9 -3 157.717 99.2909 7
1 9 -3 130.306 121.794 1
1 9 -2 112.572 62.5319 7
1 9 -2 41.155 104.094 1
1 9 -1 1963.32 374.368 1
-1 -9 1 1641.99 270.518 6
1 9 -1 2124.3 329.124 7
-1 -9 0 363.698 136.115 6
1 9 0 161.025 125.553 1
-1 -9 -1 8642.03 866.222 3
-1 -9 -1 8306.96 713.223 6
1 9 1 8942.36 810.221 1
-1 -9 -2 11219.2 988.327 3
-1 -9 -2 11392.4 896.231 6
-1 -9 -3 8552.52 815.917 6
-1 -9 -3 9287.14 925.763 3
-1 -9 -4 4039.23 598.191 6
-1 -9 -4 3703.68 604.962 3
-1 -9 -5 13426.4 1124.6 6
-1 -9 -5 14757.9 1221.95 3
-1 -9 -6 87.5971 124.984 6
-1 -9 -7 15681.5 1333.97 6
-1 -9 -8 3198.24 641.719 6
-1 -9 -9 741.099 303.184 6
-1 -9 -10 259.865 224.137 6
1 10 -11 908.133 333.182 7
1 10 -10 1859.25 480.421 7
1 10 -9 615.403 250.33 7
1 10 -8 184.085 118.996 7
1 10 -7 89.5644 152.064 7
1 10 -6 11288.8 999.662 7
1 10 -5 918.254 269.717 7
1 10 -5 469.154 268.88 1
1 10 -4 2562.11 486.17 1
1 10 -4 1799.56 359.902 7
1 10 -3 1512.98 316.623 7
1 10 -3 1127.97 320.627 1
1 10 -2 268.39 170.969 1
1 10 -1 2410.73 451.057 1
1 10 0 1272.27 307.791 1
-1 -10 -1 -138.958 225.359 3
-1 -10 -1 -42.6408 83.3454 6
-1 -10 -2 7312.75 852.014 3
-1 -10 -2 7313.41 739.845 6
-1 -10 -3 514.972 233.414 3
-1 -10 -3 463.812 208.783 6
-1 -10 -4 167.761 179.52 3
-1 -10 -4 59.2018 141.214 6
-1 -10 -5 1962.86 451.831 6
-1 -10 -5 2412.25 515.047 3
-1 -10 -6 168.245 117.645 6
-1 -10 -7 2233.96 524.297 6
-1 -10 -8 371.168 215.989 6
-1 -10 -9 1687.26 511.241 6
1 11 -10 2060.14 509.129 7
1 11 -9 5462.77 810.837 7
1 11 -8 3967.98 673.906 7
1 11 -7 5758.2 772.838 7
1 11 -6 76.4233 92.3593 1
1 11 -6 187.867 123.387 7
1 11 -5 195.169 162.677 1
1 11 -5 352.424 187.131 7
1 11 -4 1271.32 357.805 1
1 11 -3 7539.81 854.712 1
1 11 -2 -157.277 198.921 1
1 11 -1 1563.5 364.887 1
1 11 0 -62.6901 159.653 1
-1 -11 0 117.879 184.787 3
-1 -11 -1 754.35 285.465 3
-1 -11 -2 679.235 253.983 3
-1 -11 -3 204.663 165.074 6
-1 -11 -3 461.941 251.34 3
-1 -11 -4 56.7665 115.363 6
-1 -11 -4 -405.09 234.903 3
-1 -11 -5 3163.94 637.499 3
-1 -11 -5 4012.4 655.936 6
-1 -11 -6 145.371 132.609 6
-1 -11 -7 15160.8 1408.47 6
-1 -11 -8 854.725 364.145 6
1 12 -8 233.046 162.983 7
1 12 -6 1944.67 480.483 1
1 12 -5 4541.55 720.3 1
1 12 -4 1577.29 392.89 1
1 12 -3 -243.275 168.815 1
1 12 -2 1316.48 365.733 1
1 12 -1 245.927 183.411 1
-1 -12 0 702.456 282.421 3
-1 -12 -1 604.664 271.819 3
-1 -12 -2 152.522 163.406 3
-1 -12 -3 -6.30081 104.796 3
-1 -12 -6 393.089 242.409 6
2 -13 -1 372.021 213.95 3
2 -13 0 176.542 180.59 3
2 -13 1 342.751 195.717 4
2 -13 2 97.9587 93.3391 4
-2 13 -3 1067.88 346.182 7
2 -13 3 942.016 323.579 4
-2 13 -4 603.779 285.859 7
2 -12 -5 1479.7 404.311 3
2 -12 -4 683.201 257.35 3
2 -12 -3 2841.57 550.182 3
2 -12 -2 203.887 169.509 3
2 -12 -2 563.063 254.149 4
2 -12 -1 71.504 128.107 3
2 -12 -1 -27.8474 96.7688 4
2 -12 0 -12.1346 68.8779 3
2 -12 0 -56.1698 99.391 4
2 -12 1 6111.17 765.319 4
-2 12 -2 754.566 278.68 7
2 -12 2 399.075 200.653 4
-2 12 -3 1073.96 324.175 7
-2 12 -4 3120.12 580.069 7
-2 12 -5 6186.04 834.297 7
-2 12 -6 589.96 271.805 7
-2 11 8 24.4244 101.055 5
-2 11 7 1313.81 442.762 5
-2 11 6 3064.29 639.789 5
-2 11 5 345.531 217.502 5
2 -11 -5 80.3616 106.866 3
2 -11 -4 4832.55 682.311 3
2 -11 -4 5493.87 685.808 4
2 -11 -3 3278 533.119 4
2 -11 -3 2894.81 500.274 3
2 -11 -2 1971.02 418.82 3
2 -11 -2 2246.02 437.634 4
2 -11 -1 7319.72 795.2 3
2 -11 -1 7889.94 823.75 4
2 -11 0 1487.28 347.04 4
-2 11 -1 329.351 165.575 7
2 -11 1 -48.6144 99.0961 4
-2 11 -2 1567.45 397.432 7
-2 11 -3 5300.28 720.908 7
-2 11 -4 1087.83 325.812 7
-2 11 -5 1090.71 339.035 7
-2 11 -6 207.991 204.593 7
-2 11 -7 407.157 231.184 7
-2 11 -8 5178.58 807.152 7
-2 10 9 -262.317 227.618 5
-2 10 8 3302 702.889 5
-2 10 7 -180.848 188.381 5
-2 10 6 57.2854 96.4705 5
2 -10 -5 3017.97 504.572 3
-2 10 5 2837.27 588.037 5
2 -10 -4 -148.04 104.437 3
-2 10 4 25.4887 114.545 5
2 -10 -4 98.2646 84.2124 4
2 -10 -3 1693.07 364.545 4
2 -10 -3 2072.52 415.792 3
-2 10 3 2086.88 460.008 5
2 -10 -2 2208.73 422.234 3
2 -10 -2 2211.37 418.099 4
-2 10 2 1736.51 418.667 5
2 -10 -1 972.16 266.401 3
2 -10 -1 739.385 227.46 4
2 -10 0 5669.96 665.901 4
-2 10 -1 248.728 138.576 1
-2 10 -1 96.0619 84.5154 7
2 -10 1 239.498 172.208 4
-2 10 -2 434.913 186.141 7
-2 10 -2 536.428 191.006 1
-2 10 -3 160.116 152.305 7
-2 10 -4 268.007 162.255 7
-2 10 -5 26934.2 1615.3 7
-2 10 -6 396.162 265.334 7
-2 10 -7 104.09 160.007 7
-2 10 -8 5218.47 762.992 7
-2 10 -9 430.87 265.119 7
-2 9 11 -122.505 156.667 5
-2 9 10 385.558 268.629 5
-2 9 9 4888.38 854.737 5
-2 9 8 1285.13 398.505 5
-2 9 7 2518.7 585.047 5
-2 9 6 2524.93 573.593 5
2 -9 -5 -155.114 149.83 3
-2 9 5 81.1741 90.5285 5
2 -9 -4 9627.84 845.672 3
-2 9 4 10816.2 1078.49 5
2 -9 -4 9700.07 835.787 4
2 -9 -3 26137.2 1358.41 3
-2 9 3 24302.6 1553.72 5
2 -9 -3 25593 1352.49 4
2 -9 -2 1281.82 293.931 3
-2 9 2 1141.47 330.681 5
2 -9 -2 1319.08 294.33 4
-2 9 1 10468.5 700.76 1
-2 9 1 9762 900.941 5
2 -9 -1 10190.6 846.689 4
2 -9 0 1367.54 297.43 4
-2 9 0 1235.16 304.861 5
-2 9 0 1260.74 250.257 1
-2 9 -1 722.848 191.819 1
-2 9 -1 785.666 233.233 7
-2 9 -2 9637.61 871.53 7
-2 9 -3 68817.8 2365.59 7
-2 9 -4 7058.82 775.093 7
-2 9 -5 1055.58 310.686 7
-2 9 -6 8036.5 878.089 7
-2 9 -7 1117.68 351.562 7
-2 9 -8 292.65 183.166 7
-2 9 -9 6832.87 874.399 7
-2 9 -10 2321.67 510.302 7
-2 9 -11 2079.01 521.606 7
-2 8 12 6169.65 1020.42 5
-2 8 11 108.847 146.904 5
-2 8 10 328.947 214.69 5
-2 8 9 2737.19 621.386 5
-2 8 8 13443.7 1327.22 5
-2 8 7 1226.08 399.971 5
-2 8 6 17011.4 1403.08 5
-2 8 5 132.492 156.173 5
2 -8 -4 30607.7 1392.14 3
-2 8 4 29109.2 1713.49 5
2 -8 -4 29179.8 1388.29 4
-2 8 3 4115.02 627.235 5
2 -8 -3 4505.98 516.645 3
2 -8 -3 4461.76 537.903 4
2 -8 -2 37287.9 1538.64 4
2 -8 -2 39540.2 1520.3 3
-2 8 2 37272.3 1796.63 5
2 -8 -1 1975.15 351.13 4
-2 8 1 2530.37 446.76 5
2 -8 0 713.499 237.423 4
-2 8 0 948.825 260.106 5
-2 8 0 554.13 200.289 7
-2 8 -1 2139.25 371.934 5
-2 8 -1 2651.02 346.719 1
-2 8 -1 2691.46 423.933 7
-2 8 -2 7269.04 716.424 7
-2 8 -2 6364.26 594.921 5
-2 8 -3 39620.7 1727.61 7
-2 8 -4 2444.25 433.168 7
-2 8 -5 20532.1 1309.02 7
-2 8 -6 14047.3 1118.24 7
-2 8 -7 2476.29 480.887 7
-2 8 -8 2777.47 510.058 7
-2 8 -9 6743.78 845.078 7
-2 8 -10 -33.4336 190.46 7
-2 8 -11 1545 423.284 7
-2 8 -12 -290.152 256.525 7
-2 7 12 6537.57 1020.02 5
-2 7 11 5725.66 912.541 5
-2 7 10 5795.78 905.068 5
-2 7 9 1070 383.675 5
-2 7 8 13051.1 1283.05 5
-2 7 7 12793.9 1235.66 5
-2 7 6 2146.16 494.73 5
-2 7 5 19025.2 1388.64 5
-2 7 4 3704.88 591.417 5
2 -7 -4 3468.73 432.076 3
2 -7 -4 3271.66 447.712 4
2 -7 -3 6202.92 555.575 3
2 -7 -3 5455.6 568.603 4
-2 7 3 6348.35 737.97 5
2 -7 -2 8378.87 633 3
-2 7 2 9220.9 863.804 5
2 -7 -2 7638.04 667.74 4
2 -7 -1 11586.2 815.298 4
-2 7 1 11925.9 628.603 1
-2 7 1 10654.4 886.267 5
-2 7 0 1821.46 253.27 1
-2 7 0 1709.91 332.273 5
-2 7 0 1807.81 323.542 7
2 -7 0 1668.72 305.199 4
-2 7 -1 923.802 237.971 5
-2 7 -1 905.637 220.414 7
-2 7 -2 623.403 171.823 5
-2 7 -2 693.468 234.314 7
-2 7 -3 6480.59 662.212 7
-2 7 -3 5688.58 523.819 5
-2 7 -4 38460.7 1653.52 7
-2 7 -4 39604.1 1263.18 5
-2 7 -5 17004.6 1147.03 7
-2 7 -6 1902.9 396.635 7
-2 7 -7 11250.7 982.83 7
-2 7 -8 22614.6 1441.17 7
-2 7 -9 609.091 233.316 7
-2 7 -10 13.3445 95.9194 7
-2 7 -11 138.539 108.711 7
-2 7 -12 2589.58 553.454 7
-2 7 -13 39.773 168.581 7
-2 6 13 17667.5 1685.64 5
-2 6 12 5531.49 915.783 5
-2 6 11 3470.77 711.18 5
-2 6 10 2135.85 554.556 5
-2 6 9 12416.9 1258.29 5
-2 6 8 44636.4 2307.81 5
-2 6 7 32443.9 1913.08 5
-2 6 6 45781.2 2181.04 5
-2 6 5 14260 1163.11 5
2 -6 -4 3601.1 396.871 3
2 -6 -4 3673.22 441.322 4
-2 6 4 4148.77 604.165 5
2 -6 -3 36338.5 1391.55 4
-2 6 3 36399.6 1719.87 5
2 -6 -3 38187.7 1260.69 3
2 -6 -2 30083.8 1083.72 3
2 -6 -2 28775.9 1214.87 4
-2 6 2 29007.7 1461.36 5
-2 6 1 2247.21 384.974 5
-2 6 1 1928.59 227.033 1
2 -6 -1 1803.5 307.463 4
-2 6 0 12516.2 601.048 1
-2 6 0 12372.8 800.316 7
-2 6 0 11979.6 845.188 5
-2 6 -1 4050.76 478.028 7
-2 6 -1 4278.28 477.896 5
-2 6 -2 41.0007 59.1631 7
-2 6 -2 110.359 97.7608 5
-2 6 -3 1812.38 346.359 7
-2 6 -3 1751.45 279.901 5
-2 6 -4 -9.51228 81.8806 7
-2 6 -4 10.2181 35.1641 5
-2 6 -5 24787.6 1319.74 7
-2 6 -5 26026.3 959.029 5
-2 6 -6 3710.82 515.01 7
-2 6 -7 -68.7883 84.8679 7
-2 6 -8 2406.11 461.866 7
-2 6 -9 35.0883 104.557 7
-2 6 -10 3563 600.965 7
-2 6 -11 1596.8 415.523 7
-2 6 -12 -63.1867 118.983 7
-2 6 -13 809.111 314.78 7
-2 6 -14 3785.31 697.838 7
-2 5 14 1592.69 541.401 5
-2 5 13 747.303 321.325 5
-2 5 12 2073.12 518.017 5
-2 5 11 -195.689 239.926 5
-2 5 10 1095.59 372.091 5
-2 5 9 -58.5018 189.633 5
-2 5 8 10290.4 1096.28 5
-2 5 7 48584.5 2250.23 5
-2 5 6 13389.7 1136.65 5
-2 5 5 768.681 258.472 5
2 -5 -4 70230.8 1863.38 4
-2 5 4 70383.4 2397.22 5
2 -5 -3 16108.1 738.286 3
2 -5 -3 17062.5 902.386 4
-2 5 3 17199.8 1117.12 5
2 -5 -2 2036 251.042 3
-2 5 2 2330.8 389.886 5
2 -5 -2 2268.7 325.177 4
-2 5 1 17281.5 569.39 1
2 -5 -1 17232 886.731 4
-2 5 1 16894.5 1002.36 5
-2 5 0 43176.9 1519.2 5
-2 5 0 44764.4 1437.53 7
-2 5 -1 32835.3 1256.34 7
-2 5 -1 32414.8 1250.31 5
-2 5 -2 49670.1 1456.47 5
-2 5 -2 49070.1 1575.96 7
-2 5 -3 7840.86 547.284 5
-2 5 -3 7105.66 624.215 7
-2 5 -4 9596.79 579.809 5
-2 5 -4 9866.96 766.071 7
-2 5 -5 132.897 111.27 7
-2 5 -6 750.505 131.53 6
-2 5 -6 619.009 195.076 7
-2 5 -7 841.132 142.628 6
-2 5 -7 971.427 251.645 7
-2 5 -8 5928.63 687.037 7
-2 5 -9 6687.48 740.104 7
-2 5 -9 5912.51 818.997 2
-2 5 -10 22401.9 1419.74 7
-2 5 -10 24141.6 1702.06 2
-2 5 -11 5301.04 834.296 2
-2 5 -11 3778.74 606.562 7
-2 5 -12 345.715 265.541 2
-2 5 -12 152.322 130.11 7
-2 5 -13 578.49 268.655 7
-2 5 -13 490.604 270.565 2
-2 5 -14 1932.54 495.271 7
-2 5 -15 614.649 297.366 7
2 -4 -16 -416.194 302.179 7
-2 4 15 -380.133 269.693 5
-2 4 14 1768.06 507.608 5
2 -4 -13 313.82 151.817 2
-2 4 13 246.805 200.099 5
2 -4 -12 7814.68 883.8 2
-2 4 12 9822.94 1151.54 5
-2 4 11 -93.4608 197.765 5
2 -4 -11 172.746 117.585 2
-2 4 10 878.812 359.52 5
-2 4 9 37313.9 2060.32 5
-2 4 8 252.535 215.697 5
-2 4 7 50793.1 2224.69 5
-2 4 6 14089.2 1132.15 5
-2 4 5 43704.2 1898.5 5
2 -4 -4 69601.3 1058.47 1
-2 4 4 71934.5 2315.04 5
-2 4 3 8286.41 742.678 5
2 -4 -3 8997.93 482.736 3
2 -4 -3 9437.8 640.409 4
2 -4 -2 78192.9 1333.44 3
2 -4 -2 77075.1 1779.91 4
-2 4 2 74749.6 2134.11 5
-2 4 1 164532 1403.35 1
-2 4 1 160012 2952.87 5
2 -4 -1 163976 2564.22 4
2 -4 0 56112.7 1117.21 2
-2 4 0 59793.8 1687.56 5
-2 4 0 60060.7 1549.86 7
2 -4 1 11108.4 572.038 2
-2 4 -1 12959.2 741.769 7
-2 4 -1 13132.6 736.844 5
-2 4 -2 27815.5 1115.07 7
-2 4 -2 27458.9 1009.6 5
-2 4 -3 36917.6 1331.79 7
-2 4 -4 5261.32 371.096 6
-2 4 -4 4916.09 507.582 7
-2 4 -4 5606.6 545.066 2
-2 4 -5 65542.2 1307.34 6
-2 4 -5 65479.8 1915.27 7
-2 4 -6 2309.1 242.531 6
-2 4 -6 1464.58 300.345 7
-2 4 -6 1819.45 364.555 2
-2 4 -7 936.49 237.127 7
-2 4 -7 1069.3 166.625 6
-2 4 -7 850.913 272.069 2
-2 4 -8 3516.59 322.947 6
-2 4 -8 3681.64 576.103 2
-2 4 -8 3693.09 514.659 7
-2 4 -9 620.392 144.739 6
-2 4 -9 562.405 245.88 2
-2 4 -9 520.657 173.571 7
-2 4 -10 326.452 214.346 2
-2 4 -10 -91.49 193.595 7
-2 4 -11 941.138 291.11 7
-2 4 -11 239.872 228.405 2
-2 4 -12 164.973 123.517 7
-2 4 -12 56.333 125.343 2
-2 4 -13 -95.3511 196.712 2
-2 4 -13 -72.7738 100.485 7
-2 4 -14 -81.1598 148.442 2
-2 4 -14 -486.397 245.877 7
-2 4 -15 3396.57 644.902 7
-2 3 16 4738.45 882.755 5
2 -3 -16 5892.56 912.538 7
2 -3 -15 -147.865 129.335 7
-2 3 15 -57.5052 143.231 5
2 -3 -14 436.373 243.811 2
-2 3 14 249.659 213.477 5
-2 3 13 559.387 283.786 5
2 -3 -13 935.821 307.067 2
-2 3 12 114.44 108.82 5
2 -3 -12 138.805 121.351 2
-2 3 11 4765.85 777.48 5
2 -3 -11 4218.69 611.631 2
-2 3 10 2403.14 518.741 5
2 -3 -10 3336.34 510.041 2
2 -3 -9 26682.7 1343.14 2
-2 3 9 27329.6 1701.27 5
2 -3 -8 11360.9 813.147 2
-2 3 8 11548.9 1072.64 5
-2 3 7 2372.56 470.509 5
-2 3 6 1455.44 345.997 5
-2 3 5 27307.5 1431.21 5
-2 3 4 24374.2 1294.89 5
-2 3 3 152589 3050.14 5
2 -3 -3 150240 2403.83 4
2 -3 -3 150225 1071.43 1
2 -3 -2 91175.9 1181.09 3
2 -3 -2 92452 1816.18 4
-2 3 2 88694.6 2194.55 5
-2 3 1 120354 2369.64 5
2 -3 -1 119866 2051.49 4
-2 3 0 7029.06 533.017 5
2 -3 0 7303.5 496.575 4
-2 3 -1 98773.1 1892.26 7
-2 3 -1 96149.6 1872.16 5
-2 3 -2 74292.8 1560.07 2
-2 3 -2 74388.4 1476.94 6
-2 3 -2 76325.1 1726.66 7
-2 3 -3 33482.8 958.774 6
-2 3 -3 35000 1208.07 7
-2 3 -3 33817.3 1200.58 2
-2 3 -4 2323.87 244.96 6
-2 3 -4 2034.97 322.863 2
-2 3 -4 2467.23 329.549 7
-2 3 -5 25637 818.463 6
-2 3 -5 25614.9 1123.97 7
-2 3 -6 9103.06 504.764 6
-2 3 -6 8421.74 676.121 7
-2 3 -7 74.5936 73.4291 2
-2 3 -7 17.1691 40.2475 6
-2 3 -7 88.7023 54.9691 7
-2 3 -8 9036.47 915.283 2
-2 3 -8 7812.52 714.368 7
-2 3 -8 8064.47 536.149 6
-2 3 -9 2937.99 534.651 2
-2 3 -9 3356.63 489.263 7
-2 3 -9 4093.36 405.614 6
-2 3 -10 6470.47 708.589 7
-2 3 -10 5993.02 520.55 6
-2 3 -10 5567.41 810.218 2
-2 3 -11 8857.65 864.996 7
-2 3 -11 7900.84 985.245 2
-2 3 -12 902.993 380.558 2
-2 3 -12 1618.11 393.051 7
-2 3 -13 1240.33 467.463 2
-2 3 -13 1416.9 369.195 7
-2 3 -14 340.808 151.404 2
-2 3 -14 1031.88 345.869 7
-2 3 -15 7166.79 1122.98 2
-2 3 -15 6333.33 856.051 7
-2 3 -16 1632.9 449.531 7
-2 2 16 11991.8 1373.14 5
2 -2 -16 11306.9 1267.01 7
2 -2 -16 9543.92 1174.9 2
2 -2 -15 2378.77 562.518 7
2 -2 -15 1917.86 501.876 2
-2 2 15 2538.7 601.585 5
2 -2 -14 288.079 203.261 2
2 -2 -14 277.981 177.707 7
-2 2 14 703.329 315.354 5
-2 2 13 22811.7 1717.64 5
2 -2 -13 21431.1 1541.1 2
-2 2 12 8434.1 1027.95 5
2 -2 -12 8994.2 938.225 2
-2 2 11 2481.8 521.943 5
2 -2 -11 2485.06 459.79 2
-2 2 10 401.159 221.186 5
2 -2 -10 503.955 179.442 2
-2 2 9 189.275 190.772 5
2 -2 -9 192.755 118.412 2
-2 2 8 7.17085 119.752 5
2 -2 -8 117.443 67.4865 2
-2 2 7 4799.51 632.04 5
2 -2 -7 4266.19 451.801 2
2 -2 -6 25913.6 1009.84 2
-2 2 6 28311.2 1469.6 5
2 -2 -5 2661.3 268.317 2
-2 2 5 2589.63 418.666 5
-2 2 4 88519.8 2337.46 5
-2 2 4 87804.5 1287.97 3
2 -2 -4 89526.4 1272.4 2
-2 2 3 8452.01 319.502 3
-2 2 3 7921.52 659.459 5
-2 2 2 898.3 208.215 5
2 -2 -2 1190.09 200.518 4
2 -2 -1 2165.61 249.31 4
2 -2 -1 2379.88 115.733 3
-2 2 1 2241.57 301.678 5
2 -2 0 58823.9 1316.35 4
-2 2 0 57614.1 843.167 2
-2 2 -1 19760 768.535 6
-2 2 -1 20081.6 678.956 2
-2 2 -1 21836.2 819.003 7
-2 2 -2 41890.2 1074.37 6
-2 2 -2 41818.1 1175.73 7
-2 2 -3 21008 746.347 6
-2 2 -3 19484.2 836.103 7
-2 2 -4 8609.62 490.776 6
-2 2 -4 8811.2 590.234 7
-2 2 -5 24614.5 858.164 6
-2 2 -5 25505.7 1057.2 7
-2 2 -6 41907.6 1176.33 6
-2 2 -6 39847.7 1396.91 7
-2 2 -7 91750.8 1843.05 6
-2 2 -7 88574.3 2159.44 7
-2 2 -7 91568.2 2743.66 2
-2 2 -8 3939.91 479.918 7
-2 2 -8 3355.97 548.322 2
-2 2 -8 3711.82 394.038 6
-2 2 -9 6184.33 633.614 7
-2 2 -9 6548.97 554.493 6
-2 2 -9 6305.22 810.532 2
-2 2 -10 8273.64 764.478 7
-2 2 -10 8143.79 971.597 2
-2 2 -10 9244.98 699.366 6
-2 2 -11 7587.09 964.05 2
-2 2 -11 7697.88 770.698 7
-2 2 -11 7066.99 653.929 6
-2 2 -12 28883.9 1368.24 6
-2 2 -12 29399.7 2010.74 2
-2 2 -12 26603.7 1496.1 7
-2 2 -13 2659.38 654.246 2
-2 2 -13 2210.58 446.047 7
-2 2 -14 -253.419 214.13 2
-2 2 -14 76.4076 131.916 7
-2 2 -15 3928.08 809.34 2
-2 2 -15 4052.72 667.546 7
-2 2 -16 490.953 237.482 7
-2 1 17 4499.36 825.012 5
2 -1 -16 564.914 286.002 7
2 -1 -16 111.232 168.842 2
-2 1 16 119.958 137.252 5
2 -1 -15 1583.39 473.089 2
-2 1 15 1461.83 444.217 5
2 -1 -15 1275.04 410.359 7
2 -1 -14 3835 673.965 7
2 -1 -14 3962 705.337 2
-2 1 14 4776.69 794.38 5
2 -1 -13 -16.4106 89.3688 2
-2 1 13 192.124 196.478 5
-2 1 12 13772 1251.05 5
2 -1 -12 13464.7 1151.71 2
-2 1 11 590.688 283.08 5
2 -1 -11 223.681 121.246 2
2 -1 -10 1573.08 371.571 2
-2 1 10 970.664 305.977 5
-2 1 9 89.156 125.995 5
2 -1 -9 84.6419 70.921 2
-2 1 8 7814.86 811.304 5
2 -1 -8 7252.38 647.52 2
-2 1 7 3720.76 546.086 5
2 -1 -7 4114.68 449.123 2
-2 1 6 5620.42 638.644 5
2 -1 -6 5380.59 460.048 2
-2 1 5 13573.1 924.26 5
-2 1 4 20858.5 1069.5 5
-2 1 3 181.421 93.5978 5
-2 1 2 10518.8 661.47 5
2 -1 -2 9716.31 261.686 1
2 -1 -1 23837.3 784.285 4
-2 1 1 24130.6 945.327 5
-2 1 0 4660.36 374.265 6
2 -1 0 4594.79 333.858 4
-2 1 -1 3293.78 299.285 6
-2 1 -2 220925 2453.18 6
-2 1 -2 217540 2487.03 7
-2 1 -3 27816.5 889.147 6
-2 1 -3 27390.3 904.38 7
-2 1 -4 274384 2908.41 6
-2 1 -4 278788 3038.27 7
-2 1 -5 20248.8 830.832 6
-2 1 -5 18625.2 832.861 7
-2 1 -6 132933 2266.95 6
-2 1 -6 135437 2380.16 7
-2 1 -7 4371.56 458.543 7
-2 1 -7 4203.7 434.508 6
-2 1 -8 322.052 154.271 6
-2 1 -8 265.893 125.072 7
-2 1 -9 11974.4 811.812 6
-2 1 -9 11468.5 808.969 7
-2 1 -10 10509.7 818.985 7
-2 1 -10 10696.7 806.258 6
-2 1 -11 11842.6 894.029 6
-2 1 -11 11540.8 912.327 7
-2 1 -12 6419.28 691.285 6
-2 1 -12 6174.69 902.96 2
-2 1 -12 5018.07 629.372 7
-2 1 -13 644.676 258.365 6
-2 1 -13 461.749 270.3 2
-2 1 -13 388.569 202.098 7
-2 1 -14 432.023 261.107 2
-2 1 -14 225.576 98.5582 6
-2 1 -14 143.436 133.054 7
-2 1 -15 288.451 243.345 2
-2 1 -15 41.8305 99.3842 7
-2 0 16 499.009 288.996 5
2 0 -16 452.148 280.09 7
2 0 -15 11769.6 1270.71 7
-2 0 15 11963.5 1238.4 5
2 0 -14 410.224 223.722 2
-2 0 14 213.852 168.351 5
2 0 -14 -193.673 224.785 7
2 0 -13 605.138 255.797 2
-2 0 13 360.511 176.62 5
2 0 -12 451.854 228.687 7
-2 0 12 408.057 239.075 5
2 0 -12 323.141 232.199 2
-2 0 11 1368.1 376.368 5
2 0 -11 1084.17 353.35 2
2 0 -10 1757.23 379.085 2
-2 0 10 2737.21 511.206 5
-2 0 9 34.4162 93.6176 5
2 0 -9 21.397 91.6661 2
-2 0 8 154.827 113.314 5
-2 0 7 21298.8 1231.36 5
-2 0 6 18448.2 1075.64 5
-2 0 5 10017.8 750.754 5
-2 0 4 7809.83 620.248 5
-2 0 4 8342.02 493.685 2
-2 0 3 11876.5 710.258 5
-2 0 2 167692 2491.95 5
-2 0 1 3886.09 173.855 3
2 0 -1 3619.95 218.772 1
-2 0 1 3536.9 333.5 6
-2 0 0 111425 1797.16 6
-2 0 0 108183 1275.15 1
2 0 0 110201 1482.85 4
-2 0 -1 34.5018 32.8083 6
2 0 1 3.06163 22.0685 3
-2 0 -2 6528.87 434.869 6
-2 0 -2 6356.31 368.223 7
-2 0 -3 385.735 99.0056 7
-2 0 -3 479.105 127.031 6
-2 0 -4 21131.2 874.865 6
-2 0 -4 22035.3 774.675 7
-2 0 -5 64876.6 1612.11 6
-2 0 -5 66711.5 1445.05 7
-2 0 -6 17781.4 898.001 6
-2 0 -6 18630.2 810.659 7
-2 0 -7 35937.4 1332.07 6
-2 0 -7 36833.8 1233.09 7
-2 0 -8 38152.8 1323.69 7
-2 0 -8 35945.7 1417.78 6
-2 0 -9 15474.7 974.322 6
-2 0 -9 15654.8 903.081 7
-2 0 -10 46563.7 1782.99 6
-2 0 -10 47592.1 1671.54 7
-2 0 -11 433.769 186.986 6
-2 0 -11 459.918 168.355 7
-2 0 -12 6829.24 754.871 6
-2 0 -12 6832.15 709.993 7
-2 0 -13 8791.87 886.159 6
-2 0 -13 7856.76 787.199 7
-2 0 -14 249.335 171.462 6
-2 0 -14 -33.0991 163.983 2
-2 0 -15 2155.77 618.895 2
-2 0 -15 1980.21 468.739 6
2 1 -16 2247.16 576.422 7
-2 -1 15 -49.0423 99.9559 5
2 1 -15 342.376 256.87 7
-2 -1 14 599.973 234.871 5
2 1 -14 1145.1 388.064 7
-2 -1 13 -93.4148 192.584 5
2 1 -13 -70.2629 179.959 7
2 1 -12 990.733 317.931 7
-2 -1 12 475.227 219.879 5
-2 -1 11 11516.2 1052.34 5
2 1 -11 11283.2 1036.03 7
-2 -1 10 1991.1 425.783 5
-2 -1 9 45054.1 1883.16 5
-2 -1 8 7047.85 708.034 5
-2 -1 7 51178.8 1820.75 5
-2 -1 6 19669 1068.82 5
-2 -1 5 197034 3132.91 5
-2 -1 4 21150.5 961.06 5
-2 -1 3 29425.6 1059.65 5
-2 -1 2 23546.6 879.234 6
-2 -1 1 64364.1 1395.6 6
2 1 -1 61826.2 1133.27 1
-2 -1 1 64639.2 1123.13 4
-2 -1 0 41701.4 1092.72 6
-2 -1 0 40655.2 850.922 3
-2 -1 0 41255.7 813.565 4
2 1 1 62627.3 1101.21 3
-2 -1 -1 63253.3 1365.24 6
2 1 1 61710.7 1009.81 7
2 1 1 60911.1 948.31 4
-2 -1 -2 4749.38 388.016 6
2 1 2 4450.73 278.707 7
-2 -1 -3 39506.8 1191.56 6
-2 -1 -3 37529.9 819.053 7
2 1 3 37001.9 846.13 7
-2 -1 -4 31165.3 1116.46 6
2 1 4 31270.2 855.632 7
-2 -1 -4 32754 815.607 7
-2 -1 -5 1235.5 175.553 7
-2 -1 -5 1623.72 266.773 6
-2 -1 -6 4154.71 451.122 6
-2 -1 -6 4260.71 353.069 7
-2 -1 -7 40969.3 1521.57 6
-2 -1 -7 39288.3 1166.28 7
-2 -1 -8 5143.33 567.278 6
-2 -1 -8 3847.82 397.294 7
-2 -1 -9 7835.87 739.723 6
-2 -1 -9 8034.24 612.42 7
-2 -1 -10 15089.1 1074.17 6
-2 -1 -10 16931.3 945.088 7
-2 -1 -11 26387.7 1483.95 6
-2 -1 -11 24382.9 1212.15 7
-2 -1 -12 369.319 189.986 6
-2 -1 -12 416.048 161.703 7
-2 -1 -13 168.714 197.207 6
-2 -1 -14 124.326 134.959 6
-2 -1 -15 3231.57 606.645 6
-2 -1 -16 2250.1 519.078 6
2 2 -16 52.2593 120.05 7
2 2 -15 175.68 188.501 7
2 2 -14 1733.35 474.913 7
-2 -2 13 21437.9 1457.46 5
2 2 -13 23446.1 1667.61 7
-2 -2 12 2033.44 430.731 5
2 2 -12 1509.23 393.791 7
-2 -2 11 10717.4 962.768 5
2 2 -11 11009.5 1036.01 7
2 2 -10 11604.3 1018.55 7
-2 -2 10 11685.9 968.271 5
-2 -2 9 941.208 264.243 5
2 2 -9 1048.67 314.506 7
-2 -2 8 6147.26 633.234 5
-2 -2 7 22190.9 1152.01 5
-2 -2 6 11814 788.239 5
-2 -2 5 2227.18 320.745 5
-2 -2 4 44610 1330.98 5
-2 -2 3 651.838 155.17 6
-2 -2 2 41757.5 1167.64 6
2 2 -2 42330.1 1114.67 1
2 2 -1 41510.2 1070.5 1
-2 -2 1 41257.9 1113.2 6
-2 -2 0 11855.1 595.414 6
-2 -2 0 12404.4 555.846 3
2 2 0 10886.7 581.219 1
-2 -2 0 12750.6 416.467 4
-2 -2 -1 10984.9 596.425 6
-2 -2 -1 10441.3 537.707 3
-2 -2 -2 707.29 166.372 6
2 2 2 652.327 77.726 4
2 2 2 605.91 83.3048 7
2 2 3 1224.41 120.766 7
-2 -2 -3 1308.18 234.759 6
-2 -2 -4 30019 1179.34 6
-2 -2 -4 30653.7 626.528 7
2 2 4 29610.6 674.008 7
-2 -2 -5 157.248 56.4548 7
2 2 5 105.257 48.2238 7
-2 -2 -6 31937.7 1363.06 6
-2 -2 -6 31091.3 854.813 7
-2 -2 -7 73.7418 113.948 6
-2 -2 -7 25.7287 41.6379 7
-2 -2 -8 3017.35 458.344 6
-2 -2 -8 3380.91 342.5 7
-2 -2 -9 13714.3 1024.32 6
-2 -2 -9 12158.2 702.5 7
-2 -2 -10 20079.3 1300.23 6
-2 -2 -10 22291.1 1012.54 7
-2 -2 -11 27716 1592.97 6
-2 -2 -12 25328.9 1578.41 6
-2 -2 -13 10072 1035.18 6
-2 -2 -14 307.039 207.471 6
-2 -2 -15 2704.2 567.964 6
-2 -2 -16 3091.78 636.544 6
2 3 -15 1579.58 469.723 7
2 3 -14 558.276 294.412 7
2 3 -13 2457.11 541.147 7
-2 -3 12 2283.41 432.26 5
2 3 -12 1889.84 476.618 7
-2 -3 11 384.662 175.404 5
2 3 -11 215.631 144.715 7
-2 -3 10 8373.85 786.477 5
2 3 -10 8310.99 895.486 7
2 3 -9 5264.08 679.36 7
-2 -3 9 5421.79 601.301 5
-2 -3 8 37836.2 1504.79 5
2 3 -8 38517.3 1721.74 7
-2 -3 7 4652.93 501.747 5
2 3 -7 4759.27 579.916 7
2 3 -6 2177.07 362.304 7
-2 -3 6 2773 365.44 5
-2 -3 5 38827.3 1268.28 5
-2 -3 4 142945 2292.24 5
-2 -3 3 1732.79 243.974 6
-2 -3 2 74633.8 1540.28 6
2 3 -2 72398.7 1627.13 1
-2 -3 1 139942 2084.61 6
-2 -3 0 177293 2418.39 6
-2 -3 -1 40310.9 1220.34 6
-2 -3 -1 42071.1 1209.13 3
-2 -3 -2 -46.257 82.2099 6
-2 -3 -2 110.14 73.4161 3
-2 -3 -3 3426.07 386.341 6
-2 -3 -4 8162.73 646.883 6
-2 -3 -5 1240.69 261.132 6
-2 -3 -5 957.164 84.1264 7
-2 -3 -6 1746.66 331.54 6
-2 -3 -6 1378.84 137.971 7
-2 -3 -7 10609.2 860.3 6
-2 -3 -7 10085.8 447.748 7
-2 -3 -8 13248.8 1025.83 6
-2 -3 -8 12942 579.769 7
-2 -3 -9 11932.4 1006.25 6
-2 -3 -10 195.809 102.298 6
-2 -3 -11 1272.11 366.314 6
-2 -3 -12 1253.41 378.409 6
-2 -3 -13 5874.11 816.253 6
-2 -3 -14 2270.17 527.053 6
-2 -3 -15 5919.21 886.579 6
2 4 -15 371.738 266.327 7
2 4 -14 7077.66 971.252 7
2 4 -13 6167.97 880.519 7
2 4 -12 319.265 219.292 7
2 4 -11 4934.44 738.97 7
-2 -4 10 6696.99 652.15 5
2 4 -10 7225.46 842.462 7
-2 -4 9 119.439 46.6958 5
2 4 -9 36.7066 130.858 7
-2 -4 8 5064.01 521.176 5
2 4 -8 5490.26 669.888 7
-2 -4 7 3599.95 421.969 5
2 4 -7 3578.32 522.82 7
-2 -4 6 49195.2 1458.11 5
2 4 -6 48242.1 1758.7 7
-2 -4 5 42478.1 1269.38 5
2 4 -5 38484.2 1491.4 7
-2 -4 4 14065 722.983 6
2 4 -4 14065.2 841.611 7
-2 -4 3 58553.7 1417.28 6
2 4 -3 54972.6 1531.54 7
2 4 -2 10295.8 602.329 7
-2 -4 2 10078.6 579.98 6
-2 -4 1 3843.8 365.881 6
2 4 -1 3704.47 332.628 7
-2 -4 0 229613 2907.41 6
2 4 0 227350 2171.54 7
-2 -4 -1 95829.1 1962.2 6
2 4 1 88509.7 1056.27 7
-2 -4 -2 3422.07 400.381 6
-2 -4 -3 21283.7 1053.92 6
-2 -4 -4 3018.19 422.013 6
-2 -4 -5 63172.1 2017.03 6
-2 -4 -6 484.653 214.408 6
-2 -4 -7 3195.6 508.343 6
-2 -4 -8 8058.69 827.303 6
-2 -4 -9 2579.95 487.344 6
-2 -4 -10 2804.6 533.767 6
-2 -4 -11 2539.13 542.324 6
-2 -4 -12 763.166 310.526 6
-2 -4 -13 1933.95 489.36 6
-2 -4 -14 -181.72 149.932 6
2 5 -14 1064.81 416.167 7
2 5 -13 3805.1 691.866 7
2 5 -12 714.193 317.557 7
2 5 -11 15980.9 1331.95 7
2 5 -10 9607.97 989.002 7
2 5 -9 600.029 245.07 7
-2 -5 8 11.6255 43.0193 5
2 5 -8 124.319 160.146 7
2 5 -7 23454.5 1338.22 7
-2 -5 7 21790.8 969.882 5
2 5 -6 934.761 262.9 7
-2 -5 6 1233.34 216.223 5
2 5 -5 3353.23 457.121 7
-2 -5 5 2958.81 322.865 5
-2 -5 4 18982 839.859 6
2 5 -4 21306.8 1059.76 7
-2 -5 3 123988 2095.93 6
2 5 -3 128314 2406.2 7
-2 -5 2 26874.9 975.049 6
2 5 -2 27301.3 1034.26 7
-2 -5 1 19321.9 843.592 6
2 5 -1 18763 762.251 7
-2 -5 0 41309.9 1296.58 6
2 5 0 43151.6 983.546 7
-2 -5 -1 2592.52 348.509 6
-2 -5 -1 2897.64 394.889 3
2 5 1 2893.36 196.656 7
-2 -5 -2 44.6967 83.3888 3
-2 -5 -2 -33.3369 82.5104 6
-2 -5 -3 9064.77 713.579 6
-2 -5 -3 8306.96 707.614 3
-2 -5 -4 14248 950.372 3
-2 -5 -4 15012.8 981.878 6
-2 -5 -5 14573.8 1023.49 6
-2 -5 -6 36079.4 1680.36 6
-2 -5 -7 120.341 184.287 6
-2 -5 -8 3736.81 595.594 6
-2 -5 -9 5469.32 741.279 6
-2 -5 -10 1360.69 382.045 6
-2 -5 -11 677.506 301.688 6
-2 -5 -12 7572.72 978.5 6
-2 -5 -13 -4.78104 137.005 6
2 6 -14 185.282 187.245 7
2 6 -13 -57.5882 178.732 7
2 6 -12 77.8579 149.932 7
2 6 -11 15167.3 1310.71 7
2 6 -10 1272.92 357.799 7
2 6 -9 23227.5 1499.89 7
2 6 -8 1388.85 355.412 7
2 6 -7 20065.1 1267.87 7
2 6 -6 35341.8 1588.05 7
-2 -6 6 32387.8 1062.37 5
2 6 -5 32306.3 1438.23 7
-2 -6 5 30595.1 1006.02 5
-2 -6 4 28074.9 1030.07 6
2 6 -4 27881.8 1250.91 7
2 6 -3 4328.02 545.4 1
-2 -6 3 5412.53 451.392 6
2 6 -3 5527.22 529.951 7
-2 -6 2 38676.4 1217.56 6
2 6 -2 40243 1290.28 7
2 6 -2 40653.6 1557.01 1
-2 -6 1 4535.61 430.792 6
2 6 -1 3720.25 351.14 7
2 6 -1 3811.17 483.145 1
2 6 0 6132.46 601.625 1
2 6 0 5234.07 370.481 7
-2 -6 0 5131.33 479.453 6
-2 -6 -1 20148.1 999.176 6
-2 -6 -1 19014.9 1089.4 3
2 6 1 19085.9 550.969 7
-2 -6 -1 17805.2 365.737 4
-2 -6 -2 3323.1 464.36 3
-2 -6 -2 3117.37 414.54 6
-2 -6 -3 -48.6311 78.014 6
-2 -6 -3 -108.85 101.768 3
-2 -6 -4 8465.42 770.122 6
-2 -6 -4 9001.46 801.155 3
-2 -6 -5 293.019 126.256 6
-2 -6 -6 1443.58 356.602 6
-2 -6 -7 5133.45 685.314 6
-2 -6 -8 788.365 275.145 6
-2 -6 -9 843.636 309.428 6
-2 -6 -10 1577.2 435.954 6
-2 -6 -11 -88.4389 128.643 6
-2 -6 -12 145.366 146.865 6
2 7 -13 -203.238 198.948 7
2 7 -12 4410.27 753.717 7
2 7 -11 20935.6 1585.13 7
2 7 -10 3319.25 610.236 7
2 7 -9 -16.1775 78.6741 7
2 7 -8 4403.02 641.289 7
2 7 -7 935.181 294.703 7
2 7 -6 3208.86 493.898 7
-2 -7 5 13985.2 740.032 6
2 7 -5 13738.4 967.821 7
-2 -7 4 5497.33 464.719 6
2 7 -4 5853.32 586.518 7
-2 -7 3 3716.88 391.205 6
2 7 -3 3427.65 504.971 1
2 7 -3 4656.75 490.84 7
2 7 -2 4024.78 515.855 1
-2 -7 2 4004.04 404.555 6
2 7 -2 4099.72 431.018 7
-2 -7 1 307.978 120.052 6
2 7 -1 222.967 147.524 1
2 7 -1 309.83 99.5889 7
-2 -7 0 40.5886 50.38 6
2 7 0 -26.0542 58.2363 7
2 7 0 46.157 96.3592 1
-2 -7 -1 2077.03 397.611 3
-2 -7 -1 2104.55 341.692 6
-2 -7 -2 45.295 100.028 3
-2 -7 -2 245.747 149.14 6
-2 -7 -3 306.056 175.597 6
-2 -7 -3 425.467 204.304 3
-2 -7 -4 14915.6 1066.76 6
-2 -7 -4 12680.8 1024.92 3
-2 -7 -5 3968.39 581.179 6
-2 -7 -6 460.934 228.725 6
-2 -7 -7 4464.66 673.475 6
-2 -7 -8 4651.24 701.65 6
-2 -7 -9 1330.03 398.169 6
-2 -7 -10 -50.7335 200.152 6
-2 -7 -11 2600.95 589.657 6
2 8 -12 2004.43 512.072 7
2 8 -11 426.56 222.867 7
2 8 -10 4075.41 670.221 7
2 8 -9 -331.087 240.101 7
2 8 -8 1342.39 362.831 7
2 8 -7 4983.23 659.596 7
2 8 -6 36.7074 59.7617 7
2 8 -5 575.339 206.822 7
2 8 -4 192.849 174.991 1
2 8 -4 585.726 210.705 7
-2 -8 3 6084.3 513.908 6
2 8 -3 6711.6 610.205 7
2 8 -3 4717 621.54 1
2 8 -2 1389.37 323.966 1
-2 -8 2 1955.62 292.797 6
2 8 -2 1804.01 299.574 7
-2 -8 1 1513.19 279.861 6
2 8 -1 1811.68 375.771 1
2 8 0 408.528 188.381 1
-2 -8 0 745.589 208.147 6
-2 -8 -1 8712.7 726.393 6
-2 -8 -1 8292.51 832.874 3
-2 -8 -2 8397.83 851.74 3
-2 -8 -2 10596.9 846.989 6
-2 -8 -3 2461.44 433.387 6
-2 -8 -3 3767.24 582.566 3
-2 -8 -4 4219.29 602.217 6
-2 -8 -4 5460.9 715.504 3
-2 -8 -5 1817.41 415.324 6
-2 -8 -5 1846.34 423.153 3
-2 -8 -6 7210.16 837.135 6
-2 -8 -7 1542.23 397.63 6
-2 -8 -8 5769.22 814.805 6
-2 -8 -9 1704.34 464.573 6
-2 -8 -10 447.592 235.116 6
2 9 -12 579.659 548.224 7
2 9 -11 -7.37268 108.978 7
2 9 -10 485.664 236.526 7
2 9 -9 674.894 272.084 7
2 9 -8 561.719 264.742 7
2 9 -7 498.099 219.455 7
2 9 -6 5980.02 708.205 7
2 9 -5 5200.11 628.751 7
2 9 -5 4114.86 620.325 1
2 9 -4 7734.98 720.416 7
2 9 -4 7136.67 805.182 1
2 9 -3 6296.63 740.299 1
2 9 -2 79.3871 114.531 1
-2 -9 1 11.7288 57.2389 6
2 9 -1 -93.9182 149.802 1
-2 -9 0 564.104 210.887 3
-2 -9 0 424.002 159.516 6
2 9 0 436.421 182.105 1
-2 -9 -1 1681.37 408.961 3
-2 -9 -1 2254.3 384.355 6
-2 -9 -2 -35.6654 113.623 3
-2 -9 -2 176.74 139.745 6
-2 -9 -3 442.415 195.983 6
-2 -9 -3 648.775 261.723 3
-2 -9 -4 136.239 95.0536 6
-2 -9 -4 -5.69472 153.624 3
-2 -9 -5 1162.09 341.016 6
-2 -9 -5 1046.19 339.262 3
-2 -9 -6 581.011 266.018 6
-2 -9 -7 -308.298 283.806 6
-2 -9 -8 425.008 210.461 6
-2 -9 -9 2323.88 555.784 6
2 10 -11 551.463 288.003 7
2 10 -10 1033.25 358.1 7
2 10 -9 2126.25 480.257 7
2 10 -8 183.993 142.702 7
2 10 -7 148.997 132.96 7
2 10 -6 676.712 281.81 1
2 10 -6 369.841 176.761 7
2 10 -5 632.954 257.8 1
2 10 -4 203.866 190.631 1
2 10 -3 -36.2583 82.8381 1
2 10 -2 3472.01 574.33 1
2 10 -1 644.746 272.083 1
-2 -10 0 12104.2 1126.76 3
2 10 0 10450.6 983.337 1
-2 -10 -1 -37.3986 110.558 3
-2 -10 -1 -47.5837 81.0074 6
-2 -10 -2 6543.98 718.221 6
-2 -10 -2 5063.06 753.184 3
-2 -10 -3 1242.18 337.307 6
-2 -10 -3 1372.39 384.283 3
-2 -10 -4 1188.81 347.113 6
-2 -10 -4 1112.91 344.447 3
-2 -10 -5 5563.44 766.5 6
-2 -10 -5 6864.76 916.009 3
-2 -10 -6 1328.01 390.401 6
-2 -10 -7 1720.76 463.067 6
-2 -10 -8 380.354 196.952 6
2 11 -9 222.359 171.426 7
2 11 -7 291.244 228.502 1
2 11 -6 148.802 93.9042 1
2 11 -5 3283.58 603.036 1
2 11 -4 3250.51 589.48 1
2 11 -3 775.197 283.424 1
2 11 -2 164.692 150.563 1
-2 -11 1 1665.04 439.919 3
2 11 -1 2125.13 476.635 1
-2 -11 0 584.761 258.6 3
-2 -11 -1 12.2903 152.744 3
-2 -11 -2 1533.32 466.051 3
-2 -11 -3 69.82 92.0262 6
-2 -11 -3 248.713 210.889 3
-2 -11 -4 35.9981 94.8708 6
-2 -11 -4 882.934 368.409 3
-2 -11 -5 3028.96 583.376 6
-2 -11 -5 3583.36 702.107 3
-2 -11 -6 166.404 176.278 6
-2 -11 -7 1222.4 409.529 6
2 12 -3 1831.67 457.975 1
2 12 -2 2376.6 547.166 1
2 12 -1 2685.39 553.449 1
3 -12 -4 3144.88 584.084 4
3 -12 -3 527.828 239.456 4
3 -12 -2 12.8697 72.2297 4
3 -12 -1 255.251 191.998 4
3 -12 0 291.782 177.403 4
3 -12 1 1754.53 440.082 4
3 -12 2 991.447 366.01 4
-3 12 -3 5491.29 799.305 7
3 -12 3 5233.13 779.855 4
-3 11 8 8035.88 1179.02 5
-3 11 7 5707.61 974.672 5
-3 11 6 712.668 357.513 5
-3 11 5 244.289 103.358 5
3 -11 -4 6529.42 816.008 4
3 -11 -3 157.09 187.354 4
3 -11 -2 223.007 190.815 4
3 -11 -1 4680.88 680.595 4
3 -11 0 2104.37 477.918 4
3 -11 1 2107.48 466.134 4
3 -11 2 142.58 145.561 4
-3 11 -3 157.309 179.443 7
-3 11 -4 366.357 201.407 7
-3 11 -5 319.455 208.194 7
-3 11 -6 190.479 150.533 7
-3 10 9 1998.55 618.336 5
-3 10 8 5765.5 975.804 5
-3 10 7 830.883 367.933 5
-3 10 6 554.271 237.465 5
-3 10 5 4612.65 793.64 5
-3 10 4 1801.39 488.587 5
3 -10 -4 1942.11 428.843 4
-3 10 3 2511.51 554.348 5
3 -10 -3 2102.05 443.428 4
-3 10 2 4328.44 704.633 5
3 -10 -2 4444.07 632.74 4
3 -10 -1 123.63 112.825 4
3 -10 0 1113.33 305.008 4
3 -10 1 2359.99 474.121 4
3 -10 2 3122.52 536.179 4
-3 10 -2 3409.1 565.701 7
-3 10 -3 3835.39 601.441 7
-3 10 -4 42.0209 106.455 7
-3 10 -5 978.851 346.944 7
-3 10 -6 10826.2 1089.42 7
-3 10 -7 2734.41 559.708 7
-3 10 -8 6075.77 853.86 7
-3 9 10 629.433 363.359 5
-3 9 9 189.713 171.137 5
-3 9 8 1780.41 531.273 5
-3 9 7 351.611 237.958 5
-3 9 6 666.49 342.397 5
-3 9 5 482.92 271.82 5
-3 9 4 21.1761 132.811 5
3 -9 -4 112.773 135.253 4
3 -9 -3 10706.8 823.254 3
3 -9 -3 10731.2 948.077 4
-3 9 3 10252.8 1109.11 5
-3 9 2 231.842 171.602 5
3 -9 -2 -73.2331 87.5507 3
3 -9 -2 -34.209 151.558 4
-3 9 1 2147.61 455.977 5
3 -9 -1 2794.79 409.125 3
3 -9 -1 2234.6 437.346 4
-3 9 0 14660.4 1190.8 5
3 -9 0 13415.6 1068.01 4
3 -9 1 11500.6 1004.29 4
-3 9 -2 722.494 273.512 7
-3 9 -3 735.513 268.875 7
-3 9 -4 9236.07 932.273 7
-3 9 -5 14074.3 1181.3 7
-3 9 -6 12857.8 1144.92 7
-3 9 -7 4557.25 709.579 7
-3 9 -8 1133.81 387.129 7
-3 9 -9 3136.11 612.194 7
-3 8 11 3195.54 753.843 5
-3 8 10 4326.68 844.495 5
-3 8 9 1322.35 492.666 5
-3 8 8 14183.2 1438.67 5
-3 8 7 1593.4 488.697 5
-3 8 6 1945.56 511.312 5
-3 8 5 -79.8754 117.615 5
-3 8 4 1702.76 442.479 5
3 -8 -4 1639.17 301.05 3
3 -8 -4 1416.4 327.681 4
-3 8 3 1420.05 394.238 5
3 -8 -3 1476.07 277.469 3
3 -8 -3 1702.95 375.2 4
3 -8 -2 23843.7 1105.11 3
3 -8 -2 23431.5 1351.32 4
-3 8 2 21662.2 1501.01 5
3 -8 -1 40290.1 1776.08 4
-3 8 1 40211.9 1972.53 5
3 -8 0 -107.853 142.839 4
-3 8 0 67.9703 113.721 5
3 -8 1 1742.66 348.162 4
-3 8 -1 1703.08 369.918 5
-3 8 -2 84.9068 61.3872 7
-3 8 -2 200.788 139.897 5
-3 8 -3 13279.1 1056.2 7
-3 8 -4 1285.81 348.034 7
-3 8 -5 -126.902 124.616 7
-3 8 -6 479.378 248.127 7
-3 8 -7 12381.4 1102.66 7
-3 8 -8 5876.11 787.807 7
-3 8 -9 469.56 232.856 7
-3 8 -10 1672.55 429.433 7
-3 8 -11 3702.52 694.906 7
-3 7 12 1973.97 597.595 5
-3 7 11 824.242 397.087 5
-3 7 10 749.929 399.514 5
-3 7 9 275.47 203.045 5
-3 7 8 2899.45 653.175 5
-3 7 7 -159.592 192.718 5
-3 7 6 865.293 323.579 5
-3 7 5 1046.94 375.333 5
-3 7 4 1342.86 389.053 5
3 -7 -4 1851.01 367.436 4
-3 7 3 3094.45 573.2 5
3 -7 -3 2810.74 349.185 3
3 -7 -3 2688.57 436.256 4
3 -7 -2 12567.3 724.843 3
3 -7 -2 11998.3 923.307 4
-3 7 2 13881.6 1148.55 5
3 -7 -1 17437.8 1110.43 4
-3 7 1 16869.5 1235.98 5
3 -7 0 55.914 127.67 4
-3 7 0 257.379 121.923 5
3 -7 1 18994.6 1175.09 4
-3 7 -1 20070.6 1191 7
-3 7 -1 19478.2 1239.08 5
-3 7 -2 9391.63 830.494 7
-3 7 -2 9380.6 824.412 5
-3 7 -3 87072 2574.25 7
-3 7 -3 89232.6 2456.88 5
-3 7 -4 254.952 143.167 5
-3 7 -4 52.7263 123.286 7
-3 7 -5 9864.16 900.389 7
-3 7 -6 5443.57 694.84 7
-3 7 -7 5724.32 739.347 7
-3 7 -8 22228.6 1482.18 7
-3 7 -9 81.5298 90.9822 7
-3 7 -10 542.949 293.417 7
-3 7 -11 838.324 303.494 7
-3 7 -12 1316.04 419.659 7
-3 6 13 5065.3 946.101 5
-3 6 12 11751.4 1400.1 5
-3 6 11 169.495 192.294 5
-3 6 10 5334.71 898.867 5
-3 6 9 4541.46 794.841 5
-3 6 8 251.748 220.333 5
-3 6 7 5701.1 826.894 5
-3 6 6 1021.54 361.957 5
-3 6 5 13894 1243.29 5
3 -6 -4 4350.66 549.966 4
-3 6 4 5424.02 755.798 5
3 -6 -3 31267 1052.27 3
3 -6 -3 31279.7 1437.22 4
-3 6 3 30165.1 1701.13 5
3 -6 -2 3888.55 359.388 3
-3 6 2 3169.36 528.81 5
3 -6 -2 3610.4 488.633 4
-3 6 1 11385.6 960.788 5
3 -6 -1 11679.5 866.352 4
3 -6 0 2219.37 372.679 4
-3 6 0 2161.21 402.168 5
-3 6 0 1966.75 199.989 1
-3 6 -1 40.2851 57.2491 5
-3 6 -1 -70.2585 129.89 7
-3 6 -2 491.915 187.921 7
-3 6 -2 590.809 179.824 5
-3 6 -3 117565 2711.22 5
-3 6 -3 116431 2855.72 7
-3 6 -4 1294.3 287.983 7
-3 6 -4 1386.92 284.827 5
-3 6 -5 6418.38 686.818 7
-3 6 -5 6976.11 620.453 5
-3 6 -6 455.708 149.533 5
-3 6 -6 5.32078 112.593 7
-3 6 -7 1327.62 349.965 7
-3 6 -8 3755.09 586.695 7
-3 6 -9 5175.33 712.192 7
-3 6 -10 405.132 227.339 7
-3 6 -11 24.2801 74.5245 7
-3 6 -12 2112.94 482.639 7
-3 6 -13 235.3 169.882 7
-3 5 13 4702.44 904.436 5
-3 5 12 3772.39 771.701 5
-3 5 11 1362.93 453.238 5
-3 5 10 8527.89 1102.02 5
-3 5 9 8608.08 1093.19 5
-3 5 8 112302 3782.46 5
-3 5 7 1617.68 415.252 5
-3 5 6 1889 463.002 5
-3 5 5 8049.98 906.735 5
3 -5 -4 17607.3 1035.88 4
-3 5 4 16056.3 1236.57 5
-3 5 3 3048.25 518.202 5
3 -5 -3 3407.12 441.066 4
3 -5 -2 23919.8 763.68 3
3 -5 -2 22739.3 1145.8 4
-3 5 2 22408.8 1356.1 5
-3 5 1 -19.7294 118.255 5
3 -5 -1 98.4985 71.6868 4
3 -5 0 1085.92 247.208 4
-3 5 0 1260.36 288.67 5
-3 5 -1 2095.12 359.863 7
-3 5 -1 1890.14 352.143 5
-3 5 -2 1717.33 318.763 5
-3 5 -2 1729.13 319.619 7
-3 5 -3 6482.12 646.352 7
-3 5 -3 7648.37 659.599 5
-3 5 -4 13678.3 956.534 7
-3 5 -4 15419.3 910.474 5
-3 5 -5 40904.5 1333.87 6
-3 5 -5 43677.9 1732.94 7
-3 5 -6 23569.5 1395.08 2
-3 5 -6 23660.4 1004.15 6
-3 5 -6 21897.6 1264.16 7
-3 5 -7 107.287 65.608 2
-3 5 -7 536.837 230.632 7
-3 5 -8 42165.8 1870.56 7
-3 5 -8 42808.2 2112.84 2
-3 5 -9 5764.65 721.618 7
-3 5 -9 5500.72 815.755 2
-3 5 -10 135.176 122.976 2
-3 5 -10 -46.8889 70.7478 7
-3 5 -11 1575.44 460.992 2
-3 5 -11 734.088 265.048 7
-3 5 -12 6648.43 994.065 2
-3 5 -12 4430.21 697.313 7
-3 5 -13 914.855 367.455 2
-3 5 -13 1064.73 347.461 7
-3 5 -14 329.585 220.455 7
-3 4 14 358.67 305.319 5
-3 4 13 9925.59 1267.43 5
-3 4 12 1384.81 470.855 5
-3 4 11 4669.97 826.216 5
-3 4 10 15160 1429.23 5
-3 4 9 1908.2 497.417 5
-3 4 8 47047.2 2390.7 5
-3 4 7 15575 1323.57 5
3 -4 -7 16747.8 730.706 2
-3 4 6 20363 1461.39 5
3 -4 -6 18890.9 635.187 2
-3 4 5 5719.56 745.994 5
-3 4 4 11.4125 98.744 5
3 -4 -3 2487.6 368.748 4
-3 4 3 2225.56 419.781 5
3 -4 -2 31961.3 715.733 3
3 -4 -2 34580.3 1348.66 4
-3 4 2 34806.6 1616.76 5
3 -4 -1 4958.57 509.744 4
-3 4 1 4748.07 569.965 5
3 -4 0 8225.4 656.964 4
-3 4 0 8272.41 719.078 5
3 -4 1 5919.81 557.989 4
-3 4 -1 6391.2 609.159 5
-3 4 -2 26255.1 1185.15 7
-3 4 -2 26099.5 1201.29 5
-3 4 -3 4899.97 467.988 6
-3 4 -3 4137.93 486.938 7
-3 4 -3 4466.17 459.782 2
-3 4 -4 1419.27 247.533 6
-3 4 -4 1939.62 345.478 7
-3 4 -5 10064.9 792.834 7
-3 4 -5 10774 675.167 6
-3 4 -6 502.169 133.49 6
-3 4 -6 827.463 257.884 2
-3 4 -6 784.659 193.345 7
-3 4 -7 9302.07 636.781 6
-3 4 -7 8990.16 803.061 7
-3 4 -7 7599.58 828.13 2
-3 4 -8 11790 958.075 7
-3 4 -8 9513.54 983.387 2
-3 4 -8 12474.3 744.023 6
-3 4 -9 10659.5 934.798 7
-3 4 -9 9324.64 1022.66 2
-3 4 -10 5643.11 701.063 7
-3 4 -10 5969.05 874.779 2
-3 4 -11 3317.23 671.439 2
-3 4 -11 4654.67 657.829 7
-3 4 -12 725.462 319.685 2
-3 4 -12 848.408 296.056 7
-3 4 -13 293.636 222.397 2
-3 4 -13 37.7878 120.168 7
-3 4 -14 946.835 345.153 7
-3 4 -14 1237.16 456.357 2
-3 4 -15 100.318 111.447 7
-3 3 15 106.517 151.186 5
-3 3 14 199.667 209.984 5
-3 3 13 12941.9 1407.71 5
-3 3 12 110.256 169.744 5
-3 3 11 3211.69 663.136 5
-3 3 10 1661.9 476.965 5
-3 3 9 9701.05 1092.55 5
3 -3 -9 9619.67 722.617 2
-3 3 8 417.687 223.111 5
3 -3 -8 582.05 171.975 2
-3 3 7 72605 2765.35 5
-3 3 6 85819.5 2896.6 5
-3 3 5 1354.08 363.063 5
-3 3 4 19655.7 1280.67 5
3 -3 -3 169226 2910.41 4
-3 3 3 164515 3504.56 5
3 -3 -2 53772.1 1615.38 4
-3 3 2 56950.4 1980.43 5
3 -3 -1 51587.4 586.157 3
3 -3 -1 53742.5 1585.48 4
-3 3 1 54873.8 1855.74 5
3 -3 0 10713.6 707.342 4
-3 3 0 12271.5 843.651 5
3 -3 1 15970.5 858.722 4
-3 3 -1 15667.6 639.627 2
-3 3 -2 620.213 151.586 2
-3 3 -2 577.263 166.972 6
-3 3 -2 760.719 184.33 7
-3 3 -3 2852.64 362.53 6
-3 3 -3 3064.61 410.297 7
-3 3 -3 3058.08 400.503 2
-3 3 -4 4739.82 441.362 6
-3 3 -4 4674.34 502.172 7
-3 3 -5 567.129 143.854 6
-3 3 -5 728.756 204.504 7
-3 3 -6 1596.05 353.869 2
-3 3 -6 2225.01 304.93 6
-3 3 -6 2179.99 360.027 7
-3 3 -7 373.235 208.189 2
-3 3 -7 311.614 117.191 6
-3 3 -7 238.041 122.443 7
-3 3 -8 2358.76 481.955 2
-3 3 -8 1804.72 293.141 6
-3 3 -8 1879.61 357.93 7
-3 3 -9 4573.77 477.833 6
-3 3 -9 3946.16 684.298 2
-3 3 -9 4188.14 555.265 7
-3 3 -10 554.573 287.252 2
-3 3 -10 332.82 127.209 6
-3 3 -10 322.975 182.687 7
-3 3 -11 714.842 309.046 2
-3 3 -11 1158.42 326.632 7
-3 3 -12 598.434 301.861 2
-3 3 -12 332.812 183.088 7
-3 3 -13 826.204 350.169 2
-3 3 -13 1071.35 320.162 7
-3 3 -14 5150.13 957.094 2
-3 3 -14 5051.69 734.3 7
-3 3 -15 72.5706 88.0967 7
-3 2 16 -88.1376 156.678 5
-3 2 15 1912.37 559.885 5
-3 2 14 427.551 256.172 5
-3 2 13 299.94 225.448 5
-3 2 12 3312.27 684.233 5
-3 2 11 921.911 347.48 5
-3 2 10 20503.6 1589.06 5
-3 2 9 48049.6 2354.43 5
-3 2 8 32960.2 1856.78 5
-3 2 7 525.894 212.784 5
-3 2 6 1513.22 369.728 5
-3 2 5 307.666 209.434 5
-3 2 5 98.7393 35.0046 3
-3 2 4 93799.3 958.248 3
3 -2 -4 94609.5 862.386 1
-3 2 3 14475.4 989.379 5
3 -2 -2 13162.3 758.216 4
-3 2 2 13773.9 934.894 5
3 -2 -1 18348.2 871.82 4
-3 2 1 18700.7 1045.4 5
-3 2 0 2229.42 327.265 6
3 -2 0 2558.37 318.188 4
3 -2 1 174.6 98.6544 4
-3 2 -1 49.2091 48.8242 6
-3 2 -2 288.836 140.359 6
-3 2 -2 328.577 132.473 7
-3 2 -3 24993 1027.23 6
-3 2 -3 24516.7 1044.1 7
-3 2 -4 1340.48 237.766 6
-3 2 -4 1171.64 243.69 7
-3 2 -5 28322.6 1106.45 6
-3 2 -5 28594.8 1197.49 7
-3 2 -6 2098.53 310.665 6
-3 2 -6 2283.25 354.562 7
-3 2 -7 656.649 174.619 6
-3 2 -7 840.099 223.617 7
-3 2 -8 558.235 170.553 6
-3 2 -8 789.192 225.071 7
-3 2 -9 1119.65 254.463 6
-3 2 -9 888.963 254.276 7
-3 2 -10 6421.43 621.829 6
-3 2 -10 6846.29 701.715 7
-3 2 -10 6808.74 920.755 2
-3 2 -11 6.84141 91.3575 2
-3 2 -11 55.2708 85.102 6
-3 2 -11 81.5921 109.794 7
-3 2 -12 291.873 249.132 2
-3 2 -12 801.247 245.446 6
-3 2 -12 446.558 214.704 7
-3 2 -13 3857.27 786.409 2
-3 2 -13 3421.18 562.653 7
-3 2 -14 310.433 248.894 2
-3 2 -14 421.03 229.03 7
-3 1 16 3653.28 767.824 5
3 -1 -15 3666.29 729.819 7
-3 1 15 2986.07 671.799 5
-3 1 14 163.158 178.173 5
-3 1 13 5539.45 881.3 5
-3 1 12 4008.05 731.296 5
-3 1 11 194.164 159.391 5
-3 1 10 15545 1351.44 5
-3 1 9 56473.2 2452.07 5
-3 1 8 6796.56 819.968 5
-3 1 7 2483.31 476.724 5
-3 1 6 612.797 242.346 5
-3 1 5 3007.81 487.651 5
-3 1 4 3261.76 481.658 5
-3 1 4 3030.58 260.432 2
-3 1 3 194.166 114.377 5
3 -1 -3 408.619 72.0466 1
-3 1 2 63754.8 1935.93 5
-3 1 1 33114.9 1305.9 6
3 -1 -1 32616.6 1097.83 4
-3 1 0 7892.32 602.111 6
-3 1 0 7460.55 356.818 1
3 -1 0 8529.65 552.153 4
-3 1 -1 15601.7 835.814 6
3 -1 1 16011.2 508.729 3
3 -1 1 15407.6 734.637 4
-3 1 -2 61270.7 1623 6
-3 1 -3 74875.6 1782.59 6
-3 1 -3 72351.6 1670.4 7
-3 1 -4 4116.78 419.391 6
-3 1 -4 3274.16 367.639 7
-3 1 -5 4431.94 450.34 6
-3 1 -5 4831.46 464.401 7
-3 1 -6 9244.81 662.081 6
-3 1 -6 8974.57 648.83 7
-3 1 -7 18898.4 983.641 6
-3 1 -7 17518.2 945.63 7
-3 1 -8 719.804 218.075 6
-3 1 -8 902.647 218.761 7
-3 1 -9 1903.71 342.207 6
-3 1 -9 1551.19 300.374 7
-3 1 -10 -24.4051 91.4006 6
-3 1 -10 98.5146 99.5656 7
-3 1 -11 3069.84 467.458 6
-3 1 -11 3857.44 535.148 7
-3 1 -12 1809.07 375.322 6
-3 1 -12 1783.97 369.695 7
-3 1 -13 124.916 94.9172 6
-3 1 -13 67.5266 103.794 7
-3 1 -14 84.6616 129.734 2
-3 0 16 290.627 204.675 5
3 0 -15 275.395 253.5 7
-3 0 15 -50.8367 215.635 5
3 0 -14 1170.26 373.809 7
-3 0 14 1364.29 434.165 5
-3 0 13 2751.23 592.86 5
-3 0 12 5130.22 798.836 5
-3 0 11 2400.99 530.42 5
-3 0 10 1714.33 441.827 5
-3 0 9 4730.63 684.368 5
-3 0 8 -94.2954 102.348 5
-3 0 7 5515.65 692.313 5
-3 0 6 8788.22 833.284 5
-3 0 5 997.632 274.599 5
-3 0 4 13161.2 921.427 5
-3 0 3 39643.5 1532.8 5
3 0 -3 38343.8 917.656 1
-3 0 2 2515.86 361.31 6
-3 0 2 2453.83 159.022 3
3 0 -2 2317.9 219.345 1
-3 0 1 71765.8 1862.62 6
-3 0 0 1349.8 284.746 6
3 0 0 1423.93 230.275 4
-3 0 -1 38252.5 1306.24 6
3 0 1 38217.6 852.825 3
3 0 1 37214.9 1063.18 4
-3 0 -2 13516.1 765.921 6
3 0 2 13402.1 641.645 4
-3 0 -3 10307.6 686.63 6
-3 0 -4 43188 1218.95 7
-3 0 -4 43361.6 1413.69 6
-3 0 -5 60666.3 1723.62 6
-3 0 -5 61221.4 1505.39 7
-3 0 -6 2707.55 382.34 6
-3 0 -6 2277.65 304.817 7
-3 0 -7 2431.7 379.487 6
-3 0 -7 2574.18 338.604 7
-3 0 -8 6014.84 613.173 6
-3 0 -8 5045.45 499.565 7
-3 0 -9 9057.35 776.362 6
-3 0 -9 9663.05 724.289 7
-3 0 -10 1189.98 311.927 6
-3 0 -10 1121.95 251.704 7
-3 0 -11 -39.8293 69.5001 6
-3 0 -11 -1.88137 72.7393 7
-3 0 -12 7851.7 814.69 6
-3 0 -13 3858.16 596.641 6
-3 0 -14 419.02 220.835 6
-3 -1 15 1546.84 469.928 5
3 1 -15 1090.93 397.948 7
3 1 -14 70.7002 112.686 7
-3 -1 14 430.317 249.901 5
3 1 -13 816.75 354.641 7
-3 -1 13 592.679 279.371 5
-3 -1 12 9216.04 1043.29 5
-3 -1 11 46.2815 130.905 5
-3 -1 10 35.288 90.6555 5
-3 -1 9 328.179 194.242 5
-3 -1 8 165.53 136.072 5
-3 -1 7 2542.06 444.339 5
-3 -1 6 4714.24 580.68 5
-3 -1 5 3380.71 469.577 5
-3 -1 4 14003.3 924.577 5
-3 -1 3 34525.3 1365.92 6
3 1 -3 35177.2 1011.5 1
-3 -1 2 3081.31 400.101 6
3 1 -2 3384.22 304.973 1
-3 -1 1 45266.4 1458.9 6
-3 -1 1 47206 961.502 3
-3 -1 0 19783.6 948.652 6
-3 -1 -1 15014.9 823.684 6
3 1 1 13866.8 600.41 4
-3 -1 -2 1717.61 291.255 6
3 1 2 1817.34 210.691 4
3 1 3 36125.6 958.838 4
-3 -1 -3 38707 1342.16 6
-3 -1 -4 43534.8 1475.75 6
-3 -1 -5 36149.9 1394.24 6
-3 -1 -5 38343.1 1074.31 7
-3 -1 -6 178.638 107.755 6
-3 -1 -6 551.571 130.209 7
-3 -1 -7 15610.3 996.501 6
-3 -1 -7 18174.4 821.214 7
-3 -1 -8 11050.8 876.192 6
-3 -1 -8 11366.6 690.422 7
-3 -1 -9 1009.29 245.362 6
-3 -1 -9 691.344 177.715 7
-3 -1 -10 3245.98 510.407 6
-3 -1 -11 3973.16 585.952 6
-3 -1 -12 11329.8 1023.92 6
-3 -1 -13 237.866 187.855 6
-3 -1 -14 55.5324 119.304 6
-3 -1 -15 297.958 214.889 6
3 2 -15 4590.82 822.505 7
3 2 -14 2371.63 588.577 7
3 2 -13 51.9827 178.598 7
-3 -2 13 83.8877 120.844 5
3 2 -12 283.775 181.535 7
-3 -2 12 477.283 231.467 5
-3 -2 11 208.949 194.305 5
-3 -2 10 261.957 168.792 5
-3 -2 9 638.917 249.011 5
-3 -2 8 6727.66 740.998 5
-3 -2 7 8080.73 773.815 5
-3 -2 6 21406.9 1208.77 5
-3 -2 5 396.492 135.603 5
-3 -2 4 10587.2 772.453 5
-3 -2 3 -71.915 97.2767 6
3 2 -3 17.8446 43.1405 1
-3 -2 2 3990.49 445.339 6
3 2 -2 4001.81 378.881 1
-3 -2 1 3015.35 377.134 6
-3 -2 1 3410.41 307.737 3
3 2 -1 3440.74 348.509 1
-3 -2 0 11048.2 710.838 6
-3 -2 0 10847.8 577.745 3
-3 -2 -1 587.252 180.38 6
-3 -2 -1 612.961 137.434 3
-3 -2 -2 87362.1 2053.07 6
3 2 2 86383 1270.73 4
-3 -2 -3 19377.3 993.452 6
3 2 3 18693.3 586.991 4
3 2 3 18269.6 640.169 7
3 2 4 108.452 60.5272 4
-3 -2 -4 27.6414 68.6448 6
-3 -2 -5 1696.88 328.679 6
-3 -2 -6 28024.1 1328.6 6
-3 -2 -6 27013.8 820.667 7
-3 -2 -7 837.928 245.871 6
-3 -2 -7 1032.16 179.079 7
-3 -2 -8 104.465 120.084 6
-3 -2 -9 4780.87 632.883 6
-3 -2 -10 27896.8 1566.24 6
-3 -2 -11 2256.2 481.034 6
-3 -2 -12 361.386 217.967 6
-3 -2 -13 753.925 287.482 6
-3 -2 -14 15.7718 108.576 6
-3 -2 -15 422.968 226.721 6
3 3 -14 2126.16 566.387 7
3 3 -13 495.006 248.913 7
-3 -3 12 1264.19 342.095 5
3 3 -12 1631.35 459.677 7
3 3 -11 2983.39 585.771 7
-3 -3 11 2642.52 508.614 5
3 3 -10 9.71968 108.895 7
-3 -3 10 179.492 152.418 5
-3 -3 9 1476.95 363.2 5
-3 -3 8 4298.83 574.161 5
-3 -3 7 22348.8 1263.2 5
-3 -3 6 19535.1 1128.57 5
-3 -3 5 21841.4 1132.01 5
-3 -3 4 18.0334 59.979 6
-3 -3 3 3208.61 417.994 6
3 3 -3 3750.67 404.023 1
-3 -3 2 27640.6 1163.45 6
3 3 -2 29474.4 1126.34 1
-3 -3 1 35984.2 1321 6
3 3 -1 34582.3 1218.28 1
-3 -3 0 2316.87 316.043 3
-3 -3 0 2427.57 358.575 6
-3 -3 -1 11822.2 758.377 6
-3 -3 -2 7075.83 608.733 6
3 3 2 6863.49 339.989 7
-3 -3 -3 6343.73 605.057 6
3 3 3 4789.49 266 7
-3 -3 -4 3013.56 419.154 6
3 3 4 2769.51 177.314 4
-3 -3 -5 10047.1 809.537 6
3 3 5 8720.05 356.78 4
-3 -3 -6 383.274 152.839 6
-3 -3 -7 6379.67 702.058 6
-3 -3 -8 13545.4 1059.45 6
-3 -3 -9 15225 1152.71 6
-3 -3 -10 36219.6 1854.45 6
-3 -3 -11 -17.6375 79.1898 6
-3 -3 -12 1535.3 413.431 6
-3 -3 -13 3173.08 612.743 6
-3 -3 -14 41.1891 130.232 6
3 4 -14 -98.1776 172.892 7
3 4 -13 910.12 335.537 7
3 4 -12 1045.74 353.435 7
3 4 -11 7770.88 940.655 7
-3 -4 10 201.411 164.956 5
3 4 -10 -162.597 212.69 7
-3 -4 9 12606.7 1002.41 5
3 4 -9 11951.7 1075.2 7
3 4 -8 2276.63 465.92 7
-3 -4 8 1369.27 315.078 5
3 4 -7 296.057 211.858 7
-3 -4 7 159.942 99.5373 5
3 4 -6 417.471 197.835 7
-3 -4 6 381.184 150.619 5
-3 -4 5 19948.3 1054.22 5
-3 -4 4 2999.62 402.17 6
3 4 -4 3246.37 416.039 1
-3 -4 3 10450.9 736.833 6
3 4 -3 9704.44 714.315 1
-3 -4 2 16733.6 911.314 6
3 4 -2 14493.4 855.009 1
-3 -4 1 55388 1647.71 6
3 4 -1 55699.4 1673.07 1
-3 -4 0 129.718 116.762 6
-3 -4 0 27.1237 26.7363 4
-3 -4 -1 1689.69 305.019 6
-3 -4 -1 1094.76 238.83 3
-3 -4 -2 5100.43 536.13 6
-3 -4 -2 5355.74 530.093 3
3 4 2 5083.73 258.071 7
-3 -4 -3 17454.8 1027.01 6
-3 -4 -4 3926.36 508.042 6
-3 -4 -5 8301.13 774.96 6
-3 -4 -6 11645 948.734 6
-3 -4 -7 22237.5 1355.86 6
-3 -4 -8 955.683 301.278 6
-3 -4 -9 2101.32 478.469 6
-3 -4 -10 2676.61 530.916 6
-3 -4 -11 5806.84 799.4 6
-3 -4 -12 1210.15 392.257 6
-3 -4 -13 406.01 215.126 6
3 5 -14 3038.02 681.374 7
3 5 -13 18122.4 1592.45 7
3 5 -12 2740.66 600.689 7
3 5 -11 39.0726 100.751 7
3 5 -10 742.986 283.776 7
3 5 -9 3226.32 568.902 7
3 5 -8 7004.05 810.781 7
-3 -5 8 8714.51 774.988 5
-3 -5 7 485.451 181.308 5
3 5 -7 313.715 164.706 7
3 5 -6 14276.5 1039.8 7
-3 -5 6 13505.2 896.714 5
-3 -5 5 -55.4466 102.754 6
3 5 -5 -45.7201 114.652 7
-3 -5 4 1526.32 284.315 6
3 5 -4 958.904 207.595 1
3 5 -4 1786.08 333.775 7
3 5 -3 4551.5 534.248 1
-3 -5 3 4796.9 506.15 6
3 5 -3 5533.93 541.987 7
-3 -5 2 27321.1 1190.63 6
3 5 -2 28326.3 1280.89 1
3 5 -2 25266.1 1071.62 7
-3 -5 1 17740.7 961.992 6
3 5 -1 19871.5 1090.79 1
3 5 -1 19292.4 845.168 7
-3 -5 0 49739.8 1630.12 6
-3 -5 0 49920.6 1694.36 3
3 5 0 48449.2 1170.98 7
-3 -5 -1 9849.16 740.547 6
3 5 1 8952.45 408.29 7
-3 -5 -1 9863.25 763.563 3
-3 -5 -2 1491.41 298.919 6
-3 -5 -2 1032.78 256.802 3
-3 -5 -3 24651.6 1258.51 6
-3 -5 -3 22588.8 1225.58 3
-3 -5 -4 19446 1175.14 6
-3 -5 -5 9508.99 857.488 6
-3 -5 -6 8937.69 856.908 6
-3 -5 -7 514.023 213.876 6
-3 -5 -8 1421.17 396.758 6
-3 -5 -9 447.961 213.046 6
-3 -5 -10 213.331 176.673 6
-3 -5 -11 634.064 236.447 6
-3 -5 -12 3335.15 640.822 6
3 6 -13 1483.32 479.859 7
3 6 -12 1160.31 369.418 7
3 6 -11 1908.31 498.953 7
3 6 -10 -13.3668 141.032 7
3 6 -9 404.378 244.763 7
3 6 -8 1455.89 378.711 7
3 6 -7 1676.58 389.605 7
3 6 -6 25917.8 1420.46 7
-3 -6 6 23517.4 1149.19 5
-3 -6 5 286.21 132.671 6
-3 -6 5 364.349 144.243 5
3 6 -5 355.163 202.664 1
3 6 -5 336.015 177.878 7
-3 -6 4 1289.93 261.49 6
3 6 -4 988.808 258.425 1
3 6 -4 1505.8 310.296 7
3 6 -3 375.045 172.308 1
-3 -6 3 283.939 115.434 6
3 6 -3 435.116 162.305 7
-3 -6 2 2885.56 386.548 6
3 6 -2 2511.08 431.867 1
3 6 -2 3065.81 374.479 7
-3 -6 1 29464.5 1264.78 6
3 6 -1 30584.5 1417.32 1
3 6 -1 30509.5 1067.03 7
-3 -6 0 10848.8 793.518 6
-3 -6 0 11532.5 893.223 3
-3 -6 -1 22230.8 1159.85 6
-3 -6 -1 24482.4 1307.99 3
-3 -6 -2 620.061 226.536 6
-3 -6 -2 275.648 135.383 3
-3 -6 -3 453.514 171.012 6
-3 -6 -3 455.483 194.819 3
-3 -6 -4 6479.81 712.917 6
-3 -6 -5 921.36 281.533 6
-3 -6 -6 4968.52 669.142 6
-3 -6 -7 5222.52 711.182 6
-3 -6 -8 5554.15 763.562 6
-3 -6 -9 -11.3509 87.6202 6
-3 -6 -10 152.414 170.132 6
-3 -6 -11 367.719 199.659 6
3 7 -13 2724.94 625.917 7
3 7 -12 -39.8115 94.7148 7
3 7 -11 10749.2 1155.12 7
3 7 -10 5013.12 770.69 7
3 7 -9 2728.52 547.773 7
3 7 -8 12548.3 1114.14 7
3 7 -7 1469.09 354.212 7
3 7 -6 4918.7 625.227 7
-3 -7 5 2833.15 412.14 6
3 7 -5 1980.71 419.651 1
3 7 -5 2337.91 409.476 7
-3 -7 4 1385.48 287.067 6
3 7 -4 1427.14 342.14 1
3 7 -4 1206.77 282.368 7
3 7 -3 523.27 218.124 1
-3 -7 3 621.832 166.973 6
3 7 -3 975.146 226.394 7
-3 -7 2 380.977 147.911 6
3 7 -2 448.258 144.011 1
3 7 -2 301.838 127.942 7
3 7 -1 511.743 211.471 1
-3 -7 1 55.3432 90.5746 6
-3 -7 0 5401.42 569.512 6
-3 -7 0 5793.32 691.896 3
-3 -7 -1 1823.19 341.489 6
-3 -7 -1 2386.06 427.372 3
-3 -7 -2 6944.47 697.804 6
-3 -7 -2 8366.64 839.627 3
-3 -7 -3 2408.51 421.445 6
-3 -7 -3 2646.96 482.292 3
-3 -7 -4 40.0678 83.9758 6
-3 -7 -4 188.032 180.817 3
-3 -7 -5 603.923 251.798 6
-3 -7 -6 -69.8296 114.938 6
-3 -7 -7 1466.15 396.99 6
-3 -7 -8 133.825 134.374 6
-3 -7 -9 1304.26 393.461 6
-3 -7 -10 295.648 216.95 6
3 8 -12 3516.09 698.754 7
3 8 -11 3035.74 635.691 7
3 8 -10 11373.5 1173.2 7
3 8 -9 90.9361 159.803 7
3 8 -8 1151.04 346.676 7
3 8 -7 2897.73 514.227 7
3 8 -6 133.784 131.208 1
3 8 -6 67.635 195.26 7
3 8 -5 4842.29 595.794 7
3 8 -5 4572.34 654.034 1
3 8 -4 -53.8494 134.173 1
3 8 -4 248.773 137.828 7
-3 -8 3 5467.92 571.17 6
3 8 -3 5265.4 685.241 1
-3 -8 2 8731.88 727.554 6
3 8 -2 9219.25 891.864 1
-3 -8 1 2843.77 420.606 6
3 8 -1 1876.67 385.352 1
-3 -8 0 3240.31 543.413 3
-3 -8 0 3079.27 457.449 6
-3 -8 -1 626.945 207.74 6
-3 -8 -1 424.895 161.22 3
-3 -8 -2 1886.98 379.393 6
-3 -8 -2 1663.71 406.761 3
-3 -8 -3 109.977 97.8372 6
-3 -8 -3 43.9281 69.2952 3
-3 -8 -4 7615.43 824.43 6
-3 -8 -4 5926.7 779.037 3
-3 -8 -5 123.464 106.898 6
-3 -8 -6 5533.22 767.492 6
-3 -8 -7 495.257 236.167 6
-3 -8 -8 474.73 236.904 6
-3 -8 -9 225.649 138.206 6
3 9 -11 346.208 213.91 7
3 9 -10 124.812 158.695 7
3 9 -9 -290.312 178.516 7
3 9 -8 0.67483 110.476 7
3 9 -7 2574.12 527.484 1
3 9 -7 2112.9 447.746 7
3 9 -6 3694.9 611.38 1
3 9 -5 1275.39 363.054 1
3 9 -4 249.024 160.634 1
3 9 -3 934.464 298.958 1
3 9 -2 1845.49 406.592 1
-3 -9 1 -148.35 170.245 3
-3 -9 1 230.848 136.256 6
3 9 -1 5.91831 97.0273 1
-3 -9 0 3340.81 589.44 3
-3 -9 0 2926.36 459.686 6
-3 -9 -1 2941.5 469.646 6
-3 -9 -1 2501.88 498.406 3
-3 -9 -2 499.072 219.604 6
-3 -9 -2 715.715 296.259 3
-3 -9 -3 930.777 296.503 6
-3 -9 -3 505.474 252.202 3
-3 -9 -4 1181.67 323.012 6
-3 -9 -4 1075.9 356.545 3
-3 -9 -5 24.9349 102.694 6
-3 -9 -6 1044.13 351.181 6
-3 -9 -7 611.961 267.738 6
-3 -9 -8 2350.1 528.181 6
3 10 -10 1977.42 514.493 7
3 10 -7 2150.34 497.484 1
3 10 -6 20.7523 139.028 1
3 10 -5 3818.36 656.752 1
3 10 -4 532.489 229.131 1
3 10 -3 785.231 291.86 1
3 10 -2 1068.28 341.509 1
-3 -10 1 120.857 129.066 3
3 10 -1 -45.1518 122.564 1
-3 -10 0 112.673 87.3336 3
-3 -10 -1 756.375 249.446 6
-3 -10 -1 829.264 310.211 3
-3 -10 -2 121.484 126.622 6
-3 -10 -2 82.1707 117.879 3
-3 -10 -3 -27.8147 75.7671 6
-3 -10 -3 294.902 220.302 3
-3 -10 -4 303.16 213.685 6
-3 -10 -4 -84.8408 84.7001 3
-3 -10 -5 439.254 250.48 6
-3 -10 -6 66.93 118.573 6
3 11 -4 972.534 340.318 1
3 11 -3 1147.24 372.327 1
-3 -11 2 390.623 227.226 3
3 11 -2 701.636 293.916 1
-3 -11 1 1987.6 503.538 3
-3 -11 0 1607.97 511.311 3
-3 -11 -1 131.4 150.477 3
-3 -11 -2 41.86 135.417 3
-3 -11 -3 1212 355.869 6
-3 -11 -4 1654.65 412.391 6
-3 -11 -5 -75.6208 126.729 6
-4 11 6 2060.87 598.494 5
-4 11 5 2976.52 686.608 5
4 -11 -4 5510.21 817.025 4
4 -11 -3 491.625 228.461 4
4 -11 -2 31.5525 129.171 4
4 -11 -1 247.587 132.177 4
4 -11 0 -60.8858 159.532 4
4 -11 1 4372.17 732.339 4
4 -11 2 669.346 314.327 4
-4 10 7 371.441 255.248 5
-4 10 6 69.7906 222.242 5
-4 10 5 721.476 351.798 5
-4 10 4 226.146 207.945 5
4 -10 -4 455.018 186.124 4
-4 10 3 -71.8011 175.864 5
4 -10 -3 285.437 218.924 4
4 -10 -2 1258.84 381.781 4
4 -10 -1 612.893 261.893 4
4 -10 0 3011.73 576.438 4
4 -10 1 5.3346 108.115 4
4 -10 2 1194.24 369.43 4
4 -10 3 1953.81 473.442 4
-4 10 -4 2751.24 545.001 7
-4 10 -5 2752.55 573.711 7
-4 9 8 3217.89 766.459 5
-4 9 7 4291.79 862.266 5
-4 9 6 4450.08 850.107 5
-4 9 5 374.573 249.714 5
-4 9 4 5071.48 863.731 5
4 -9 -4 7321.82 863.869 4
-4 9 3 -8.80806 161.58 5
4 -9 -3 -1.28496 121.676 4
-4 9 2 -4.16291 80.5781 5
4 -9 -2 98.6524 147.348 4
-4 9 1 -130.756 144.722 5
4 -9 -1 -31.0141 121.557 4
-4 9 0 5417.43 800.001 5
4 -9 0 6659.39 813.462 4
4 -9 1 28437.3 1705.44 4
4 -9 2 5563.15 757.014 4
4 -9 3 236.425 133.061 4
-4 9 -4 -90.4068 123.073 7
-4 9 -5 978.762 315.497 7
-4 9 -6 -43.408 163.823 7
-4 9 -7 3584.45 646.606 7
-4 8 10 1108.24 464.811 5
-4 8 9 2298.64 648.495 5
-4 8 8 8160.45 1167.28 5
-4 8 7 5023.09 891.699 5
-4 8 6 1364.09 465.781 5
-4 8 5 5849.78 926.34 5
4 -8 -4 6495.17 790.253 4
-4 8 4 8295.71 1063.13 5
-4 8 3 2529.52 589.399 5
4 -8 -3 3156.77 546.312 4
-4 8 2 4971.44 788.158 5
4 -8 -2 4733.86 659.54 4
4 -8 -1 7411.62 830.179 4
-4 8 1 7260.04 916.037 5
-4 8 0 432.663 246.112 5
4 -8 0 774.176 229.998 4
-4 8 -1 2290.23 484.116 5
4 -8 1 2081.22 432.343 4
4 -8 2 1490.07 404.272 4
-4 8 -2 1737.28 410.426 5
-4 8 -3 -72.7634 84.2466 7
-4 8 -4 571.745 252.87 7
-4 8 -5 64.9911 80.0663 7
-4 8 -6 1885.57 444.76 7
-4 8 -7 284.678 171.978 7
-4 8 -8 176.444 117.88 7
-4 8 -9 458.054 238.86 7
-4 7 11 2499.79 700.071 5
-4 7 10 4064.63 845.839 5
-4 7 9 4449.7 879.967 5
-4 7 8 -205.925 192.554 5
-4 7 7 6990.98 1027.25 5
-4 7 6 1151.39 388.655 5
-4 7 5 -31.5565 165.364 5
-4 7 4 459.194 268.664 5
4 -7 -4 349.696 221.342 4
-4 7 3 2042.76 485.607 5
4 -7 -3 1404.97 352.972 4
-4 7 2 2758.71 554.416 5
4 -7 -2 2970.98 507.228 4
-4 7 1 21.7717 78.5809 5
4 -7 -1 621.174 215.067 4
-4 7 0 566.171 210.9 5
4 -7 0 582.017 261.247 4
4 -7 1 8944.59 880.326 4
-4 7 -1 8823.92 933.171 5
4 -7 2 21382.4 1375.86 4
-4 7 -2 21288.8 1406.94 5
-4 7 -3 6920.28 781.325 5
-4 7 -3 7813.88 822.958 7
-4 7 -4 14747.9 1154.2 7
-4 7 -4 15312.8 1131.09 5
-4 7 -5 1992.64 423.809 7
-4 7 -6 2131.19 448.603 7
-4 7 -7 985.408 320.736 7
-4 7 -8 4919.07 719.952 7
-4 7 -9 3818.01 643.685 7
-4 7 -10 742.303 304.165 7
-4 6 11 518.46 287.046 5
-4 6 10 399.862 255.511 5
-4 6 9 1518.03 493.981 5
-4 6 8 267.173 205.477 5
-4 6 7 370.678 269.242 5
-4 6 6 64.3395 152.427 5
-4 6 5 -70.0299 75.5358 5
-4 6 4 1941.39 490.692 5
4 -6 -4 2522.23 444.954 4
-4 6 3 2785.3 551.181 5
4 -6 -3 2884.09 480.222 4
4 -6 -2 24400.7 1383.89 4
-4 6 2 24234.7 1630.44 5
4 -6 -1 7024.24 737.791 4
-4 6 1 6428.72 801.987 5
4 -6 0 17944.6 1186.37 4
-4 6 0 18517.3 1324.62 5
4 -6 1 20310.2 1274.29 4
-4 6 -1 21835.2 1397.27 5
4 -6 2 62185.4 2243.92 4
-4 6 -2 55075.3 2178.3 5
-4 6 -3 26465.3 1445.21 7
-4 6 -3 26118.2 1462.8 5
-4 6 -4 79.8896 76.2162 5
-4 6 -4 328.667 179.338 7
-4 6 -5 8465.03 858.248 7
-4 6 -5 8669.42 811.708 5
-4 6 -6 13784.4 1110.94 7
-4 6 -6 14932.1 1068.52 5
-4 6 -7 1872.74 408.37 7
-4 6 -8 317.491 187.899 7
-4 6 -9 606.161 235.519 7
-4 6 -10 2276.65 510.462 7
-4 6 -11 -300.524 196.323 7
-4 6 -12 68.2588 104.892 7
-4 5 12 970.68 394.106 5
-4 5 11 113.716 145.607 5
-4 5 10 2056.83 593.743 5
-4 5 9 870.571 367.232 5
-4 5 8 9676.02 1201.22 5
-4 5 7 4585.63 794.566 5
-4 5 6 429.759 220.714 5
-4 5 5 7357.77 948.448 5
-4 5 4 972.019 343.813 5
-4 5 3 1223.2 374.95 5
4 -5 -3 1061.48 287.73 4
4 -5 -2 9034.7 807.68 4
-4 5 2 7596.84 873.105 5
4 -5 -1 3674.31 520.014 4
-4 5 1 4101.62 623.79 5
4 -5 0 12858.1 954.13 4
-4 5 0 12622.1 1056.41 5
4 -5 1 1696.22 354.433 4
-4 5 -1 1730.78 399.17 5
4 -5 2 8675.25 805.001 4
-4 5 -2 8435.26 818.759 5
-4 5 -3 28779.4 1457.25 7
-4 5 -3 30520 1532.58 5
-4 5 -4 5652.87 653.859 7
-4 5 -5 2225.24 372.374 6
-4 5 -5 1632.52 346.211 2
-4 5 -5 1892.96 387.337 7
-4 5 -6 1457.26 297.963 6
-4 5 -6 1595.14 358.572 2
-4 5 -6 1615.54 358.364 7
-4 5 -7 7404.49 796.585 7
-4 5 -7 7307.83 830.411 2
-4 5 -8 10578.6 970.973 7
-4 5 -8 8867.52 969.56 2
-4 5 -9 6815.37 808.947 7
-4 5 -9 7543.82 948.089 2
-4 5 -10 171.143 157.416 2
-4 5 -10 472.761 230.634 7
-4 5 -11 3777.47 726.365 2
-4 5 -11 3180.48 575.008 7
-4 5 -12 277.469 204.32 2
-4 5 -12 70.012 133.125 7
-4 5 -13 53.2483 121.767 2
-4 5 -13 -2.31517 118.192 7
-4 4 13 12376.1 1507.86 5
-4 4 12 8000 1179.42 5
-4 4 11 397.657 239.973 5
-4 4 10 1250.98 474.173 5
-4 4 9 2806.39 619.599 5
-4 4 8 9597.38 1163.5 5
-4 4 7 16528.2 1468.95 5
-4 4 6 3438.88 641.956 5
-4 4 5 1260.91 392.496 5
-4 4 4 10565.4 1061.18 5
-4 4 3 85.7312 175.792 5
4 -4 -3 64.6207 115.471 4
4 -4 -2 7981.38 719.36 4
-4 4 2 8906.94 908.058 5
4 -4 -1 7129.12 681.346 4
-4 4 1 7301.39 800.151 5
4 -4 0 4386.18 538.306 4
-4 4 0 4466.81 609.995 5
4 -4 1 9643.41 793.139 4
-4 4 -1 10537.3 906.329 5
4 -4 2 15581.5 1018.19 4
-4 4 -2 15962.5 1095.51 5
-4 4 -2 14335.5 753.684 2
-4 4 -3 199447 3557.79 6
-4 4 -3 206853 3738.36 7
-4 4 -3 206251 3231.23 2
-4 4 -4 2350.66 389.714 6
-4 4 -4 3085.69 484.066 7
-4 4 -5 6367.62 619.743 6
-4 4 -5 6149.06 660.818 7
-4 4 -5 6345.81 689.286 2
-4 4 -6 13188.4 900.134 6
-4 4 -6 12284.6 963.957 7
-4 4 -6 12695.2 1031.27 2
-4 4 -7 14317.2 935.334 6
-4 4 -7 14288.1 1066.87 7
-4 4 -7 13928 1156.9 2
-4 4 -8 22926.9 1186.3 6
-4 4 -8 21928.6 1345.68 7
-4 4 -8 22148.2 1546.55 2
-4 4 -9 2532.21 546.816 2
-4 4 -9 2871.07 496.73 7
-4 4 -10 291.27 187.59 2
-4 4 -10 776.954 254.254 7
-4 4 -11 71.2853 172.539 2
-4 4 -11 173.278 188.361 7
-4 4 -12 182.043 179.534 2
-4 4 -12 -131.62 165.751 7
-4 4 -13 1792.19 562.154 2
-4 4 -13 1872.7 466.843 7
-4 3 14 2942.79 746.21 5
-4 3 13 1878.68 573.884 5
-4 3 12 3147.61 728.55 5
-4 3 11 -251.348 233.992 5
-4 3 10 2166.38 585.908 5
-4 3 9 15693.4 1481.98 5
-4 3 8 14855.1 1403.9 5
-4 3 7 3663.11 683.347 5
-4 3 6 225.932 157.659 5
-4 3 5 -173.67 216.832 5
-4 3 4 2074.91 465.355 5
-4 3 3 9681.27 952.924 5
4 -3 -2 3793.82 476.245 4
-4 3 2 4678.98 642.198 5
-4 3 1 552.172 219.932 5
4 -3 -1 845.078 222.732 4
4 -3 0 14022.5 904.146 4
-4 3 0 13362.9 501.782 2
-4 3 0 12984.6 1002.53 5
4 -3 1 7776.18 669.127 4
-4 3 -1 6510.67 452.23 2
-4 3 -2 40859.9 1620.29 6
-4 3 -2 39150 1320.18 2
4 -3 2 40772.1 1560.53 4
-4 3 -3 1214.16 282.604 6
-4 3 -3 367.068 96.9219 2
-4 3 -4 7159.46 658.304 6
-4 3 -4 7609.13 687.036 7
-4 3 -5 6839.58 651.134 6
-4 3 -5 7180.55 684.214 7
-4 3 -5 7377.26 751.648 2
-4 3 -6 312.167 140.843 6
-4 3 -6 271.508 170.494 2
-4 3 -6 300.664 144.953 7
-4 3 -7 4200.07 508.609 6
-4 3 -7 5434.29 727.682 2
-4 3 -7 3597.26 514.041 7
-4 3 -8 -19.2241 151.505 2
-4 3 -8 25.5588 95.0723 6
-4 3 -8 249.205 169.98 7
-4 3 -9 861.158 325.281 2
-4 3 -9 1102.79 270.084 6
-4 3 -9 364.521 168.933 7
-4 3 -10 -28.9115 158.183 2
-4 3 -10 48.0729 98.7444 7
-4 3 -11 2939.87 659.358 2
-4 3 -11 2999.22 521.755 7
-4 3 -12 1443.69 460.576 2
-4 3 -12 1483.55 376.388 7
-4 3 -13 3304.33 742.322 2
-4 3 -13 3268.94 574.819 7
-4 2 14 282.226 258.99 5
-4 2 13 10096.1 1290.75 5
-4 2 12 -247.857 256.035 5
-4 2 11 59.1847 149.949 5
-4 2 10 401.734 214.171 5
-4 2 9 -41.2668 203.652 5
-4 2 8 168907 4566.24 5
-4 2 7 4896.02 760.865 5
-4 2 6 39947.2 2084.5 5
-4 2 5 1378.91 319.758 5
-4 2 4 150.514 122.274 5
-4 2 3 32088.9 1670.4 5
-4 2 2 316.786 185.775 5
4 -2 -2 560.103 201.084 4
4 -2 -1 8219.03 664.842 4
-4 2 1 8064.95 783.024 5
-4 2 0 1258.85 283.093 6
4 -2 0 1656.32 296.931 4
-4 2 -1 191.69 98.658 6
4 -2 1 170.878 48.8908 3
4 -2 1 245.315 122.02 4
4 -2 2 -13.1083 52.0711 4
-4 2 -2 -70.5284 103.357 6
-4 2 -3 14244.1 925.674 6
4 -2 3 16300.6 934.272 4
-4 2 -4 6278.03 609.976 6
-4 2 -4 6879.52 624.756 7
-4 2 -5 371 159.377 6
-4 2 -5 306.691 119.561 7
-4 2 -6 2548.67 393.932 6
-4 2 -6 3116.29 441.758 7
-4 2 -7 3501.92 470.184 6
-4 2 -7 3506.67 477.316 7
-4 2 -8 10605.8 835.222 6
-4 2 -8 11401.8 887.021 7
-4 2 -9 23.8589 62.7853 6
-4 2 -9 117.997 113.699 7
-4 2 -10 2780.67 450.613 6
-4 2 -10 2998.18 486.843 7
-4 2 -11 364.377 181.932 6
-4 2 -11 56.7066 149.528 2
-4 2 -11 249.939 128.067 7
-4 2 -12 907.555 408.735 2
-4 2 -12 1660.7 385.816 7
-4 2 -13 547.492 311.644 2
-4 1 15 808.855 393.967 5
-4 1 14 903.393 382.372 5
-4 1 13 14690.5 1532.39 5
-4 1 12 2092.76 539.295 5
-4 1 11 676.77 346.347 5
-4 1 10 2542.84 578.618 5
-4 1 9 15197.4 1382.56 5
-4 1 8 148.037 200.918 5
-4 1 7 5804.68 815.125 5
-4 1 6 13084.8 1157.19 5
4 -1 -5 2842.22 241.414 1
-4 1 5 2712.67 505.065 5
-4 1 4 -355.193 191.57 5
-4 1 3 2523.44 463.213 5
-4 1 2 6821.24 730.297 5
-4 1 1 245.576 115.344 6
4 -1 -1 60.7598 48.9112 4
-4 1 0 4101.91 511.369 6
4 -1 0 4051.27 442.192 4
-4 1 -1 5200.42 580.322 6
4 -1 1 5626.32 514.118 4
-4 1 -2 1407.42 300.057 6
4 -1 2 973.966 223.112 4
4 -1 3 2178.16 325.22 4
-4 1 -3 2646.32 389.845 6
-4 1 -4 274.199 134.185 6
-4 1 -5 9010.03 739.636 6
-4 1 -5 9087.44 688.409 7
-4 1 -6 429.316 173.067 6
-4 1 -6 712.445 207.319 7
-4 1 -7 837.317 234.488 6
-4 1 -7 846.668 222.472 7
-4 1 -8 229.911 97.1438 6
-4 1 -8 321.101 143.742 7
-4 1 -9 4834.89 585.731 6
-4 1 -9 5009.25 577.256 7
-4 1 -10 169.823 85.375 6
-4 1 -10 109.712 81.6014 7
-4 1 -11 1317.28 327.649 6
-4 1 -12 352.674 188.516 6
-4 1 -13 712.576 328.734 2
-4 0 15 10347.8 1311.16 5
-4 0 14 350.681 294.307 5
-4 0 13 226.07 226.962 5
-4 0 12 3659.58 735.169 5
-4 0 11 1263.53 425.064 5
-4 0 10 196.036 152.277 5
-4 0 9 830.165 302.001 5
-4 0 8 3258.59 588.924 5
-4 0 7 41973.6 2094.61 5
-4 0 6 32.8482 142.849 5
-4 0 5 406.564 208.827 5
4 0 -5 971.143 172.432 1
4 0 -4 7511.01 459.513 1
-4 0 4 7208.82 778.94 5
-4 0 3 63022.7 808.891 3
-4 0 3 69894.8 2350.37 5
-4 0 2 3136.85 462.953 6
-4 0 1 31431.9 1450.21 6
-4 0 0 5470.33 605.265 6
4 0 0 5117.97 476.712 4
-4 0 -1 6113.22 617.093 6
4 0 1 5380.55 476.843 4
-4 0 -2 -102.721 126.579 6
4 0 2 148.052 105.325 4
-4 0 -3 1757.56 333.661 6
4 0 3 1408.51 241.519 4
-4 0 -4 5381.28 576.888 6
4 0 4 5921.16 510.877 4
-4 0 -5 1696.35 324.206 6
-4 0 -6 111.536 70.3151 6
-4 0 -6 27.9336 56.6948 7
-4 0 -7 412.15 166.06 6
-4 0 -7 738.167 199.367 7
-4 0 -8 2509.27 416.432 6
-4 0 -8 3826.06 453.771 7
-4 0 -9 2601.72 446.022 6
-4 0 -10 1283.87 330.755 6
-4 0 -11 -53.8121 65.478 6
-4 0 -12 916.77 304.554 6
-4 0 -13 116.718 102.481 6
-4 0 -14 1239.08 358.257 6
-4 -1 14 3217.93 705.214 5
-4 -1 13 706.814 380.071 5
-4 -1 12 7102.09 990.451 5
-4 -1 11 6649.96 921.14 5
-4 -1 10 -56.5367 118.927 5
-4 -1 9 29983.5 1857.25 5
-4 -1 8 16159.9 1308.83 5
-4 -1 7 19379.4 1379.92 5
-4 -1 6 17204.5 1249.1 5
-4 -1 5 53.1311 115.585 5
4 1 -5 132.703 85.2411 1
4 1 -4 15076.9 749.428 1
-4 -1 4 13934.1 1057.92 5
-4 -1 3 3260.04 473.981 6
-4 -1 3 4050.08 292.37 3
4 1 -3 3562.17 354.927 1
-4 -1 2 11723.9 912.449 6
-4 -1 2 12947.4 533.027 3
-4 -1 1 3870.56 504.243 6
-4 -1 0 1508.44 306.594 6
-4 -1 -1 911.153 236.482 6
-4 -1 -2 1321.48 290.213 6
4 1 2 1675.28 248.166 4
-4 -1 -3 39912.8 1590.37 6
4 1 3 40860.3 1217.73 4
-4 -1 -4 2426.86 402.272 6
4 1 4 2262.7 297.386 4
4 1 5 -22.175 67.4822 4
-4 -1 -5 -119.75 130.563 6
-4 -1 -6 606.57 235.65 6
-4 -1 -7 803.884 237.671 6
-4 -1 -8 1168.99 286.137 6
-4 -1 -9 -20.233 141.571 6
-4 -1 -10 818.453 268.306 6
-4 -1 -11 3269.12 558.597 6
-4 -1 -12 -22.1641 93.8757 6
-4 -1 -13 -51.4278 121.936 6
-4 -1 -14 491.988 248.184 6
4 2 -14 228.969 199.119 7
4 2 -13 784.103 331.928 7
-4 -2 13 1036.01 351.126 5
-4 -2 12 120.277 142.544 5
-4 -2 11 542.421 266.942 5
-4 -2 10 1557.07 438.274 5
-4 -2 9 -30.4017 74.156 5
-4 -2 8 14540.8 1212.88 5
-4 -2 7 -29.6232 120.21 5
-4 -2 6 2560.66 469.14 5
-4 -2 5 3464.38 529.331 5
4 2 -5 2942.88 372.224 1
4 2 -4 525.958 151.697 1
-4 -2 4 412.466 190.309 5
-4 -2 3 72.3538 85.6152 6
4 2 -3 215.974 126.437 1
-4 -2 2 24537.2 1307.29 6
-4 -2 2 23898.7 876.129 3
-4 -2 1 2824.65 440.33 6
-4 -2 1 2057.57 256.926 3
-4 -2 0 281.514 127.651 6
-4 -2 -1 9169.61 761.454 6
-4 -2 -2 302.967 161.006 6
-4 -2 -3 2388.34 407.491 6
4 2 3 2428.25 268.099 4
-4 -2 -4 -25.7663 104.027 6
4 2 4 78.753 64.3808 4
-4 -2 -5 4916.38 600.146 6
-4 -2 -6 314.952 161.466 6
-4 -2 -7 1026.12 267.836 6
-4 -2 -8 1193.25 321.609 6
-4 -2 -9 2177.66 424.577 6
-4 -2 -10 337.348 193.265 6
-4 -2 -11 211.549 177.17 6
-4 -2 -12 3316.93 590.81 6
-4 -2 -13 2592.88 547.818 6
4 3 -13 491.006 247.409 7
4 3 -12 2674.3 606.317 7
4 3 -11 18.9285 77.3492 7
-4 -3 11 114.115 96.5444 5
-4 -3 10 165.43 137.791 5
-4 -3 9 127.622 145.781 5
-4 -3 8 1033.45 325.685 5
-4 -3 7 8758.26 885.59 5
-4 -3 6 2721.19 479.804 5
-4 -3 5 16958.1 1153.65 5
4 3 -5 15633.1 926.148 1
-4 -3 4 3569.56 511.226 6
4 3 -4 3548.26 427.251 1
4 3 -3 174.859 108.565 1
-4 -3 3 130.918 118.636 6
-4 -3 2 805.672 243.735 6
4 3 -2 739.102 199.004 1
-4 -3 1 10875.3 853.009 6
-4 -3 0 2429.36 399.651 6
-4 -3 -1 631.51 227.332 6
-4 -3 -2 259.958 179.16 6
-4 -3 -3 5218.98 604.527 6
-4 -3 -4 46310.6 1813.4 6
-4 -3 -5 19661.8 1215.3 6
-4 -3 -6 5454.2 652.202 6
-4 -3 -7 1875.18 404.644 6
-4 -3 -8 8393.65 876.169 6
-4 -3 -9 1504.34 376.612 6
-4 -3 -10 7221.62 865.302 6
-4 -3 -11 192.025 154.493 6
-4 -3 -12 4518.44 712.97 6
4 4 -13 39.8635 116.537 7
4 4 -12 1689.7 516.904 7
4 4 -11 969.402 387.411 7
4 4 -10 1361.17 422.807 7
-4 -4 10 1643.79 401.631 5
4 4 -9 754.794 345.222 7
-4 -4 9 5.38345 84.0591 5
-4 -4 8 379.95 163.074 5
-4 -4 7 23386.6 1432.82 5
-4 -4 6 1758.53 374.425 5
4 4 -6 1628.09 328.927 1
-4 -4 5 5615.83 659.028 5
4 4 -5 5371.11 587.232 1
4 4 -4 890.124 237.822 1
-4 -4 4 728.236 228.201 6
-4 -4 3 24001.3 1311.6 6
4 4 -3 23055.2 1175.26 1
-4 -4 2 2909.38 389.341 3
-4 -4 2 2467.47 417.669 6
4 4 -2 2166.68 356.866 1
-4 -4 1 20695.2 1179.77 6
-4 -4 1 19934.7 1022.14 3
-4 -4 0 16936 1072.9 6
-4 -4 0 14506.4 889.697 3
-4 -4 -1 11181.2 869.175 6
-4 -4 -1 9834.35 751.494 3
-4 -4 -2 9324.17 811.045 6
-4 -4 -3 7282.03 730.936 6
-4 -4 -4 4466.92 593.371 6
-4 -4 -5 7690.9 796.032 6
-4 -4 -6 809.695 275.601 6
-4 -4 -7 279.575 207.49 6
-4 -4 -8 2870.71 519.385 6
-4 -4 -9 148.679 153.394 6
-4 -4 -10 14909.9 1268.17 6
-4 -4 -11 343.083 203.388 6
4 5 -13 -42.7753 118.365 7
4 5 -12 2.71293 164.7 7
4 5 -11 1414.31 432.128 7
4 5 -10 50.7734 77.5491 7
4 5 -9 -47.4242 146.318 7
-4 -5 8 55.1017 82.3598 5
4 5 -8 -139.451 126.336 7
4 5 -7 1469.66 379.204 7
-4 -5 7 1043.73 277.3 5
4 5 -6 9958.59 934.488 7
-4 -5 6 9515.22 872.627 5
4 5 -6 10100.9 876.529 1
-4 -5 5 5197.67 630.195 6
-4 -5 5 6629.45 710.43 5
4 5 -5 6472.62 676 1
4 5 -4 315.366 173.525 7
-4 -5 4 403.369 192.798 6
4 5 -4 153.788 132.758 1
4 5 -3 2364.18 395.034 7
4 5 -3 2209.84 402.849 1
-4 -5 3 2451.45 424.953 6
-4 -5 2 4431.55 561.418 6
-4 -5 2 4839.95 541.033 3
4 5 -2 4889.81 568.249 1
4 5 -2 6055.39 581.743 7
4 5 -1 2072.28 327.164 7
-4 -5 1 2013.76 378.428 6
-4 -5 1 2129.23 371.447 3
-4 -5 0 202.092 133.519 6
-4 -5 0 184.181 134.486 3
-4 -5 -1 2790.77 456.979 6
-4 -5 -1 2359.24 392.407 3
-4 -5 -2 1395.73 331.259 6
-4 -5 -2 1644.65 342.19 3
-4 -5 -3 646.386 198.018 6
-4 -5 -4 4155.15 579.906 6
-4 -5 -5 990.312 290.961 6
-4 -5 -6 441.5 253.263 6
-4 -5 -7 2242.66 472.136 6
-4 -5 -8 919.216 326.299 6
-4 -5 -9 501.065 224.88 6
-4 -5 -10 8566.52 994.503 6
4 6 -12 5988.27 928.013 7
4 6 -11 3241.84 665.623 7
4 6 -10 348.138 279.812 7
4 6 -9 455.628 232.728 7
4 6 -8 694.769 279.71 7
4 6 -7 234.365 147.133 1
4 6 -7 293.083 148.537 7
-4 -6 6 1075.79 293.013 5
4 6 -6 284.53 175.719 1
4 6 -6 957.016 302.639 7
-4 -6 5 -86.4252 126.299 6
4 6 -5 44.3042 78.7799 7
4 6 -5 25.4939 73.8056 1
-4 -6 4 196.908 129.997 6
4 6 -4 456.833 217.874 1
4 6 -4 219.83 125.661 7
4 6 -3 179.787 117.677 1
-4 -6 3 208.079 157.859 6
4 6 -3 207.277 112.611 7
-4 -6 2 9045.12 809.494 6
-4 -6 2 9529.36 839.307 3
4 6 -2 9148.86 827.019 1
-4 -6 1 16877.6 1108.62 6
-4 -6 1 18234.2 1156.73 3
-4 -6 0 4567.36 574.208 6
-4 -6 0 5517.82 642.011 3
-4 -6 -1 7975.97 775.099 6
-4 -6 -1 8300.92 804.481 3
-4 -6 -2 3304.39 509.531 6
-4 -6 -2 2445.56 440.86 3
-4 -6 -3 548.239 218.86 6
-4 -6 -4 6400.45 744.971 6
-4 -6 -5 4386.21 640.844 6
-4 -6 -6 1326.77 368.292 6
-4 -6 -7 222.021 244.223 6
-4 -6 -8 372.891 200.077 6
-4 -6 -9 -58.2469 117.002 6
4 7 -12 105.853 220.908 7
4 7 -11 404.539 226.995 7
4 7 -10 -96.6428 199.224 7
4 7 -9 592.851 261.49 7
4 7 -8 372.363 247.974 1
4 7 -8 1353.26 367.686 7
4 7 -7 542.076 226.446 1
4 7 -7 1111.49 331.864 7
4 7 -6 1477.8 387.664 1
4 7 -6 1044.16 308.728 7
-4 -7 5 42.2316 96.7798 6
4 7 -5 21.6205 71.1162 1
4 7 -5 -42.1489 104.389 7
-4 -7 4 -263.943 152.064 6
4 7 -4 41.8659 67.7836 1
-4 -7 3 1947.91 397.733 6
4 7 -3 1803.55 409.179 1
-4 -7 2 227.133 150.464 3
-4 -7 2 126.598 101.582 6
-4 -7 1 18412.6 1178.21 6
-4 -7 1 20846.3 1325.59 3
-4 -7 0 402.975 192.65 6
-4 -7 0 427.538 195.028 3
-4 -7 -1 2341.18 438.421 6
-4 -7 -1 2489.95 471.096 3
-4 -7 -2 3292.99 515.355 6
-4 -7 -2 3241.82 558.082 3
-4 -7 -3 135.639 139.618 6
-4 -7 -3 174.96 117.714 3
-4 -7 -4 832.913 291.834 6
-4 -7 -5 251.338 214.906 6
-4 -7 -6 1427.27 389.166 6
-4 -7 -7 510.314 269.328 6
-4 -7 -8 58.3678 103.244 6
4 8 -11 4459.63 806.985 7
4 8 -10 1934.61 500.147 7
4 8 -9 1369.98 455.724 1
4 8 -9 1390.69 410.379 7
4 8 -8 -260.656 181.274 1
4 8 -8 254.577 163.355 7
4 8 -7 42.8064 103.302 1
4 8 -6 3960.35 651.211 1
4 8 -5 156.922 167.093 1
-4 -8 4 605.663 208.411 6
4 8 -4 481.331 230.424 1
-4 -8 3 560.296 236.421 6
4 8 -3 58.4745 101.558 1
4 8 -2 69 144.307 1
-4 -8 2 -3.37997 159.918 3
-4 -8 2 -156.388 127.394 6
-4 -8 1 1264.52 329.878 6
-4 -8 1 1132.45 341.011 3
-4 -8 0 3588.35 547.949 6
-4 -8 0 2861.43 539.74 3
-4 -8 -1 1624.7 374.236 6
-4 -8 -1 1821.31 425.426 3
-4 -8 -2 734.712 258.135 6
-4 -8 -2 561.031 221.593 3
-4 -8 -3 474.106 221.285 6
-4 -8 -3 855.363 315.228 3
-4 -8 -4 3026.4 543.253 6
-4 -8 -5 1409.81 394.07 6
-4 -8 -6 3483.08 625.91 6
-4 -8 -7 -209.19 187.286 6
4 9 -8 798.681 311.753 1
4 9 -7 947.314 343.677 1
4 9 -6 335.291 216.062 1
4 9 -5 -118.549 126.948 1
4 9 -4 141.441 156.244 1
4 9 -3 181.028 139.188 1
4 9 -2 1014.58 333.978 1
-4 -9 2 665.043 234.196 6
-4 -9 2 733.318 271.856 3
-4 -9 1 1377.06 351.971 6
-4 -9 1 1369.53 395.615 3
-4 -9 0 23.4111 119.086 6
-4 -9 0 -70.1701 111.516 3
-4 -9 -1 1640.94 387.512 6
-4 -9 -1 2312.86 523.241 3
-4 -9 -2 2020.02 432.09 6
-4 -9 -2 1395.91 413.306 3
-4 -9 -3 115.407 129.896 6
-4 -9 -3 113.501 188.28 3
-4 -9 -4 891.574 311.157 6
-4 -9 -5 349.289 206.906 6
-4 -9 -6 562.834 263.206 6
4 10 -4 -259.475 194.504 1
-4 -10 3 523.095 288.139 3
4 10 -3 306.221 197.464 1
-4 -10 2 551.485 261.278 3
-4 -10 1 142.276 240.282 3
-4 -10 0 398.318 288.824 3
-4 -10 -1 246.964 225.788 6
-4 -10 -1 159.312 185.126 3
-4 -10 -2 1642.44 420.494 6
-4 -10 -2 1068.29 363.189 3
-4 -10 -3 1970.15 466.564 6
-4 -10 -3 2270.97 570.184 3
-4 -10 -4 1295.32 396.432 6
-5 10 5 8.27211 207.861 5
-5 10 4 -153.237 220.645 5
-5 10 3 157.587 187.363 5
-5 9 6 265.315 272.562 5
-5 9 5 -173.512 208.699 5
-5 9 4 308.516 214.958 5
-5 9 3 -41.5129 115.127 5
5 -9 -3 86.6982 118.58 4
-5 9 2 81.9216 74.1935 5
5 -9 -2 63.2272 165.308 4
-5 9 1 -0.47024 109.247 5
5 -9 -1 133.92 138.722 4
5 -9 0 -23.4727 135.985 4
5 -9 1 2854.88 570.712 4
5 -9 2 3304.62 631.281 4
5 -9 3 379.647 217.275 4
5 -9 4 2033.4 513.158 4
-5 8 8 1252.07 483.669 5
-5 8 7 -177.203 206.979 5
-5 8 6 1779.12 554.026 5
-5 8 5 192.53 244.689 5
-5 8 4 6813.68 1046.34 5
-5 8 3 317.722 152.649 5
5 -8 -3 864.142 346.366 4
-5 8 2 1155.65 397.127 5
5 -8 -2 1339.38 378.927 4
-5 8 1 553.199 289.055 5
5 -8 -1 234.475 197.934 4
-5 8 0 590.209 302.61 5
5 -8 0 665.99 293.513 4
-5 8 -1 149.776 171.703 5
5 -8 1 106.803 155.481 4
5 -8 2 4521.74 708.752 4
5 -8 3 6760.56 885.143 4
5 -8 4 2309.16 545.331 4
5 -8 5 829.547 332.226 4
-5 8 -6 43.6257 85.6034 7
-5 7 9 -152.265 202.625 5
-5 7 8 8095.88 1209.1 5
-5 7 7 3539.45 795.622 5
-5 7 6 2014.8 578.154 5
-5 7 5 6664.77 1032.5 5
-5 7 4 386.875 245.959 5
-5 7 3 2450.63 605.115 5
5 -7 -3 3369.88 590.009 4
-5 7 2 3598.8 695.508 5
5 -7 -2 2378.24 500.221 4
-5 7 1 3792.55 708.964 5
5 -7 -1 5267.36 722.038 4
-5 7 0 366.396 225.801 5
5 -7 0 398.477 204.066 4
5 -7 1 8837.93 949.317 4
-5 7 -1 9219 1047.9 5
-5 7 -2 62.8779 114.81 5
5 -7 2 -2.30789 112.234 4
5 -7 3 -204.838 204.052 4
-5 7 -3 28.2578 94.763 5
5 -7 4 1692.07 420.897 4
-5 7 -6 514.977 232.848 7
-5 7 -7 3289.83 606.149 7
-5 7 -8 -114.213 149.169 7
-5 6 10 590.901 359.494 5
-5 6 9 -27.1439 236.39 5
-5 6 8 2122.71 588.252 5
-5 6 7 2261.32 610.659 5
-5 6 6 793.264 332.38 5
-5 6 5 278.005 201.725 5
-5 6 4 15625.8 1497.7 5
-5 6 3 806.024 324.393 5
5 -6 -3 1156.76 329.453 4
-5 6 2 1893.15 519.984 5
5 -6 -2 2373.54 464.288 4
-5 6 1 2520.82 551.483 5
5 -6 -1 3007.94 518.659 4
-5 6 0 3102.66 604.943 5
5 -6 0 4165.94 625.568 4
-5 6 -1 5452.68 789.525 5
5 -6 1 4747.09 668.658 4
-5 6 -2 4291.52 675.313 5
5 -6 2 4638.73 672.176 4
5 -6 3 10449.8 1005.01 4
-5 6 -3 9720.22 1010.43 5
5 -6 4 438.646 234.097 4
-5 6 -4 126.513 160.331 5
-5 6 -5 176.495 128.016 5
-5 6 -6 559.916 243.647 7
-5 6 -7 321.45 190.363 7
-5 6 -8 -107.002 122.725 7
-5 6 -9 6314.5 847.909 7
-5 6 -10 696.53 304.485 7
-5 5 10 3322.79 777.754 5
-5 5 9 4042.37 846.674 5
-5 5 8 198.142 239.548 5
-5 5 7 1075.81 381.537 5
-5 5 6 7324.46 1059.22 5
-5 5 5 377.056 229.406 5
-5 5 4 4305.67 765.013 5
-5 5 3 1408.84 419.411 5
5 -5 -3 1500.96 363.178 4
5 -5 -2 14665.2 1129.85 4
-5 5 2 16346.8 1408.95 5
-5 5 1 269.067 196.692 5
5 -5 -1 145.405 126.826 4
-5 5 0 1163.44 360.029 5
5 -5 0 1590.97 363.905 4
-5 5 -1 137.936 148.222 5
5 -5 1 103.216 102.799 4
-5 5 -2 1753.07 419.731 5
5 -5 2 1800.37 408.222 4
5 -5 3 6344.26 753.66 4
-5 5 -3 5597.81 763.704 5
5 -5 4 3186.95 557.585 4
-5 5 -4 2518.13 493.803 5
-5 5 -6 1552.07 393.857 7
-5 5 -7 1124.63 335.246 7
-5 5 -8 277.28 185.147 7
-5 5 -9 -155.601 202.244 7
-5 5 -10 221.826 191.896 7
-5 5 -11 -62.4432 87.7505 7
-5 4 11 -118.962 228.343 5
-5 4 10 4285.77 866.99 5
-5 4 9 151.659 199.064 5
-5 4 8 3.55005 148.515 5
-5 4 7 1791.91 529.362 5
-5 4 6 151.541 128.927 5
-5 4 5 48.3056 96.9333 5
-5 4 4 3860.72 706.134 5
-5 4 3 4608.55 749.835 5
-5 4 2 2898.79 590.797 5
5 -4 -2 2551.02 455.406 4
5 -4 -1 10250.9 899.357 4
-5 4 1 8658.9 969.291 5
-5 4 0 505.37 244.395 5
5 -4 0 306.443 168.076 4
5 -4 1 19869.2 1256.86 4
-5 4 -1 20150.6 1415.14 5
-5 4 -2 715.431 320.478 5
5 -4 2 504.175 212.476 4
5 -4 3 49856.8 2017.66 4
-5 4 -4 5398.63 677.296 6
5 -4 4 5645.9 699.424 4
-5 4 -5 549.354 243.29 6
-5 4 -6 697.878 237.317 6
-5 4 -6 687.804 239.424 7
-5 4 -7 4293.68 586.999 6
-5 4 -7 5246.8 681.514 7
-5 4 -8 1962.44 423.698 7
-5 4 -9 192.145 139.583 7
-5 4 -10 7.05695 161.405 2
-5 4 -10 77.212 101.594 7
-5 4 -11 1506.63 496.298 2
-5 4 -11 1729.97 430.684 7
-5 3 12 -89.0614 292.917 5
-5 3 11 248.495 251.999 5
-5 3 10 636.168 362.229 5
-5 3 9 51.9097 221.627 5
-5 3 8 3994.03 787.95 5
-5 3 7 120.766 96.1664 5
-5 3 6 3060.04 636.458 5
-5 3 5 2618.57 592.532 5
-5 3 4 7560.97 962.894 5
-5 3 3 4499.49 717.616 5
5 -3 -2 20085.2 1217.48 4
-5 3 2 17500.2 1386.03 5
-5 3 1 52.0191 160.826 5
5 -3 -1 88.5354 90.1025 4
-5 3 0 146.816 114.942 5
5 -3 0 -151.34 203.944 4
5 -3 1 6572.14 683.1 4
-5 3 -1 5699.21 750.678 5
-5 3 -2 25257.3 1470.01 6
5 -3 2 27496.2 1413.35 4
-5 3 -3 39460 1813.99 6
5 -3 3 42242.5 1771.1 4
-5 3 -4 38684.4 1778.45 6
5 -3 4 40179.4 1745.48 4
5 -3 5 102.436 129.054 4
-5 3 -5 366.355 175.751 6
-5 3 -6 2571.43 449.588 6
-5 3 -6 2229.97 472.053 2
-5 3 -7 217.83 154.747 6
-5 3 -7 93.8578 84.4024 7
-5 3 -7 72.6616 142.006 2
-5 3 -8 1350.79 377.598 2
-5 3 -8 787.151 246.056 6
-5 3 -8 1287.49 330.831 7
-5 3 -9 566.903 293.477 2
-5 3 -9 11.8017 98.4309 6
-5 3 -9 331.67 175.792 7
-5 3 -10 987.675 373.296 2
-5 3 -10 1113.5 328.625 7
-5 3 -11 846.229 385.546 2
-5 3 -12 1257.75 436.01 2
-5 2 13 4408.61 921.706 5
-5 2 12 3052.68 764.008 5
-5 2 11 589.256 330.069 5
-5 2 10 243.98 244.187 5
-5 2 9 415.509 271.131 5
-5 2 8 7740.43 1054.52 5
-5 2 7 -227.635 237.748 5
-5 2 6 1151.07 391.082 5
-5 2 5 7672.17 971.062 5
-5 2 4 145.245 107.59 5
-5 2 3 5679.7 794.68 5
-5 2 2 -99.4613 104.433 5
-5 2 1 3388.71 594.378 5
5 -2 -1 3256.74 461.144 4
5 -2 0 4700.57 552.318 4
-5 2 -1 2418.72 453.831 6
5 -2 1 1957.56 360.9 4
-5 2 -2 1471.58 343.626 6
5 -2 2 1571.05 313.493 4
-5 2 -3 12756.2 1023.12 6
5 -2 3 12728.1 930.981 4
5 -2 4 61.0087 82.8143 4
-5 2 -4 -0.77051 92.6905 6
-5 2 -5 8449.18 809.189 6
5 -2 5 8036.66 745.746 4
-5 2 -6 2083.08 411.08 6
-5 2 -7 1307.23 332.976 6
-5 2 -8 17073.8 1201.12 6
-5 2 -8 15326.8 1081.38 7
-5 2 -9 162.537 124.753 6
-5 2 -9 -93.7089 110.71 7
-5 2 -10 291.608 170.957 6
-5 2 -11 289.235 259.891 2
-5 2 -12 384.735 249.666 2
-5 1 13 13005.4 1543.41 5
-5 1 12 1390.6 465.518 5
-5 1 11 1142.27 433.031 5
-5 1 10 3764.22 768.107 5
-5 1 9 89.6608 96.6694 5
-5 1 8 26296.2 1924.84 5
-5 1 7 15667.2 1438.43 5
-5 1 6 1195.39 408.413 5
-5 1 5 9098.31 1034.29 5
-5 1 4 118.961 166.509 5
-5 1 3 10159 1036.42 5
-5 1 2 3103.13 574.908 5
-5 1 1 18.6637 178.351 6
-5 1 0 2615.68 478.588 6
5 -1 0 2097.73 345.313 4
-5 1 -1 5104.75 647.776 6
5 -1 1 4609.62 529.508 4
-5 1 -2 -178.83 124.061 6
5 -1 2 -43.0364 136.817 4
-5 1 -3 28565.2 1531.89 6
5 -1 3 27736.2 1293 4
-5 1 -4 229.31 133.383 6
5 -1 4 194.395 118.092 4
-5 1 -5 15483 1122.78 6
5 -1 5 17073 1030.89 4
5 -1 6 -114.868 128.978 4
-5 1 -6 240.238 145.116 6
-5 1 -7 11060 959.192 6
-5 1 -8 477.203 220.678 6
-5 1 -9 5291.6 683.701 6
-5 1 -10 -2.64537 130.393 6
-5 1 -11 1674.16 404.341 6
-5 1 -12 426.529 228.959 6
-5 0 14 7266.25 1139.96 5
-5 0 13 79.1498 151.735 5
-5 0 12 5719.48 980.666 5
-5 0 11 2578.52 647.514 5
-5 0 10 1468.92 460.186 5
-5 0 9 596.827 289.617 5
-5 0 8 22521.7 1740.18 5
-5 0 7 1742.66 449.909 5
-5 0 6 1326.92 408.564 5
-5 0 5 539.813 225.171 5
-5 0 4 1244.56 366.044 5
-5 0 3 18678.4 1382.58 5
-5 0 2 7923.4 847.086 6
-5 0 1 132.96 96.0129 6
-5 0 0 337.308 141.348 6
-5 0 -1 1113.78 302.625 6
5 0 1 821.408 213.538 4
-5 0 -2 15091.8 1122.04 6
5 0 2 14939.2 892.509 4
-5 0 -3 10494.8 933.291 6
5 0 3 10737 758.999 4
-5 0 -4 7525.26 785.024 6
5 0 4 6507.19 595.81 4
-5 0 -5 291.528 164.041 6
5 0 5 125.977 102.381 4
-5 0 -6 2682.85 478.341 6
-5 0 -7 1225.08 328.978 6
-5 0 -8 -44.6324 73.2264 6
-5 0 -9 402.141 173.519 6
-5 0 -10 214.669 158.065 6
-5 0 -11 205.338 153.426 6
-5 0 -12 95.5616 94.5817 6
-5 -1 14 4902.76 915.968 5
-5 -1 13 5683.13 980.374 5
-5 -1 12 211.397 197.927 5
-5 -1 11 561.979 284.496 5
-5 -1 10 1078.24 376.821 5
-5 -1 9 4181.54 756.131 5
-5 -1 8 8673.47 1053.58 5
-5 -1 7 109.327 166.919 5
-5 -1 6 18857.8 1461.17 5
-5 -1 5 391.342 218.692 5
5 1 -5 701.909 176.198 1
-5 -1 4 1282.46 383.182 5
-5 -1 3 779.837 313.258 5
-5 -1 2 -114.001 145.889 6
-5 -1 1 4077.97 596.428 6
-5 -1 0 5450.51 687.401 6
-5 -1 -1 40.2198 82.6024 6
-5 -1 -2 64.6474 91.8635 6
-5 -1 -3 913.633 287.863 6
5 1 3 284.696 121.653 4
-5 -1 -4 2385.63 449.38 6
-5 -1 -5 -56.3977 150.748 6
-5 -1 -6 181.904 116.9 6
-5 -1 -7 1542.36 376.034 6
-5 -1 -8 1954.75 417.727 6
-5 -1 -9 1139.5 339.007 6
-5 -1 -10 1299.96 358.009 6
-5 -1 -11 9.91182 77.5542 6
-5 -1 -12 329.357 224.113 6
-5 -2 12 -146.18 206.26 5
-5 -2 11 1487.44 472.748 5
-5 -2 10 -65.7712 106.004 5
-5 -2 9 6155.65 910.83 5
-5 -2 8 1881.04 472.955 5
-5 -2 7 5542.15 810.645 5
5 2 -7 4935.13 532.505 1
-5 -2 6 2452.21 517.707 5
5 2 -6 2415.09 364.663 1
5 2 -5 7238.84 614.796 1
-5 -2 5 6817.7 852.004 5
-5 -2 4 9040.54 944.169 5
-5 -2 3 4419.47 644.739 6
-5 -2 2 1852.72 410.012 6
-5 -2 1 119.956 164.798 6
-5 -2 0 958.015 324.631 6
-5 -2 -1 267.461 138.458 6
-5 -2 -2 3059.06 498.242 6
-5 -2 -3 55.8577 60.5612 6
-5 -2 -4 472.643 226.819 6
-5 -2 -5 11045.9 971.897 6
-5 -2 -6 143.242 75.5631 6
-5 -2 -7 1930.5 422.93 6
-5 -2 -8 721.968 269.168 6
-5 -2 -9 1386.94 384.098 6
-5 -2 -10 155.991 173.254 6
-5 -2 -11 1476.77 407.905 6
5 3 -12 1389.84 456.423 7
-5 -3 11 615.42 294.594 5
-5 -3 10 1393.11 432.504 5
-5 -3 9 1099.68 369.307 5
-5 -3 8 127.425 89.4731 5
5 3 -8 160.577 79.199 1
5 3 -7 4716.32 562.267 1
-5 -3 7 4574.26 722.937 5
5 3 -6 2619.43 405.271 1
-5 -3 6 1721.38 435.132 5
5 3 -5 4038.15 501.101 1
-5 -3 5 4394.84 670.204 5
-5 -3 4 5525.14 746.13 6
5 3 -4 5933.53 596.959 1
-5 -3 4 6362.66 792.818 5
-5 -3 3 1036.56 315.654 6
-5 -3 2 13815.9 1122.55 6
-5 -3 1 4287.86 621.735 6
-5 -3 0 339.698 180.357 6
-5 -3 -1 3962.5 588.782 6
-5 -3 -2 3257.45 526.915 6
-5 -3 -3 6780.56 774.742 6
-5 -3 -4 474.631 204.183 6
-5 -3 -5 2753.21 498.267 6
-5 -3 -6 134.516 168.068 6
-5 -3 -7 457.656 253.854 6
-5 -3 -8 1361.69 371.575 6
-5 -3 -9 3375.76 607.241 6
-5 -3 -10 2487.46 539.804 6
5 4 -12 2511.07 620.847 7
5 4 -11 4762.69 830.799 7
5 4 -10 255.291 180.8 7
-5 -4 9 178.166 126.285 5
5 4 -9 424.022 193.417 1
-5 -4 8 -32.7356 133.744 5
5 4 -8 85.64 98.435 1
-5 -4 7 1251.59 363.542 5
5 4 -7 1609.03 352.778 1
5 4 -6 1843.14 363.301 1
-5 -4 6 2096.94 462.821 5
-5 -4 5 -35.3898 110.9 5
5 4 -5 17.2577 68.7906 1
-5 -4 4 5918.39 752.303 6
5 4 -4 5796.89 636.427 1
-5 -4 3 4441.59 635.939 6
-5 -4 2 3130.87 417.915 3
-5 -4 2 2628.95 495.283 6
-5 -4 1 245.342 182.903 6
-5 -4 1 93.0642 81.1773 3
-5 -4 0 1908.67 414.166 6
-5 -4 0 2036.64 343.449 3
-5 -4 -1 1139.65 309.235 6
-5 -4 -2 228.426 137.357 6
-5 -4 -3 4057.43 609.298 6
-5 -4 -4 223.098 200.119 6
-5 -4 -5 4947.09 694.648 6
-5 -4 -6 -127.448 147.221 6
-5 -4 -7 2188.18 507.574 6
-5 -4 -8 2866.9 563.168 6
-5 -4 -9 1196.8 383.354 6
5 5 -11 1598.99 473.924 7
5 5 -10 986.021 312.652 1
5 5 -10 1064.7 390.401 7
5 5 -9 -23.3544 98.9739 7
5 5 -9 -213.632 153.138 1
5 5 -8 1738.48 448.149 7
5 5 -8 1023.34 313.636 1
5 5 -7 99.0234 177.661 7
5 5 -7 -195.829 134.81 1
-5 -5 7 -46.5324 104.306 5
5 5 -6 2750.24 465.581 1
-5 -5 6 2318.83 494.034 5
5 5 -5 495.621 208.344 1
-5 -5 5 192.683 125.844 5
-5 -5 4 4664.95 686.492 6
5 5 -4 4385.12 586.506 1
-5 -5 3 83.2574 123.015 6
-5 -5 3 88.4893 66.2963 3
-5 -5 2 6505.86 779.192 6
-5 -5 2 6880.02 685.649 3
-5 -5 1 4653.73 565.749 3
-5 -5 1 4427.24 637.577 6
-5 -5 0 2276.25 473.202 6
-5 -5 0 1704.21 349.708 3
-5 -5 -1 323.069 157.583 6
-5 -5 -2 581.259 264.481 6
-5 -5 -3 150.641 146.939 6
-5 -5 -4 287.033 185.433 6
-5 -5 -5 788.771 290.918 6
-5 -5 -6 133.238 143.056 6
-5 -5 -7 330.412 183.621 6
-5 -5 -8 3159.29 592.97 6
5 6 -11 289.307 200.461 1
5 6 -11 550.254 305.043 7
5 6 -10 -27.9031 103.818 1
5 6 -10 96.6939 172.88 7
5 6 -9 -15.6168 78.7712 1
5 6 -9 116.852 178.941 7
5 6 -8 616.018 226.418 1
5 6 -8 987.017 341.692 7
5 6 -7 489.151 213.854 1
5 6 -7 749.48 311.486 7
5 6 -6 489.194 238.174 1
5 6 -6 30.5573 88.2402 7
-5 -6 5 -134.842 132.447 6
5 6 -5 171.446 157.996 1
-5 -6 5 58.355 155.576 5
5 6 -4 667.629 227.3 1
-5 -6 4 179.352 134.703 6
-5 -6 3 4334.7 588.11 3
-5 -6 3 3403.31 581.966 6
-5 -6 2 6317.98 708.337 3
-5 -6 2 4671.27 678.971 6
-5 -6 1 474.81 153.534 6
-5 -6 1 459.565 187.625 3
-5 -6 0 2289.08 479.719 6
-5 -6 0 1461.97 340.006 3
-5 -6 -1 1426.56 371.8 6
-5 -6 -1 1123.48 312.41 3
-5 -6 -2 1994.09 445.973 6
-5 -6 -3 264.03 170.891 6
-5 -6 -4 791.06 308.048 6
-5 -6 -5 1049.4 326.431 6
-5 -6 -6 150.902 161.824 6
-5 -6 -7 189.161 144.434 6
5 7 -10 78.2214 148.34 1
5 7 -10 176.302 127.656 7
5 7 -9 37.1181 93.0432 1
5 7 -9 32.7987 108.774 7
5 7 -8 234.464 198.267 1
5 7 -7 2473.82 510.719 1
5 7 -6 3141.6 564.237 1
-5 -7 5 3493.16 599.736 6
5 7 -5 3415.85 584.289 1
-5 -7 4 515.504 239.795 6
5 7 -4 1043.04 317.092 1
-5 -7 3 998.822 344.769 6
-5 -7 3 969.842 264.732 3
-5 -7 2 430.735 230.522 6
-5 -7 2 327.144 170.893 3
-5 -7 1 12923.3 1132.72 6
-5 -7 1 13678.7 1132.42 3
-5 -7 0 4072.27 639.416 6
-5 -7 0 4695.53 676.34 3
-5 -7 -1 186.847 178.592 6
-5 -7 -1 303.214 161.173 3
-5 -7 -2 25.6697 115.75 6
-5 -7 -3 1593.85 417.426 6
-5 -7 -4 1961.44 477.768 6
-5 -7 -5 -266.895 224.973 6
5 8 -8 720.038 319.019 1
5 8 -7 187.649 169.028 1
5 8 -6 337.983 202.01 1
5 8 -5 612.62 276.569 1
-5 -8 4 -55.7097 82.9145 3
5 8 -4 -197.607 156.656 1
-5 -8 3 225.957 167.176 6
-5 -8 3 120.402 115.66 3
-5 -8 2 1746.17 419.384 6
-5 -8 2 2296.45 488.064 3
-5 -8 1 1476.36 393.136 6
-5 -8 1 923.39 322.819 3
-5 -8 0 85.162 145.951 6
-5 -8 0 67.233 120.265 3
-5 -8 -1 175.371 162.756 6
-5 -8 -1 114.914 181.203 3
-5 -8 -2 1702.72 428.598 6
-5 -8 -3 69.6125 174.13 6
-5 -8 -4 281.595 181.114 6
-5 -9 4 655.118 266.728 3
-5 -9 3 282.371 199.653 3
-5 -9 2 239.858 150.666 3
-5 -9 1 3232.87 587.454 6
-5 -9 1 3788.69 676.723 3
-5 -9 0 1498.72 413.181 6
-5 -9 0 1190.06 379.501 3
-5 -9 -1 2669.94 547.488 6
-5 -9 -1 2680.49 588.997 3
-5 -9 -2 471.875 234.849 6
-5 -9 -2 508.994 278.559 3
-6 9 3 1311.42 475.125 5
-6 9 2 361.527 267.796 5
-6 8 4 111.348 190.793 5
-6 8 3 638.66 337.499 5
-6 8 2 2987.43 724.386 5
-6 8 1 363.564 210.65 5
-6 8 0 177.923 192.787 5
-6 8 -1 216.108 94.6073 5
-6 7 5 912.894 376.98 5
-6 7 4 3515.92 787.835 5
-6 7 3 21.3766 86.3091 5
-6 7 2 3787.21 771.091 5
6 -7 -2 3928.46 681.644 4
-6 7 1 235.776 206.472 5
6 -7 -1 431.546 244.951 4
-6 7 0 872.811 366.48 5
6 -7 0 1082.94 348.254 4
-6 7 -1 1120.05 390.103 5
6 -7 1 780.992 310.348 4
-6 7 -2 -349.747 234.649 5
6 -7 2 1105.11 387.337 4
-6 7 -3 -143.455 171.712 5
6 -7 3 440.094 222.578 4
6 -7 4 88.1783 184.246 4
-6 6 7 3599.45 828.716 5
-6 6 6 59.3008 145.291 5
-6 6 5 1328.54 452.9 5
-6 6 4 -143.867 176.167 5
-6 6 3 1371.17 495.667 5
-6 6 2 703.453 333.926 5
6 -6 -2 98.8112 108.935 4
-6 6 1 -80.1066 177.09 5
6 -6 -1 -63.0114 134.486 4
-6 6 0 196.535 163.887 5
6 -6 0 103.46 178.46 4
-6 6 -1 856.517 354.004 5
6 -6 1 1314.08 383.008 4
-6 6 -2 -78.3464 127.569 5
6 -6 2 -85.2893 184.579 4
-6 6 -3 -1.6737 127.608 5
6 -6 3 82.3767 116.808 4
-6 6 -4 136.835 160.106 5
6 -6 4 159.492 185.336 4
6 -6 5 478.985 245.583 4
-6 6 -5 450.985 219.208 5
6 -6 6 1541.32 428.477 4
6 -6 7 4021.21 709.466 4
-6 5 8 621.162 376.515 5
-6 5 7 222.321 219.182 5
-6 5 6 2703.87 691.943 5
-6 5 5 1058.92 417.445 5
-6 5 4 1312.57 461.239 5
-6 5 3 5771.63 939.866 5
-6 5 2 160.235 160.051 5
6 -5 -2 -118.256 92.5157 4
-6 5 1 606.19 282.825 5
6 -5 -1 721.555 272.469 4
-6 5 0 1586.93 468.137 5
6 -5 0 1247.48 339.583 4
-6 5 -1 869.436 335.055 5
6 -5 1 727.707 276.613 4
-6 5 -2 4584.54 774.689 5
6 -5 2 5452.66 749.755 4
-6 5 -3 2368.01 553.467 5
6 -5 3 2106.73 478.729 4
-6 5 -4 1362.63 417.734 5
6 -5 4 732.511 301.843 4
-6 5 -5 1319.17 409.998 5
6 -5 5 723.644 273.085 4
6 -5 6 1036.02 353.084 4
6 -5 7 3579.54 644.497 4
6 -5 8 139.504 120.274 4
-6 4 8 2273 658.336 5
-6 4 7 1002.58 422.926 5
-6 4 6 39.1843 133.723 5
-6 4 5 46.532 77.0043 5
-6 4 4 2018.6 571.318 5
-6 4 3 1087.91 354.411 5
-6 4 2 141.697 136.835 5
-6 4 1 991.913 374.475 5
6 -4 -1 1042.56 286.113 4
-6 4 0 83.4157 171.56 5
6 -4 0 -52.1644 100.813 4
-6 4 -1 2705.63 586.345 5
6 -4 1 3338.64 564.337 4
-6 4 -2 271.192 170.3 5
6 -4 2 -164.587 152.533 4
-6 4 -3 480.605 279.638 5
6 -4 3 242.003 165.85 4
6 -4 4 4013.51 636.175 4
-6 4 -5 -286.563 181.609 6
6 -4 5 118.331 129.519 4
6 -4 6 1733.77 413.138 4
-6 4 -6 2917.54 559.041 6
6 -4 7 -54.4299 110.104 4
6 -4 8 308.952 204.457 4
-6 3 9 3206.59 770.759 5
-6 3 8 332.399 224.317 5
-6 3 7 56.9214 286.382 5
-6 3 6 4299.6 840.419 5
-6 3 5 411.8 295.802 5
-6 3 4 9604.55 1181.33 5
-6 3 3 -11.6962 201.842 5
-6 3 2 17836.8 1556.77 5
-6 3 1 996.033 362.772 5
6 -3 -1 1212.06 352.148 4
-6 3 0 164.884 198.864 5
6 -3 0 11.4689 136.449 4
-6 3 -1 2787.84 587.544 5
6 -3 1 1615.89 368.641 4
6 -3 2 3951.49 583.635 4
-6 3 -3 4227.93 673.986 6
6 -3 3 5441.05 695.324 4
-6 3 -4 328.503 219.179 6
6 -3 4 117.244 65.2259 4
-6 3 -5 -105.776 123.757 6
6 -3 5 62.9881 138.267 4
-6 3 -6 1431.71 386.83 6
6 -3 6 1926.83 443.07 4
6 -3 7 1735.39 414.801 4
-6 3 -7 1347.11 361.48 6
-6 3 -8 761.203 300.803 6
-6 2 10 2729.23 722.948 5
-6 2 9 181.839 222.094 5
-6 2 8 785.202 353.907 5
-6 2 7 1478.43 530.134 5
-6 2 6 424.908 283.54 5
-6 2 5 -177.189 234.896 5
-6 2 4 142.283 136.828 5
-6 2 3 2166.44 552.817 5
-6 2 2 4649.98 789.853 5
-6 2 1 5808.8 854.102 5
-6 2 0 397.333 256.945 5
6 -2 0 74.1945 109.052 4
-6 2 -1 5457.64 756.79 6
6 -2 1 5456.01 662.041 4
-6 2 -2 7080.15 874.399 6
6 -2 2 6924.22 750.456 4
-6 2 -3 268.855 194.067 6
6 -2 3 437.478 184.017 4
-6 2 -4 261.307 162.987 6
6 -2 4 1231.63 312.374 4
-6 2 -5 3824.1 635.885 6
6 -2 5 4211.02 593.471 4
-6 2 -6 264.494 188.636 6
-6 2 -7 1816.13 440.956 6
-6 2 -8 118.848 72.5166 6
-6 2 -9 230.704 180.645 6
-6 1 10 1341.3 491.559 5
-6 1 9 1138.39 453.243 5
-6 1 8 1388.47 485.869 5
-6 1 7 243.228 221.287 5
-6 1 6 1333.96 450.379 5
-6 1 5 7750.88 1050.64 5
-6 1 4 1254.61 413.032 5
-6 1 3 -21.9557 92.6442 5
-6 1 2 1881.01 505.388 5
-6 1 1 8893.81 1054.01 5
-6 1 0 565.573 265.642 6
-6 1 -1 2344.46 518.966 6
6 -1 1 2332 421.666 4
-6 1 -2 1695.01 453.104 6
6 -1 2 2183.67 413.187 4
-6 1 -3 23077.6 1565.44 6
6 -1 3 24088.5 1339.86 4
-6 1 -4 2999.32 555.802 6
-6 1 -5 53.2695 124.448 6
-6 1 -6 320.556 208.073 6
-6 1 -7 2250.79 507.738 6
-6 1 -8 55.9857 91.4908 6
-6 1 -9 2448.66 521.399 6
-6 1 -10 484.26 236.208 6
-6 0 11 1739.62 575.798 5
-6 0 10 1701.54 557.885 5
-6 0 9 -30.4036 122.255 5
-6 0 8 5894.69 984.18 5
-6 0 7 7092.99 1044.44 5
-6 0 6 294.988 237.581 5
-6 0 5 83.5326 107.858 5
-6 0 4 5534.62 848.168 5
-6 0 3 5265.76 816.14 5
-6 0 2 5873.62 859.027 5
-6 0 1 836.038 338.9 6
-6 0 0 189.708 126.319 6
-6 0 -1 1189.39 366.247 6
-6 0 -2 2159.51 471.845 6
-6 0 -3 6563.74 838.493 6
-6 0 -4 7590.03 892.049 6
-6 0 -5 4.08208 131.477 6
-6 0 -6 2572.29 519.3 6
-6 0 -7 49.0212 107.595 6
-6 0 -8 4179.52 680.869 6
-6 0 -9 131.473 158.59 6
-6 -1 11 1067.2 450.312 5
-6 -1 10 -352.073 258.775 5
-6 -1 9 45.2814 76.2346 5
-6 -1 8 7966.54 1119.93 5
-6 -1 7 1014.85 391.175 5
-6 -1 6 1125.6 377.103 5
-6 -1 5 2239.33 553.943 5
-6 -1 4 256.375 189.347 5
-6 -1 3 1066.07 399.911 5
-6 -1 2 622.802 279.701 6
-6 -1 1 6102.89 835.632 6
-6 -1 0 5592.67 789.247 6
-6 -1 -1 1731.4 439.322 6
-6 -1 -2 928.913 329.206 6
-6 -1 -3 127.693 165.7 6
-6 -1 -4 -51.2651 123.927 6
-6 -1 -5 1747.43 443.058 6
-6 -1 -6 1478.19 403.509 6
-6 -1 -7 4190.57 695.786 6
-6 -1 -8 489.345 228.043 6
-6 -2 11 -171.8 202.094 5
-6 -2 10 -107.415 198.838 5
-6 -2 9 1146.05 412.204 5
-6 -2 8 3929.14 781.351 5
-6 -2 7 3570.79 722.456 5
-6 -2 6 1100.6 379.061 5
-6 -2 5 448.571 236.66 5
-6 -2 4 1578.91 481.847 5
-6 -2 3 10780.3 1166.2 5
-6 -2 2 1100.14 362.13 6
-6 -2 1 5614.68 795.274 6
-6 -2 0 134.633 223.693 6
-6 -2 -1 953.327 330.88 6
-6 -2 -2 199.871 237.561 6
-6 -2 -3 157.29 138.613 6
-6 -2 -4 360.694 222.315 6
-6 -2 -5 1404.17 400.186 6
-6 -2 -6 395.32 222.89 6
-6 -2 -7 1918.26 465.325 6
-6 -2 -8 2505.24 533.493 6
-6 -3 10 45.8852 105.993 5
-6 -3 9 919.238 386.395 5
-6 -3 8 980.231 382.345 5
-6 -3 7 126.219 125.835 5
-6 -3 6 52.7354 151.42 5
-6 -3 5 -194.025 247.057 5
-6 -3 4 2474.76 549.82 5
-6 -3 3 290.868 225.168 6
-6 -3 2 5225 791.661 6
-6 -3 1 -176.569 213.837 6
-6 -3 0 2805.83 558.804 6
-6 -3 -1 17.0073 101.839 6
-6 -3 -2 481.447 212.377 6
-6 -3 -3 777.215 292.333 6
-6 -3 -4 41.5147 128.539 6
-6 -3 -5 529.599 253.425 6
-6 -3 -6 757.218 305.053 6
-6 -4 9 2024.16 533.362 5
-6 -4 8 954.199 349.74 5
-6 -4 7 -90.3227 222.939 5
-6 -4 6 257.29 195.818 5
-6 -4 5 174.777 216.425 5
-6 -4 4 1065.15 372.863 5
-6 -4 3 104.962 115.786 6
-6 -4 2 519.21 289.3 6
-6 -4 1 1112.53 362.831 6
-6 -4 0 69.2015 183.892 6
-6 -4 -1 1854.87 475.087 6
-6 -4 -2 33.0793 127.077 6
-6 -4 -3 948.162 349.843 6
-6 -4 -4 159.891 224.123 6
-6 -4 -5 156.088 114.192 6
6 5 -9 252.138 252.742 7
6 5 -8 760.394 321.288 7
-6 -5 7 -146.577 107.47 5
-6 -5 6 326.909 194.536 5
-6 -5 5 284.883 228.861 5
-6 -5 4 361.425 228.85 6
-6 -5 3 569.347 268.403 6
-6 -5 2 -54.5662 104.762 6
-6 -5 1 2748.4 576.116 6
-6 -5 0 198.865 181.918 6
-6 -5 -1 -167.337 205.513 6
-6 -5 -2 -214.298 187.13 6
-6 -5 -3 254.069 173.67 6
-6 -5 -4 -48.5265 129.646 6
6 6 -6 540.697 238.472 1
-6 -6 5 1250.59 391.484 5
-6 -6 4 341.91 232.959 6
-6 -6 3 35.3996 99.0854 6
-6 -6 2 873.023 332.471 6
-6 -6 1 389.145 284.967 6
-6 -6 0 2153.69 526.158 6
-6 -6 -1 144.858 134.164 6
-6 -6 -2 224.543 219.426 6
6 7 -6 130.692 134.243 1
-6 -7 4 -76.1695 155.63 6
-6 -7 3 476.727 261.846 6
-6 -7 2 2952.79 623.793 6
-6 -7 1 254.374 203.422 6
-6 -7 0 1428.27 454.781 6
-6 -8 2 125.033 153.87 6
-7 6 -1 1073.82 413.445 5
-7 6 -2 1544.83 504.755 5
-7 6 -3 1017.84 377.358 5
-7 5 1 194.937 235.832 5
-7 5 0 330.81 248.716 5
7 -5 0 63.6193 91.827 4
-7 5 -1 332.768 182.281 5
7 -5 1 1.94032 100.727 4
-7 5 -2 107.398 212.85 5
7 -5 2 80.7282 118.365 4
-7 5 -3 783.27 370.513 5
7 -5 3 1838.14 476.457 4
-7 5 -4 -153.94 158.015 5
-7 4 3 108.678 134.91 5
-7 4 2 -187.589 258.036 5
-7 4 1 164.988 164.622 5
-7 4 0 860.987 401.382 5
7 -4 0 548.093 292.276 4
-7 4 -1 285.318 215.852 5
7 -4 1 268.07 212.753 4
-7 4 -2 350.218 232.54 5
7 -4 2 -209.512 165.432 4
-7 4 -3 435.941 263.633 5
7 -4 3 520.817 260.436 4
-7 4 -4 289.279 212.995 5
7 -4 4 142.316 119.892 4
-7 3 4 -161.139 232.141 5
-7 3 3 38.0034 92.925 5
-7 3 2 -577.576 322.135 5
-7 3 1 1398.52 532.443 5
-7 3 0 1005.46 434.908 5
-7 3 -1 1143.59 432.987 5
7 -3 1 1064.78 332.681 4
-7 3 -2 1153.8 392.086 5
7 -3 2 969.823 310.448 4
-7 3 -3 -44.3929 101.648 5
7 -3 3 169.189 188.971 4
-7 3 -4 1475.71 422.318 6
-7 3 -5 784.133 354.167 6
-7 3 -6 249.934 194.91 6
-7 2 5 548.282 349.838 5
-7 2 4 4483.69 875.407 5
-7 2 3 3836.11 784.121 5
-7 2 2 197.669 205.514 5
-7 2 1 211.548 172.245 5
-7 2 0 169.057 237.283 5
-7 2 -1 224.559 188.312 5
-7 2 -2 651.226 310.75 6
-7 2 -3 995.243 393.458 6
-7 2 -4 1215.46 388.275 6
-7 2 -5 934.762 329.812 6
-7 2 -6 -50.3297 108.87 6
-7 1 5 260.705 269.016 5
-7 1 4 2151.52 620.492 5
-7 1 3 -200.199 198.188 5
-7 1 2 2824.45 658.171 5
-7 1 1 400.009 244.406 5
-7 1 0 1007.14 413.293 5
-7 1 -1 3572.64 688.724 6
-7 1 -2 3188.89 641.864 6
-7 1 -3 600.195 281.517 6
-7 1 -4 53.2359 88.6999 6
-7 1 -5 2523.76 575.448 6
-7 0 6 151.859 125.95 5
-7 0 5 56.5153 122.777 5
-7 0 4 1696.11 538.175 5
-7 0 3 17.7719 89.4671 5
-7 0 2 1604.1 544.462 5
-7 0 1 355.911 286.379 5
-7 0 0 854.092 366.871 6
-7 0 -1 205.522 205.206 6
-7 0 -2 2327.62 568.366 6
-7 0 -3 2944.86 608.095 6
-7 0 -4 3828.6 715.796 6
-7 -1 6 2306.27 637.367 5
-7 -1 5 911.733 429.728 5
-7 -1 4 633.169 350.653 5
-7 -1 3 2169.12 558.315 5
-7 -1 2 769.148 357.992 5
-7 -1 1 978.539 407.638 6
-7 -1 0 3319.27 702.098 6
-7 -1 -1 552.902 289.337 6
-7 -1 -2 1506.69 455.674 6
-7 -1 -3 628.601 278.553 6
-7 -2 6 5.98098 142.628 5
-7 -2 5 120.314 243.227 5
-7 -2 4 322.842 269.706 5
-7 -2 3 707.869 341.915 5
-7 -2 2 283.799 248.988 6
-7 -2 2 238.978 143.08 5
-7 -2 1 911.958 379.17 6
-7 -2 0 521.464 280.636 6
-7 -2 -1 1195.18 414.424 6
-7 -3 6 -386.807 269.774 5
-7 -3 5 3188.11 717.109 5
-7 -3 4 749.12 362.155 5
-7 -3 3 1148.7 444.103 5
-7 -4 4 603.217 309.476 5
