#------------------------------------------------------------------------------
#$Date: 2019-11-11 18:34:20 +0200 (Mon, 11 Nov 2019) $
#$Revision: 226917 $
#$URL: file:///home/coder/svn-repositories/cod/cif/4/03/54/4035462.cif $
#------------------------------------------------------------------------------
#
# This file is available in the Crystallography Open Database (COD),
# http://www.crystallography.net/
#
# All data on this site have been placed in the public domain by the
# contributors.
#
data_4035462
loop_
_publ_author_name
'Mao, Weipeng'
'Zhan, Shuaijun'
'Zhu, Bowei'
'Ma, Da'
_publ_section_title
;
 Step-Growth Cyclo-Oligomerization for the Preparation of Di- and
 Tetrafunctionalized Pillar[5]arenes.
;
_journal_issue                   7
_journal_name_full               'The Journal of organic chemistry'
_journal_page_first              4147
_journal_page_last               4152
_journal_paper_doi               10.1021/acs.joc.8b00073
_journal_volume                  83
_journal_year                    2018
_chemical_formula_sum            'C26 H30 O6'
_chemical_formula_weight         438.50
_space_group_crystal_system      triclinic
_space_group_IT_number           2
_space_group_name_Hall           '-P 1'
_space_group_name_H-M_alt        'P -1'
_atom_sites_solution_hydrogens   geom
_audit_creation_method           SHELXL-2014/7
_cell_angle_alpha                104.552(13)
_cell_angle_beta                 105.653(14)
_cell_angle_gamma                109.975(9)
_cell_formula_units_Z            1
_cell_length_a                   7.765(5)
_cell_length_b                   8.873(6)
_cell_length_c                   9.701(10)
_cell_measurement_reflns_used    1689
_cell_measurement_temperature    296(2)
_cell_measurement_theta_max      27.35
_cell_measurement_theta_min      2.64
_cell_volume                     559.6(8)
_computing_cell_refinement       'Bruker SAINT'
_computing_data_collection       'Bruker APEX2'
_computing_data_reduction        'Bruker SAINT'
_computing_molecular_graphics    'Bruker SHELXTL'
_computing_publication_material  'Bruker SHELXTL'
_computing_structure_refinement  'SHELXL-2014/7 (Sheldrick, 2014)'
_computing_structure_solution    'SHELXS-97 (Sheldrick, 2008)'
_diffrn_ambient_temperature      296(2)
_diffrn_measured_fraction_theta_full 0.982
_diffrn_measured_fraction_theta_max 0.979
_diffrn_measurement_device_type  'Bruker APEX-II CCD'
_diffrn_measurement_method       '\f and \w scans'
_diffrn_radiation_type           MoK\a
_diffrn_radiation_wavelength     0.71073
_diffrn_reflns_av_R_equivalents  0.0228
_diffrn_reflns_av_unetI/netI     0.0412
_diffrn_reflns_Laue_measured_fraction_full 0.982
_diffrn_reflns_Laue_measured_fraction_max 0.979
_diffrn_reflns_limit_h_max       10
_diffrn_reflns_limit_h_min       -9
_diffrn_reflns_limit_k_max       11
_diffrn_reflns_limit_k_min       -10
_diffrn_reflns_limit_l_max       12
_diffrn_reflns_limit_l_min       -11
_diffrn_reflns_number            4100
_diffrn_reflns_point_group_measured_fraction_full 0.982
_diffrn_reflns_point_group_measured_fraction_max 0.979
_diffrn_reflns_theta_full        25.242
_diffrn_reflns_theta_max         27.535
_diffrn_reflns_theta_min         2.357
_exptl_absorpt_coefficient_mu    0.092
_exptl_absorpt_correction_T_max  0.901
_exptl_absorpt_correction_T_min  0.778
_exptl_absorpt_correction_type   multi-scan
_exptl_absorpt_process_details   sadabs
_exptl_crystal_colour            colourless
_exptl_crystal_density_diffrn    1.301
_exptl_crystal_description       block
_exptl_crystal_F_000             234
_exptl_crystal_size_max          0.660
_exptl_crystal_size_mid          0.240
_exptl_crystal_size_min          0.200
_refine_diff_density_max         0.268
_refine_diff_density_min         -0.242
_refine_diff_density_rms         0.069
_refine_ls_extinction_coef       0.069(18)
_refine_ls_extinction_expression Fc^*^=kFc[1+0.001xFc^2^\l^3^/sin(2\q)]^-1/4^
_refine_ls_extinction_method     'SHELXL-2014/7 (Sheldrick 2014'
_refine_ls_goodness_of_fit_ref   0.991
_refine_ls_hydrogen_treatment    constr
_refine_ls_matrix_type           full
_refine_ls_number_parameters     149
_refine_ls_number_reflns         2534
_refine_ls_number_restraints     6
_refine_ls_restrained_S_all      0.992
_refine_ls_R_factor_all          0.0653
_refine_ls_R_factor_gt           0.0498
_refine_ls_shift/su_max          0.002
_refine_ls_shift/su_mean         0.000
_refine_ls_structure_factor_coef Fsqd
_refine_ls_weighting_details
'w=1/[\s^2^(Fo^2^)+(0.1273P)^2^] where P=(Fo^2^+2Fc^2^)/3'
_refine_ls_weighting_scheme      calc
_refine_ls_wR_factor_gt          0.1570
_refine_ls_wR_factor_ref         0.1749
_reflns_Friedel_coverage         0.000
_reflns_number_gt                1911
_reflns_number_total             2534
_reflns_threshold_expression     'I > 2\s(I)'
_cod_data_source_file            jo8b00073_si_003.cif
_cod_data_source_block           mo_60627aa
_cod_database_code               4035462
_shelx_shelxl_version_number     2014/7
_shelx_space_group_comment
; 
The symmetry employed for this shelxl refinement is uniquely defined 
by the following loop, which should always be used as a source of 
symmetry information in preference to the above space-group names. 
They are only intended as comments. 
;
_shelx_estimated_absorpt_t_min   0.942
_shelx_estimated_absorpt_t_max   0.982
_shelx_res_file
; 
  
    mo_60627aa.res created by SHELXL-2014/7 
  
TITL mo_60627aa in P-1 
CELL 0.71073   7.7647   8.8735   9.7009 104.552 105.653 109.975 
ZERR    1.00   0.0050   0.0055   0.0097   0.013   0.014   0.009 
LATT 1 
SFAC C  H  O 
UNIT 26 30 6 
OMIT 1 -1 1 
OMIT 1 3 4 
OMIT -6 3 0 
OMIT -6 2 2 
OMIT -5 1 2 
L.S. 5 
ACTA 
BOND 
FMAP 2 
PLAN 1 
SIZE 0.20 0.24 0.66 
ISOR 0.02 C13 
CONF 
TEMP 23.000 
WGHT    0.127300 
EXTI    0.068721 
FVAR       0.40901 
MOLE 1 
O1    3    0.513348    0.563211    0.237141    11.00000    0.04540    0.05921 = 
         0.04738    0.02881    0.02067    0.02964 
O2    3    0.189432    0.760986    0.540259    11.00000    0.06386    0.04554 = 
         0.05480    0.02408    0.03324    0.02886 
O3    3    0.259694    0.944211    0.048286    11.00000    0.14358    0.04668 = 
         0.04920    0.02495    0.04103    0.04542 
C1    1    0.671360    0.526086    0.473071    11.00000    0.03277    0.03354 = 
         0.04590    0.01491    0.01410    0.01837 
AFIX  43 
H1    2    0.786497    0.543918    0.454102    11.00000   -1.20000 
AFIX   0 
C2    1    0.512861    0.533932    0.369864    11.00000    0.03794    0.02931 = 
         0.03891    0.01271    0.01371    0.01769 
C3    1    0.339441    0.507639    0.397185    11.00000    0.03199    0.02612 = 
         0.04088    0.01009    0.00888    0.01569 
C4    1    0.165328    0.515582    0.286135    11.00000    0.03334    0.03199 = 
         0.04449    0.01378    0.00796    0.01632 
AFIX  23 
H4A   2    0.136756    0.444098    0.181487    11.00000   -1.20000 
H4B   2    0.048823    0.466516    0.308647    11.00000   -1.20000 
AFIX   0 
C5    1    0.200244    0.697013    0.293445    11.00000    0.02726    0.03154 = 
         0.04194    0.01179    0.00663    0.01562 
C6    1    0.214247    0.818787    0.424618    11.00000    0.03360    0.03781 = 
         0.04512    0.01728    0.01625    0.01955 
C7    1    0.247526    0.984649    0.431489    11.00000    0.05152    0.03852 = 
         0.04707    0.01281    0.02111    0.02473 
AFIX  43 
H7    2    0.259296    1.065462    0.520126    11.00000   -1.20000 
AFIX   0 
C8    1    0.263462    1.031613    0.308473    11.00000    0.05934    0.03286 = 
         0.05240    0.01665    0.02085    0.02385 
AFIX  43 
H8    2    0.285894    1.143277    0.314097    11.00000   -1.20000 
AFIX   0 
C9    1    0.245817    0.911502    0.177393    11.00000    0.06150    0.03869 = 
         0.04111    0.01700    0.01675    0.02516 
C10   1    0.215151    0.745088    0.171604    11.00000    0.04818    0.03334 = 
         0.03950    0.00938    0.01114    0.02078 
AFIX  43 
H10   2    0.204575    0.664925    0.083110    11.00000   -1.20000 
AFIX   0 
C11   1    0.688488    0.596027    0.207848    11.00000    0.05134    0.07018 = 
         0.05890    0.03537    0.02768    0.02715 
AFIX 137 
H11A  2    0.798337    0.694340    0.293189    11.00000   -1.50000 
H11B  2    0.671251    0.619622    0.115015    11.00000   -1.50000 
H11C  2    0.714930    0.496426    0.195425    11.00000   -1.50000 
AFIX   0 
C12   1    0.211544    0.883474    0.677242    11.00000    0.07118    0.05849 = 
         0.05139    0.01923    0.03174    0.02721 
AFIX 137 
H12A  2    0.335925    0.984332    0.715047    11.00000   -1.50000 
H12B  2    0.209581    0.833395    0.754100    11.00000   -1.50000 
H12C  2    0.104133    0.915836    0.655560    11.00000   -1.50000 
AFIX   0 
C13   1    0.302939    1.116192    0.056741    11.00000    0.22616    0.05478 = 
         0.07171    0.04099    0.06824    0.06386 
AFIX 137 
H13A  2    0.199958    1.144885    0.073908    11.00000   -1.50000 
H13B  2    0.309694    1.124554   -0.038595    11.00000   -1.50000 
H13C  2    0.428371    1.195287    0.140619    11.00000   -1.50000 
AFIX   0 
HKLF 4 
  
REM  mo_60627aa in P-1 
REM R1 =  0.0498 for    1911 Fo > 4sig(Fo)  and  0.0653 for all    2534 data 
REM    149 parameters refined using      6 restraints 
  
END 
  
WGHT      0.1062      0.0181 
  
REM Highest difference peak  0.268,  deepest hole -0.242,  1-sigma level  0.069 
Q1    1   0.2692  0.5178  0.3516  11.00000  0.05    0.27 
;
_shelx_res_checksum              60942
_shelx_hkl_file
; 
   3   0  -3   34.17    1.36 
  -3   0   3   35.40    1.22 
   4   0  -4    8.03    0.38 
  -4   0   4    8.70    0.34 
   5   0  -5    1.81    0.16 
  -5   0   5    2.03    0.15 
   6   0  -6   -0.13    0.10 
  -6   0   6   -0.03    0.07 
   7   0  -7    5.95    0.35 
  -7   0   7    5.46    0.29 
   8   0  -8    0.77    0.17 
  -8   0   8    0.59    0.13 
  -9   1   8    0.21    0.12 
   9  -1  -8    0.12    0.17 
  -8   1   7    4.50    0.27 
   8  -1  -7    4.24    0.31 
  -7   1   6    0.47    0.10 
   7  -1  -6    0.32    0.12 
  -6   1   5    1.24    0.13 
   6  -1  -5    1.89    0.18 
  -4   1   3   12.58    0.54 
   4  -1  -3   16.81    0.61 
  -3   1   2   84.31    2.92 
  -3   1   2   86.03    3.05 
  -2   1   1  102.14    3.52 
  -2   1   1  102.76    3.69 
   2  -1  -1  104.97    3.92 
  -1   1   0   31.59    1.10 
  -1   1   0   32.47    1.16 
   1  -1   0   32.45    1.23 
   0   1  -1    0.08    0.02 
   0   1  -1    0.14    0.02 
   0  -1   1    0.16    0.02 
   0  -1   1    0.10    0.03 
  -1  -1   2   19.83    0.69 
  -1  -1   2   19.56    0.78 
  -3  -1   4   48.02    1.85 
  -3  -1   4   46.94    1.65 
  -4  -1   5    0.12    0.05 
  -4  -1   5    0.01    0.03 
   5   1  -6    0.10    0.05 
  -5  -1   6    0.22    0.07 
   6   1  -7    2.87    0.23 
  -6  -1   7    2.49    0.18 
   7   1  -8    0.12    0.11 
  -7  -1   8   -0.13    0.08 
   8   1  -9    2.98    0.28 
  -8  -1   9    2.73    0.23 
  -9   2   7    0.84    0.14 
   9  -2  -7    0.85    0.18 
  -8   2   6    3.41    0.23 
   8  -2  -6    3.42    0.27 
  -7   2   5    3.47    0.21 
   7  -2  -5    3.42    0.25 
  -6   2   4    2.48    0.17 
   6  -2  -4    2.58    0.20 
  -5   2   3    4.80    0.23 
  -5   2   3    4.98    0.22 
   5  -2  -3    5.17    0.28 
  -4   2   2    6.77    0.28 
   4  -2  -2    6.84    0.32 
  -3   2   1   15.43    0.58 
  -3   2   1   15.35    0.55 
  -2   2   0    0.73    0.06 
  -2   2   0    0.74    0.06 
   2  -2   0    0.82    0.07 
  -1   2  -1    0.67    0.03 
   1  -2   1    0.76    0.06 
   1  -2   1    0.74    0.04 
   0   2  -2   59.11    2.10 
   0  -2   2   57.80    2.24 
   0  -2   2   58.89    2.00 
   1   2  -3    8.15    0.29 
  -1  -2   3    6.11    0.32 
  -1  -2   3    7.83    0.28 
   2   2  -4   99.85    3.69 
  -2  -2   4  106.59    3.95 
   3   2  -5   34.28    1.23 
  -3  -2   5   33.10    1.20 
  -3  -2   5   34.98    1.36 
  -4  -2   6    6.23    0.28 
  -5  -2   7   13.41    0.55 
  -5  -2   7   14.31    0.65 
   6   2  -8    0.45    0.13 
  -6  -2   8    0.50    0.15 
  -6  -2   8    0.37    0.10 
   7   2  -9    0.08    0.13 
  -7  -2   9    0.06    0.09 
  -9   3   6    0.25    0.12 
   9  -3  -6    0.05    0.12 
  -8   3   5    1.49    0.16 
   8  -3  -5    1.44    0.18 
  -7   3   4    0.34    0.09 
   7  -3  -4    0.25    0.11 
  -6   3   3   21.59    0.80 
  -6   3   3   22.02    0.82 
   6  -3  -3   20.97    0.90 
  -5   3   2   44.16    1.56 
  -5   3   2   45.39    1.63 
   5  -3  -2   43.89    1.75 
  -4   3   1    3.00    0.15 
  -4   3   1    3.08    0.16 
   4  -3  -1    3.13    0.20 
  -3   3   0    4.84    0.21 
  -3   3   0    4.74    0.19 
  -2   3  -1  100.74    3.43 
   2  -3   1  101.01    3.83 
  -1   3  -2    9.13    0.36 
   1  -3   2    9.21    0.39 
   1   3  -4   12.45    0.48 
  -1  -3   4   12.92    0.54 
  -1  -3   4   12.68    0.46 
   2   3  -5    5.26    0.22 
  -2  -3   5    5.12    0.22 
  -2  -3   5    5.35    0.29 
   3   3  -6    0.82    0.07 
  -3  -3   6    0.71    0.08 
  -3  -3   6    0.96    0.13 
  -4  -3   7   18.98    0.73 
  -4  -3   7   19.76    0.85 
  -5  -3   8    2.15    0.17 
  -5  -3   8    2.01    0.21 
  -6  -3   9    0.05    0.12 
   7   3 -10    0.59    0.17 
  -9   4   5   -0.02    0.10 
   9  -4  -5    0.04    0.13 
  -8   4   4    0.61    0.12 
   8  -4  -4    0.42    0.13 
  -7   4   3    0.13    0.07 
  -7   4   3    0.10    0.07 
   7  -4  -3    0.28    0.11 
  -6   4   2    1.58    0.15 
  -6   4   2    1.47    0.12 
   6  -4  -2    1.38    0.16 
  -5   4   1   11.26    0.44 
  -5   4   1   11.62    0.47 
   5  -4  -1   11.68    0.51 
  -4   4   0   -0.05    0.04 
  -4   4   0   -0.01    0.05 
   4  -4   0    0.01    0.06 
  -3   4  -1   18.54    0.66 
  -3   4  -1   19.32    0.71 
   3  -4   1   18.70    0.76 
  -2   4  -2    0.56    0.06 
   2  -4   2    1.03    0.09 
  -1   4  -3   38.94    1.45 
   1  -4   3   40.68    1.56 
   0   4  -4    9.63    0.39 
   0  -4   4   10.02    0.44 
   1   4  -5   37.54    1.36 
  -1  -4   5   36.94    1.48 
   2   4  -6    9.56    0.39 
  -2  -4   6   10.01    0.38 
  -2  -4   6    9.80    0.47 
  -3  -4   7    6.75    0.38 
  -3  -4   7    6.60    0.29 
  -4  -4   8    7.59    0.43 
  -5  -4   9    1.01    0.17 
  -6  -4  10    0.03    0.14 
  -9   5   4    0.00    0.10 
   9  -5  -4    0.10    0.13 
  -8   5   3    0.43    0.10 
  -8   5   3    0.26    0.09 
   8  -5  -3    0.53    0.13 
  -7   5   2    0.39    0.09 
  -7   5   2    0.23    0.09 
   7  -5  -2    0.31    0.12 
  -6   5   1   31.23    1.18 
  -6   5   1   31.01    1.12 
   6  -5  -1   31.20    1.27 
  -5   5   0    0.10    0.05 
  -5   5   0    0.16    0.07 
   5  -5   0    0.20    0.09 
  -4   5  -1   80.18    2.90 
  -4   5  -1   79.21    2.74 
   4  -5   1   80.19    3.08 
  -3   5  -2   56.26    2.32 
   3  -5   2   71.76    2.47 
  -2   5  -3   15.07    0.59 
   2  -5   3   14.90    0.63 
  -1   5  -4    9.70    0.40 
   1  -5   4   10.31    0.45 
   0   5  -5    1.69    0.13 
   0  -5   5    1.79    0.17 
   1   5  -6    2.76    0.17 
  -1  -5   6    2.81    0.23 
   2   5  -7    1.44    0.12 
  -2  -5   7    1.31    0.17 
  -3  -5   8    0.41    0.13 
  -4  -5   9    0.20    0.12 
  -5  -5  10    0.46    0.15 
  -9   6   3    1.22    0.16 
   9  -6  -3    1.23    0.19 
  -8   6   2    5.54    0.28 
  -8   6   2    4.99    0.30 
   8  -6  -2    5.84    0.36 
  -7   6   1   26.93    0.99 
  -7   6   1   26.70    1.04 
   7  -6  -1   26.92    1.13 
  -6   6   0    4.82    0.23 
  -6   6   0    4.98    0.28 
   6  -6   0    4.85    0.30 
  -5   6  -1    2.50    0.14 
  -5   6  -1    2.69    0.19 
   5  -6   1    2.29    0.20 
  -4   6  -2    0.05    0.05 
   4  -6   2    0.12    0.08 
  -3   6  -3    0.22    0.05 
   3  -6   3    0.50    0.09 
  -2   6  -4    0.56    0.09 
   2  -6   4    0.73    0.11 
  -1   6  -5   19.94    0.78 
   1  -6   5   20.82    0.86 
   0   6  -6   34.55    1.29 
   0  -6   6   34.81    1.41 
   1   6  -7    3.81    0.21 
  -1  -6   7    3.68    0.28 
  -2  -6   8    2.80    0.24 
  -3  -6   9    0.39    0.13 
  -4  -6  10    0.23    0.13 
  -9   7   2    7.18    0.39 
   9  -7  -2    6.73    0.43 
  -8   7   1    2.16    0.20 
   8  -7  -1    2.28    0.24 
  -7   7   0    0.15    0.10 
   7  -7   0    0.28    0.12 
  -6   7  -1    0.18    0.10 
   6  -7   1    0.16    0.11 
  -5   7  -2    0.69    0.11 
   5  -7   2    0.53    0.12 
  -4   7  -3    0.82    0.11 
   4  -7   3    0.73    0.12 
  -3   7  -4    0.11    0.08 
   3  -7   4    0.03    0.08 
  -2   7  -5   55.75    2.01 
   2  -7   5   53.11    2.15 
  -1   7  -6   99.27    3.65 
   1  -7   6  102.21    3.90 
   0   7  -7    0.03    0.07 
   0  -7   7    0.09    0.10 
   1   7  -8    4.00    0.23 
  -1  -7   8    3.73    0.30 
  -2  -7   9    1.03    0.18 
  -3  -7  10    0.51    0.15 
  -9   8   1    5.44    0.34 
   9  -8  -1    5.24    0.38 
  -8   8   0    0.64    0.14 
   8  -8   0    0.49    0.15 
  -7   8  -1    0.11    0.10 
   7  -8   1    0.20    0.11 
  -6   8  -2    1.21    0.15 
   6  -8   2    1.50    0.17 
  -5   8  -3    7.00    0.34 
   5  -8   3    6.44    0.37 
  -4   8  -4    3.21    0.21 
   4  -8   4    3.00    0.23 
  -3   8  -5    2.12    0.18 
   3  -8   5    2.82    0.24 
  -2   8  -6    4.56    0.26 
   2  -8   6    4.10    0.30 
  -1   8  -7    2.08    0.19 
   1  -8   7    2.22    0.22 
   0   8  -8    0.08    0.10 
   0  -8   8    0.24    0.12 
  -1  -8   9    0.29    0.13 
  -2  -8  10    1.47    0.22 
  -8   9  -1    0.10    0.12 
   8  -9   1    0.04    0.12 
  -7   9  -2    1.67    0.18 
   7  -9   2    1.95    0.21 
  -6   9  -3    0.62    0.12 
   6  -9   3    0.68    0.13 
  -5   9  -4   -0.02    0.09 
   5  -9   4    0.04    0.10 
  -4   9  -5    0.66    0.12 
   4  -9   5    0.64    0.14 
  -3   9  -6    3.57    0.25 
   3  -9   6    3.71    0.27 
  -2   9  -7   -0.10    0.09 
   2  -9   7   -0.07    0.09 
  -1   9  -8    0.11    0.11 
   1  -9   8    0.17    0.12 
   0  -9   9    0.08    0.12 
  -7  10  -3    3.55    0.29 
   7 -10   3    3.58    0.30 
  -6  10  -4    1.89    0.20 
   6 -10   4    2.34    0.24 
  -5  10  -5    0.17    0.11 
   5 -10   5    0.23    0.13 
  -4  10  -6    0.13    0.11 
   4 -10   6    0.10    0.11 
  -3  10  -7    2.52    0.23 
   3 -10   7    2.08    0.24 
  -2  10  -8   -0.14    0.11 
   2 -10   8    0.10    0.12 
   1 -10   8    1.00    0.18 
  -1  10  -8    0.95    0.16 
   2 -10   7    3.91    0.31 
  -2  10  -7    3.68    0.27 
   3 -10   6    2.48    0.24 
  -3  10  -6    2.80    0.24 
   4 -10   5   -0.08    0.09 
  -4  10  -5    0.03    0.10 
   5 -10   4    1.17    0.17 
  -5  10  -4    1.28    0.16 
   6 -10   3    3.39    0.28 
  -6  10  -3    3.58    0.26 
   7 -10   2    0.83    0.16 
  -7  10  -2    0.87    0.16 
  -1  -9   9    0.92    0.18 
   0  -9   8    0.12    0.12 
   0   9  -8   -0.12    0.09 
   1  -9   7    0.72    0.15 
  -1   9  -7    0.70    0.13 
   2  -9   6    7.50    0.41 
  -2   9  -6    7.41    0.38 
   3  -9   5    6.45    0.38 
  -3   9  -5    6.63    0.34 
   4  -9   4    2.83    0.24 
  -4   9  -4    2.45    0.21 
   5  -9   3    4.93    0.32 
  -5   9  -3    5.01    0.29 
   6  -9   2   -0.03    0.09 
  -6   9  -2    0.01    0.10 
   7  -9   1    0.00    0.10 
  -7   9  -1   -0.09    0.10 
   8  -9   0   -0.05    0.11 
  -8   9   0    0.12    0.11 
  -2  -8   9    0.02    0.12 
  -1  -8   8    4.53    0.33 
   1   8  -8    4.34    0.25 
   0  -8   7    0.00    0.10 
   0   8  -7    0.06    0.09 
   1  -8   6   -0.02    0.10 
  -1   8  -6    0.11    0.09 
   2  -8   5    0.09    0.09 
  -2   8  -5    0.25    0.09 
   3  -8   4    4.65    0.30 
  -3   8  -4    4.71    0.26 
   4  -8   3    8.52    0.43 
  -4   8  -3    8.43    0.39 
   5  -8   2   -0.03    0.08 
  -5   8  -2   -0.05    0.08 
   6  -8   1   -0.10    0.09 
  -6   8  -1    0.08    0.09 
   7  -8   0   -0.07    0.09 
  -7   8   0   -0.08    0.09 
   8  -8  -1    3.98    0.32 
  -8   8   1    4.06    0.27 
   9  -8  -2    5.03    0.36 
  -9   8   2    4.82    0.32 
  -4  -7  10    0.89    0.19 
  -3  -7   9    0.01    0.10 
  -2  -7   8    2.78    0.26 
  -1  -7   7    0.14    0.10 
   1   7  -7    0.03    0.07 
   0  -7   6    0.04    0.10 
   0   7  -6    0.11    0.08 
   1  -7   5    8.11    0.40 
  -1   7  -5    7.86    0.36 
   2  -7   4   11.04    0.52 
  -2   7  -4   11.49    0.48 
   3  -7   3    0.07    0.07 
  -3   7  -3    0.02    0.06 
   4  -7   2    0.35    0.09 
  -4   7  -2    0.40    0.10 
   5  -7   1    0.46    0.11 
  -5   7  -1    0.48    0.10 
   6  -7   0    1.41    0.17 
  -6   7   0    1.44    0.15 
   7  -7  -1   21.51    0.93 
  -7   7   1   21.20    0.86 
   8  -7  -2    1.43    0.19 
  -8   7   2    1.26    0.14 
  -8   7   2    1.40    0.16 
   9  -7  -3    5.57    0.39 
  -9   7   3    6.37    0.33 
  -5  -6  10    0.54    0.18 
  -4  -6   9   -0.04    0.11 
  -3  -6   8    1.73    0.20 
  -2  -6   7    1.56    0.18 
   2   6  -7    1.75    0.15 
  -1  -6   6   56.16    2.24 
   1   6  -6   57.33    2.08 
   0  -6   5    8.91    0.44 
   0   6  -5    8.97    0.38 
   1  -6   4    9.81    0.45 
  -1   6  -4    9.61    0.41 
   2  -6   3    1.58    0.15 
  -2   6  -3    1.62    0.13 
   3  -6   2    4.48    0.24 
  -3   6  -2    4.19    0.17 
   4  -6   1    0.48    0.09 
  -4   6  -1    0.49    0.06 
  -4   6  -1    0.48    0.09 
   5  -6   0    0.84    0.12 
  -5   6   0    0.79    0.08 
  -5   6   0    0.85    0.11 
   6  -6  -1    2.78    0.23 
  -6   6   1    2.84    0.21 
  -6   6   1    2.92    0.17 
   7  -6  -2    2.81    0.24 
  -7   6   2    2.54    0.22 
  -7   6   2    2.45    0.18 
   8  -6  -3    1.15    0.17 
  -8   6   3    1.31    0.14 
  -8   6   3    1.12    0.14 
   9  -6  -4    0.38    0.14 
  -9   6   4    0.26    0.12 
  -5  -5   9    0.05    0.12 
  -4  -5   8    0.65    0.14 
  -3  -5   7   -0.03    0.10 
  -2  -5   6   45.01    1.80 
   2   5  -6   45.33    1.65 
  -1  -5   5   19.56    0.83 
   1   5  -5   19.68    0.75 
   0  -5   4    0.09    0.07 
   0   5  -4    0.08    0.03 
   0   5  -4    0.03    0.05 
   1  -5   3    0.26    0.07 
  -1   5  -3    0.20    0.06 
  -1   5  -3    0.25    0.02 
   2  -5   2    2.22    0.16 
  -2   5  -2    2.34    0.09 
   3  -5   1   70.05    2.77 
  -3   5  -1   73.78    2.62 
  -3   5  -1   73.05    2.47 
   4  -5   0   12.42    0.54 
  -4   5   0   12.54    0.47 
  -4   5   0   13.18    0.51 
   5  -5  -1    8.60    0.41 
  -5   5   1    8.51    0.37 
  -5   5   1    8.43    0.34 
   6  -5  -2    4.29    0.27 
  -6   5   2    4.41    0.24 
  -6   5   2    4.45    0.23 
   7  -5  -3    3.41    0.27 
  -7   5   3    3.68    0.21 
  -7   5   3    3.69    0.23 
   8  -5  -4    0.62    0.14 
  -8   5   4    0.35    0.10 
   9  -5  -5   -0.07    0.12 
  -9   5   5    0.05    0.11 
  -6  -4   9    0.80    0.17 
  -5  -4   8    0.56    0.14 
  -4  -4   7    9.00    0.47 
  -3  -4   6    5.84    0.34 
   3   4  -6    6.44    0.27 
  -2  -4   5    3.47    0.23 
   2   4  -5    3.26    0.17 
  -1  -4   4   58.32    2.21 
   1   4  -4   55.60    2.06 
   0  -4   3   24.26    0.96 
   0   4  -3   23.62    0.89 
  -1   4  -2   26.22    0.95 
  -1   4  -2   25.33    0.88 
  -2   4  -1   71.88    2.47 
  -2   4  -1   72.91    2.61 
   3  -4   0    5.32    0.25 
  -3   4   0    5.39    0.21 
  -3   4   0    5.34    0.24 
   4  -4  -1    2.11    0.16 
  -4   4   1    2.06    0.12 
  -4   4   1    2.10    0.13 
   5  -4  -2    0.01    0.07 
  -5   4   2    0.10    0.06 
  -5   4   2    0.05    0.05 
   6  -4  -3    2.24    0.19 
  -6   4   3    2.28    0.16 
  -6   4   3    2.05    0.16 
   7  -4  -4    0.84    0.14 
  -7   4   4    0.69    0.10 
  -7   4   4    0.98    0.12 
   8  -4  -5    0.48    0.14 
  -8   4   5    0.57    0.11 
   9  -4  -6    0.03    0.11 
  -9   4   6    0.03    0.11 
   7   3  -9    4.38    0.34 
  -6  -3   8    1.67    0.22 
   6   3  -8    1.90    0.22 
  -5  -3   7    7.15    0.41 
  -4  -3   6   23.79    1.00 
  -3  -3   5    3.49    0.22 
  -2  -3   4   11.82    0.52 
  -1  -3   3    3.52    0.19 
   0  -3   2   15.10    0.60 
   0   3  -2   14.89    0.56 
   1  -3   1    3.22    0.16 
  -1   3  -1    2.98    0.12 
   2  -3   0   18.23    0.71 
  -2   3   0   17.16    0.67 
  -2   3   0   18.87    0.63 
   4  -3  -2    5.23    0.26 
  -4   3   2    5.26    0.23 
  -4   3   2    5.26    0.23 
   5  -3  -3   32.77    1.32 
  -5   3   3   33.86    1.22 
  -5   3   3   32.99    1.19 
   6  -3  -4    0.08    0.09 
  -6   3   4    0.13    0.07 
  -6   3   4    0.04    0.06 
   7  -3  -5    1.28    0.17 
  -7   3   5    1.12    0.13 
   8  -3  -6    2.66    0.24 
  -8   3   6    2.80    0.21 
   9  -3  -7    0.73    0.17 
  -9   3   7    0.71    0.15 
   8   2  -9    0.36    0.15 
   7   2  -8    0.16    0.12 
   6   2  -7    0.32    0.12 
  -5  -2   6    9.63    0.43 
  -5  -2   6   10.96    0.51 
  -4  -2   5    5.89    0.32 
  -4  -2   5    5.89    0.26 
  -3  -2   4   10.77    0.41 
  -3  -2   4   10.63    0.48 
  -2  -2   3    0.07    0.05 
  -1  -2   2   72.06    2.75 
   0  -2   1  111.66    4.26 
   0   2  -1  113.08    4.02 
   0   2  -1  112.96    3.83 
   1  -2   0  496.53   19.47 
  -1   2   0  509.81   17.54 
  -1   2   0  539.32   18.42 
   2  -2  -1    0.43    0.05 
  -2   2   1    0.46    0.04 
  -2   2   1    0.47    0.04 
  -3   2   2   65.23    2.35 
  -3   2   2   65.88    2.26 
   4  -2  -3   66.43    2.64 
  -4   2   3   69.46    2.48 
  -4   2   3   70.66    2.38 
   5  -2  -4   10.81    0.46 
  -5   2   4   10.77    0.41 
  -5   2   4    9.16    0.39 
   6  -2  -5    1.03    0.14 
  -6   2   5    1.17    0.12 
   7  -2  -6    0.28    0.12 
  -7   2   6    0.37    0.09 
   8  -2  -7    7.40    0.43 
  -8   2   7    7.56    0.37 
   9  -2  -8    0.99    0.21 
  -9   2   8    1.18    0.17 
   8   1  -8    0.39    0.14 
   7   1  -7    0.28    0.12 
  -6  -1   6   -0.11    0.08 
   6   1  -6    0.05    0.09 
  -4  -1   4    9.15    0.42 
  -4  -1   4    9.00    0.36 
   4   1  -4    8.69    0.41 
  -3  -1   3    0.83    0.08 
  -3  -1   3    0.83    0.09 
  -2  -1   2   12.27    0.51 
  -2  -1   2   12.85    0.46 
  -1  -1   1   41.77    1.59 
   0  -1   0    2.81    0.13 
   0   1   0    2.63    0.12 
   0   1   0    2.34    0.12 
   1  -1  -1   34.52    1.34 
  -1   1   1   35.57    1.26 
   2  -1  -2   38.49    1.48 
  -2   1   2   38.57    1.38 
   3  -1  -3    0.78    0.08 
   4  -1  -4    0.69    0.09 
  -4   1   4    0.61    0.07 
   6  -1  -6   -0.09    0.10 
  -6   1   6    0.20    0.08 
   7  -1  -7    2.68    0.23 
  -7   1   7    3.22    0.21 
   8  -1  -8    6.60    0.41 
  -8   1   8    6.70    0.35 
   9   0  -8    1.80    0.24 
   8   0  -7    0.10    0.12 
  -7   0   6    0.13    0.08 
   7   0  -6    0.23    0.11 
  -6   0   5   -0.02    0.06 
   6   0  -5   -0.05    0.08 
   2   0  -1   51.75    1.98 
   1   0   0   58.49    2.27 
   0   0   1  177.96    5.30 
   0   0   1  132.48    5.88 
  -1   0   2   19.59    0.69 
  -1   0   2   19.94    0.77 
  -2   0   3   33.22    1.14 
  -2   0   3   32.19    1.27 
  -3   0   4    9.46    0.36 
  -3   0   4    8.95    0.41 
  -4   0   5    8.89    0.41 
  -4   0   5    8.65    0.35 
   5   0  -6    0.04    0.09 
  -5   0   6   -0.09    0.08 
  -5   0   6   -0.04    0.06 
   6   0  -7    9.02    0.46 
  -6   0   7    8.71    0.39 
   7   0  -8    4.40    0.31 
  -7   0   8    4.79    0.27 
   8   0  -9    1.00    0.19 
  -8   0   9    1.33    0.17 
   9  -1  -7    1.51    0.22 
  -8   1   6    0.96    0.14 
   8  -1  -6    1.09    0.18 
  -7   1   5    3.09    0.20 
   7  -1  -5    2.88    0.23 
   6  -1  -4    0.83    0.11 
  -5   1   3   -0.04    0.05 
   5  -1  -3   -0.08    0.06 
  -4   1   2   53.66    1.87 
   4  -1  -2   53.90    2.08 
  -3   1   1   45.70    1.58 
  -3   1   1   45.39    1.65 
   2  -1   0  532.58   20.20 
  -1   1  -1   -0.03    0.01 
   1  -1   1   -0.04    0.01 
   0   1  -2   54.66    1.99 
   0  -1   2   56.47    1.90 
   1   1  -3    5.65    0.21 
  -1  -1   3    5.60    0.21 
   2   1  -4   19.65    0.70 
  -3  -1   5   44.39    1.52 
  -3  -1   5   42.22    1.70 
  -4  -1   6    7.71    0.33 
  -5  -1   7    3.65    0.22 
  -5  -1   7    3.86    0.26 
   6   1  -8    0.32    0.12 
  -6  -1   8    0.32    0.12 
  -6  -1   8   -0.03    0.07 
   7   1  -9    0.08    0.13 
  -7  -1   9    0.30    0.10 
   9  -2  -6   -0.12    0.12 
  -8   2   5    0.54    0.12 
   8  -2  -5    0.55    0.14 
  -7   2   4    2.23    0.18 
   7  -2  -4    2.42    0.23 
  -6   2   3    0.32    0.08 
   6  -2  -3    0.13    0.10 
  -5   2   2    6.62    0.28 
  -5   2   2    5.92    0.28 
   5  -2  -2    6.81    0.32 
  -4   2   1    1.13    0.09 
  -4   2   1    1.24    0.10 
   4  -2  -1    1.14    0.11 
  -3   2   0  143.33    4.89 
  -2   2  -1   11.94    0.46 
   2  -2   1   12.41    0.50 
  -1   2  -2   30.29    1.11 
   1  -2   2   30.53    1.18 
   1  -2   2   30.74    1.04 
   0   2  -3    0.61    0.05 
   0  -2   3    0.51    0.04 
   1   2  -4   24.84    0.91 
  -1  -2   4   25.17    0.87 
   2   2  -5   44.61    1.62 
  -2  -2   5   45.74    1.57 
   3   2  -6    2.49    0.11 
  -3  -2   6    2.41    0.14 
  -4  -2   7   25.88    0.95 
  -5  -2   8    0.05    0.07 
  -5  -2   8    0.05    0.11 
  -6  -2   9    1.02    0.18 
  -6  -2   9    1.22    0.14 
   7   2 -10   -0.21    0.14 
  -7  -2  10   -0.03    0.09 
   9  -3  -5    0.23    0.13 
  -8   3   4    0.71    0.12 
   8  -3  -4    0.68    0.15 
  -7   3   3    5.89    0.28 
   7  -3  -3    5.55    0.33 
  -6   3   2    0.27    0.08 
  -6   3   2    0.21    0.07 
   6  -3  -2    0.27    0.11 
  -5   3   1    2.89    0.16 
  -5   3   1    2.73    0.17 
   5  -3  -1    3.08    0.20 
  -4   3   0    0.34    0.06 
  -4   3   0    0.26    0.05 
   4  -3   0    0.27    0.07 
  -3   3  -1   63.17    2.28 
   3  -3   1   62.81    2.42 
  -2   3  -2   79.36    2.99 
   2  -3   2   87.02    3.17 
  -1   3  -3   89.62    3.08 
   1  -3   3   81.53    3.28 
   0   3  -4  114.38    4.07 
   0  -3   4  110.68    3.87 
   0  -3   4  116.06    4.34 
   1   3  -5   22.87    0.84 
  -1  -3   5   23.09    0.81 
  -1  -3   5   22.77    0.93 
   2   3  -6    2.15    0.11 
  -2  -3   6    2.17    0.13 
  -2  -3   6    2.04    0.17 
  -3  -3   7    4.29    0.21 
  -4  -3   8    0.13    0.07 
  -4  -3   8    0.35    0.12 
  -5  -3   9    4.50    0.25 
  -5  -3   9    4.22    0.30 
  -6  -3  10    0.14    0.13 
  -6  -3  10    0.07    0.09 
   9  -4  -4    0.46    0.15 
  -8   4   3    3.21    0.22 
   8  -4  -3    3.47    0.26 
  -7   4   2    0.43    0.09 
  -7   4   2    0.39    0.09 
   7  -4  -2    0.50    0.14 
  -6   4   1   24.19    0.91 
  -6   4   1   25.27    0.96 
   6  -4  -1   25.72    1.04 
  -5   4   0    0.69    0.08 
  -5   4   0    0.68    0.09 
   5  -4   0    0.49    0.10 
  -4   4  -1   16.16    0.62 
   4  -4   1   15.80    0.67 
  -3   4  -2    2.83    0.16 
   3  -4   2    4.06    0.20 
  -2   4  -3    8.82    0.36 
   2  -4   3    8.87    0.40 
  -1   4  -4    0.01    0.04 
   1  -4   4    0.07    0.06 
   0   4  -5    0.09    0.05 
   0  -4   5   -0.01    0.06 
   0  -4   5    0.09    0.03 
   1   4  -6    0.27    0.05 
  -1  -4   6    0.25    0.08 
   2   4  -7    2.69    0.15 
  -2  -4   7    2.75    0.22 
  -2  -4   7    2.72    0.15 
  -3  -4   8    2.24    0.15 
  -3  -4   8    2.04    0.22 
  -4  -4   9    2.53    0.23 
  -4  -4   9    2.50    0.18 
  -5  -4  10   -0.06    0.08 
  -5  -4  10    0.02    0.12 
   9  -5  -3    0.03    0.12 
  -8   5   2    0.13    0.09 
   8  -5  -2    0.10    0.11 
  -7   5   1   16.72    0.69 
   7  -5  -1   17.45    0.77 
  -6   5   0   20.53    0.80 
   6  -5   0   20.33    0.87 
  -5   5  -1   19.71    0.78 
   5  -5   1   20.16    0.84 
  -4   5  -2    0.15    0.07 
   4  -5   2    0.20    0.07 
  -3   5  -3    4.61    0.23 
   3  -5   3    4.31    0.24 
  -2   5  -4    7.91    0.33 
   2  -5   4    7.31    0.37 
  -1   5  -5    5.53    0.26 
   1  -5   5    5.40    0.30 
   0   5  -6   67.43    2.43 
   0  -5   6   66.30    2.61 
   1   5  -7    3.60    0.19 
  -1  -5   7    3.61    0.27 
  -2  -5   8    3.18    0.25 
  -3  -5   9    2.01    0.23 
  -4  -5  10    0.65    0.15 
  -5  -5  11    0.72    0.19 
  -9   6   2    2.07    0.19 
   9  -6  -2    2.22    0.24 
  -8   6   1    3.97    0.26 
   8  -6  -1    3.82    0.30 
  -7   6   0    0.38    0.11 
   7  -6   0    0.24    0.12 
  -6   6  -1    7.41    0.35 
   6  -6   1    7.08    0.39 
  -5   6  -2    0.46    0.10 
   5  -6   2    0.45    0.11 
  -3   6  -4    1.05    0.11 
   3  -6   4    0.96    0.13 
  -2   6  -5    2.16    0.16 
   2  -6   5    2.10    0.19 
  -1   6  -6    7.12    0.33 
   1  -6   6    7.37    0.39 
   0   6  -7    4.62    0.24 
   0  -6   7    4.37    0.30 
   1   6  -8    0.09    0.07 
  -1  -6   8    0.11    0.11 
  -2  -6   9    1.03    0.17 
  -3  -6  10    0.11    0.13 
  -4  -6  11    0.03    0.15 
  -9   7   1    0.21    0.12 
   9  -7  -1    0.15    0.13 
  -8   7   0    0.03    0.09 
   8  -7   0   -0.14    0.11 
  -7   7  -1    0.11    0.10 
   7  -7   1   -0.03    0.11 
  -6   7  -2    0.10    0.09 
   6  -7   2    0.07    0.10 
  -5   7  -3    3.82    0.23 
   5  -7   3    3.91    0.26 
  -4   7  -4    0.40    0.10 
   4  -7   4    0.49    0.11 
  -3   7  -5    1.46    0.14 
   3  -7   5    1.36    0.17 
  -2   7  -6   14.25    0.60 
   2  -7   6   14.93    0.67 
  -1   7  -7    1.22    0.12 
   1  -7   7    0.93    0.15 
   0   7  -8    0.26    0.09 
   0  -7   8    0.41    0.13 
  -1  -7   9   -0.02    0.11 
  -2  -7  10    0.38    0.15 
  -3  -7  11    2.38    0.29 
  -9   8   0    0.06    0.12 
   9  -8   0    0.21    0.15 
  -8   8  -1    0.01    0.09 
   8  -8   1    0.11    0.12 
  -7   8  -2    1.30    0.16 
   7  -8   2    1.37    0.19 
  -6   8  -3    2.65    0.20 
   6  -8   3    2.79    0.23 
  -5   8  -4    5.62    0.32 
   5  -8   4    6.19    0.36 
  -4   8  -5    2.17    0.19 
   4  -8   5    2.61    0.23 
  -3   8  -6   31.90    1.22 
   3  -8   6   31.80    1.33 
  -2   8  -7    0.16    0.09 
   2  -8   7    0.10    0.10 
  -1   8  -8    0.15    0.09 
   1  -8   8    0.10    0.11 
   0  -8   9    0.17    0.11 
  -1  -8  10    2.58    0.28 
  -8   9  -2    0.51    0.15 
   8  -9   2    0.60    0.16 
  -7   9  -3    0.31    0.13 
   7  -9   3    0.44    0.14 
  -6   9  -4    0.04    0.10 
   6  -9   4   -0.05    0.10 
  -5   9  -5   -0.01    0.11 
   5  -9   5    0.23    0.12 
  -4   9  -6   -0.17    0.10 
   4  -9   6   -0.04    0.10 
  -3   9  -7    0.41    0.12 
   3  -9   7    0.28    0.12 
  -2   9  -8    0.18    0.11 
   2  -9   8    0.04    0.11 
  -1   9  -9    0.04    0.10 
   1  -9   9    0.07    0.11 
   0  -9  10   -0.02    0.15 
  -6  10  -5    0.13    0.12 
   6 -10   5    0.09    0.12 
  -5  10  -6    0.06    0.13 
   5 -10   6    0.15    0.12 
  -4  10  -7    1.94    0.21 
   4 -10   7    1.85    0.23 
  -3  10  -8    0.59    0.15 
   3 -10   8    0.93    0.18 
  -3  11  -6    0.06    0.14 
  -4  11  -5    0.27    0.14 
  -5  11  -4    0.61    0.14 
   0 -10   8    0.07    0.12 
   0  10  -8   -0.24    0.11 
   1 -10   7    0.91    0.17 
  -1  10  -7    0.57    0.14 
   2 -10   6    9.00    0.49 
  -2  10  -6    9.66    0.45 
   3 -10   5   10.08    0.51 
  -3  10  -5    9.84    0.47 
   4 -10   4    0.19    0.11 
  -4  10  -4    0.06    0.11 
   5 -10   3    0.17    0.10 
   6 -10   2    0.28    0.11 
  -6  10  -2    0.15    0.11 
  -7  10  -1    0.01    0.11 
  -2  -9   9    0.19    0.14 
  -1  -9   8    1.26    0.19 
   1   9  -8    0.71    0.13 
   0  -9   7    0.04    0.11 
   0   9  -7    0.18    0.10 
   1  -9   6    0.45    0.13 
  -1   9  -6    0.47    0.11 
   2  -9   5   12.89    0.59 
  -2   9  -5   12.07    0.54 
   3  -9   4   -0.01    0.09 
  -3   9  -4    0.05    0.09 
   4  -9   3    4.54    0.29 
  -4   9  -3    4.68    0.27 
   5  -9   2    3.93    0.28 
  -5   9  -2    3.86    0.26 
   6  -9   1    0.13    0.10 
  -6   9  -1    0.06    0.10 
   7  -9   0    0.49    0.12 
  -7   9   0    0.41    0.12 
   8  -9  -1    2.71    0.26 
  -8   9   1    2.10    0.20 
  -3  -8   9    0.13    0.13 
  -2  -8   8    0.44    0.14 
  -1  -8   7    3.94    0.29 
   1   8  -7    3.75    0.23 
   0  -8   6    0.54    0.13 
   0   8  -6    0.71    0.11 
   1  -8   5    2.98    0.24 
  -1   8  -5    3.33    0.21 
   2  -8   4    0.09    0.09 
  -2   8  -4    0.13    0.09 
   3  -8   3    1.73    0.17 
  -3   8  -3    1.54    0.15 
   4  -8   2    1.19    0.14 
  -4   8  -2    1.12    0.13 
   5  -8   1    0.15    0.09 
  -5   8  -1    0.11    0.09 
   6  -8   0    0.48    0.12 
  -6   8   0    0.47    0.11 
   7  -8  -1    0.19    0.11 
  -7   8   1   -0.07    0.08 
   8  -8  -2    0.74    0.15 
  -8   8   2    0.36    0.12 
   9  -8  -3    0.29    0.14 
  -4  -7   9    0.31    0.14 
  -3  -7   8    1.56    0.20 
  -2  -7   7    0.26    0.12 
   2   7  -7    0.30    0.09 
  -1  -7   6   16.38    0.74 
   1   7  -6   16.92    0.67 
   0  -7   5   27.09    1.13 
   0   7  -5   27.81    1.05 
   1  -7   4    1.79    0.17 
  -1   7  -4    1.53    0.14 
   2  -7   3    1.15    0.13 
  -2   7  -3    1.09    0.11 
   4  -7   1   12.67    0.56 
  -4   7  -1   12.99    0.53 
   5  -7   0    0.55    0.10 
  -5   7   0    0.60    0.08 
  -5   7   0    0.49    0.10 
   6  -7  -1   50.81    2.01 
  -6   7   1   51.68    1.78 
  -6   7   1   49.73    1.88 
   7  -7  -2   61.51    2.41 
  -7   7   2   60.68    2.26 
  -7   7   2   61.08    2.15 
   8  -7  -3    0.96    0.16 
  -8   7   3    0.77    0.12 
  -8   7   3    0.83    0.13 
   9  -7  -4   -0.04    0.12 
  -9   7   4    0.15    0.11 
  -5  -6   9   -0.08    0.10 
  -4  -6   8    0.54    0.13 
  -3  -6   7    0.51    0.14 
   3   6  -7    0.48    0.09 
  -2  -6   6   15.66    0.70 
   2   6  -6   15.48    0.62 
  -1  -6   5   20.11    0.84 
   1   6  -5   19.45    0.76 
   0  -6   4   15.88    0.66 
   0   6  -4   15.14    0.61 
   0   6  -4   15.37    0.55 
   1  -6   3    1.35    0.13 
  -1   6  -3    1.30    0.07 
  -1   6  -3    1.07    0.11 
   2  -6   2    9.88    0.44 
  -2   6  -2    9.92    0.36 
   3  -6   1   26.99    1.11 
  -3   6  -1   28.84    1.06 
  -3   6  -1   28.45    0.98 
   4  -6   0   14.68    0.64 
  -4   6   0   15.47    0.61 
  -4   6   0   15.57    0.56 
   5  -6  -1    0.14    0.08 
  -5   6   1    0.02    0.07 
  -5   6   1    0.05    0.06 
   6  -6  -2    4.63    0.28 
  -6   6   2    4.51    0.25 
  -6   6   2    4.35    0.23 
   7  -6  -3    1.44    0.17 
  -7   6   3    1.61    0.15 
  -7   6   3    1.35    0.14 
   8  -6  -4    0.29    0.12 
  -8   6   4    0.25    0.10 
   9  -6  -5    0.22    0.14 
  -9   6   5    0.06    0.11 
  -6  -5   9    0.11    0.14 
  -5  -5   8   -0.12    0.10 
  -4  -5   7    2.68    0.25 
  -3  -5   6   23.73    1.01 
   3   5  -6   23.80    0.90 
  -2  -5   5   12.50    0.57 
   2   5  -5   13.05    0.51 
  -1  -5   4   17.54    0.74 
   1   5  -4   17.63    0.68 
   0  -5   3   24.62    1.00 
   0   5  -3   25.14    0.94 
   0   5  -3   25.21    0.87 
   1  -5   2   11.50    0.50 
  -1   5  -2   12.00    0.43 
  -1   5  -2   12.91    0.48 
  -2   5  -1   35.77    1.33 
  -2   5  -1   36.29    1.24 
   3  -5   0   14.20    0.59 
  -3   5   0   14.44    0.51 
  -3   5   0   13.84    0.55 
   4  -5  -1    4.09    0.22 
  -4   5   1    4.05    0.19 
  -4   5   1    3.86    0.20 
   5  -5  -2    1.45    0.14 
  -5   5   2    1.48    0.14 
  -5   5   2    1.59    0.13 
   6  -5  -3    2.18    0.21 
  -6   5   3    2.02    0.15 
  -6   5   3    2.30    0.18 
   7  -5  -4    0.39    0.12 
  -7   5   4    0.64    0.10 
  -7   5   4    0.66    0.11 
   8  -5  -5    0.61    0.14 
  -8   5   5    0.50    0.12 
   9  -5  -6    1.54    0.21 
  -9   5   6    1.79    0.19 
   7   4  -9    0.35    0.18 
  -6  -4   8    0.28    0.13 
   6   4  -8    0.59    0.17 
  -5  -4   7    4.21    0.31 
  -4  -4   6    0.93    0.15 
  -3  -4   5    0.06    0.09 
  -2  -4   4    1.20    0.12 
  -1  -4   3   16.33    0.66 
   1   4  -3   15.62    0.61 
   0  -4   2   15.40    0.63 
   0   4  -2   15.49    0.55 
   0   4  -2   15.72    0.59 
   1  -4   1  277.89   10.21 
  -1   4  -1  262.73    9.18 
   2  -4   0    3.75    0.17 
  -2   4   0    3.37    0.15 
  -2   4   0    3.24    0.17 
  -3   4   1    1.21    0.09 
  -3   4   1    1.24    0.11 
   4  -4  -2    2.67    0.17 
  -4   4   2    2.64    0.16 
  -4   4   2    2.58    0.14 
   5  -4  -3   27.66    1.10 
  -5   4   3   27.51    1.02 
  -5   4   3   26.67    0.98 
   6  -4  -4    6.27    0.34 
  -6   4   4    6.45    0.30 
  -6   4   4    6.69    0.29 
   7  -4  -5    2.09    0.21 
  -7   4   5    2.08    0.17 
   8  -4  -6    0.14    0.10 
  -8   4   6    0.07    0.09 
   9  -4  -7    0.09    0.13 
  -9   4   7   -0.08    0.11 
   7   3  -8    1.65    0.22 
   6   3  -7    0.27    0.13 
  -5  -3   6    9.18    0.47 
  -4  -3   5    2.00    0.20 
  -3  -3   4    2.19    0.18 
  -2  -3   3   27.97    1.11 
  -1  -3   2    2.48    0.15 
   0  -3   1    8.48    0.34 
   0   3  -1    8.06    0.30 
   1  -3   0  146.48    5.40 
  -1   3   0  148.06    4.87 
  -1   3   0  134.64    5.12 
   2  -3  -1    3.89    0.18 
  -2   3   1    3.71    0.17 
  -2   3   1    3.74    0.16 
   3  -3  -2    0.03    0.04 
  -3   3   2   -0.02    0.03 
  -3   3   2    0.02    0.04 
   4  -3  -3    9.23    0.41 
  -4   3   3    9.30    0.37 
   5  -3  -4    1.53    0.14 
  -5   3   4    1.66    0.14 
  -5   3   4    1.58    0.12 
   6  -3  -5   -0.12    0.08 
  -6   3   5    0.01    0.06 
   7  -3  -6    0.83    0.15 
  -7   3   6    0.99    0.13 
   8  -3  -7    0.76    0.15 
  -8   3   7    0.73    0.13 
   9  -3  -8    1.04    0.20 
  -9   3   8    1.08    0.16 
   8   2  -8    0.14    0.15 
   7   2  -7   -0.08    0.12 
   6   2  -6    1.27    0.17 
   5   2  -5    0.32    0.11 
  -4  -2   4   26.04    1.06 
   4   2  -4   25.89    1.05 
  -3  -2   3    2.46    0.16 
  -2  -2   2    0.24    0.05 
  -1  -2   1    1.59    0.10 
   0  -2   0  373.76   13.97 
   0   2   0  365.88   12.62 
   1  -2  -1  293.26   11.40 
  -1   2   1  309.95   10.80 
  -1   2   1  302.08   10.30 
   2  -2  -2   92.28    3.64 
  -2   2   2   97.90    3.29 
  -2   2   2   97.97    3.44 
  -3   2   3  201.10    6.90 
  -3   2   3  203.47    7.22 
   4  -2  -4    1.03    0.11 
  -4   2   4    1.29    0.08 
  -4   2   4    1.08    0.10 
   5  -2  -5    0.01    0.07 
  -5   2   5    0.03    0.02 
   6  -2  -6    1.53    0.17 
  -6   2   6    1.92    0.15 
   7  -2  -7    4.00    0.28 
  -7   2   7    4.45    0.26 
   8  -2  -8    0.55    0.16 
  -8   2   8    0.59    0.12 
   8   1  -7    0.14    0.12 
   7   1  -6   -0.01    0.09 
   6   1  -5    0.31    0.11 
   5   1  -4    2.91    0.21 
   4   1  -3    0.79    0.10 
   3   1  -2   38.11    1.48 
   2   1  -1   49.39    1.89 
   1   1   0  620.81   23.44 
   0  -1  -1  400.60   15.53 
   0   1   1  423.42   15.53 
  -1   1   2   47.61    1.59 
  -1   1   2   35.94    1.44 
  -2   1   3    0.13    0.02 
  -2   1   3    0.14    0.05 
  -3   1   4    0.88    0.10 
  -3   1   4    1.20    0.09 
  -3   1   4    1.09    0.06 
   4  -1  -5   -0.05    0.07 
  -4   1   5    0.02    0.05 
  -4   1   5    0.09    0.07 
   5  -1  -6    0.30    0.11 
  -5   1   6    0.24    0.08 
   6  -1  -7    7.82    0.41 
  -6   1   7    7.09    0.34 
   7  -1  -8    3.71    0.29 
  -7   1   8    3.81    0.24 
   8  -1  -9    0.06    0.13 
  -8   1   9    0.31    0.11 
   9   0  -7    2.00    0.25 
   8   0  -6    1.03    0.17 
   7   0  -5    4.79    0.30 
   6   0  -4    0.03    0.09 
   5   0  -3    5.62    0.30 
   4   0  -2   44.40    1.73 
   3   0  -1   12.10    0.50 
   2   0   0 1000.00   37.80 
   1   0   1  215.59    7.20 
   1   0   1  208.04    8.02 
   0   0   2   23.71    0.82 
  -1   0   3   60.55    2.01 
  -1   0   3   56.22    2.23 
  -2   0   4   16.15    0.66 
  -2   0   4   16.29    0.59 
  -3   0   5    0.20    0.07 
  -3   0   5    0.18    0.05 
  -4   0   6    0.68    0.10 
  -4   0   6    0.63    0.09 
  -5   0   7   74.53    2.90 
  -5   0   7   73.42    2.59 
   6   0  -8   13.90    0.66 
  -6   0   8   14.30    0.58 
   7   0  -9    0.94    0.18 
  -7   0   9    0.86    0.14 
   8   0 -10    0.30    0.18 
  -8   0  10    0.52    0.14 
   9  -1  -6    1.07    0.19 
   8  -1  -5    0.64    0.14 
   7  -1  -4    0.30    0.11 
   6  -1  -3    0.00    0.03 
   5  -1  -2    0.01    0.02 
   4  -1  -1    0.90    0.10 
   3  -1   0  137.41    5.22 
  -2   1  -1  197.85    7.08 
   2  -1   1  198.87    7.50 
  -1   1  -2  118.76    4.22 
   1  -1   2  118.46    4.02 
   1  -1   2  116.97    4.47 
   0   1  -3   95.51    3.37 
   0  -1   3   96.18    3.22 
   0  -1   3   91.27    3.59 
   1   1  -4   46.62    1.68 
  -1  -1   4   45.89    1.61 
  -1  -1   4   47.94    1.81 
  -2  -1   5   47.25    1.82 
  -2  -1   5   46.09    1.62 
  -3  -1   6    6.77    0.29 
  -3  -1   6    6.65    0.34 
  -4  -1   7   22.66    0.95 
  -4  -1   7   22.02    0.83 
  -5  -1   8   -0.02    0.10 
  -5  -1   8   -0.12    0.07 
  -6  -1   9    0.59    0.16 
  -6  -1   9    0.74    0.12 
   7   1 -10    0.09    0.14 
  -7  -1  10    0.48    0.11 
   9  -2  -5    0.48    0.15 
   8  -2  -4   -0.12    0.09 
   7  -2  -3    0.35    0.11 
   6  -2  -2    0.01    0.04 
   5  -2  -1    6.68    0.33 
   4  -2   0    7.55    0.35 
  -2   2  -2   21.12    0.82 
   2  -2   2   23.02    0.77 
  -1   2  -3    5.69    0.23 
   1  -2   3    5.55    0.21 
   0   2  -4   58.99    2.07 
   0  -2   4   59.35    1.97 
   0  -2   4   54.53    2.22 
   1   2  -5   24.13    0.88 
  -1  -2   5   24.24    0.98 
   2   2  -6    0.02    0.03 
  -2  -2   6    0.06    0.07 
  -2  -2   6    0.04    0.04 
  -3  -2   7    0.46    0.07 
  -3  -2   7    0.39    0.10 
  -4  -2   8    2.44    0.17 
  -4  -2   8    2.38    0.21 
  -5  -2   9    0.83    0.16 
  -5  -2   9    0.92    0.12 
  -6  -2  10    0.07    0.13 
  -6  -2  10    0.13    0.09 
   9  -3  -4    0.33    0.14 
   8  -3  -3    1.29    0.18 
   7  -3  -2    6.21    0.35 
  -6   3   1   27.68    0.95 
   6  -3  -1   22.00    1.03 
  -5   3   0    0.09    0.06 
   5  -3   0    0.00    0.07 
  -4   3  -1    0.35    0.06 
   4  -3   1    0.42    0.08 
  -3   3  -2   24.46    0.91 
  -2   3  -3    1.35    0.11 
   2  -3   3    1.32    0.07 
   2  -3   3    1.37    0.12 
  -1   3  -4    2.75    0.14 
   1  -3   4    1.93    0.15 
   1  -3   4    2.67    0.10 
   0   3  -5  123.04    4.35 
   0  -3   5  119.89    4.14 
   1   3  -6    0.63    0.06 
  -1  -3   6    0.37    0.05 
   2   3  -7    0.97    0.08 
  -2  -3   7    0.68    0.08 
  -3  -3   8    1.79    0.19 
  -3  -3   8    1.59    0.13 
  -4  -3   9    4.70    0.25 
  -4  -3   9    4.17    0.31 
  -5  -3  10    0.12    0.08 
  -5  -3  10    0.28    0.13 
  -6  -3  11    0.93    0.19 
  -6  -3  11    1.26    0.16 
  10  -4  -4    0.11    0.16 
   9  -4  -3    1.21    0.18 
   8  -4  -2    2.24    0.23 
  -7   4   1    7.15    0.35 
   7  -4  -1    7.12    0.39 
  -6   4   0   16.29    0.66 
   6  -4   0   16.66    0.73 
  -5   4  -1   14.53    0.59 
   5  -4   1   15.09    0.65 
  -4   4  -2   11.54    0.48 
   4  -4   2   12.09    0.52 
  -3   4  -3    0.21    0.06 
   3  -4   3    0.33    0.04 
   3  -4   3    0.21    0.07 
  -2   4  -4   10.58    0.44 
   2  -4   4   11.11    0.38 
   2  -4   4   11.42    0.49 
  -1   4  -5    0.04    0.05 
   1  -4   5    0.10    0.06 
   1  -4   5    0.06    0.02 
   0   4  -6    0.09    0.05 
   0  -4   6    0.09    0.03 
   0  -4   6    0.04    0.05 
   1   4  -7    1.48    0.12 
  -1  -4   7    1.59    0.11 
  -2  -4   8    2.11    0.14 
  -2  -4   8    2.06    0.20 
  -3  -4   9    2.26    0.16 
  -3  -4   9    2.30    0.22 
  -4  -4  10    0.34    0.13 
  -4  -4  10    0.31    0.09 
  -5  -4  11    0.22    0.14 
  10  -5  -3    2.67    0.28 
   9  -5  -2    0.53    0.16 
  -8   5   1    0.70    0.12 
   8  -5  -1    0.74    0.16 
  -7   5   0    4.62    0.27 
   7  -5   0    4.61    0.32 
  -6   5  -1    2.55    0.20 
   6  -5   1    2.66    0.22 
  -5   5  -2   19.98    0.80 
   5  -5   2   20.68    0.87 
  -4   5  -3   -0.01    0.02 
   4  -5   3    0.05    0.06 
   4  -5   3   -0.02    0.03 
  -3   5  -4    4.92    0.24 
   3  -5   4    4.79    0.27 
  -2   5  -5    1.08    0.11 
   2  -5   5    0.95    0.12 
  -1   5  -6   16.60    0.65 
   1  -5   6   17.10    0.74 
   0   5  -7    0.04    0.06 
   0  -5   7    0.18    0.10 
   1   5  -8   16.58    0.63 
  -1  -5   8   16.04    0.74 
  -2  -5   9   11.19    0.57 
  -3  -5  10    1.96    0.23 
  -4  -5  11   -0.02    0.12 
  -9   6   1    0.24    0.11 
   9  -6  -1    0.35    0.14 
  -8   6   0    0.78    0.13 
   8  -6   0    0.60    0.16 
  -7   6  -1    0.82    0.12 
   7  -6   1    0.74    0.15 
  -6   6  -2    0.88    0.13 
   6  -6   2    0.94    0.15 
  -5   6  -3    0.71    0.11 
   5  -6   3    0.52    0.11 
  -4   6  -4    1.00    0.12 
   4  -6   4    0.88    0.13 
  -3   6  -5   10.86    0.46 
   3  -6   5   10.39    0.50 
  -2   6  -6  140.11    5.11 
   2  -6   6  143.40    5.45 
  -1   6  -7   19.97    0.76 
   1  -6   7   18.67    0.85 
   0   6  -8    0.25    0.08 
   0  -6   8    0.05    0.11 
  -1  -6   9    5.02    0.35 
  -2  -6  10   -0.16    0.10 
  -3  -6  11    0.02    0.14 
  -9   7   0    0.11    0.12 
   9  -7   0    0.13    0.13 
  -8   7  -1    0.92    0.14 
   8  -7   1    0.94    0.18 
  -7   7  -2    0.44    0.12 
   7  -7   2    0.62    0.15 
  -6   7  -3    0.77    0.13 
   6  -7   3    1.03    0.15 
  -5   7  -4    5.75    0.31 
   5  -7   4    5.66    0.34 
  -4   7  -5   12.85    0.55 
   4  -7   5   12.84    0.60 
  -3   7  -6   17.92    0.73 
   3  -7   6   17.99    0.80 
  -2   7  -7    0.32    0.09 
   2  -7   7    0.30    0.12 
  -1   7  -8    0.83    0.12 
   1  -7   8    0.87    0.16 
   0  -7   9    0.05    0.11 
  -1  -7  10    0.21    0.14 
  -2  -7  11    0.17    0.15 
  -8   8  -2    0.24    0.12 
   8  -8   2    0.41    0.15 
  -7   8  -3    0.12    0.10 
   7  -8   3    0.25    0.13 
  -6   8  -4    0.29    0.10 
   6  -8   4    0.10    0.10 
  -5   8  -5    0.26    0.10 
   5  -8   5    0.35    0.12 
  -4   8  -6    6.76    0.35 
   4  -8   6    7.07    0.40 
  -3   8  -7    0.52    0.12 
   3  -8   7    0.37    0.13 
  -2   8  -8    0.70    0.12 
   2  -8   8    0.27    0.13 
  -1   8  -9    0.15    0.09 
   1  -8   9   -0.10    0.10 
   0  -8  10    1.75    0.24 
  -7   9  -4    3.42    0.26 
   7  -9   4    3.81    0.31 
  -6   9  -5    0.05    0.10 
   6  -9   5    0.23    0.13 
  -5   9  -6    0.26    0.13 
   5  -9   6    0.22    0.12 
  -4   9  -7    0.07    0.11 
   4  -9   7   -0.01    0.11 
  -3   9  -8   -0.15    0.10 
   3  -9   8   -0.02    0.11 
  -2   9  -9    0.03    0.11 
   2  -9   9    0.24    0.14 
   1  -9  10    0.23    0.15 
  -2  11  -6    3.82    0.29 
  -3  11  -5    3.63    0.28 
  -4  11  -4    0.12    0.12 
  -5  11  -3    0.97    0.17 
  -6  11  -2    2.24    0.23 
   0  10  -7    8.12    0.41 
  -1  10  -6   -0.09    0.09 
  -2  10  -5    9.29    0.45 
  -3  10  -4    1.75    0.18 
  -4  10  -3    0.18    0.11 
  -5  10  -2    1.18    0.16 
  -6  10  -1   -0.07    0.10 
  -7  10   0    0.29    0.12 
  -2  -9   8    0.59    0.15 
  -1  -9   7    0.01    0.10 
   1   9  -7   -0.09    0.09 
   0  -9   6    0.30    0.12 
   0   9  -6    0.41    0.11 
   1  -9   5    1.25    0.16 
  -1   9  -5    1.20    0.14 
   2  -9   4    1.02    0.14 
  -2   9  -4    0.93    0.13 
   3  -9   3    3.40    0.23 
  -3   9  -3    2.76    0.21 
   4  -9   2    0.08    0.08 
  -4   9  -2   -0.01    0.09 
  -5   9  -1   -0.04    0.09 
  -6   9   0    0.37    0.11 
  -7   9   1    4.04    0.27 
  -8   9   2    6.25    0.36 
  -3  -8   8    0.32    0.13 
  -2  -8   7    0.07    0.10 
   2   8  -7   -0.04    0.08 
  -1  -8   6    0.00    0.10 
   1   8  -6    0.12    0.09 
   0  -8   5    4.67    0.29 
   0   8  -5    4.67    0.26 
   1  -8   4    3.96    0.25 
  -1   8  -4    4.13    0.23 
   2  -8   3   20.88    0.87 
  -2   8  -3   20.49    0.82 
   3  -8   2    2.77    0.20 
  -3   8  -2    2.61    0.20 
   4  -8   1    0.65    0.11 
  -4   8  -1    0.69    0.12 
   5  -8   0    0.12    0.08 
  -5   8   0    0.25    0.10 
   6  -8  -1    4.36    0.28 
  -6   8   1    3.98    0.25 
   7  -8  -2    0.60    0.14 
  -7   8   2    0.02    0.09 
  -8   8   3    0.82    0.14 
  -4  -7   8    0.10    0.12 
  -3  -7   7    0.23    0.11 
   3   7  -7    0.28    0.09 
  -2  -7   6    4.93    0.31 
   2   7  -6    4.46    0.26 
  -1  -7   5    2.65    0.22 
   1   7  -5    2.53    0.19 
   0  -7   4    0.05    0.07 
   0   7  -4    0.05    0.08 
   1  -7   3    3.12    0.20 
  -1   7  -3    2.97    0.20 
   2  -7   2    0.13    0.07 
  -2   7  -2    0.10    0.04 
  -2   7  -2    0.01    0.02 
   3  -7   1   20.04    0.83 
  -3   7  -1   20.30    0.80 
  -3   7  -1   20.60    0.72 
   4  -7   0    0.94    0.11 
  -4   7   0    0.80    0.11 
  -4   7   0    0.88    0.08 
   5  -7  -1    3.40    0.23 
  -5   7   1    3.46    0.19 
  -5   7   1    3.37    0.23 
   6  -7  -2    7.66    0.38 
  -6   7   2    6.75    0.34 
  -6   7   2    6.81    0.32 
   7  -7  -3    4.70    0.31 
  -7   7   3    5.00    0.28 
  -7   7   3    4.91    0.26 
   8  -7  -4    0.42    0.13 
  -8   7   4    0.56    0.12 
   9  -7  -5   -0.02    0.12 
  -9   7   5    0.05    0.11 
  -5  -6   8   -0.14    0.10 
  -4  -6   7    0.32    0.12 
  -3  -6   6    6.29    0.37 
   3   6  -6    6.30    0.30 
  -2  -6   5   27.28    1.12 
   2   6  -5   27.10    1.03 
  -1  -6   4    8.06    0.38 
   1   6  -4    7.58    0.31 
   1   6  -4    7.60    0.35 
   0  -6   3    0.92    0.10 
   0   6  -3    0.88    0.10 
   0   6  -3    1.01    0.08 
   1  -6   2    3.62    0.20 
  -1   6  -2    3.52    0.15 
  -1   6  -2    3.57    0.20 
   2  -6   1   32.54    1.27 
  -2   6  -1   33.53    1.13 
  -2   6  -1   30.66    1.20 
   3  -6   0    4.92    0.25 
  -3   6   0    5.23    0.22 
  -3   6   0    5.23    0.26 
   4  -6  -1   24.58    0.98 
  -4   6   1   23.71    0.93 
  -4   6   1   24.59    0.87 
   5  -6  -2   27.21    1.11 
  -5   6   2   27.26    0.99 
  -5   6   2   27.85    1.04 
   6  -6  -3    8.15    0.41 
  -6   6   3    8.22    0.37 
  -6   6   3    8.11    0.36 
   7  -6  -4   -0.04    0.10 
  -7   6   4    0.07    0.08 
   8  -6  -5    0.49    0.14 
  -8   6   5    0.59    0.12 
   9  -6  -6    0.39    0.16 
  -9   6   6    0.12    0.11 
  -6  -5   8   -0.11    0.10 
   6   5  -8   -0.06    0.14 
  -5  -5   7    1.98    0.22 
  -4  -5   6   62.10    2.46 
   4   5  -6   62.36    2.27 
  -3  -5   5   34.07    1.38 
  -2  -5   4    6.68    0.34 
  -1  -5   3    1.55    0.15 
   1   5  -3    1.63    0.13 
   1   5  -3    1.49    0.10 
   0   5  -2    3.27    0.18 
   0   5  -2    3.25    0.15 
   1  -5   1    2.73    0.15 
  -1   5  -1    2.70    0.13 
   2  -5   0    0.35    0.05 
  -2   5   0    0.37    0.05 
  -2   5   0    0.27    0.06 
  -3   5   1    1.93    0.14 
  -3   5   1    1.90    0.11 
   4  -5  -2   17.12    0.70 
  -4   5   2   17.34    0.67 
  -4   5   2   17.14    0.63 
   5  -5  -3    0.08    0.08 
  -5   5   3   -0.01    0.06 
  -5   5   3    0.13    0.06 
   6  -5  -4    0.14    0.09 
  -6   5   4    0.14    0.07 
  -6   5   4    0.21    0.07 
   7  -5  -5    0.19    0.11 
  -7   5   5    0.16    0.09 
   8  -5  -6    1.63    0.19 
  -8   5   6    1.48    0.17 
   9  -5  -7    1.43    0.20 
  -9   5   7    1.49    0.18 
   7   4  -8    1.08    0.20 
   6   4  -7    0.08    0.13 
  -5  -4   6    4.89    0.33 
   5   4  -6    5.48    0.33 
  -4  -4   5    3.43    0.24 
  -3  -4   4    6.21    0.33 
  -2  -4   3    1.38    0.13 
   1   4  -2   12.63    0.47 
   0  -4   1   69.43    2.62 
   0   4  -1   68.11    2.36 
   1  -4   0   37.21    1.43 
  -1   4   0   37.04    1.30 
  -1   4   0   38.08    1.37 
   2  -4  -1    0.25    0.04 
  -2   4   1    0.15    0.05 
  -2   4   1    0.24    0.05 
   3  -4  -2    6.27    0.30 
  -3   4   2    7.12    0.29 
  -3   4   2    7.20    0.28 
   4  -4  -3   50.61    1.97 
  -4   4   3   52.09    1.86 
  -4   4   3   50.50    1.78 
   5  -4  -4    3.71    0.22 
  -5   4   4    3.78    0.19 
  -5   4   4    3.69    0.20 
   6  -4  -5    1.26    0.14 
  -6   4   5    1.61    0.14 
   7  -4  -6    5.93    0.35 
  -7   4   6    5.72    0.30 
   8  -4  -7    0.03    0.11 
  -8   4   7    0.10    0.10 
   7   3  -7   -0.02    0.14 
   6   3  -6    0.21    0.12 
   5   3  -5    0.00    0.10 
  -4  -3   4    1.69    0.17 
   4   3  -4    1.83    0.17 
  -3  -3   3    0.13    0.07 
  -1  -3   1  116.92    4.40 
   1   3  -1  115.23    3.97 
   0  -3   0   91.88    3.48 
   0   3   0   92.20    3.15 
   1  -3  -1  144.16    5.53 
  -1   3   1  149.12    5.00 
   2  -3  -2    8.07    0.31 
  -2   3   2    8.19    0.30 
  -2   3   2    6.28    0.29 
  -3   3   3    5.51    0.24 
  -3   3   3    6.61    0.25 
   4  -3  -4    4.30    0.23 
  -4   3   4    4.39    0.21 
   5  -3  -5    0.76    0.11 
  -5   3   5    0.96    0.10 
   6  -3  -6    0.10    0.10 
  -6   3   6    0.09    0.07 
   7  -3  -7    0.03    0.10 
  -7   3   7   -0.02    0.08 
   8  -3  -8    0.16    0.13 
  -8   3   8    0.21    0.11 
   8   2  -7    0.03    0.15 
   7   2  -6   -0.07    0.10 
   6   2  -5    4.01    0.27 
   5   2  -4    4.49    0.27 
   4   2  -3    5.18    0.27 
   3   2  -2   67.57    2.59 
   2   2  -1    4.01    0.19 
   1   2   0    5.57    0.23 
   1   2   0    5.57    0.22 
   0   2   1  217.73    7.41 
   1  -2  -2   17.52    0.68 
  -1   2   2   17.69    0.63 
   2  -2  -3   90.11    3.39 
  -2   2   3   85.10    3.07 
  -2   2   3   92.99    3.20 
   3  -2  -4    2.01    0.14 
  -3   2   4    2.26    0.11 
   4  -2  -5    2.86    0.18 
  -4   2   5    2.76    0.13 
   5  -2  -6    3.72    0.24 
   6  -2  -7    9.28    0.48 
  -6   2   7    9.92    0.42 
   7  -2  -8    6.78    0.39 
  -7   2   8    6.79    0.34 
   8  -2  -9    0.34    0.14 
  -8   2   9    0.35    0.12 
   8   1  -6    0.25    0.15 
   7   1  -5    0.21    0.12 
   6   1  -4    5.78    0.33 
   5   1  -3    2.89    0.20 
   4   1  -2   10.83    0.48 
   3   1  -1   11.34    0.48 
   2   1   0   17.42    0.69 
   1   1   1  270.56    9.79 
   1   1   1  304.65   10.87 
   0   1   2  206.72    7.67 
   0   1   2  199.91    6.92 
  -1   1   3   88.25    3.35 
  -2   1   4    2.81    0.16 
  -2   1   4    2.91    0.15 
  -2   1   4    2.77    0.12 
  -3   1   5    8.50    0.40 
  -3   1   5    9.39    0.36 
  -4   1   6    0.99    0.10 
  -4   1   6    0.83    0.12 
   5  -1  -7    8.54    0.42 
  -5   1   7    8.07    0.43 
  -5   1   7    8.00    0.36 
   6  -1  -8    7.13    0.40 
  -6   1   8    6.57    0.33 
   7  -1  -9    1.73    0.21 
  -7   1   9    2.00    0.19 
   8  -1 -10    0.94    0.20 
  -8   1  10    1.45    0.19 
   9   0  -6    0.12    0.13 
   8   0  -5    1.55    0.20 
   7   0  -4   10.14    0.51 
   6   0  -3    0.55    0.11 
   5   0  -2    8.08    0.39 
   4   0  -1    6.93    0.33 
   3   0   0   85.79    3.27 
   2   0   1    2.26    0.13 
   1   0   2    0.05    0.03 
   1   0   2    0.16    0.04 
   0   0   3    1.45    0.08 
   0   0   3    1.14    0.10 
  -1   0   4   35.35    1.38 
  -2   0   5    8.97    0.35 
  -2   0   5    9.09    0.40 
  -3   0   6    1.84    0.13 
  -3   0   6    1.71    0.16 
  -4   0   7    0.16    0.08 
  -4   0   7    0.24    0.11 
  -5   0   8   10.41    0.44 
  -5   0   8    9.82    0.50 
   6   0  -9    0.49    0.15 
  -6   0   9    0.73    0.12 
  -6   0   9    0.65    0.16 
   7   0 -10    0.13    0.14 
  -7   0  10    0.07    0.10 
   9  -1  -5    0.01    0.12 
   8  -1  -4    0.14    0.11 
   7  -1  -3    0.28    0.11 
   6  -1  -2    6.67    0.35 
   5  -1  -1    7.54    0.37 
   4  -1   0  214.96    8.15 
   3  -1   1  102.13    3.89 
   2  -1   2   33.77    1.31 
   2  -1   2   33.71    1.17 
   1  -1   3   37.27    1.28 
   1  -1   3   37.07    1.44 
   0  -1   4    3.40    0.18 
   0  -1   4    3.36    0.15 
  -1  -1   5  160.30    6.00 
  -1  -1   5  155.63    5.39 
  -2  -1   6   21.30    0.87 
  -2  -1   6   20.66    0.76 
  -3  -1   7   43.58    1.71 
  -3  -1   7   41.95    1.51 
  -4  -1   8   11.08    0.46 
  -4  -1   8   11.34    0.54 
  -5  -1   9    2.03    0.17 
  -5  -1   9    1.89    0.21 
  -6  -1  10    0.23    0.16 
  -6  -1  10    0.65    0.12 
   7   1 -11    0.11    0.16 
  -7  -1  11    0.06    0.11 
   9  -2  -4    0.28    0.14 
   8  -2  -3    0.48    0.13 
   7  -2  -2    0.80    0.14 
   5  -2   0  103.76    3.99 
  -4   2  -1    2.64    0.16 
   4  -2   1    2.15    0.17 
   3  -2   2   76.43    2.93 
  -2   2  -3    0.18    0.05 
   2  -2   3    0.17    0.06 
   2  -2   3    0.21    0.04 
  -1   2  -4    0.56    0.06 
   1  -2   4    0.78    0.09 
   1  -2   4    0.74    0.06 
   0   2  -5   10.01    0.40 
   0  -2   5   10.27    0.38 
   0  -2   5   10.93    0.46 
   1   2  -6   -0.03    0.03 
  -1  -2   6    0.05    0.06 
  -1  -2   6   -0.02    0.03 
  -2  -2   7    0.00    0.08 
  -2  -2   7    0.02    0.04 
  -3  -2   8    0.05    0.09 
  -3  -2   8    0.02    0.06 
  -4  -2   9    0.22    0.11 
  -4  -2   9    0.19    0.08 
  -5  -2  10    0.01    0.08 
  -5  -2  10    0.10    0.12 
  -6  -2  11    0.15    0.15 
  -6  -2  11    0.00    0.09 
  10  -3  -4    0.35    0.16 
   9  -3  -3    6.21    0.39 
   8  -3  -2    2.42    0.23 
   7  -3  -1    9.02    0.46 
   6  -3   0    0.00    0.03 
  -5   3  -1    0.06    0.06 
   5  -3   1   -0.02    0.02 
  -4   3  -2    5.96    0.28 
  -3   3  -3    7.01    0.30 
   3  -3   3    7.16    0.27 
  -2   3  -4   23.65    0.88 
   2  -3   4   23.14    0.95 
   2  -3   4   23.38    0.81 
  -1   3  -5    0.12    0.05 
   1  -3   5    0.19    0.04 
   1  -3   5    0.16    0.07 
   0   3  -6    2.89    0.15 
   0  -3   6    3.00    0.20 
   1   3  -7    0.08    0.05 
  -1  -3   7    0.10    0.08 
  -1  -3   7    0.10    0.04 
  -2  -3   8   -0.09    0.09 
  -2  -3   8    0.05    0.05 
  -3  -3   9   15.16    0.59 
  -3  -3   9   15.19    0.71 
  -4  -3  10    0.09    0.12 
  -4  -3  10    0.21    0.08 
  -5  -3  11    0.72    0.12 
  -5  -3  11    0.21    0.15 
  10  -4  -3   -0.14    0.14 
   9  -4  -2   -0.10    0.11 
   8  -4  -1    0.54    0.14 
   7  -4   0    7.25    0.40 
  -6   4  -1    1.91    0.18 
   6  -4   1    2.36    0.20 
  -5   4  -2    0.47    0.09 
  -3   4  -4    0.04    0.06 
   3  -4   4   -0.01    0.03 
   3  -4   4    0.02    0.02 
  -2   4  -5   20.26    0.77 
   2  -4   5   20.16    0.70 
  -1   4  -6   13.05    0.51 
   1  -4   6   12.74    0.46 
   0   4  -7    0.05    0.06 
   0  -4   7   -0.03    0.03 
   0  -4   7    0.01    0.02 
  -1  -4   8    1.62    0.12 
  -1  -4   8    1.69    0.18 
  -2  -4   9    1.85    0.14 
  -2  -4   9    1.69    0.19 
  -3  -4  10    0.48    0.14 
  -4  -4  11    0.43    0.14 
   9  -5  -1    0.30    0.15 
   8  -5   0   -0.02    0.11 
  -7   5  -1   11.34    0.50 
   7  -5   1   11.14    0.55 
  -6   5  -2    0.58    0.11 
   6  -5   2    0.41    0.12 
  -5   5  -3    0.60    0.10 
   5  -5   3    0.65    0.12 
  -4   5  -4    2.33    0.17 
   4  -5   4    1.41    0.15 
  -2   5  -6    2.77    0.18 
  -1   5  -7    1.47    0.13 
   1  -5   7    1.39    0.17 
   0   5  -8    0.10    0.07 
   0  -5   8    0.19    0.11 
  -1  -5   9    0.26    0.12 
  -2  -5  10   -0.09    0.10 
  -3  -5  11   -0.05    0.12 
   9  -6   0    0.06    0.12 
  -8   6  -1    0.38    0.12 
   8  -6   1    0.52    0.16 
  -7   6  -2    4.50    0.28 
   7  -6   2    4.80    0.33 
  -6   6  -3    0.39    0.10 
   6  -6   3    0.26    0.11 
  -5   6  -4    4.69    0.26 
   5  -6   4    4.88    0.31 
  -4   6  -5    9.52    0.43 
   4  -6   5    9.52    0.47 
  -3   6  -6   20.78    0.84 
   3  -6   6   21.89    0.92 
  -2   6  -7   20.26    0.81 
   2  -6   7   21.08    0.91 
  -1   6  -8    2.26    0.18 
   1  -6   8    2.48    0.23 
   0  -6   9    0.48    0.13 
  -1  -6  10    0.97    0.18 
  -2  -6  11    0.07    0.13 
  -9   7  -1    2.81    0.25 
   9  -7   1    2.56    0.30 
  -8   7  -2    0.58    0.14 
   8  -7   2    0.66    0.16 
  -7   7  -3    0.39    0.12 
   7  -7   3    0.42    0.14 
  -6   7  -4    0.41    0.11 
   6  -7   4    0.43    0.13 
  -5   7  -5    3.24    0.22 
   5  -7   5    3.45    0.25 
  -4   7  -6    8.08    0.39 
   4  -7   6    8.53    0.45 
  -3   7  -7    0.80    0.13 
   3  -7   7    0.94    0.16 
  -2   7  -8    0.11    0.09 
   2  -7   8    0.16    0.11 
  -1   7  -9    0.43    0.10 
   1  -7   9    0.50    0.14 
   0  -7  10   -0.04    0.11 
  -1  -7  11    1.66    0.25 
  -8   8  -3    0.14    0.13 
   8  -8   3    0.11    0.14 
  -7   8  -4    2.02    0.20 
   7  -8   4    2.47    0.25 
  -6   8  -5    2.96    0.24 
   6  -8   5    3.16    0.27 
  -5   8  -6    9.21    0.45 
   5  -8   6    9.10    0.49 
  -4   8  -7    0.13    0.11 
   4  -8   7    0.18    0.12 
  -3   8  -8    0.58    0.13 
   3  -8   8    0.53    0.15 
  -2   8  -9    0.29    0.11 
   2  -8   9    0.34    0.13 
   1  -8  10    2.68    0.27 
  -7   9  -5    0.20    0.13 
   7  -9   5    0.37    0.16 
  -6   9  -6    0.64    0.16 
   6  -9   6    0.70    0.17 
  -5   9  -7    0.68    0.15 
   5  -9   7    0.62    0.17 
  -4   9  -8    1.68    0.19 
   4  -9   8    1.59    0.23 
  -3   9  -9    0.16    0.12 
   3  -9   9    0.05    0.15 
  -1  11  -6    1.34    0.18 
  -2  11  -5    1.69    0.20 
  -3  11  -4    0.10    0.12 
  -4  11  -3    1.12    0.16 
  -5  11  -2    0.02    0.12 
  -6  11  -1    0.58    0.16 
   1  10  -7    0.67    0.14 
   0  10  -6    1.13    0.16 
  -1  10  -5    0.04    0.10 
  -2  10  -4   -0.11    0.10 
  -3  10  -3    1.22    0.15 
  -4  10  -2    0.02    0.10 
  -5  10  -1    0.59    0.13 
  -6  10   0    0.17    0.12 
  -7  10   1    3.69    0.27 
   2   9  -7    3.17    0.24 
   1   9  -6    0.15    0.10 
   0   9  -5    0.27    0.10 
  -1   9  -4    0.13    0.10 
  -2   9  -3    0.56    0.11 
  -3   9  -2    4.90    0.28 
  -4   9  -1    3.10    0.21 
  -5   9   0    0.40    0.10 
  -6   9   1    2.33    0.22 
  -7   9   2    7.83    0.39 
  -4  -8   8    0.13    0.13 
  -3  -8   7    0.25    0.12 
  -2  -8   6    0.32    0.12 
   2   8  -6    0.26    0.10 
  -1  -8   5    0.65    0.12 
   1   8  -5    0.49    0.11 
   0  -8   4    0.25    0.10 
   0   8  -4    0.34    0.09 
   1  -8   3    1.24    0.13 
  -1   8  -3    1.14    0.13 
   2  -8   2   -0.02    0.07 
  -2   8  -2    0.02    0.08 
  -3   8  -1    3.38    0.22 
  -4   8   0    5.47    0.29 
  -5   8   1    1.80    0.17 
  -6   8   2   30.15    1.16 
  -6   8   2   29.97    1.10 
  -7   8   3    0.68    0.12 
  -7   8   3    0.53    0.11 
  -8   8   4    0.18    0.11 
  -5  -7   8    0.02    0.12 
  -4  -7   7   -0.14    0.09 
  -3  -7   6    9.38    0.49 
   3   7  -6    9.66    0.43 
  -2  -7   5    9.09    0.45 
   2   7  -5    9.02    0.37 
   2   7  -5    8.87    0.40 
  -1  -7   4    5.07    0.30 
   1   7  -4    5.14    0.27 
   1   7  -4    5.35    0.23 
   0  -7   3   19.31    0.79 
   0   7  -3   18.66    0.75 
   0   7  -3   18.79    0.68 
   1  -7   2    0.89    0.10 
  -1   7  -2    1.03    0.08 
   2  -7   1    0.27    0.07 
  -2   7  -1    0.31    0.06 
  -2   7  -1    0.29    0.08 
   3  -7   0    2.11    0.16 
  -3   7   0    2.20    0.13 
  -3   7   0    2.31    0.17 
   4  -7  -1   14.06    0.59 
  -4   7   1   13.20    0.57 
  -4   7   1   14.42    0.53 
   5  -7  -2   48.36    1.86 
  -5   7   2   47.13    1.68 
  -5   7   2   47.20    1.77 
   6  -7  -3    7.95    0.40 
  -6   7   3    8.04    0.36 
  -6   7   3    7.71    0.37 
  -7   7   4    0.34    0.10 
  -8   7   5    0.18    0.11 
   6   6  -8    0.10    0.16 
  -5  -6   7    0.37    0.13 
  -4  -6   6    8.80    0.48 
   4   6  -6    9.30    0.41 
  -3  -6   5    6.15    0.35 
   3   6  -5    5.93    0.29 
  -2  -6   4    0.69    0.11 
   2   6  -4    0.54    0.08 
   2   6  -4    0.44    0.09 
  -1  -6   3    0.79    0.10 
   1   6  -3    0.64    0.09 
   1   6  -3    0.75    0.08 
   0  -6   2    6.69    0.31 
   0   6  -2    6.42    0.30 
   0   6  -2    6.60    0.27 
   1  -6   1    7.53    0.36 
  -1   6  -1    9.57    0.33 
   2  -6   0    4.25    0.22 
  -2   6   0    4.35    0.23 
  -2   6   0    4.54    0.20 
  -3   6   1    5.33    0.26 
  -3   6   1    5.33    0.24 
   4  -6  -2   18.27    0.74 
  -4   6   2   17.69    0.71 
  -4   6   2   18.32    0.67 
   5  -6  -3    1.83    0.17 
  -5   6   3    1.96    0.17 
  -5   6   3    1.57    0.14 
   6  -6  -4    0.19    0.10 
  -6   6   4    0.09    0.07 
  -6   6   4    0.07    0.08 
   7  -6  -5   -0.10    0.09 
  -7   6   5   -0.03    0.07 
   8  -6  -6    4.60    0.31 
  -8   6   6    4.06    0.27 
   6   5  -7    0.50    0.16 
  -5  -5   6    0.00    0.11 
   5   5  -6    0.11    0.11 
  -4  -5   5    3.74    0.28 
  -3  -5   4    2.95    0.22 
  -2  -5   3    3.47    0.22 
   2   5  -3    3.51    0.18 
  -1  -5   2    1.08    0.10 
   1   5  -2    1.67    0.11 
   0  -5   1   46.62    1.77 
   0   5  -1   45.43    1.60 
   1  -5   0   21.66    0.84 
  -1   5   0   22.25    0.82 
  -1   5   0   20.66    0.77 
   2  -5  -1   44.49    1.75 
  -2   5   1   46.13    1.59 
  -2   5   1   46.58    1.68 
   3  -5  -2    0.06    0.05 
  -3   5   2    0.06    0.05 
  -3   5   2    0.01    0.06 
   4  -5  -3   26.83    1.03 
  -4   5   3   25.06    0.97 
  -4   5   3   25.30    0.93 
   5  -5  -4   -0.15    0.07 
  -5   5   4    0.01    0.06 
  -5   5   4   -0.05    0.05 
   6  -5  -5    0.21    0.10 
  -6   5   5    0.32    0.08 
   7  -5  -6    0.57    0.13 
  -7   5   6    0.49    0.12 
   8  -5  -7    0.15    0.12 
  -8   5   7    0.14    0.11 
   7   4  -7    0.05    0.14 
   6   4  -6    5.21    0.34 
   5   4  -5    2.30    0.23 
  -4  -4   4    6.35    0.35 
   4   4  -4    6.31    0.34 
  -3  -4   3    3.82    0.23 
  -2  -4   2    0.04    0.05 
   2   4  -2    0.05    0.05 
  -1  -4   1   54.38    2.07 
   1   4  -1   53.77    1.87 
   0  -4   0   91.85    3.46 
   0   4   0   90.80    3.13 
   1  -4  -1   77.15    2.94 
  -1   4   1   78.67    2.68 
   2  -4  -2    6.00    0.25 
  -2   4   2    6.00    0.26 
  -2   4   2    6.03    0.25 
   3  -4  -3    2.20    0.14 
  -3   4   3    2.28    0.14 
  -3   4   3    2.37    0.14 
   4  -4  -4   16.51    0.67 
  -4   4   4   16.25    0.62 
  -4   4   4   15.62    0.61 
   5  -4  -5    0.66    0.11 
  -5   4   5    0.81    0.08 
  -5   4   5    0.51    0.09 
   6  -4  -6    3.30    0.23 
  -6   4   6    3.23    0.20 
   7  -4  -7    1.52    0.18 
  -7   4   7    1.53    0.16 
   8  -4  -8    0.09    0.12 
  -8   4   8   -0.09    0.10 
   8   3  -7    0.41    0.18 
   7   3  -6    0.04    0.13 
   6   3  -5    0.59    0.14 
   5   3  -4    1.10    0.15 
   4   3  -3    0.45    0.09 
   3   3  -2   10.30    0.45 
   2   3  -1    9.73    0.38 
   2   3  -1    9.71    0.41 
   1   3   0    4.23    0.19 
   1   3   0    4.17    0.18 
   0   3   1   98.08    3.36 
   1  -3  -2    1.35    0.07 
  -1   3   2    1.60    0.10 
   2  -3  -3   80.60    3.11 
  -2   3   3   83.66    2.83 
  -3   3   4    2.76    0.13 
   4  -3  -5    1.33    0.13 
  -4   3   5    1.11    0.11 
  -4   3   5    1.35    0.10 
   5  -3  -6    4.04    0.24 
  -5   3   6    4.24    0.23 
   6  -3  -7    2.55    0.21 
  -6   3   7    2.54    0.18 
   7  -3  -8    0.35    0.12 
  -7   3   8    0.40    0.11 
   8  -3  -9    0.05    0.13 
  -8   3   9   -0.05    0.10 
   8   2  -6    0.75    0.18 
   7   2  -5    0.40    0.15 
   6   2  -4    8.21    0.43 
   5   2  -3    2.30    0.20 
   4   2  -2   11.19    0.49 
   3   2  -1   53.55    2.06 
   2   2   0    0.00    0.04 
   2   2   0    0.00    0.04 
   1   2   1   12.50    0.48 
   1   2   1   13.46    0.51 
   0   2   2    1.86    0.09 
  -3   2   5    1.59    0.11 
  -3   2   5    1.59    0.09 
  -3   2   5    1.62    0.13 
   4  -2  -6    4.27    0.24 
  -4   2   6    3.90    0.24 
   5  -2  -7    0.97    0.13 
  -5   2   7    0.81    0.11 
   6  -2  -8    3.45    0.27 
  -6   2   8    3.29    0.22 
   7  -2  -9    0.06    0.11 
  -7   2   9    0.13    0.09 
   9   1  -6    0.13    0.17 
   8   1  -5    1.62    0.22 
   7   1  -4    1.57    0.19 
   6   1  -3    3.14    0.24 
   5   1  -2    8.69    0.42 
   4   1  -1    0.75    0.10 
   3   1   0   28.42    1.12 
   2   1   1    0.91    0.08 
   2   1   1    0.93    0.08 
   1   1   2   27.83    1.07 
   0   1   3    0.88    0.07 
  -1   1   4    6.64    0.29 
  -1   1   4    6.32    0.26 
  -2   1   5    0.86    0.09 
  -2   1   5    0.72    0.08 
  -3   1   6   10.13    0.41 
  -3   1   6   10.03    0.45 
  -4   1   7   52.74    2.11 
  -4   1   7   54.81    1.90 
  -5   1   8   58.59    2.04 
  -5   1   8   56.22    2.27 
   6  -1  -9   -0.08    0.10 
  -6   1   9   -0.06    0.07 
   7  -1 -10    0.04    0.12 
  -7   1  10    0.00    0.09 
   9   0  -5    0.82    0.19 
   8   0  -4    0.28    0.13 
   7   0  -3    0.60    0.14 
   6   0  -2    0.45    0.11 
   5   0  -1    1.00    0.13 
   4   0   0  105.87    4.05 
   3   0   1   91.07    3.47 
   2   0   2   26.19    0.92 
   1   0   3   23.31    0.91 
   0   0   4   25.96    1.01 
   0   0   4   25.28    0.91 
  -1   0   5   13.51    0.56 
  -1   0   5   13.09    0.50 
  -2   0   6   13.02    0.50 
  -2   0   6   13.33    0.57 
  -3   0   7   18.25    0.69 
  -3   0   7   18.41    0.78 
  -4   0   8   15.28    0.68 
  -4   0   8   15.00    0.60 
  -5   0   9    0.28    0.09 
  -5   0   9    0.05    0.11 
   6   0 -10   -0.05    0.12 
  -6   0  10   -0.17    0.07 
  -6   0  10   -0.02    0.14 
   7   0 -11    0.06    0.15 
  -7   0  11   -0.14    0.10 
   9  -1  -4   -0.10    0.12 
   8  -1  -3   -0.03    0.11 
   7  -1  -2    0.41    0.12 
   6  -1  -1    7.90    0.41 
   5  -1   0    9.37    0.44 
   4  -1   1   90.44    3.47 
   3  -1   2   31.66    1.25 
   3  -1   2   31.81    1.11 
   2  -1   3   33.46    1.31 
   0  -1   5    3.28    0.19 
   0  -1   5    3.17    0.16 
  -1  -1   6    8.03    0.38 
  -1  -1   6    8.07    0.32 
  -2  -1   7   -0.02    0.08 
  -2  -1   7    0.11    0.05 
  -3  -1   8   13.99    0.65 
  -3  -1   8   14.30    0.55 
  -4  -1   9    2.52    0.18 
  -4  -1   9    2.61    0.24 
  -5  -1  10    0.07    0.13 
  -5  -1  10    0.10    0.08 
  -6  -1  11    0.35    0.16 
  -6  -1  11    0.19    0.10 
   9  -2  -3    0.80    0.17 
   8  -2  -2    0.23    0.12 
   7  -2  -1    0.83    0.15 
   6  -2   0    7.23    0.38 
   5  -2   1    7.91    0.39 
   4  -2   2    0.27    0.08 
   3  -2   3    0.93    0.10 
   3  -2   3    0.87    0.08 
  -2   2  -4    7.74    0.33 
   2  -2   4    8.28    0.37 
  -1   2  -5  147.98    5.35 
   1  -2   5  150.94    5.69 
   0  -2   6   11.28    0.50 
   0  -2   6   11.32    0.42 
  -1  -2   7   13.13    0.49 
  -1  -2   7   12.92    0.58 
  -2  -2   8    0.27    0.11 
  -2  -2   8    0.29    0.07 
  -3  -2   9    4.18    0.23 
  -3  -2   9    4.84    0.32 
  -4  -2  10    1.44    0.14 
  -4  -2  10    1.13    0.18 
  -5  -2  11    0.51    0.16 
  -5  -2  11    0.34    0.10 
  10  -3  -3    0.84    0.19 
   9  -3  -2    2.82    0.27 
   8  -3  -1    0.53    0.14 
   7  -3   0   24.41    1.04 
   6  -3   1    0.11    0.09 
   5  -3   2    0.03    0.08 
   4  -3   3    3.09    0.21 
   4  -3   3    2.86    0.15 
  -3   3  -4    4.87    0.24 
   3  -3   4    4.95    0.26 
  -2   3  -5   15.98    0.61 
   2  -3   5   16.28    0.67 
   2  -3   5   14.90    0.56 
  -1   3  -6   20.00    0.76 
   1  -3   6   20.22    0.85 
   0   3  -7    2.08    0.14 
   0  -3   7    1.83    0.12 
   0  -3   7    2.00    0.19 
  -1  -3   8    0.30    0.06 
  -1  -3   8    0.21    0.11 
  -2  -3   9   -0.12    0.10 
  -2  -3   9    0.01    0.06 
  -3  -3  10    0.42    0.09 
  -3  -3  10    0.42    0.14 
  -4  -3  11    0.59    0.11 
  -4  -3  11    0.70    0.18 
  -5  -3  12    1.48    0.24 
  10  -4  -2    0.00    0.13 
   9  -4  -1    0.35    0.14 
   8  -4   0    1.13    0.17 
   7  -4   1   -0.01    0.10 
  -6   4  -2    3.22    0.21 
   6  -4   2    2.92    0.23 
   5  -4   3    0.33    0.06 
   5  -4   3    0.19    0.07 
  -4   4  -4    0.59    0.09 
   4  -4   4    0.43    0.06 
  -3   4  -5    0.69    0.10 
   3  -4   5    0.75    0.06 
  -2   4  -6   14.14    0.49 
   2  -4   6    9.56    0.53 
  -1   4  -7   22.37    0.86 
   1  -4   7   23.26    0.97 
   0   4  -8    3.49    0.19 
   0  -4   8    3.57    0.26 
  -1  -4   9   20.84    0.92 
  -2  -4  10    0.78    0.16 
  -3  -4  11   -0.14    0.12 
  -4  -4  12    0.19    0.15 
   9  -5   0   -0.02    0.13 
   8  -5   1    0.53    0.14 
  -7   5  -2    2.84    0.21 
   7  -5   2    2.89    0.25 
  -6   5  -3   -0.04    0.08 
   6  -5   3    0.09    0.09 
  -5   5  -4    8.99    0.40 
   5  -5   4    8.41    0.44 
  -4   5  -5    3.78    0.22 
   4  -5   5    3.87    0.25 
  -3   5  -6    4.96    0.27 
   3  -5   6    5.33    0.30 
  -2   5  -7   13.63    0.57 
   2  -5   7   14.11    0.64 
  -1   5  -8    3.50    0.22 
   1  -5   8    3.77    0.26 
   0  -5   9    5.76    0.36 
  -1  -5  10    0.00    0.10 
  -2  -5  11    0.08    0.13 
  -3  -5  12    0.07    0.14 
   9  -6   1    3.49    0.31 
  -8   6  -2   -0.04    0.09 
   8  -6   2    0.10    0.12 
  -7   6  -3    1.35    0.16 
   7  -6   3    1.23    0.18 
  -6   6  -4    2.17    0.18 
   6  -6   4    2.16    0.22 
  -5   6  -5    2.94    0.22 
   5  -6   5    3.39    0.24 
  -4   6  -6   14.71    0.62 
   4  -6   6   14.92    0.68 
  -3   6  -7    0.51    0.10 
   3  -6   7    0.39    0.12 
  -2   6  -8    2.16    0.18 
   2  -6   8    1.98    0.21 
  -1   6  -9    0.72    0.11 
   1  -6   9    0.69    0.15 
   0  -6  10   -0.02    0.11 
  -1  -6  11    0.03    0.13 
  -8   7  -3    0.05    0.11 
   8  -7   3    0.10    0.12 
  -7   7  -4    1.24    0.16 
   7  -7   4    1.56    0.20 
  -6   7  -5    0.03    0.09 
   6  -7   5    0.20    0.12 
  -5   7  -6   15.09    0.65 
   5  -7   6   15.60    0.72 
  -4   7  -7   10.71    0.49 
   4  -7   7   10.66    0.54 
  -3   7  -8    1.01    0.14 
   3  -7   8    0.73    0.15 
  -2   7  -9    0.04    0.10 
   2  -7   9    0.06    0.10 
   1  -7  10    0.12    0.13 
   0  -7  11    0.30    0.15 
  -7   8  -5    0.32    0.12 
   7  -8   5    0.58    0.16 
  -6   8  -6    0.97    0.16 
   6  -8   6    0.81    0.16 
  -5   8  -7    3.72    0.27 
   5  -8   7    3.56    0.29 
  -4   8  -8    1.20    0.16 
   4  -8   8    1.41    0.21 
  -3   8  -9    0.06    0.11 
   3  -8   9    0.16    0.12 
   2  -8  10    0.25    0.16 
  -1  11  -5    0.06    0.12 
  -2  11  -4    0.27    0.13 
  -3  11  -3    0.27    0.12 
  -4  11  -2    0.30    0.13 
  -5  11  -1   -0.05    0.13 
   1  10  -6    1.74    0.19 
   0  10  -5    0.18    0.12 
  -1  10  -4    0.30    0.12 
  -2  10  -3    0.14    0.10 
  -3  10  -2    1.65    0.17 
  -4  10  -1    2.32    0.20 
  -5  10   0    0.97    0.15 
  -6  10   1   -0.10    0.11 
  -7  10   2    4.82    0.31 
   2   9  -6    0.58    0.13 
   1   9  -5    0.37    0.11 
   0   9  -4    1.03    0.14 
  -1   9  -3    6.23    0.32 
  -2   9  -2    0.03    0.08 
  -3   9  -1    1.07    0.13 
  -4   9   0    4.53    0.26 
  -5   9   1    0.34    0.10 
  -6   9   2    0.53    0.13 
  -7   9   3    1.63    0.17 
   3   8  -6    3.57    0.25 
   2   8  -5    0.30    0.10 
   1   8  -4    0.59    0.11 
   0   8  -3    1.41    0.14 
  -1   8  -2    7.56    0.36 
  -2   8  -1    2.50    0.18 
  -3   8   0    0.46    0.10 
  -3   8   0    0.66    0.08 
  -4   8   1    0.05    0.06 
  -4   8   1   -0.01    0.09 
  -5   8   2    6.96    0.35 
  -5   8   2    7.13    0.32 
  -6   8   3    1.54    0.16 
  -6   8   3    1.84    0.16 
  -7   8   4    1.32    0.15 
  -8   8   5    0.57    0.13 
  -5  -7   7    0.51    0.16 
   5   7  -7    0.42    0.16 
  -4  -7   6    1.82    0.21 
   4   7  -6    2.13    0.17 
   4   7  -6    2.21    0.20 
  -3  -7   5    3.04    0.25 
   3   7  -5    2.55    0.20 
   3   7  -5    2.74    0.19 
  -2  -7   4    0.67    0.12 
   2   7  -4    0.61    0.10 
   2   7  -4    0.75    0.11 
  -1  -7   3   11.56    0.51 
   1   7  -3   11.36    0.49 
   1   7  -3   11.14    0.44 
   0   7  -2    2.33    0.14 
   0   7  -2    2.56    0.19 
  -1   7  -1    0.64    0.08 
  -2   7   0    5.38    0.24 
  -2   7   0    4.97    0.27 
  -3   7   1    4.90    0.26 
  -3   7   1    5.11    0.24 
  -4   7   2    5.36    0.26 
  -4   7   2    5.63    0.29 
  -5   7   3    3.97    0.22 
  -5   7   3    4.53    0.25 
  -6   7   4    1.07    0.13 
  -6   7   4    1.18    0.14 
  -7   7   5    0.11    0.09 
  -8   7   6    0.23    0.12 
   6   6  -7    0.02    0.14 
   5   6  -6   11.61    0.58 
  -4  -6   5   27.02    1.12 
   4   6  -5   26.18    1.11 
  -3  -6   4    0.40    0.11 
   3   6  -4    0.46    0.09 
  -2  -6   3    0.27    0.09 
   2   6  -3    0.42    0.08 
  -1  -6   2    0.02    0.06 
   1   6  -2    0.00    0.06 
   0  -6   1    3.56    0.18 
   0   6  -1    3.37    0.17 
   1  -6   0    1.46    0.10 
  -1   6   0    1.30    0.10 
  -1   6   0    1.39    0.13 
  -2   6   1    6.48    0.28 
  -2   6   1    6.93    0.32 
  -3   6   2  100.71    3.48 
  -3   6   2  100.95    3.65 
  -4   6   3    2.87    0.19 
  -4   6   3    2.69    0.17 
  -5   6   4    1.08    0.11 
  -5   6   4    0.90    0.11 
  -6   6   5    0.52    0.10 
  -7   6   6    1.96    0.18 
  -8   6   7    1.96    0.20 
   6   5  -6    1.77    0.21 
   5   5  -5   12.12    0.58 
   4   5  -4    2.06    0.20 
  -3  -5   3    0.32    0.09 
   3   5  -3    0.42    0.10 
   3   5  -3    0.45    0.09 
  -2  -5   2    1.28    0.12 
   2   5  -2    1.39    0.12 
  -1  -5   1    0.36    0.06 
   1   5  -1    0.39    0.07 
   0  -5   0   20.26    0.79 
   0   5   0   20.74    0.74 
  -1   5   1  115.78    3.97 
   2  -5  -2   42.71    1.71 
  -2   5   2   46.06    1.65 
  -2   5   2   46.11    1.58 
   3  -5  -3   10.54    0.44 
  -3   5   3   10.48    0.43 
  -3   5   3   10.68    0.42 
   4  -5  -4    6.42    0.30 
  -4   5   4    5.97    0.28 
  -4   5   4    6.08    0.28 
   5  -5  -5    2.01    0.17 
  -5   5   5    1.64    0.14 
  -5   5   5    1.86    0.16 
   6  -5  -6    1.47    0.15 
  -6   5   6    1.51    0.15 
  -7   5   7    0.14    0.10 
  -8   5   8    0.31    0.12 
   7   4  -6    0.10    0.15 
   6   4  -5    4.91    0.32 
   5   4  -4    0.09    0.10 
   4   4  -3    0.45    0.10 
   3   4  -2    8.65    0.39 
   2   4  -1   68.51    2.39 
   2   4  -1   69.28    2.63 
   1   4   0   13.14    0.53 
   1   4   0   13.80    0.51 
   0   4   1  121.95    4.18 
  -1   4   2   18.70    0.68 
   2  -4  -3    0.94    0.08 
  -2   4   3    0.95    0.09 
  -2   4   3    0.85    0.09 
   3  -4  -4    1.83    0.13 
  -3   4   4    2.60    0.15 
  -3   4   4    2.61    0.15 
   4  -4  -5    1.50    0.14 
  -4   4   5    1.42    0.13 
  -4   4   5    1.63    0.13 
   5  -4  -6    1.64    0.16 
  -5   4   6    1.74    0.15 
   6  -4  -7    0.36    0.11 
  -6   4   7    0.27    0.10 
   7  -4  -8    0.33    0.12 
  -7   4   8    0.12    0.10 
   8  -4  -9   -0.01    0.13 
  -8   4   9   -0.03    0.10 
   8   3  -6   -0.08    0.15 
   7   3  -5    0.82    0.17 
   6   3  -4    2.20    0.22 
   5   3  -3    6.05    0.33 
   4   3  -2    1.65    0.16 
   3   3  -1   11.27    0.48 
   3   3  -1   11.44    0.45 
   2   3   0    2.86    0.15 
   2   3   0    2.83    0.15 
   1   3   1   14.47    0.52 
   1   3   1   13.65    0.54 
   0   3   2    0.11    0.05 
   1  -3  -3    5.55    0.22 
  -1   3   3    5.64    0.24 
   2  -3  -4   10.46    0.43 
  -2   3   4   10.71    0.42 
   3  -3  -5    5.83    0.27 
   5  -3  -7    0.43    0.11 
  -5   3   7    0.42    0.09 
   6  -3  -8    5.36    0.31 
  -6   3   8    4.85    0.27 
   7  -3  -9    0.74    0.15 
  -7   3   9    0.88    0.14 
   8   2  -5    0.24    0.16 
   7   2  -4   -0.02    0.11 
   6   2  -3    0.47    0.12 
   5   2  -2   -0.03    0.08 
   4   2  -1   17.42    0.73 
   1   2   2   15.58    0.61 
   0   2   3  116.95    4.43 
   0   2   3  117.32    4.01 
  -1   2   4    0.05    0.05 
  -1   2   4    0.04    0.04 
  -2   2   5    7.31    0.30 
  -2   2   5    6.69    0.31 
  -3   2   6    0.21    0.04 
  -3   2   6    0.11    0.07 
  -3   2   6    0.12    0.06 
  -4   2   7    2.70    0.18 
  -4   2   7    2.84    0.21 
   5  -2  -8    0.04    0.10 
  -5   2   8    0.10    0.08 
   6  -2  -9    0.19    0.11 
  -6   2   9    0.15    0.09 
   7  -2 -10    0.11    0.12 
  -7   2  10   -0.01    0.09 
   9   1  -5   -0.01    0.15 
   8   1  -4    2.97    0.28 
   7   1  -3    0.21    0.11 
   6   1  -2    1.40    0.16 
   5   1  -1    3.96    0.24 
   4   1   0    6.89    0.33 
   3   1   1   18.76    0.75 
   3   1   1   18.24    0.68 
   2   1   2    0.99    0.10 
   2   1   2    1.22    0.09 
   1   1   3   54.75    1.87 
   1   1   3   52.94    2.06 
   0   1   4   25.08    1.01 
   0   1   4   26.53    0.92 
  -1   1   5   61.41    2.35 
  -1   1   5   60.62    2.12 
  -2   1   6    1.74    0.13 
  -2   1   6    1.69    0.15 
  -3   1   7    0.17    0.08 
  -3   1   7    0.07    0.07 
  -4   1   8   40.71    1.46 
  -4   1   8   40.28    1.62 
  -5   1   9    1.10    0.13 
  -5   1   9    0.91    0.15 
   6  -1 -10    0.03    0.12 
  -6   1  10   -0.04    0.08 
   7  -1 -11    0.03    0.14 
  -7   1  11    0.03    0.12 
   9   0  -4    1.97    0.24 
   8   0  -3    0.51    0.15 
   7   0  -2    0.01    0.10 
   6   0  -1    0.18    0.11 
   5   0   0    0.83    0.12 
   4   0   1    2.94    0.19 
   3   0   2   32.97    1.15 
   3   0   2   32.28    1.28 
   2   0   3   39.07    1.34 
   2   0   3   37.78    1.49 
   1   0   4   14.63    0.55 
   1   0   4   15.03    0.61 
   0   0   5    0.52    0.08 
   0   0   5    0.71    0.08 
  -1   0   6   25.72    0.94 
  -1   0   6   26.40    1.05 
  -2   0   7   13.14    0.57 
  -2   0   7   12.38    0.50 
  -3   0   8   12.50    0.50 
  -3   0   8   12.17    0.57 
  -4   0   9    3.12    0.21 
  -4   0   9    3.32    0.25 
  -5   0  10    0.10    0.12 
  -5   0  10    0.08    0.08 
  -6   0  11    0.20    0.16 
  -6   0  11    0.34    0.11 
   9  -1  -3    1.96    0.25 
   8  -1  -2   -0.03    0.11 
   7  -1  -1    4.40    0.30 
   6  -1   0  144.09    5.52 
   5  -1   1   56.89    2.23 
   4  -1   2    0.15    0.07 
   4  -1   2    0.18    0.06 
   3  -1   3   10.33    0.45 
   3  -1   3   10.50    0.40 
   2  -1   4    0.76    0.09 
   2  -1   4    0.78    0.07 
   1  -1   5    0.20    0.05 
   1  -1   5    0.14    0.06 
   0  -1   6    0.16    0.07 
   0  -1   6    0.17    0.05 
  -1  -1   7   20.33    0.75 
  -1  -1   7   20.53    0.86 
  -2  -1   8   23.09    0.96 
  -2  -1   8   22.31    0.83 
  -3  -1   9    0.05    0.10 
  -3  -1   9    0.00    0.07 
  -4  -1  10    0.15    0.12 
  -4  -1  10    0.44    0.09 
  -5  -1  11    0.10    0.14 
  -5  -1  11   -0.03    0.08 
   9  -2  -2    2.57    0.27 
   8  -2  -1    0.74    0.16 
   7  -2   0    0.16    0.11 
   6  -2   1    9.30    0.47 
   5  -2   2   -0.01    0.08 
   4  -2   3    0.43    0.09 
   4  -2   3    0.51    0.07 
   3  -2   4    4.32    0.24 
   3  -2   4    4.69    0.20 
   2  -2   5    0.11    0.05 
   2  -2   5   -0.07    0.05 
   1  -2   6    1.79    0.17 
   1  -2   6    1.73    0.12 
   0  -2   7    8.82    0.43 
   0  -2   7    8.54    0.35 
  -1  -2   8    0.69    0.08 
  -1  -2   8    0.65    0.13 
  -2  -2   9   11.67    0.56 
  -2  -2   9   11.32    0.46 
  -3  -2  10    0.00    0.11 
  -3  -2  10   -0.06    0.06 
  -4  -2  11    0.21    0.14 
  -4  -2  11    0.34    0.09 
  -5  -2  12    0.64    0.20 
  -5  -2  12    0.81    0.13 
   9  -3  -1    0.07    0.13 
   8  -3   0    0.49    0.15 
   7  -3   1    3.48    0.27 
   6  -3   2    1.73    0.18 
   5  -3   3    0.07    0.09 
   5  -3   3    0.07    0.06 
   4  -3   4    8.11    0.40 
   4  -3   4    8.66    0.34 
   3  -3   5   17.26    0.62 
   3  -3   5   17.07    0.73 
   2  -3   6    1.86    0.11 
   2  -3   6    1.93    0.19 
   1  -3   7   37.59    1.34 
   1  -3   7   38.82    1.54 
   0  -3   8    0.23    0.06 
   0  -3   8    0.25    0.10 
  -1  -3   9   -0.01    0.10 
  -1  -3   9   -0.03    0.05 
  -2  -3  10   -0.13    0.10 
  -2  -3  10   -0.01    0.06 
  -3  -3  11   -0.13    0.12 
  -4  -3  12   -0.10    0.14 
   9  -4   0    0.03    0.13 
   8  -4   1    1.09    0.18 
   7  -4   2   -0.07    0.10 
   6  -4   3    1.20    0.11 
   6  -4   3    1.15    0.16 
  -5   4  -4    1.19    0.13 
   5  -4   4    1.52    0.12 
   5  -4   4    1.36    0.16 
  -4   4  -5    1.03    0.12 
   4  -4   5    0.72    0.12 
  -3   4  -6    2.08    0.18 
   3  -4   6    2.55    0.20 
  -2   4  -7   21.54    0.84 
   2  -4   7   22.18    0.94 
  -1   4  -8    1.82    0.16 
   1  -4   8    1.76    0.19 
   0  -4   9    0.42    0.13 
  -1  -4  10    0.77    0.17 
  -2  -4  11    1.82    0.23 
  -3  -4  12    1.76    0.25 
   9  -5   1   -0.02    0.12 
   8  -5   2   -0.06    0.12 
   7  -5   3    0.75    0.15 
  -6   5  -4    0.54    0.11 
   6  -5   4    0.34    0.12 
  -5   5  -5    4.62    0.27 
   5  -5   5    4.52    0.29 
  -4   5  -6    0.15    0.09 
   4  -5   6    0.00    0.08 
  -3   5  -7    5.89    0.30 
   3  -5   7    6.49    0.36 
  -2   5  -8    2.62    0.19 
   2  -5   8    2.55    0.23 
  -1   5  -9    4.41    0.24 
   1  -5   9    4.36    0.30 
   0  -5  10   -0.07    0.10 
  -1  -5  11    0.25    0.15 
  -2  -5  12    0.05    0.16 
   9  -6   2    6.18    0.41 
   8  -6   3    0.24    0.14 
  -7   6  -4    1.08    0.15 
   7  -6   4    1.23    0.17 
  -6   6  -5    0.12    0.10 
   6  -6   5    0.19    0.12 
  -5   6  -6    0.00    0.10 
   5  -6   6    0.13    0.11 
  -4   6  -7   -0.01    0.09 
   4  -6   7   -0.04    0.09 
  -3   6  -8    0.11    0.09 
   3  -6   8    0.00    0.09 
  -2   6  -9    1.70    0.16 
   2  -6   9    1.62    0.21 
   1  -6  10    0.52    0.15 
   0  -6  11    1.68    0.22 
  -1  -6  12   -0.02    0.14 
   8  -7   4    1.09    0.19 
  -7   7  -5    3.53    0.27 
   7  -7   5    3.85    0.31 
  -6   7  -6    5.43    0.33 
   6  -7   6    5.73    0.37 
  -5   7  -7    0.99    0.15 
   5  -7   7    0.96    0.16 
  -4   7  -8    1.43    0.17 
   4  -7   8    1.81    0.21 
  -3   7  -9   -0.19    0.09 
   3  -7   9    0.20    0.12 
   2  -7  10    0.25    0.13 
   1  -7  11    1.54    0.22 
  -6   8  -7    0.54    0.16 
   6  -8   7    0.67    0.17 
  -5   8  -8    1.59    0.19 
   5  -8   8    1.47    0.22 
  -4   8  -9    1.43    0.18 
   4  -8   9    0.86    0.18 
  -1  11  -4    3.71    0.28 
  -2  11  -3    0.55    0.13 
  -3  11  -2    0.45    0.13 
  -4  11  -1   -0.12    0.12 
  -5  11   0    0.51    0.15 
   1  10  -5    0.15    0.12 
   0  10  -4    0.09    0.11 
  -1  10  -3   -0.05    0.09 
  -2  10  -2    0.69    0.13 
  -3  10  -1    2.80    0.21 
  -4  10   0    0.96    0.15 
  -5  10   1    0.60    0.13 
  -6  10   2    0.58    0.14 
   3   9  -6    1.06    0.16 
   2   9  -5    0.16    0.10 
   1   9  -4    2.31    0.19 
   0   9  -3    2.92    0.22 
  -1   9  -2    4.60    0.26 
  -2   9  -1    0.08    0.09 
  -3   9   0    3.92    0.26 
  -4   9   1    2.69    0.22 
  -5   9   2   -0.06    0.09 
  -6   9   3    0.00    0.10 
   4   8  -6    1.06    0.16 
   3   8  -5    3.97    0.25 
   2   8  -4    0.41    0.10 
   1   8  -3    3.18    0.22 
   0   8  -2    0.06    0.08 
   0   8  -2    0.11    0.06 
  -1   8  -1    0.18    0.08 
  -1   8  -1    0.16    0.06 
  -2   8   0    1.38    0.15 
  -2   8   0    1.65    0.13 
  -3   8   1    0.70    0.12 
  -3   8   1    0.72    0.10 
  -4   8   2   10.84    0.45 
  -4   8   2   11.00    0.49 
  -5   8   3    1.17    0.13 
  -5   8   3    0.94    0.13 
  -6   8   4    0.29    0.09 
  -6   8   4    0.57    0.12 
  -7   8   5    0.48    0.12 
   5   7  -6    0.88    0.15 
   4   7  -5    0.46    0.11 
   3   7  -4    0.84    0.11 
   2   7  -3    5.94    0.28 
   1   7  -2    0.42    0.09 
   1   7  -2    0.62    0.09 
   0   7  -1    1.67    0.15 
   0   7  -1    1.72    0.13 
  -1   7   0    0.14    0.09 
  -1   7   0    0.15    0.06 
  -2   7   1   11.93    0.51 
  -2   7   1   11.86    0.47 
  -3   7   2   47.39    1.66 
  -3   7   2   46.63    1.75 
  -4   7   3    4.90    0.25 
  -4   7   3    5.03    0.27 
  -5   7   4    2.71    0.20 
  -5   7   4    2.95    0.19 
  -6   7   5    0.19    0.09 
  -7   7   6    0.10    0.10 
   6   6  -6    0.61    0.17 
   5   6  -5    4.20    0.30 
   4   6  -4    0.02    0.09 
   4   6  -4    0.06    0.09 
   3   6  -3    0.02    0.08 
   3   6  -3    0.11    0.08 
   2   6  -2   -0.03    0.06 
   2   6  -2    0.04    0.07 
   1   6  -1    3.63    0.19 
   0   6   0    0.12    0.06 
  -1   6   1   16.19    0.64 
  -1   6   1   15.82    0.60 
  -2   6   2    1.91    0.17 
  -2   6   2    1.51    0.14 
  -3   6   3   29.41    1.11 
  -3   6   3   29.24    1.06 
  -4   6   4    6.37    0.31 
  -4   6   4    6.51    0.30 
  -5   6   5    1.13    0.12 
  -5   6   5    1.05    0.13 
  -6   6   6    0.13    0.09 
  -7   6   7    0.11    0.10 
   7   5  -6    1.59    0.23 
   6   5  -5    0.80    0.16 
   5   5  -4    2.43    0.22 
   4   5  -3   -0.14    0.08 
   4   5  -3    0.20    0.09 
   3   5  -2    3.63    0.21 
   3   5  -2    3.47    0.22 
   2   5  -1   -0.01    0.06 
   2   5  -1   -0.02    0.05 
   1   5   0    6.30    0.28 
   1   5   0    6.45    0.27 
   0   5   1   12.81    0.49 
  -1   5   2    0.32    0.07 
  -2   5   3    8.59    0.37 
  -2   5   3    8.38    0.36 
  -3   5   4    0.29    0.07 
  -3   5   4    0.36    0.08 
  -4   5   5    0.19    0.08 
  -4   5   5    0.08    0.07 
  -5   5   6    4.33    0.25 
  -6   5   7    4.38    0.25 
  -7   5   8    0.04    0.10 
   7   4  -5    5.08    0.36 
   6   4  -4   -0.06    0.10 
   5   4  -3    0.54    0.12 
   4   4  -2    0.17    0.09 
   4   4  -2   -0.03    0.08 
   3   4  -1   25.30    0.93 
   3   4  -1   25.51    1.01 
   2   4   0   16.65    0.67 
   2   4   0   16.77    0.63 
   1   4   1   10.87    0.42 
   1   4   1   10.16    0.41 
   0   4   2   35.21    1.25 
  -1   4   3   17.01    0.64 
   2  -4  -4    2.16    0.12 
  -2   4   4    2.66    0.16 
  -3   4   5    2.18    0.15 
  -3   4   5    2.17    0.15 
   4  -4  -6    1.06    0.11 
  -4   4   6    0.80    0.11 
   5  -4  -7    6.79    0.34 
  -5   4   7    6.72    0.33 
  -6   4   8    4.81    0.27 
  -7   4   9    0.01    0.09 
   8   3  -5   -0.06    0.15 
   7   3  -4    3.18    0.27 
   6   3  -3    0.43    0.12 
   5   3  -2    0.35    0.10 
   4   3  -1   10.60    0.45 
   4   3  -1   11.30    0.49 
   3   3   0    1.66    0.13 
   3   3   0    1.76    0.13 
   2   3   1    4.96    0.23 
   2   3   1    5.01    0.23 
   1   3   2    0.79    0.08 
   1   3   2    0.88    0.06 
   0   3   3    5.87    0.25 
   3  -3  -6    1.29    0.11 
  -3   3   6    1.11    0.10 
   4  -3  -7    0.19    0.08 
  -4   3   7    0.13    0.08 
   5  -3  -8   13.58    0.60 
  -5   3   8   12.82    0.55 
   6  -3  -9    0.22    0.11 
  -6   3   9    0.14    0.09 
  -7   3  10    1.69    0.19 
   8   2  -4   -0.04    0.13 
   7   2  -3   -0.02    0.11 
   6   2  -2    0.09    0.09 
   5   2  -1    0.20    0.09 
   3   2   1    0.30    0.07 
   2   2   2    5.41    0.24 
   2   2   2    5.53    0.25 
   1   2   3   34.36    1.32 
   1   2   3   34.65    1.22 
   0   2   4   12.72    0.51 
   0   2   4   12.69    0.48 
  -1   2   5    0.39    0.06 
  -1   2   5    0.38    0.07 
  -2   2   6   26.69    1.11 
  -2   2   6   29.52    1.02 
  -3   2   7    0.21    0.08 
  -3   2   7    0.20    0.08 
  -4   2   8    7.58    0.39 
  -4   2   8    7.92    0.36 
   5  -2  -9    0.40    0.13 
  -5   2   9    0.66    0.14 
  -5   2   9    0.37    0.10 
   6  -2 -10    0.68    0.15 
  -6   2  10    0.80    0.14 
   9   1  -4    0.74    0.20 
   8   1  -3    0.53    0.16 
   7   1  -2    0.74    0.15 
   6   1  -1    1.95    0.19 
   5   1   0   16.41    0.71 
   4   1   1    2.27    0.17 
   4   1   1    2.31    0.16 
   3   1   2   15.49    0.57 
   3   1   2   14.81    0.62 
   2   1   3   40.23    1.57 
   2   1   3   41.19    1.43 
   1   1   4   11.19    0.43 
   1   1   4   10.95    0.46 
   0   1   5    4.25    0.21 
   0   1   5    4.20    0.22 
  -1   1   6    0.55    0.08 
  -1   1   6    0.93    0.10 
  -2   1   7    7.79    0.38 
  -2   1   7    7.92    0.35 
  -3   1   8   22.50    0.84 
  -3   1   8   22.25    0.94 
  -4   1   9    1.10    0.16 
  -4   1   9    1.29    0.14 
  -5   1  10    0.03    0.12 
  -5   1  10    0.06    0.09 
   6  -1 -11    0.09    0.13 
  -6   1  11   -0.06    0.14 
  -6   1  11   -0.16    0.09 
   9   0  -3    0.10    0.16 
   8   0  -2    0.15    0.12 
   7   0  -1    0.43    0.13 
   6   0   0   11.68    0.56 
   5   0   1    2.31    0.20 
   4   0   2    0.03    0.06 
   4   0   2    0.15    0.07 
   3   0   3   -0.09    0.05 
   3   0   3    0.00    0.06 
   2   0   4    0.25    0.06 
   2   0   4    0.29    0.07 
   1   0   5   13.34    0.51 
   1   0   5   13.72    0.57 
   0   0   6    0.38    0.08 
   0   0   6    0.44    0.07 
  -1   0   7   16.72    0.65 
  -1   0   7   17.67    0.73 
  -2   0   8   68.40    2.63 
  -2   0   8   66.11    2.35 
  -3   0   9    0.37    0.09 
  -3   0   9    0.49    0.12 
  -4   0  10    0.52    0.11 
  -4   0  10    0.54    0.14 
  -5   0  11   -0.02    0.08 
  -5   0  11   -0.04    0.13 
   9  -1  -2    3.76    0.34 
   8  -1  -1    3.40    0.30 
   7  -1   0    1.23    0.17 
   6  -1   1   27.45    1.14 
   5  -1   2    2.49    0.17 
   5  -1   2    2.51    0.21 
   4  -1   3    0.49    0.10 
   4  -1   3    0.25    0.07 
   3  -1   4    1.61    0.15 
   3  -1   4    1.79    0.12 
   2  -1   5    0.41    0.08 
   2  -1   5    0.40    0.07 
   1  -1   6   13.19    0.57 
   1  -1   6   13.06    0.50 
   0  -1   7    6.78    0.35 
   0  -1   7    6.91    0.30 
  -1  -1   8    5.36    0.26 
  -1  -1   8    5.37    0.32 
  -2  -1   9    3.19    0.20 
  -2  -1   9    3.38    0.24 
  -3  -1  10    0.94    0.16 
  -3  -1  10    1.03    0.13 
  -4  -1  11    0.08    0.13 
  -4  -1  11    0.03    0.08 
  -5  -1  12   -0.02    0.15 
  -5  -1  12    0.10    0.09 
   9  -2  -1    0.08    0.15 
   8  -2   0    7.16    0.43 
   7  -2   1    0.63    0.15 
   6  -2   2    2.91    0.25 
   6  -2   2    2.85    0.19 
   5  -2   3    0.01    0.09 
   5  -2   3    0.13    0.07 
   4  -2   4    0.11    0.07 
   4  -2   4    0.07    0.06 
   3  -2   5   11.56    0.51 
   3  -2   5   11.25    0.44 
   2  -2   6   17.94    0.66 
   2  -2   6   18.46    0.77 
   1  -2   7    7.73    0.32 
   1  -2   7    7.53    0.39 
   0  -2   8    2.42    0.16 
   0  -2   8    2.43    0.21 
  -1  -2   9   -0.05    0.10 
  -1  -2   9    0.13    0.06 
  -2  -2  10    4.44    0.31 
  -2  -2  10    4.48    0.24 
  -3  -2  11    0.28    0.08 
  -3  -2  11    0.18    0.14 
  -4  -2  12    3.70    0.33 
  -4  -2  12    3.49    0.23 
   9  -3   0    1.34    0.22 
   8  -3   1    0.64    0.16 
   7  -3   2    0.09    0.11 
   6  -3   3    0.45    0.09 
   6  -3   3    0.46    0.12 
   5  -3   4    1.83    0.18 
   5  -3   4    1.73    0.14 
   4  -3   5   14.77    0.55 
   4  -3   5   14.45    0.65 
   3  -3   6    4.05    0.26 
   3  -3   6    4.45    0.20 
   2  -3   7   20.32    0.73 
   2  -3   7   20.00    0.86 
   1  -3   8    3.59    0.18 
   1  -3   8    3.45    0.26 
   0  -3   9    3.86    0.28 
   0  -3   9    3.72    0.20 
  -1  -3  10   -0.07    0.10 
  -2  -3  11    0.03    0.13 
  -3  -3  12    0.11    0.15 
   9  -4   1    0.11    0.16 
   8  -4   2    4.32    0.34 
   7  -4   3    0.63    0.16 
   6  -4   4    2.78    0.24 
   5  -4   5    2.89    0.23 
   4  -4   6    0.01    0.08 
   3  -4   7    4.11    0.27 
   2  -4   8    0.55    0.13 
   1  -4   9    5.56    0.34 
   0  -4  10    1.22    0.19 
  -1  -4  11   -0.13    0.13 
  -2  -4  12    0.20    0.17 
   9  -5   2    0.81    0.19 
   8  -5   3    0.00    0.13 
   7  -5   4    0.10    0.11 
   6  -5   5    0.18    0.11 
   5  -5   6    0.34    0.12 
   4  -5   7    0.50    0.13 
   3  -5   8    0.66    0.14 
   2  -5   9    3.62    0.29 
   1  -5  10    0.65    0.16 
   0  -5  11    0.03    0.14 
  -1  -5  12    0.47    0.19 
   8  -6   4    0.25    0.14 
   7  -6   5    0.61    0.15 
   6  -6   6    3.00    0.25 
  -5   6  -7    0.47    0.13 
   5  -6   7    0.74    0.15 
  -4   6  -8    0.33    0.11 
   4  -6   8    0.36    0.13 
  -3   6  -9    0.50    0.11 
   3  -6   9    0.31    0.13 
   2  -6  10    0.52    0.16 
   1  -6  11    1.46    0.23 
   7  -7   6    0.41    0.16 
  -6   7  -7    3.43    0.27 
   6  -7   7    3.55    0.30 
  -5   7  -8    2.48    0.24 
   5  -7   8    2.13    0.24 
  -4   7  -9    0.47    0.13 
   4  -7   9    0.76    0.16 
   3  -7  10    0.08    0.12 
  -1  11  -3    0.80    0.15 
  -2  11  -2   -0.06    0.10 
  -3  11  -1   -0.12    0.12 
  -4  11   0    4.38    0.31 
   1  10  -4   -0.03    0.10 
   0  10  -3    2.62    0.21 
  -1  10  -2   -0.01    0.08 
  -2  10  -1    1.49    0.16 
  -3  10   0   -0.05    0.09 
  -4  10   1    1.82    0.19 
  -5  10   2    0.42    0.13 
  -6  10   3    0.36    0.13 
   3   9  -5    4.37    0.29 
   2   9  -4    0.18    0.10 
   1   9  -3    0.03    0.10 
   0   9  -2    0.23    0.10 
  -1   9  -1    1.16    0.14 
  -2   9   0    0.12    0.09 
  -3   9   1    0.72    0.13 
  -4   9   2    0.04    0.10 
  -5   9   3   -0.02    0.10 
  -5   9   3    0.07    0.08 
  -6   9   4    3.70    0.24 
   4   8  -5    2.69    0.23 
   3   8  -4    0.13    0.10 
   3   8  -4    0.12    0.09 
   2   8  -3    0.81    0.13 
   2   8  -3    0.99    0.12 
   1   8  -2    6.86    0.30 
   1   8  -2    6.20    0.32 
   0   8  -1    0.12    0.07 
   0   8  -1    0.10    0.08 
  -1   8   0    1.21    0.14 
  -1   8   0    1.38    0.12 
  -2   8   1    0.03    0.07 
  -2   8   1   -0.09    0.09 
  -3   8   2    1.48    0.14 
  -3   8   2    1.52    0.16 
  -4   8   3    4.42    0.24 
  -4   8   3    4.54    0.27 
  -5   8   4    0.12    0.09 
  -5   8   4    0.24    0.09 
  -6   8   5    2.68    0.21 
  -7   8   6   -0.02    0.11 
   5   7  -5    1.21    0.16 
   4   7  -4   -0.02    0.09 
   3   7  -3    1.24    0.14 
   2   7  -2    2.60    0.17 
   1   7  -1   -0.02    0.06 
   0   7   0    0.76    0.10 
  -1   7   1    9.65    0.40 
  -1   7   1    9.63    0.43 
  -2   7   2    3.06    0.19 
  -2   7   2    3.04    0.22 
  -3   7   3    2.09    0.16 
  -3   7   3    2.33    0.19 
  -4   7   4    4.27    0.25 
  -4   7   4    3.90    0.23 
  -5   7   5    0.34    0.09 
  -6   7   6    0.14    0.10 
  -7   7   7    0.35    0.13 
   6   6  -5    1.88    0.20 
   5   6  -4    0.49    0.13 
   4   6  -3   -0.05    0.08 
   3   6  -2    0.94    0.12 
   2   6  -1    7.17    0.32 
   1   6   0    0.00    0.07 
   0   6   1   40.12    1.43 
  -1   6   2  181.93    6.24 
  -2   6   3    9.22    0.39 
  -2   6   3    8.98    0.41 
  -3   6   4    2.21    0.18 
  -3   6   4    2.03    0.16 
  -4   6   5    0.47    0.09 
  -4   6   5    0.38    0.10 
  -5   6   6    0.56    0.11 
  -6   6   7    0.06    0.10 
  -7   6   8   -0.04    0.12 
   7   5  -5    2.38    0.26 
   6   5  -4    0.47    0.13 
   5   5  -3    0.04    0.09 
   5   5  -3    0.08    0.10 
   4   5  -2   -0.04    0.07 
   4   5  -2    0.02    0.08 
   3   5  -1    4.42    0.24 
   2   5   0    8.28    0.36 
   1   5   1    1.76    0.13 
   0   5   2    6.80    0.30 
  -1   5   3    4.46    0.22 
  -2   5   4    2.38    0.17 
  -3   5   5    1.77    0.16 
  -3   5   5    1.90    0.16 
  -4   5   6    0.86    0.12 
  -5   5   7    0.27    0.10 
  -6   5   8    1.30    0.16 
  -7   5   9   -0.01    0.10 
   7   4  -4    4.61    0.34 
   6   4  -3    0.59    0.14 
   5   4  -2    0.26    0.11 
   5   4  -2    0.54    0.11 
   4   4  -1    0.22    0.09 
   4   4  -1    0.37    0.09 
   3   4   0    4.04    0.22 
   3   4   0    4.10    0.22 
   2   4   1   -0.05    0.04 
   2   4   1   -0.01    0.06 
   1   4   2    0.03    0.06 
   0   4   3    0.01    0.06 
  -1   4   4    2.79    0.17 
  -2   4   5    0.46    0.09 
  -3   4   6    5.66    0.28 
  -3   4   6    5.59    0.26 
  -4   4   7    0.66    0.11 
  -5   4   8    6.21    0.32 
  -6   4   9    2.07    0.18 
   8   3  -4    0.45    0.17 
   7   3  -3    1.06    0.17 
   6   3  -2   -0.04    0.09 
   5   3  -1   18.52    0.73 
   5   3  -1   19.13    0.80 
   4   3   0    4.89    0.26 
   4   3   0    4.74    0.25 
   3   3   1    0.43    0.07 
   2   3   2    0.45    0.06 
  -2   3   6    1.37    0.12 
  -3   3   7    1.20    0.13 
  -3   3   7    1.39    0.14 
  -4   3   8    3.65    0.23 
  -5   3   9    2.27    0.19 
  -6   3  10    0.42    0.12 
   8   2  -3   -0.14    0.13 
   7   2  -2    0.11    0.12 
   6   2  -1    0.08    0.10 
   5   2   0   13.67    0.56 
   5   2   0   13.82    0.61 
   4   2   1    1.28    0.12 
   4   2   1    0.96    0.11 
   3   2   2    0.38    0.07 
   3   2   2    0.31    0.08 
   2   2   3    0.42    0.07 
   2   2   3    0.41    0.06 
   1   2   4    9.40    0.38 
   1   2   4    9.40    0.39 
   0   2   5    0.48    0.07 
   0   2   5    0.42    0.08 
  -1   2   6    2.10    0.15 
  -1   2   6    2.11    0.16 
  -2   2   7    4.10    0.23 
  -2   2   7    3.68    0.22 
  -3   2   8    8.92    0.39 
  -3   2   8    8.61    0.42 
  -4   2   9    0.21    0.10 
  -4   2   9    0.40    0.10 
   5  -2 -10    2.87    0.25 
  -5   2  10    2.60    0.25 
  -5   2  10    2.63    0.20 
  -6   2  11    0.62    0.15 
   8   1  -2   -0.04    0.13 
   7   1  -1    0.29    0.13 
   6   1   0    5.22    0.32 
   5   1   1   11.81    0.49 
   5   1   1   11.57    0.53 
   4   1   2    2.82    0.18 
   4   1   2    3.08    0.19 
   3   1   3   43.66    1.51 
   3   1   3   41.75    1.66 
   2   1   4   20.60    0.83 
   2   1   4   21.01    0.77 
   1   1   5    1.42    0.12 
   1   1   5    1.85    0.13 
   0   1   6   10.17    0.45 
   0   1   6   10.19    0.41 
  -1   1   7    1.12    0.12 
  -1   1   7    0.82    0.11 
  -2   1   8    3.63    0.22 
  -2   1   8    3.68    0.25 
  -3   1   9    0.66    0.11 
  -3   1   9    0.60    0.13 
  -4   1  10    0.18    0.09 
  -4   1  10    0.10    0.11 
  -5   1  11    0.69    0.17 
  -5   1  11    0.48    0.12 
   9   0  -2    2.02    0.25 
   8   0  -1    0.46    0.16 
   7   0   0   11.53    0.57 
   6   0   1   17.39    0.77 
   6   0   1   17.73    0.69 
   5   0   2    0.63    0.11 
   5   0   2    0.55    0.10 
   4   0   3    3.56    0.22 
   4   0   3    3.52    0.20 
   3   0   4    2.71    0.18 
   3   0   4    2.79    0.17 
   2   0   5    0.48    0.09 
   2   0   5    0.61    0.08 
   1   0   6    0.16    0.07 
   1   0   6    0.23    0.08 
   0   0   7    0.96    0.12 
   0   0   7    0.77    0.10 
  -1   0   8   19.63    0.85 
  -1   0   8   20.12    0.76 
  -2   0   9    1.09    0.15 
  -2   0   9    0.91    0.12 
  -3   0  10    1.28    0.14 
  -3   0  10    1.50    0.18 
  -4   0  11    1.27    0.19 
  -4   0  11    0.72    0.13 
  -5   0  12    0.93    0.19 
  -5   0  12    0.91    0.15 
   9  -1  -1    0.68    0.19 
   8  -1   0    4.98    0.36 
   7  -1   1    3.78    0.30 
   6  -1   2    2.28    0.17 
   6  -1   2    2.28    0.22 
   5  -1   3    0.49    0.09 
   5  -1   3    0.48    0.11 
   4  -1   4    0.05    0.07 
   4  -1   4    0.03    0.06 
   3  -1   5   -0.06    0.06 
   3  -1   5   -0.01    0.06 
   2  -1   6    0.99    0.12 
   2  -1   6    0.91    0.09 
   1  -1   7   66.03    2.29 
   1  -1   7   65.58    2.56 
   0  -1   8   55.74    1.94 
   0  -1   8   54.29    2.17 
  -1  -1   9    0.88    0.15 
  -1  -1   9    1.21    0.12 
  -2  -1  10    2.74    0.25 
  -2  -1  10    2.87    0.19 
  -3  -1  11    0.13    0.08 
  -3  -1  11    0.10    0.13 
  -4  -1  12    0.17    0.09 
  -4  -1  12    0.18    0.16 
   9  -2   0    0.75    0.20 
   8  -2   1   10.45    0.56 
   7  -2   2    0.02    0.09 
   7  -2   2    0.25    0.13 
   6  -2   3    0.39    0.09 
   6  -2   3    0.27    0.12 
   5  -2   4    3.39    0.24 
   5  -2   4    3.49    0.20 
   4  -2   5    6.28    0.28 
   4  -2   5    6.49    0.34 
   3  -2   6    2.93    0.21 
   3  -2   6    2.77    0.17 
   2  -2   7   10.84    0.43 
   2  -2   7   11.14    0.52 
   1  -2   8   -0.06    0.09 
   1  -2   8    0.06    0.06 
   0  -2   9    0.32    0.08 
   0  -2   9    0.22    0.11 
  -1  -2  10    0.04    0.11 
  -1  -2  10    0.10    0.07 
  -2  -2  11    0.07    0.13 
  -2  -2  11   -0.03    0.07 
  -3  -2  12    0.15    0.09 
  -3  -2  12    0.31    0.17 
   9  -3   1    3.04    0.31 
   8  -3   2    2.56    0.27 
   8  -3   2    2.38    0.20 
   7  -3   3    0.79    0.12 
   7  -3   3    0.89    0.17 
   6  -3   4    1.21    0.13 
   6  -3   4    1.14    0.16 
   5  -3   5    0.41    0.11 
   5  -3   5    0.44    0.09 
   4  -3   6    0.11    0.09 
   4  -3   6    0.09    0.06 
   3  -3   7    0.72    0.09 
   3  -3   7    0.61    0.12 
   2  -3   8    0.85    0.14 
   1  -3   9    0.26    0.12 
   0  -3  10    0.24    0.12 
  -1  -3  11    0.23    0.14 
  -2  -3  12    0.73    0.19 
   9  -4   2    0.64    0.20 
   8  -4   3    0.70    0.19 
   7  -4   4    0.55    0.16 
   6  -4   5    7.80    0.43 
   5  -4   6    1.55    0.18 
   4  -4   7    0.14    0.10 
   3  -4   8   -0.02    0.10 
   2  -4   9    4.00    0.29 
   1  -4  10    0.35    0.15 
   0  -4  11    1.90    0.23 
  -1  -4  12    0.09    0.15 
   8  -5   4    0.23    0.15 
   7  -5   5    0.26    0.15 
   6  -5   6    0.29    0.14 
   5  -5   7    0.03    0.12 
   4  -5   8    0.23    0.13 
   3  -5   9    1.21    0.19 
   2  -5  10    1.29    0.20 
   1  -5  11    0.52    0.17 
   0  -5  12    0.57    0.19 
   7  -6   6    0.33    0.17 
   6  -6   7   -0.15    0.13 
   5  -6   8    2.51    0.26 
   4  -6   9    5.77    0.39 
   3  -6  10   -0.04    0.13 
   2  -6  11   -0.11    0.14 
  -2  11  -1    0.11    0.11 
  -3  11   0    1.77    0.21 
   1  10  -3    0.11    0.12 
   0  10  -2    2.80    0.22 
  -1  10  -1    0.16    0.10 
  -2  10   0    1.01    0.15 
  -3  10   1    0.19    0.12 
  -4  10   2    0.76    0.15 
  -5  10   3    0.40    0.13 
   3   9  -4    1.58    0.17 
   2   9  -3    0.10    0.11 
   1   9  -2    0.53    0.12 
   0   9  -1    0.08    0.09 
  -1   9   0    0.10    0.08 
  -1   9   0   -0.05    0.09 
  -2   9   1    2.64    0.19 
  -2   9   1    2.39    0.21 
  -3   9   2    0.02    0.10 
  -3   9   2   -0.01    0.08 
  -4   9   3    0.25    0.10 
  -4   9   3    0.15    0.11 
  -5   9   4    1.37    0.17 
  -5   9   4    1.29    0.16 
  -6   9   5    1.79    0.19 
   4   8  -4    0.29    0.12 
   3   8  -3    1.13    0.14 
   2   8  -2   -0.02    0.08 
   1   8  -1    0.26    0.09 
   0   8   0    1.25    0.12 
   0   8   0    1.12    0.13 
  -1   8   1    0.95    0.11 
  -1   8   1    0.55    0.11 
  -2   8   2   11.38    0.48 
  -2   8   2   11.86    0.51 
  -3   8   3   -0.02    0.09 
  -3   8   3   -0.08    0.07 
  -4   8   4    4.12    0.26 
  -4   8   4    3.88    0.24 
  -5   8   5    0.80    0.13 
  -6   8   6    0.95    0.15 
   5   7  -4    0.02    0.11 
   4   7  -3    2.47    0.20 
   3   7  -2    2.64    0.19 
   2   7  -1    0.35    0.09 
   1   7   0    0.30    0.08 
   0   7   1    2.34    0.16 
  -1   7   2    0.28    0.10 
  -1   7   2    0.14    0.07 
  -2   7   3    8.55    0.39 
  -2   7   3    8.95    0.41 
  -3   7   4    0.13    0.09 
  -3   7   4    0.25    0.10 
  -4   7   5    0.08    0.09 
  -4   7   5   -0.04    0.08 
  -5   7   6    0.79    0.13 
  -6   7   7    0.49    0.13 
   6   6  -4    0.41    0.14 
   5   6  -3    0.11    0.11 
   4   6  -2    1.62    0.17 
   3   6  -1    4.98    0.27 
   2   6   0    2.11    0.16 
   1   6   1    0.31    0.08 
   0   6   2    8.41    0.36 
  -1   6   3   12.25    0.50 
  -2   6   4    1.14    0.13 
  -2   6   4    0.99    0.12 
  -3   6   5    1.15    0.13 
  -3   6   5    1.30    0.14 
  -4   6   6    0.09    0.08 
  -5   6   7    0.24    0.10 
  -6   6   8    0.27    0.12 
   6   5  -3    0.74    0.14 
   5   5  -2    0.17    0.11 
   4   5  -1    2.94    0.21 
   3   5   0    0.60    0.10 
   2   5   1    1.05    0.12 
   1   5   2   34.95    1.26 
   0   5   3    3.56    0.20 
  -1   5   4    1.70    0.15 
  -2   5   5    1.36    0.14 
  -3   5   6    1.38    0.15 
  -3   5   6    1.30    0.12 
  -4   5   7    6.58    0.33 
  -5   5   8    7.58    0.37 
  -6   5   9    0.22    0.11 
   7   4  -3    0.98    0.17 
   6   4  -2    0.12    0.11 
   5   4  -1    1.22    0.14 
   4   4   0    0.19    0.09 
   3   4   1    0.07    0.08 
   2   4   2   10.50    0.44 
   1   4   3    0.96    0.11 
   0   4   4    1.54    0.13 
  -1   4   5    5.72    0.28 
  -2   4   6    7.03    0.33 
  -3   4   7    5.82    0.30 
  -4   4   8    0.01    0.08 
  -5   4   9    1.71    0.18 
  -6   4  10   -0.02    0.10 
   8   3  -3   -0.06    0.14 
   7   3  -2    0.31    0.13 
   7   3  -2    0.54    0.14 
   6   3  -1    0.52    0.13 
   6   3  -1    0.51    0.12 
   5   3   0    0.53    0.11 
   5   3   0    0.56    0.11 
   4   3   1    0.03    0.08 
   4   3   1   -0.01    0.07 
   3   3   2    1.95    0.16 
   3   3   2    2.75    0.16 
   1   3   4   -0.01    0.02 
   0   3   5    3.88    0.21 
  -1   3   6   11.16    0.46 
  -2   3   7    0.97    0.13 
  -3   3   8    0.09    0.08 
  -4   3   9    1.13    0.14 
  -5   3  10    0.11    0.10 
   8   2  -2    0.58    0.17 
   7   2  -1    0.88    0.14 
   7   2  -1    1.09    0.17 
   6   2   0    2.29    0.20 
   6   2   0    2.50    0.22 
   5   2   1   10.66    0.46 
   5   2   1   10.61    0.49 
   4   2   2    0.08    0.07 
   4   2   2    0.01    0.08 
   3   2   3    2.66    0.17 
   3   2   3    2.81    0.17 
   2   2   4    2.08    0.14 
   2   2   4    2.07    0.16 
   1   2   5    0.17    0.06 
   1   2   5    0.16    0.07 
   0   2   6    0.52    0.09 
   0   2   6    0.70    0.09 
  -1   2   7    1.36    0.14 
  -1   2   7    1.30    0.13 
  -2   2   8    0.22    0.09 
  -3   2   9    0.13    0.08 
  -4   2  10    2.43    0.20 
  -5   2  11    0.53    0.13 
   8   1  -1    0.02    0.13 
   7   1   0    1.03    0.16 
   7   1   0    1.15    0.16 
   6   1   1    9.54    0.43 
   6   1   1    9.46    0.47 
   5   1   2    2.28    0.17 
   5   1   2    2.12    0.20 
   4   1   3    5.20    0.26 
   4   1   3    5.07    0.27 
   3   1   4    0.34    0.09 
   3   1   4    0.39    0.08 
   2   1   5    0.12    0.07 
   2   1   5   -0.03    0.07 
   1   1   6    2.08    0.17 
   1   1   6    1.99    0.15 
   0   1   7    1.40    0.13 
   0   1   7    1.27    0.13 
  -1   1   8   20.13    0.85 
  -1   1   8   20.20    0.77 
  -2   1   9    0.95    0.12 
  -2   1   9    0.78    0.13 
  -3   1  10    1.64    0.19 
  -3   1  10    2.12    0.18 
  -4   1  11   -0.06    0.09 
   8   0   0    0.44    0.15 
   8   0   0    0.26    0.12 
   7   0   1    4.94    0.28 
   7   0   1    4.58    0.32 
   6   0   2    0.12    0.10 
   6   0   2    0.25    0.10 
   5   0   3    0.78    0.12 
   5   0   3    0.65    0.12 
   4   0   4    0.60    0.10 
   4   0   4    0.74    0.11 
   3   0   5    2.82    0.20 
   3   0   5    2.60    0.17 
   2   0   6    0.13    0.08 
   2   0   6    0.04    0.07 
   1   0   7    3.72    0.24 
   1   0   7    3.90    0.21 
   0   0   8   16.42    0.64 
   0   0   8   16.35    0.71 
  -1   0   9    9.55    0.48 
  -1   0   9    9.61    0.42 
  -2   0  10    0.87    0.12 
  -2   0  10    1.01    0.15 
  -3   0  11    0.03    0.07 
  -3   0  11   -0.10    0.11 
  -4   0  12    0.36    0.16 
  -4   0  12    0.28    0.11 
   9  -1   0    0.99    0.17 
   9  -1   0    1.14    0.22 
   8  -1   1    0.09    0.14 
   8  -1   1    0.04    0.10 
   7  -1   2    1.48    0.16 
   7  -1   2    1.57    0.19 
   6  -1   3    0.18    0.11 
   6  -1   3    0.17    0.10 
   5  -1   4    0.00    0.08 
   5  -1   4    0.03    0.08 
   4  -1   5    3.42    0.20 
   4  -1   5    3.20    0.23 
   3  -1   6   -0.04    0.07 
   3  -1   6   -0.04    0.06 
   2  -1   7    5.92    0.28 
   2  -1   7    6.59    0.34 
   1  -1   8   12.05    0.49 
   1  -1   8   12.06    0.56 
   0  -1   9    2.07    0.21 
   0  -1   9    2.19    0.17 
  -1  -1  10   -0.04    0.07 
  -1  -1  10   -0.07    0.10 
  -2  -1  11    0.40    0.14 
  -2  -1  11    0.22    0.08 
  -3  -1  12    0.60    0.12 
  -3  -1  12    0.61    0.17 
   9  -2   1    1.33    0.22 
   9  -2   1    1.52    0.18 
   8  -2   2    0.37    0.12 
   8  -2   2    0.27    0.16 
   7  -2   3    0.40    0.10 
   7  -2   3    0.13    0.13 
   6  -2   4    0.09    0.10 
   6  -2   4    0.14    0.09 
   5  -2   5    4.88    0.31 
   5  -2   5    5.18    0.25 
   4  -2   6    3.74    0.26 
   4  -2   6    4.06    0.21 
   3  -2   7    3.51    0.24 
   3  -2   7    3.10    0.18 
   2  -2   8   14.97    0.57 
   2  -2   8   14.14    0.66 
   1  -2   9    1.27    0.13 
   1  -2   9    1.34    0.17 
   0  -2  10    0.04    0.11 
   0  -2  10    0.27    0.08 
  -1  -2  11    0.14    0.13 
  -2  -2  12    2.45    0.27 
   8  -3   3    0.98    0.14 
   8  -3   3    1.29    0.21 
   7  -3   4    0.42    0.10 
   7  -3   4    0.09    0.13 
   6  -3   5    0.52    0.14 
   5  -3   6    0.41    0.12 
   4  -3   7    0.34    0.12 
   3  -3   8   -0.02    0.10 
   2  -3   9    0.06    0.11 
   1  -3  10    0.00    0.12 
   0  -3  11    0.56    0.15 
  -1  -3  12    0.09    0.16 
   8  -4   4    0.25    0.16 
   7  -4   5    0.30    0.15 
   6  -4   6    0.14    0.12 
   5  -4   7    0.33    0.13 
   4  -4   8    0.05    0.11 
   3  -4   9    3.09    0.26 
   2  -4  10    0.18    0.14 
   1  -4  11    0.16    0.14 
   0  -4  12    1.62    0.24 
   7  -5   6    0.74    0.18 
   6  -5   7    0.03    0.13 
   5  -5   8    0.80    0.17 
   4  -5   9    1.37    0.22 
   3  -5  10    0.74    0.18 
   2  -5  11    0.10    0.15 
   1  10  -2    0.14    0.12 
   0  10  -1    0.97    0.15 
  -1  10   0    1.64    0.18 
  -2  10   1    4.31    0.29 
  -3  10   2    0.86    0.15 
  -4  10   3    0.36    0.12 
   2   9  -2    0.21    0.12 
   1   9  -1    0.50    0.11 
   1   9  -1    0.46    0.11 
   0   9   0    0.14    0.09 
   0   9   0    0.23    0.09 
  -1   9   1    2.95    0.23 
  -1   9   1    2.99    0.20 
  -2   9   2    4.50    0.27 
  -2   9   2    4.91    0.29 
  -3   9   3   -0.01    0.10 
  -3   9   3   -0.11    0.08 
  -4   9   4    0.05    0.10 
  -4   9   4    0.02    0.11 
  -5   9   5    0.62    0.14 
   4   8  -3    0.07    0.11 
   3   8  -2    1.78    0.18 
   2   8  -1    0.30    0.10 
   1   8   0    0.10    0.08 
   0   8   1    4.01    0.23 
  -1   8   2   11.12    0.50 
  -1   8   2   11.12    0.47 
  -2   8   3    3.30    0.23 
  -2   8   3    3.35    0.22 
  -3   8   4    3.31    0.22 
  -3   8   4    3.30    0.24 
  -4   8   5    8.67    0.43 
  -4   8   5    9.74    0.44 
  -5   8   6    0.79    0.14 
   5   7  -3    0.14    0.13 
   4   7  -2    0.54    0.13 
   3   7  -1    3.88    0.24 
   2   7   0    0.84    0.12 
   1   7   1    0.12    0.08 
   0   7   2   18.17    0.70 
  -1   7   3    4.37    0.25 
  -2   7   4    1.19    0.14 
  -2   7   4    1.21    0.14 
  -3   7   5    0.23    0.10 
  -3   7   5    0.17    0.10 
  -4   7   6    0.68    0.13 
  -5   7   7   -0.01    0.11 
   6   6  -3    0.80    0.16 
   5   6  -2    0.20    0.12 
   4   6  -1   -0.08    0.09 
   3   6   0    1.46    0.15 
   2   6   1    2.71    0.19 
   1   6   2   23.68    0.89 
   0   6   3   16.75    0.65 
  -1   6   4   -0.10    0.07 
  -2   6   5   -0.04    0.09 
  -2   6   5   -0.10    0.08 
  -3   6   6    1.72    0.17 
  -3   6   6    1.63    0.15 
  -4   6   7    0.01    0.10 
  -5   6   8    3.39    0.25 
   6   5  -2    0.13    0.12 
   5   5  -1    0.94    0.15 
   4   5   0   -0.08    0.09 
   3   5   1    1.86    0.16 
   2   5   2   10.25    0.44 
   1   5   3    9.44    0.40 
   0   5   4    0.21    0.09 
  -1   5   5    1.07    0.13 
  -2   5   6    3.48    0.23 
  -3   5   7    1.77    0.17 
  -4   5   8    0.11    0.10 
  -5   5   9    2.20    0.20 
   7   4  -2   -0.13    0.12 
   6   4  -1    0.35    0.13 
   5   4   0    0.28    0.11 
   4   4   1    0.28    0.10 
   3   4   2    0.04    0.07 
   2   4   3   13.75    0.55 
   1   4   4    0.52    0.10 
   0   4   5   -0.04    0.07 
  -1   4   6    0.13    0.08 
  -2   4   7    1.79    0.16 
  -3   4   8    0.32    0.10 
  -4   4   9    0.01    0.09 
  -5   4  10    0.01    0.09 
   7   3  -1    1.10    0.16 
   6   3   0    6.31    0.33 
   5   3   1   13.00    0.55 
   4   3   2    0.54    0.10 
   3   3   3   -0.05    0.08 
   2   3   4    3.45    0.21 
   1   3   5    0.78    0.11 
   0   3   6    3.49    0.21 
  -1   3   7    5.44    0.28 
  -2   3   8    0.18    0.09 
  -3   3   9    0.05    0.09 
  -4   3  10    0.78    0.14 
   8   2  -1    0.48    0.16 
   8   2  -1    0.32    0.13 
   7   2   0    0.41    0.13 
   7   2   0    0.37    0.13 
   6   2   1    3.99    0.25 
   6   2   1    4.13    0.27 
   5   2   2    0.32    0.11 
   5   2   2    0.51    0.11 
   4   2   3    1.22    0.13 
   3   2   4    5.28    0.27 
   2   2   5    0.89    0.11 
   1   2   6    4.08    0.22 
   0   2   7    1.12    0.13 
  -1   2   8    0.35    0.10 
  -2   2   9    0.46    0.10 
  -3   2  10    0.08    0.09 
  -4   2  11    3.10    0.23 
   8   1   0    0.01    0.14 
   8   1   0   -0.13    0.12 
   7   1   1    1.86    0.20 
   7   1   1    1.78    0.19 
   6   1   2    0.41    0.12 
   6   1   2    0.51    0.12 
   5   1   3    2.61    0.19 
   5   1   3    2.54    0.21 
   4   1   4    8.01    0.36 
   4   1   4    7.77    0.38 
   3   1   5    0.02    0.07 
   3   1   5    0.20    0.08 
   2   1   6    0.53    0.09 
   2   1   6    0.46    0.09 
   1   1   7    4.02    0.23 
   1   1   7    3.58    0.21 
   0   1   8    4.48    0.25 
  -1   1   9    0.09    0.08 
  -2   1  10    6.49    0.33 
  -3   1  11    2.34    0.20 
   8   0   1    0.20    0.12 
   8   0   1    0.27    0.15 
   7   0   2   -0.01    0.10 
   7   0   2    0.02    0.11 
   6   0   3    0.18    0.11 
   6   0   3    0.43    0.11 
   5   0   4    2.08    0.20 
   5   0   4    2.52    0.19 
   4   0   5    2.32    0.18 
   4   0   5    2.55    0.19 
   3   0   6   -0.08    0.07 
   3   0   6   -0.01    0.07 
   2   0   7   11.70    0.49 
   2   0   7   12.47    0.55 
   1   0   8   50.11    1.97 
   1   0   8   49.67    1.78 
   0   0   9    1.81    0.19 
   0   0   9    1.97    0.18 
  -1   0  10   -0.10    0.07 
  -1   0  10    0.12    0.11 
  -2   0  11    0.46    0.11 
  -3   0  12    0.23    0.11 
   8  -1   2    0.00    0.14 
   8  -1   2   -0.02    0.10 
   7  -1   3    0.33    0.13 
   7  -1   3   -0.09    0.09 
   6  -1   4    0.52    0.11 
   6  -1   4    0.36    0.12 
   5  -1   5    1.45    0.14 
   5  -1   5    1.42    0.16 
   4  -1   6    4.12    0.23 
   4  -1   6    4.14    0.27 
   3  -1   7    3.46    0.20 
   3  -1   7    3.87    0.25 
   2  -1   8    8.15    0.37 
   2  -1   8    9.03    0.44 
   1  -1   9    2.63    0.19 
   1  -1   9    2.58    0.23 
   0  -1  10    0.37    0.10 
   0  -1  10    0.36    0.12 
  -1  -1  11   -0.05    0.07 
  -1  -1  11   -0.10    0.11 
  -2  -1  12    0.07    0.08 
  -2  -1  12    0.16    0.15 
   8  -2   3    1.56    0.17 
   8  -2   3    1.50    0.22 
   7  -2   4    0.39    0.14 
   7  -2   4    0.55    0.12 
   6  -2   5    0.25    0.09 
   6  -2   5    0.23    0.12 
   5  -2   6    0.13    0.10 
   5  -2   6    0.03    0.08 
   4  -2   7    0.27    0.11 
   4  -2   7    0.43    0.09 
   3  -2   8    7.82    0.41 
   3  -2   8    7.44    0.34 
   2  -2   9    0.20    0.08 
   2  -2   9    0.02    0.11 
   1  -2  10   -0.07    0.10 
   0  -2  11   -0.06    0.12 
  -1  -2  12    0.53    0.18 
   8  -3   4    0.33    0.16 
   7  -3   5    4.28    0.33 
   6  -3   6    1.43    0.19 
   5  -3   7    0.07    0.11 
   4  -3   8   -0.03    0.11 
   3  -3   9    1.25    0.18 
   2  -3  10    0.64    0.16 
   1  -3  11   -0.09    0.13 
   0  -3  12    0.18    0.16 
   7  -4   6    1.93    0.24 
   6  -4   7    0.71    0.18 
   5  -4   8    0.55    0.16 
   4  -4   9    0.23    0.15 
   3  -4  10    0.13    0.15 
   2  -4  11    0.18    0.15 
   0  10   0    0.42    0.13 
  -1  10   1    1.49    0.18 
  -2  10   2    0.22    0.13 
   2   9  -1    1.81    0.17 
   1   9   0    0.24    0.10 
   1   9   0    0.28    0.10 
   0   9   1    0.23    0.10 
   0   9   1    0.09    0.10 
  -1   9   2    3.95    0.26 
  -1   9   2    4.27    0.25 
  -2   9   3    1.42    0.16 
  -2   9   3    1.43    0.17 
  -3   9   4   -0.02    0.10 
  -3   9   4   -0.06    0.11 
  -4   9   5    0.05    0.11 
   3   8  -1    0.10    0.11 
   2   8   0    1.51    0.16 
   1   8   1    0.21    0.10 
   0   8   2    1.35    0.15 
  -1   8   3    0.68    0.12 
  -1   8   3    0.67    0.13 
  -2   8   4    1.04    0.14 
  -2   8   4    1.25    0.15 
  -3   8   5    1.23    0.16 
  -3   8   5    1.00    0.15 
  -4   8   6   -0.06    0.11 
   4   7  -1    0.00    0.11 
   3   7   0    0.19    0.11 
   2   7   1    0.05    0.09 
   1   7   2    2.21    0.18 
   0   7   3    5.75    0.30 
  -1   7   4    0.94    0.14 
  -2   7   5    1.93    0.18 
  -2   7   5    2.08    0.18 
  -3   7   6   -0.12    0.10 
  -4   7   7    1.00    0.15 
   5   6  -1    0.47    0.14 
   4   6   0    0.03    0.10 
   3   6   1    0.01    0.10 
   2   6   2    0.67    0.12 
   1   6   3    2.24    0.18 
   0   6   4    0.38    0.10 
  -1   6   5    0.09    0.09 
  -2   6   6    1.88    0.18 
  -3   6   7    0.24    0.12 
  -4   6   8    1.73    0.19 
   6   5  -1    0.10    0.13 
   5   5   0    0.45    0.14 
   4   5   1    0.13    0.10 
   3   5   2   14.67    0.61 
   2   5   3    3.93    0.24 
   1   5   4   -0.03    0.07 
   0   5   5    1.28    0.14 
  -1   5   6    3.41    0.22 
  -2   5   7    7.68    0.38 
  -3   5   8    0.90    0.14 
  -4   5   9    2.93    0.22 
   6   4   0    0.73    0.15 
   5   4   1    8.47    0.41 
   4   4   2    6.79    0.34 
   3   4   3    0.18    0.09 
   2   4   4    6.99    0.33 
   1   4   5    0.38    0.09 
   0   4   6    0.43    0.10 
  -1   4   7    0.39    0.10 
  -2   4   8    0.39    0.11 
  -3   4   9    0.29    0.11 
  -4   4  10    0.23    0.12 
   7   3   0    0.07    0.11 
   6   3   1    6.27    0.35 
   5   3   2    2.93    0.23 
   4   3   3   -0.17    0.08 
   3   3   4    0.86    0.12 
   2   3   5    0.16    0.08 
   1   3   6    0.01    0.08 
   0   3   7    0.21    0.09 
  -1   3   8    0.03    0.09 
  -2   3   9    0.77    0.14 
  -3   3  10    1.07    0.15 
   7   2   1    0.96    0.16 
   6   2   2    0.27    0.11 
   5   2   3    0.48    0.11 
   4   2   4    0.29    0.09 
   3   2   5    0.02    0.08 
   2   2   6    0.11    0.07 
   1   2   7    0.06    0.07 
   0   2   8    3.27    0.21 
  -1   2   9    0.26    0.09 
  -2   2  10    0.27    0.10 
  -3   2  11    0.07    0.11 
   7   1   2    0.20    0.11 
   6   1   3    2.01    0.19 
   5   1   4    0.19    0.09 
   4   1   5    0.26    0.10 
   3   1   6    0.53    0.10 
   2   1   7    2.05    0.16 
   1   1   8    1.34    0.14 
   0   1   9    0.18    0.08 
  -1   1  10    0.04    0.09 
  -2   1  11    0.05    0.09 
   8   0   2    0.04    0.13 
   7   0   3    0.36    0.12 
   7   0   3    0.23    0.13 
   6   0   4    2.85    0.22 
   6   0   4    2.74    0.24 
   5   0   5    2.52    0.21 
   5   0   5    2.24    0.19 
   4   0   6    1.14    0.15 
   4   0   6    1.10    0.13 
   3   0   7    0.06    0.07 
   2   0   8   14.66    0.59 
   1   0   9    5.42    0.29 
   0   0  10    0.02    0.08 
  -1   0  11    0.17    0.10 
   7  -1   4    0.11    0.13 
   7  -1   4    0.00    0.10 
   6  -1   5    0.06    0.12 
   6  -1   5    0.34    0.10 
   5  -1   6   -0.04    0.08 
   5  -1   6    0.11    0.10 
   4  -1   7    0.53    0.10 
   4  -1   7    0.40    0.12 
   3  -1   8    2.03    0.20 
   3  -1   8    1.83    0.16 
   2  -1   9    1.81    0.16 
   2  -1   9    1.82    0.20 
   1  -1  10    0.09    0.08 
   0  -1  11    0.35    0.10 
   7  -2   5    0.77    0.17 
   7  -2   5    0.64    0.13 
   6  -2   6    0.56    0.15 
   6  -2   6    0.60    0.12 
   5  -2   7    0.55    0.15 
   4  -2   8    2.61    0.24 
   3  -2   9    0.22    0.12 
   2  -2  10    0.08    0.13 
   1  -2  11    0.05    0.13 
   6  -3   7    0.17    0.15 
   5  -3   8    0.05    0.13 
   4  -3   9    1.00    0.18 
   3  -3  10    0.49    0.16 
   2  -3  11    0.28    0.16 
   1   9   1    0.48    0.12 
   0   9   2    0.11    0.11 
   0   9   2    0.11    0.12 
  -1   9   3    0.36    0.12 
  -1   9   3    0.33    0.12 
  -2   9   4    0.00    0.11 
  -2   9   4   -0.09    0.11 
   3   8   0    0.64    0.14 
   2   8   1    0.89    0.14 
   1   8   2    0.19    0.10 
   0   8   3   -0.03    0.10 
  -1   8   4    0.53    0.13 
  -1   8   4    0.52    0.13 
  -2   8   5    3.37    0.26 
  -2   8   5    3.24    0.25 
  -3   8   6    1.20    0.17 
   4   7   0    0.51    0.14 
   3   7   1    0.08    0.11 
   2   7   2    1.19    0.15 
   1   7   3    0.42    0.11 
   0   7   4    0.74    0.13 
  -1   7   5    0.23    0.12 
  -2   7   6    3.49    0.24 
  -2   7   6    2.93    0.23 
  -3   7   7    0.82    0.16 
   5   6   0   -0.04    0.13 
   4   6   1    0.78    0.15 
   3   6   2    3.97    0.25 
   2   6   3    4.65    0.27 
   1   6   4    0.15    0.10 
   0   6   5    0.00    0.09 
  -1   6   6    0.14    0.10 
  -2   6   7    0.00    0.11 
  -3   6   8    1.17    0.17 
   5   5   1    1.65    0.19 
   4   5   2    0.30    0.12 
   3   5   3   13.68    0.58 
   2   5   4    4.57    0.26 
   1   5   5    0.78    0.12 
   0   5   6    0.25    0.10 
  -1   5   7   -0.04    0.09 
  -2   5   8    1.35    0.16 
  -3   5   9    0.27    0.12 
   6   4   1    3.24    0.26 
   5   4   2    1.82    0.19 
   4   4   3    3.10    0.23 
   3   4   4    0.27    0.10 
   2   4   5    0.00    0.07 
   1   4   6    1.45    0.15 
   0   4   7    5.83    0.31 
  -1   4   8    0.37    0.11 
  -2   4   9   -0.08    0.10 
  -3   4  10   -0.02    0.12 
   6   3   2    1.49    0.19 
   5   3   3    0.03    0.10 
   4   3   4    0.00    0.09 
   3   3   5    0.51    0.11 
   2   3   6    0.86    0.12 
   1   3   7    5.30    0.29 
   0   3   8    4.61    0.27 
  -1   3   9   -0.07    0.09 
  -2   3  10    0.42    0.12 
   7   2   2    0.24    0.15 
   6   2   3    0.08    0.11 
   5   2   4    1.25    0.16 
   4   2   5    1.17    0.14 
   3   2   6   -0.02    0.08 
   2   2   7    0.20    0.09 
   1   2   8    5.41    0.29 
   0   2   9    0.56    0.12 
  -1   2  10    1.17    0.16 
  -2   2  11    5.55    0.33 
   7   1   3    0.31    0.14 
   6   1   4    0.55    0.12 
   5   1   5    1.59    0.17 
   4   1   6    1.97    0.18 
   3   1   7    0.20    0.09 
   2   1   8    3.17    0.21 
   1   1   9    0.84    0.13 
   0   1  10    1.73    0.18 
  -1   1  11    1.44    0.17 
   7   0   4    0.47    0.13 
   6   0   5    0.07    0.10 
   5   0   6    0.64    0.12 
   4   0   7    0.79    0.12 
   3   0   8    2.66    0.20 
   2   0   9    0.92    0.13 
   1   0  10    0.49    0.11 
   0   0  11   -0.05    0.09 
   6  -1   6    0.08    0.10 
   5  -1   7    0.63    0.12 
   4  -1   8    6.42    0.31 
   3  -1   9    3.30    0.22 
   2  -1  10    0.02    0.09 
   1   8   3    0.12    0.11 
   0   8   4    0.59    0.14 
  -1   8   5    0.98    0.16 
   3   7   2   -0.07    0.11 
   2   7   3    1.28    0.17 
   1   7   4   -0.05    0.10 
   0   7   5    1.83    0.20 
  -1   7   6    0.21    0.13 
   4   6   2    0.05    0.12 
   3   6   3    0.18    0.11 
   2   6   4    0.93    0.15 
   1   6   5    0.72    0.14 
   0   6   6    0.14    0.11 
  -1   6   7    0.18    0.11 
  -2   6   8    0.26    0.12 
   4   5   3    3.65    0.26 
   3   5   4    0.00    0.09 
   2   5   5    0.29    0.10 
   1   5   6   -0.03    0.09 
   0   5   7    0.07    0.09 
  -1   5   8    0.18    0.11 
   5   4   3    1.78    0.20 
   4   4   4    0.18    0.11 
   3   4   5   -0.05    0.08 
   2   4   6    0.12    0.09 
   1   4   7    0.03    0.10 
   0   4   8    0.85    0.14 
  -1   4   9   -0.17    0.11 
   5   3   4    0.03    0.12 
   4   3   5    0.49    0.12 
   3   3   6    0.47    0.11 
   2   3   7    0.21    0.10 
   1   3   8    3.66    0.24 
   0   3   9    2.27    0.21 
  -1   3  10    0.26    0.13 
   5   2   5   -0.12    0.10 
   4   2   6    0.47    0.11 
   3   2   7    0.22    0.10 
   2   2   8    1.38    0.16 
   1   2   9    1.34    0.16 
   0   2  10   -0.04    0.10 
   5   1   6    0.07    0.10 
   4   1   7    0.41    0.11 
   3   1   8    0.40    0.11 
   2   1   9    0.51    0.12 
   1   1  10    0.45    0.12 
   5   0   7   -0.06    0.09 
   4   0   8    0.10    0.09 
   3   0   9    0.50    0.12 
   2   5   6   -0.18    0.08 
   1   5   7    0.01    0.10 
   3   4   6    0.15    0.12 
   2   4   7    1.81    0.19 
   3   3   7    1.90    0.19 
   2   3   8    0.00    0.11 
   0   0   0    0.00    0.00 
;
_shelx_hkl_checksum              16690
loop_
_space_group_symop_operation_xyz
'x, y, z'
'-x, -y, -z'
loop_
_atom_site_label
_atom_site_type_symbol
_atom_site_fract_x
_atom_site_fract_y
_atom_site_fract_z
_atom_site_U_iso_or_equiv
_atom_site_adp_type
_atom_site_occupancy
_atom_site_site_symmetry_order
_atom_site_calc_flag
_atom_site_refinement_flags_posn
_atom_site_refinement_flags_adp
O1 O 0.51335(16) 0.56321(15) 0.23714(12) 0.0462(3) Uani 1 1 d . .
O2 O 0.18943(18) 0.76099(14) 0.54026(13) 0.0498(3) Uani 1 1 d . .
O3 O 0.2597(3) 0.94421(17) 0.04829(14) 0.0765(5) Uani 1 1 d . .
C1 C 0.6714(2) 0.52609(17) 0.47307(16) 0.0366(3) Uani 1 1 d . .
H1 H 0.7865 0.5439 0.4541 0.044 Uiso 1 1 calc R U
C2 C 0.5129(2) 0.53393(16) 0.36986(15) 0.0349(3) Uani 1 1 d . .
C3 C 0.33944(19) 0.50764(16) 0.39719(15) 0.0339(3) Uani 1 1 d . .
C4 C 0.1653(2) 0.51558(17) 0.28614(17) 0.0379(4) Uani 1 1 d . .
H4A H 0.1368 0.4441 0.1815 0.045 Uiso 1 1 calc R U
H4B H 0.0488 0.4665 0.3086 0.045 Uiso 1 1 calc R U
C5 C 0.20024(19) 0.69701(17) 0.29345(16) 0.0348(3) Uani 1 1 d . .
C6 C 0.2142(2) 0.81879(18) 0.42462(17) 0.0371(4) Uani 1 1 d . .
C7 C 0.2475(2) 0.98465(19) 0.43149(18) 0.0445(4) Uani 1 1 d . .
H7 H 0.2593 1.0655 0.5201 0.053 Uiso 1 1 calc R U
C8 C 0.2635(3) 1.0316(2) 0.30847(19) 0.0472(4) Uani 1 1 d . .
H8 H 0.2859 1.1433 0.3141 0.057 Uiso 1 1 calc R U
C9 C 0.2458(3) 0.9115(2) 0.17739(17) 0.0465(4) Uani 1 1 d . .
C10 C 0.2152(2) 0.74509(18) 0.17160(17) 0.0418(4) Uani 1 1 d . .
H10 H 0.2046 0.6649 0.0831 0.050 Uiso 1 1 calc R U
C11 C 0.6885(3) 0.5960(3) 0.2078(2) 0.0562(5) Uani 1 1 d . .
H11A H 0.7983 0.6943 0.2932 0.084 Uiso 1 1 calc R U
H11B H 0.6713 0.6196 0.1150 0.084 Uiso 1 1 calc R U
H11C H 0.7149 0.4964 0.1954 0.084 Uiso 1 1 calc R U
C12 C 0.2115(3) 0.8835(2) 0.6772(2) 0.0593(5) Uani 1 1 d . .
H12A H 0.3359 0.9843 0.7150 0.089 Uiso 1 1 calc R U
H12B H 0.2096 0.8334 0.7541 0.089 Uiso 1 1 calc R U
H12C H 0.1041 0.9158 0.6556 0.089 Uiso 1 1 calc R U
C13 C 0.3029(6) 1.1162(3) 0.0567(3) 0.1109(12) Uani 1 1 d . U
H13A H 0.2000 1.1449 0.0739 0.166 Uiso 1 1 calc R U
H13B H 0.3097 1.1246 -0.0386 0.166 Uiso 1 1 calc R U
H13C H 0.4284 1.1953 0.1406 0.166 Uiso 1 1 calc R U
loop_
_atom_site_aniso_label
_atom_site_aniso_U_11
_atom_site_aniso_U_22
_atom_site_aniso_U_33
_atom_site_aniso_U_23
_atom_site_aniso_U_13
_atom_site_aniso_U_12
O1 0.0454(6) 0.0592(7) 0.0474(6) 0.0288(5) 0.0207(5) 0.0296(5)
O2 0.0639(7) 0.0455(6) 0.0548(7) 0.0241(5) 0.0332(6) 0.0289(5)
O3 0.1436(15) 0.0467(7) 0.0492(7) 0.0250(6) 0.0410(8) 0.0454(8)
C1 0.0328(7) 0.0335(7) 0.0459(8) 0.0149(6) 0.0141(6) 0.0184(5)
C2 0.0379(7) 0.0293(6) 0.0389(7) 0.0127(5) 0.0137(6) 0.0177(5)
C3 0.0320(7) 0.0261(6) 0.0409(7) 0.0101(5) 0.0089(5) 0.0157(5)
C4 0.0333(7) 0.0320(7) 0.0445(8) 0.0138(6) 0.0080(6) 0.0163(5)
C5 0.0273(6) 0.0315(7) 0.0419(7) 0.0118(6) 0.0066(5) 0.0156(5)
C6 0.0336(7) 0.0378(7) 0.0451(8) 0.0173(6) 0.0163(6) 0.0195(6)
C7 0.0515(9) 0.0385(8) 0.0471(8) 0.0128(6) 0.0211(7) 0.0247(7)
C8 0.0593(10) 0.0329(7) 0.0524(9) 0.0167(6) 0.0209(7) 0.0238(7)
C9 0.0615(10) 0.0387(8) 0.0411(8) 0.0170(6) 0.0167(7) 0.0252(7)
C10 0.0482(8) 0.0333(7) 0.0395(8) 0.0094(6) 0.0111(6) 0.0208(6)
C11 0.0513(10) 0.0702(11) 0.0589(10) 0.0354(9) 0.0277(8) 0.0272(8)
C12 0.0712(12) 0.0585(10) 0.0514(10) 0.0192(8) 0.0317(9) 0.0272(9)
C13 0.226(4) 0.0548(12) 0.0717(15) 0.0410(12) 0.0682(19) 0.0639(18)
loop_
_atom_type_symbol
_atom_type_description
_atom_type_scat_dispersion_real
_atom_type_scat_dispersion_imag
_atom_type_scat_source
C C 0.0033 0.0016 'International Tables Vol C Tables 4.2.6.8 and 6.1.1.4'
H H 0.0000 0.0000 'International Tables Vol C Tables 4.2.6.8 and 6.1.1.4'
O O 0.0106 0.0060 'International Tables Vol C Tables 4.2.6.8 and 6.1.1.4'
loop_
_geom_angle_atom_site_label_1
_geom_angle_atom_site_label_2
_geom_angle_atom_site_label_3
_geom_angle
_geom_angle_site_symmetry_1
C2 O1 C11 117.94(12) .
C6 O2 C12 116.98(14) .
C9 O3 C13 116.45(14) .
C3 C1 C2 121.33(13) 2_666
O1 C2 C3 116.20(12) .
O1 C2 C1 123.92(13) .
C3 C2 C1 119.87(14) .
C1 C3 C2 118.80(12) 2_666
C1 C3 C4 120.57(13) 2_666
C2 C3 C4 120.63(14) .
C5 C4 C3 114.22(11) .
C10 C5 C6 118.29(14) .
C10 C5 C4 121.39(12) .
C6 C5 C4 120.30(13) .
O2 C6 C7 124.07(13) .
O2 C6 C5 115.72(13) .
C7 C6 C5 120.20(14) .
C8 C7 C6 120.89(14) .
C9 C8 C7 119.37(15) .
C8 C9 O3 124.30(14) .
C8 C9 C10 119.64(15) .
O3 C9 C10 116.05(13) .
C5 C10 C9 121.59(13) .
loop_
_geom_bond_atom_site_label_1
_geom_bond_atom_site_label_2
_geom_bond_distance
_geom_bond_site_symmetry_2
O1 C2 1.377(2) .
O1 C11 1.412(2) .
O2 C6 1.377(2) .
O2 C12 1.414(2) .
O3 C9 1.378(2) .
O3 C13 1.421(2) .
C1 C3 1.382(2) 2_666
C1 C2 1.397(2) .
C2 C3 1.395(2) .
C3 C1 1.382(2) 2_666
C3 C4 1.5201(19) .
C4 C5 1.518(2) .
C5 C10 1.373(2) .
C5 C6 1.397(2) .
C6 C7 1.385(2) .
C7 C8 1.381(2) .
C8 C9 1.377(2) .
C9 C10 1.397(2) .
loop_
_geom_torsion_atom_site_label_1
_geom_torsion_atom_site_label_2
_geom_torsion_atom_site_label_3
_geom_torsion_atom_site_label_4
_geom_torsion
_geom_torsion_site_symmetry_1
_geom_torsion_site_symmetry_4
C11 O1 C2 C3 177.98(13) . .
C11 O1 C2 C1 -3.4(2) . .
C3 C1 C2 O1 -178.51(11) 2_666 .
C3 C1 C2 C3 0.1(2) 2_666 .
O1 C2 C3 C1 178.62(11) . 2_666
C1 C2 C3 C1 -0.1(2) . 2_666
O1 C2 C3 C4 -1.26(18) . .
C1 C2 C3 C4 -179.97(11) . .
C1 C3 C4 C5 107.60(15) 2_666 .
C2 C3 C4 C5 -72.52(16) . .
C3 C4 C5 C10 112.96(15) . .
C3 C4 C5 C6 -68.27(18) . .
C12 O2 C6 C7 -3.9(2) . .
C12 O2 C6 C5 177.28(13) . .
C10 C5 C6 O2 177.23(11) . .
C4 C5 C6 O2 -1.58(18) . .
C10 C5 C6 C7 -1.7(2) . .
C4 C5 C6 C7 179.54(13) . .
O2 C6 C7 C8 -177.49(13) . .
C5 C6 C7 C8 1.3(2) . .
C6 C7 C8 C9 0.0(2) . .
C7 C8 C9 O3 -179.81(16) . .
C7 C8 C9 C10 -1.0(3) . .
C13 O3 C9 C8 2.6(3) . .
C13 O3 C9 C10 -176.3(2) . .
C6 C5 C10 C9 0.7(2) . .
C4 C5 C10 C9 179.52(13) . .
C8 C9 C10 C5 0.6(2) . .
O3 C9 C10 C5 179.52(14) . .
