#------------------------------------------------------------------------------
#$Date: 2019-11-11 19:41:22 +0200 (Mon, 11 Nov 2019) $
#$Revision: 227116 $
#$URL: file:///home/coder/svn-repositories/cod/cif/4/03/56/4035668.cif $
#------------------------------------------------------------------------------
#
# This file is available in the Crystallography Open Database (COD),
# http://www.crystallography.net/
#
# All data on this site have been placed in the public domain by the
# contributors.
#
data_4035668
loop_
_publ_author_name
'Kao, Tzu-Ting'
'Peng, Bo-Kai'
'Liang, Min-Chieh'
'Lee, Chia-Jui'
'Chen, I-Chia'
'Shia, Kak-Shan'
'Wu, Yen-Ku'
_publ_section_title
;
 Temperature-Controlled Thiation of \a-Cyano-\b-Alkynyl Carbonyl
 Derivatives for De Novo Synthesis of 2-Aminothiophenes and Thieno[2,3-
 c]isothiazoles.
;
_journal_issue                   23
_journal_name_full               'The Journal of organic chemistry'
_journal_page_first              14688
_journal_page_last               14697
_journal_paper_doi               10.1021/acs.joc.8b01866
_journal_volume                  83
_journal_year                    2018
_chemical_formula_sum            'C18 H13 N S2'
_chemical_formula_weight         307.41
_space_group_crystal_system      triclinic
_space_group_IT_number           2
_space_group_name_Hall           '-P 1'
_space_group_name_H-M_alt        'P -1'
_atom_sites_solution_hydrogens   geom
_audit_creation_method           SHELXL-2014/6
_audit_update_record
;
2017-02-11 deposited with the CCDC.
2017-11-20 downloaded from the CCDC.

2018-10-11 # Formatted by publCIF
;
_cell_angle_alpha                86.119(3)
_cell_angle_beta                 83.374(2)
_cell_angle_gamma                71.079(3)
_cell_formula_units_Z            2
_cell_length_a                   8.4886(9)
_cell_length_b                   8.9588(10)
_cell_length_c                   10.1158(11)
_cell_measurement_reflns_used    3976
_cell_measurement_temperature    100(2)
_cell_measurement_theta_max      26.4281
_cell_measurement_theta_min      2.4045
_cell_volume                     722.48(14)
_computing_cell_refinement       'SAINT V8.34A (Bruker AXS Inc., 2013)'
_computing_data_collection       'Bruker APEX2'
_computing_data_reduction        'SAINT V8.34A (Bruker AXS Inc., 2013)'
_computing_molecular_graphics    'Bruker SHELXTL'
_computing_publication_material  'Bruker SHELXTL'
_computing_structure_refinement  'SHELXL-2014/6 (Sheldrick, 2014)'
_diffrn_ambient_temperature      100(2)
_diffrn_detector_area_resol_mean 8.3333
_diffrn_measured_fraction_theta_full 0.992
_diffrn_measured_fraction_theta_max 0.991
_diffrn_measurement_device_type  'Bruker APEX-II CCD'
_diffrn_measurement_method       '\f and \w scans'
_diffrn_radiation_type           MoK\a
_diffrn_radiation_wavelength     0.71073
_diffrn_reflns_av_R_equivalents  0.0266
_diffrn_reflns_av_unetI/netI     0.0239
_diffrn_reflns_Laue_measured_fraction_full 0.992
_diffrn_reflns_Laue_measured_fraction_max 0.991
_diffrn_reflns_limit_h_max       10
_diffrn_reflns_limit_h_min       -10
_diffrn_reflns_limit_k_max       11
_diffrn_reflns_limit_k_min       -6
_diffrn_reflns_limit_l_max       12
_diffrn_reflns_limit_l_min       -12
_diffrn_reflns_number            11493
_diffrn_reflns_point_group_measured_fraction_full 0.992
_diffrn_reflns_point_group_measured_fraction_max 0.991
_diffrn_reflns_theta_full        25.242
_diffrn_reflns_theta_max         26.475
_diffrn_reflns_theta_min         2.028
_exptl_absorpt_coefficient_mu    0.360
_exptl_absorpt_correction_T_max  0.9485
_exptl_absorpt_correction_T_min  0.8446
_exptl_absorpt_correction_type   multi-scan
_exptl_absorpt_process_details   'SADABS V2014/4 (Bruker AXS Inc.)'
_exptl_crystal_colour            orange
_exptl_crystal_density_diffrn    1.413
_exptl_crystal_density_method    'not measured'
_exptl_crystal_description       lump
_exptl_crystal_F_000             320
_exptl_crystal_size_max          0.27
_exptl_crystal_size_mid          0.25
_exptl_crystal_size_min          0.22
_refine_diff_density_max         0.387
_refine_diff_density_min         -0.240
_refine_diff_density_rms         0.055
_refine_ls_extinction_method     none
_refine_ls_goodness_of_fit_ref   1.053
_refine_ls_hydrogen_treatment    constr
_refine_ls_matrix_type           full
_refine_ls_number_parameters     190
_refine_ls_number_reflns         2971
_refine_ls_number_restraints     0
_refine_ls_restrained_S_all      1.053
_refine_ls_R_factor_all          0.0400
_refine_ls_R_factor_gt           0.0316
_refine_ls_shift/su_max          0.001
_refine_ls_shift/su_mean         0.000
_refine_ls_structure_factor_coef Fsqd
_refine_ls_weighting_details
'w=1/[\s^2^(Fo^2^)+(0.0483P)^2^+0.2987P] where P=(Fo^2^+2Fc^2^)/3'
_refine_ls_weighting_scheme      calc
_refine_ls_wR_factor_gt          0.0818
_refine_ls_wR_factor_ref         0.0871
_reflns_Friedel_coverage         0.000
_reflns_number_gt                2539
_reflns_number_total             2971
_reflns_threshold_expression     'I > 2\s(I)'
_cod_data_source_file            jo8b01866_si_002.cif
_cod_data_source_block           mo_170128LT_0m
_cod_database_code               4035668
_publcif_datablock.id            {7ff4b834-f81a-4f3f-a6ca-11a3cc74fa7d}
_shelx_space_group_comment
;
The symmetry employed for this shelxl refinement is uniquely defined
by the following loop, which should always be used as a source of
symmetry information in preference to the above space-group names.
They are only intended as comments.
;
_shelxl_version_number           2014/6
_shelx_res_file
;
TITL mo_170128LT_0m in P-1
CELL 0.71073 8.4886 8.9588 10.1158 86.119 83.374 71.079
ZERR 2.00 0.0009 0.0010 0.0011 0.003 0.002 0.003
LATT 1
SFAC C H N S
UNIT 36 26 2 4
TEMP -173.160
ACTA
L.S. 4
FMAP 2
PLAN 5
BOND $H

WGHT    0.048300    0.298700
FVAR       1.15599
S1    4    1.030311   -0.277469    0.108828    11.00000    0.02074    0.01433 =
         0.01981    0.00078   -0.00555   -0.00485
S2    4    0.660294    0.074901    0.310970    11.00000    0.02637    0.01726 =
         0.01823   -0.00398   -0.00173   -0.00845
N1    3    0.932339   -0.187963    0.247470    11.00000    0.02580    0.01666 =
         0.01992   -0.00115   -0.00519   -0.00812
C1    1    0.966734   -0.238247   -0.415855    11.00000    0.02168    0.02961 =
         0.01747   -0.00218   -0.00019   -0.00935
AFIX  43
H1    2    0.980084   -0.257666   -0.508305    11.00000   -1.20000
AFIX   0
C2    1    1.036334   -0.358457   -0.325952    11.00000    0.02005    0.02013 =
         0.02388   -0.00579    0.00108   -0.00271
AFIX  43
H13   2    1.098142   -0.460825   -0.356781    11.00000   -1.20000
AFIX   0
C3    1    1.016210   -0.330060   -0.191383    11.00000    0.01588    0.01746 =
         0.02247    0.00170   -0.00273   -0.00438
AFIX  43
H3    2    1.065024   -0.413278   -0.130558    11.00000   -1.20000
AFIX   0
C4    1    0.925185   -0.180847   -0.143638    11.00000    0.01302    0.01571 =
         0.01917   -0.00006   -0.00208   -0.00827
C5    1    0.900931   -0.153886   -0.000253    11.00000    0.01608    0.01157 =
         0.02008    0.00174   -0.00355   -0.00868
C6    1    0.781318   -0.039144    0.074156    11.00000    0.01756    0.01257 =
         0.01877   -0.00100   -0.00134   -0.00998
C7    1    0.636512    0.096506    0.054309    11.00000    0.01789    0.01523 =
         0.02093    0.00012   -0.00399   -0.00867
AFIX  43
H4    2    0.598382    0.132443   -0.030441    11.00000   -1.20000
AFIX   0
C8    1    0.561120    0.166789    0.169149    11.00000    0.01824    0.01514 =
         0.02169   -0.00216   -0.00306   -0.00983
C9    1    0.407874    0.308447    0.187267    11.00000    0.01658    0.01796 =
         0.02638   -0.00510   -0.00133   -0.00713
AFIX  23
H5    2    0.323721    0.279858    0.250867    11.00000   -1.20000
H6    2    0.359845    0.337876    0.100913    11.00000   -1.20000
AFIX   0
C10   1    0.439398    0.450200    0.237591    11.00000    0.01448    0.01363 =
         0.02362   -0.00109   -0.00462   -0.00322
C11   1    0.348731    0.524460    0.350972    11.00000    0.02112    0.01895 =
         0.03018   -0.00528    0.00295   -0.00854
AFIX  43
H10   2    0.265196    0.486054    0.397566    11.00000   -1.20000
AFIX   0
C12   1    0.378247    0.654037    0.397352    11.00000    0.02740    0.02107 =
         0.03548   -0.01162    0.00356   -0.00736
AFIX  43
H9    2    0.315991    0.702942    0.475891    11.00000   -1.20000
AFIX   0
C13   1    0.497934    0.712305    0.329717    11.00000    0.02419    0.01215 =
         0.04088   -0.00365   -0.00903   -0.00549
AFIX  43
H2    2    0.518029    0.801275    0.361400    11.00000   -1.20000
AFIX   0
C14   1    0.808013   -0.066367    0.211422    11.00000    0.02249    0.01424 =
         0.01935   -0.00120   -0.00246   -0.01147
C15   1    0.588143    0.640497    0.215843    11.00000    0.01876    0.01792 =
         0.03324    0.00200   -0.00519   -0.00832
AFIX  43
H8    2    0.670304    0.680416    0.168853    11.00000   -1.20000
AFIX   0
C16   1    0.559306    0.510214    0.169712    11.00000    0.01662    0.02076 =
         0.02605   -0.00399   -0.00030   -0.00692
AFIX  43
H7    2    0.621860    0.461544    0.091184    11.00000   -1.20000
AFIX   0
C17   1    0.856148   -0.059882   -0.235025    11.00000    0.02086    0.01410 =
         0.02155    0.00124   -0.00201   -0.00788
AFIX  43
H11   2    0.794496    0.042782   -0.204764    11.00000   -1.20000
AFIX   0
C18   1    0.877363   -0.089252   -0.369748    11.00000    0.02372    0.02110 =
         0.02054    0.00496   -0.00393   -0.00807
AFIX  43
H12   2    0.830076   -0.006253   -0.431248    11.00000   -1.20000
AFIX   0
HKLF 4 1 1 0 0 0 1 0 0 0 1

REM  mo_170128LT_0m in P-1
REM R1 =  0.0316 for    2539 Fo > 4sig(Fo)  and  0.0400 for all    2971 data
REM    190 parameters refined using      0 restraints

END

WGHT      0.0483      0.2987

REM Highest difference peak  0.387,  deepest hole -0.240,  1-sigma level  0.055
Q1    1   0.6029  0.1235  0.2326  11.00000  0.05    0.39
Q2    1   0.9665 -0.2183  0.0359  11.00000  0.05    0.36
Q3    1   0.9201 -0.1638 -0.0718  11.00000  0.05    0.34
Q4    1   0.7870 -0.0515  0.1486  11.00000  0.05    0.32
Q5    1   0.8541 -0.0756  0.0209  11.00000  0.05    0.32
;
_shelx_res_checksum              40610
_shelx_hkl_file
;
  -1   0   0 243.631 5.88143   1
  -1   0   0 237.489 5.87016   2
  -1   0   0 229.409 5.98633   5
   1   0   0 225.560 5.82399   1
   1   0   0 217.302 5.51470   3
   1   0   0 241.113 5.97571   5
  -2   0   0 6288.99 127.179   2
  -2   0   0 6293.56 127.553   5
  -2   0   0 6410.82 127.208   1
   2   0   0 6555.63 127.238   1
   2   0   0 6254.34 127.356   5
   2   0   0 6230.56 126.485   3
  -3   0   0 2481.08 54.0551   5
  -3   0   0 2593.52 53.7004   2
  -3   0   0 2540.40 53.7090   1
   3   0   0 2548.04 52.6001   3
   3   0   0 2597.93 53.6990   1
   3   0   0 2545.66 53.8951   5
  -4   0   0 282.418 10.6193   5
  -4   0   0 319.740 10.3885   1
  -4   0   0 301.787 10.2195   2
   4   0   0 327.556 10.3937   1
   4   0   0 293.323 9.10208   3
   4   0   0 294.804 10.4400   5
  -5   0   0 443.920 14.3744   1
  -5   0   0 419.783 14.8458   5
  -5   0   0 442.567 14.1594   2
   5   0   0 441.689 14.6969   5
   5   0   0 463.624 14.4560   1
   5   0   0 427.490 12.4891   3
  -6   0   0 116.712 8.52772   1
  -6   0   0 118.943 8.80938   2
  -6   0   0 104.499 8.66872   5
   6   0   0 116.750 8.33492   1
   6   0   0 96.3884 6.07161   3
   6   0   0 97.9106 8.20744   5
  -7   0   0 60.8618 7.61360   2
  -7   0   0 68.7947 7.72196   1
  -7   0   0 72.6178 8.69775   5
   7   0   0 56.0656 7.24583   1
   7   0   0 57.5142 7.61909   5
   7   0   0 63.1406 5.83749   3
  -8   0   0 24.9037 7.68133   5
  -8   0   0 32.1997 6.82082   1
  -8   0   0 36.2066 6.94960   2
   8   0   0 26.2629 6.51113   1
  -9   0   0 122.599 12.1239   5
  -9   0   0 128.791 11.1068   1
  -9   0   0 124.806 10.7492   2
   9   0   0 106.216 10.7135   5
   9   0   0 112.784 10.7260   1
 -10   0   0 90.1871 10.9223   2
 -10   0   0 76.6721 11.1379   5
  10   0   0 73.1200 9.77412   1
  10   0   0 72.8394 10.0612   5
   9  -1   0 202.172 16.0215   1
   9  -1   0 219.863 15.0906   5
  -9   1   0 194.062 13.8639   1
  -9   1   0 177.535 13.5002   2
  -9   1   0 181.786 14.5376   5
   8  -1   0 33.8993 8.37913   5
   8  -1   0 31.3300 6.95296   1
  -8   1   0 36.6320 7.42018   1
  -8   1   0 32.7659 7.02460   2
   7  -1   0 1364.84 35.9252   1
   7  -1   0 1427.19 37.7236   5
  -7   1   0 1346.02 36.6354   1
  -7   1   0 1374.05 37.3302   5
  -7   1   0 1463.11 36.1787   2
   6  -1   0 19.5353 5.88102   5
   6  -1   0 24.3500 5.08981   1
  -6   1   0 12.9379 5.44481   5
  -6   1   0 20.8506 5.44643   1
  -6   1   0 25.2796 4.17003   6
  -6   1   0 26.9258 5.16255   2
   5  -1   0 130.444 8.75027   5
   5  -1   0 142.072 8.07478   1
  -5   1   0 145.249 8.65224   1
  -5   1   0 130.431 8.79223   5
  -5   1   0 134.317 8.08351   2
   4  -1   0 1283.73 30.0844   5
   4  -1   0 1255.79 29.3653   1
  -4   1   0 1197.95 29.8188   5
  -4   1   0 1250.72 29.7395   1
  -4   1   0 1252.73 29.2134   2
   3  -1   0 21.1084 3.00385   5
   3  -1   0 22.7523 2.86824   1
  -3   1   0 17.1344 2.60834   2
  -3   1   0 21.5589 3.26247   5
  -3   1   0 18.6676 2.84888   1
   2  -1   0 148.374 5.78011   5
   2  -1   0 160.738 5.63075   1
  -2   1   0 160.154 5.76403   1
  -2   1   0 162.635 6.01083   5
  -2   1   0 158.230 5.59002   2
   1  -1   0 1788.75 37.6927   5
   1  -1   0 1871.21 37.5479   1
  -1   1   0 1828.00 37.9398   6
  -1   1   0 1879.55 37.3495   2
  -1   1   0 1827.41 37.6417   5
  -1   1   0 1817.78 37.6222   1
   0   1   0 908.173 19.0851   3
   0   1   0 939.279 19.6265   6
   0   1   0 915.468 19.4990   4
  -1  -1   0 971.089 19.5224   5
   1   1   0 998.836 19.8634   1
   1   1   0 953.359 20.5323   3
   1   1   0 934.753 20.4861   4
   1   1   0 920.014 19.5014   1
  -2  -1   0 9865.81 195.554   5
  -2  -1   0 9999.99 195.252   1
  -2  -1   0 9613.53 195.184   2
   2   1   0 9843.85 195.896   3
   2   1   0 9695.58 195.246   1
  -3  -1   0 832.865 19.6504   5
  -3  -1   0 818.599 19.0901   1
  -3  -1   0 797.769 19.1484   2
   3   1   0 792.982 18.7184   2
   3   1   0 842.783 19.2770   1
   3   1   0 818.937 19.2403   5
   3   1   0 825.819 19.4456   3
  -4  -1   0 39.9300 4.56114   5
  -4  -1   0 46.8024 4.23339   2
  -4  -1   0 64.2698 4.78500   1
   4   1   0 48.7785 4.10589   3
   4   1   0 47.7723 4.38521   5
   4   1   0 44.2947 4.17604   1
  -5  -1   0 320.634 11.3235   1
  -5  -1   0 335.360 12.5321   5
  -5  -1   0 317.162 11.4791   2
   5   1   0 319.577 11.5944   5
   5   1   0 327.989 11.0910   3
   5   1   0 327.191 11.6358   1
  -6  -1   0 930.751 24.9453   1
  -6  -1   0 960.824 26.3183   5
  -6  -1   0 903.768 24.9672   2
   6   1   0 946.946 25.3113   5
   6   1   0 925.737 25.1139   1
   6   1   0 908.933 24.0102   3
  -7  -1   0 28.5143 5.43322   1
  -7  -1   0 24.5045 5.48552   2
  -7  -1   0 22.5535 6.32002   5
   7   1   0 21.3731 5.63714   5
   7   1   0 23.2507 4.56757   3
   7   1   0 14.6555 5.23250   1
  -8  -1   0 63.8668 7.87111   2
  -8  -1   0 62.2385 7.57023   1
  -8  -1   0 59.2278 8.16005   5
   8   1   0 64.6890 8.13576   1
   8   1   0 65.7673 6.70783   3
   8   1   0 59.4113 7.65820   5
  -9  -1   0 884.384 28.1329   2
  -9  -1   0 830.409 27.2875   1
  -9  -1   0 898.808 29.8055   5
   9   1   0 861.158 27.8501   1
   9   1   0 838.211 27.3558   5
 -10  -1   0 61.7465 10.0367   2
 -10  -1   0 71.6435 10.3214   5
  10   1   0 81.0841 9.69715   5
  10   1   0 81.1781 10.0774   1
  10   1   0 55.0869 8.60937   5
   9  -2   0 400.026 20.5193   5
  -9   2   0 404.195 20.3107   1
  -9   2   0 403.173 17.6603   2
  -9   2   0 385.795 19.6950   5
   8  -2   0 18.3444 6.37304   5
  -8   2   0 4.00732 5.96908   1
  -8   2   0 8.67876 5.84205   2
  -8   2   0 4.78466 6.01292   5
   7  -2   0 2.91937 5.88412   5
   7  -2   0 6.23544 4.89673   1
  -7   2   0 8.98936 4.85957   2
  -7   2   0 9.04685 5.71852   5
  -7   2   0 1.54784 4.99296   1
   6  -2   0 200.438 10.6297   1
   6  -2   0 183.584 12.0361   5
  -6   2   0 214.657 10.8313   2
  -6   2   0 183.424 12.1255   1
  -6   2   0 187.811 12.0930   5
  -6   2   0 208.281 9.46803   6
   5  -2   0 78.3598 7.07358   5
   5  -2   0 83.0874 6.70093   1
  -5   2   0 86.4542 7.01964   1
  -5   2   0 79.2218 7.07637   5
  -5   2   0 79.6468 6.92132   2
  -5   2   0 89.1262 6.36726   6
   4  -2   0 122.646 7.45097   5
   4  -2   0 129.447 6.64604   1
  -4   2   0 110.069 6.97234   5
  -4   2   0 112.952 7.11841   1
  -4   2   0 123.978 6.54106   2
  -4   2   0 117.812 6.60703   6
   3  -2   0 291.721 9.12163   1
   3  -2   0 271.548 9.84011   5
  -3   2   0 274.481 9.46523   1
  -3   2   0 275.205 9.56257   5
  -3   2   0 295.237 9.43112   6
  -3   2   0 274.678 8.64542   2
   2  -2   0 214.833 6.80368   1
   2  -2   0 214.576 7.36285   5
  -2   2   0 216.898 7.00032   5
  -2   2   0 205.066 7.01493   1
  -2   2   0 215.971 7.56533   6
  -2   2   0 231.858 6.36947   2
   1  -2   0 2386.83 49.2725   5
  -1   2   0 2356.46 50.3213   4
  -1   2   0 2414.19 49.2985   1
  -1   2   0 2487.41 48.6897   5
  -1   2   0 2365.40 50.6480   6
  -1   2   0 2435.56 48.9782   5
   0   2   0 269.386 8.13330   4
   0   2   0 263.226 7.28275   3
   1   2   0 5119.30 103.112   3
   1   2   0 5071.07 103.306   4
  -3  -2   0 1897.61 40.8190   1
  -3  -2   0 2045.54 42.2171   2
  -3  -2   0 1986.78 41.6703   5
   3   2   0 1913.37 42.6383   3
   3   2   0 2007.39 40.1800   2
   3   2   0 1925.34 41.2441   1
   3   2   0 1912.14 40.7229   5
   3   2   0 1933.28 40.7112   5
  -4  -2   0 3932.51 81.6734   2
  -4  -2   0 3952.39 81.3324   1
  -4  -2   0 3926.44 82.3774   5
   4   2   0 3906.95 81.7829   1
   4   2   0 3963.05 81.3013   5
   4   2   0 3963.91 80.5843   2
   4   2   0 3964.97 82.9582   3
  -5  -2   0 474.494 14.2703   2
  -5  -2   0 477.141 14.8953   5
  -5  -2   0 471.223 13.7183   1
   5   2   0 460.643 14.1343   1
   5   2   0 437.799 13.5339   5
   5   2   0 458.374 14.7096   3
   5   2   0 457.236 12.9722   2
  -6  -2   0 17.0404 3.89569   1
  -6  -2   0 20.6658 4.82941   5
  -6  -2   0 21.6450 4.43733   2
   6   2   0 11.7375 4.07552   3
   6   2   0 25.8428 4.64721   5
   6   2   0 21.3166 4.68521   1
   6   2   0 20.8512 3.73442   2
  -7  -2   0 26.6027 6.21515   5
  -7  -2   0 28.2657 5.10476   1
  -7  -2   0 16.6605 5.03255   2
   7   2   0 21.6902 5.67997   2
   7   2   0 22.3801 5.27472   3
   7   2   0 31.3449 5.67190   1
   7   2   0 36.2011 6.04105   5
  -8  -2   0 131.767 11.6761   5
  -8  -2   0 130.217 9.71415   1
  -8  -2   0 130.061 10.4362   2
   8   2   0 151.048 10.3001   5
   8   2   0 134.462 9.84896   3
   8   2   0 152.879 11.0477   1
  -9  -2   0 143.214 12.8113   5
  -9  -2   0 162.337 13.6025   2
   9   2   0 148.486 11.3937   5
   9   2   0 163.067 11.4744   3
   9   2   0 166.682 12.7863   1
   9   2   0 171.192 11.5907   5
 -10  -2   0 28.3504 8.15727   2
 -10  -2   0 41.6574 9.28958   5
  10   2   0 33.8540 7.33059   5
  10   2   0 29.6538 8.00408   1
  10   2   0 29.5298 7.34872   5
   8  -3   0 617.244 24.6881   5
  -8   3   0 602.578 23.8639   1
  -8   3   0 599.727 22.3519   5
  -8   3   0 618.390 19.9563   2
   7  -3   0 8.21474 6.32967   5
  -7   3   0 4.37730 6.47786   1
  -7   3   0 13.6301 5.04018   2
  -7   3   0 21.5918 6.27843   5
   6  -3   0 89.8765 8.93774   1
   6  -3   0 101.963 10.1014   5
  -6   3   0 124.028 8.36718   6
  -6   3   0 102.432 9.65072   1
   5  -3   0 1766.43 41.3077   1
   5  -3   0 1691.39 43.0829   5
  -5   3   0 1750.84 41.3647   6
  -5   3   0 1824.79 43.1243   1
  -5   3   0 1829.86 41.9032   5
  -5   3   0 1816.72 40.1570   2
   4  -3   0 88.4610 6.25651   1
   4  -3   0 88.1257 7.62663   5
  -4   3   0 103.672 7.26860   6
  -4   3   0 103.700 7.78692   1
  -4   3   0 85.5838 7.32454   5
  -4   3   0 84.2843 5.84235   2
   3  -3   0 165.557 7.88952   5
   3  -3   0 163.868 6.73970   1
  -3   3   0 182.121 6.07382   2
  -3   3   0 166.368 8.23972   6
  -3   3   0 172.500 7.12172   5
  -3   3   0 167.304 7.80316   1
   2  -3   0 1663.78 36.0839   1
   2  -3   0 1668.38 37.2137   5
  -2   3   0 1777.41 35.9510   5
  -2   3   0 1694.76 37.0755   1
  -2   3   0 1709.12 38.5503   6
   1  -3   0 -1.1691 1.37479   5
  -1   3   0 -0.6839 1.54678   1
  -1   3   0 -0.2546 2.32713   4
  -1   3   0 0.45223 1.35488   3
  -1   3   0 -2.8302 2.29567   6
   0   3   0 235.886 8.29963   4
   0   3   0 232.347 7.35417   3
   1   3   0 238.237 8.11261   3
   1   3   0 228.358 8.26913   4
   2   3   0 4110.04 85.3120   3
   2   3   0 4096.79 85.4470   4
  -3  -3   0 539.240 12.9485   5
   3   3   0 524.766 15.2443   3
   3   3   0 521.752 12.7991   1
  -4  -3   0 3203.37 66.2362   1
  -4  -3   0 3219.55 67.5802   5
   4   3   0 3295.13 65.8349   5
   4   3   0 3147.18 69.4160   3
   4   3   0 3216.01 67.1221   1
  -5  -3   0 30.1619 3.84027   2
  -5  -3   0 35.6380 3.66058   1
  -5  -3   0 31.0040 4.36297   5
   5   3   0 35.6814 4.26928   1
   5   3   0 34.0901 3.60968   5
   5   3   0 28.0982 2.76122   2
   5   3   0 36.3436 5.00990   3
  -6  -3   0 1038.85 26.7972   2
  -6  -3   0 995.894 25.5880   1
  -6  -3   0 1001.89 27.3870   5
   6   3   0 1039.65 25.3392   5
   6   3   0 1043.42 26.8456   1
   6   3   0 1037.74 25.4621   5
   6   3   0 1077.05 28.3966   3
   6   3   0 1065.27 24.3475   2
  -7  -3   0 20.5794 4.60645   1
  -7  -3   0 27.9083 6.05660   5
  -7  -3   0 23.9157 5.32097   2
   7   3   0 26.8448 5.80535   3
   7   3   0 18.1463 5.35235   1
   7   3   0 19.0818 4.59308   5
   7   3   0 18.8380 4.73787   5
   7   3   0 13.7206 3.80528   2
  -8  -3   0 13.3814 5.99692   2
  -8  -3   0 13.8211 5.67789   5
   8   3   0 15.0481 4.68357   5
   8   3   0 17.3579 4.96196   5
   8   3   0 26.9957 5.77338   1
   8   3   0 19.7971 5.82880   3
  -9  -3   0 73.8519 9.82157   5
   9   3   0 66.0202 7.68995   5
   9   3   0 78.5216 8.94079   1
   9   3   0 73.5023 8.50922   3
 -10  -3   0 -2.7982 7.01814   5
  10   3   0 -4.4487 5.63271   3
  10   3   0 -3.4641 6.24878   1
  10   3   0 -15.599 4.96220   5
   8  -4   0 -6.2704 6.67895   5
  -8   4   0 -2.2775 3.71006   2
  -8   4   0 -5.5177 5.31354   5
  -8   4   0 -1.6918 7.11585   1
   7  -4   0 130.972 12.5735   5
  -7   4   0 147.628 8.35048   2
  -7   4   0 156.304 12.7357   1
  -7   4   0 146.488 10.8871   5
   6  -4   0 50.6092 7.73272   5
  -6   4   0 40.2923 4.34390   2
  -6   4   0 56.5025 6.48622   5
  -6   4   0 50.6464 7.38759   1
   5  -4   0 11.9010 5.45257   5
  -5   4   0 12.8041 2.95196   2
  -5   4   0 22.0234 5.26675   6
  -5   4   0 18.3306 4.46950   5
  -5   4   0 5.56542 5.03135   1
   4  -4   0 131.787 7.61823   1
   4  -4   0 141.511 9.66672   5
  -4   4   0 160.946 9.79950   6
  -4   4   0 147.610 7.89860   5
  -4   4   0 148.605 10.0121   1
   3  -4   0 414.657 14.0025   5
  -3   4   0 477.284 12.0224   5
  -3   4   0 448.883 14.9040   4
  -3   4   0 448.227 14.0385   1
  -3   4   0 440.107 15.0478   6
   2  -4   0 423.853 12.3649   5
  -2   4   0 430.274 13.8524   4
  -2   4   0 418.954 12.1409   1
  -2   4   0 385.699 13.7209   6
   1  -4   0 11.2121 2.13054   5
  -1   4   0 8.11934 3.44128   4
  -1   4   0 11.4526 2.26573   3
  -1   4   0 8.10142 2.03509   1
  -1   4   0 10.4632 1.94581   1
   0   4   0 9.08455 2.58527   3
   0   4   0 6.24322 3.10624   4
   1   4   0 411.564 13.2853   4
   1   4   0 434.676 12.7326   3
   2   4   0 10.4560 3.11709   3
   2   4   0 17.3948 3.58910   4
   3   4   0 824.238 22.0032   4
   3   4   0 813.357 17.9201   1
   3   4   0 793.192 21.8055   3
   3   4   0 798.531 17.8512   1
  -4  -4   0 8528.90 172.396   5
   4   4   0 8656.94 176.067   3
   4   4   0 8493.11 172.050   1
  -5  -4   0 340.624 11.5132   5
   5   4   0 352.780 13.7897   3
   5   4   0 334.449 11.3556   1
  -6  -4   0 704.824 18.5007   1
  -6  -4   0 709.257 19.9200   2
  -6  -4   0 699.427 20.7237   5
   6   4   0 717.352 20.3916   1
   6   4   0 721.044 22.7279   3
   6   4   0 753.324 17.9971   5
  -7  -4   0 493.281 17.9323   5
   7   4   0 526.709 19.3867   3
   7   4   0 530.456 17.5656   1
   7   4   0 520.378 15.1553   5
  -8  -4   0 107.823 9.92889   5
   8   4   0 116.123 9.38307   1
   8   4   0 86.6983 7.57886   5
   8   4   0 96.6126 9.98036   3
  -9  -4   0 107.732 10.8523   5
   9   4   0 131.434 11.5491   3
   9   4   0 109.511 9.96616   1
   9   4   0 113.808 8.71592   5
 -10  -4   0 27.3016 8.35954   5
  10   4   0 13.4125 5.44789   5
  10   4   0 10.5124 6.74501   1
  10   4   0 15.3020 6.70674   3
   7  -5   0 2.52368 6.35880   5
  -7   5   0 11.1473 6.77157   4
  -7   5   0 -0.6746 4.54692   5
  -7   5   0 -3.4881 5.91392   1
   6  -5   0 487.974 20.6000   5
  -6   5   0 519.165 20.0154   4
  -6   5   0 483.311 20.1991   1
  -6   5   0 490.123 15.7399   5
   5  -5   0 -7.5452 5.19379   5
  -5   5   0 11.0892 5.61298   4
  -5   5   0 -7.4683 4.34117   1
  -5   5   0 -1.7263 3.63545   5
   4  -5   0 385.004 15.7098   5
  -4   5   0 426.495 16.0074   1
  -4   5   0 441.983 16.3965   4
   3  -5   0 612.863 18.5514   5
  -3   5   0 602.882 19.6731   4
  -3   5   0 590.698 17.9288   1
   2  -5   0 12.9037 3.46057   5
  -2   5   0 9.35291 4.24395   4
  -2   5   0 7.50964 3.39535   1
   1  -5   0 139.182 5.79938   5
  -1   5   0 138.279 6.01220   1
  -1   5   0 139.677 8.44477   4
  -1   5   0 139.090 6.35503   3
  -1   5   0 131.245 5.74050   1
   0   5   0 2259.49 48.7298   3
   0   5   0 2197.03 50.6407   4
   1   5   0 391.904 13.9787   4
   1   5   0 393.880 12.8764   3
   2   5   0 282.175 11.4205   4
   2   5   0 265.740 10.9234   3
   3   5   0 224.096 10.2087   3
   3   5   0 222.735 10.5693   4
  -4  -5   0 2082.19 44.5027   5
   4   5   0 2146.50 44.4175   1
   4   5   0 2085.59 44.2373   1
   4   5   0 2072.23 49.2072   3
   4   5   0 2095.18 49.1750   4
  -5  -5   0 467.000 13.9116   5
   5   5   0 480.736 17.5586   3
   5   5   0 483.154 13.8264   1
  -6  -5   0 497.542 16.2346   5
   6   5   0 525.448 15.9995   1
   6   5   0 523.392 19.3513   3
  -7  -5   0 9.04363 4.46890   5
   7   5   0 0.85159 4.10925   1
   7   5   0 5.17646 5.15667   3
  -8  -5   0 352.078 16.1547   5
   8   5   0 342.932 17.5450   3
   8   5   0 366.029 11.5865   5
   8   5   0 366.881 15.2566   1
  -9  -5   0 94.7915 10.2903   5
   9   5   0 78.4910 6.48106   5
   9   5   0 79.0272 8.65334   1
   9   5   0 96.4733 10.7417   3
 -10  -5   0 9.43987 6.78029   5
  10   5   0 20.4476 7.65439   3
  10   5   0 13.0736 4.97459   5
  10   5   0 12.3784 6.20211   1
   6  -6   0 55.4756 9.40417   5
  -6   6   0 49.6470 8.66435   4
  -6   6   0 31.8816 7.56186   1
   5  -6   0 60.8246 8.24405   5
  -5   6   0 72.2252 8.39249   1
  -5   6   0 66.1236 8.84418   4
   4  -6   0 61.8941 7.46260   5
  -4   6   0 59.3784 7.12645   1
  -4   6   0 68.8479 8.50496   4
   3  -6   0 34.6490 5.50836   5
  -3   6   0 35.9930 5.93291   1
  -3   6   0 51.1661 7.35443   4
   2  -6   0 727.046 20.1143   5
  -2   6   0 749.213 20.2240   1
  -2   6   0 732.092 23.0054   4
   1  -6   0 14.8136 2.93524   5
  -1   6   0 7.78738 2.93349   1
  -1   6   0 10.4030 2.98212   1
  -1   6   0 8.74137 4.62842   4
  -1   6   0 15.7266 3.48515   3
   0   6   0 26.0328 4.29063   3
   0   6   0 24.3532 5.40624   4
   1   6   0 295.993 13.0613   4
   1   6   0 267.844 11.1818   3
   2   6   0 3.16212 4.07308   4
   2   6   0 7.06693 3.65928   3
   3   6   0 234.257 11.3590   3
   3   6   0 222.289 11.4214   4
   4   6   0 43.8372 3.35156   1
   4   6   0 41.6832 6.77696   4
   4   6   0 44.4459 6.48324   3
  -5  -6   0 58.2417 5.05507   5
   5   6   0 51.3869 7.28014   3
   5   6   0 49.6436 4.44036   1
   5   6   0 64.4549 4.94963   1
  -6  -6   0 2688.84 61.1543   5
   6   6   0 2781.49 60.6456   1
   6   6   0 2887.51 66.3617   3
  -7  -6   0 8.71549 4.33013   5
   7   6   0 5.15557 5.59968   3
   7   6   0 7.50535 3.95967   1
  -8  -6   0 205.102 13.5245   5
   8   6   0 195.612 14.1657   3
   8   6   0 207.906 11.4526   1
  -9  -6   0 138.662 13.6745   5
   9   6   0 140.732 10.8904   1
   9   6   0 123.179 12.1468   3
 -10  -6   0 49.8480 10.9516   5
  10   6   0 42.2099 7.76757   1
  10   6   0 27.0668 8.50790   3
  -5   7   0 11.9017 6.06445   1
  -5   7   0 23.2551 7.70859   4
  -4   7   0 380.490 15.8573   1
  -4   7   0 374.175 17.6329   4
  -3   7   0 -1.8520 4.18545   1
  -3   7   0 8.03318 6.04642   4
  -2   7   0 464.522 15.6545   1
  -2   7   0 497.453 19.0939   4
  -1   7   0 539.161 15.2108   1
  -1   7   0 552.874 19.9390   4
  -1   7   0 503.339 15.6415   3
   0   7   0 310.652 12.4534   3
   0   7   0 320.207 14.8811   4
   1   7   0 0.82311 4.95359   4
   1   7   0 -2.0521 3.87983   3
   2   7   0 305.290 13.2580   3
   2   7   0 302.601 14.6718   4
   3   7   0 354.213 15.1203   3
   3   7   0 358.739 16.0107   4
   4   7   0 588.791 21.4758   4
   4   7   0 579.517 20.5370   3
   5   7   0 90.8855 9.57184   3
   5   7   0 112.395 6.18582   1
   6   7   0 349.630 12.1207   1
   6   7   0 336.509 16.6183   3
   7   7   0 87.7514 10.6924   3
   7   7   0 95.5249 7.83775   1
   8   7   0 43.7072 8.85736   3
   8   7   0 56.9587 6.79943   1
   9   7   0 0.10318 6.36929   3
   9   7   0 -0.8952 4.70130   1
  -4   8   0 189.056 13.1596   1
  -4   8   0 187.219 13.8378   4
  -3   8   0 26.8945 6.10089   1
  -3   8   0 31.6309 7.39191   4
  -2   8   0 16.7014 4.69240   1
  -2   8   0 15.6976 6.37361   4
  -1   8   0 172.725 12.6860   4
  -1   8   0 152.308 9.17860   3
  -1   8   0 163.675 8.70093   1
   0   8   0 515.472 20.4581   4
   0   8   0 508.697 17.2913   3
   1   8   0 75.9663 8.90783   4
   1   8   0 82.7362 7.95238   3
   2   8   0 340.855 15.4600   3
   2   8   0 360.123 16.6510   4
   3   8   0 87.9207 9.18951   3
   3   8   0 93.0401 10.0314   4
   4   8   0 -4.2111 4.93885   3
   4   8   0 9.48563 6.01376   4
   5   8   0 985.267 22.9056   1
   5   8   0 938.375 30.2463   3
   5   8   0 972.540 30.5524   4
   6   8   0 152.366 12.4284   3
   6   8   0 141.050 7.85835   1
   7   8   0 371.733 19.0541   3
   7   8   0 380.779 13.8077   1
   8   8   0 820.962 24.4101   1
   8   8   0 818.798 30.3541   3
   9   8   0 11.3406 6.97272   3
   9   8   0 14.4840 6.08419   1
  -3   9   0 19.5937 6.16409   1
  -3   9   0 3.91280 7.00171   4
  -2   9   0 297.588 17.1021   4
  -2   9   0 321.891 13.6545   1
  -1   9   0 25.7872 4.84013   1
  -1   9   0 26.3689 7.33875   4
   0   9   0 611.870 23.8388   4
   0   9   0 608.011 20.3402   3
   1   9   0 253.668 15.7645   4
   1   9   0 251.131 13.5835   3
   2   9   0 51.8428 8.63463   4
   2   9   0 53.8964 7.94708   3
   3   9   0 9.26404 6.65877   4
   3   9   0 9.84715 6.04947   3
   4   9   0 28.3680 8.25226   4
   4   9   0 43.9129 7.96726   3
   5   9   0 67.1167 9.28040   3
   5   9   0 58.5839 9.34291   4
   6   9   0 21.2976 7.49795   3
   6   9   0 24.2363 4.17345   1
   7   9   0 -2.9933 6.19140   3
   7   9   0 -1.0244 3.79714   1
   8   9   0 291.498 18.5850   3
   8   9   0 268.051 13.2394   1
  -1  10   0 22.9358 7.85001   4
  -1  10   0 22.3244 5.07967   1
   0  10   0 30.8356 4.83422   1
   0  10   0 41.9059 8.65307   4
   1  10   0 141.165 13.2702   4
   1  10   0 122.611 10.7302   3
   2  10   0 338.596 16.8163   3
   2  10   0 284.919 17.3030   4
   3  10   0 0.32412 6.00516   4
   3  10   0 10.9179 6.44534   3
   4  10   0 183.165 14.5411   3
   4  10   0 193.572 15.2600   4
   5  10   0 26.7484 8.60167   4
   5  10   0 24.4489 8.25449   3
   6  10   0 117.623 12.5862   3
   7  10   0 456.990 22.9284   3
   7  10   0 425.611 14.7310   1
   2  11   0 840.672 28.6167   3
   2  11   0 763.881 30.1788   4
   3  11   0 169.655 15.6239   4
   3  11   0 196.214 15.4076   3
   4  11   0 -2.7262 7.43705   3
   4  11   0 7.54251 7.68788   4
   5  11   0 1.48964 7.74459   4
   5  11   0 -3.7011 7.01078   3
   4  11  -1 72.5468 11.1865   4
   4  11  -1 99.9727 12.2414   3
   3  11  -1 11.7890 7.75368   4
   3  11  -1 13.0904 7.26210   3
   2  11  -1 99.1825 12.4046   4
   2  11  -1 98.3359 10.8233   3
   7  10  -1 6.94763 4.60264   1
   7  10  -1 -6.2804 6.35953   3
   6  10  -1 1.44615 3.66818   1
   6  10  -1 -5.0119 7.59842   4
   6  10  -1 1.78528 6.82654   3
   5  10  -1 87.9267 11.8566   4
   5  10  -1 95.8171 11.6500   3
   4  10  -1 230.834 15.8555   3
   4  10  -1 212.121 15.7670   4
   3  10  -1 47.2499 8.39443   3
   3  10  -1 22.5388 8.21416   4
   2  10  -1 164.765 13.0734   3
   2  10  -1 175.411 14.8222   4
   1  10  -1 89.7478 9.47913   3
   1  10  -1 74.7023 10.5293   4
   0  10  -1 5.83029 4.12113   1
   0  10  -1 7.12585 7.20352   4
  -1  10  -1 6.90630 4.78973   1
  -1  10  -1 10.1210 7.46591   4
   8   9  -1 55.7913 6.94359   1
   8   9  -1 66.0147 10.3090   3
   7   9  -1 18.5127 4.74209   1
   7   9  -1 17.4006 7.48094   3
   6   9  -1 21.6691 7.34032   3
   6   9  -1 11.1819 3.80077   1
   5   9  -1 86.2599 6.07012   1
   5   9  -1 61.0131 9.22469   3
   5   9  -1 75.0248 10.3501   4
   4   9  -1 -2.7246 5.70577   3
   4   9  -1 7.47375 6.07006   4
   3   9  -1 242.466 14.6353   3
   3   9  -1 229.937 16.0231   4
   2   9  -1 328.391 16.2137   3
   2   9  -1 335.643 18.2699   4
   1   9  -1 6.15586 5.55418   3
   1   9  -1 -6.8960 5.65616   4
   0   9  -1 761.479 20.3183   1
   0   9  -1 780.460 24.1912   3
   0   9  -1 778.445 27.8629   4
  -1   9  -1 12.1331 4.27613   1
  -1   9  -1 15.9945 6.66237   4
  -2   9  -1 100.469 11.5159   4
  -2   9  -1 83.7528 7.54686   1
  -3   9  -1 60.7884 7.84237   1
  -3   9  -1 60.2964 10.0790   4
   9   8  -1 91.8636 9.34007   1
   9   8  -1 103.065 12.6516   3
   8   8  -1 37.8086 6.19136   1
   8   8  -1 22.3389 7.50219   3
   7   8  -1 891.686 30.8735   3
   7   8  -1 919.677 25.0398   1
   6   8  -1 89.8846 6.89024   1
   6   8  -1 74.8733 9.29419   3
   5   8  -1 35.4347 4.20993   1
   5   8  -1 32.8489 7.45087   4
   5   8  -1 31.7693 7.21272   3
   4   8  -1 35.0655 6.73872   3
   4   8  -1 34.4967 7.48163   4
   3   8  -1 167.426 13.1238   4
   3   8  -1 168.191 11.4562   3
   2   8  -1 444.157 18.8900   4
   2   8  -1 425.493 17.1001   3
   1   8  -1 148.671 11.9300   4
   1   8  -1 145.052 10.0479   3
   0   8  -1 334.184 13.9540   3
   0   8  -1 353.501 11.3273   1
   0   8  -1 329.927 16.2345   4
  -1   8  -1 487.116 16.1894   3
  -1   8  -1 488.151 20.4434   4
  -1   8  -1 493.408 15.1860   1
  -2   8  -1 -3.0848 4.00548   1
  -2   8  -1 2.37788 6.07687   4
  -3   8  -1 29.6316 5.94800   1
  -3   8  -1 26.8959 7.35562   4
  -4   8  -1 594.739 24.1974   4
  -4   8  -1 612.452 21.8639   1
   9   7  -1 2.69334 6.34179   3
   9   7  -1 6.95767 4.82827   1
   8   7  -1 4.95850 4.44659   1
   8   7  -1 0.83927 5.89906   3
   7   7  -1 1056.90 33.5070   3
   7   7  -1 1104.14 28.7578   1
   6   7  -1 12.1951 4.00778   1
   6   7  -1 12.2769 6.05127   3
   5   7  -1 178.891 8.02621   1
   5   7  -1 193.237 12.1917   3
   5   7  -1 191.881 13.0744   4
   4   7  -1 32.4098 7.18955   4
   4   7  -1 29.4977 3.21318   1
   4   7  -1 37.1179 6.94081   3
   4   7  -1 26.2962 3.45084   1
   3   7  -1 363.054 15.5848   3
   3   7  -1 374.810 16.9253   4
   2   7  -1 19.4131 6.63758   4
   2   7  -1 18.8520 5.72160   3
   1   7  -1 332.913 15.6693   4
   1   7  -1 351.674 14.0946   3
   0   7  -1 517.015 13.8057   1
   0   7  -1 501.276 16.7105   3
   0   7  -1 504.197 19.2794   4
   0   7  -1 499.502 13.7220   1
  -1   7  -1 111.198 10.2998   4
  -1   7  -1 104.710 7.10800   1
  -1   7  -1 104.937 7.43831   3
  -2   7  -1 1095.89 27.7661   1
  -2   7  -1 1070.06 31.8606   4
  -3   7  -1 151.133 12.6350   4
  -3   7  -1 139.750 9.66280   1
  -4   7  -1 12.7232 6.56926   4
  -4   7  -1 -1.5142 4.71120   1
  -5   7  -1 3.95991 7.51284   4
  -5   7  -1 16.1657 6.10234   1
  10   6  -1 369.038 18.3665   1
  10   6  -1 359.628 20.6525   3
 -10  -6   1 378.504 19.8572   5
   9   6  -1 8.73312 6.40608   3
   9   6  -1 6.87672 5.11156   1
  -9  -6   1 11.0547 6.00188   5
   8   6  -1 515.703 18.1706   1
   8   6  -1 491.814 21.0694   3
  -8  -6   1 462.938 18.6623   5
   7   6  -1 111.263 8.53101   1
   7   6  -1 98.8211 9.74119   3
  -7  -6   1 113.266 8.46662   5
   6   6  -1 41.8941 7.53818   3
   6   6  -1 44.4963 5.44791   1
  -6  -6   1 40.3130 5.58465   5
   5   6  -1 3252.09 73.8829   4
   5   6  -1 3328.62 74.3536   3
   5   6  -1 3209.39 68.4760   1
  -5  -6   1 3182.01 68.9151   5
   4   6  -1 59.5023 7.30399   4
   4   6  -1 48.6554 3.83113   1
   4   6  -1 49.6315 6.62954   3
   4   6  -1 41.4366 3.83585   1
   3   6  -1 120.334 8.97438   3
   3   6  -1 116.578 9.36927   4
   2   6  -1 151.541 9.14181   3
   2   6  -1 154.695 10.4307   4
   1   6  -1 201.186 11.0178   4
   1   6  -1 210.117 10.0866   3
   0   6  -1 203.471 6.85403   1
   0   6  -1 211.936 7.36890   1
   0   6  -1 203.266 9.37026   3
   0   6  -1 212.273 11.4502   4
  -1   6  -1 106.010 6.54304   1
  -1   6  -1 113.729 6.97733   3
  -1   6  -1 85.1693 5.75243   1
  -1   6  -1 102.908 9.45986   4
   1  -6   1 97.3726 5.95112   5
  -2   6  -1 870.841 22.9003   1
  -2   6  -1 861.970 26.3267   4
   2  -6   1 873.400 22.9886   5
  -3   6  -1 349.960 13.8092   1
  -3   6  -1 362.026 16.2672   6
  -3   6  -1 372.845 16.7857   4
   3  -6   1 365.104 14.1946   5
  -4   6  -1 -12.317 4.13963   1
  -4   6  -1 -2.0940 5.25564   4
   4  -6   1 -9.5008 4.13500   5
  -5   6  -1 132.133 10.9585   1
  -5   6  -1 118.339 10.9778   4
   5  -6   1 115.436 10.6271   5
  -6   6  -1 207.808 14.9258   4
  -6   6  -1 222.839 14.7446   1
   6  -6   1 211.611 15.0188   5
  10   5  -1 54.0020 9.63709   3
  10   5  -1 50.5870 6.21233   5
  10   5  -1 63.4102 8.92746   1
 -10  -5   1 57.7851 9.25644   5
   9   5  -1 82.3963 7.26939   5
   9   5  -1 94.8624 10.6985   3
   9   5  -1 80.6880 8.68977   1
  -9  -5   1 79.0827 9.96501   5
   8   5  -1 -6.2342 5.38660   3
   8   5  -1 1.24248 3.46650   5
   8   5  -1 2.10927 4.39185   1
  -8  -5   1 -5.2780 5.05146   5
   7   5  -1 -3.6023 3.47139   1
   7   5  -1 -1.3820 4.54013   3
  -7  -5   1 0.78289 4.04392   5
   6   5  -1 18.0378 5.66488   3
   6   5  -1 12.3434 3.96454   1
  -6  -5   1 10.4534 4.06858   5
   5   5  -1 1139.88 31.2014   3
   5   5  -1 1158.17 27.2078   1
  -5  -5   1 1099.58 27.4566   5
   4   5  -1 352.689 14.0797   4
   4   5  -1 393.359 14.8462   3
   4   5  -1 364.996 10.7939   1
  -4  -5   1 357.815 10.7292   5
   3   5  -1 6.09542 3.72850   3
   3   5  -1 6.69452 3.85334   4
   3   5  -1 3.16414 1.75744   1
   3   5  -1 4.36394 1.94243   1
   2   5  -1 699.447 20.4392   4
   2   5  -1 684.861 19.7027   3
   1   5  -1 861.662 23.9645   4
   1   5  -1 889.644 22.9628   3
   0   5  -1 13.9134 3.28760   3
   0   5  -1 16.5221 4.59176   6
   0   5  -1 11.0328 1.96123   1
   0   5  -1 7.74672 3.99053   4
   0   5  -1 13.6115 2.27142   1
  -1   5  -1 797.734 19.2955   1
  -1   5  -1 788.066 22.7103   4
  -1   5  -1 804.895 23.1942   6
  -1   5  -1 798.760 19.8460   3
   1  -5   1 793.528 19.2538   5
  -2   5  -1 464.027 17.0235   6
  -2   5  -1 493.881 14.4925   1
  -2   5  -1 482.339 16.9517   4
   2  -5   1 481.597 14.5425   5
  -3   5  -1 176.314 11.4139   4
  -3   5  -1 170.508 10.7468   6
  -3   5  -1 158.229 9.26075   1
   3  -5   1 154.985 9.22831   5
  -4   5  -1 1524.43 39.0555   4
  -4   5  -1 1487.97 38.6865   6
  -4   5  -1 1515.17 37.3699   1
   4  -5   1 1444.30 37.5269   5
  -5   5  -1 301.722 10.9651   5
  -5   5  -1 299.260 14.0985   1
  -5   5  -1 298.985 14.3823   6
  -5   5  -1 290.844 15.3007   4
   5  -5   1 299.551 14.7775   5
  -6   5  -1 16.7487 5.08552   5
  -6   5  -1 30.8973 7.10442   6
  -6   5  -1 34.5917 7.39292   1
  -6   5  -1 26.0983 7.75320   4
   6  -5   1 25.9889 7.28141   5
  -7   5  -1 40.2745 8.76002   4
  -7   5  -1 37.6297 6.17730   5
  -7   5  -1 39.2484 8.14072   1
   7  -5   1 36.5680 8.61301   5
  10   4  -1 0.65719 6.14580   3
  10   4  -1 -14.315 5.42073   1
  10   4  -1 -6.1249 4.69084   5
 -10  -4   1 -0.7966 6.26677   5
   9   4  -1 338.826 16.2130   1
   9   4  -1 359.967 14.3768   5
   9   4  -1 365.512 17.3764   3
  -9  -4   1 357.081 18.0519   5
   8   4  -1 324.266 12.7274   5
   8   4  -1 330.019 16.1340   3
   8   4  -1 372.656 15.5897   1
  -8  -4   1 329.120 15.7859   5
   7   4  -1 235.378 12.9952   3
   7   4  -1 226.014 11.7235   1
   7   4  -1 232.235 9.79001   5
  -7  -4   1 215.666 11.8346   5
   6   4  -1 1071.23 26.8996   1
   6   4  -1 1041.02 24.4189   5
   6   4  -1 1028.80 29.0671   3
  -6  -4   1 1004.51 24.8830   1
  -6  -4   1 998.591 27.1697   5
  -6  -4   1 1032.54 26.4711   2
   5   4  -1 115.489 6.89420   1
   5   4  -1 110.835 5.08260   5
   5   4  -1 115.238 8.69326   3
   5   4  -1 118.695 4.93451   5
  -5  -4   1 118.125 6.81356   5
   4   4  -1 155.876 6.67424   1
   4   4  -1 156.961 8.56506   4
   4   4  -1 157.256 8.86252   3
  -4  -4   1 157.176 6.74996   5
   3   4  -1 3955.64 78.9592   1
   3   4  -1 3844.96 82.6117   4
   3   4  -1 3701.13 78.9130   1
   3   4  -1 3993.76 82.8463   3
  -3  -4   1 3859.98 78.8875   5
   2   4  -1 18.4619 3.82497   4
   2   4  -1 15.0494 3.54054   3
   1   4  -1 423.234 13.4339   4
   1   4  -1 405.767 12.5230   3
   0   4  -1 188.962 5.63902   1
   0   4  -1 179.655 8.66888   4
   0   4  -1 184.825 8.85046   6
   0   4  -1 184.142 5.36092   1
   0   4  -1 183.717 7.37052   3
  -1   4  -1 35.4107 3.17650   1
  -1   4  -1 36.3625 4.75773   4
  -1   4  -1 36.6230 4.98479   6
  -1   4  -1 32.7670 3.31380   3
   1  -4   1 31.0551 2.99545   5
  -2   4  -1 266.937 9.56848   1
  -2   4  -1 268.711 11.1811   4
  -2   4  -1 270.288 11.2929   6
   2  -4   1 288.769 9.71084   5
  -3   4  -1 14.1341 3.97099   1
  -3   4  -1 11.9205 4.47843   6
  -3   4  -1 13.9952 2.97386   5
   3  -4   1 19.0262 4.05279   5
   3  -4   1 15.8382 2.80081   1
  -4   4  -1 1121.41 27.1323   5
  -4   4  -1 1135.07 29.6368   1
  -4   4  -1 1108.89 30.0262   6
   4  -4   1 1174.13 30.2029   5
  -5   4  -1 145.546 10.4722   6
  -5   4  -1 159.678 6.98480   2
  -5   4  -1 149.610 8.96661   5
  -5   4  -1 157.030 10.8188   1
   5  -4   1 126.574 10.5509   5
  -6   4  -1 -1.9484 5.06061   6
  -6   4  -1 0.27950 4.95421   1
  -6   4  -1 -2.5983 2.71850   2
  -6   4  -1 -5.7666 4.03971   5
   6  -4   1 3.77176 5.39624   5
  -7   4  -1 99.2403 10.6155   1
  -7   4  -1 110.154 9.78885   5
  -7   4  -1 111.811 10.3357   6
   7  -4   1 101.928 10.9657   5
  -8   4  -1 30.9192 7.98482   1
  -8   4  -1 24.7598 6.62147   5
  -8   4  -1 28.9355 4.99283   2
   8  -4   1 46.2146 9.36269   5
  10   3  -1 553.584 20.8174   5
  10   3  -1 552.494 20.5623   5
  10   3  -1 571.454 23.1708   1
  10   3  -1 588.815 22.3666   3
 -10  -3   1 550.521 24.2541   5
   9   3  -1 1.37768 4.95487   3
   9   3  -1 1.78299 4.84714   5
   9   3  -1 -0.5084 4.68222   5
   9   3  -1 1.16844 5.20592   1
  -9  -3   1 -1.0214 5.53364   5
   8   3  -1 40.6652 6.07717   5
   8   3  -1 35.8916 6.50381   1
   8   3  -1 46.7395 7.11499   3
  -8  -3   1 34.6024 7.06495   5
  -8  -3   1 49.9778 8.04962   2
   7   3  -1 320.773 12.8092   5
   7   3  -1 337.319 13.8345   1
   7   3  -1 342.357 14.7615   3
   7   3  -1 306.666 11.1956   2
  -7  -3   1 366.990 15.0624   5
  -7  -3   1 316.816 13.5169   2
  -7  -3   1 313.113 12.5329   1
   6   3  -1 30.0136 4.44676   5
   6   3  -1 29.6247 4.85512   1
   6   3  -1 34.0018 5.72146   3
   6   3  -1 28.7498 3.78977   2
  -6  -3   1 38.2467 4.69092   1
  -6  -3   1 33.9236 5.44482   5
  -6  -3   1 33.9446 4.88628   2
   5   3  -1 114.314 6.19178   5
   5   3  -1 108.680 6.69794   1
   5   3  -1 109.551 7.93296   3
  -5  -3   1 117.746 6.01935   1
  -5  -3   1 121.561 6.86990   2
  -5  -3   1 117.803 7.29326   5
   4   3  -1 203.038 9.50094   3
   4   3  -1 220.233 7.07132   5
   4   3  -1 208.048 7.87598   1
  -4  -3   1 216.894 8.34721   5
  -4  -3   1 204.034 7.07965   1
   3   3  -1 1605.79 36.4104   3
   3   3  -1 1538.19 35.9543   4
   3   3  -1 1610.88 33.8960   1
  -3  -3   1 1559.58 34.0424   5
   2   3  -1 2.59755 1.36216   1
   2   3  -1 3.98641 2.64509   4
   2   3  -1 2.95309 1.49059   1
   2   3  -1 1.81029 2.53909   3
   1   3  -1 14.7031 2.85817   3
   1   3  -1 19.7546 3.44415   6
   1   3  -1 16.7903 3.23356   4
   0   3  -1 1607.54 35.6824   4
   0   3  -1 1576.79 34.2519   3
   0   3  -1 1564.00 32.4979   1
   0   3  -1 1597.99 32.6682   1
   0   3  -1 1549.15 35.6241   6
  -1   3  -1 882.378 21.7157   6
  -1   3  -1 840.940 19.1377   3
  -1   3  -1 836.259 19.2192   1
  -1   3  -1 852.123 21.3805   4
   1  -3   1 826.899 19.1655   5
  -2   3  -1 228.872 8.21480   1
  -2   3  -1 235.206 7.24312   5
  -2   3  -1 230.199 9.45171   6
   2  -3   1 238.289 7.21566   1
   2  -3   1 238.561 8.31753   5
  -3   3  -1 317.774 11.2166   1
  -3   3  -1 351.534 10.6218   5
  -3   3  -1 332.877 12.0875   6
  -3   3  -1 336.823 9.37680   2
   3  -3   1 346.812 11.7512   5
   3  -3   1 334.411 10.2466   1
  -4   3  -1 576.313 17.6458   6
  -4   3  -1 549.622 17.5184   1
  -4   3  -1 585.318 15.4158   2
  -4   3  -1 566.057 16.6803   5
   4  -3   1 583.519 18.0359   5
   4  -3   1 569.190 16.1359   1
  -5   3  -1 31.7701 5.28636   5
  -5   3  -1 26.3834 5.33920   1
  -5   3  -1 31.9851 5.87495   6
  -5   3  -1 20.0746 4.01554   2
   5  -3   1 26.5422 5.55299   5
   5  -3   1 28.4128 4.71424   1
  -6   3  -1 1430.93 36.3746   6
  -6   3  -1 1514.09 35.1212   2
  -6   3  -1 1430.83 38.0377   1
  -6   3  -1 1493.69 36.9132   5
   6  -3   1 1501.43 39.1349   5
   6  -3   1 1403.39 36.6734   1
  -7   3  -1 290.260 13.7730   5
  -7   3  -1 277.494 12.1760   2
  -7   3  -1 284.929 13.2432   6
  -7   3  -1 243.121 14.6721   1
   7  -3   1 298.122 16.0487   5
  -8   3  -1 30.8492 5.97593   2
  -8   3  -1 26.6849 7.16316   5
  -8   3  -1 29.2684 8.03189   1
   8  -3   1 34.5382 8.20694   5
  10   2  -1 152.381 12.9825   1
  10   2  -1 140.125 12.0241   5
 -10  -2   1 138.392 12.3284   2
 -10  -2   1 162.400 14.5818   5
   9   2  -1 34.1908 6.74569   5
   9   2  -1 25.3869 6.80962   1
   9   2  -1 25.5377 6.30100   3
  -9  -2   1 27.9655 8.29135   5
  -9  -2   1 39.1671 7.54995   2
   8   2  -1 82.4889 8.20415   5
   8   2  -1 98.1060 9.04550   3
   8   2  -1 78.0655 8.10856   1
  -8  -2   1 104.328 9.12048   2
  -8  -2   1 102.857 9.97049   5
  -8  -2   1 83.7897 7.87980   1
   7   2  -1 510.380 17.7153   3
   7   2  -1 521.588 18.1618   1
   7   2  -1 506.308 17.3396   5
  -7  -2   1 493.538 17.8958   2
  -7  -2   1 540.393 17.6044   1
  -7  -2   1 512.495 19.1193   5
   6   2  -1 159.034 8.94300   1
   6   2  -1 141.236 7.57690   2
   6   2  -1 145.034 8.91529   3
   6   2  -1 147.889 8.51809   5
  -6  -2   1 121.933 9.08528   5
  -6  -2   1 135.034 7.98854   1
  -6  -2   1 135.438 8.42445   2
   5   2  -1 363.963 12.9722   3
   5   2  -1 374.315 12.5538   1
   5   2  -1 369.682 11.5321   2
   5   2  -1 397.869 12.4903   5
  -5  -2   1 355.591 11.7811   1
  -5  -2   1 390.139 12.6189   2
  -5  -2   1 374.525 13.0725   5
   4   2  -1 2191.70 47.7244   3
   4   2  -1 2181.02 46.2391   5
   4   2  -1 2127.94 46.5563   1
   4   2  -1 2166.23 45.5007   2
  -4  -2   1 2114.31 47.1507   5
  -4  -2   1 2129.67 46.4867   2
  -4  -2   1 2105.38 46.0399   1
   3   2  -1 5.45844 1.84955   1
   3   2  -1 2.97510 1.80986   5
   3   2  -1 5.69212 2.59044   3
  -3  -2   1 3.39663 1.89322   5
  -3  -2   1 0.88875 1.70739   1
  -3  -2   1 5.01483 1.87638   2
   2   2  -1 1586.33 33.1796   1
   2   2  -1 1565.94 34.8307   3
   2   2  -1 1568.23 34.5004   4
   2   2  -1 1602.72 32.7039   5
  -2  -2   1 1580.29 32.8366   1
  -2  -2   1 1591.23 33.3968   5
   1   2  -1 5561.11 111.080   1
   1   2  -1 5507.94 110.986   1
   1   2  -1 5648.09 112.901   3
   1   2  -1 5641.75 112.925   6
   1   2  -1 5514.60 112.965   4
   0   2  -1 286.775 8.91727   6
   0   2  -1 281.361 8.74382   4
   0   2  -1 277.414 6.90197   1
   0   2  -1 275.371 6.79468   1
   0  -2   1 284.652 7.32651   5
  -1   2  -1 1859.56 39.2615   1
  -1   2  -1 1908.21 40.8271   6
  -1   2  -1 1888.93 38.8020   5
  -1   2  -1 1893.74 38.0499   2
   1  -2   1 1880.84 38.8139   1
   1  -2   1 1876.87 39.3700   5
  -2   2  -1 17.8700 2.72439   1
  -2   2  -1 20.2314 2.15724   2
  -2   2  -1 18.6207 2.52770   5
   2  -2   1 17.5552 2.74523   5
   2  -2   1 15.4582 2.13762   1
  -3   2  -1 285.350 8.79067   2
  -3   2  -1 276.330 9.61191   1
  -3   2  -1 273.737 9.50038   5
   3  -2   1 283.447 9.03334   1
   3  -2   1 263.419 9.77969   5
  -4   2  -1 5.73919 3.34528   5
  -4   2  -1 4.24523 3.24925   1
  -4   2  -1 1.45665 2.72761   2
   4  -2   1 7.16510 3.48463   5
   4  -2   1 5.72245 2.92479   1
  -5   2  -1 -1.0400 4.01382   1
  -5   2  -1 -3.3865 3.57430   2
  -5   2  -1 -7.8000 4.07583   5
  -5   2  -1 6.64678 4.11568   6
   5  -2   1 2.39150 3.34609   1
   5  -2   1 8.52326 4.08624   5
  -6   2  -1 376.654 14.2067   6
  -6   2  -1 431.416 15.2089   2
  -6   2  -1 377.373 15.6963   5
  -6   2  -1 406.098 16.0176   1
   6  -2   1 383.602 16.4597   5
   6  -2   1 403.991 14.7462   1
  -7   2  -1 65.5349 6.99508   6
  -7   2  -1 69.9995 8.57261   5
  -7   2  -1 74.9004 7.46908   2
  -7   2  -1 67.0586 8.50575   1
   7  -2   1 63.5294 7.26269   1
   7  -2   1 60.7569 8.05051   5
  -8   2  -1 -6.4557 4.96736   2
  -8   2  -1 2.76923 5.16790   1
  -8   2  -1 -2.6335 5.47584   5
   8  -2   1 -8.9912 5.59482   5
  -9   2  -1 15.1669 7.42123   5
  -9   2  -1 10.1228 6.85197   2
  -9   2  -1 19.3710 7.66775   1
   9  -2   1 0.40131 6.68170   5
  10   1  -1 23.0162 7.38774   5
  10   1  -1 24.2291 7.49501   1
 -10  -1   1 22.7356 7.52804   2
 -10  -1   1 32.7608 9.04274   5
   9   1  -1 464.887 20.0460   1
   9   1  -1 444.789 19.1305   5
  -9  -1   1 466.405 21.1285   5
  -9  -1   1 390.310 18.8180   2
  -9  -1   1 446.375 19.6082   1
   8   1  -1 911.605 27.6610   1
   8   1  -1 893.853 27.2600   5
   8   1  -1 881.906 25.2235   3
  -8  -1   1 915.058 27.4100   1
  -8  -1   1 918.060 27.4891   2
  -8  -1   1 874.890 28.5255   5
   7   1  -1 -2.2323 4.21267   1
   7   1  -1 2.93726 3.55170   3
   7   1  -1 4.40680 4.53726   5
  -7  -1   1 3.74344 4.87470   5
  -7  -1   1 0.25123 4.22973   2
  -7  -1   1 8.97962 4.46960   1
   6   1  -1 75.6485 6.99635   5
   6   1  -1 73.7038 7.01481   1
   6   1  -1 74.5832 6.44381   3
  -6  -1   1 71.8064 6.71101   2
  -6  -1   1 83.6007 6.80279   1
  -6  -1   1 77.5337 7.40621   5
   5   1  -1 846.534 22.1589   3
   5   1  -1 858.157 22.7271   5
   5   1  -1 876.377 22.7273   1
  -5  -1   1 869.745 23.4829   5
  -5  -1   1 867.147 22.6981   2
  -5  -1   1 874.517 22.4467   1
   4   1  -1 384.772 11.7419   5
   4   1  -1 390.496 11.7717   1
   4   1  -1 357.550 11.3987   3
  -4  -1   1 368.743 12.1950   5
  -4  -1   1 362.388 11.5350   2
  -4  -1   1 383.607 11.4006   1
   3   1  -1 430.090 11.7964   1
   3   1  -1 409.215 11.8588   3
   3   1  -1 427.862 12.4190   2
   3   1  -1 436.472 11.8846   5
  -3  -1   1 433.730 11.7896   2
  -3  -1   1 443.497 12.1712   5
  -3  -1   1 432.222 11.5794   1
   2   1  -1 1856.97 38.2570   1
   2   1  -1 1866.49 38.8602   3
   2   1  -1 1760.38 37.8717   2
   2   1  -1 1808.70 38.1953   5
  -2  -1   1 1819.16 38.0949   1
  -2  -1   1 1760.67 38.0882   2
  -2  -1   1 1883.80 38.6436   5
   1   1  -1 2347.02 46.9538   5
   1   1  -1 2282.77 47.4141   4
   1   1  -1 2408.06 47.0905   1
   1   1  -1 2280.83 47.2151   6
  -1  -1   1 2293.75 46.8869   1
  -1  -1   1 2278.81 47.1382   5
   0   1  -1 1067.50 22.5645   1
   0   1  -1 1115.17 22.5006   5
   0  -1   1 1067.74 22.5824   5
   0  -1   1 1115.33 22.4748   1
  -1   1  -1 1817.42 37.5814   2
  -1   1  -1 1809.41 37.8965   1
  -1   1  -1 1848.09 37.8961   5
   1  -1   1 1862.41 38.0304   5
   1  -1   1 1826.62 37.6791   1
  -2   1  -1 5299.97 106.823   5
  -2   1  -1 5242.46 106.378   2
  -2   1  -1 5259.01 106.680   1
   2  -1   1 5322.26 106.909   5
   2  -1   1 5222.42 106.461   1
  -3   1  -1 7.89341 2.64022   1
  -3   1  -1 4.38843 2.19208   2
  -3   1  -1 3.25032 2.47715   5
   3  -1   1 10.1388 2.39763   1
   3  -1   1 6.82175 2.48490   5
  -4   1  -1 211.624 9.29413   5
  -4   1  -1 210.921 8.52475   2
  -4   1  -1 212.417 8.93756   1
   4  -1   1 224.343 8.72430   1
   4  -1   1 235.442 9.56895   5
  -5   1  -1 561.601 17.1888   1
  -5   1  -1 551.412 17.3207   5
  -5   1  -1 553.516 16.6521   2
   5  -1   1 519.197 17.2506   5
   5  -1   1 543.599 16.4989   1
  -6   1  -1 -15.978 4.31433   1
  -6   1  -1 -0.6738 4.68475   5
  -6   1  -1 -1.1207 4.27010   2
   6  -1   1 -5.6544 4.82527   5
   6  -1   1 -1.8076 4.15467   1
  -7   1  -1 73.0541 8.08171   1
  -7   1  -1 50.6198 6.64983   2
  -7   1  -1 58.6761 7.87929   5
   7  -1   1 54.9785 6.91252   1
   7  -1   1 60.9967 8.28152   5
  -8   1  -1 754.974 24.6726   2
  -8   1  -1 785.604 26.2546   5
  -8   1  -1 798.128 25.9132   1
   8  -1   1 711.943 25.4416   5
   8  -1   1 811.983 25.1688   1
  -9   1  -1 21.7602 8.05887   5
  -9   1  -1 37.3565 7.64191   2
  -9   1  -1 27.2386 7.55817   1
   9  -1   1 23.7456 7.71414   5
   9  -1   1 35.6286 7.54345   1
   9   0  -1 73.2922 9.49818   5
   9   0  -1 93.3693 9.82196   1
  -9   0   1 86.9151 9.94509   2
  -9   0   1 101.625 10.1747   1
  -9   0   1 83.2735 10.4109   5
   8   0  -1 97.3201 9.49765   1
   8   0  -1 89.7844 9.34170   5
  -8   0   1 94.0691 9.85688   5
  -8   0   1 114.294 9.60244   2
  -8   0   1 89.0358 9.35513   1
   7   0  -1 31.8139 4.36439   3
   7   0  -1 16.7684 5.52116   1
   7   0  -1 28.2323 5.88334   5
  -7   0   1 24.2914 5.68324   1
  -7   0   1 27.8649 6.10112   2
  -7   0   1 24.6026 6.48696   5
   6   0  -1 315.137 12.6936   1
   6   0  -1 320.960 10.9658   3
   6   0  -1 322.266 13.6660   5
  -6   0   1 318.102 13.7086   5
  -6   0   1 339.685 13.3298   1
  -6   0   1 316.991 12.9171   2
   5   0  -1 267.191 11.1553   5
   5   0  -1 262.464 9.22100   3
   5   0  -1 276.009 10.7905   1
  -5   0   1 278.015 10.8102   1
  -5   0   1 255.095 11.2206   5
  -5   0   1 266.537 10.6367   2
   4   0  -1 34.7438 4.05389   1
   4   0  -1 44.3971 4.57147   5
   4   0  -1 45.8620 3.80203   3
  -4   0   1 41.1588 4.53337   5
  -4   0   1 44.4693 4.33636   2
  -4   0   1 42.5381 4.35959   1
   3   0  -1 20.8908 2.48786   3
   3   0  -1 15.1854 2.79360   5
   3   0  -1 19.7125 2.91259   1
  -3   0   1 16.5585 2.90450   5
  -3   0   1 16.3577 2.78703   2
  -3   0   1 14.1508 2.46950   1
   2   0  -1 2074.55 43.8616   1
   2   0  -1 2133.92 44.1182   5
  -2   0   1 2104.63 43.9197   2
  -2   0   1 2118.85 43.8960   1
  -2   0   1 2054.80 44.2546   5
   1   0  -1 22.9943 1.82929   5
   1   0  -1 27.8607 2.00320   1
  -1   0   1 24.7455 1.79969   1
  -1   0   1 21.7814 1.88641   2
  -1   0   1 24.3356 2.11677   5
   0   0  -1 1419.82 27.7183   1
   0   0  -1 1344.38 27.6180   2
   0   0  -1 1315.29 27.7125   5
   0   0   1 1332.67 27.6247   1
   0   0   1 1350.99 27.7819   5
   0   0   1 1334.75 27.6294   2
  -1   0  -1 1596.97 33.5492   1
  -1   0  -1 1696.32 33.7928   5
  -1   0  -1 1588.85 33.5203   2
   1   0   1 1656.36 33.6862   5
   1   0   1 1623.23 33.5312   1
  -2   0  -1 61.0000 3.96034   5
  -2   0  -1 53.4217 3.74976   2
  -2   0  -1 53.0748 3.80027   1
   2   0   1 55.6199 4.07121   5
   2   0   1 56.0591 3.76490   1
  -3   0  -1 86.6559 5.26421   5
  -3   0  -1 79.8234 4.73800   2
  -3   0  -1 99.7046 5.05174   1
   3   0   1 84.0086 4.19759   3
   3   0   1 90.1287 4.84670   1
   3   0   1 87.5169 5.01148   5
  -4   0  -1 92.8410 5.79436   2
  -4   0  -1 106.812 6.73667   5
  -4   0  -1 84.4531 5.72507   1
   4   0   1 93.8859 5.98223   5
   4   0   1 90.8982 4.80015   3
   4   0   1 99.0366 5.88545   1
  -5   0  -1 186.519 8.93253   1
  -5   0  -1 182.278 9.28723   5
  -5   0  -1 200.108 9.18689   2
   5   0   1 177.175 9.20142   5
   5   0   1 191.933 8.90472   1
  -6   0  -1 75.2115 7.89991   5
  -6   0  -1 84.1020 7.54283   2
  -6   0  -1 75.7616 7.06914   1
   6   0   1 84.1865 7.10117   1
   6   0   1 84.7551 7.56151   5
  -7   0  -1 132.248 10.6186   1
  -7   0  -1 142.594 10.7094   2
  -7   0  -1 150.210 12.0712   5
   7   0   1 162.962 10.5559   1
   7   0   1 160.797 11.1276   5
  -8   0  -1 382.577 17.8369   5
  -8   0  -1 390.581 17.0110   1
  -8   0  -1 362.269 16.1119   2
   8   0   1 385.520 16.6359   1
   8   0   1 415.716 17.3667   5
  -9   0  -1 29.0781 8.18041   5
  -9   0  -1 31.2221 6.95485   2
  -9   0  -1 40.7216 7.66747   1
   9   0   1 16.6225 6.78599   1
   9   0   1 36.3904 7.49417   5
   9   0   1 14.7732 6.09839   5
 -10   0  -1 10.4710 7.50903   2
 -10   0  -1 6.47806 7.95078   5
 -10   0  -1 4.34763 6.78365   1
  10   0   1 11.3180 6.77982   5
  10   0   1 0.51898 6.64141   5
  10   0   1 25.2816 7.10080   1
   9  -1  -1 492.299 21.7976   5
  -9   1   1 476.059 21.4574   5
  -9   1   1 480.978 20.1548   2
  -9   1   1 471.070 21.0971   1
   8  -1  -1 38.7258 7.65154   5
   8  -1  -1 30.3843 6.77526   1
  -8   1   1 31.4402 7.93151   5
  -8   1   1 26.6780 6.63217   2
  -8   1   1 34.7370 6.80289   1
   7  -1  -1 1442.57 37.0832   1
   7  -1  -1 1444.30 38.5617   5
  -7   1   1 1400.86 37.6983   1
  -7   1   1 1382.77 37.7914   5
  -7   1   1 1422.56 36.5553   2
   6  -1  -1 620.294 20.3282   5
   6  -1  -1 555.188 18.7541   1
  -6   1   1 621.820 20.1295   5
  -6   1   1 612.560 19.7910   1
  -6   1   1 613.989 19.1678   2
   5  -1  -1 -3.1585 3.73383   5
   5  -1  -1 7.68900 3.58700   1
  -5   1   1 1.74398 3.92551   5
  -5   1   1 2.05464 3.42050   1
  -5   1   1 2.85211 3.30680   2
   4  -1  -1 -2.4276 2.63166   1
   4  -1  -1 -1.4613 3.05564   5
  -4   1   1 -4.5286 2.86216   5
  -4   1   1 3.24545 2.62491   2
  -4   1   1 1.98293 2.55021   1
   3  -1  -1 92.8755 5.62521   5
   3  -1  -1 92.7111 5.01559   1
  -3   1   1 91.3996 5.20987   1
  -3   1   1 98.2396 5.09654   2
  -3   1   1 87.2218 5.31442   5
   2  -1  -1 830.381 19.3254   1
   2  -1  -1 841.538 19.7408   5
  -2   1   1 853.631 19.2155   2
  -2   1   1 860.271 19.5741   1
  -2   1   1 855.906 19.7319   5
   1  -1  -1 302.782 8.08117   5
   1  -1  -1 312.117 7.92825   1
  -1   1   1 306.775 8.02706   1
  -1   1   1 325.135 8.20728   5
  -1   1   1 320.561 7.78495   2
  -1   1   1 301.477 7.50750   4
  -1   1   1 330.613 7.73430   2
   0  -1  -1 15.4353 1.11355   5
   0   1   1 18.4570 1.35892   1
   0   1   1 17.3338 1.14978   1
   0   1   1 17.4510 1.47502   4
  -1  -1  -1 549.639 11.6775   5
  -1  -1  -1 539.180 11.7300   1
   1   1   1 526.896 11.5635   1
   1   1   1 537.828 11.4516   5
   1   1   1 548.549 12.5940   3
  -2  -1  -1 2388.41 49.7927   1
  -2  -1  -1 2451.89 49.8573   2
  -2  -1  -1 2427.38 50.1354   5
   2   1   1 2430.23 49.8372   5
   2   1   1 2419.70 49.5394   2
   2   1   1 2488.40 49.9791   1
   2   1   1 2426.03 50.5738   3
  -3  -1  -1 355.018 10.3966   5
  -3  -1  -1 348.136 9.97391   1
  -3  -1  -1 379.308 10.2532   2
   3   1   1 370.146 10.4984   3
   3   1   1 362.590 10.1351   5
   3   1   1 366.948 10.1192   5
   3   1   1 355.055 10.0876   1
   3   1   1 354.815 9.65990   2
  -4  -1  -1 821.621 20.8491   5
  -4  -1  -1 819.459 20.0166   1
  -4  -1  -1 823.667 20.2036   2
   4   1   1 799.693 20.1213   5
   4   1   1 813.687 20.1853   3
   4   1   1 793.780 20.0814   1
  -5  -1  -1 49.0184 5.09151   1
  -5  -1  -1 51.3100 5.26393   2
  -5  -1  -1 45.3248 5.53122   5
   5   1   1 48.7197 5.14847   5
   5   1   1 49.9473 5.04797   1
   5   1   1 51.3187 5.00644   3
  -6  -1  -1 333.401 12.3789   1
  -6  -1  -1 315.441 12.5334   2
  -6  -1  -1 340.767 13.6724   5
   6   1   1 297.405 11.7236   3
   6   1   1 320.667 12.6617   5
   6   1   1 303.455 12.5682   1
  -7  -1  -1 85.9832 8.44786   5
  -7  -1  -1 61.7047 7.00770   1
  -7  -1  -1 79.8895 7.70246   2
   7   1   1 73.1120 6.54367   3
   7   1   1 74.4963 7.44119   1
   7   1   1 67.4626 7.15825   5
  -8  -1  -1 17.4417 5.62601   1
  -8  -1  -1 18.2173 6.23943   2
  -8  -1  -1 6.98056 5.82176   5
   8   1   1 11.9712 5.83262   1
   8   1   1 14.2565 5.43066   5
   8   1   1 13.9429 5.62194   5
  -9  -1  -1 -5.9290 6.02163   2
  -9  -1  -1 -3.5978 6.68587   5
  -9  -1  -1 9.97668 5.76789   1
   9   1   1 0.71780 5.39561   1
   9   1   1 15.1592 5.74788   5
   9   1   1 0.92532 5.31670   5
 -10  -1  -1 291.131 17.9837   5
 -10  -1  -1 252.067 16.1352   2
  10   1   1 260.800 16.1614   1
  10   1   1 251.461 15.3397   5
   9  -2  -1 93.3825 11.4028   5
  -9   2   1 108.593 10.1042   2
  -9   2   1 107.903 12.1245   1
  -9   2   1 67.3964 10.3706   5
   8  -2  -1 62.7690 9.41227   5
  -8   2   1 60.8423 7.51551   2
  -8   2   1 76.1065 8.86714   1
  -8   2   1 63.1936 9.12554   5
   7  -2  -1 8.67429 5.34039   5
   7  -2  -1 6.10579 4.58630   1
  -7   2   1 7.52927 5.45430   5
  -7   2   1 3.17693 5.34348   1
  -7   2   1 7.85596 4.83110   2
   6  -2  -1 675.770 22.0783   5
   6  -2  -1 622.332 19.7691   1
  -6   2   1 638.172 19.6903   2
  -6   2   1 655.557 21.1969   5
  -6   2   1 649.851 21.4644   1
   5  -2  -1 144.408 8.42704   1
   5  -2  -1 140.513 9.55042   5
  -5   2   1 147.060 9.10573   5
  -5   2   1 135.410 8.16716   2
  -5   2   1 150.472 9.24443   1
   4  -2  -1 863.171 22.3266   1
   4  -2  -1 916.301 23.7501   5
  -4   2   1 867.692 22.9791   5
  -4   2   1 903.985 23.2625   1
  -4   2   1 910.728 22.0861   2
   3  -2  -1 1472.25 32.1931   1
   3  -2  -1 1427.78 33.0427   5
  -3   2   1 1400.78 32.5783   1
  -3   2   1 1410.27 31.5010   2
  -3   2   1 1459.21 32.5551   5
   2  -2  -1 1062.38 24.0975   1
   2  -2  -1 1064.74 24.7278   5
  -2   2   1 1083.94 23.3658   2
  -2   2   1 1102.08 24.6814   1
  -2   2   1 1110.18 24.4355   5
  -2   2   1 1118.09 23.6313   2
   1  -2  -1 14.2444 1.95858   5
  -1   2   1 15.9603 2.35845   4
  -1   2   1 17.2572 1.73600   5
  -1   2   1 15.8095 1.84620   1
   0   2   1 2429.58 50.7210   4
   0   2   1 2459.17 50.2635   3
   1   2   1 1249.28 27.2305   3
   1   2   1 1229.31 27.3651   4
  -2  -2  -1 2821.10 57.3033   5
   2   2   1 2905.32 57.8722   1
   2   2   1 2795.17 59.3641   3
   2   2   1 2803.97 57.2731   1
  -3  -2  -1 499.202 12.7537   5
  -3  -2  -1 500.048 12.0938   1
   3   2   1 488.592 11.9422   5
   3   2   1 502.808 11.2748   2
   3   2   1 493.521 13.9580   3
   3   2   1 502.817 12.5330   1
  -4  -2  -1 1145.29 26.6809   2
  -4  -2  -1 1174.58 26.3968   1
  -4  -2  -1 1143.18 27.2885   5
   4   2   1 1203.38 25.6634   2
   4   2   1 1162.12 28.0352   3
   4   2   1 1145.11 26.6999   1
   4   2   1 1163.93 26.3130   5
  -5  -2  -1 165.632 7.89741   2
  -5  -2  -1 160.610 8.35076   5
  -5  -2  -1 154.074 7.36641   1
   5   2   1 150.662 8.12969   3
   5   2   1 155.521 7.63375   1
   5   2   1 156.962 7.44186   5
   5   2   1 162.684 6.88478   2
  -6  -2  -1 4.53369 4.18467   2
  -6  -2  -1 4.43089 4.21709   5
  -6  -2  -1 3.78274 3.72211   1
   6   2   1 3.63319 3.59295   5
   6   2   1 7.13078 3.88944   5
   6   2   1 10.1489 3.87226   3
   6   2   1 4.45656 3.32002   2
   6   2   1 9.99600 4.01713   1
  -7  -2  -1 21.3885 6.23590   5
  -7  -2  -1 20.1212 5.48168   2
  -7  -2  -1 25.1088 4.98747   1
   7   2   1 25.5233 5.33182   3
   7   2   1 25.9639 5.58258   1
   7   2   1 19.4199 4.45067   2
   7   2   1 22.3684 5.21964   5
   7   2   1 25.1073 5.18927   5
  -8  -2  -1 2.52655 5.40756   2
  -8  -2  -1 -5.5634 4.53760   1
  -8  -2  -1 6.05223 6.28420   5
   8   2   1 -2.5930 4.82224   1
   8   2   1 4.26492 4.91987   3
   8   2   1 6.97061 5.07790   5
  -9  -2  -1 1.65644 5.89677   2
  -9  -2  -1 -9.7973 6.20778   5
   9   2   1 7.29408 5.38752   3
   9   2   1 -4.5923 5.50206   1
   9   2   1 2.41902 5.04095   5
 -10  -2  -1 113.207 12.7461   5
 -10  -2  -1 124.949 14.9593   2
  10   2   1 136.228 11.9768   1
  10   2   1 137.580 11.7640   5
   8  -3  -1 90.5485 11.4037   5
  -8   3   1 65.6690 9.64324   1
  -8   3   1 51.6510 7.10678   2
  -8   3   1 59.6747 8.83645   5
   7  -3  -1 237.166 14.6737   5
  -7   3   1 244.092 14.5356   1
  -7   3   1 246.175 11.6356   2
  -7   3   1 264.271 13.6478   5
   6  -3  -1 -9.2741 4.69142   5
  -6   3   1 -4.4820 4.56076   1
  -6   3   1 -0.9910 3.80555   2
  -6   3   1 -5.4821 4.41906   5
   5  -3  -1 1129.13 31.5988   5
   5  -3  -1 1143.93 29.4322   1
  -5   3   1 1196.30 28.2892   2
  -5   3   1 1182.44 31.0762   1
  -5   3   1 1224.27 30.3242   5
   4  -3  -1 412.212 14.6906   5
   4  -3  -1 400.939 13.1049   1
  -4   3   1 434.622 13.7302   5
  -4   3   1 430.289 12.3537   2
  -4   3   1 414.184 14.2482   1
   3  -3  -1 21.1177 3.09239   1
   3  -3  -1 17.2795 3.71106   5
  -3   3   1 18.7890 2.35336   2
  -3   3   1 17.5028 2.41606   2
  -3   3   1 22.6468 3.29415   5
  -3   3   1 15.8903 3.46524   1
  -3   3   1 21.2185 3.48195   4
   2  -3  -1 344.237 10.3184   1
   2  -3  -1 338.809 10.4169   5
  -2   3   1 360.164 9.33466   5
  -2   3   1 345.440 10.6432   4
  -2   3   1 335.688 10.2915   1
   1  -3  -1 259.359 7.15970   5
  -1   3   1 245.181 7.10397   1
  -1   3   1 255.488 8.46135   4
   0   3   1 3189.48 65.6452   3
   0   3   1 3183.73 66.6431   4
   1   3   1 12.6252 2.62422   3
   1   3   1 9.46422 2.94241   4
   2   3   1 1258.95 29.6285   4
   2   3   1 1305.68 29.7822   3
  -3  -3  -1 1007.05 22.1439   5
   3   3   1 1004.89 22.0662   1
   3   3   1 1001.22 24.8879   3
  -4  -3  -1 479.370 13.5993   5
   4   3   1 487.240 15.4749   3
   4   3   1 516.684 11.9998   5
   4   3   1 493.573 13.3442   1
  -5  -3  -1 109.037 5.73211   1
  -5  -3  -1 100.731 6.68966   5
  -5  -3  -1 110.378 6.37370   2
   5   3   1 120.738 4.68960   2
   5   3   1 113.956 7.89125   3
   5   3   1 114.355 6.80252   1
   5   3   1 110.878 5.73187   5
  -6  -3  -1 452.009 15.7248   5
  -6  -3  -1 458.583 15.1566   2
  -6  -3  -1 464.018 14.2524   1
   6   3   1 475.244 13.9980   5
   6   3   1 446.448 12.5462   2
   6   3   1 466.515 16.8841   3
   6   3   1 460.035 15.0657   1
  -7  -3  -1 110.374 8.21444   1
  -7  -3  -1 103.565 9.37816   5
  -7  -3  -1 99.0283 8.36309   2
   7   3   1 104.920 9.61816   3
   7   3   1 102.661 8.47919   1
   7   3   1 88.1590 6.64413   2
   7   3   1 103.922 8.13436   5
  -8  -3  -1 148.480 12.1122   5
   8   3   1 148.224 9.45706   5
   8   3   1 166.818 11.4110   3
   8   3   1 162.566 10.7651   1
  -9  -3  -1 212.962 14.4051   5
   9   3   1 204.386 11.6682   5
   9   3   1 230.659 13.6151   3
   9   3   1 208.661 13.3112   1
 -10  -3  -1 4.46953 7.26708   5
  10   3   1 1.80869 5.39456   5
  10   3   1 6.07632 6.36381   3
  10   3   1 9.50283 6.24102   1
   8  -4  -1 9.89059 6.98605   5
  -8   4   1 0.80285 7.19123   1
  -8   4   1 15.6414 6.23317   5
  -8   4   1 8.85149 4.00284   2
   7  -4  -1 225.867 15.4922   5
  -7   4   1 219.028 14.4932   1
  -7   4   1 221.877 12.1980   5
  -7   4   1 223.556 9.69673   2
   6  -4  -1 1.53419 5.22337   5
  -6   4   1 1.11827 4.67454   4
  -6   4   1 2.20849 3.02591   2
  -6   4   1 3.32449 4.29795   5
  -6   4   1 -2.7372 4.85628   1
  -6   4   1 4.22536 3.16553   2
   5  -4  -1 163.637 10.9590   5
  -5   4   1 173.925 10.5276   1
  -5   4   1 187.435 7.08428   2
  -5   4   1 168.652 9.86788   4
  -5   4   1 177.034 9.15341   5
   4  -4  -1 768.636 22.6520   5
  -4   4   1 798.180 20.0943   5
  -4   4   1 750.227 22.0950   1
  -4   4   1 750.914 21.5305   4
   3  -4  -1 216.688 9.92313   5
  -3   4   1 236.892 9.79993   1
  -3   4   1 232.031 9.80871   4
  -3   4   1 231.114 7.81803   5
   2  -4  -1 109.298 6.14077   5
  -2   4   1 115.314 6.78725   4
  -2   4   1 115.333 5.98403   1
   1  -4  -1 578.389 13.7423   5
  -1   4   1 541.838 15.7119   4
  -1   4   1 541.820 13.5908   1
  -1   4   1 583.035 13.7983   1
  -1   4   1 575.641 13.9586   3
   0   4   1 91.9992 5.95017   4
   0   4   1 98.6972 5.17144   3
   1   4   1 361.005 11.8417   4
   1   4   1 366.938 11.5409   3
   2   4   1 2665.53 58.5275   4
   2   4   1 2686.95 58.1667   3
   3   4   1 762.063 21.0030   3
   3   4   1 775.192 16.9565   1
  -4  -4  -1 1648.21 35.7430   5
   4   4   1 1623.78 39.3615   3
   4   4   1 1659.67 35.6481   1
  -5  -4  -1 501.603 14.7625   5
   5   4   1 493.736 17.2034   3
   5   4   1 506.491 14.4528   1
  -6  -4  -1 785.335 20.5408   1
  -6  -4  -1 847.571 22.2650   2
  -6  -4  -1 809.792 22.7485   5
   6   4   1 837.470 22.3045   1
   6   4   1 852.955 19.8644   5
   6   4   1 849.777 25.2974   3
  -7  -4  -1 46.2363 6.82181   5
   7   4   1 50.4664 6.03426   1
   7   4   1 55.0391 5.11350   5
   7   4   1 52.8494 7.60468   3
  -8  -4  -1 125.048 10.9536   5
   8   4   1 143.640 11.4989   3
   8   4   1 148.576 8.63957   5
   8   4   1 154.517 10.3580   1
  -9  -4  -1 68.6644 9.72309   5
   9   4   1 63.9198 5.29166   2
   9   4   1 64.0180 6.87574   5
   9   4   1 59.2872 8.17517   1
   9   4   1 66.8607 9.10258   3
 -10  -4  -1 21.1063 7.98053   5
  10   4   1 41.3845 8.49991   1
  10   4   1 20.2819 7.19340   3
  10   4   1 25.6053 6.43366   5
   7  -5  -1 -0.8087 6.20734   5
  -7   5   1 5.15771 6.24589   1
  -7   5   1 6.32694 4.94715   5
   6  -5  -1 94.3465 10.5364   5
  -6   5   1 92.8132 9.82725   1
  -6   5   1 81.9263 7.00196   5
  -6   5   1 110.754 10.0061   4
   5  -5  -1 428.713 17.6504   5
  -5   5   1 434.484 13.2572   5
  -5   5   1 433.433 16.6707   4
  -5   5   1 447.557 17.5050   1
   4  -5  -1 -7.9559 4.49157   5
  -4   5   1 -11.635 4.30181   1
  -4   5   1 0.91345 4.46970   4
   3  -5  -1 1172.72 29.4992   5
  -3   5   1 1121.55 29.8371   4
  -3   5   1 1180.97 29.0670   1
   2  -5  -1 518.290 15.0229   5
  -2   5   1 534.853 14.9304   1
  -2   5   1 522.458 16.5778   4
   1  -5  -1 150.541 6.00796   5
  -1   5   1 151.185 6.19243   1
  -1   5   1 173.905 8.89025   4
  -1   5   1 163.273 6.27588   1
  -1   5   1 154.904 6.62588   3
   0   5   1 34.6179 4.85856   4
   0   5   1 12.3791 3.77006   3
   1   5   1 166.286 8.69851   4
   1   5   1 159.093 7.81244   3
   2   5   1 724.686 20.2617   3
   2   5   1 709.712 20.5529   4
   3   5   1 457.996 15.4081   3
   3   5   1 435.087 15.3251   4
   4   5   1 1367.48 34.8674   3
   4   5   1 1347.39 29.6877   1
   4   5   1 1389.65 29.8431   1
  -5  -5  -1 386.933 12.1849   5
   5   5   1 407.316 16.1073   3
   5   5   1 389.210 12.1937   1
  -6  -5  -1 68.2868 6.31471   5
   6   5   1 72.9317 8.43607   3
   6   5   1 58.5989 5.95702   1
  -7  -5  -1 216.692 11.1796   5
   7   5   1 236.456 13.6899   3
   7   5   1 205.633 10.7571   1
  -8  -5  -1 611.382 21.5955   5
   8   5   1 608.055 23.2813   3
   8   5   1 627.617 20.4070   1
  -9  -5  -1 69.8916 9.49549   5
   9   5   1 71.9631 9.53596   3
   9   5   1 66.8420 6.07587   5
   9   5   1 66.8852 8.43965   1
 -10  -5  -1 103.462 11.9784   5
  10   5   1 100.940 10.5595   1
  10   5   1 110.869 8.48462   5
  10   5   1 126.087 12.6936   3
   6  -6  -1 6.27532 6.49492   5
  -6   6   1 8.73723 6.03978   1
   5  -6  -1 247.632 14.3667   5
  -5   6   1 241.551 13.2782   1
  -5   6   1 245.604 13.8807   4
   4  -6  -1 5.19737 4.76916   5
  -4   6   1 9.58190 5.48236   4
  -4   6   1 3.94793 4.57477   1
   3  -6  -1 411.616 15.5248   5
  -3   6   1 452.228 15.4219   1
  -3   6   1 467.188 16.7614   4
   2  -6  -1 402.610 14.0147   5
  -2   6   1 432.758 15.8057   4
  -2   6   1 425.822 13.9204   1
   1  -6  -1 36.4591 3.58340   5
  -1   6   1 31.5441 3.60899   1
  -1   6   1 30.2731 5.63448   4
  -1   6   1 35.7058 4.13328   3
  -1   6   1 36.2044 3.79649   1
   0   6   1 3.21312 4.08227   4
   0   6   1 2.93538 3.27856   3
   1   6   1 980.282 25.9226   3
   1   6   1 1004.07 27.5897   4
   2   6   1 151.949 8.95971   3
   2   6   1 157.760 10.0411   4
   3   6   1 45.3928 6.21329   3
   3   6   1 56.1478 6.84743   4
   4   6   1 946.282 27.4385   3
  -5  -6  -1 472.664 13.4934   5
   5   6   1 489.373 18.8064   3
   5   6   1 484.484 13.5437   1
   5   6   1 461.329 13.1509   1
  -6  -6  -1 3039.90 66.9507   5
   6   6   1 2980.34 64.5663   1
   6   6   1 2956.38 70.3984   3
  -7  -6  -1 1.31065 4.21411   5
   7   6   1 -0.6999 3.52742   1
   7   6   1 -6.5733 5.24680   3
   8   6   1 4.11621 4.48589   1
   8   6   1 6.26420 6.15354   3
   9   6   1 36.4670 6.67828   1
   9   6   1 49.6732 9.40969   3
  10   6   1 162.459 12.6173   1
  10   6   1 195.715 15.3444   3
  -5   7   1 33.7477 6.74327   4
  -5   7   1 25.1978 6.66317   1
  -4   7   1 39.1236 6.64625   1
  -4   7   1 57.6788 8.03642   4
  -3   7   1 1011.89 30.0893   4
  -3   7   1 1083.24 28.2071   1
  -2   7   1 105.122 9.30711   4
  -2   7   1 82.2767 7.18815   1
  -1   7   1 1508.06 38.9866   4
  -1   7   1 1476.07 33.9225   1
   0   7   1 377.519 15.9174   4
   0   7   1 365.448 13.4926   3
   1   7   1 274.737 13.3618   4
   1   7   1 260.377 11.8207   3
   2   7   1 106.857 10.0184   4
   2   7   1 92.9453 8.03229   3
   3   7   1 4.91273 4.77874   3
   3   7   1 3.62769 4.94617   4
   4   7   1 646.674 22.3912   3
   5   7   1 209.247 13.4359   3
   5   7   1 220.093 8.21003   1
   6   7   1 344.981 17.1811   3
   6   7   1 358.154 12.0853   1
   7   7   1 1083.63 28.0727   1
   7   7   1 1103.99 34.1845   3
   8   7   1 50.1742 6.60465   1
   8   7   1 39.9872 8.75272   3
   9   7   1 -2.8797 5.95099   3
   9   7   1 4.91820 4.80691   1
  10   7   1 304.942 19.0486   3
  10   7   1 279.189 15.2887   1
  -4   8   1 164.058 13.0418   4
  -4   8   1 148.203 11.8822   1
  -3   8   1 -9.2789 5.49533   4
  -3   8   1 5.75055 4.62303   1
  -2   8   1 117.428 8.53794   1
  -2   8   1 126.697 11.5487   4
  -1   8   1 174.149 12.5836   4
  -1   8   1 157.167 8.39408   1
   0   8   1 227.285 11.5383   3
   0   8   1 252.406 14.2517   4
   1   8   1 6.04845 5.37532   4
   1   8   1 0.00048 3.90145   3
   2   8   1 -0.3716 4.78758   3
   2   8   1 18.9934 5.73583   4
   3   8   1 814.056 26.8985   4
   3   8   1 815.724 25.8350   3
   4   8   1 1.52689 5.17932   4
   4   8   1 0.16228 4.79683   3
   5   8   1 73.3006 9.82753   3
   6   8   1 243.850 9.96061   1
   6   8   1 266.066 15.7072   3
   7   8   1 -6.2940 5.03091   3
   7   8   1 10.4061 4.07685   1
   8   8   1 905.336 25.6816   1
   8   8   1 915.858 31.8457   3
   9   8   1 82.9188 11.4550   3
   9   8   1 87.4778 8.56498   1
  -3   9   1 37.6715 6.54837   1
  -2   9   1 594.190 19.6079   1
  -2   9   1 654.390 24.3807   4
  -1   9   1 279.154 15.9532   4
  -1   9   1 271.877 11.0997   1
   0   9   1 1.55480 5.98806   4
   0   9   1 -13.200 4.75679   3
   1   9   1 1339.97 35.7460   3
   1   9   1 1307.58 38.1994   4
   2   9   1 39.3828 7.12281   3
   2   9   1 45.9116 7.91540   4
   3   9   1 64.5449 8.47160   3
   3   9   1 61.8431 8.98959   4
   4   9   1 65.9785 9.23720   3
   4   9   1 57.8987 9.03524   4
   5   9   1 6.13875 6.08330   3
   6   9   1 247.224 15.8052   3
   6   9   1 232.204 9.36996   1
   7   9   1 -0.6749 6.25637   3
   7   9   1 -3.8940 3.86076   1
   8   9   1 457.138 22.2748   3
   8   9   1 452.949 16.4416   1
  -1  10   1 104.107 11.6052   4
  -1  10   1 108.185 8.40685   1
   0  10   1 4.10036 6.37070   4
   1  10   1 109.359 11.6915   4
   1  10   1 97.1635 9.54573   3
   2  10   1 245.042 16.4594   4
   2  10   1 224.670 14.4192   3
   3  10   1 143.466 12.8079   3
   3  10   1 146.631 13.6782   4
   4  10   1 135.355 13.2510   4
   4  10   1 129.871 12.4155   3
   5  10   1 245.908 16.3825   3
   6  10   1 20.0805 8.35093   3
   7  10   1 27.1288 4.77783   1
   7  10   1 0.15874 7.74705   3
   2  11   1 54.2075 9.38980   3
   2  11   1 44.3934 9.90566   4
   3  11   1 459.260 23.7049   4
   3  11   1 472.711 21.9189   3
   4  11   1 140.489 13.1259   3
   4  11   1 99.9585 12.7208   4
   5  11   1 256.578 18.1036   3
   6  10  -2 307.384 18.4846   3
   6  10  -2 256.937 18.8023   4
   6  10  -2 286.435 11.9899   1
   5  10  -2 67.1553 10.9709   4
   5  10  -2 88.0329 6.86534   1
   5  10  -2 84.5641 10.7567   3
   4  10  -2 26.2828 9.08245   4
   4  10  -2 22.1588 7.21672   3
   3  10  -2 205.890 14.7064   3
   3  10  -2 220.787 16.8147   4
   2  10  -2 69.0618 9.28699   3
   2  10  -2 58.7002 10.3032   4
   1  10  -2 59.7324 5.77003   1
   1  10  -2 65.6166 10.7114   4
   1  10  -2 68.9884 9.09392   3
   0  10  -2 231.515 10.7750   1
   0  10  -2 220.334 16.7209   4
  -1  10  -2 9.32026 7.48377   4
   8   9  -2 66.8840 8.00453   1
   8   9  -2 57.6796 9.89334   3
   7   9  -2 157.244 9.89176   1
   7   9  -2 148.466 13.1671   3
   6   9  -2 5.24849 6.24156   3
   6   9  -2 5.68494 3.61785   1
   6   9  -2 0.89746 6.64272   4
   5   9  -2 230.107 16.6123   4
   5   9  -2 244.103 9.85979   1
   5   9  -2 229.886 15.1790   3
   4   9  -2 1573.38 44.8828   4
   4   9  -2 1568.45 35.4623   1
   4   9  -2 1542.62 43.3304   3
   3   9  -2 68.3808 9.09917   3
   3   9  -2 72.0220 10.3474   4
   2   9  -2 1149.74 36.3661   4
   2   9  -2 1151.61 33.7005   3
   1   9  -2 261.197 10.1312   1
   1   9  -2 252.457 13.8519   3
   1   9  -2 259.203 16.2498   4
   0   9  -2 29.3691 7.99012   4
   0   9  -2 24.9829 4.65821   1
   0   9  -2 19.0205 5.72961   3
  -1   9  -2 15.6954 6.97172   4
  -1   9  -2 15.6947 4.75156   1
  -2   9  -2 7.21446 6.50981   4
  -2   9  -2 5.51781 4.83415   1
  -3   9  -2 115.821 12.7383   4
  -3   9  -2 89.4942 8.84592   1
   8   8  -2 -2.9580 6.04850   3
   8   8  -2 -3.7666 4.71534   1
   7   8  -2 97.7536 10.7101   3
   7   8  -2 93.3016 7.96019   1
   6   8  -2 84.1464 10.4243   4
   6   8  -2 59.7654 9.01301   3
   6   8  -2 63.7730 6.11619   1
   5   8  -2 190.726 12.8660   3
   5   8  -2 207.652 14.1098   4
   5   8  -2 200.047 9.17649   1
   4   8  -2 51.1810 7.82120   3
   4   8  -2 66.5507 9.36636   4
   4   8  -2 57.9658 4.91307   1
   3   8  -2 539.630 20.4435   3
   3   8  -2 545.313 14.8239   1
   3   8  -2 574.258 22.0660   4
   2   8  -2 85.6460 8.75575   3
   2   8  -2 82.3981 10.1241   4
   2   8  -2 63.6493 5.42749   1
   1   8  -2 423.915 16.5261   3
   1   8  -2 405.447 12.4613   1
   1   8  -2 422.921 18.9843   4
   0   8  -2 270.431 15.6101   4
   0   8  -2 258.039 10.2279   1
   0   8  -2 271.510 12.7574   3
  -1   8  -2 7.37633 5.92641   4
  -1   8  -2 4.26575 4.17608   3
  -1   8  -2 2.46013 3.65979   1
  -2   8  -2 147.446 9.66792   1
  -2   8  -2 145.882 13.0562   4
  -3   8  -2 1.94485 6.70198   4
  -3   8  -2 -3.9462 4.53768   1
  -4   8  -2 287.140 14.9253   1
  -4   8  -2 295.462 18.3058   4
   9   7  -2 46.8441 7.50185   1
   9   7  -2 36.4081 8.58469   3
   8   7  -2 179.986 11.3271   1
   8   7  -2 192.222 14.2587   3
   7   7  -2 15.5863 5.18893   1
   7   7  -2 17.7299 6.84905   3
   6   7  -2 260.287 11.3321   1
   6   7  -2 310.148 15.7515   3
   5   7  -2 314.055 15.3934   3
   5   7  -2 329.624 16.2851   4
   5   7  -2 311.946 11.2864   1
   4   7  -2 251.118 14.6902   4
   4   7  -2 236.859 13.3401   3
   4   7  -2 238.147 9.15691   1
   3   7  -2 1542.51 40.3427   3
   3   7  -2 1565.04 41.4524   4
   3   7  -2 1526.69 34.2382   1
   3   7  -2 1604.27 34.4690   1
   2   7  -2 559.281 20.6037   4
   2   7  -2 550.305 14.3077   1
   2   7  -2 543.199 18.9230   3
   2   7  -2 532.433 13.9430   1
   1   7  -2 421.664 17.5875   4
   1   7  -2 433.207 12.1137   1
   1   7  -2 394.202 11.6969   1
   1   7  -2 446.268 16.2993   3
   0   7  -2 1808.52 42.7750   3
   0   7  -2 1787.84 39.5832   1
   0   7  -2 1759.30 45.8104   4
  -1   7  -2 137.089 11.8297   6
  -1   7  -2 138.225 8.50878   3
  -1   7  -2 154.515 12.2107   4
  -1   7  -2 138.198 8.13895   1
  -2   7  -2 14.9837 6.75753   6
  -2   7  -2 10.7028 4.22127   1
  -2   7  -2 5.31646 6.32255   4
  -2   7  -2 13.6491 3.71572   3
  -3   7  -2 2.84197 6.40035   4
  -3   7  -2 12.1573 4.96108   1
  -3   7  -2 11.5324 6.18510   6
  -4   7  -2 33.7333 8.09714   4
  -4   7  -2 23.8145 5.84453   1
  -4   7  -2 30.2754 7.80868   6
  -5   7  -2 119.611 12.6153   4
  -5   7  -2 122.235 10.8516   1
   9   6  -2 65.7508 9.84213   3
   9   6  -2 63.0427 8.01456   1
  -9  -6   2 57.6086 8.83863   5
   8   6  -2 12.6270 4.98006   1
   8   6  -2 12.8527 6.39446   3
  -8  -6   2 -1.4600 4.87283   5
   7   6  -2 287.064 12.3695   1
   7   6  -2 268.766 15.2225   3
  -7  -6   2 270.642 13.0739   5
   6   6  -2 1.13699 4.63869   3
   6   6  -2 9.94091 3.65579   1
  -6  -6   2 4.58791 3.52390   5
   5   6  -2 197.709 9.29768   1
   5   6  -2 217.147 13.1236   4
   5   6  -2 194.857 12.4804   3
  -5  -6   2 205.666 9.26046   5
   4   6  -2 67.3941 5.66468   1
   4   6  -2 63.3711 7.52585   3
   4   6  -2 90.5265 8.93419   4
  -4  -6   2 57.9754 4.95808   5
   3   6  -2 11.6597 2.86424   1
   3   6  -2 3.84836 4.57520   3
   3   6  -2 6.31569 2.27329   1
   3   6  -2 6.43456 5.12499   4
   2   6  -2 888.592 20.3001   1
   2   6  -2 870.939 24.8170   3
   2   6  -2 896.509 26.2064   4
   2   6  -2 886.005 20.3271   1
   2   6  -2 860.130 20.0993   1
   1   6  -2 35.2021 6.49161   4
   1   6  -2 20.7908 3.02525   1
   1   6  -2 28.9570 5.08025   3
   1   6  -2 23.5047 3.16088   1
   0   6  -2 12.2710 3.07205   1
   0   6  -2 11.3440 2.80979   1
   0   6  -2 16.7587 5.13757   4
   0   6  -2 15.6719 4.26781   3
   0   6  -2 13.5771 5.72691   6
   0  -6   2 12.8938 2.77314   5
  -1   6  -2 610.178 16.7738   1
  -1   6  -2 603.411 21.2155   4
  -1   6  -2 628.158 17.7860   3
  -1   6  -2 590.081 21.1714   6
   1  -6   2 604.555 16.8088   5
  -2   6  -2 1127.50 32.0459   4
  -2   6  -2 1093.93 26.3873   3
  -2   6  -2 1084.50 27.5860   1
  -2   6  -2 1086.32 31.6373   6
   2  -6   2 1089.38 27.9182   5
  -3   6  -2 21.3541 5.14901   1
  -3   6  -2 34.0932 7.49218   6
  -3   6  -2 27.3091 6.88606   4
   3  -6   2 20.1316 5.08808   5
  -4   6  -2 -3.6477 4.42875   1
  -4   6  -2 1.73396 5.98364   4
  -4   6  -2 13.7066 6.45853   6
   4  -6   2 2.44507 4.60720   5
  -5   6  -2 9.19977 6.69359   4
  -5   6  -2 1.80954 4.84898   1
  -5   6  -2 11.1524 6.52612   6
   5  -6   2 6.47018 5.61191   5
  -6   6  -2 118.850 12.3208   4
  -6   6  -2 124.144 12.0216   6
  -6   6  -2 103.333 10.8314   1
   6  -6   2 138.616 12.4309   5
  10   5  -2 23.8504 7.59501   3
  10   5  -2 30.4575 7.80662   1
  10   5  -2 31.8647 5.74914   5
 -10  -5   2 37.8590 9.16053   5
   9   5  -2 10.1320 4.30641   5
   9   5  -2 12.3231 5.80574   1
   9   5  -2 15.6685 6.90852   3
  -9  -5   2 3.91451 6.08459   5
   8   5  -2 -8.2678 4.09183   1
   8   5  -2 -7.9412 5.21234   3
   8   5  -2 3.81087 3.41620   5
  -8  -5   2 1.09143 4.74206   5
   7   5  -2 22.7044 5.06419   1
   7   5  -2 19.6969 5.88217   3
   7   5  -2 28.4139 3.53756   5
  -7  -5   2 36.7383 6.12270   5
   6   5  -2 213.265 12.5307   3
   6   5  -2 189.620 9.80642   1
  -6  -5   2 203.731 10.4756   5
   5   5  -2 104.780 9.17109   3
   5   5  -2 102.615 8.82897   4
   5   5  -2 115.979 7.26284   1
  -5  -5   2 87.7185 6.76054   5
   4   5  -2 554.961 18.4813   4
   4   5  -2 568.489 18.6687   3
   4   5  -2 564.295 15.2069   1
  -4  -5   2 544.039 15.3822   5
   3   5  -2 109.730 5.52421   1
   3   5  -2 117.800 8.51514   3
   3   5  -2 121.100 5.87114   1
   3   5  -2 115.572 8.45874   4
  -3  -5   2 115.642 5.30614   5
   2   5  -2 75.9468 6.83986   3
   2   5  -2 85.3502 4.55893   1
   2   5  -2 92.4534 4.28981   1
   2   5  -2 83.9410 7.47197   4
   1   5  -2 768.360 17.9050   1
   1   5  -2 784.242 21.0152   3
   1   5  -2 769.660 17.7421   1
   1   5  -2 787.181 22.4281   4
   1   5  -2 742.777 22.1120   6
   0   5  -2 659.629 18.1422   3
   0   5  -2 637.627 15.6881   1
   0   5  -2 648.662 20.1193   4
   0   5  -2 670.456 16.1072   1
   0   5  -2 627.107 20.0037   6
   0  -5   2 658.294 15.9801   5
  -1   5  -2 340.546 11.3908   3
  -1   5  -2 351.259 11.0967   1
  -1   5  -2 363.508 14.5706   6
  -1   5  -2 357.571 14.4038   4
   1  -5   2 339.160 10.9319   5
  -2   5  -2 1075.31 25.2373   3
  -2   5  -2 1089.76 29.9061   6
  -2   5  -2 1076.25 29.9632   4
  -2   5  -2 1077.42 26.4945   1
   2  -5   2 1078.75 26.8029   5
  -3   5  -2 348.046 13.4536   1
  -3   5  -2 341.654 15.3308   6
  -3   5  -2 360.157 15.8105   4
   3  -5   2 366.030 13.7633   5
  -4   5  -2 65.1588 7.00703   1
  -4   5  -2 76.3723 5.53212   5
   4  -5   2 70.9560 7.74568   5
  -5   5  -2 103.480 7.45823   5
  -5   5  -2 100.530 9.01602   1
  -5   5  -2 101.274 10.1216   6
   5  -5   2 96.6283 9.44852   5
  -6   5  -2 314.502 12.7201   5
  -6   5  -2 345.321 16.5968   1
  -6   5  -2 320.866 16.8634   6
   6  -5   2 332.986 16.9660   5
  -7   5  -2 53.6557 9.17590   1
  -7   5  -2 61.7679 9.03771   6
  -7   5  -2 53.1154 7.00088   5
   7  -5   2 52.7073 9.15045   5
  10   4  -2 29.8804 6.60814   5
  10   4  -2 34.5443 7.72386   1
  10   4  -2 34.9663 8.16774   3
  10   4  -2 34.4091 6.51869   5
 -10  -4   2 54.2768 9.88686   5
   9   4  -2 66.0655 7.08096   5
   9   4  -2 49.1908 8.18440   3
   9   4  -2 53.9873 8.03563   1
   9   4  -2 45.5259 6.50118   5
  -9  -4   2 68.8734 9.84952   5
   8   4  -2 833.778 23.1331   5
   8   4  -2 823.040 26.7160   3
   8   4  -2 789.292 25.2998   1
  -8  -4   2 813.007 26.7862   5
   7   4  -2 4.03176 4.77934   3
   7   4  -2 1.46901 4.31291   1
   7   4  -2 -3.5666 3.38787   5
  -7  -4   2 -9.1426 3.83753   5
   6   4  -2 1.45637 3.39278   1
   6   4  -2 9.59739 5.28148   3
   6   4  -2 5.03881 3.24383   5
  -6  -4   2 7.62355 3.53281   2
  -6  -4   2 -4.8735 3.44111   5
  -6  -4   2 3.65406 3.07233   1
   5   4  -2 81.9771 7.64338   3
   5   4  -2 91.7538 5.24193   5
   5   4  -2 94.7552 6.52470   1
  -5  -4   2 70.0893 6.27653   5
  -5  -4   2 99.4576 5.46263   1
  -5  -4   2 81.8759 6.08069   2
   4   4  -2 22.8013 4.68110   3
   4   4  -2 29.1584 4.96027   4
   4   4  -2 25.0920 3.54767   1
  -4  -4   2 20.8490 3.34355   5
   3   4  -2 110.636 7.30856   3
   3   4  -2 119.970 7.21947   4
   3   4  -2 112.730 5.66019   1
  -3  -4   2 105.079 5.17765   5
   2   4  -2 445.987 11.4634   1
   2   4  -2 450.485 14.2184   3
   2   4  -2 437.346 14.4512   4
   2   4  -2 412.665 11.7393   1
   2   4  -2 442.867 14.1177   6
  -2  -4   2 443.406 11.2223   5
   1   4  -2 44.4299 5.34463   6
   1   4  -2 41.9662 3.35707   1
   1   4  -2 43.5695 3.15252   1
   1   4  -2 49.3532 5.31504   4
   1   4  -2 43.7667 4.64095   3
  -1  -4   2 35.1857 2.83784   5
   0   4  -2 853.859 23.0349   6
   0   4  -2 849.345 21.3876   3
   0   4  -2 864.386 19.6413   1
   0   4  -2 843.310 22.9313   4
   0  -4   2 860.402 19.5241   5
   0  -4   2 841.429 19.4958   5
  -1   4  -2 13.7716 4.26969   4
  -1   4  -2 7.67109 2.61266   3
  -1   4  -2 7.66600 2.63607   1
  -1   4  -2 5.93701 3.76941   6
   1  -4   2 7.93803 2.30947   5
  -2   4  -2 92.4725 4.27903   5
  -2   4  -2 88.8183 4.01640   5
  -2   4  -2 92.9790 5.10993   3
  -2   4  -2 102.690 8.05830   6
  -2   4  -2 99.5678 6.32334   1
   2  -4   2 93.7248 5.95503   5
  -3   4  -2 170.341 10.3059   6
  -3   4  -2 161.096 8.52304   1
  -3   4  -2 172.010 7.28715   5
   3  -4   2 153.946 8.63616   5
   3  -4   2 155.124 6.78734   1
  -4   4  -2 343.114 13.6720   1
  -4   4  -2 332.086 14.9517   6
  -4   4  -2 333.438 9.79243   2
  -4   4  -2 346.679 12.0485   5
   4  -4   2 344.021 13.9284   5
  -5   4  -2 42.5794 4.34680   2
  -5   4  -2 82.9099 8.56072   6
  -5   4  -2 52.2758 5.98262   5
  -5   4  -2 54.4097 7.05340   1
   5  -4   2 81.4626 8.14019   5
  -6   4  -2 10.0891 4.86904   5
  -6   4  -2 12.0078 3.68599   2
  -6   4  -2 6.67142 5.69846   1
  -6   4  -2 25.8931 6.68998   6
   6  -4   2 11.2293 6.02722   5
  -7   4  -2 233.056 13.6994   6
  -7   4  -2 208.933 12.2154   5
  -7   4  -2 241.579 14.5636   1
   7  -4   2 192.271 14.0678   5
  -8   4  -2 94.3446 7.99428   2
  -8   4  -2 113.391 10.1087   5
  -8   4  -2 122.989 12.2732   1
   8  -4   2 124.485 12.5533   5
   8  -4   2 98.3284 11.8567   5
  10   3  -2 45.8522 8.72162   1
  10   3  -2 33.1973 7.41929   5
  10   3  -2 48.6770 9.15686   3
 -10  -3   2 50.9400 10.3736   5
   9   3  -2 1.90094 4.62145   5
   9   3  -2 -2.5767 5.34588   3
   9   3  -2 -4.2826 5.37830   1
  -9  -3   2 5.25837 5.87870   5
   8   3  -2 101.631 8.68651   5
   8   3  -2 98.1301 9.21517   3
   8   3  -2 95.1143 9.02041   1
  -8  -3   2 99.6659 9.95622   5
   7   3  -2 128.210 9.83315   1
   7   3  -2 149.613 9.23944   5
   7   3  -2 155.364 10.9454   3
  -7  -3   2 161.224 10.3123   2
  -7  -3   2 136.332 10.6975   5
  -7  -3   2 129.134 8.83828   1
   6   3  -2 147.126 8.18849   5
   6   3  -2 134.947 8.62627   1
   6   3  -2 126.130 9.85417   3
  -6  -3   2 132.756 9.13016   5
  -6  -3   2 142.036 8.89443   2
  -6  -3   2 133.617 7.65593   1
   5   3  -2 509.146 15.4581   1
   5   3  -2 525.826 14.7000   5
   5   3  -2 507.675 16.8735   3
  -5  -3   2 493.050 15.2540   2
  -5  -3   2 500.656 15.9452   5
  -5  -3   2 499.532 14.4532   1
   4   3  -2 14.7939 3.03630   1
   4   3  -2 16.0321 2.75359   5
   4   3  -2 14.8897 3.92827   3
  -4  -3   2 23.0181 3.42257   5
  -4  -3   2 12.4469 2.74673   2
  -4  -3   2 14.4384 2.60856   1
   3   3  -2 1610.00 34.0566   5
   3   3  -2 1636.68 37.5397   3
   3   3  -2 1653.53 35.2209   1
   3   3  -2 1614.17 36.8355   4
  -3  -3   2 1558.78 34.2741   1
  -3  -3   2 1581.25 35.5430   5
   2   3  -2 323.827 10.5855   6
   2   3  -2 335.662 9.12797   1
   2   3  -2 336.090 11.1915   3
   2   3  -2 315.405 10.8212   4
  -2  -3   2 316.209 9.02318   5
   1   3  -2 512.370 14.5105   6
   1   3  -2 508.249 12.1931   1
   1   3  -2 509.657 12.2147   1
   1   3  -2 494.156 14.3857   4
  -1  -3   2 502.487 12.1217   5
   0   3  -2 335.453 9.06914   1
   0   3  -2 337.470 11.2120   6
   0   3  -2 325.524 11.0367   4
   0  -3   2 329.148 8.89307   5
  -1   3  -2 375.908 10.5622   1
  -1   3  -2 375.396 9.48341   5
  -1   3  -2 393.521 12.7891   6
   1  -3   2 371.661 10.6005   5
  -2   3  -2 709.613 19.7044   6
  -2   3  -2 695.145 17.8288   1
  -2   3  -2 713.761 16.9893   5
  -2   3  -2 685.897 15.7058   2
   2  -3   2 688.601 17.9901   5
   2  -3   2 698.947 16.8735   1
  -3   3  -2 0.90959 3.80388   6
  -3   3  -2 -3.1286 2.08786   2
  -3   3  -2 -0.7720 2.70183   5
  -3   3  -2 -4.4613 2.53324   1
   3  -3   2 -1.4956 2.23084   1
   3  -3   2 4.12312 2.94416   5
  -4   3  -2 1269.28 30.7639   5
  -4   3  -2 1232.76 32.2070   6
  -4   3  -2 1280.85 29.3694   2
  -4   3  -2 1338.20 32.0196   1
   4  -3   2 1248.23 30.3005   1
   4  -3   2 1282.33 32.1976   5
  -5   3  -2 4.60955 4.45620   1
  -5   3  -2 2.86836 4.27742   5
  -5   3  -2 0.60855 4.99012   6
  -5   3  -2 -4.5314 3.38497   2
   5  -3   2 4.43018 3.71412   1
   5  -3   2 -3.8172 4.60356   5
  -6   3  -2 2.72068 3.77575   2
  -6   3  -2 4.91773 4.98630   1
  -6   3  -2 5.36046 5.22703   6
  -6   3  -2 -5.1838 4.47182   5
   6  -3   2 -0.3086 3.78077   1
   6  -3   2 -2.1384 4.77430   5
  -7   3  -2 11.8700 6.55630   1
  -7   3  -2 9.71187 5.77175   5
  -7   3  -2 16.9728 6.46043   6
  -7   3  -2 5.87755 4.42948   2
   7  -3   2 2.17589 5.78915   5
  -8   3  -2 322.270 17.4721   1
  -8   3  -2 308.877 15.9753   5
  -8   3  -2 305.780 13.8253   2
   8  -3   2 322.752 17.5747   5
   8  -3   2 278.343 16.9589   5
  10   2  -2 68.4111 9.62468   1
  10   2  -2 46.5073 8.06586   5
 -10  -2   2 40.1902 9.29977   2
 -10  -2   2 86.3926 11.6256   5
   9   2  -2 130.053 10.7962   5
   9   2  -2 121.822 10.1712   3
   9   2  -2 76.2329 9.59177   1
  -9  -2   2 132.013 11.2669   2
  -9  -2   2 111.642 11.8968   5
   8   2  -2 12.4074 5.84760   1
   8   2  -2 17.5624 5.44825   3
   8   2  -2 18.4179 5.31688   5
  -8  -2   2 9.56709 5.77103   2
  -8  -2   2 12.1412 5.16912   1
  -8  -2   2 13.7551 5.80912   5
   7   2  -2 5.64760 4.47631   5
   7   2  -2 8.43030 4.47043   3
   7   2  -2 -5.3885 4.13068   1
  -7  -2   2 4.74520 4.53473   5
  -7  -2   2 -7.0931 3.52850   1
  -7  -2   2 -4.0390 4.55700   2
   6   2  -2 758.493 20.3293   2
   6   2  -2 732.795 21.5601   1
   6   2  -2 744.576 21.9155   3
   6   2  -2 768.650 21.4588   5
  -6  -2   2 709.621 21.3832   2
  -6  -2   2 747.873 22.6431   5
  -6  -2   2 713.665 20.6654   1
   5   2  -2 176.297 7.88934   2
   5   2  -2 192.749 8.78763   5
   5   2  -2 182.178 9.55546   3
   5   2  -2 200.826 9.08521   1
  -5  -2   2 191.939 8.85616   2
  -5  -2   2 173.740 8.12999   1
  -5  -2   2 183.861 9.37124   5
   4   2  -2 805.987 21.4165   3
   4   2  -2 776.086 19.4838   2
   4   2  -2 805.382 20.5113   1
   4   2  -2 807.049 20.1903   5
  -4  -2   2 834.731 21.2472   5
  -4  -2   2 826.098 20.6189   2
  -4  -2   2 785.746 19.9060   1
   3   2  -2 857.568 21.3308   3
   3   2  -2 832.765 19.6579   5
   3   2  -2 816.108 19.9122   1
   3   2  -2 839.172 20.2884   4
  -3  -2   2 840.322 20.4277   5
  -3  -2   2 831.614 19.5738   1
  -3  -2   2 803.289 19.7068   2
   2   2  -2 2748.46 55.9245   5
   2   2  -2 2682.81 57.0283   4
   2   2  -2 2762.78 56.3362   1
   2   2  -2 2668.74 56.5898   6
  -2  -2   2 2754.13 55.9389   1
  -2  -2   2 2679.76 56.5570   5
   1   2  -2 184.547 6.02611   1
   1   2  -2 200.169 5.68589   5
   1   2  -2 208.449 7.34160   6
   1   2  -2 198.400 7.23664   4
  -1  -2   2 189.757 6.07839   5
  -1  -2   2 180.997 5.55969   1
   0   2  -2 1254.67 26.6430   1
   0   2  -2 1253.26 26.1889   5
   0  -2   2 1233.44 26.6438   5
   0  -2   2 1220.04 26.1665   1
  -1   2  -2 2089.06 42.5717   5
  -1   2  -2 2051.96 41.9007   2
  -1   2  -2 1986.30 42.8053   1
   1  -2   2 1998.58 42.9893   5
   1  -2   2 2055.16 42.4054   1
  -2   2  -2 54.7859 4.19812   1
  -2   2  -2 48.6850 3.48149   2
  -2   2  -2 55.8252 4.20536   5
   2  -2   2 58.6880 4.40062   5
   2  -2   2 56.0250 3.83389   1
  -3   2  -2 227.483 8.11682   2
  -3   2  -2 233.414 8.99392   5
  -3   2  -2 227.296 9.03541   1
   3  -2   2 236.821 8.30510   1
   3  -2   2 247.677 9.37538   5
  -4   2  -2 259.755 10.9033   5
  -4   2  -2 270.322 11.0609   1
  -4   2  -2 283.994 10.0159   2
   4  -2   2 280.292 10.0941   1
   4  -2   2 283.707 11.3169   5
  -5   2  -2 222.177 11.5030   1
  -5   2  -2 236.206 11.4762   5
  -5   2  -2 210.608 10.1113   2
   5  -2   2 237.925 10.5517   1
   5  -2   2 221.975 11.5980   5
  -6   2  -2 163.132 9.72925   2
  -6   2  -2 156.395 10.4195   5
  -6   2  -2 174.951 11.2982   1
   6  -2   2 166.918 9.81395   1
   6  -2   2 155.354 11.0169   5
  -7   2  -2 6.75711 5.39023   1
  -7   2  -2 3.16741 5.66531   5
  -7   2  -2 15.3639 5.09256   2
  -7   2  -2 12.6520 5.83212   6
   7  -2   2 9.77034 5.00297   1
   7  -2   2 8.29393 5.73085   5
  -8   2  -2 0.77914 5.66116   5
  -8   2  -2 2.99055 6.12238   1
  -8   2  -2 17.5135 6.03563   2
   8  -2   2 -6.5889 5.37973   5
   8  -2   2 6.64318 5.71342   5
  -9   2  -2 191.113 14.0231   5
  -9   2  -2 180.870 12.6038   2
  -9   2  -2 196.153 15.0504   1
   9  -2   2 168.269 13.9179   5
   9  -2   2 196.059 14.4639   5
   9   1  -2 29.1770 7.61361   1
   9   1  -2 26.9683 7.23625   5
  -9  -1   2 15.9645 7.83373   5
  -9  -1   2 23.9204 6.96728   2
  -9  -1   2 30.6778 7.45375   1
   8   1  -2 -4.8937 4.98387   1
   8   1  -2 6.29372 5.71262   5
   8   1  -2 3.39444 4.75521   3
  -8  -1   2 4.96692 5.43634   1
  -8  -1   2 6.47143 6.00040   2
  -8  -1   2 5.03969 5.78189   5
   7   1  -2 2.12292 4.45195   5
   7   1  -2 4.07006 3.96352   3
   7   1  -2 -4.8854 4.27368   1
  -7  -1   2 -0.4051 4.04744   1
  -7  -1   2 5.50361 5.24262   5
  -7  -1   2 4.57790 4.66332   2
   6   1  -2 692.628 20.4555   5
   6   1  -2 654.064 19.3322   3
   6   1  -2 674.568 20.2771   1
  -6  -1   2 638.284 19.6088   1
  -6  -1   2 661.707 21.0627   5
  -6  -1   2 650.620 20.1755   2
   5   1  -2 105.393 7.10595   3
   5   1  -2 105.348 7.27897   1
   5   1  -2 98.0798 7.28436   5
  -5  -1   2 104.830 6.82725   1
  -5  -1   2 105.685 7.99446   5
  -5  -1   2 90.5082 6.89849   2
   4   1  -2 14.7884 3.15257   3
   4   1  -2 15.2949 3.31026   5
   4   1  -2 10.6179 2.97320   1
  -4  -1   2 4.40202 2.33393   1
  -4  -1   2 11.5894 3.00610   2
  -4  -1   2 6.38485 2.90418   5
   3   1  -2 66.6788 4.51811   1
   3   1  -2 56.3033 4.50482   5
   3   1  -2 66.5525 4.68685   3
  -3  -1   2 63.2521 4.76442   5
  -3  -1   2 72.9258 4.77545   2
  -3  -1   2 67.6368 4.31018   1
   2   1  -2 688.171 15.8671   1
   2   1  -2 657.943 15.7843   5
   2   1  -2 615.217 15.0885   4
   2   1  -2 636.853 14.7284   6
  -2  -1   2 665.326 15.6127   1
  -2  -1   2 659.171 15.7680   2
  -2  -1   2 689.062 16.2741   5
   1   1  -2 2891.85 59.9640   1
   1   1  -2 2891.78 59.9498   4
   1   1  -2 2964.74 60.0261   5
  -1  -1   2 2906.29 59.8115   1
  -1  -1   2 3018.82 60.3734   5
   0   1  -2 34.6021 3.06512   1
   0   1  -2 34.6208 2.90834   2
   0   1  -2 35.1285 3.06274   5
   0   1  -2 35.0340 2.71040   1
   0  -1   2 31.3388 2.61815   1
   0  -1   2 33.6858 2.85033   5
  -1   1  -2 8445.65 172.319   5
  -1   1  -2 8661.14 172.059   2
  -1   1  -2 8803.81 172.393   1
   1  -1   2 8833.07 172.560   5
   1  -1   2 8363.66 172.073   1
  -2   1  -2 4108.08 83.3857   1
  -2   1  -2 4084.10 83.0110   2
  -2   1  -2 4016.54 83.4418   5
   2  -1   2 4154.91 83.6826   5
   2  -1   2 3965.88 83.0396   1
  -3   1  -2 2147.72 46.0244   1
  -3   1  -2 2000.44 45.8655   5
  -3   1  -2 2073.89 45.4488   2
   3  -1   2 2116.80 46.1406   5
   3  -1   2 2168.57 45.7432   1
   3  -1   2 2186.65 46.3514   5
  -4   1  -2 99.8483 6.32290   2
  -4   1  -2 86.4452 6.80483   5
  -4   1  -2 110.739 6.77725   1
   4  -1   2 109.586 6.40360   1
   4  -1   2 121.181 7.15856   5
  -5   1  -2 75.2240 6.91664   5
  -5   1  -2 82.3258 6.50190   2
  -5   1  -2 74.9016 6.48933   1
   5  -1   2 75.9104 6.96834   5
   5  -1   2 78.9186 6.49107   1
  -6   1  -2 843.053 24.6969   5
  -6   1  -2 848.499 24.4528   1
  -6   1  -2 840.582 23.7436   2
   6  -1   2 786.456 24.2636   5
   6  -1   2 817.002 23.6014   1
  -7   1  -2 10.7595 5.14926   1
  -7   1  -2 3.66261 5.11509   5
  -7   1  -2 6.53474 5.21029   2
   7  -1   2 4.15326 4.52069   5
   7  -1   2 0.37969 4.73144   5
   7  -1   2 -0.7848 4.42792   1
  -8   1  -2 15.4780 6.86472   5
  -8   1  -2 7.32826 5.64204   2
  -8   1  -2 13.4483 6.67348   1
   8  -1   2 16.4896 6.20874   5
   8  -1   2 12.7257 6.43769   5
   8  -1   2 11.3458 5.81427   1
  -9   1  -2 17.6138 6.79721   2
  -9   1  -2 18.3573 7.47988   5
  -9   1  -2 14.9464 7.12557   1
   9  -1   2 12.2768 6.71575   1
   9  -1   2 3.31408 5.68795   5
   9  -1   2 14.4420 6.79522   5
   9   0  -2 0.41097 5.85297   1
   9   0  -2 -1.8080 5.86141   5
  -9   0   2 -4.1037 5.42469   1
  -9   0   2 9.83818 6.06170   5
  -9   0   2 -3.5506 5.78345   2
   8   0  -2 377.485 16.9998   1
   8   0  -2 357.453 16.9464   5
  -8   0   2 394.307 17.4028   2
  -8   0   2 397.930 17.5082   1
  -8   0   2 383.581 18.3570   5
   7   0  -2 92.3674 8.44549   1
   7   0  -2 96.5678 7.08450   3
   7   0  -2 89.4958 8.77322   5
  -7   0   2 95.5127 8.53951   1
  -7   0   2 100.353 9.10050   5
  -7   0   2 90.7069 8.22361   2
   6   0  -2 21.5504 4.85197   1
   6   0  -2 31.2593 5.83151   5
   6   0  -2 26.7310 4.53093   3
  -6   0   2 22.5247 5.06378   1
  -6   0   2 17.1649 5.53988   5
  -6   0   2 21.7240 5.43630   2
   5   0  -2 18.9726 3.91385   1
   5   0  -2 19.5447 4.44604   5
   5   0  -2 16.5441 3.64042   3
  -5   0   2 24.6663 4.35742   1
  -5   0   2 17.6879 4.72708   5
  -5   0   2 17.7704 4.01654   2
   4   0  -2 1909.59 41.6310   1
   4   0  -2 1846.17 40.4835   3
   4   0  -2 1762.94 41.5306   5
  -4   0   2 1844.81 42.2666   5
  -4   0   2 1900.16 41.5290   2
  -4   0   2 1799.30 41.3434   1
   3   0  -2 36.2395 3.75124   5
   3   0  -2 41.0431 3.77260   1
  -3   0   2 36.1032 3.61234   1
  -3   0   2 36.3818 3.46242   2
  -3   0   2 28.1944 3.54410   5
   2   0  -2 7.38084 2.24710   5
   2   0  -2 9.64663 2.11275   1
  -2   0   2 10.1707 2.27874   2
  -2   0   2 11.1702 2.44011   5
  -2   0   2 8.62466 2.07706   1
   1   0  -2 81.3337 4.26944   5
   1   0  -2 84.4282 3.98636   1
  -1   0   2 88.1057 3.97326   1
  -1   0   2 81.7591 4.24526   5
  -1   0   2 85.8303 4.12722   2
   0   0  -2 6878.83 134.204   5
   0   0  -2 6686.88 133.932   2
   0   0  -2 6455.83 133.972   1
   0   0   2 6640.59 133.908   1
   0   0   2 6876.18 134.265   5
  -1   0  -2 2478.47 49.8717   1
  -1   0  -2 2317.93 49.7071   2
  -1   0  -2 2515.95 50.0811   5
   1   0   2 2416.76 50.0003   5
   1   0   2 2388.58 49.6759   1
  -2   0  -2 1382.46 30.9938   5
  -2   0  -2 1419.48 30.7994   1
  -2   0  -2 1389.44 30.6637   2
   2   0   2 1478.41 31.0138   5
   2   0   2 1428.42 30.6741   1
  -3   0  -2 10.8167 2.48523   2
  -3   0  -2 14.2960 2.82376   5
  -3   0  -2 15.1006 2.53234   1
   3   0   2 8.77651 2.57411   5
   3   0   2 15.6441 2.58508   1
  -4   0  -2 737.602 19.5028   2
  -4   0  -2 780.637 19.7165   1
  -4   0  -2 751.342 20.1280   5
   4   0   2 776.485 19.5717   1
   4   0   2 739.501 19.6000   5
   4   0   2 748.308 19.7354   5
  -5   0  -2 117.781 7.63075   1
  -5   0  -2 128.125 8.35677   5
  -5   0  -2 119.426 7.53761   2
   5   0   2 127.444 7.51382   1
   5   0   2 110.711 7.76779   5
   5   0   2 117.159 7.76951   5
  -6   0  -2 258.524 12.1802   1
  -6   0  -2 290.031 13.0567   5
  -6   0  -2 273.914 12.1269   2
   6   0   2 281.697 12.0186   1
   6   0   2 276.261 12.3811   5
   6   0   2 282.730 12.3737   5
  -7   0  -2 403.894 16.7047   1
  -7   0  -2 419.709 17.6572   5
  -7   0  -2 440.840 17.1744   2
   7   0   2 431.538 16.9390   5
   7   0   2 408.653 16.8027   5
   7   0   2 419.296 16.3367   1
  -8   0  -2 17.5313 5.42136   1
  -8   0  -2 20.8502 6.53676   5
  -8   0  -2 18.8413 6.13387   2
   8   0   2 15.9779 5.42599   1
   8   0   2 6.51359 5.73755   5
   8   0   2 19.0049 5.56066   5
  -9   0  -2 61.8059 8.80822   2
  -9   0  -2 68.1062 8.87247   1
  -9   0  -2 58.4532 9.27469   5
   9   0   2 64.2646 8.85070   5
   9   0   2 55.0875 8.45127   1
 -10   0  -2 -3.1871 6.60520   5
 -10   0  -2 2.16282 6.55563   2
 -10   0  -2 14.1457 8.18279   1
  10   0   2 1.55155 6.54245   5
  10   0   2 4.82540 6.63848   1
   9  -1  -2 85.1117 10.7618   5
  -9   1   2 58.2309 9.74329   5
  -9   1   2 76.3178 9.55843   2
  -9   1   2 69.6416 9.74185   1
   8  -1  -2 207.103 13.0049   1
   8  -1  -2 210.591 14.1534   5
  -8   1   2 215.985 13.1327   2
  -8   1   2 193.185 13.4458   1
  -8   1   2 187.672 13.3224   5
   7  -1  -2 344.969 16.1649   5
   7  -1  -2 339.993 14.9612   1
  -7   1   2 305.455 15.5121   5
  -7   1   2 330.910 15.5152   1
  -7   1   2 311.169 14.5965   2
   6  -1  -2 61.8429 6.59639   1
   6  -1  -2 57.2546 7.30113   5
  -6   1   2 62.5337 6.87332   2
  -6   1   2 65.0645 7.23620   1
  -6   1   2 61.9821 7.74935   5
   5  -1  -2 6.91128 3.74733   5
   5  -1  -2 5.85502 3.61450   1
  -5   1   2 7.84491 3.44759   1
  -5   1   2 4.32207 3.72149   5
  -5   1   2 0.91028 3.62483   2
   4  -1  -2 1874.03 42.4811   1
   4  -1  -2 1925.86 43.4505   5
   4  -1  -2 1848.63 40.4657   3
  -4   1   2 1941.62 43.0160   1
  -4   1   2 1881.17 42.2593   2
  -4   1   2 1892.63 43.3053   5
   3  -1  -2 245.288 9.21404   5
   3  -1  -2 252.994 8.74836   1
  -3   1   2 256.264 9.28631   5
  -3   1   2 236.615 8.50034   2
  -3   1   2 248.977 8.94998   1
   2  -1  -2 -1.1448 1.98190   5
   2  -1  -2 1.90363 1.75156   1
  -2   1   2 2.14448 1.67130   2
  -2   1   2 0.06474 1.82412   1
  -2   1   2 2.85188 1.97039   5
   1  -1  -2 1467.47 30.4656   1
   1  -1  -2 1400.19 30.3524   2
   1  -1  -2 1413.90 30.7455   5
  -1   1   2 1404.29 30.2061   2
  -1   1   2 1484.18 30.1759   2
  -1   1   2 1396.54 30.4478   1
  -1   1   2 1452.40 30.6934   5
   0  -1  -2 336.256 8.27464   1
   0  -1  -2 336.096 8.23654   2
   0  -1  -2 333.562 8.49624   5
   0   1   2 324.726 7.98290   2
   0   1   2 339.896 8.43795   5
   0   1   2 346.140 8.34466   1
   0   1   2 345.930 8.00563   2
  -1  -1  -2 2116.45 43.0569   5
  -1  -1  -2 2069.63 42.7407   2
  -1  -1  -2 2109.84 42.7999   1
   1   1   2 2058.19 42.8453   5
   1   1   2 2105.43 42.4834   2
   1   1   2 2072.38 42.7965   1
  -2  -1  -2 4425.96 91.6425   2
  -2  -1  -2 4487.04 91.6249   1
  -2  -1  -2 4573.15 92.0695   5
   2   1   2 4478.87 91.6982   5
   2   1   2 4548.25 91.7328   1
   2   1   2 4680.96 91.4032   2
  -3  -1  -2 1021.84 23.0144   2
  -3  -1  -2 1001.33 22.9111   1
  -3  -1  -2 982.857 23.3929   5
   3   1   2 1006.22 22.6041   2
   3   1   2 988.897 22.9808   5
   3   1   2 992.985 22.9611   1
  -4  -1  -2 3.91572 2.37818   1
  -4  -1  -2 0.08233 2.58078   5
  -4  -1  -2 1.89628 2.44932   2
   4   1   2 5.06219 2.41824   5
   4   1   2 4.94313 2.75490   2
   4   1   2 -1.0542 2.21807   1
  -5  -1  -2 1357.75 32.5157   2
  -5  -1  -2 1360.90 32.4146   1
  -5  -1  -2 1373.12 33.4038   5
   5   1   2 1410.32 32.6321   5
   5   1   2 1344.23 32.3814   1
  -6  -1  -2 -2.0121 3.63152   1
  -6  -1  -2 2.76790 4.56092   5
  -6  -1  -2 1.38209 3.88037   2
   6   1   2 -2.2319 3.39849   5
   6   1   2 -2.8771 3.72637   1
  -7  -1  -2 13.7251 5.13025   2
  -7  -1  -2 6.64929 4.66223   1
  -7  -1  -2 10.1324 5.43789   5
   7   1   2 11.1133 5.04437   1
   7   1   2 15.9518 4.88891   5
  -8  -1  -2 240.828 13.2552   2
  -8  -1  -2 247.043 13.0981   1
  -8  -1  -2 247.023 14.5912   5
   8   1   2 232.154 12.8491   5
   8   1   2 243.461 13.3125   1
  -9  -1  -2 3.52832 6.99148   5
  -9  -1  -2 -8.4247 6.05008   2
  -9  -1  -2 -1.0074 5.23738   1
   9   1   2 8.81116 5.77266   1
   9   1   2 0.82454 4.94040   5
 -10  -1  -2 36.8904 9.54372   5
 -10  -1  -2 21.9726 7.41213   2
  10   1   2 38.5828 7.72798   1
  10   1   2 22.5186 6.70053   5
   8  -2  -2 8.83033 6.63304   5
  -8   2   2 2.31887 6.26964   1
  -8   2   2 -0.1132 6.21655   5
  -8   2   2 9.87666 5.49625   2
   7  -2  -2 251.754 12.5694   1
   7  -2  -2 244.504 14.4290   5
  -7   2   2 241.169 12.0742   2
  -7   2   2 263.715 14.2254   1
  -7   2   2 280.788 14.3407   5
   6  -2  -2 220.839 13.1876   5
   6  -2  -2 208.334 11.1201   1
  -6   2   2 200.753 11.6340   1
  -6   2   2 206.213 11.6037   5
  -6   2   2 213.541 11.0246   2
   5  -2  -2 304.755 13.4239   5
   5  -2  -2 307.473 11.9195   1
  -5   2   2 285.376 12.3964   5
  -5   2   2 307.305 12.8550   1
  -5   2   2 300.847 11.6156   2
   4  -2  -2 112.013 7.82525   5
   4  -2  -2 124.032 6.97489   1
  -4   2   2 129.237 7.65218   1
  -4   2   2 125.289 6.75906   2
  -4   2   2 126.218 7.62892   5
   3  -2  -2 24.7055 3.61798   5
   3  -2  -2 27.6269 3.33338   1
  -3   2   2 22.1731 3.05812   2
  -3   2   2 28.9278 3.65140   1
  -3   2   2 22.6952 2.76495   2
  -3   2   2 21.6162 3.54018   5
   2  -2  -2 3544.40 72.2562   1
   2  -2  -2 3466.74 72.9029   5
  -2   2   2 3552.15 71.6071   2
  -2   2   2 3522.19 72.4516   5
  -2   2   2 3527.77 71.4560   2
  -2   2   2 3412.95 71.3401   4
  -2   2   2 3545.78 72.6782   1
   1  -2  -2 479.121 12.3036   5
   1  -2  -2 483.667 11.7130   1
  -1   2   2 482.979 11.8282   4
  -1   2   2 509.210 10.8846   2
  -1   2   2 510.737 10.9314   2
  -1   2   2 493.432 12.1616   1
  -1   2   2 506.100 11.8553   5
   0  -2  -2 -1.1472 1.40156   5
   0   2   2 3.56051 1.89637   4
   0   2   2 1.19947 1.33144   1
  -1  -2  -2 161.062 5.02441   5
   1   2   2 163.986 4.54575   1
   1   2   2 151.178 4.57806   1
  -2  -2  -2 1154.31 24.9062   5
   2   2   2 1204.44 24.1775   5
   2   2   2 1148.60 26.6076   3
   2   2   2 1142.44 24.1138   5
   2   2   2 1146.85 24.7681   1
  -3  -2  -2 4.60112 2.15349   5
  -3  -2  -2 2.95418 1.98051   2
  -3  -2  -2 4.84471 1.82464   1
   3   2   2 4.67808 1.46999   2
   3   2   2 7.63820 1.81112   5
   3   2   2 5.05078 2.64310   3
   3   2   2 4.19846 1.93846   1
  -4  -2  -2 5.17518 2.59888   5
  -4  -2  -2 2.98185 2.34584   2
  -4  -2  -2 4.82893 2.33474   1
   4   2   2 7.86072 2.29406   5
   4   2   2 2.32049 1.84281   2
   4   2   2 4.91357 2.33152   1
   4   2   2 5.21215 3.05719   3
  -5  -2  -2 257.125 9.39728   1
  -5  -2  -2 250.671 10.2901   5
  -5  -2  -2 246.542 9.53361   2
   5   2   2 257.377 9.41034   5
   5   2   2 241.934 10.2422   3
   5   2   2 237.083 8.45234   2
   5   2   2 238.557 9.64146   1
  -6  -2  -2 495.947 17.3617   5
  -6  -2  -2 527.766 16.1898   1
  -6  -2  -2 516.539 16.7665   2
   6   2   2 534.014 16.1427   5
   6   2   2 548.834 16.9260   1
   6   2   2 529.608 16.9288   3
   6   2   2 527.970 15.2813   2
  -7  -2  -2 13.7155 5.46581   2
  -7  -2  -2 2.66728 5.54891   5
  -7  -2  -2 8.00618 4.40023   1
   7   2   2 8.95982 4.48501   5
   7   2   2 7.28411 4.44626   3
   7   2   2 9.17868 4.91254   1
   7   2   2 2.34079 3.88508   2
  -8  -2  -2 651.143 23.1633   5
  -8  -2  -2 649.281 21.0632   1
  -8  -2  -2 639.326 21.7707   2
   8   2   2 639.277 20.6465   5
   8   2   2 659.408 21.8350   1
  -9  -2  -2 84.9944 10.6617   5
  -9  -2  -2 83.7449 9.96783   2
   9   2   2 74.1588 8.21513   5
   9   2   2 73.9077 8.89843   1
 -10  -2  -2 57.7307 9.77039   5
  10   2   2 58.2705 7.99731   5
  10   2   2 59.5019 8.98248   1
   8  -3  -2 98.6933 11.3827   5
  -8   3   2 100.070 11.0121   1
  -8   3   2 88.8120 7.92198   2
  -8   3   2 65.9515 8.98459   5
   7  -3  -2 28.2885 7.39220   5
  -7   3   2 19.9888 5.32596   2
  -7   3   2 15.3319 6.02481   5
  -7   3   2 25.7735 6.85054   1
   6  -3  -2 11.4134 5.03032   5
  -6   3   2 -0.3173 4.48989   1
  -6   3   2 4.52634 4.60117   5
  -6   3   2 1.43249 3.57589   2
   5  -3  -2 123.175 8.45741   1
   5  -3  -2 125.910 9.74351   5
  -5   3   2 137.723 9.48031   1
  -5   3   2 131.181 9.71967   5
  -5   3   2 129.865 7.94802   2
  -5   3   2 136.898 7.50107   4
  -5   3   2 128.654 7.10540   2
   4  -3  -2 170.420 8.19463   1
   4  -3  -2 183.981 9.88196   5
  -4   3   2 179.277 7.69943   2
  -4   3   2 175.022 7.78551   4
  -4   3   2 187.420 9.50002   1
  -4   3   2 182.176 8.89492   5
  -4   3   2 184.389 7.37717   2
   3  -3  -2 153.003 7.71451   5
   3  -3  -2 149.781 6.59450   1
  -3   3   2 144.935 6.64786   4
  -3   3   2 157.659 5.51145   2
  -3   3   2 149.579 7.53332   1
  -3   3   2 166.191 5.87268   2
  -3   3   2 145.900 6.87280   5
   2  -3  -2 1740.22 36.8624   1
   2  -3  -2 1714.84 38.0771   5
  -2   3   2 1770.66 36.7760   5
  -2   3   2 1667.59 37.3606   4
  -2   3   2 1743.80 37.8193   1
   1  -3  -2 456.216 11.6671   5
  -1   3   2 452.470 11.5362   1
  -1   3   2 454.710 12.3134   4
   0   3   2 0.45086 2.01892   4
   0   3   2 1.76174 1.22829   1
   0   3   2 0.56374 1.24900   1
   1   3   2 1944.71 42.0930   3
   1   3   2 1928.37 42.1983   4
   2   3   2 2.41111 1.22328   1
   2   3   2 1.27915 1.18496   1
   2   3   2 3.93083 2.53988   3
  -3  -3  -2 1729.43 36.6732   5
   3   3   2 1697.60 36.4691   1
   3   3   2 1746.86 39.4805   3
  -4  -3  -2 1702.98 37.8393   5
   4   3   2 1738.11 36.0738   5
   4   3   2 1702.15 37.5037   1
   4   3   2 1708.54 39.9815   3
  -5  -3  -2 549.651 14.8026   1
  -5  -3  -2 561.288 15.6696   2
  -5  -3  -2 571.187 16.4108   5
   5   3   2 573.711 15.9343   1
   5   3   2 546.334 14.5159   5
   5   3   2 556.685 13.1891   2
   5   3   2 548.393 17.5239   3
  -6  -3  -2 169.075 9.58485   5
  -6  -3  -2 166.333 8.05102   1
  -6  -3  -2 150.614 8.77856   2
   6   3   2 162.789 6.75983   2
   6   3   2 167.272 8.95973   1
   6   3   2 147.298 9.90635   3
   6   3   2 173.272 8.00400   5
  -7  -3  -2 883.924 26.4853   5
  -7  -3  -2 913.058 24.1676   1
  -7  -3  -2 860.129 25.0600   2
   7   3   2 932.460 22.5205   2
   7   3   2 930.008 24.1331   5
   7   3   2 904.034 26.7724   3
   7   3   2 893.619 25.5619   1
  -8  -3  -2 80.1910 9.46940   5
   8   3   2 84.1245 7.56489   5
   8   3   2 87.9726 8.46212   1
   8   3   2 85.0054 8.75801   3
  -9  -3  -2 3.72714 6.51480   5
   9   3   2 -1.9267 5.47276   3
   9   3   2 6.51232 5.16233   5
   9   3   2 2.63176 5.61775   1
 -10  -3  -2 322.245 18.4038   5
  10   3   2 341.431 17.6036   1
  10   3   2 348.762 15.7160   5
   7  -4  -2 5.47811 6.46750   5
  -7   4   2 9.85645 3.93665   2
  -7   4   2 4.37954 5.17644   5
  -7   4   2 7.67742 5.97145   1
   6  -4  -2 176.300 12.6045   5
  -6   4   2 182.233 11.6188   4
  -6   4   2 175.036 11.6893   1
  -6   4   2 164.244 7.94363   2
  -6   4   2 159.213 10.0183   5
   5  -4  -2 176.489 11.3823   5
  -5   4   2 159.931 6.86518   2
  -5   4   2 169.965 9.22258   5
  -5   4   2 152.506 8.95714   4
  -5   4   2 167.656 10.7597   1
  -5   4   2 171.691 6.76589   2
   4  -4  -2 322.830 14.0285   5
  -4   4   2 343.419 11.6716   5
  -4   4   2 338.732 12.3479   4
  -4   4   2 351.330 13.5557   1
   3  -4  -2 816.685 22.7123   5
  -3   4   2 843.154 21.9781   4
  -3   4   2 866.342 22.4518   1
  -3   4   2 899.612 20.2481   5
   2  -4  -2 4.67302 2.62197   5
  -2   4   2 4.00923 2.66835   4
   1  -4  -2 674.133 16.0959   5
  -1   4   2 665.152 15.9153   1
  -1   4   2 646.545 17.6469   4
   0   4   2 1841.44 41.1829   4
   1   4   2 1388.81 32.4926   4
   1   4   2 1373.11 31.8350   3
   2   4   2 16.1489 3.43290   3
   3   4   2 282.235 7.58655   1
   3   4   2 273.597 7.60402   1
   3   4   2 284.936 10.9274   3
  -4  -4  -2 102.114 5.13798   5
   4   4   2 97.6755 5.11014   1
   4   4   2 95.1119 7.65536   3
  -5  -4  -2 7.63646 3.04513   5
   5   4   2 5.20185 4.00007   3
   5   4   2 3.83044 3.01527   1
  -6  -4  -2 0.71446 3.71391   2
  -6  -4  -2 4.14667 3.87031   5
   6   4   2 6.11372 2.58842   5
   6   4   2 -8.2561 4.31195   3
   6   4   2 4.12875 3.62143   1
  -7  -4  -2 166.411 10.6768   5
   7   4   2 165.060 11.7478   3
   7   4   2 157.667 7.88591   5
   7   4   2 157.494 9.68372   1
  -8  -4  -2 212.422 13.0859   5
   8   4   2 199.637 13.1276   3
   8   4   2 207.271 7.64628   2
   8   4   2 206.517 12.2904   1
   8   4   2 214.113 9.96341   5
  -9  -4  -2 12.4715 7.39026   5
   9   4   2 14.6641 6.27897   1
   9   4   2 16.1758 6.30212   3
   9   4   2 15.9413 3.78122   2
   9   4   2 26.5180 5.59846   5
 -10  -4  -2 217.101 15.3643   5
  10   4   2 225.917 14.4736   1
  10   4   2 206.013 14.2992   3
  10   4   2 218.001 12.1808   5
   7  -5  -2 86.1627 11.0198   5
  -7   5   2 88.1900 7.79816   5
  -7   5   2 110.616 11.1111   1
   6  -5  -2 77.5627 9.43114   5
  -6   5   2 64.9739 6.35030   5
  -6   5   2 71.9612 8.54550   1
   5  -5  -2 16.3962 5.74921   5
  -5   5   2 18.4179 4.02428   5
  -5   5   2 17.1601 5.44597   1
  -5   5   2 12.7687 5.00634   4
   4  -5  -2 0.16282 4.21418   5
  -4   5   2 -2.1597 3.74850   1
  -4   5   2 -1.7691 3.74645   4
   3  -5  -2 23.8269 4.95525   5
  -3   5   2 28.9092 4.83621   1
  -3   5   2 30.0284 4.88337   4
   2  -5  -2 104.765 6.79751   5
  -2   5   2 129.711 7.97589   4
  -2   5   2 112.092 6.88153   1
   1  -5  -2 2.30937 2.06447   5
  -1   5   2 -2.9019 2.87613   4
  -1   5   2 -1.1981 1.99877   1
  -1   5   2 1.69126 2.06246   1
   0   5   2 2427.47 54.2188   4
   1   5   2 1.68611 3.35543   4
   1   5   2 5.43192 3.19412   3
   2   5   2 259.002 10.8350   3
   2   5   2 286.318 11.4799   4
   3   5   2 448.711 15.3207   3
   4   5   2 1.74976 2.12714   1
   4   5   2 0.86491 2.12527   1
   4   5   2 1.32171 3.95390   3
  -5  -5  -2 854.117 21.3338   5
   5   5   2 844.048 25.4087   3
   5   5   2 834.860 20.8741   1
  -6  -5  -2 330.921 12.6262   5
   6   5   2 338.095 12.0440   1
   6   5   2 325.627 15.3741   3
  -7  -5  -2 175.314 10.6278   5
   7   5   2 198.302 12.6514   3
   7   5   2 149.668 9.82679   1
  -8  -5  -2 191.221 12.3657   5
   8   5   2 165.518 13.6511   3
   8   5   2 177.420 11.0647   1
  -9  -5  -2 391.220 18.8763   5
   9   5   2 432.041 19.7392   3
   9   5   2 443.278 18.1477   1
   9   5   2 416.915 13.4844   5
 -10  -5  -2 121.641 12.4009   5
  10   5   2 103.973 10.7767   1
  10   5   2 103.037 8.25717   5
  10   5   2 95.6615 10.9974   3
   6  -6  -2 70.3514 10.7806   5
  -6   6   2 75.5100 9.12356   1
   5  -6  -2 14.3051 7.31722   5
  -5   6   2 10.8798 5.60454   4
  -5   6   2 6.73135 5.12859   1
   4  -6  -2 251.185 14.9346   5
  -4   6   2 258.002 12.6292   4
  -4   6   2 275.348 12.7999   1
   3  -6  -2 178.505 11.4697   5
  -3   6   2 176.270 10.2213   4
  -3   6   2 165.390 9.70731   1
   2  -6  -2 333.451 13.2987   5
  -2   6   2 348.158 12.2014   1
  -2   6   2 364.684 13.9520   4
   1  -6  -2 968.324 23.6288   5
  -1   6   2 977.387 23.1058   1
  -1   6   2 1017.10 26.8671   4
  -1   6   2 921.297 22.8027   1
   0   6   2 22.6521 5.28985   4
   1   6   2 330.566 12.5347   3
   1   6   2 314.885 13.2660   4
   2   6   2 2149.06 51.5280   4
   2   6   2 2237.84 50.9029   3
   3   6   2 59.1943 6.69865   3
   3   6   2 62.8230 7.03152   4
   4   6   2 258.728 13.1178   3
  -5  -6  -2 395.343 13.2277   5
   5   6   2 370.921 16.5064   3
   5   6   2 392.908 11.8096   1
   5   6   2 384.132 11.6138   1
   6   6   2 194.533 8.95746   1
   6   6   2 181.612 13.6021   3
   7   6   2 115.434 8.27684   1
   7   6   2 102.823 10.5993   3
   8   6   2 0.04237 5.03939   1
   8   6   2 -2.6474 5.68528   3
   9   6   2 185.776 14.6808   3
   9   6   2 170.628 12.0383   1
  10   6   2 27.2016 8.95941   3
  10   6   2 45.7463 7.80597   1
  -5   7   2 37.1293 7.26167   1
  -4   7   2 29.7452 6.28654   1
  -4   7   2 46.9056 7.29142   4
  -3   7   2 12.2464 5.44465   4
  -3   7   2 8.11752 4.58620   1
  -2   7   2 65.2755 6.14250   1
  -2   7   2 80.0560 8.04423   4
  -1   7   2 7.13513 3.75262   1
  -1   7   2 23.1215 6.09477   4
   0   7   2 10.9077 5.05443   4
   1   7   2 -1.3933 4.70234   4
   1   7   2 1.70949 4.44854   3
   2   7   2 722.661 23.2701   4
   2   7   2 739.779 22.7374   3
   3   7   2 76.5651 8.55237   4
   3   7   2 69.8284 7.80811   3
   4   7   2 5.68654 5.33315   3
   5   7   2 183.061 7.38219   1
   5   7   2 186.679 12.8583   3
   6   7   2 77.9934 9.39512   3
   6   7   2 78.8878 6.26731   1
   7   7   2 35.7500 5.13908   1
   7   7   2 15.3002 7.00949   3
   8   7   2 265.184 16.1469   3
   8   7   2 294.176 13.0799   1
   9   7   2 5.62228 7.45905   3
   9   7   2 11.5862 5.25059   1
  10   7   2 40.3458 9.99150   3
  10   7   2 30.3884 7.64622   1
  -4   8   2 118.097 11.4082   4
  -4   8   2 116.013 9.92507   1
  -3   8   2 151.935 10.0880   1
  -3   8   2 145.780 11.6554   4
  -2   8   2 213.372 13.4420   4
  -2   8   2 210.061 10.4880   1
  -1   8   2 75.8393 6.07819   1
  -1   8   2 66.5179 8.36249   4
   0   8   2 708.648 23.8296   4
   1   8   2 453.546 18.4944   4
   1   8   2 436.283 16.2833   3
   2   8   2 71.2231 8.16592   3
   2   8   2 69.9300 8.70439   4
   3   8   2 550.478 21.2353   4
   3   8   2 551.306 20.3309   3
   4   8   2 472.324 19.2373   3
   5   8   2 11.6448 6.32348   3
   6   8   2 291.172 16.5291   3
   6   8   2 282.899 10.4967   1
   7   8   2 14.7713 4.31813   1
   7   8   2 3.69028 6.49105   3
   8   8   2 -18.644 6.42841   3
   8   8   2 3.25930 4.05108   1
   9   8   2 30.0875 9.48835   3
   9   8   2 16.1559 5.97307   1
  -3   9   2 100.750 10.7467   4
  -2   9   2 117.004 11.0840   4
  -2   9   2 129.065 9.99003   1
  -1   9   2 21.4006 4.80703   1
  -1   9   2 29.5938 7.41150   4
   0   9   2 38.9128 7.51259   4
   1   9   2 5.57856 5.95069   4
   1   9   2 3.70204 6.05424   3
   2   9   2 36.2088 6.76447   3
   2   9   2 28.2131 7.10955   4
   3   9   2 -3.6684 5.24875   3
   3   9   2 7.23908 6.28660   4
   4   9   2 616.348 23.4444   3
   5   9   2 7.71819 6.18143   3
   6   9   2 39.1606 8.50394   3
   7   9   2 105.622 7.87050   1
   7   9   2 95.0701 11.3033   3
   8   9   2 -7.3884 6.94800   3
   8   9   2 11.8790 4.67293   1
  -1  10   2 88.8355 10.8498   4
  -1  10   2 111.615 8.39955   1
   0  10   2 138.546 12.9071   4
   1  10   2 176.957 14.1575   4
   2  10   2 365.378 19.3839   4
   2  10   2 359.653 17.1350   3
   3  10   2 298.543 16.5544   3
   3  10   2 307.481 18.1029   4
   4  10   2 22.8461 7.63084   4
   4  10   2 13.3858 6.98503   3
   5  10   2 246.552 16.5634   3
   6  10   2 298.696 18.3305   3
   7  10   2 -1.0626 6.85814   3
   7  10   2 0.22127 3.94162   1
   2  11   2 58.1814 10.6245   4
   2  11   2 42.5620 8.67128   3
   3  11   2 -6.6579 6.73653   3
   3  11   2 -3.0905 6.74737   4
   4  11   2 5.81416 7.91847   3
   5  11   2 0.43105 7.45135   3
   6  10  -3 22.7368 8.67460   3
   6  10  -3 46.8482 10.8627   4
   6  10  -3 38.4556 5.82090   1
   5  10  -3 246.125 18.2580   4
   5  10  -3 234.457 16.6787   3
   5  10  -3 235.374 11.1630   1
   4  10  -3 4.74333 7.73422   4
   4  10  -3 11.2377 6.77247   3
   4  10  -3 9.59874 4.35329   1
   3  10  -3 62.5025 5.82096   1
   3  10  -3 83.8996 11.7206   4
   3  10  -3 77.1520 9.90132   3
   2  10  -3 452.723 20.2676   3
   2  10  -3 449.169 22.8343   4
   2  10  -3 468.367 15.0703   1
   1  10  -3 44.9020 5.63859   1
   1  10  -3 39.7880 7.61304   3
   1  10  -3 37.9563 9.15790   4
   0  10  -3 12.0231 5.27323   1
   0  10  -3 15.1539 8.31872   4
   7   9  -3 -0.1301 4.29564   1
   7   9  -3 1.62128 6.67470   3
   6   9  -3 161.813 14.1723   3
   6   9  -3 157.277 9.62225   1
   6   9  -3 133.832 13.7236   4
   5   9  -3 32.9584 8.71132   4
   5   9  -3 28.2203 7.74320   3
   5   9  -3 32.0931 5.00857   1
   4   9  -3 150.542 14.2097   4
   4   9  -3 155.445 12.8674   3
   4   9  -3 127.656 8.14075   1
   3   9  -3 14.3930 8.09433   4
   3   9  -3 23.3749 4.46827   1
   3   9  -3 25.7588 6.69020   3
   2   9  -3 127.841 13.1146   4
   2   9  -3 134.910 11.9613   3
   2   9  -3 136.186 8.27888   1
   1   9  -3 91.4503 7.58882   1
   1   9  -3 109.078 10.1411   3
   1   9  -3 94.0832 10.9779   4
   0   9  -3 -8.6996 6.25199   4
   0   9  -3 7.59381 4.25279   1
   0   9  -3 2.12718 5.11165   3
  -1   9  -3 75.9913 7.15331   1
  -1   9  -3 87.0142 11.2535   4
  -2   9  -3 -5.5751 6.06773   4
  -2   9  -3 -6.0516 4.56603   1
   8   8  -3 140.898 10.4048   1
   8   8  -3 117.692 12.4226   3
   7   8  -3 70.9719 9.78937   3
   7   8  -3 69.7042 7.31179   1
   6   8  -3 319.840 17.4653   3
   6   8  -3 339.965 18.4523   4
   6   8  -3 346.033 13.6586   1
   5   8  -3 1.67212 5.45954   3
   5   8  -3 2.00120 5.30324   4
   5   8  -3 -5.9181 3.36858   1
   4   8  -3 483.132 20.8281   4
   4   8  -3 458.691 14.5514   1
   4   8  -3 449.339 19.4350   3
   3   8  -3 328.953 11.2829   1
   3   8  -3 301.531 17.1276   4
   3   8  -3 331.544 15.9848   3
   2   8  -3 53.1308 5.04164   1
   2   8  -3 49.3672 8.62621   4
   2   8  -3 41.5820 7.33420   3
   1   8  -3 331.370 17.1614   4
   1   8  -3 353.309 15.4458   3
   1   8  -3 351.200 12.0788   1
   0   8  -3 163.231 11.0077   3
   0   8  -3 184.374 13.5859   4
   0   8  -3 160.471 9.18801   1
  -1   8  -3 41.5935 6.21129   1
  -1   8  -3 59.2733 9.40356   4
  -1   8  -3 57.3814 6.78541   3
  -2   8  -3 118.857 9.07455   1
  -2   8  -3 93.9242 11.4211   4
  -2   8  -3 107.232 12.1095   6
  -3   8  -3 9.74572 7.74590   4
  -3   8  -3 10.8488 7.50972   6
  -3   8  -3 1.79582 5.27318   1
  -4   8  -3 43.4832 10.0197   4
  -4   8  -3 45.7004 7.59133   1
   9   7  -3 15.2263 7.42746   3
   9   7  -3 5.38137 5.37244   1
   8   7  -3 32.5722 8.24430   3
   8   7  -3 33.2692 6.33005   1
   7   7  -3 24.6533 5.23454   1
   7   7  -3 21.7613 6.76010   3
   6   7  -3 71.7000 6.91142   1
   6   7  -3 68.6794 8.76946   3
   6   7  -3 86.9451 9.84528   4
   5   7  -3 10.4524 6.35545   4
   5   7  -3 7.96443 3.73795   1
   5   7  -3 1.30697 4.86857   3
   4   7  -3 294.680 15.7019   4
   4   7  -3 307.676 15.3113   3
   4   7  -3 298.823 11.2806   1
   3   7  -3 429.477 17.6637   3
   3   7  -3 441.085 18.7577   4
   3   7  -3 446.055 13.4198   1
   2   7  -3 520.441 18.7459   3
   2   7  -3 513.850 19.9984   4
   2   7  -3 501.366 14.5468   1
   1   7  -3 17.2570 6.17235   4
   1   7  -3 2.99947 3.58652   1
   1   7  -3 5.39890 5.80677   6
   1   7  -3 11.6674 5.04627   3
   0   7  -3 451.929 13.9302   1
   0   7  -3 424.599 15.7448   3
   0   7  -3 388.692 17.9064   4
   0   7  -3 430.054 18.2979   6
  -1   7  -3 137.464 8.66686   1
  -1   7  -3 135.358 12.4452   4
  -1   7  -3 144.070 12.0656   6
  -1   7  -3 138.471 9.12873   3
  -2   7  -3 66.4742 6.63457   1
  -2   7  -3 88.1356 10.1940   6
  -2   7  -3 62.1357 6.13869   3
  -2   7  -3 72.2827 9.56799   4
  -3   7  -3 392.561 19.3355   4
  -3   7  -3 365.609 15.0317   1
  -3   7  -3 384.555 18.9169   6
  -4   7  -3 14.2382 5.52508   1
  -4   7  -3 -3.6546 6.61012   6
  -4   7  -3 -0.9742 6.16110   4
  -5   7  -3 176.294 13.0581   1
  -5   7  -3 163.751 15.0419   4
  -5   7  -3 153.407 14.2058   6
   9   6  -3 184.002 14.5168   3
   9   6  -3 170.567 12.9951   1
  -9  -6   3 168.834 13.6852   5
   8   6  -3 6.64330 4.88242   1
   8   6  -3 5.98648 6.00374   3
  -8  -6   3 12.0759 5.44919   5
   7   6  -3 -0.0248 4.75402   3
   7   6  -3 -5.0615 3.83600   1
  -7  -6   3 6.11595 4.71594   5
   6   6  -3 20.2198 4.32666   1
   6   6  -3 17.3000 5.59148   3
  -6  -6   3 17.2639 4.53727   5
   5   6  -3 101.626 9.90858   3
   5   6  -3 100.669 7.54748   1
   5   6  -3 118.495 11.1235   4
  -5  -6   3 114.225 7.77517   5
   4   6  -3 705.399 23.2614   4
   4   6  -3 692.704 19.0011   1
   4   6  -3 715.718 23.1575   3
  -4  -6   3 667.102 18.9040   5
   3   6  -3 189.751 11.3907   3
   3   6  -3 190.586 12.0497   4
   3   6  -3 200.859 8.37382   1
  -3  -6   3 185.786 7.98154   5
   2   6  -3 729.708 23.5056   4
   2   6  -3 766.123 23.7126   6
   2   6  -3 755.951 22.5743   3
   2   6  -3 751.537 18.9005   1
  -2  -6   3 716.302 18.5597   5
   1   6  -3 1227.23 27.6399   1
   1   6  -3 1189.77 30.8672   3
   1   6  -3 1187.20 32.8700   6
   1   6  -3 1149.47 32.3897   4
  -1  -6   3 1162.99 27.4934   5
   0   6  -3 17.1722 3.68407   1
   0   6  -3 19.2347 6.30519   6
   0   6  -3 12.0777 4.29584   3
   0   6  -3 10.4711 5.43067   4
   0  -6   3 11.9923 3.27094   5
  -1   6  -3 485.649 19.2573   6
  -1   6  -3 473.433 15.4062   3
  -1   6  -3 485.087 19.1220   4
  -1   6  -3 471.032 14.8484   1
   1  -6   3 464.108 14.9316   5
  -2   6  -3 150.019 12.4239   4
  -2   6  -3 172.678 8.60938   3
  -2   6  -3 169.727 12.6912   6
  -2   6  -3 169.766 9.36205   1
   2  -6   3 170.522 9.51720   5
   2  -6   3 163.376 9.56133   5
  -3   6  -3 32.7681 7.57964   4
  -3   6  -3 41.8624 5.84957   1
  -3   6  -3 53.1942 8.36866   6
   3  -6   3 38.7283 5.88825   5
   3  -6   3 56.7774 6.63747   5
  -4   6  -3 96.1712 8.56601   1
  -4   6  -3 118.801 11.7046   6
  -4   6  -3 108.918 11.1544   4
   4  -6   3 113.766 9.99016   5
   4  -6   3 119.319 10.4874   5
  -5   6  -3 34.4939 8.04328   4
  -5   6  -3 24.4494 7.63179   6
  -5   6  -3 22.3541 6.35596   1
   5  -6   3 13.2450 6.32126   5
   5  -6   3 21.4088 6.94219   5
  -6   6  -3 36.3768 7.69441   1
  -6   6  -3 34.5936 9.47003   4
  -6   6  -3 38.5957 9.43243   6
   6  -6   3 44.0135 8.30378   5
   6  -6   3 36.3793 7.83039   5
   9   5  -3 288.883 15.7504   1
   9   5  -3 289.375 12.1912   5
   9   5  -3 308.966 17.5570   3
   9   5  -3 288.407 12.4219   5
  -9  -5   3 291.143 17.0225   5
   8   5  -3 215.185 12.5179   1
   8   5  -3 227.296 10.1308   5
   8   5  -3 236.136 10.1504   5
   8   5  -3 228.775 14.7853   3
  -8  -5   3 232.798 13.7703   5
   7   5  -3 71.1262 8.77114   3
   7   5  -3 75.7854 5.94117   5
   7   5  -3 75.3085 7.24678   1
  -7  -5   3 77.5971 8.14761   5
   6   5  -3 407.601 14.7071   1
   6   5  -3 385.545 17.1786   3
   6   5  -3 415.469 11.5328   5
  -6  -5   3 405.454 15.5914   5
   5   5  -3 7.52539 3.77724   1
   5   5  -3 1.78422 4.43029   4
   5   5  -3 4.26846 5.28358   3
  -5  -5   3 3.58342 3.28990   5
   4   5  -3 120.583 7.28101   1
   4   5  -3 143.335 9.84052   3
   4   5  -3 131.641 9.51245   4
  -4  -5   3 115.325 7.16634   5
   3   5  -3 -4.6332 3.88235   4
   3   5  -3 7.26249 4.40038   3
   3   5  -3 -4.9563 2.57878   1
  -3  -5   3 -1.1931 2.35221   5
   2   5  -3 62.3277 6.93751   4
   2   5  -3 59.2832 4.93987   1
   2   5  -3 50.8188 6.07636   3
   2   5  -3 63.8102 6.95386   6
  -2  -5   3 60.2304 4.49612   5
   1   5  -3 443.742 14.8034   3
   1   5  -3 434.653 12.4123   1
   1   5  -3 430.435 15.9675   4
   1   5  -3 431.698 16.0546   6
  -1  -5   3 418.729 12.0777   5
   0   5  -3 896.417 23.8128   3
   0   5  -3 926.085 26.1667   6
   0   5  -3 933.388 22.1265   1
   0   5  -3 925.523 26.0836   4
   0  -5   3 845.727 21.7163   5
  -1   5  -3 13.4083 5.29806   6
  -1   5  -3 4.25274 3.27303   1
  -1   5  -3 -1.2250 5.30342   4
  -1   5  -3 4.38805 3.35642   3
   1  -5   3 3.90075 2.94844   5
  -2   5  -3 220.744 9.21309   3
  -2   5  -3 197.184 11.9923   6
  -2   5  -3 223.562 9.82817   1
  -2   5  -3 206.731 12.7309   4
   2  -5   3 211.521 9.80342   5
   2  -5   3 217.038 9.91322   5
  -3   5  -3 57.2920 6.26205   1
  -3   5  -3 60.3193 8.82175   6
  -3   5  -3 63.1211 5.54254   3
   3  -5   3 65.7866 6.89094   5
   3  -5   3 67.8878 6.85689   5
  -4   5  -3 237.418 13.6812   6
  -4   5  -3 235.854 12.0473   1
  -4   5  -3 227.456 9.32494   5
   4  -5   3 249.510 12.4308   5
   4  -5   3 232.162 12.3134   5
  -5   5  -3 566.610 21.9622   6
  -5   5  -3 572.770 16.9899   5
  -5   5  -3 546.251 20.4373   1
   5  -5   3 549.969 20.8717   5
   5  -5   3 584.617 21.0977   5
  -6   5  -3 16.6749 6.70374   1
  -6   5  -3 27.2397 7.82103   6
  -6   5  -3 12.4485 4.94162   5
   6  -5   3 30.0458 7.33806   5
   6  -5   3 30.1828 7.39241   5
  -7   5  -3 181.072 11.3011   5
  -7   5  -3 232.633 16.0212   1
  -7   5  -3 224.829 15.4992   6
   7  -5   3 203.350 15.7273   5
   7  -5   3 225.020 15.6319   5
   9   4  -3 17.9360 6.66747   1
   9   4  -3 12.9491 5.23044   5
   9   4  -3 25.6730 7.13688   3
  -9  -4   3 13.2444 6.80029   5
   8   4  -3 4.61474 5.61488   3
   8   4  -3 -5.8679 5.14192   1
   8   4  -3 -3.1753 4.32741   5
  -8  -4   3 -1.2040 5.41897   5
   7   4  -3 337.933 12.6658   5
   7   4  -3 335.235 14.2496   1
   7   4  -3 327.354 15.6204   3
  -7  -4   3 320.405 14.9097   5
   6   4  -3 13.0186 3.99624   5
   6   4  -3 12.0879 4.61846   1
   6   4  -3 16.0571 5.75560   3
  -6  -4   3 27.1751 5.32227   5
   5   4  -3 80.1520 5.77795   5
   5   4  -3 88.7239 8.21196   3
   5   4  -3 78.3740 6.58010   1
  -5  -4   3 79.8525 6.80040   5
  -5  -4   3 80.4041 5.62304   1
  -5  -4   3 72.8033 6.22958   2
   4   4  -3 121.076 5.50059   5
   4   4  -3 112.286 8.81522   3
   4   4  -3 130.609 8.02616   4
   4   4  -3 118.887 6.98803   1
  -4  -4   3 116.472 5.65293   1
  -4  -4   3 118.858 6.98224   5
   3   4  -3 625.409 19.0883   4
   3   4  -3 671.831 17.1914   1
   3   4  -3 653.943 19.8462   3
   3   4  -3 645.177 18.6383   6
  -3  -4   3 660.001 17.3236   5
   2   4  -3 1181.42 30.2057   6
   2   4  -3 1261.61 30.8979   3
   2   4  -3 1217.12 30.5804   4
   2   4  -3 1227.41 27.7474   1
  -2  -4   3 1211.24 27.8955   5
   1   4  -3 832.591 19.7925   1
   1   4  -3 821.121 22.7394   6
   1   4  -3 838.949 22.8403   4
   1   4  -3 816.023 19.7998   1
  -1  -4   3 824.870 19.7895   5
   0   4  -3 2362.27 52.8336   6
   0   4  -3 2283.99 52.4289   4
   0   4  -3 2308.72 49.1615   1
   0  -4   3 2273.65 49.2028   5
  -1   4  -3 2500.00 56.9346   6
  -1   4  -3 2553.04 56.9806   4
  -1   4  -3 2493.05 53.7471   1
   1  -4   3 2481.18 53.8720   5
  -2   4  -3 4.24974 2.48294   5
  -2   4  -3 1.25014 2.98271   1
  -2   4  -3 -4.6574 4.60690   6
   2  -4   3 2.01326 2.28999   1
   2  -4   3 2.38144 3.12092   5
  -3   4  -3 978.499 27.9420   6
  -3   4  -3 970.284 21.6586   2
  -3   4  -3 998.009 25.6646   1
  -3   4  -3 1001.61 23.8518   5
   3  -4   3 970.566 25.8368   5
   3  -4   3 969.111 25.9221   5
  -4   4  -3 137.491 9.60285   1
  -4   4  -3 122.583 8.23636   5
  -4   4  -3 130.533 6.44146   2
  -4   4  -3 127.843 10.7755   6
   4  -4   3 102.849 9.14666   5
   4  -4   3 114.598 10.3916   1
   4  -4   3 108.188 9.13216   5
  -5   4  -3 7.36873 3.11220   2
  -5   4  -3 12.9361 4.94063   1
  -5   4  -3 9.30212 4.57436   5
  -5   4  -3 8.84828 6.26586   6
   5  -4   3 6.62659 5.22485   5
   5  -4   3 14.6371 5.21944   5
  -6   4  -3 175.142 8.68763   2
  -6   4  -3 160.947 12.8225   6
  -6   4  -3 187.722 12.3789   1
  -6   4  -3 156.340 10.6498   5
   6  -4   3 159.001 12.4778   5
   6  -4   3 168.628 12.5657   5
  -7   4  -3 35.7697 5.09154   2
  -7   4  -3 35.8424 6.85427   5
  -7   4  -3 55.9606 8.52572   1
  -7   4  -3 38.4414 8.60690   6
   7  -4   3 57.7886 8.67975   5
   7  -4   3 30.1279 7.47971   5
  -8   4  -3 0.12555 5.71199   5
  -8   4  -3 0.21313 4.21664   2
   8  -4   3 7.02037 7.24089   5
   9   3  -3 92.1070 9.64732   1
   9   3  -3 70.3962 9.13439   3
   9   3  -3 71.0088 8.28106   5
  -9  -3   3 84.6886 10.8661   5
   8   3  -3 -0.4440 5.21744   3
   8   3  -3 5.28980 5.11001   1
   8   3  -3 -4.3037 4.39698   5
  -8  -3   3 -5.6533 4.97067   5
   7   3  -3 563.892 19.9510   3
   7   3  -3 587.109 19.5159   1
   7   3  -3 535.379 18.0835   5
  -7  -3   3 554.410 18.1650   1
  -7  -3   3 559.282 20.3845   5
  -7  -3   3 533.438 18.8446   2
   6   3  -3 244.084 11.5933   1
   6   3  -3 269.068 11.1122   5
   6   3  -3 280.469 13.4228   3
  -6  -3   3 230.196 10.5723   1
  -6  -3   3 266.089 12.0930   2
  -6  -3   3 235.629 12.1480   5
   5   3  -3 69.6386 7.18537   3
   5   3  -3 62.1090 5.37803   5
   5   3  -3 56.7282 5.63661   1
  -5  -3   3 67.0494 5.59380   1
  -5  -3   3 70.4997 6.66796   5
  -5  -3   3 67.8619 5.93959   2
   4   3  -3 554.259 17.5380   3
   4   3  -3 561.993 15.0058   5
   4   3  -3 556.496 16.0119   1
   4   3  -3 540.376 16.1656   4
  -4  -3   3 554.097 15.7294   2
  -4  -3   3 535.775 16.2527   5
  -4  -3   3 553.389 15.1232   1
   3   3  -3 54.2683 4.55748   1
   3   3  -3 50.4818 5.58185   3
   3   3  -3 49.4701 4.62535   6
   3   3  -3 56.8247 4.16547   5
   3   3  -3 53.4471 4.97546   4
  -3  -3   3 53.4678 4.29924   2
  -3  -3   3 53.3644 4.61696   5
  -3  -3   3 45.1171 3.72864   1
   2   3  -3 681.137 15.7637   5
   2   3  -3 666.566 18.2518   4
   2   3  -3 672.015 16.8135   1
   2   3  -3 670.184 18.0445   6
  -2  -3   3 673.953 16.9289   5
  -2  -3   3 642.372 15.8486   1
   1   3  -3 360.349 12.0269   4
   1   3  -3 365.623 9.34010   5
   1   3  -3 348.885 10.3650   1
   1   3  -3 369.524 12.1228   6
  -1  -3   3 374.453 10.4544   5
  -1  -3   3 352.658 9.49682   1
   0   3  -3 15.6960 3.80156   4
   0   3  -3 13.2640 2.06780   5
   0   3  -3 6.98141 2.56895   1
   0   3  -3 12.0103 3.63509   6
   0  -3   3 9.75341 2.32330   5
   0  -3   3 10.9286 2.04410   1
  -1   3  -3 588.703 14.1657   5
  -1   3  -3 577.470 15.0273   1
  -1   3  -3 562.029 12.9263   2
   1  -3   3 556.742 14.0871   1
   1  -3   3 536.430 14.8642   5
  -2   3  -3 2723.32 55.9913   2
  -2   3  -3 2698.29 57.9721   1
  -2   3  -3 2704.28 57.1172   5
   2  -3   3 2736.42 57.0469   1
   2  -3   3 2653.71 58.1748   5
  -3   3  -3 224.323 8.88113   5
  -3   3  -3 219.364 8.01414   2
  -3   3  -3 207.983 9.42417   1
   3  -3   3 211.413 9.43915   5
   3  -3   3 202.798 9.40523   5
   3  -3   3 213.921 8.47165   1
  -4   3  -3 3.61449 4.00632   1
  -4   3  -3 10.5021 4.11851   5
  -4   3  -3 10.6265 3.36724   2
   4  -3   3 11.3487 3.58957   1
   4  -3   3 11.3426 4.32195   5
   4  -3   3 10.1878 4.43624   5
  -5   3  -3 48.6204 5.32745   2
  -5   3  -3 49.7955 6.55764   1
  -5   3  -3 48.6925 6.30783   5
   5  -3   3 60.0131 7.29049   5
   5  -3   3 45.8812 5.72992   1
   5  -3   3 53.2387 7.06065   5
  -6   3  -3 313.539 12.6156   2
  -6   3  -3 309.547 14.0472   5
  -6   3  -3 319.854 15.1182   6
  -6   3  -3 324.439 15.1323   1
   6  -3   3 339.243 15.6918   5
   6  -3   3 352.138 15.9573   1
   6  -3   3 311.373 15.2358   5
  -7   3  -3 400.764 17.8712   1
  -7   3  -3 364.305 16.0865   5
  -7   3  -3 372.745 14.7829   2
  -7   3  -3 357.147 17.1573   6
   7  -3   3 402.582 18.4759   5
   7  -3   3 402.460 18.2418   5
  -8   3  -3 78.4492 9.69537   6
  -8   3  -3 58.2800 7.14193   2
  -8   3  -3 51.3946 9.03751   1
  -8   3  -3 72.5602 8.97807   5
   8  -3   3 61.6519 9.31196   5
   9   2  -3 4.73199 6.40419   1
   9   2  -3 12.7816 6.00340   5
   9   2  -3 27.9336 6.36608   3
  -9  -2   3 14.5130 6.89795   2
  -9  -2   3 22.3741 7.72034   5
   8   2  -3 334.653 15.7829   1
   8   2  -3 330.372 15.0022   5
   8   2  -3 350.037 15.4922   3
  -8  -2   3 312.165 15.6674   2
  -8  -2   3 313.351 16.6230   5
  -8  -2   3 323.347 15.0413   1
   7   2  -3 21.7917 5.32989   1
   7   2  -3 25.5396 5.41553   3
   7   2  -3 20.1854 5.09384   5
  -7  -2   3 30.0707 5.95008   2
  -7  -2   3 22.3089 5.98785   5
  -7  -2   3 14.3339 4.74815   1
   6   2  -3 -3.2460 4.23525   3
   6   2  -3 -0.2884 4.05626   5
   6   2  -3 0.51117 3.60218   2
   6   2  -3 4.40745 4.46463   1
  -6  -2   3 -0.8192 3.99705   5
  -6  -2   3 -2.6275 3.30363   1
  -6  -2   3 -0.5734 3.79809   2
   5   2  -3 823.855 21.0397   2
   5   2  -3 820.991 21.7814   5
   5   2  -3 781.275 21.8378   1
   5   2  -3 826.274 22.9910   3
  -5  -2   3 775.432 21.8704   2
  -5  -2   3 780.452 21.2002   1
  -5  -2   3 759.835 22.5857   5
   4   2  -3 2.05927 2.72416   1
   4   2  -3 1.58719 2.57954   5
   4   2  -3 1.99226 3.44319   3
  -4  -2   3 -0.2772 2.34784   2
  -4  -2   3 1.16932 2.64417   5
  -4  -2   3 -0.3930 2.23056   1
   3   2  -3 58.7975 4.72350   5
   3   2  -3 66.6714 5.01861   1
   3   2  -3 61.0851 4.49963   4
   3   2  -3 61.4149 4.07912   6
  -3  -2   3 58.8664 4.99179   5
  -3  -2   3 56.6462 4.46774   1
  -3  -2   3 61.4504 5.01142   2
   2   2  -3 19.4287 2.79430   1
   2   2  -3 22.8466 3.16040   4
   2   2  -3 19.6872 3.06379   6
   2   2  -3 23.5022 2.74444   5
  -2  -2   3 22.3510 2.60646   1
  -2  -2   3 17.3946 2.84529   5
   1   2  -3 352.342 10.7629   4
   1   2  -3 365.055 9.78726   5
   1   2  -3 348.740 9.96691   1
  -1  -2   3 344.108 10.1288   5
  -1  -2   3 365.520 9.68490   1
   0   2  -3 3127.41 65.8433   1
   0   2  -3 3193.54 65.5497   5
   0   2  -3 3177.55 65.8435   1
   0  -2   3 3231.74 66.0607   5
   0  -2   3 3188.82 65.4077   1
  -1   2  -3 1414.55 31.1433   5
  -1   2  -3 1419.83 30.4559   2
  -1   2  -3 1452.55 31.4571   1
   1  -2   3 1367.21 30.7250   1
   1  -2   3 1422.66 31.5732   5
  -2   2  -3 1822.87 40.5782   1
  -2   2  -3 1812.87 39.5465   2
  -2   2  -3 1920.64 40.4846   5
   2  -2   3 1856.51 40.8079   5
   2  -2   3 1794.39 39.8629   1
  -3   2  -3 6725.26 136.043   2
  -3   2  -3 6552.40 136.845   5
  -3   2  -3 6697.40 137.171   1
   3  -2   3 6715.99 137.578   5
   3  -2   3 6772.44 136.481   1
  -4   2  -3 149.133 8.73454   5
  -4   2  -3 152.384 8.82935   1
  -4   2  -3 169.214 8.14720   2
   4  -2   3 152.675 8.96308   5
   4  -2   3 153.207 8.03987   1
  -5   2  -3 2050.38 46.7472   2
  -5   2  -3 1964.52 47.9970   1
  -5   2  -3 2028.58 48.0759   5
   5  -2   3 2042.34 47.0868   1
   5  -2   3 2143.86 48.7728   5
   5  -2   3 2110.82 48.8972   5
  -6   2  -3 74.4526 8.20321   5
  -6   2  -3 66.5160 7.60810   1
  -6   2  -3 68.0231 6.83643   2
   6  -2   3 69.9291 7.68154   5
   6  -2   3 75.4649 7.10214   1
   6  -2   3 61.6323 7.49374   5
  -7   2  -3 26.5854 5.77227   2
  -7   2  -3 34.7029 6.90692   1
  -7   2  -3 33.1016 6.66417   5
   7  -2   3 38.3300 6.48502   1
   7  -2   3 22.1170 6.62146   5
  -8   2  -3 296.262 16.0100   5
  -8   2  -3 335.114 15.5577   2
  -8   2  -3 347.841 17.3298   1
   8  -2   3 328.848 17.2817   5
  -9   2  -3 23.4486 6.81312   2
  -9   2  -3 30.1178 8.70370   1
  -9   2  -3 30.4067 8.08723   5
   9  -2   3 44.4852 8.93198   5
   9   1  -3 7.79661 5.69669   1
   9   1  -3 7.46796 6.16753   5
  -9  -1   3 25.1647 7.47292   2
  -9  -1   3 21.2833 6.53266   1
  -9  -1   3 19.8176 7.29840   5
   8   1  -3 155.730 11.8168   5
   8   1  -3 158.061 10.4048   3
   8   1  -3 150.313 11.4492   1
  -8  -1   3 176.872 13.6303   5
  -8  -1   3 149.399 11.5386   1
  -8  -1   3 169.766 12.1956   2
   7   1  -3 -5.3724 4.07471   3
   7   1  -3 1.72729 4.28448   1
   7   1  -3 6.30992 4.79141   5
  -7  -1   3 5.57720 4.45120   1
  -7  -1   3 9.58984 4.91897   2
  -7  -1   3 3.45377 5.09107   5
   6   1  -3 87.0043 7.88758   5
   6   1  -3 93.7694 7.80602   1
   6   1  -3 84.5358 7.38637   3
  -6  -1   3 95.9594 8.15974   2
  -6  -1   3 81.0988 7.20935   1
  -6  -1   3 87.8769 8.12400   5
   5   1  -3 592.469 18.2684   5
   5   1  -3 579.921 17.8717   1
   5   1  -3 575.936 17.7134   3
  -5  -1   3 591.354 18.8437   5
  -5  -1   3 571.307 17.6546   2
  -5  -1   3 606.928 17.7963   1
   4   1  -3 299.118 10.9965   5
   4   1  -3 315.206 11.2636   3
   4   1  -3 291.856 10.8281   1
  -4  -1   3 277.242 10.5767   2
  -4  -1   3 298.851 11.5897   5
  -4  -1   3 301.457 10.6638   1
   3   1  -3 93.6783 5.60243   1
   3   1  -3 99.3355 5.66096   5
  -3  -1   3 100.944 5.55473   1
  -3  -1   3 94.9516 5.61872   2
  -3  -1   3 84.5190 5.63075   5
   2   1  -3 602.543 15.0824   4
   2   1  -3 633.618 16.0662   1
   2   1  -3 656.023 16.2996   5
  -2  -1   3 662.869 16.6406   5
  -2  -1   3 667.219 16.2602   2
  -2  -1   3 634.506 15.8886   1
   1   1  -3 18.2528 2.48926   4
   1   1  -3 15.6547 2.36471   5
   1   1  -3 15.1883 2.47389   1
  -1  -1   3 15.3069 2.27460   1
  -1  -1   3 15.4145 2.39873   5
   0   1  -3 208.314 7.10914   5
   0   1  -3 232.868 7.04684   2
   0   1  -3 229.202 7.31699   1
   0  -1   3 217.720 7.25284   5
   0  -1   3 215.410 6.90853   1
  -1   1  -3 712.411 17.1590   5
  -1   1  -3 698.124 16.9796   1
  -1   1  -3 706.444 16.6573   2
   1  -1   3 705.910 16.7125   1
   1  -1   3 685.434 17.0966   5
  -2   1  -3 305.487 9.68819   1
  -2   1  -3 297.316 9.18478   2
  -2   1  -3 312.049 9.92544   5
   2  -1   3 306.009 9.76960   5
   2  -1   3 303.374 9.32322   1
  -3   1  -3 70.0493 5.12385   2
  -3   1  -3 82.9343 5.80108   1
  -3   1  -3 80.7105 5.97748   5
   3  -1   3 76.9549 5.54572   5
   3  -1   3 76.1994 5.26702   1
  -4   1  -3 742.305 20.1604   1
  -4   1  -3 733.210 19.6923   2
  -4   1  -3 728.416 20.5237   5
   4  -1   3 749.601 20.5024   5
   4  -1   3 742.331 19.6908   1
  -5   1  -3 27.3579 5.19391   5
  -5   1  -3 18.5577 4.38434   2
  -5   1  -3 23.8811 4.74868   1
   5  -1   3 21.4780 4.29396   1
   5  -1   3 20.8745 4.93617   5
  -6   1  -3 48.8825 7.04934   5
  -6   1  -3 43.8196 6.05459   2
  -6   1  -3 43.2634 6.59128   1
   6  -1   3 45.1960 6.88627   5
   6  -1   3 46.5240 6.30889   1
  -7   1  -3 46.1790 7.08326   1
  -7   1  -3 49.8043 7.11539   2
  -7   1  -3 51.9614 7.49742   5
   7  -1   3 51.4552 6.89537   1
   7  -1   3 39.5619 6.94169   5
  -8   1  -3 43.8371 7.75988   1
  -8   1  -3 38.9377 7.63459   5
  -8   1  -3 44.9360 7.15394   2
   8  -1   3 44.5690 7.64450   5
   8  -1   3 37.5730 7.21942   1
  -9   1  -3 348.613 18.2156   5
  -9   1  -3 317.535 17.1913   1
  -9   1  -3 332.572 16.3082   2
   9  -1   3 336.030 17.4109   5
   9  -1   3 337.684 17.2732   1
   9   0  -3 127.409 12.2314   5
   9   0  -3 112.464 11.0287   1
  -9   0   3 124.060 11.6590   1
  -9   0   3 136.645 11.8413   2
  -9   0   3 141.890 12.8629   5
   8   0  -3 437.107 19.0311   5
   8   0  -3 432.800 18.5647   1
  -8   0   3 436.831 19.7857   5
  -8   0   3 449.810 18.6228   2
  -8   0   3 433.543 18.7472   1
   7   0  -3 52.5728 7.08444   1
   7   0  -3 66.6806 8.21947   5
   7   0  -3 61.1857 6.36731   3
  -7   0   3 48.1064 7.76776   5
  -7   0   3 70.3830 8.00205   2
  -7   0   3 67.1962 7.49303   1
   6   0  -3 1705.44 42.4977   5
   6   0  -3 1658.26 39.9271   3
   6   0  -3 1743.77 41.9060   1
  -6   0   3 1788.30 42.2422   1
  -6   0   3 1703.97 41.6909   2
  -6   0   3 1698.38 43.2329   5
   5   0  -3 207.075 10.1166   1
   5   0  -3 217.229 9.56284   3
   5   0  -3 224.361 10.8402   5
  -5   0   3 220.940 11.0093   5
  -5   0   3 202.945 9.94664   2
  -5   0   3 195.256 9.77837   1
   4   0  -3 133.948 7.18831   1
   4   0  -3 129.408 7.56221   5
  -4   0   3 119.487 7.71825   5
  -4   0   3 125.281 7.40119   1
  -4   0   3 133.026 7.34776   2
   3   0  -3 1765.15 40.7476   5
   3   0  -3 1850.10 40.5234   1
  -3   0   3 1839.83 40.4661   1
  -3   0   3 1876.46 41.4065   5
  -3   0   3 1796.53 40.4355   2
   2   0  -3 302.643 9.81395   5
   2   0  -3 317.032 9.71711   1
  -2   0   3 323.914 9.63234   1
  -2   0   3 318.956 10.1031   5
  -2   0   3 328.534 9.75258   2
   1   0  -3 26.3474 2.98819   5
   1   0  -3 24.9395 2.85487   1
  -1   0   3 21.3295 2.62072   2
  -1   0   3 27.4011 2.95268   5
  -1   0   3 21.0719 2.59409   1
   0   0  -3 4.29473 2.02136   1
   0   0  -3 4.41258 1.99225   2
   0   0  -3 3.67010 2.15450   5
   0   0   3 5.11524 1.84907   1
   0   0   3 0.33674 1.96241   5
  -1   0  -3 1080.03 24.6697   5
  -1   0  -3 1109.12 24.3324   2
  -1   0  -3 1092.46 24.3695   1
   1   0   3 1121.51 24.2899   1
   1   0   3 1078.25 24.5911   5
  -2   0  -3 1838.50 39.6046   1
  -2   0  -3 1823.46 39.4715   2
  -2   0  -3 1899.86 40.0325   5
   2   0   3 1768.76 39.3063   1
   2   0   3 1855.07 39.8468   5
  -3   0  -3 220.826 8.41029   1
  -3   0  -3 230.411 8.40919   2
  -3   0  -3 240.762 8.96644   5
   3   0   3 233.202 8.25936   1
   3   0   3 253.149 8.81358   5
  -4   0  -3 3727.34 78.7734   5
  -4   0  -3 3644.58 77.9330   2
  -4   0  -3 3664.51 78.0443   1
   4   0   3 3732.09 78.4672   5
   4   0   3 3717.25 78.0995   1
  -5   0  -3 1852.64 42.9875   2
  -5   0  -3 1892.59 43.1818   1
  -5   0  -3 1871.75 43.9557   5
   5   0   3 1827.82 42.9265   1
   5   0   3 1885.11 43.4371   5
  -6   0  -3 -5.7896 4.09828   2
  -6   0  -3 8.54007 4.36498   1
  -6   0  -3 -1.3442 4.26414   5
   6   0   3 1.75918 4.09695   5
   6   0   3 8.53497 4.06242   1
  -7   0  -3 1675.78 44.0611   5
  -7   0  -3 1785.65 43.3898   2
  -7   0  -3 1762.67 43.3475   1
   7   0   3 1758.17 43.3001   1
   7   0   3 1697.36 43.2217   5
  -8   0  -3 -3.2544 6.00816   5
  -8   0  -3 5.60732 5.46605   2
  -8   0  -3 -4.3165 5.16496   1
   8   0   3 6.08675 5.21158   5
   8   0   3 13.4358 5.63889   1
  -9   0  -3 11.5669 6.51519   2
  -9   0  -3 1.71759 5.80482   1
  -9   0  -3 5.20481 6.66471   5
   9   0   3 9.88924 6.29274   1
   9   0   3 -0.6218 5.38813   5
   9  -1  -3 125.526 12.3305   5
  -9   1   3 107.505 11.4824   5
  -9   1   3 134.654 12.5445   1
  -9   1   3 111.434 11.0303   2
   8  -1  -3 22.1273 6.34716   1
   8  -1  -3 11.9577 6.47512   5
  -8   1   3 16.9563 6.84320   5
  -8   1   3 24.2062 6.84381   1
  -8   1   3 14.2622 6.54866   2
   7  -1  -3 192.039 11.6913   1
   7  -1  -3 174.732 12.4082   5
  -7   1   3 200.184 12.1450   2
  -7   1   3 189.830 12.3718   1
  -7   1   3 215.828 12.9776   5
   6  -1  -3 10.7511 4.39981   1
   6  -1  -3 -0.9598 3.24279   3
   6  -1  -3 -0.2251 4.23542   5
  -6   1   3 2.17127 4.31807   2
  -6   1   3 -4.6324 4.11866   1
  -6   1   3 2.25245 4.55829   5
   5  -1  -3 386.651 12.3388   3
   5  -1  -3 390.691 15.1766   5
   5  -1  -3 381.578 13.8242   1
  -5   1   3 384.192 14.4447   1
  -5   1   3 382.519 13.8853   2
  -5   1   3 391.098 14.8718   5
   4  -1  -3 -1.3926 3.13000   5
   4  -1  -3 -1.3476 2.81691   1
  -4   1   3 0.51127 3.04511   2
  -4   1   3 -1.0891 3.11253   5
  -4   1   3 -0.6784 2.93578   1
   3  -1  -3 915.803 22.3590   1
   3  -1  -3 917.064 23.1020   5
  -3   1   3 915.854 23.0996   5
  -3   1   3 912.848 22.1978   2
  -3   1   3 872.560 22.3559   1
   2  -1  -3 1200.86 27.4274   5
   2  -1  -3 1197.85 26.9395   1
  -2   1   3 1135.74 26.3634   2
  -2   1   3 1181.75 26.9990   1
  -2   1   3 1184.99 26.6942   2
  -2   1   3 1191.87 27.3709   5
   1  -1  -3 1397.88 30.7598   2
   1  -1  -3 1406.06 31.1373   5
   1  -1  -3 1427.09 30.7277   1
  -1   1   3 1410.54 30.5153   2
  -1   1   3 1416.75 30.3366   2
  -1   1   3 1421.30 31.1997   5
  -1   1   3 1407.56 30.8071   1
   0  -1  -3 1768.92 37.5245   5
   0  -1  -3 1738.20 37.1089   2
   0  -1  -3 1695.34 37.0831   1
   0   1   3 1806.50 36.9560   2
   0   1   3 1737.88 36.7581   2
   0   1   3 1791.13 37.2666   1
   0   1   3 1795.38 37.4447   5
  -1  -1  -3 7.42281 1.91398   1
  -1  -1  -3 5.04845 2.10559   5
  -1  -1  -3 3.09165 1.97864   2
   1   1   3 3.46317 1.84365   2
   1   1   3 8.26344 2.11836   5
   1   1   3 7.40791 1.92839   1
  -2  -1  -3 396.180 10.6305   1
  -2  -1  -3 390.798 10.6351   1
  -2  -1  -3 412.002 11.2248   5
  -2  -1  -3 380.424 10.6109   2
   2   1   3 394.596 10.3553   2
   2   1   3 403.144 10.7176   1
   2   1   3 391.339 10.7438   5
  -3  -1  -3 906.618 21.5141   1
  -3  -1  -3 872.640 22.0373   5
  -3  -1  -3 940.756 21.8277   2
   3   1   3 911.350 21.1742   2
   3   1   3 948.590 21.8601   5
   3   1   3 882.325 21.5759   1
  -4  -1  -3 26.4302 3.68942   1
  -4  -1  -3 27.2775 3.92701   5
   4   1   3 21.6837 3.51852   5
   4   1   3 29.0601 4.07786   2
   4   1   3 25.6477 3.53576   1
  -5  -1  -3 19.4057 4.00333   2
  -5  -1  -3 22.6079 4.28379   1
  -5  -1  -3 27.5484 4.88475   5
   5   1   3 22.6858 4.15124   5
   5   1   3 22.2512 4.18083   1
  -6  -1  -3 985.908 26.7521   2
  -6  -1  -3 981.491 26.3700   1
  -6  -1  -3 1003.57 27.8799   5
   6   1   3 1019.72 26.7556   5
   6   1   3 986.773 26.6299   1
  -7  -1  -3 7.67174 5.24579   5
  -7  -1  -3 -2.4922 3.88362   1
  -7  -1  -3 -4.0587 4.35469   2
   7   1   3 4.92860 4.52114   5
   7   1   3 -3.1638 4.42695   1
  -8  -1  -3 45.9227 6.88984   1
  -8  -1  -3 41.5166 7.95905   5
  -8  -1  -3 42.9756 7.13113   2
   8   1   3 41.5013 6.83107   5
   8   1   3 35.4496 6.76062   1
  -9  -1  -3 263.389 14.6973   1
  -9  -1  -3 263.169 15.6978   5
  -9  -1  -3 248.151 14.9432   2
   9   1   3 262.678 14.3888   5
   9   1   3 262.681 14.7850   1
 -10  -1  -3 55.2284 9.55220   5
 -10  -1  -3 71.5663 9.57061   2
  10   1   3 73.8262 10.0720   1
  10   1   3 87.0749 10.0571   5
   8  -2  -3 12.5356 6.52731   5
  -8   2   3 18.7376 5.82638   2
  -8   2   3 25.3114 7.14960   1
  -8   2   3 15.3602 7.08989   5
   7  -2  -3 425.789 19.0404   5
  -7   2   3 420.622 17.9006   5
  -7   2   3 403.989 16.2430   2
  -7   2   3 410.374 17.7570   1
   6  -2  -3 161.220 11.5953   5
   6  -2  -3 160.577 9.96280   1
  -6   2   3 176.371 11.1192   1
  -6   2   3 169.005 9.58419   2
  -6   2   3 171.855 10.8899   5
   5  -2  -3 75.4965 7.83400   5
   5  -2  -3 72.1675 6.57503   1
  -5   2   3 97.7645 8.09498   5
  -5   2   3 95.2032 7.94400   1
  -5   2   3 82.1596 6.67134   2
  -5   2   3 79.9912 6.78924   2
   4  -2  -3 1248.62 30.2129   1
   4  -2  -3 1256.47 31.4773   5
  -4   2   3 1254.88 29.6268   2
  -4   2   3 1183.56 28.9664   2
  -4   2   3 1289.37 31.0445   1
  -4   2   3 1240.77 30.8269   5
   3  -2  -3 336.600 10.7036   1
   3  -2  -3 325.654 11.6289   5
  -3   2   3 327.222 11.1942   5
  -3   2   3 339.710 11.3328   1
  -3   2   3 331.063 10.0848   2
  -3   2   3 320.239 10.1801   2
   2  -2  -3 899.819 22.6155   5
   2  -2  -3 909.744 21.9086   1
  -2   2   3 955.295 21.2439   2
  -2   2   3 922.695 21.3310   2
  -2   2   3 979.993 22.4990   5
  -2   2   3 948.559 22.4427   1
   1  -2  -3 515.079 13.1494   1
   1  -2  -3 540.833 13.9675   5
   1  -2  -3 528.108 13.4539   2
  -1   2   3 544.092 12.5126   2
  -1   2   3 534.718 13.5765   1
  -1   2   3 532.006 12.5247   2
  -1   2   3 558.444 13.5223   5
   0  -2  -3 18.1388 2.34028   5
   0  -2  -3 18.9720 2.05377   1
   0   2   3 18.9805 2.23131   1
   0   2   3 19.4820 2.17798   5
   0   2   3 18.6208 1.46638   2
  -1  -2  -3 124.473 4.35105   1
  -1  -2  -3 119.053 4.73876   5
   1   2   3 125.690 4.30999   5
   1   2   3 119.515 4.67791   1
  -2  -2  -3 50.0292 3.06367   1
  -2  -2  -3 50.2718 3.66002   5
   2   2   3 53.7423 2.52719   2
   2   2   3 57.4131 3.58112   1
   2   2   3 57.4096 3.28682   5
   2   2   3 54.7082 2.53213   2
  -3  -2  -3 1782.35 38.9006   2
  -3  -2  -3 1814.35 38.6963   1
  -3  -2  -3 1810.98 39.5026   5
   3   2   3 1817.50 39.0793   1
   3   2   3 1828.90 38.6920   5
   3   2   3 1797.70 37.7967   2
  -4  -2  -3 366.135 11.4764   2
  -4  -2  -3 385.237 11.3231   1
  -4  -2  -3 377.424 12.2003   5
   4   2   3 374.353 11.6071   1
   4   2   3 381.083 10.5956   2
   4   2   3 400.239 11.5375   5
  -5  -2  -3 165.403 8.81466   5
  -5  -2  -3 168.790 7.76180   1
  -5  -2  -3 175.063 8.40710   2
   5   2   3 159.752 8.09049   1
   5   2   3 180.041 8.08352   5
   5   2   3 171.069 7.06834   2
  -6  -2  -3 1665.34 40.7025   5
  -6  -2  -3 1693.34 39.7398   2
  -6  -2  -3 1592.44 38.6812   1
   6   2   3 1670.73 38.8411   5
   6   2   3 1657.15 37.7952   2
   6   2   3 1652.17 39.5378   1
  -7  -2  -3 606.148 20.2383   2
  -7  -2  -3 623.946 21.6335   5
  -7  -2  -3 636.931 19.9732   1
   7   2   3 642.421 20.5347   1
   7   2   3 632.019 19.8331   5
  -8  -2  -3 24.7183 7.00411   5
  -8  -2  -3 25.1771 6.37571   2
  -8  -2  -3 33.2769 5.97906   1
   8   2   3 29.2389 5.79880   5
   8   2   3 29.4718 6.23936   1
  -9  -2  -3 745.849 25.1686   2
  -9  -2  -3 713.414 26.2346   5
   9   2   3 686.655 24.2532   1
   9   2   3 641.447 22.6182   5
 -10  -2  -3 9.02067 8.06906   5
  10   2   3 8.50801 5.98326   1
  10   2   3 -0.0982 5.24357   5
   8  -3  -3 8.05029 6.96597   5
  -8   3   3 -0.5844 6.42636   1
  -8   3   3 1.77832 5.98179   5
  -8   3   3 3.99170 4.61832   2
   7  -3  -3 205.894 13.9765   5
  -7   3   3 206.376 12.9723   5
  -7   3   3 234.506 14.0480   1
  -7   3   3 203.519 11.0992   2
   6  -3  -3 116.891 10.2357   5
  -6   3   3 110.473 8.00309   2
  -6   3   3 117.222 9.63759   1
  -6   3   3 110.925 9.47871   5
   5  -3  -3 23.5302 5.64067   5
   5  -3  -3 14.0318 4.14033   1
  -5   3   3 23.8348 5.20397   5
  -5   3   3 21.8055 5.51504   1
  -5   3   3 11.1549 3.43888   2
  -5   3   3 18.6613 4.20319   2
   4  -3  -3 180.815 9.99182   5
   4  -3  -3 175.184 8.54286   1
  -4   3   3 180.608 7.90091   2
  -4   3   3 172.207 7.27173   2
  -4   3   3 182.193 9.61270   1
  -4   3   3 184.798 9.14824   5
   3  -3  -3 149.126 6.88373   1
   3  -3  -3 150.608 8.23398   5
  -3   3   3 154.301 5.92912   2
  -3   3   3 167.826 8.20294   1
  -3   3   3 162.774 7.63491   5
  -3   3   3 161.958 6.31512   2
   2  -3  -3 21.0765 3.24068   5
   2  -3  -3 16.2548 2.49319   1
  -2   3   3 18.1896 2.92126   5
  -2   3   3 18.0832 3.09646   1
  -2   3   3 24.5152 2.74245   4
   1  -3  -3 2376.32 50.3221   5
  -1   3   3 2371.54 50.0333   1
  -1   3   3 2367.37 49.9201   4
   0  -3  -3 19.3445 2.36284   5
   0   3   3 14.3240 2.14329   1
  -1  -3  -3 -1.0889 1.44241   5
   1   3   3 1.78767 1.50604   1
   1   3   3 0.18264 1.40783   1
  -2  -3  -3 25.7116 2.37500   5
   2   3   3 18.8468 2.27973   1
  -3  -3  -3 594.316 14.9208   5
   3   3   3 588.905 14.6408   1
  -4  -3  -3 568.715 15.4769   5
  -4  -3  -3 558.146 14.1111   1
  -4  -3  -3 543.830 14.0779   1
   4   3   3 576.416 13.8563   5
   4   3   3 562.317 17.1645   3
   4   3   3 549.707 14.9722   1
  -5  -3  -3 875.416 22.5759   5
  -5  -3  -3 804.186 21.5101   2
  -5  -3  -3 805.541 20.7631   1
   5   3   3 886.686 24.0886   3
   5   3   3 846.099 21.8487   1
   5   3   3 871.723 20.6596   5
   5   3   3 842.127 19.0250   2
  -6  -3  -3 19.8406 4.52612   2
  -6  -3  -3 13.1308 3.83659   1
  -6  -3  -3 14.1457 4.83115   5
   6   3   3 10.7795 3.25213   2
   6   3   3 9.13409 3.74033   5
   6   3   3 18.0304 4.48542   1
   6   3   3 17.6972 5.11590   3
  -7  -3  -3 53.2359 7.07355   5
  -7  -3  -3 40.9199 6.11873   2
  -7  -3  -3 54.7798 5.80229   1
   7   3   3 48.8405 5.82727   5
   7   3   3 44.5638 4.55718   2
   7   3   3 55.1671 6.68155   1
  -8  -3  -3 815.023 26.3928   5
   8   3   3 784.956 22.8631   5
   8   3   3 781.707 24.7026   1
  -9  -3  -3 45.2641 8.72503   5
   9   3   3 72.4677 8.47026   1
   9   3   3 72.3170 7.57439   5
 -10  -3  -3 129.125 12.8727   5
  10   3   3 125.645 11.0904   5
  10   3   3 127.407 11.8540   1
   7  -4  -3 12.9626 6.89160   5
  -7   4   3 14.3199 6.49370   1
  -7   4   3 10.0789 3.80711   2
  -7   4   3 4.91042 5.58917   5
   6  -4  -3 114.096 10.7264   5
  -6   4   3 127.115 6.96107   2
  -6   4   3 106.558 6.79785   2
  -6   4   3 104.786 8.87977   5
  -6   4   3 136.279 11.1342   1
   5  -4  -3 437.000 17.3796   5
  -5   4   3 408.345 11.6098   2
  -5   4   3 413.109 16.1726   1
  -5   4   3 399.830 14.3530   5
  -5   4   3 423.139 14.2729   4
   4  -4  -3 372.616 14.8118   5
  -4   4   3 382.590 12.5736   5
  -4   4   3 386.036 14.4023   1
  -4   4   3 366.969 11.9170   4
   3  -4  -3 59.7840 6.05996   5
   3  -4  -3 57.2709 5.19885   1
  -3   4   3 64.2456 5.87643   1
  -3   4   3 67.3471 5.32091   4
  -3   4   3 60.9725 5.13346   5
   2  -4  -3 1122.51 27.2285   5
  -2   4   3 1094.81 26.4380   4
  -2   4   3 1155.89 26.8433   1
   1  -4  -3 126.530 5.90487   5
  -1   4   3 113.895 6.21458   4
  -1   4   3 130.252 5.78768   1
   0  -4  -3 183.465 6.10308   5
   0   4   3 186.250 6.22130   1
   0   4   3 174.802 6.21218   1
   0   4   3 190.588 8.18266   4
   1   4   3 1696.49 35.2069   1
   1   4   3 1689.95 35.2615   1
   2   4   3 1358.80 28.5188   1
   2   4   3 1334.98 28.5187   1
  -3  -4  -3 271.297 7.96126   5
   3   4   3 265.823 7.98963   1
   3   4   3 269.061 8.09628   1
   3   4   3 285.454 11.4118   3
  -4  -4  -3 249.186 8.57556   5
   4   4   3 241.422 11.1343   3
   4   4   3 230.255 8.17656   1
  -5  -4  -3 690.439 19.2495   5
   5   4   3 706.920 18.8796   1
   5   4   3 747.544 22.0913   3
  -6  -4  -3 56.1968 6.29903   2
  -6  -4  -3 58.7369 6.00558   5
   6   4   3 49.1111 6.80487   3
   6   4   3 55.6190 5.74110   1
   6   4   3 59.2907 4.92160   5
  -7  -4  -3 383.259 15.6876   5
   7   4   3 434.892 15.3980   1
   7   4   3 397.718 12.6534   5
   7   4   3 408.706 17.2908   3
  -8  -4  -3 250.789 13.9511   5
   8   4   3 261.416 11.0100   5
   8   4   3 293.148 13.7380   1
   8   4   3 254.037 14.9947   3
  -9  -4  -3 466.047 20.5978   5
   9   4   3 463.598 13.4664   2
   9   4   3 470.660 19.1120   1
   9   4   3 451.185 16.0473   5
 -10  -4  -3 -6.8320 6.60072   5
  10   4   3 4.15298 5.23052   5
  10   4   3 9.51046 6.53754   1
   6  -5  -3 17.7724 6.87009   5
  -6   5   3 21.0783 6.31929   1
  -6   5   3 11.9554 4.47249   5
   5  -5  -3 500.521 19.4238   5
  -5   5   3 493.044 18.6580   1
  -5   5   3 476.599 14.4450   5
   4  -5  -3 87.4512 8.33359   5
  -4   5   3 77.8815 7.23501   1
  -4   5   3 80.5704 6.88194   4
   3  -5  -3 0.10626 3.79644   5
  -3   5   3 12.5770 4.05288   4
  -3   5   3 12.6259 4.43190   1
   2  -5  -3 454.440 14.5163   5
  -2   5   3 471.353 14.3157   1
  -2   5   3 476.624 14.8952   4
   1  -5  -3 6.34830 2.65846   5
  -1   5   3 3.37226 3.46312   4
  -1   5   3 2.56295 2.43107   1
   0   5   3 82.1384 4.39702   1
   0   5   3 86.9750 6.66781   4
   0   5   3 78.9351 4.46346   1
   1   5   3 1185.16 29.8404   4
   2   5   3 16.8443 4.18199   3
   3   5   3 55.8566 3.55553   1
   3   5   3 54.0660 3.55722   1
   3   5   3 48.6031 3.60315   1
   3   5   3 51.9982 5.92598   3
  -4  -5  -3 451.269 12.2028   5
   4   5   3 450.419 16.5244   3
   4   5   3 442.470 12.2826   1
   4   5   3 445.438 12.2020   1
  -5  -5  -3 24.6497 3.79581   5
   5   5   3 27.0853 5.86491   3
   5   5   3 23.6555 3.57261   1
  -6  -5  -3 243.910 10.9242   5
   6   5   3 269.966 13.6766   3
   6   5   3 248.555 10.6778   1
  -7  -5  -3 1404.04 35.8609   5
   7   5   3 1386.92 34.6981   1
   7   5   3 1389.86 38.3866   3
  -8  -5  -3 509.503 19.4871   5
   8   5   3 529.854 18.5349   1
   8   5   3 519.641 21.3637   3
  -9  -5  -3 115.490 11.5313   5
   9   5   3 107.262 9.48925   1
   9   5   3 106.134 11.4499   3
   9   5   3 96.8003 7.06094   5
 -10  -5  -3 137.122 13.0310   5
  10   5   3 120.699 11.3325   1
  10   5   3 131.655 8.69694   5
  -6   6   3 24.4536 7.01557   1
  -5   6   3 73.1883 8.31157   1
  -4   6   3 192.333 10.8316   4
  -4   6   3 190.305 11.2621   1
  -3   6   3 253.393 11.8521   4
  -3   6   3 291.533 12.0796   1
  -2   6   3 1037.78 25.9611   1
  -2   6   3 1002.43 27.0547   4
   1  -6  -3 10.8586 5.18023   5
  -1   6   3 1.90986 3.11759   1
  -1   6   3 4.96381 3.96303   4
   0   6   3 1183.29 26.8716   1
   0   6   3 1242.48 27.0274   1
   0   6   3 1193.61 31.1059   4
   1   6   3 172.957 10.1134   4
   2   6   3 95.7692 8.38629   4
   2   6   3 79.7541 7.33063   3
   3   6   3 603.682 19.7995   3
   4   6   3 396.554 10.9974   1
   4   6   3 392.074 16.0030   3
   4   6   3 415.195 11.1035   1
   5   6   3 0.32892 4.43015   1
   5   6   3 4.37394 3.02109   1
   5   6   3 -4.8015 4.81832   3
   6   6   3 134.936 11.7608   3
   6   6   3 139.621 8.21924   1
   7   6   3 123.833 11.2782   3
   7   6   3 136.391 9.06855   1
   8   6   3 433.714 16.5570   1
   8   6   3 452.972 20.2634   3
   9   6   3 1.63872 5.13210   1
   9   6   3 -2.8213 6.08556   3
  10   6   3 429.538 22.5380   3
  10   6   3 436.116 19.1786   1
  -5   7   3 57.4946 8.30001   1
  -4   7   3 28.1019 5.73666   1
  -3   7   3 870.243 25.8698   4
  -3   7   3 893.208 25.1758   1
  -2   7   3 87.0251 7.19087   1
  -2   7   3 77.0068 8.04587   4
  -1   7   3 383.827 12.1545   1
  -1   7   3 351.111 15.0132   4
   0   7   3 75.4439 5.17110   1
   0   7   3 75.8468 8.03780   4
   1   7   3 -0.8938 4.60487   4
   2   7   3 216.788 12.1845   4
   2   7   3 184.787 11.1651   3
   3   7   3 684.531 22.3018   3
   4   7   3 2.18569 5.32197   3
   5   7   3 11.3213 5.62570   3
   5   7   3 11.3164 3.33710   1
   6   7   3 163.800 8.36056   1
   6   7   3 169.227 12.9680   3
   7   7   3 -10.259 5.42550   3
   7   7   3 2.42230 3.88585   1
   8   7   3 -2.0995 6.38127   3
   8   7   3 1.42840 4.57451   1
   9   7   3 222.619 12.5796   1
   9   7   3 198.400 15.7620   3
  -4   8   3 53.5678 7.72733   1
  -3   8   3 94.0194 8.40543   1
  -3   8   3 110.439 10.0608   4
  -2   8   3 3.64625 5.37998   4
  -2   8   3 8.02722 4.26899   1
  -1   8   3 1226.16 29.5478   1
  -1   8   3 1194.53 33.8564   4
   0   8   3 116.329 6.61064   1
   0   8   3 127.312 10.5199   4
   1   8   3 131.471 10.9945   4
   2   8   3 652.090 21.9091   3
   2   8   3 642.665 22.9017   4
   3   8   3 314.219 14.9390   3
   4   8   3 206.964 13.2465   3
   5   8   3 133.852 12.1653   3
   6   8   3 218.533 9.36478   1
   6   8   3 218.920 14.6595   3
   7   8   3 -4.7243 5.58995   3
   7   8   3 7.91304 4.11588   1
   8   8   3 42.3927 6.01377   1
   8   8   3 18.2080 8.30456   3
   9   8   3 278.790 14.2479   1
   9   8   3 289.565 18.9912   3
  -2   9   3 13.0893 4.72835   1
  -2   9   3 -3.1023 5.64538   4
  -1   9   3 167.620 9.31100   1
  -1   9   3 167.272 12.9397   4
   0   9   3 60.2939 8.58326   4
   0   9   3 53.0190 5.02278   1
   1   9   3 23.8227 6.78376   4
   2   9   3 70.0872 9.50717   4
   3   9   3 9.81090 6.33551   3
   4   9   3 16.1046 6.69520   3
   5   9   3 747.140 27.3184   3
   6   9   3 39.4648 9.05242   3
   6   9   3 54.9181 5.07299   1
   7   9   3 90.0263 11.2911   3
   7   9   3 82.1517 6.78703   1
   8   9   3 22.8862 5.26156   1
   8   9   3 25.8633 8.76121   3
   0  10   3 52.7635 9.12507   4
   0  10   3 53.1271 5.57847   1
   1  10   3 417.952 20.4107   4
   2  10   3 80.7416 10.6244   4
   3  10   3 259.958 16.1872   3
   4  10   3 92.9542 10.7365   3
   5  10   3 51.8467 9.35650   3
   6  10   3 3.93228 7.48542   3
   7  10   3 165.248 15.2133   3
   7  10   3 175.262 9.19595   1
   4  11   3 74.5300 11.0058   3
   5  10  -4 86.9341 11.8753   4
   5  10  -4 76.2247 7.60165   1
   5  10  -4 64.2788 10.5804   3
   4  10  -4 203.107 15.1351   3
   4  10  -4 178.996 10.5061   1
   4  10  -4 191.923 16.8698   4
   3  10  -4 1.67770 4.33042   1
   3  10  -4 0.86585 7.36496   4
   3  10  -4 2.18627 6.30825   3
   2  10  -4 151.472 13.4847   3
   2  10  -4 159.251 10.0152   1
   2  10  -4 146.362 14.9138   4
   1  10  -4 28.1129 5.70061   1
   1  10  -4 31.1550 7.93307   3
   1  10  -4 47.5660 6.20965   1
   1  10  -4 37.5551 9.48459   4
   7   9  -4 241.043 17.2418   3
   7   9  -4 235.532 12.9060   1
   6   9  -4 122.337 12.3053   3
   6   9  -4 141.238 10.0485   1
   6   9  -4 148.960 14.9619   4
   5   9  -4 14.9084 5.11498   1
   5   9  -4 19.9805 7.22961   3
   5   9  -4 19.1728 7.55865   4
   4   9  -4 427.550 21.0891   4
   4   9  -4 435.429 20.1362   3
   4   9  -4 422.155 14.9204   1
   3   9  -4 186.500 13.6346   3
   3   9  -4 188.125 15.0657   4
   3   9  -4 179.987 9.90424   1
   2   9  -4 843.146 28.0568   3
   2   9  -4 851.521 23.5806   1
   2   9  -4 864.438 31.2431   4
   1   9  -4 2.58109 6.27113   4
   1   9  -4 -10.222 4.10927   1
   1   9  -4 2.52674 4.30244   1
   1   9  -4 -7.3085 5.40118   3
   0   9  -4 5.47610 7.46033   4
   0   9  -4 1.73495 5.41883   3
   0   9  -4 0.37416 4.37921   1
  -1   9  -4 34.3926 6.32003   1
  -1   9  -4 37.9609 9.36812   4
   8   8  -4 56.5473 9.46304   3
   8   8  -4 75.4380 8.53935   1
   7   8  -4 -7.4120 5.04854   3
   7   8  -4 3.49828 4.46436   1
   6   8  -4 95.7440 8.17236   1
   6   8  -4 81.5452 9.78491   3
   6   8  -4 99.4603 11.7319   4
   5   8  -4 475.628 21.3106   4
   5   8  -4 445.978 20.1722   3
   5   8  -4 466.603 15.9636   1
   4   8  -4 35.4812 5.29878   1
   4   8  -4 17.7635 6.78649   3
   4   8  -4 19.4487 7.96436   4
   3   8  -4 76.1783 8.99980   3
   3   8  -4 57.3136 5.76550   1
   3   8  -4 63.7343 9.54098   4
   2   8  -4 950.111 25.3687   1
   2   8  -4 980.334 29.9245   3
   2   8  -4 1001.46 32.0499   4
   1   8  -4 116.195 10.6813   3
   1   8  -4 126.100 12.3747   6
   1   8  -4 113.919 11.6955   4
   1   8  -4 120.744 8.39697   1
   1   8  -4 92.7381 7.56654   1
   0   8  -4 921.430 30.9902   4
   0   8  -4 955.302 31.8957   6
   0   8  -4 931.586 27.8760   3
   0   8  -4 956.296 25.4544   1
  -1   8  -4 8.09453 6.65970   6
  -1   8  -4 15.9980 7.24911   4
  -1   8  -4 18.7880 4.66073   1
  -1   8  -4 21.3561 5.64906   3
  -2   8  -4 277.963 13.2189   1
  -2   8  -4 287.727 17.3691   4
  -2   8  -4 265.375 17.0609   6
  -3   8  -4 6.82418 5.47201   1
  -3   8  -4 -1.5705 7.15688   4
  -3   8  -4 -3.2428 7.49708   6
   8   7  -4 -8.0948 5.37158   3
   8   7  -4 3.49415 5.21647   1
   7   7  -4 156.584 10.6441   1
   7   7  -4 163.354 13.3604   3
   6   7  -4 37.8628 5.94054   1
   6   7  -4 33.4483 7.69571   3
   6   7  -4 49.9720 8.72578   4
   5   7  -4 228.657 14.3351   4
   5   7  -4 227.532 10.9639   1
   5   7  -4 228.247 14.3350   3
   4   7  -4 285.587 15.4007   3
   4   7  -4 296.752 11.7492   1
   4   7  -4 284.461 15.6794   4
   3   7  -4 123.702 7.77659   1
   3   7  -4 123.511 10.6713   3
   3   7  -4 118.178 11.1025   4
   2   7  -4 148.586 11.2082   3
   2   7  -4 163.894 12.2516   6
   2   7  -4 130.832 11.4725   4
   2   7  -4 127.979 7.93692   1
   1   7  -4 0.73184 3.36500   1
   1   7  -4 7.03939 5.50029   4
   1   7  -4 9.64096 5.74866   6
   1   7  -4 -3.0874 3.34183   1
   1   7  -4 -2.7581 4.16709   3
   0   7  -4 475.958 20.3785   4
   0   7  -4 475.230 17.1103   3
   0   7  -4 478.503 15.4405   1
   0   7  -4 450.368 20.0296   6
  -1   7  -4 48.4188 8.68744   4
  -1   7  -4 64.4340 9.49729   6
  -1   7  -4 45.0064 6.02818   3
  -1   7  -4 37.5951 5.73702   1
  -2   7  -4 11.7397 4.54948   3
  -2   7  -4 18.6907 7.50393   4
  -2   7  -4 -1.7004 4.55816   1
  -2   7  -4 0.63661 6.95058   6
  -3   7  -4 16.1425 5.75946   1
  -3   7  -4 29.4895 8.67615   6
  -3   7  -4 32.2601 8.58334   4
  -4   7  -4 529.738 23.8044   4
  -4   7  -4 518.590 19.9256   1
  -4   7  -4 481.502 22.6919   6
  -5   7  -4 89.1190 10.1601   1
  -5   7  -4 68.3699 11.5383   4
  -5   7  -4 93.8395 12.4214   6
   9   6  -4 78.2821 11.2143   3
   9   6  -4 71.5056 9.20553   1
  -9  -6   4 78.1041 10.5443   5
   8   6  -4 33.2414 6.63366   1
   8   6  -4 13.8322 6.83587   3
  -8  -6   4 23.5822 6.68289   5
   7   6  -4 407.928 19.1550   3
   7   6  -4 406.382 16.4168   1
  -7  -6   4 417.447 17.5604   5
   6   6  -4 81.5678 9.41707   4
   6   6  -4 79.7439 7.30938   1
   6   6  -4 77.4091 9.58559   3
  -6  -6   4 94.9985 8.28421   5
   5   6  -4 -7.1233 4.73673   3
   5   6  -4 -0.2109 4.66467   4
   5   6  -4 1.34612 3.52842   1
  -5  -6   4 -0.1538 3.41114   5
   4   6  -4 456.115 18.3613   4
   4   6  -4 456.232 18.5137   3
   4   6  -4 453.251 14.9294   1
  -4  -6   4 432.798 14.9958   5
   3   6  -4 672.986 23.3478   4
   3   6  -4 694.018 19.2237   1
   3   6  -4 701.281 22.9397   3
  -3  -6   4 702.289 19.4873   5
   2   6  -4 -1.2755 5.47832   4
   2   6  -4 -6.0314 4.91670   6
   2   6  -4 -4.2275 3.19960   1
   2   6  -4 5.30311 4.92949   3
  -2  -6   4 -1.3081 2.88743   5
   1   6  -4 724.052 24.3765   6
   1   6  -4 759.663 24.6301   4
   1   6  -4 738.926 22.7559   3
   1   6  -4 738.885 19.6924   1
   1   6  -4 751.811 19.8845   1
  -1  -6   4 707.664 19.7497   5
   0   6  -4 371.455 16.4878   4
   0   6  -4 359.230 14.5943   3
   0   6  -4 366.927 16.3045   6
   0   6  -4 357.372 12.6799   1
   0  -6   4 366.220 12.7861   5
  -1   6  -4 -8.3294 4.08107   3
  -1   6  -4 8.58621 3.93959   1
  -1   6  -4 0.64096 6.04532   6
  -1   6  -4 4.95754 6.46383   4
   1  -6   4 4.84318 3.55457   5
  -2   6  -4 1287.91 32.6390   1
  -2   6  -4 1299.46 36.9730   6
  -2   6  -4 1288.48 36.8888   4
  -2   6  -4 1299.66 32.0025   3
   2  -6   4 1241.08 32.6975   5
  -3   6  -4 -7.4656 5.90706   4
  -3   6  -4 1.92718 5.56398   6
  -3   6  -4 4.14219 4.39147   1
  -3   6  -4 -4.0343 3.31536   3
   3  -6   4 1.66702 3.91012   5
  -4   6  -4 45.5111 9.05351   6
  -4   6  -4 37.3288 6.76877   1
  -4   6  -4 48.4101 8.35820   4
   4  -6   4 48.0508 7.17835   5
  -5   6  -4 4.50863 7.77768   4
  -5   6  -4 10.9828 7.28334   6
  -5   6  -4 -1.8281 6.02040   1
   5  -6   4 4.21804 5.55032   5
  -6   6  -4 1.40911 8.14313   4
  -6   6  -4 6.92333 6.56299   1
  -6   6  -4 13.6172 8.21714   6
   6  -6   4 -3.4905 6.11999   5
   9   5  -4 1.08070 4.51180   5
   9   5  -4 0.30786 6.56838   3
   9   5  -4 -6.7942 5.87587   1
  -9  -5   4 2.51986 6.36131   5
   8   5  -4 210.330 14.7177   3
   8   5  -4 197.198 12.7430   1
   8   5  -4 210.189 10.1070   5
  -8  -5   4 191.562 14.0073   5
   7   5  -4 267.072 13.1677   1
   7   5  -4 268.490 10.5793   5
   7   5  -4 269.925 15.3777   3
  -7  -5   4 268.628 14.7747   5
   6   5  -4 8.05655 4.28127   1
   6   5  -4 7.49202 3.36319   5
   6   5  -4 11.2460 5.78569   3
  -6  -5   4 2.09255 4.06681   5
   5   5  -4 544.961 17.2698   1
   5   5  -4 515.042 19.7319   3
   5   5  -4 557.370 19.1535   4
  -5  -5   4 519.330 17.6377   5
   4   5  -4 21.1711 4.51323   1
   4   5  -4 25.5369 5.90272   4
   4   5  -4 21.0551 5.99451   3
  -4  -5   4 31.9786 4.74377   5
   3   5  -4 223.287 12.0754   4
   3   5  -4 230.601 9.61743   1
   3   5  -4 197.415 11.7417   3
   3   5  -4 216.996 11.2544   6
  -3  -5   4 200.957 9.17558   5
   2   5  -4 440.350 16.7021   4
   2   5  -4 451.202 16.5853   6
   2   5  -4 447.281 13.6778   1
   2   5  -4 436.818 16.4131   3
  -2  -5   4 441.913 13.7397   5
   1   5  -4 31.6238 6.11631   6
   1   5  -4 27.8231 4.23311   1
   1   5  -4 30.6751 5.71218   3
   1   5  -4 29.7412 6.14250   4
  -1  -5   4 33.7358 4.24355   5
   0   5  -4 280.945 13.6730   4
   0   5  -4 278.588 10.6877   1
   0   5  -4 288.253 13.9773   6
   0  -5   4 280.862 10.4863   5
  -1   5  -4 27.1894 4.64421   1
  -1   5  -4 39.9101 7.02234   4
  -1   5  -4 47.3386 7.53705   6
   1  -5   4 42.1225 4.88461   5
  -2   5  -4 713.922 20.7151   1
  -2   5  -4 719.060 24.1361   4
  -2   5  -4 713.537 24.2276   6
   2  -5   4 703.603 20.8373   5
  -3   5  -4 92.4465 6.08543   5
  -3   5  -4 75.2759 7.41088   1
  -3   5  -4 100.119 10.5643   6
   3  -5   4 93.2798 8.10713   5
  -4   5  -4 6.38143 3.64511   5
  -4   5  -4 6.72717 6.66390   6
  -4   5  -4 20.2693 5.17872   1
   4  -5   4 9.19992 4.87684   5
  -5   5  -4 178.525 11.6722   1
  -5   5  -4 178.704 9.52251   5
  -5   5  -4 192.660 13.7687   6
   5  -5   4 173.154 12.4662   5
  -6   5  -4 113.828 10.5194   1
  -6   5  -4 146.262 13.5611   6
  -6   5  -4 125.422 9.49575   5
   6  -5   4 154.547 12.9641   5
  -7   5  -4 208.759 15.9221   6
  -7   5  -4 190.935 11.9488   5
  -7   5  -4 219.398 15.5004   1
   7  -5   4 186.073 15.5120   5
   9   4  -4 51.1392 8.94817   3
   9   4  -4 59.5124 9.05950   1
   9   4  -4 54.5434 7.34900   5
  -9  -4   4 70.4480 10.1769   5
   8   4  -4 534.788 20.2606   1
   8   4  -4 530.258 21.3705   3
   8   4  -4 518.345 18.3175   5
  -8  -4   4 530.132 21.7197   5
   7   4  -4 126.605 10.3421   1
   7   4  -4 142.325 9.49227   5
   7   4  -4 172.313 12.6496   3
  -7  -4   4 161.873 12.1404   5
   6   4  -4 -3.4311 3.65650   5
   6   4  -4 -3.9138 4.61449   3
   6   4  -4 8.23490 4.44838   1
  -6  -4   4 9.29042 4.59062   5
   5   4  -4 419.135 13.3996   5
   5   4  -4 425.790 15.5157   4
   5   4  -4 424.698 14.9642   1
   5   4  -4 431.227 17.3369   3
  -5  -4   4 428.076 14.8706   2
  -5  -4   4 436.035 15.6722   5
  -5  -4   4 417.594 13.5247   1
   4   4  -4 316.498 14.2814   3
   4   4  -4 319.393 10.3228   5
   4   4  -4 337.535 12.1445   1
   4   4  -4 328.591 12.9468   4
  -4  -4   4 322.835 12.3220   5
  -4  -4   4 327.804 11.8211   2
  -4  -4   4 309.267 10.5699   1
   3   4  -4 201.123 7.30582   5
   3   4  -4 202.974 8.87374   1
   3   4  -4 214.408 11.3935   3
   3   4  -4 200.514 9.93632   6
   3   4  -4 214.902 10.2860   4
  -3  -4   4 202.682 8.99742   5
  -3  -4   4 204.503 7.62793   1
   2   4  -4 1760.88 42.0888   6
   2   4  -4 1832.04 39.9971   1
   2   4  -4 1785.09 37.7684   5
   2   4  -4 1763.18 42.0764   4
  -2  -4   4 1759.27 40.0478   5
   1   4  -4 393.838 14.4094   6
   1   4  -4 367.650 11.9199   1
   1   4  -4 382.791 14.3041   4
   1   4  -4 375.596 9.89994   5
  -1  -4   4 364.804 11.8750   5
   0   4  -4 11.9234 4.60159   4
   0   4  -4 9.89217 2.23301   5
   0   4  -4 15.9040 3.40232   1
   0   4  -4 10.9088 4.95437   6
   0  -4   4 7.46849 2.87089   5
  -1   4  -4 925.970 21.5606   5
  -1   4  -4 940.128 26.7307   6
  -1   4  -4 910.825 23.3484   1
   1  -4   4 926.453 23.5882   5
  -2   4  -4 143.454 10.3584   6
  -2   4  -4 127.280 8.05410   1
  -2   4  -4 133.476 6.75514   5
   2  -4   4 146.887 6.81818   1
   2  -4   4 136.315 8.10793   5
  -3   4  -4 17.8048 4.76513   1
  -3   4  -4 12.5216 3.78533   5
  -3   4  -4 20.8914 2.96122   2
  -3   4  -4 9.74265 6.65167   6
   3  -4   4 13.1592 4.48582   5
   3  -4   4 19.6649 3.80041   1
  -4   4  -4 958.971 22.9642   2
  -4   4  -4 957.119 25.0511   5
  -4   4  -4 959.222 26.7928   1
  -4   4  -4 951.859 29.1881   6
   4  -4   4 949.809 27.3004   5
  -5   4  -4 20.3186 5.10175   5
  -5   4  -4 25.0944 6.01886   1
  -5   4  -4 12.4849 3.81717   2
  -5   4  -4 21.8541 7.34746   6
   5  -4   4 19.1875 5.87819   5
  -6   4  -4 49.8602 6.79809   5
  -6   4  -4 53.7435 7.90178   1
  -6   4  -4 56.5166 5.70643   2
  -6   4  -4 53.3117 9.19674   6
   6  -4   4 67.0611 8.73975   5
  -7   4  -4 25.2592 7.53978   1
  -7   4  -4 40.3096 5.62186   2
  -7   4  -4 34.6813 8.81650   6
  -7   4  -4 38.8938 6.90118   5
   7  -4   4 39.5364 7.96617   5
   9   3  -4 110.188 10.1819   5
   9   3  -4 139.428 12.1765   1
   9   3  -4 162.245 12.7473   3
  -9  -3   4 121.376 12.2478   5
   8   3  -4 23.9003 6.69817   1
   8   3  -4 18.1226 6.66433   3
   8   3  -4 38.2264 6.47339   5
  -8  -3   4 30.1103 7.14822   5
   7   3  -4 2.55571 5.19608   3
   7   3  -4 0.98190 4.24985   5
   7   3  -4 1.08898 4.72858   1
  -7  -3   4 10.8131 4.87083   2
  -7  -3   4 5.41090 4.84205   5
   6   3  -4 724.964 21.4199   5
   6   3  -4 752.942 23.8491   3
   6   3  -4 726.990 22.3256   1
  -6  -3   4 725.702 23.4075   5
  -6  -3   4 698.684 22.0180   2
  -6  -3   4 715.631 21.0844   1
   5   3  -4 111.712 9.53001   3
   5   3  -4 95.1073 7.95952   1
   5   3  -4 117.054 7.60862   5
  -5  -3   4 101.915 7.96326   2
  -5  -3   4 116.149 7.53074   1
  -5  -3   4 104.778 8.55778   5
   4   3  -4 159.027 8.28373   1
   4   3  -4 152.496 8.05471   4
   4   3  -4 156.180 7.71778   5
   4   3  -4 159.468 10.1596   3
  -4  -3   4 145.842 7.85022   2
  -4  -3   4 147.602 8.45550   5
  -4  -3   4 161.373 7.52510   1
   3   3  -4 275.570 10.2232   1
   3   3  -4 263.287 9.32362   5
   3   3  -4 265.790 10.0017   6
   3   3  -4 254.094 10.2773   4
  -3  -3   4 253.430 9.06713   1
  -3  -3   4 264.023 10.2850   5
  -3  -3   4 277.165 10.0854   2
   2   3  -4 350.738 12.4542   4
   2   3  -4 365.776 11.5288   1
   2   3  -4 363.152 12.5079   6
   2   3  -4 371.861 10.7351   5
  -2  -3   4 358.633 11.7767   5
  -2  -3   4 370.713 10.6847   1
   1   3  -4 1329.26 30.0640   1
   1   3  -4 1299.36 31.5867   4
   1   3  -4 1302.67 29.0935   5
  -1  -3   4 1285.21 30.2259   5
  -1  -3   4 1307.57 29.1560   1
   0   3  -4 1421.93 30.8729   5
   0   3  -4 1370.19 31.5975   1
   0   3  -4 1403.83 31.5857   1
   0  -3   4 1359.20 30.7236   1
   0  -3   4 1374.12 31.8965   5
  -1   3  -4 38.7409 3.22863   2
  -1   3  -4 38.1164 3.75609   5
  -1   3  -4 35.9714 4.17492   1
   1  -3   4 33.9248 4.18551   5
   1  -3   4 39.1845 3.59129   1
  -2   3  -4 431.588 13.8169   1
  -2   3  -4 439.930 13.2487   5
  -2   3  -4 463.894 12.3091   2
   2  -3   4 426.039 12.7702   1
   2  -3   4 431.003 14.0501   5
  -3   3  -4 319.465 11.9706   5
  -3   3  -4 343.474 10.9524   2
  -3   3  -4 357.659 13.0598   1
   3  -3   4 296.979 11.1346   1
   3  -3   4 311.704 12.7801   5
  -4   3  -4 1046.59 27.0413   5
  -4   3  -4 1021.40 27.5924   1
  -4   3  -4 1020.13 25.5930   2
   4  -3   4 1021.41 28.1767   5
   4  -3   4 1025.39 26.3861   1
  -5   3  -4 30.0674 4.82252   2
  -5   3  -4 38.5137 6.27230   1
  -5   3  -4 31.3845 6.10787   5
   5  -3   4 31.5852 5.18084   1
   5  -3   4 29.8424 6.20361   5
  -6   3  -4 9.43990 4.46267   2
  -6   3  -4 8.96077 5.08180   1
  -6   3  -4 13.9040 5.61231   5
   6  -3   4 21.7348 6.42645   5
  -7   3  -4 120.096 9.43945   2
  -7   3  -4 109.252 9.76066   5
  -7   3  -4 112.555 10.7915   1
   7  -3   4 151.074 12.5370   5
  -8   3  -4 96.6734 11.1454   1
  -8   3  -4 103.803 10.2051   5
  -8   3  -4 113.568 12.4040   6
  -8   3  -4 121.623 10.4838   2
   8  -3   4 130.011 12.4359   5
   9   2  -4 0.23219 5.50212   1
   9   2  -4 0.17411 5.30564   5
   9   2  -4 -6.1705 5.15389   3
  -9  -2   4 0.73828 5.83399   2
  -9  -2   4 3.98852 6.60167   5
   8   2  -4 135.144 11.2929   1
   8   2  -4 136.127 11.0810   5
   8   2  -4 143.226 11.2643   3
  -8  -2   4 144.967 12.9316   5
  -8  -2   4 126.423 11.5993   1
  -8  -2   4 127.723 11.1276   2
   7   2  -4 54.6761 7.30736   3
   7   2  -4 47.7148 7.00978   1
   7   2  -4 57.4269 7.03016   5
  -7  -2   4 58.4924 8.15075   5
  -7  -2   4 50.2478 6.40986   1
  -7  -2   4 62.7100 7.32032   2
   6   2  -4 918.673 26.6302   3
   6   2  -4 872.638 25.7975   1
   6   2  -4 937.105 25.6981   5
  -6  -2   4 884.795 27.0129   5
  -6  -2   4 922.293 25.3336   1
  -6  -2   4 884.484 25.8946   2
   5   2  -4 314.031 12.5605   5
   5   2  -4 307.666 12.9714   1
   5   2  -4 326.288 13.7032   3
  -5  -2   4 316.784 13.6832   5
  -5  -2   4 339.356 12.4893   1
  -5  -2   4 303.898 12.6933   2
   4   2  -4 1.58042 3.42405   5
   4   2  -4 2.60770 3.06563   1
  -4  -2   4 5.38198 2.99783   1
  -4  -2   4 -0.5942 2.78733   5
  -4  -2   4 3.89285 3.40972   2
   3   2  -4 1466.55 33.8448   5
   3   2  -4 1406.27 33.0937   4
   3   2  -4 1451.83 32.9530   6
   3   2  -4 1555.69 34.3518   1
  -3  -2   4 1450.05 34.0251   2
  -3  -2   4 1494.71 33.5986   1
  -3  -2   4 1490.62 34.7946   5
   2   2  -4 12.6313 2.92771   4
   2   2  -4 7.75146 2.74077   5
   2   2  -4 9.78649 2.83524   1
  -2  -2   4 7.88584 2.77949   5
  -2  -2   4 11.1928 2.56996   1
   1   2  -4 6.78795 2.81825   4
   1   2  -4 1.02300 2.12914   5
   1   2  -4 -0.1795 2.16041   1
  -1  -2   4 -0.3290 1.75630   1
  -1  -2   4 -0.7460 2.00972   5
   0   2  -4 1365.98 31.4443   1
   0   2  -4 1361.95 30.4524   2
   0   2  -4 1424.57 31.3084   5
   0  -2   4 1382.73 30.9418   1
   0  -2   4 1429.81 31.8811   5
  -1   2  -4 159.736 6.33000   2
  -1   2  -4 157.537 6.82193   5
  -1   2  -4 156.683 7.04689   1
   1  -2   4 159.803 7.17877   5
   1  -2   4 145.234 6.33786   1
  -2   2  -4 403.388 12.0167   2
  -2   2  -4 413.751 12.7916   5
  -2   2  -4 435.123 13.1787   1
   2  -2   4 427.895 12.5486   1
   2  -2   4 432.388 13.3971   5
  -3   2  -4 86.3028 6.54388   5
  -3   2  -4 79.1829 5.93939   2
  -3   2  -4 90.1086 6.83617   1
   3  -2   4 79.9397 6.54047   5
   3  -2   4 78.0400 5.83945   1
  -4   2  -4 213.951 9.36465   2
  -4   2  -4 197.913 9.98405   5
  -4   2  -4 221.571 10.6485   1
   4  -2   4 212.109 9.78682   1
   4  -2   4 177.170 10.0857   5
  -5   2  -4 0.29279 4.05391   2
  -5   2  -4 0.97540 4.53156   1
  -5   2  -4 -5.4444 4.24533   5
   5  -2   4 6.71853 3.79535   1
   5  -2   4 -0.0318 4.39614   5
  -6   2  -4 477.991 16.9192   2
  -6   2  -4 470.442 17.7266   5
  -6   2  -4 478.270 18.1950   1
   6  -2   4 481.874 18.6018   5
   6  -2   4 477.022 17.1978   1
  -7   2  -4 5.93602 4.96176   2
  -7   2  -4 -2.9915 4.83478   5
  -7   2  -4 9.37158 5.42705   1
   7  -2   4 5.15158 4.74170   5
   7  -2   4 -6.4883 4.46166   1
  -8   2  -4 29.7959 7.83255   1
  -8   2  -4 20.2275 7.33078   5
  -8   2  -4 23.3934 6.40200   2
   8  -2   4 34.6880 7.96640   5
  -9   2  -4 9.10567 6.50845   2
  -9   2  -4 7.36017 7.49609   5
   9  -2   4 2.18902 6.62193   5
   9   1  -4 127.467 11.7436   5
   9   1  -4 129.891 11.4900   1
  -9  -1   4 146.111 13.3864   5
  -9  -1   4 142.441 11.9811   2
   8   1  -4 24.1726 6.32412   1
   8   1  -4 22.3741 6.37122   5
   8   1  -4 39.3093 6.89384   3
  -8  -1   4 18.8491 6.97224   5
  -8  -1   4 21.3394 6.48742   2
  -8  -1   4 26.7392 6.24307   1
   7   1  -4 783.948 23.8815   3
   7   1  -4 808.328 25.3515   1
   7   1  -4 800.059 25.3283   5
  -7  -1   4 787.761 25.1150   2
  -7  -1   4 782.042 24.6870   1
  -7  -1   4 797.738 26.2679   5
   6   1  -4 14.2587 5.00932   5
   6   1  -4 18.1479 5.15242   3
   6   1  -4 22.3539 5.21526   1
  -6  -1   4 18.1981 5.50485   5
  -6  -1   4 14.1245 4.89179   1
  -6  -1   4 15.8341 5.06889   2
   5   1  -4 4.40974 4.73491   3
   5   1  -4 11.3890 4.12999   1
   5   1  -4 5.09484 4.45758   5
  -5  -1   4 14.0110 4.12508   1
  -5  -1   4 13.8077 4.15575   2
  -5  -1   4 8.79991 4.30301   5
   4   1  -4 1940.33 46.1167   5
   4   1  -4 1984.09 46.0221   1
  -4  -1   4 2079.21 46.0005   1
  -4  -1   4 2109.22 47.3990   5
  -4  -1   4 2037.88 46.2215   2
   3   1  -4 82.7052 5.93128   5
   3   1  -4 81.0955 5.61466   1
  -3  -1   4 78.0502 5.83202   2
  -3  -1   4 77.9840 5.42377   1
  -3  -1   4 72.6541 5.77095   5
   2   1  -4 256.367 9.06488   5
   2   1  -4 229.920 7.63663   4
   2   1  -4 254.245 8.97143   1
  -2  -1   4 235.029 9.15463   5
  -2  -1   4 240.181 8.75570   1
  -2  -1   4 244.399 8.96223   2
   1   1  -4 2167.30 47.2769   5
   1   1  -4 2213.40 47.2077   1
  -1  -1   4 2166.27 46.9403   1
  -1  -1   4 2238.92 47.7920   5
   0   1  -4 20.5426 2.95042   5
   0   1  -4 20.0257 2.92994   1
   0   1  -4 23.7115 2.83106   2
   0  -1   4 21.8727 2.88201   1
   0  -1   4 20.4971 3.06862   5
  -1   1  -4 1408.88 31.5344   1
  -1   1  -4 1393.37 31.4222   1
  -1   1  -4 1395.73 31.0908   2
  -1   1  -4 1422.23 31.8142   5
   1  -1   4 1368.01 31.1445   1
   1  -1   4 1404.63 31.8544   5
  -2   1  -4 2639.44 56.5955   2
  -2   1  -4 2661.12 57.2612   5
  -2   1  -4 2683.23 57.0872   1
   2  -1   4 2673.65 56.6634   1
   2  -1   4 2668.65 57.4448   5
  -3   1  -4 1529.46 35.2831   2
  -3   1  -4 1529.37 35.9295   5
  -3   1  -4 1525.82 35.7664   1
   3  -1   4 1554.05 36.1670   5
   3  -1   4 1597.17 35.4221   1
  -4   1  -4 34.6211 4.83223   5
  -4   1  -4 38.0286 4.86404   2
  -4   1  -4 38.6799 5.02553   1
   4  -1   4 45.1520 5.43210   5
   4  -1   4 33.5743 4.52937   1
  -5   1  -4 22.1837 4.83203   2
  -5   1  -4 14.8040 4.88124   5
  -5   1  -4 14.0321 4.45689   1
   5  -1   4 22.5663 4.47629   1
   5  -1   4 28.8858 5.11473   5
  -6   1  -4 745.546 23.5690   5
  -6   1  -4 746.521 23.0695   1
  -6   1  -4 727.346 22.1008   2
   6  -1   4 738.040 23.2894   5
   6  -1   4 720.468 22.0645   1
  -7   1  -4 2.60146 4.57858   1
  -7   1  -4 0.21974 5.02518   2
  -7   1  -4 2.85383 5.23283   5
   7  -1   4 -2.8087 4.75898   5
   7  -1   4 6.05488 4.65319   1
  -8   1  -4 8.86207 5.81065   2
  -8   1  -4 2.69849 6.02927   5
  -8   1  -4 -3.3332 5.78294   1
   8  -1   4 -5.4231 4.99525   1
   8  -1   4 7.88214 5.48025   5
  -9   1  -4 106.510 11.6993   5
  -9   1  -4 115.572 11.0754   2
  -9   1  -4 100.930 11.1549   1
   9  -1   4 124.785 11.8082   5
   9  -1   4 99.9872 10.8808   1
   9   0  -4 1.45370 6.37475   1
   9   0  -4 7.16474 6.79828   5
  -9   0   4 0.83468 6.61586   2
  -9   0   4 12.9399 6.99875   1
  -9   0   4 6.94157 7.68367   5
   8   0  -4 28.8683 6.99095   1
   8   0  -4 24.8257 6.82303   5
  -8   0   4 25.7093 7.82630   5
  -8   0   4 27.2537 6.68106   2
  -8   0   4 26.0295 6.71052   1
   7   0  -4 20.6975 5.58158   1
   7   0  -4 15.5655 6.23292   5
   7   0  -4 21.3952 5.14339   3
  -7   0   4 9.61938 5.97228   5
  -7   0   4 26.0098 6.30699   2
  -7   0   4 20.1827 5.80797   1
   6   0  -4 337.033 14.9304   1
   6   0  -4 339.149 15.2139   5
   6   0  -4 335.673 13.6130   3
  -6   0   4 338.852 14.7192   2
  -6   0   4 322.399 14.7137   1
  -6   0   4 349.801 15.7631   5
   5   0  -4 133.855 9.23100   5
   5   0  -4 130.359 8.93701   1
  -5   0   4 144.946 9.19540   1
  -5   0   4 146.500 8.96021   2
  -5   0   4 152.093 10.0411   5
   4   0  -4 1029.83 27.1073   5
   4   0  -4 1056.38 26.6623   1
  -4   0   4 1004.40 26.3690   2
  -4   0   4 1080.08 27.6787   5
  -4   0   4 1039.91 26.5959   1
   3   0  -4 504.429 14.6674   1
   3   0  -4 473.760 14.7764   5
  -3   0   4 453.258 14.8578   5
  -3   0   4 508.218 14.5251   1
  -3   0   4 488.472 14.4961   2
   2   0  -4 39.2191 4.09081   5
   2   0  -4 35.6233 3.93825   1
  -2   0   4 33.7324 4.22407   5
  -2   0   4 37.8725 3.88356   2
  -2   0   4 41.1089 3.97309   1
   1   0  -4 1549.69 34.3908   2
   1   0  -4 1541.04 34.5793   1
   1   0  -4 1536.06 34.9040   5
  -1   0   4 1579.59 35.2242   5
  -1   0   4 1591.21 34.6670   2
  -1   0   4 1586.96 34.5679   1
   0   0  -4 611.541 15.5594   1
   0   0  -4 603.792 15.4773   2
   0   0  -4 601.368 15.8457   5
   0   0   4 633.614 16.1370   5
   0   0   4 621.321 15.4938   1
  -1   0  -4 243.890 8.68024   5
  -1   0  -4 246.023 8.30901   1
  -1   0  -4 239.816 8.20879   2
   1   0   4 234.236 8.05229   1
   1   0   4 242.666 8.45744   5
  -2   0  -4 1523.22 33.6993   1
  -2   0  -4 1472.75 33.4206   2
  -2   0  -4 1456.63 33.9776   5
   2   0   4 1502.31 33.4867   1
   2   0   4 1547.77 34.0459   5
  -3   0  -4 668.763 17.5627   2
  -3   0  -4 670.319 18.2268   5
  -3   0  -4 661.970 17.7401   1
   3   0   4 632.809 17.7384   5
   3   0   4 654.316 17.4939   1
  -4   0  -4 32.2372 4.85167   5
  -4   0  -4 17.4797 3.79971   2
  -4   0  -4 15.6921 3.85667   1
   4   0   4 21.7827 4.35823   5
   4   0   4 18.5940 3.93343   1
  -5   0  -4 762.704 22.1509   1
  -5   0  -4 805.386 22.9589   5
  -5   0  -4 817.474 22.4948   2
   5   0   4 774.706 21.8752   1
   5   0   4 796.734 22.5861   5
  -6   0  -4 -0.3056 4.64020   5
  -6   0  -4 2.63026 4.46248   2
  -6   0  -4 -1.9884 4.28647   1
   6   0   4 7.08519 3.87778   1
   6   0   4 -4.2977 4.16878   5
  -7   0  -4 1.97562 4.64870   1
  -7   0  -4 -1.2646 4.62763   2
  -7   0  -4 2.09252 5.49503   5
   7   0   4 1.16826 5.15394   5
   7   0   4 -4.8861 4.26918   1
  -8   0  -4 298.983 15.8502   5
  -8   0  -4 296.910 15.3992   2
  -8   0  -4 312.560 15.5931   1
   8   0   4 306.960 15.3834   1
   8   0   4 296.550 15.3069   5
  -9   0  -4 22.5984 7.63792   5
  -9   0  -4 24.5034 7.21401   1
  -9   0  -4 28.8941 7.40961   2
   9   0   4 23.7716 6.74229   1
   9   0   4 18.7814 6.96353   5
   8  -1  -4 479.303 21.2723   5
  -8   1   4 467.342 19.1715   2
  -8   1   4 470.268 19.7946   1
  -8   1   4 467.270 20.8343   5
   7  -1  -4 16.7909 5.76398   1
   7  -1  -4 0.65764 5.77310   5
  -7   1   4 15.7419 5.33848   1
  -7   1   4 22.6337 5.69275   2
  -7   1   4 14.2986 6.08419   5
   6  -1  -4 88.6972 7.06445   3
   6  -1  -4 80.1625 8.31635   5
   6  -1  -4 73.2066 7.47821   1
  -6   1   4 77.0241 7.52240   2
  -6   1   4 79.4882 8.07247   1
  -6   1   4 77.1889 8.26528   5
   5  -1  -4 911.877 25.1962   1
   5  -1  -4 885.413 26.1311   5
  -5   1   4 962.127 26.4918   5
  -5   1   4 879.851 24.7090   2
  -5   1   4 880.967 25.4211   1
   4  -1  -4 78.5311 6.21943   1
   4  -1  -4 87.4201 7.44128   5
  -4   1   4 67.4054 5.90427   2
  -4   1   4 64.0848 6.60357   5
  -4   1   4 70.1881 6.10631   1
   3  -1  -4 352.217 11.7394   1
   3  -1  -4 331.264 12.2033   5
  -3   1   4 341.804 11.5773   2
  -3   1   4 350.428 11.7577   1
  -3   1   4 348.372 12.2663   5
   2  -1  -4 2548.91 54.9473   1
   2  -1  -4 2581.27 55.6669   5
  -2   1   4 2569.04 54.8195   2
  -2   1   4 2442.14 54.5276   2
  -2   1   4 2672.03 55.8197   5
  -2   1   4 2614.60 55.2454   1
   1  -1  -4 83.7935 4.88312   2
   1  -1  -4 78.8150 5.04670   5
   1  -1  -4 85.2514 4.80340   1
  -1   1   4 83.5633 4.98855   1
  -1   1   4 87.6162 4.58854   2
  -1   1   4 77.2557 4.45503   2
  -1   1   4 78.3950 5.08758   5
   0  -1  -4 1287.65 29.6066   5
   0  -1  -4 1351.02 29.2994   2
   0  -1  -4 1290.00 29.0703   1
   0   1   4 1326.78 29.2372   1
   0   1   4 1306.35 28.8695   2
   0   1   4 1263.34 28.6192   2
   0   1   4 1359.70 29.7142   5
  -1  -1  -4 1577.07 34.4694   1
  -1  -1  -4 1568.92 34.4490   2
  -1  -1  -4 1533.38 34.8384   5
   1   1   4 1612.51 34.8551   5
   1   1   4 1570.10 34.0350   2
   1   1   4 1627.37 34.6247   1
  -2  -1  -4 6.26670 2.16948   1
  -2  -1  -4 7.79192 2.50152   2
  -2  -1  -4 4.93615 2.40796   5
   2   1   4 3.42163 2.03508   2
   2   1   4 2.42332 2.10516   5
   2   1   4 4.06761 2.12273   1
  -3  -1  -4 396.446 12.0820   1
  -3  -1  -4 402.688 12.2218   2
  -3  -1  -4 405.433 12.6617   5
   3   1   4 398.109 11.5825   2
   3   1   4 417.198 12.0791   1
   3   1   4 391.456 12.1675   5
  -4  -1  -4 485.060 14.7891   2
  -4  -1  -4 494.901 14.7035   1
  -4  -1  -4 492.578 15.3174   5
   4   1   4 509.515 14.8383   1
   4   1   4 482.818 14.8183   5
   4   1   4 499.979 16.0796   2
  -5  -1  -4 578.647 17.5219   1
  -5  -1  -4 592.706 18.5382   5
  -5  -1  -4 608.097 18.0210   2
   5   1   4 579.304 17.7503   5
   5   1   4 597.353 17.7788   1
  -6  -1  -4 -3.0889 3.92093   2
  -6  -1  -4 10.5941 4.59143   5
  -6  -1  -4 5.84036 4.21907   1
   6   1   4 1.93324 4.05768   1
   6   1   4 -1.1066 3.82560   5
  -7  -1  -4 1.37258 4.39364   2
  -7  -1  -4 -0.7295 4.59060   5
  -7  -1  -4 -2.7920 4.19059   1
   7   1   4 11.3240 4.60714   5
   7   1   4 0.20868 4.59424   1
  -8  -1  -4 362.068 17.6453   5
  -8  -1  -4 343.419 15.6816   1
  -8  -1  -4 360.651 16.5071   2
   8   1   4 352.724 16.3060   1
   8   1   4 370.378 15.9207   5
  -9  -1  -4 39.5069 8.88428   5
  -9  -1  -4 30.4873 7.54120   2
   9   1   4 32.6178 7.63782   1
   9   1   4 13.6112 6.38870   5
 -10  -1  -4 9.93647 7.77082   5
 -10  -1  -4 5.22478 6.40269   2
  10   1   4 -4.1879 6.76725   1
  10   1   4 -2.7090 5.70685   5
   8  -2  -4 14.4328 7.24773   5
  -8   2   4 16.2637 6.33059   1
  -8   2   4 9.82211 5.92505   2
  -8   2   4 18.7294 7.30730   5
   7  -2  -4 23.3418 7.33909   5
  -7   2   4 16.2320 5.73236   2
  -7   2   4 22.2524 6.65136   5
  -7   2   4 42.0347 7.22219   1
   6  -2  -4 391.244 17.3443   5
   6  -2  -4 394.612 15.5607   1
  -6   2   4 389.536 16.4846   5
  -6   2   4 434.181 15.4541   2
  -6   2   4 422.296 17.0465   1
   5  -2  -4 173.313 9.81410   1
   5  -2  -4 175.263 11.3555   5
  -5   2   4 170.179 10.4182   1
  -5   2   4 188.214 10.8900   5
  -5   2   4 176.743 9.44824   2
   4  -2  -4 66.2252 6.10644   1
   4  -2  -4 65.3237 6.90964   5
  -4   2   4 61.0643 5.71905   2
  -4   2   4 67.9028 6.48135   1
  -4   2   4 59.9703 5.13250   2
  -4   2   4 61.9158 6.44474   5
   3  -2  -4 224.239 9.90942   5
   3  -2  -4 233.698 9.14003   1
  -3   2   4 235.552 9.96121   5
  -3   2   4 227.653 9.64358   1
  -3   2   4 230.792 8.40180   2
  -3   2   4 237.920 8.80250   2
   2  -2  -4 1896.80 42.0196   1
   2  -2  -4 1883.05 42.9202   5
  -2   2   4 2037.37 42.8078   5
  -2   2   4 1917.15 41.4104   2
  -2   2   4 1897.05 42.5236   1
  -2   2   4 1885.91 41.0833   2
   1  -2  -4 8.98002 2.73120   5
   1  -2  -4 8.22742 2.40825   1
   1  -2  -4 9.56945 2.65601   2
  -1   2   4 4.60270 2.39803   5
  -1   2   4 7.13919 2.07422   2
  -1   2   4 4.56940 2.08845   2
  -1   2   4 6.63099 2.43756   1
   0  -2  -4 6.76246 2.16517   2
   0  -2  -4 7.72263 2.02096   1
   0  -2  -4 13.5340 2.55956   5
   0   2   4 9.48076 1.71515   2
   0   2   4 10.7125 1.86253   2
   0   2   4 8.39440 2.22241   1
   0   2   4 11.7769 2.37813   5
  -1  -2  -4 1639.88 36.3413   1
  -1  -2  -4 1744.14 37.3061   5
  -1  -2  -4 1733.76 36.8316   2
   1   2   4 1729.32 35.6202   2
   1   2   4 1712.62 36.5482   5
   1   2   4 1648.16 35.5456   2
   1   2   4 1756.04 36.9320   1
  -2  -2  -4 199.184 6.79377   1
  -2  -2  -4 196.595 7.45682   5
  -2  -2  -4 200.999 7.02400   2
   2   2   4 203.939 7.07014   1
   2   2   4 194.201 6.11832   2
   2   2   4 192.663 6.91050   5
   2   2   4 202.693 6.16117   2
  -3  -2  -4 76.3017 4.79445   1
  -3  -2  -4 75.3629 4.72173   2
  -3  -2  -4 75.8125 5.20460   5
   3   2   4 76.1599 5.10339   1
   3   2   4 68.7365 4.15427   2
   3   2   4 75.8676 4.85923   5
  -4  -2  -4 1251.86 29.6650   2
  -4  -2  -4 1241.85 29.1773   1
  -4  -2  -4 1239.54 30.3423   5
   4   2   4 1240.69 29.6769   1
   4   2   4 1298.43 29.4190   5
   4   2   4 1276.38 28.4472   2
  -5  -2  -4 169.790 8.76034   2
  -5  -2  -4 169.482 8.28191   1
  -5  -2  -4 174.491 9.32108   5
   5   2   4 168.282 7.46577   2
   5   2   4 191.113 8.79282   5
   5   2   4 191.337 9.09028   1
  -6  -2  -4 1.83394 4.22980   5
  -6  -2  -4 1.74291 3.93566   2
  -6  -2  -4 1.50418 3.67993   1
   6   2   4 0.40638 3.83395   5
   6   2   4 -1.0584 3.81153   1
   6   2   4 2.00292 3.32622   2
  -7  -2  -4 609.059 20.3935   2
  -7  -2  -4 602.995 21.5168   5
  -7  -2  -4 631.356 19.7818   1
   7   2   4 631.834 19.9396   5
   7   2   4 622.865 20.5456   1
  -8  -2  -4 26.0330 6.56628   2
  -8  -2  -4 19.7662 6.13385   5
  -8  -2  -4 24.4504 6.11951   1
   8   2   4 27.1433 6.20467   1
   8   2   4 27.6000 5.91987   5
  -9  -2  -4 8.40199 7.52930   2
  -9  -2  -4 11.1294 6.67264   5
   9   2   4 5.98615 5.55899   5
   9   2   4 6.00600 6.32896   1
 -10  -2  -4 65.2405 10.2093   5
  10   2   4 71.2634 9.00370   5
  10   2   4 92.8238 10.9218   1
   7  -3  -4 70.2438 9.49856   5
  -7   3   4 48.0981 6.30314   2
  -7   3   4 58.6230 8.43469   1
  -7   3   4 42.5383 7.65468   5
   6  -3  -4 300.054 15.9405   5
  -6   3   4 308.308 14.1392   5
  -6   3   4 313.510 12.3012   2
  -6   3   4 309.248 15.0912   1
   5  -3  -4 80.5629 8.48266   5
  -5   3   4 79.8293 7.54790   1
  -5   3   4 89.5096 6.83169   2
  -5   3   4 90.3088 8.10127   5
  -5   3   4 91.0781 6.61166   2
   4  -3  -4 2.06478 4.12332   5
   4  -3  -4 7.89764 3.46763   1
  -4   3   4 9.21232 3.09764   2
  -4   3   4 21.2228 4.73441   5
  -4   3   4 11.0124 4.53229   1
  -4   3   4 6.38746 3.35085   2
   3  -3  -4 1257.30 29.7483   1
   3  -3  -4 1257.34 31.4342   5
  -3   3   4 1253.04 28.2300   2
  -3   3   4 1269.65 28.1400   2
  -3   3   4 1253.90 30.8365   1
  -3   3   4 1265.32 29.9895   5
   2  -3  -4 178.245 8.33501   5
   2  -3  -4 186.746 7.28937   1
  -2   3   4 203.389 6.24406   2
  -2   3   4 192.981 7.73605   5
  -2   3   4 200.405 6.25621   2
  -2   3   4 197.451 8.36437   1
   1  -3  -4 276.323 8.34571   1
   1  -3  -4 261.681 9.38361   5
  -1   3   4 267.237 9.23683   1
  -1   3   4 296.016 8.51453   5
   0  -3  -4 3707.08 75.6954   5
   0   3   4 3592.36 75.2659   1
  -1  -3  -4 1.51931 1.98723   5
   1   3   4 -0.2217 1.83975   1
  -2  -3  -4 1097.53 24.7968   5
   2   3   4 1060.90 24.3478   1
  -3  -3  -4 997.291 23.6173   5
   3   3   4 1044.40 22.0283   5
   3   3   4 917.839 22.6656   5
   3   3   4 999.591 23.2081   1
  -4  -3  -4 28.1800 4.25323   2
  -4  -3  -4 28.4314 3.23163   1
  -4  -3  -4 26.2386 3.83734   5
   4   3   4 23.6949 3.59476   1
   4   3   4 24.7691 3.13998   5
  -5  -3  -4 11.4160 3.98896   5
  -5  -3  -4 14.9812 3.14533   1
  -5  -3  -4 13.7863 3.65111   2
   5   3   4 7.58460 3.46388   1
   5   3   4 5.23939 2.41253   2
   5   3   4 15.5512 3.34567   5
  -6  -3  -4 152.008 8.19146   1
  -6  -3  -4 164.018 9.40889   2
  -6  -3  -4 149.393 9.60673   5
   6   3   4 158.626 6.98889   2
   6   3   4 150.587 8.08131   5
   6   3   4 173.919 9.34129   1
  -7  -3  -4 386.715 16.4661   5
  -7  -3  -4 397.006 17.5334   2
   7   3   4 400.499 12.7989   2
   7   3   4 397.743 14.3231   5
   7   3   4 419.049 15.7211   1
  -8  -3  -4 3.09333 6.01556   5
   8   3   4 8.19382 5.22438   1
   8   3   4 5.87873 4.64803   5
  -9  -3  -4 64.3407 9.42572   5
   9   3   4 46.9721 8.01616   1
   9   3   4 43.2153 6.70262   5
 -10  -3  -4 134.502 13.1610   5
  10   3   4 133.290 11.0259   5
  10   3   4 137.705 12.0968   1
   7  -4  -4 376.393 19.4478   5
  -7   4   4 344.828 15.5960   5
  -7   4   4 352.924 12.3469   2
  -7   4   4 372.416 18.1133   1
   6  -4  -4 0.62634 5.56669   5
  -6   4   4 8.95883 3.44103   2
  -6   4   4 9.30834 5.50806   1
  -6   4   4 5.25478 3.58919   2
  -6   4   4 7.93853 4.95462   5
   5  -4  -4 10.1253 5.50317   5
  -5   4   4 7.85712 2.78378   2
  -5   4   4 -7.5464 4.08040   5
  -5   4   4 4.59616 4.72072   1
  -5   4   4 1.28548 3.11313   2
   4  -4  -4 422.931 16.2675   5
  -4   4   4 439.077 14.0036   5
  -4   4   4 427.871 15.9071   1
   3  -4  -4 360.556 13.5478   5
  -3   4   4 349.333 11.1341   5
  -3   4   4 334.864 12.9354   1
   2  -4  -4 5.71980 3.44705   5
  -2   4   4 7.37902 3.24444   1
  -2   4   4 5.78785 2.68620   4
   1  -4  -4 70.3167 5.33287   5
  -1   4   4 72.8900 5.41927   1
   0  -4  -4 1353.05 30.5542   5
   0   4   4 1373.68 30.3463   1
  -1  -4  -4 13.3025 2.42616   5
   1   4   4 12.0893 2.27786   1
  -2  -4  -4 43.0314 3.77473   5
   2   4   4 43.0575 3.61341   1
  -3  -4  -4 1245.61 28.1065   5
   3   4   4 1225.20 27.7318   1
  -4  -4  -4 1.59215 2.42069   5
   4   4   4 1.31358 2.65262   1
  -5  -4  -4 31.6016 4.61146   5
   5   4   4 35.9339 4.46714   1
  -6  -4  -4 1051.93 28.2928   5
   6   4   4 1077.33 24.7493   5
   6   4   4 1023.34 27.1415   1
  -7  -4  -4 11.2284 5.17546   5
   7   4   4 7.62386 3.52621   5
   7   4   4 7.41481 4.23299   1
  -8  -4  -4 1.40188 5.32299   5
   8   4   4 -1.2793 3.69770   5
   8   4   4 -1.5244 4.57622   1
  -9  -4  -4 590.220 23.2334   5
   9   4   4 561.213 21.4939   1
   9   4   4 585.577 18.4982   5
   9   4   4 576.148 15.5142   2
 -10  -4  -4 156.689 13.7820   5
  10   4   4 132.687 11.7279   1
  10   4   4 123.083 10.3624   5
   6  -5  -4 12.1547 6.49127   5
  -6   5   4 0.97653 4.79617   1
  -6   5   4 -0.3626 4.11812   5
   5  -5  -4 33.6109 7.35303   5
  -5   5   4 31.0247 6.25770   1
  -5   5   4 28.9258 4.75610   5
   4  -5  -4 182.867 11.3828   5
  -4   5   4 187.038 10.6069   1
   3  -5  -4 24.8627 5.12956   5
  -3   5   4 23.4477 4.73951   1
  -3   5   4 28.2680 4.21296   4
   2  -5  -4 13.3817 3.97976   5
  -2   5   4 23.8632 4.27893   4
  -2   5   4 19.7623 4.19338   1
   1  -5  -4 813.115 21.1809   5
  -1   5   4 846.823 20.8608   1
  -1   5   4 804.273 21.6942   4
   0  -5  -4 267.518 9.16149   5
   0   5   4 291.673 9.22952   1
  -1  -5  -4 158.693 6.90348   5
   1   5   4 149.848 6.06240   1
   1   5   4 171.299 6.32186   1
   2   5   4 2128.02 44.5766   1
   2   5   4 2099.85 44.4260   1
  -3  -5  -4 8.73088 2.49856   5
   3   5   4 15.0881 2.68441   1
   3   5   4 12.5898 2.75977   1
  -4  -5  -4 120.245 6.37120   5
   4   5   4 122.561 6.50680   1
  -5  -5  -4 632.204 18.0157   5
   5   5   4 654.258 17.6982   1
  -6  -5  -4 51.9262 6.00813   5
   6   5   4 56.6119 5.82470   1
  -7  -5  -4 19.9122 5.60968   5
   7   5   4 30.0260 5.44704   1
  -8  -5  -4 105.079 9.68055   5
   8   5   4 123.033 9.57555   1
  -9  -5  -4 196.916 14.3490   5
   9   5   4 220.403 12.9495   1
   9   5   4 205.690 9.07247   5
 -10  -5  -4 -13.849 6.38797   5
  10   5   4 1.55541 6.05848   1
  10   5   4 0.64369 4.46927   5
  -5   6   4 352.086 16.1701   1
  -4   6   4 9.61676 4.69107   1
  -3   6   4 12.9903 4.31789   1
  -3   6   4 4.85113 3.78904   4
  -2   6   4 443.391 15.1319   4
  -2   6   4 451.883 14.8577   1
  -1   6   4 1030.41 27.3444   4
  -1   6   4 1032.94 25.3164   1
   0   6   4 255.381 11.7229   4
   0   6   4 250.024 9.13424   1
   0   6   4 252.039 9.13840   1
   1   6   4 127.639 5.91643   1
   1   6   4 122.153 5.59888   1
   3   6   4 87.6175 4.90538   1
   3   6   4 76.3492 4.93512   1
   4   6   4 52.1121 4.48701   1
   4   6   4 60.6577 4.47645   1
   5   6   4 254.612 13.5824   3
   5   6   4 240.120 9.45613   1
   6   6   4 -1.7588 4.63088   3
   6   6   4 -0.3277 3.55489   1
   7   6   4 4.75667 6.21728   3
   7   6   4 1.74483 4.03855   1
   8   6   4 307.847 14.0890   1
   9   6   4 -2.1332 5.11710   1
  10   6   4 7.25798 6.74078   1
  -4   7   4 -1.7729 4.83178   1
  -3   7   4 59.4387 6.72257   1
  -2   7   4 257.231 11.7102   1
  -2   7   4 282.299 12.8754   4
  -1   7   4 -1.3020 3.23154   1
  -1   7   4 3.05140 4.35146   4
   0   7   4 36.2153 4.04310   1
   0   7   4 30.6066 6.17315   4
   1   7   4 1335.73 35.2083   4
   1   7   4 1330.07 29.5609   1
   4   7   4 1456.90 31.8152   1
   4   7   4 1406.37 38.9241   3
   5   7   4 94.0965 6.27765   1
   5   7   4 76.0213 9.24614   3
   6   7   4 212.846 14.0176   3
   6   7   4 199.383 9.55362   1
   7   7   4 241.763 11.3584   1
   7   7   4 224.785 15.2759   3
   8   7   4 150.055 13.5340   3
   8   7   4 161.045 10.3912   1
   9   7   4 1.06061 5.42953   1
  -3   8   4 199.460 11.8088   1
  -2   8   4 2.24423 5.01211   4
  -2   8   4 0.13793 4.11105   1
  -1   8   4 0.11376 4.95210   4
  -1   8   4 0.18433 3.71159   1
   0   8   4 241.039 9.31437   1
   0   8   4 240.713 13.5532   4
   1   8   4 618.399 21.9786   4
   4   8   4 380.687 17.7648   3
   5   8   4 0.47470 3.20056   1
   5   8   4 2.88510 6.01600   3
   6   8   4 -8.9406 5.07415   3
   6   8   4 -3.7310 3.19201   1
   7   8   4 262.655 11.7888   1
   7   8   4 278.388 16.6099   3
   8   8   4 3.69604 7.34610   3
   8   8   4 6.54667 4.90921   1
   9   8   4 1.58570 5.35647   1
   9   8   4 6.57668 8.34104   3
  -2   9   4 -0.9185 4.22081   1
  -1   9   4 11.9651 6.21951   4
  -1   9   4 12.9014 4.44852   1
   0   9   4 261.611 10.3097   1
   0   9   4 269.256 15.4567   4
   1   9   4 23.8589 6.53355   4
   5   9   4 368.581 19.1853   3
   6   9   4 406.962 20.1256   3
   6   9   4 381.822 12.7022   1
   7   9   4 -2.8638 3.82700   1
   7   9   4 0.04577 6.73856   3
   8   9   4 -1.8018 7.63670   3
   8   9   4 11.3839 4.88426   1
   0  10   4 10.2785 4.35865   1
   0  10   4 18.4554 7.48301   4
   1  10   4 -2.3040 5.96472   4
   6  10   4 389.544 21.0301   3
   7  10   4 18.8942 4.98801   1
   7  10   4 26.4246 9.05251   3
   6   9  -5 303.254 14.6304   1
   6   9  -5 306.394 18.3964   3
   6   9  -5 292.645 19.7338   4
   5   9  -5 6.58881 8.00100   4
   5   9  -5 -2.1139 5.60222   3
   5   9  -5 3.17468 5.21044   1
   4   9  -5 78.0117 11.4177   4
   4   9  -5 72.2664 10.3678   3
   4   9  -5 77.1637 7.58931   1
   3   9  -5 272.805 16.7306   3
   3   9  -5 308.602 18.5787   4
   3   9  -5 282.161 12.7756   1
   2   9  -5 100.735 12.3178   4
   2   9  -5 106.677 11.0930   3
   2   9  -5 121.981 9.34889   1
   1   9  -5 329.314 19.5197   4
   1   9  -5 277.246 16.1711   3
   1   9  -5 322.401 13.6655   1
   0   9  -5 398.553 21.9375   6
   0   9  -5 448.969 18.6295   3
   0   9  -5 435.791 16.5775   1
   0   9  -5 440.741 22.5241   4
  -1   9  -5 4.00081 8.27003   6
  -1   9  -5 -10.656 4.92632   1
  -1   9  -5 9.70272 7.37227   4
   7   8  -5 28.3120 7.81736   3
   7   8  -5 51.4004 7.11227   1
   6   8  -5 49.1813 6.63257   1
   6   8  -5 47.5215 9.20617   4
   6   8  -5 41.3042 9.08626   3
   5   8  -5 88.2005 10.8798   3
   5   8  -5 89.3769 11.4479   4
   5   8  -5 79.9688 7.81264   1
   4   8  -5 42.3992 9.01486   4
   4   8  -5 28.6595 7.59169   3
   4   8  -5 32.6254 5.70785   1
   3   8  -5 26.6045 8.34000   4
   3   8  -5 26.2031 7.10447   3
   3   8  -5 18.1674 5.15038   1
   2   8  -5 1.46266 6.31104   6
   2   8  -5 8.87966 7.00813   4
   2   8  -5 9.44194 5.60603   3
   2   8  -5 4.03336 4.51262   1
   1   8  -5 19.7678 7.31734   4
   1   8  -5 9.51983 7.52519   6
   1   8  -5 18.2681 5.99447   3
   1   8  -5 9.72201 4.49564   1
   0   8  -5 7.79050 6.84058   4
   0   8  -5 4.94306 5.62421   3
   0   8  -5 4.48860 7.56593   6
   0   8  -5 -0.1547 4.04120   1
  -1   8  -5 -0.9187 4.72929   1
  -1   8  -5 21.2671 7.92095   6
  -1   8  -5 11.9489 5.66331   3
  -1   8  -5 12.5564 7.26993   4
  -2   8  -5 1.33691 6.88821   6
  -2   8  -5 4.49627 7.42630   4
  -2   8  -5 0.90634 5.24648   1
  -3   8  -5 63.4917 11.4310   4
  -3   8  -5 80.0705 8.89124   1
  -3   8  -5 97.3966 12.9920   6
   8   7  -5 12.7880 7.55510   3
   8   7  -5 2.99722 5.48897   1
   7   7  -5 14.7184 6.92574   3
   7   7  -5 3.76476 4.46308   1
   6   7  -5 156.346 13.2645   4
   6   7  -5 174.625 10.8937   1
   6   7  -5 166.642 13.4607   3
   5   7  -5 166.027 14.0642   4
   5   7  -5 159.223 13.0905   3
   5   7  -5 158.258 9.94474   1
   4   7  -5 266.930 15.2357   3
   4   7  -5 296.805 12.8457   1
   4   7  -5 335.483 16.9391   4
   3   7  -5 10.4764 5.94616   3
   3   7  -5 5.01989 5.98534   6
   3   7  -5 2.75652 5.88471   4
   3   7  -5 3.35290 4.12280   1
   2   7  -5 364.151 17.3085   6
   2   7  -5 357.509 16.3112   3
   2   7  -5 330.302 16.9427   4
   2   7  -5 339.048 13.1901   1
   1   7  -5 332.591 16.8900   6
   1   7  -5 284.772 14.8871   3
   1   7  -5 315.603 16.7113   4
   1   7  -5 269.978 12.1494   1
   0   7  -5 180.886 11.9207   3
   0   7  -5 217.982 10.6204   1
   0   7  -5 212.806 14.2919   4
   0   7  -5 213.758 14.2058   6
  -1   7  -5 562.197 22.8893   4
  -1   7  -5 596.484 18.9860   1
  -1   7  -5 522.415 22.3064   6
  -1   7  -5 549.544 19.5319   3
  -2   7  -5 312.382 17.6224   4
  -2   7  -5 287.872 13.3951   3
  -2   7  -5 326.936 14.0057   1
  -2   7  -5 299.927 17.7943   6
  -3   7  -5 1.98792 4.85463   1
  -3   7  -5 3.11006 7.61327   6
  -3   7  -5 3.30711 7.42051   4
  -4   7  -5 195.808 16.5116   4
  -4   7  -5 269.571 17.9043   6
  -4   7  -5 245.243 13.9630   1
   8   6  -5 144.867 11.7705   1
   8   6  -5 132.539 12.9366   3
  -8  -6   5 137.117 12.2606   5
   7   6  -5 40.4469 6.49210   1
   7   6  -5 44.6456 8.62708   3
  -7  -6   5 50.8718 8.14136   5
   6   6  -5 60.4994 8.84708   3
   6   6  -5 58.2626 8.62490   4
   6   6  -5 65.1148 7.32090   1
  -6  -6   5 63.8536 7.80444   5
   5   6  -5 222.793 11.4172   1
   5   6  -5 215.270 13.6099   3
   5   6  -5 199.412 13.1310   4
  -5  -6   5 228.708 11.5878   5
   4   6  -5 281.835 15.1059   3
   4   6  -5 270.465 14.6209   4
   4   6  -5 275.741 12.1844   1
  -4  -6   5 252.290 11.7238   5
   3   6  -5 430.357 17.9557   4
   3   6  -5 419.275 17.3491   6
   3   6  -5 405.744 17.4014   3
   3   6  -5 418.394 14.7282   1
  -3  -6   5 407.156 14.7130   5
   2   6  -5 15.7037 4.57351   1
   2   6  -5 10.9351 5.78175   3
   2   6  -5 14.8671 6.54099   4
   2   6  -5 12.1192 6.39473   6
  -2  -6   5 11.4050 4.01173   5
   1   6  -5 44.5284 8.13817   6
   1   6  -5 56.0113 8.20979   4
   1   6  -5 49.7006 7.15644   3
   1   6  -5 44.9052 5.79756   1
  -1  -6   5 57.6152 5.85860   5
   0   6  -5 17.1227 4.94375   1
   0   6  -5 22.6688 6.63850   4
   0   6  -5 35.0917 6.25569   3
   0   6  -5 12.7008 6.96428   6
   0  -6   5 16.2402 4.24721   5
  -1   6  -5 15.8143 6.52588   6
  -1   6  -5 8.03066 4.65285   3
  -1   6  -5 11.0535 4.42480   1
  -1   6  -5 15.6068 6.93818   4
   1  -6   5 13.1299 4.36640   5
  -2   6  -5 7.70408 7.67004   4
  -2   6  -5 13.8354 4.84531   1
  -2   6  -5 16.7940 6.79423   6
  -2   6  -5 19.2807 5.29130   3
   2  -6   5 13.2632 4.71189   5
  -3   6  -5 43.1759 5.86882   3
  -3   6  -5 49.7816 8.96595   4
  -3   6  -5 41.5177 9.26175   6
  -3   6  -5 42.3708 6.63455   1
   3  -6   5 37.5001 6.85966   5
  -4   6  -5 -2.0755 7.28000   4
  -4   6  -5 11.2581 5.62686   1
  -4   6  -5 3.42801 6.94511   6
   4  -6   5 9.54807 5.61715   5
  -5   6  -5 103.675 10.6040   1
  -5   6  -5 114.151 12.9715   4
  -5   6  -5 133.860 14.0847   6
   5  -6   5 131.117 11.9725   5
   9   5  -5 14.2589 8.07018   3
   9   5  -5 19.4385 5.62893   5
  -9  -5   5 18.4779 7.67650   5
   8   5  -5 13.7077 4.98447   5
   8   5  -5 14.1863 5.98527   1
   8   5  -5 16.9347 7.56523   3
  -8  -5   5 3.11950 6.17165   5
   7   5  -5 314.009 12.5294   5
   7   5  -5 314.845 17.0800   3
   7   5  -5 321.902 15.0641   1
  -7  -5   5 330.311 16.7036   5
   6   5  -5 5.96010 5.98638   3
   6   5  -5 0.51219 3.60446   5
   6   5  -5 9.18388 4.69958   1
  -6  -5   5 7.42478 4.87373   5
   5   5  -5 5.61054 4.31285   1
   5   5  -5 6.35637 5.58619   3
   5   5  -5 13.0304 5.20949   4
   5   5  -5 6.68228 3.05253   5
  -5  -5   5 3.42238 4.21138   5
   4   5  -5 66.1899 6.78542   1
   4   5  -5 59.9958 7.86717   3
   4   5  -5 77.1528 8.23737   4
   4   5  -5 69.7064 7.55586   6
   4   5  -5 72.6857 5.14330   5
  -4  -5   5 71.6813 7.24608   5
   3   5  -5 167.563 9.43693   1
   3   5  -5 164.455 11.5259   3
   3   5  -5 169.454 11.0680   4
   3   5  -5 182.361 11.2885   6
  -3  -5   5 156.529 9.09153   5
   2   5  -5 856.508 25.6797   6
   2   5  -5 818.031 22.5299   1
   2   5  -5 874.461 25.8445   4
  -2  -5   5 858.515 23.2073   5
   1   5  -5 73.9356 8.20619   4
   1   5  -5 66.4790 8.44203   6
   1   5  -5 58.8245 6.03765   1
  -1  -5   5 60.8681 6.18552   5
   0   5  -5 957.266 28.6028   6
   0   5  -5 927.422 28.1600   4
   0   5  -5 941.156 24.9118   1
   0   5  -5 962.130 24.9049   1
   0  -5   5 970.019 25.2809   5
  -1   5  -5 190.936 9.96109   1
  -1   5  -5 215.624 13.7600   4
  -1   5  -5 210.331 13.3956   6
  -1   5  -5 208.768 7.36491   5
   1  -5   5 201.519 10.0609   5
  -2   5  -5 425.093 18.5483   4
  -2   5  -5 424.166 18.5931   6
  -2   5  -5 397.480 14.8611   1
  -2   5  -5 391.512 11.9595   5
   2  -5   5 392.361 15.3324   5
  -3   5  -5 562.255 19.1823   1
  -3   5  -5 580.960 16.2268   5
  -3   5  -5 569.111 22.0522   6
   3  -5   5 555.643 19.6802   5
  -4   5  -5 230.063 10.3295   5
  -4   5  -5 234.216 12.6711   1
  -4   5  -5 230.837 14.9648   6
   4  -5   5 246.753 13.6533   5
  -5   5  -5 17.8610 6.58515   1
  -5   5  -5 21.4003 7.79156   6
  -5   5  -5 3.55550 4.25488   5
   5  -5   5 12.8849 6.19850   5
  -6   5  -5 146.225 14.0791   6
  -6   5  -5 168.363 13.3051   1
  -6   5  -5 127.225 9.74301   5
   6  -5   5 129.276 12.1625   5
   9   4  -5 199.275 15.5292   3
   9   4  -5 168.588 12.5873   5
   9   4  -5 203.368 14.2999   1
  -9  -4   5 216.212 16.5910   5
   8   4  -5 59.9907 8.74375   3
   8   4  -5 31.1647 6.38208   5
   8   4  -5 43.2601 7.64770   1
  -8  -4   5 45.9499 8.15842   5
   7   4  -5 540.026 18.1619   5
   7   4  -5 531.137 20.0800   1
   7   4  -5 572.474 22.1016   3
  -7  -4   5 551.817 21.6300   5
   6   4  -5 182.025 11.0512   1
   6   4  -5 186.332 10.0022   5
   6   4  -5 185.767 12.9522   3
  -6  -4   5 178.998 11.9087   5
   5   4  -5 51.1119 6.27177   1
   5   4  -5 55.9358 6.59782   4
   5   4  -5 53.6887 7.99443   3
   5   4  -5 53.9278 5.44707   5
  -5  -4   5 51.5561 6.63611   5
   4   4  -5 294.393 12.1543   6
   4   4  -5 296.137 14.2160   3
   4   4  -5 285.310 12.2317   4
   4   4  -5 268.485 11.7352   1
   4   4  -5 291.221 10.7155   5
  -4  -4   5 276.264 11.6179   2
  -4  -4   5 299.012 10.8002   1
  -4  -4   5 275.635 12.4604   5
   3   4  -5 47.6892 4.61864   5
   3   4  -5 48.3827 5.62821   1
   3   4  -5 59.0892 6.41924   4
   3   4  -5 48.7899 6.35874   6
  -3  -4   5 38.2277 4.24535   1
  -3  -4   5 44.0716 5.43288   5
   2   4  -5 84.4997 8.16700   6
   2   4  -5 64.3808 6.96681   4
   2   4  -5 74.5080 5.16853   5
   2   4  -5 83.7983 6.92640   1
  -2  -4   5 81.8711 6.52767   5
  -2  -4   5 66.3337 5.19478   1
   1   4  -5 242.551 12.3801   6
   1   4  -5 237.816 8.35800   5
   1   4  -5 232.633 9.90336   1
   1   4  -5 236.966 11.9815   4
  -1  -4   5 249.317 10.0350   5
  -1  -4   5 226.106 8.58358   1
   0   4  -5 167.503 7.11764   5
   0   4  -5 149.195 8.21135   1
   0   4  -5 164.055 10.7421   4
   0   4  -5 167.288 11.1235   6
   0   4  -5 156.276 8.16067   1
   0  -4   5 158.820 8.26464   5
   0  -4   5 154.637 6.97618   1
  -1   4  -5 249.034 10.7474   1
  -1   4  -5 295.893 9.87091   5
   1  -4   5 273.686 11.2983   5
   1  -4   5 254.333 9.42031   1
  -2   4  -5 61.4903 6.36718   1
  -2   4  -5 60.1017 4.70158   2
  -2   4  -5 62.6389 5.48539   5
   2  -4   5 72.5001 5.60601   1
   2  -4   5 59.1274 6.43446   5
  -3   4  -5 -2.9900 3.54644   5
  -3   4  -5 5.94679 4.48324   1
  -3   4  -5 2.71482 3.08347   2
   3  -4   5 0.72611 3.58021   1
   3  -4   5 -5.8543 4.17191   5
  -4   4  -5 123.110 8.45144   5
  -4   4  -5 122.362 9.56764   1
  -4   4  -5 121.866 6.91629   2
   4  -4   5 122.702 10.0863   5
  -5   4  -5 234.672 13.5161   1
  -5   4  -5 246.815 10.1657   2
  -5   4  -5 237.684 11.7733   5
   5  -4   5 254.537 14.0969   5
  -6   4  -5 94.5542 11.3948   6
  -6   4  -5 71.7348 8.27851   5
  -6   4  -5 105.539 10.6402   1
  -6   4  -5 80.5784 6.64155   2
   6  -4   5 103.304 10.5862   5
  -7   4  -5 97.2735 8.05596   2
  -7   4  -5 71.9328 8.70797   5
  -7   4  -5 80.5123 10.2012   1
  -7   4  -5 75.9149 11.7969   6
   7  -4   5 79.6924 10.4128   5
   9   3  -5 3.83784 6.56103   3
   9   3  -5 -0.6397 6.07247   1
   9   3  -5 -2.5394 5.97037   5
  -9  -3   5 -2.0524 6.49285   5
   8   3  -5 251.412 14.6909   3
   8   3  -5 218.303 13.0543   5
   8   3  -5 258.846 14.8660   1
  -8  -3   5 231.144 15.3388   5
   7   3  -5 65.9399 7.68312   1
   7   3  -5 53.4358 6.96196   5
   7   3  -5 59.8895 8.28547   3
  -7  -3   5 54.6777 8.26332   5
  -7  -3   5 62.2910 7.70224   2
   6   3  -5 99.1947 8.74728   5
   6   3  -5 96.2098 8.59016   1
   6   3  -5 133.607 11.5589   3
  -6  -3   5 108.889 8.56288   1
  -6  -3   5 103.944 9.01299   2
  -6  -3   5 117.587 10.0442   5
   5   3  -5 565.220 20.8123   3
   5   3  -5 610.151 18.4822   5
   5   3  -5 580.269 18.9553   1
  -5  -3   5 581.071 19.9617   5
  -5  -3   5 583.444 18.0957   1
  -5  -3   5 587.770 19.1034   2
   4   3  -5 33.0498 5.06750   4
   4   3  -5 38.4328 5.02711   6
   4   3  -5 34.9687 4.96727   5
   4   3  -5 44.8907 5.57095   1
  -4  -3   5 45.9589 5.13042   1
  -4  -3   5 30.9261 5.39491   5
  -4  -3   5 41.2618 5.27168   2
   3   3  -5 2.23808 3.70354   4
   3   3  -5 1.24204 3.08566   5
   3   3  -5 3.45730 3.35823   1
   3   3  -5 -1.2658 3.59633   6
  -3  -3   5 0.42826 3.23024   2
  -3  -3   5 -0.7103 2.64751   1
  -3  -3   5 0.25850 3.23129   5
   2   3  -5 283.228 9.93644   5
   2   3  -5 282.578 11.4400   4
   2   3  -5 290.875 11.7282   6
   2   3  -5 265.465 10.4607   1
  -2  -3   5 268.067 10.7781   5
  -2  -3   5 277.210 9.80503   1
   1   3  -5 990.947 26.0507   4
   1   3  -5 948.304 24.5536   1
   1   3  -5 1011.51 23.9745   5
  -1  -3   5 999.988 23.8171   1
  -1  -3   5 995.130 25.2064   5
   0   3  -5 394.997 12.1693   5
   0   3  -5 369.260 12.7694   1
   0  -3   5 391.819 12.0115   1
   0  -3   5 404.564 13.3334   5
  -1   3  -5 22.3248 3.26076   2
  -1   3  -5 26.8963 4.15743   1
  -1   3  -5 22.4202 3.80842   5
   1  -3   5 20.1574 3.85056   5
   1  -3   5 24.9481 3.58354   1
  -2   3  -5 1236.97 30.9627   1
  -2   3  -5 1271.61 30.2607   5
  -2   3  -5 1241.15 28.8729   2
   2  -3   5 1252.60 29.9568   1
   2  -3   5 1265.56 31.3795   5
  -3   3  -5 42.1115 5.69723   1
  -3   3  -5 45.4763 5.39758   5
  -3   3  -5 38.4244 4.52910   2
   3  -3   5 37.0473 4.73227   1
   3  -3   5 38.8380 5.63126   5
  -4   3  -5 1553.61 37.4799   5
  -4   3  -5 1470.25 35.6383   2
  -4   3  -5 1556.36 38.3432   1
   4  -3   5 1510.46 36.8124   1
   4  -3   5 1539.24 39.0679   5
  -5   3  -5 52.2987 6.52592   5
  -5   3  -5 65.9016 7.70803   1
  -5   3  -5 47.9668 5.49392   2
   5  -3   5 50.2096 7.31538   5
   5  -3   5 54.2540 6.28711   1
  -6   3  -5 552.816 20.1435   5
  -6   3  -5 607.127 21.5726   1
  -6   3  -5 559.839 18.3574   2
   6  -3   5 549.208 21.4243   5
  -7   3  -5 -0.9925 5.98887   5
  -7   3  -5 -5.1945 6.06838   1
  -7   3  -5 -7.1787 4.68164   2
   7  -3   5 6.23888 6.12653   5
  -8   3  -5 110.768 9.38219   2
  -8   3  -5 99.8264 11.5032   1
  -8   3  -5 99.4780 10.7791   5
   8  -3   5 114.903 12.0498   5
   9   2  -5 281.721 15.7124   5
   9   2  -5 286.644 18.5597   3
   9   2  -5 299.198 16.9004   1
  -9  -2   5 277.938 16.9802   2
  -9  -2   5 329.749 19.3378   5
   8   2  -5 506.034 20.4223   5
   8   2  -5 546.026 20.8949   3
   8   2  -5 509.800 20.6666   1
  -8  -2   5 505.664 21.2853   2
  -8  -2   5 499.643 21.8013   5
   7   2  -5 193.671 12.3587   3
   7   2  -5 160.212 12.1374   1
   7   2  -5 198.094 11.8928   5
  -7  -2   5 197.938 13.7975   5
  -7  -2   5 190.112 12.4647   2
  -7  -2   5 191.485 12.2594   1
   6   2  -5 0.61385 5.35794   3
   6   2  -5 8.68306 4.53939   1
   6   2  -5 7.56470 4.97956   5
  -6  -2   5 -2.0447 4.14514   1
  -6  -2   5 -0.3413 4.45177   5
  -6  -2   5 4.99480 4.71358   2
   5   2  -5 1746.06 42.8038   1
   5   2  -5 1790.97 42.7817   5
  -5  -2   5 1789.63 44.3044   5
  -5  -2   5 1785.93 42.2600   1
  -5  -2   5 1766.63 42.8292   2
   4   2  -5 25.2765 4.64635   1
   4   2  -5 17.6824 3.49967   4
   4   2  -5 19.4161 4.35989   5
   4   2  -5 22.6399 3.56008   6
  -4  -2   5 28.7386 4.96655   2
  -4  -2   5 21.9652 4.98956   5
  -4  -2   5 21.2769 4.15743   1
   3   2  -5 154.016 8.22835   1
   3   2  -5 153.191 7.66156   6
   3   2  -5 147.838 7.93763   5
   3   2  -5 140.632 7.15434   4
  -3  -2   5 148.889 7.78168   1
  -3  -2   5 147.166 8.03891   2
  -3  -2   5 149.825 8.50267   5
   2   2  -5 288.610 10.5136   4
   2   2  -5 312.523 10.8127   5
   2   2  -5 300.517 10.9892   1
  -2  -2   5 305.062 11.4905   5
  -2  -2   5 292.430 10.7701   2
  -2  -2   5 303.047 10.5427   1
   1   2  -5 10.1413 3.06389   1
   1   2  -5 13.2426 3.25386   5
   1   2  -5 15.2562 3.53623   4
  -1  -2   5 17.1693 3.62342   5
  -1  -2   5 11.1408 2.80181   1
   0   2  -5 211.939 8.52938   5
   0   2  -5 210.622 8.66515   1
   0   2  -5 194.188 7.73021   2
   0  -2   5 197.377 7.96173   1
   0  -2   5 205.543 8.85900   5
  -1   2  -5 1034.13 25.5946   1
  -1   2  -5 1036.19 25.4149   5
  -1   2  -5 1016.76 24.5099   2
  -1   2  -5 1047.96 25.5876   1
   1  -2   5 1058.11 26.1086   5
   1  -2   5 1031.27 24.9843   1
  -2   2  -5 40.2632 4.64176   5
  -2   2  -5 45.8073 4.19015   2
  -2   2  -5 44.0754 4.83247   1
   2  -2   5 39.8283 4.79086   5
   2  -2   5 37.5355 4.12853   1
  -3   2  -5 469.702 15.3252   5
  -3   2  -5 449.739 14.4976   2
  -3   2  -5 489.590 15.8132   1
   3  -2   5 444.744 15.6298   5
   3  -2   5 483.307 14.7376   1
  -4   2  -5 572.256 17.1903   2
  -4   2  -5 541.567 18.2585   1
  -4   2  -5 569.331 18.1366   5
   4  -2   5 533.827 18.5242   5
   4  -2   5 556.175 17.3373   1
  -5   2  -5 391.670 14.3316   2
  -5   2  -5 390.114 15.5512   5
  -5   2  -5 381.594 15.6627   1
   5  -2   5 363.765 15.9470   5
   5  -2   5 360.241 14.2760   1
  -6   2  -5 33.4301 6.70981   1
  -6   2  -5 37.4371 6.59071   5
  -6   2  -5 39.3112 5.96495   2
   6  -2   5 46.6736 7.20281   5
   6  -2   5 46.0722 6.63724   1
  -7   2  -5 51.8518 7.93407   1
  -7   2  -5 49.1116 7.57769   5
  -7   2  -5 49.4979 7.13230   2
   7  -2   5 41.7901 7.53775   5
   7  -2   5 40.4812 7.03605   1
  -8   2  -5 68.4431 9.43491   5
  -8   2  -5 98.1012 9.54731   2
  -8   2  -5 85.3534 10.2496   1
   8  -2   5 97.6197 11.0191   5
   9   1  -5 108.149 11.2091   5
   9   1  -5 118.119 11.8667   1
  -9  -1   5 101.040 11.6754   2
  -9  -1   5 141.661 14.0657   5
   8   1  -5 4.60903 5.45005   3
   8   1  -5 15.3003 6.26231   1
   8   1  -5 10.0866 6.21652   5
  -8  -1   5 9.19176 5.85523   1
  -8  -1   5 5.42726 5.63963   5
  -8  -1   5 1.86805 5.46956   2
   7   1  -5 12.1730 5.73784   5
   7   1  -5 15.1763 6.28107   3
   7   1  -5 1.25964 5.60526   1
  -7  -1   5 10.3083 5.52561   2
  -7  -1   5 10.3947 5.69118   1
  -7  -1   5 22.4937 7.16968   5
   6   1  -5 31.1738 5.61938   1
   6   1  -5 18.8073 5.79758   5
   6   1  -5 17.1953 5.68774   3
  -6  -1   5 21.8016 5.38629   1
  -6  -1   5 23.1135 5.82657   2
  -6  -1   5 19.0960 5.73266   5
   5   1  -5 531.482 18.2670   5
   5   1  -5 508.480 17.7455   1
  -5  -1   5 547.934 19.4403   5
  -5  -1   5 568.951 18.7287   2
  -5  -1   5 534.982 17.9912   1
   4   1  -5 6.79661 3.94085   5
   4   1  -5 0.27120 3.82877   1
  -4  -1   5 4.82011 4.12183   5
  -4  -1   5 4.77851 3.56978   1
  -4  -1   5 7.07329 3.78354   2
   3   1  -5 2110.17 47.1154   1
   3   1  -5 2154.90 47.4220   5
  -3  -1   5 2086.23 48.0921   5
  -3  -1   5 2026.32 46.8322   2
  -3  -1   5 2016.87 46.6224   1
   2   1  -5 168.795 6.91692   4
   2   1  -5 178.974 8.16120   5
   2   1  -5 171.471 8.08534   1
  -2  -1   5 169.542 8.52301   5
  -2  -1   5 179.161 8.18386   2
  -2  -1   5 185.483 8.01443   1
   1   1  -5 18.7798 3.43793   1
   1   1  -5 16.1410 3.23821   5
  -1  -1   5 19.5999 3.26266   1
  -1  -1   5 14.5564 3.40736   5
   0   1  -5 616.852 16.8656   1
   0   1  -5 632.206 17.0988   5
   0   1  -5 639.966 16.6864   2
   0  -1   5 619.889 17.3711   5
   0  -1   5 645.177 16.7623   1
  -1   1  -5 1678.48 38.0089   2
  -1   1  -5 1744.49 38.7959   5
  -1   1  -5 1726.02 38.6015   1
   1  -1   5 1681.30 38.8884   5
   1  -1   5 1697.39 38.1556   1
  -2   1  -5 450.522 13.6157   2
  -2   1  -5 483.525 14.5138   5
  -2   1  -5 440.098 14.2522   1
   2  -1   5 457.604 14.4138   5
   2  -1   5 460.451 13.7616   1
  -3   1  -5 31.9558 4.51038   1
  -3   1  -5 27.5341 4.18195   2
  -3   1  -5 30.5704 4.82893   5
   3  -1   5 36.9109 4.45551   1
   3  -1   5 28.8463 4.44836   5
  -4   1  -5 661.466 19.9105   5
  -4   1  -5 616.058 19.2605   1
  -4   1  -5 680.874 19.2391   2
   4  -1   5 673.480 19.1838   1
   4  -1   5 650.269 19.9480   5
  -5   1  -5 459.226 16.8152   1
  -5   1  -5 434.734 15.9494   2
  -5   1  -5 449.376 16.9177   5
   5  -1   5 478.873 17.3840   5
   5  -1   5 474.559 16.2504   1
  -6   1  -5 472.302 17.9321   1
  -6   1  -5 484.377 17.5727   2
  -6   1  -5 472.706 18.3260   5
   6  -1   5 466.059 17.1321   1
   6  -1   5 491.413 18.5651   5
  -7   1  -5 287.840 14.0427   2
  -7   1  -5 263.556 14.3737   1
  -7   1  -5 289.322 15.2752   5
   7  -1   5 292.439 14.0201   1
   7  -1   5 261.393 14.7768   5
  -8   1  -5 277.987 16.0713   5
  -8   1  -5 305.805 15.7010   2
  -8   1  -5 314.238 16.6545   1
   8  -1   5 285.324 14.9105   1
   8  -1   5 281.208 15.6273   5
  -9   1  -5 26.0668 8.06524   5
  -9   1  -5 21.5975 7.60775   2
  -9   1  -5 18.9691 7.57397   1
   9  -1   5 16.8451 7.24675   5
   8   0  -5 28.0598 7.31791   1
   8   0  -5 25.3534 7.32135   5
  -8   0   5 15.7627 6.57138   1
  -8   0   5 11.3074 6.47921   5
  -8   0   5 18.6021 6.26986   2
   7   0  -5 550.653 21.7459   5
   7   0  -5 558.968 21.0251   1
   7   0  -5 555.908 19.1463   3
  -7   0   5 578.359 21.1593   2
  -7   0   5 585.993 21.1359   1
  -7   0   5 565.995 22.0996   5
   6   0  -5 1201.06 33.2601   5
   6   0  -5 1196.99 32.4164   1
   6   0  -5 1187.70 31.3240   3
  -6   0   5 1127.96 33.0840   5
  -6   0   5 1142.38 31.7850   2
  -6   0   5 1153.73 32.1643   1
   5   0  -5 80.7553 7.78658   1
   5   0  -5 68.2069 7.98998   5
  -5   0   5 87.4128 7.82757   1
  -5   0   5 94.1271 8.80016   5
  -5   0   5 85.2347 7.89016   2
   4   0  -5 638.538 19.8592   5
   4   0  -5 620.469 18.9675   1
  -4   0   5 654.062 19.1422   1
  -4   0   5 594.536 18.7142   2
  -4   0   5 626.196 20.0788   5
   3   0  -5 1038.37 26.5011   1
   3   0  -5 1020.33 26.9979   5
  -3   0   5 1059.74 26.6341   1
  -3   0   5 1033.88 27.4634   5
  -3   0   5 1094.88 26.6804   2
   2   0  -5 42.7375 4.77952   5
   2   0  -5 47.2569 4.79914   1
  -2   0   5 51.0654 5.13077   5
  -2   0   5 48.6650 4.76635   1
  -2   0   5 58.2455 5.06553   2
   1   0  -5 348.331 10.9404   2
   1   0  -5 325.427 11.1832   5
   1   0  -5 319.661 10.8312   1
  -1   0   5 313.753 10.5784   1
  -1   0   5 328.272 10.8493   2
  -1   0   5 333.262 11.5558   5
   0   0  -5 22.6735 3.56383   5
   0   0  -5 17.5935 2.95698   2
   0   0  -5 14.2529 3.00902   1
   0   0   5 17.4449 3.07766   1
   0   0   5 6.23955 2.60261   5
  -1   0  -5 2.03457 2.38086   1
  -1   0  -5 0.66489 2.27448   2
  -1   0  -5 6.50690 2.74046   5
   1   0   5 3.44006 2.19446   1
   1   0   5 4.96219 2.72608   5
  -2   0  -5 239.072 9.66393   5
  -2   0  -5 253.195 9.38646   1
  -2   0  -5 250.945 9.32289   2
   2   0   5 241.265 8.99072   1
   2   0   5 250.938 9.63028   5
  -3   0  -5 1037.81 26.0012   1
  -3   0  -5 1039.56 26.5613   5
  -3   0  -5 1046.81 25.8931   2
   3   0   5 1027.40 25.7159   1
   3   0   5 1044.65 26.3712   5
  -4   0  -5 5.65213 3.69754   5
  -4   0  -5 7.78971 3.78928   2
  -4   0  -5 5.47390 3.66065   1
   4   0   5 6.43499 3.43996   1
   4   0   5 17.2685 3.95503   5
  -5   0  -5 27.5407 5.24311   1
  -5   0  -5 26.7843 5.41118   5
  -5   0  -5 26.8032 5.16655   2
   5   0   5 25.4031 5.24993   5
   5   0   5 38.6623 5.36751   1
  -6   0  -5 58.8643 7.78929   5
  -6   0  -5 63.6865 6.94999   2
  -6   0  -5 59.3006 7.26261   1
   6   0   5 65.7039 7.08072   1
   6   0   5 63.9994 7.33565   5
  -7   0  -5 55.3429 7.19074   1
  -7   0  -5 53.8455 7.76648   5
  -7   0  -5 43.5587 6.95796   2
   7   0   5 52.9357 7.43990   5
   7   0   5 56.6818 7.37270   1
  -8   0  -5 25.0516 6.78270   2
  -8   0  -5 20.5636 6.40370   1
  -8   0  -5 18.3709 6.96907   5
   8   0   5 15.7697 6.31062   1
   8   0   5 21.2308 6.85490   5
  -9   0  -5 15.8663 6.70200   1
  -9   0  -5 11.1201 6.66547   2
  -9   0  -5 19.1980 7.46409   5
   9   0   5 10.5662 6.47676   5
   9   0   5 12.7167 6.63061   1
   8  -1  -5 -6.6847 5.93175   5
  -8   1   5 9.18042 6.48559   2
  -8   1   5 -3.4792 6.35493   5
  -8   1   5 2.80108 6.10722   1
   7  -1  -5 252.838 14.4342   1
   7  -1  -5 250.483 15.5002   5
  -7   1   5 218.588 14.1839   5
  -7   1   5 231.548 14.0799   1
  -7   1   5 236.404 13.4533   2
   6  -1  -5 16.1452 5.12312   1
   6  -1  -5 23.9758 6.54330   5
   6  -1  -5 13.2145 4.87434   3
  -6   1   5 11.8106 5.55560   5
  -6   1   5 17.3634 5.03870   2
  -6   1   5 12.6906 5.30159   1
   5  -1  -5 113.966 9.63864   5
   5  -1  -5 99.6427 8.32905   1
  -5   1   5 111.147 9.18267   2
  -5   1   5 105.181 8.65732   1
  -5   1   5 112.528 9.93265   5
   4  -1  -5 384.447 14.2056   1
   4  -1  -5 399.130 15.3456   5
  -4   1   5 375.720 13.8856   2
  -4   1   5 387.855 14.4831   1
  -4   1   5 396.003 14.9882   5
   3  -1  -5 19.0203 4.20517   5
   3  -1  -5 28.2262 4.32962   1
  -3   1   5 20.7010 4.10338   1
  -3   1   5 22.6024 4.07992   2
  -3   1   5 23.9343 4.67028   5
   2  -1  -5 24.4754 3.73688   1
   2  -1  -5 19.6544 4.03798   5
  -2   1   5 18.6891 3.61542   2
  -2   1   5 26.6326 4.32913   5
  -2   1   5 18.7400 3.79802   2
  -2   1   5 21.0958 3.87092   1
   1  -1  -5 3163.66 65.5946   2
   1  -1  -5 3156.10 65.4045   1
   1  -1  -5 3144.52 66.1428   5
  -1   1   5 3029.65 65.8989   5
  -1   1   5 3162.25 65.5973   1
  -1   1   5 2821.52 64.4679   2
  -1   1   5 3099.24 65.0103   2
   0  -1  -5 4.69002 2.40051   1
   0  -1  -5 8.09591 2.61150   2
   0  -1  -5 3.18099 2.69591   5
   0   1   5 5.23631 2.16780   2
   0   1   5 4.17817 2.77358   5
   0   1   5 2.05501 2.23523   2
   0   1   5 2.62348 2.31139   1
  -1  -1  -5 725.016 17.8118   2
  -1  -1  -5 690.226 18.0457   5
  -1  -1  -5 647.811 17.2352   1
   1   1   5 663.090 16.8664   2
   1   1   5 647.781 17.6330   5
   1   1   5 671.121 17.4673   1
   1   1   5 685.539 17.2199   2
  -2  -1  -5 163.000 7.19695   1
  -2  -1  -5 171.966 7.28199   2
  -2  -1  -5 157.432 7.64062   5
   2   1   5 176.839 7.41040   1
   2   1   5 165.523 7.47533   5
   2   1   5 153.259 6.72912   2
  -3  -1  -5 1300.72 30.7454   1
  -3  -1  -5 1313.49 30.9534   2
  -3  -1  -5 1319.12 30.7820   1
  -3  -1  -5 1340.21 31.5766   5
   3   1   5 1292.57 30.2863   2
   3   1   5 1337.29 31.1606   5
   3   1   5 1282.24 30.6936   1
  -4  -1  -5 550.205 16.9289   5
  -4  -1  -5 516.702 15.7749   1
  -4  -1  -5 514.021 15.8645   2
   4   1   5 559.149 16.1157   1
   4   1   5 501.340 16.0008   5
   4   1   5 530.227 17.4425   2
  -5  -1  -5 4.09361 3.73928   1
  -5  -1  -5 -3.7628 3.53130   2
  -5  -1  -5 0.56829 4.31762   5
   5   1   5 -5.4672 3.64112   1
   5   1   5 -3.3239 3.65417   5
  -6  -1  -5 844.193 24.6515   2
  -6  -1  -5 842.945 24.4330   1
  -6  -1  -5 834.622 25.1884   5
   6   1   5 870.485 24.4633   1
   6   1   5 810.656 24.1771   5
  -7  -1  -5 129.690 10.7930   2
  -7  -1  -5 127.743 9.74967   1
  -7  -1  -5 114.089 10.0986   5
   7   1   5 127.621 9.81749   1
   7   1   5 107.106 9.36247   5
  -8  -1  -5 361.533 17.2506   2
  -8  -1  -5 376.877 16.6357   1
  -8  -1  -5 399.466 18.3029   5
   8   1   5 374.048 16.7033   1
   8   1   5 355.176 16.2899   5
  -9  -1  -5 246.263 16.4600   5
  -9  -1  -5 263.888 15.6137   2
   9   1   5 266.980 15.3531   1
   9   1   5 242.686 14.4083   5
   8  -2  -5 269.707 17.5620   5
  -8   2   5 243.082 15.7680   1
  -8   2   5 225.711 13.9483   2
  -8   2   5 217.863 14.8669   5
   7  -2  -5 19.6072 7.27050   5
  -7   2   5 25.9209 6.63584   1
  -7   2   5 8.50025 6.34642   5
  -7   2   5 14.0043 5.45183   2
   6  -2  -5 33.9396 7.39453   5
  -6   2   5 35.5905 6.83375   5
  -6   2   5 31.5518 5.91849   2
  -6   2   5 30.6005 6.46053   1
   5  -2  -5 360.173 15.3678   5
   5  -2  -5 292.441 12.8298   1
  -5   2   5 334.940 12.8233   2
  -5   2   5 343.575 14.5941   1
  -5   2   5 296.171 13.7487   5
   4  -2  -5 615.050 20.0603   5
   4  -2  -5 597.927 18.3148   1
  -4   2   5 574.656 18.9433   5
  -4   2   5 589.120 19.0665   1
  -4   2   5 610.770 17.8935   2
  -4   2   5 589.475 17.1745   2
   3  -2  -5 1.10295 3.17384   1
   3  -2  -5 2.19067 3.70480   5
  -3   2   5 -0.4979 3.28103   1
  -3   2   5 -1.2922 3.12736   2
  -3   2   5 3.18665 3.75996   5
  -3   2   5 -0.3914 2.50046   2
   2  -2  -5 402.240 12.4457   1
   2  -2  -5 384.162 13.3510   5
  -2   2   5 393.837 11.4741   2
  -2   2   5 376.121 12.7442   1
  -2   2   5 389.588 12.8994   5
  -2   2   5 375.761 11.7955   2
   1  -2  -5 1030.80 25.8910   5
   1  -2  -5 1013.93 24.7915   1
   1  -2  -5 1072.16 25.4485   2
  -1   2   5 1039.28 25.2744   5
  -1   2   5 1058.08 24.2192   2
  -1   2   5 1078.96 25.5505   1
  -1   2   5 1030.11 23.9459   2
   0  -2  -5 413.426 12.3069   2
   0  -2  -5 395.897 11.8046   1
   0  -2  -5 428.319 12.9308   5
   0   2   5 430.946 11.2577   2
   0   2   5 440.984 12.4491   5
   0   2   5 420.842 12.5385   1
   0   2   5 413.761 11.3044   2
  -1  -2  -5 -0.2694 1.91402   1
  -1  -2  -5 -3.9066 2.33075   5
  -1  -2  -5 0.31650 2.25915   2
   1   2   5 -2.5154 1.80791   2
   1   2   5 -1.1879 1.78484   2
   1   2   5 -2.3565 2.16887   5
   1   2   5 1.35088 2.33923   1
  -2  -2  -5 161.612 7.07130   2
  -2  -2  -5 179.212 7.00036   1
  -2  -2  -5 174.099 7.92627   5
   2   2   5 167.452 6.47994   2
   2   2   5 183.180 7.38869   1
   2   2   5 176.258 6.42006   2
   2   2   5 159.876 7.00432   5
  -3  -2  -5 981.218 23.4028   1
  -3  -2  -5 986.341 23.8869   2
  -3  -2  -5 927.131 24.2348   5
   3   2   5 982.504 22.5876   2
   3   2   5 974.343 23.5494   5
   3   2   5 953.149 23.6760   1
  -4  -2  -5 1.23231 2.83016   1
  -4  -2  -5 4.80013 3.60384   5
  -4  -2  -5 3.37357 2.90383   2
  -4  -2  -5 0.34530 2.88023   1
   4   2   5 2.10206 2.60646   2
   4   2   5 4.65338 3.06132   1
   4   2   5 5.83285 3.12908   5
  -5  -2  -5 112.285 8.27623   5
  -5  -2  -5 119.724 7.48715   1
  -5  -2  -5 129.360 8.51568   2
   5   2   5 129.803 8.12977   1
   5   2   5 117.281 7.12973   2
   5   2   5 133.879 8.07019   5
  -6  -2  -5 37.2465 6.47524   5
  -6  -2  -5 37.3256 5.94787   2
  -6  -2  -5 24.4709 4.95953   1
   6   2   5 38.3885 4.71261   2
   6   2   5 31.2136 5.59148   5
   6   2   5 31.5016 5.48604   1
  -7  -2  -5 15.9977 5.58901   2
  -7  -2  -5 1.19616 4.39266   1
  -7  -2  -5 8.38887 5.82908   5
   7   2   5 8.57268 5.03221   1
   7   2   5 6.89830 4.44783   5
  -8  -2  -5 2.61402 5.45194   5
  -8  -2  -5 3.46078 5.30534   2
   8   2   5 5.23397 5.30090   1
   8   2   5 0.11346 4.90337   5
  -9  -2  -5 4.36060 6.38314   5
   9   2   5 0.19981 5.94759   1
   9   2   5 -1.6838 5.29216   5
 -10  -2  -5 4.52817 8.25241   5
  10   2   5 -2.4463 6.92909   1
  10   2   5 -7.4592 5.13832   5
   7  -3  -5 4.46293 6.67391   5
  -7   3   5 2.28980 4.33320   2
  -7   3   5 0.80074 5.35362   5
  -7   3   5 0.57687 5.76218   1
   6  -3  -5 -1.7591 5.47538   5
  -6   3   5 -1.6487 4.97861   1
  -6   3   5 -0.4013 5.09091   5
  -6   3   5 1.30554 3.97337   2
   5  -3  -5 447.828 18.3626   5
  -5   3   5 441.835 14.3179   2
  -5   3   5 425.265 16.9949   1
  -5   3   5 443.513 16.5305   5
   4  -3  -5 227.638 12.6306   5
  -4   3   5 276.639 12.3340   1
  -4   3   5 264.536 11.7464   5
  -4   3   5 262.822 9.65833   2
  -4   3   5 238.340 9.75241   2
   3  -3  -5 6.50961 3.37120   1
   3  -3  -5 7.91448 4.07852   5
  -3   3   5 5.08724 3.88801   5
  -3   3   5 -3.0493 3.42760   1
  -3   3   5 3.11033 2.79321   2
  -3   3   5 7.01366 3.25130   2
   2  -3  -5 69.6079 6.23396   5
   2  -3  -5 66.9332 5.22229   1
  -2   3   5 68.7388 4.55021   2
  -2   3   5 69.9129 4.63931   2
  -2   3   5 70.9563 5.89733   5
  -2   3   5 74.0331 5.97100   1
   1  -3  -5 282.046 9.19833   1
   1  -3  -5 285.148 10.0508   2
   1  -3  -5 293.234 10.7834   5
  -1   3   5 285.728 7.79559   2
  -1   3   5 285.671 7.74058   2
  -1   3   5 287.341 9.58149   5
  -1   3   5 286.185 10.2341   1
   0  -3  -5 49.3320 4.65650   5
   0  -3  -5 38.6624 3.36506   1
   0   3   5 39.9040 3.48659   5
   0   3   5 40.5659 3.97590   1
  -1  -3  -5 600.920 15.8952   1
  -1  -3  -5 615.302 16.4927   5
   1   3   5 604.451 16.0071   1
   1   3   5 623.225 14.9776   5
  -2  -3  -5 72.2371 4.38250   1
  -2  -3  -5 72.3243 5.48730   5
   2   3   5 80.8284 5.24330   1
   2   3   5 70.7674 4.42880   5
  -3  -3  -5 2.58038 2.18473   1
  -3  -3  -5 7.50450 2.96879   5
   3   3   5 6.79235 2.42616   5
   3   3   5 6.89167 2.75235   1
  -4  -3  -5 658.220 17.2451   1
  -4  -3  -5 640.390 17.9664   2
  -4  -3  -5 649.992 18.7632   5
   4   3   5 657.684 18.1330   1
   4   3   5 665.916 15.3274   2
   4   3   5 661.948 17.1452   5
   4   3   5 687.485 15.4870   2
  -5  -3  -5 2416.14 53.1267   1
  -5  -3  -5 2449.50 55.1664   5
  -5  -3  -5 2399.60 54.2119   2
   5   3   5 2468.59 53.0944   5
   5   3   5 2414.30 54.1239   1
   5   3   5 2453.93 51.1744   2
  -6  -3  -5 121.848 8.60987   2
  -6  -3  -5 126.891 8.01391   1
  -6  -3  -5 113.620 9.59103   5
   6   3   5 105.282 7.70880   5
   6   3   5 102.700 8.43184   1
   6   3   5 114.169 6.63090   2
  -7  -3  -5 10.8783 5.34770   5
   7   3   5 7.67331 4.33674   1
   7   3   5 12.8733 3.66819   2
   7   3   5 1.39230 3.94053   5
  -8  -3  -5 812.919 27.3503   5
   8   3   5 808.538 24.0522   5
   8   3   5 887.095 26.5573   1
  -9  -3  -5 -1.2748 6.61270   5
   9   3   5 -0.1760 5.77960   1
   9   3   5 -2.2795 4.75412   5
 -10  -3  -5 476.927 23.2402   5
  10   3   5 441.573 18.6667   5
  10   3   5 466.469 21.3016   1
   7  -4  -5 38.8985 9.62245   5
   6  -4  -5 21.7616 7.12322   5
  -6   4   5 24.6847 6.68542   1
  -6   4   5 18.7233 3.83721   2
  -6   4   5 22.7521 6.06968   5
   5  -4  -5 45.1188 7.46927   5
  -5   4   5 34.9505 5.82297   5
  -5   4   5 38.2851 3.95693   2
  -5   4   5 48.3750 6.75412   1
   4  -4  -5 7.29959 5.01140   5
  -4   4   5 -2.5218 3.67843   5
  -4   4   5 1.89822 4.27636   1
   3  -4  -5 175.632 10.4661   5
  -3   4   5 191.213 8.50441   5
  -3   4   5 182.295 9.71210   1
   2  -4  -5 796.692 22.5116   5
  -2   4   5 797.357 21.9458   1
  -2   4   5 830.593 19.5417   5
   1  -4  -5 12.9647 3.56887   5
  -1   4   5 17.8450 3.89924   1
   0  -4  -5 246.885 9.40137   5
   0   4   5 253.292 9.25031   1
  -1  -4  -5 1736.29 39.2832   5
   1   4   5 1810.59 39.0574   1
  -2  -4  -5 156.775 7.14812   5
   2   4   5 155.667 6.94477   1
  -3  -4  -5 184.324 8.05755   5
   3   4   5 190.251 7.67048   1
  -4  -4  -5 31.2433 4.41474   5
   4   4   5 28.0371 4.18996   1
  -5  -4  -5 187.510 9.69570   5
   5   4   5 167.691 8.86779   1
  -6  -4  -5 69.8951 7.18537   5
   6   4   5 51.8746 6.19093   1
   6   4   5 57.8625 4.90162   5
  -7  -4  -5 59.6662 7.64277   5
   7   4   5 56.3026 6.65526   1
   7   4   5 80.1507 6.59823   5
  -8  -4  -5 89.2896 9.46998   5
   8   4   5 89.1134 7.84242   5
   8   4   5 79.9747 8.29324   1
  -9  -4  -5 163.344 13.2115   5
   9   4   5 143.545 11.7022   1
   9   4   5 166.971 10.3773   5
 -10  -4  -5 134.197 13.1563   5
  10   4   5 102.569 8.91817   5
  10   4   5 111.472 11.4991   1
   6  -5  -5 410.742 20.1055   5
  -6   5   5 447.413 19.4229   1
  -6   5   5 413.060 14.7133   5
   5  -5  -5 121.253 11.0471   5
  -5   5   5 102.125 9.32820   1
   4  -5  -5 57.4253 7.45630   5
  -4   5   5 53.6966 6.87417   1
   3  -5  -5 415.917 16.2018   5
  -3   5   5 448.790 15.8629   1
   2  -5  -5 485.793 16.4217   5
  -2   5   5 490.733 15.8139   1
   1  -5  -5 191.445 9.26491   5
  -1   5   5 180.629 8.92289   1
   0  -5  -5 19.3684 3.81201   5
   0   5   5 29.4961 3.91411   1
  -1  -5  -5 182.385 7.68866   5
   1   5   5 180.750 7.45832   1
  -2  -5  -5 2.07716 2.78080   5
   2   5   5 4.59932 2.78303   1
  -3  -5  -5 68.6616 5.51155   5
   3   5   5 77.6875 5.51793   1
  -4  -5  -5 7.62521 3.57678   5
   4   5   5 4.02409 3.29706   1
  -5  -5  -5 18.6572 4.32275   5
   5   5   5 18.5254 4.03144   1
  -6  -5  -5 22.7598 5.05907   5
   6   5   5 23.2267 4.85496   1
  -7  -5  -5 1307.08 35.3202   5
   7   5   5 1346.61 34.3177   1
  -8  -5  -5 10.0085 6.37649   5
   8   5   5 16.1879 5.24818   1
  -9  -5  -5 312.771 17.1853   5
   9   5   5 299.802 15.4936   1
 -10  -5  -5 115.104 12.4948   5
  10   5   5 107.574 10.9219   1
  10   5   5 99.2263 7.94266   5
  -5   6   5 4.25914 5.85636   1
  -4   6   5 91.2212 8.62795   1
  -3   6   5 264.235 12.6190   1
  -2   6   5 103.615 8.01966   1
  -1   6   5 248.810 10.5542   1
   0   6   5 2427.28 52.8227   1
   1   6   5 49.6787 4.52028   1
   2   6   5 505.599 14.0513   1
   2   6   5 494.955 13.7520   1
   3   6   5 1572.59 35.7850   1
   3   6   5 1673.06 41.2704   1
   4   6   5 133.048 7.42669   1
   5   6   5 207.442 9.42530   1
   6   6   5 257.499 11.2220   1
   7   6   5 170.041 10.0334   1
   8   6   5 7.07966 5.14178   1
   9   6   5 157.233 12.1288   1
  -4   7   5 285.516 14.6971   1
  -3   7   5 39.7618 6.22023   1
  -2   7   5 124.230 9.06989   1
  -1   7   5 103.303 7.59312   1
   0   7   5 1.10107 3.10066   1
   1   7   5 9.24286 3.24469   1
   2   7   5 70.5622 5.51444   1
   3   7   5 183.183 7.73573   1
   4   7   5 0.50212 3.06987   1
   5   7   5 47.1681 5.00922   1
   6   7   5 23.1636 4.54598   1
   7   7   5 5.66128 4.37629   1
   8   7   5 5.92138 5.06607   1
   9   7   5 538.662 20.4908   1
  -3   8   5 163.797 11.7470   1
  -2   8   5 41.3134 6.04870   1
  -1   8   5 475.926 15.7988   1
   0   8   5 11.9423 4.04001   1
   1   8   5 119.887 7.11668   1
   2   8   5 917.167 22.1294   1
   4   8   5 562.332 15.2192   1
   5   8   5 586.919 16.5424   1
   6   8   5 270.023 11.2639   1
   7   8   5 133.950 9.23996   1
   8   8   5 300.069 13.8139   1
  -1   9   5 36.0463 5.64162   1
   0   9   5 63.4729 6.04835   1
   1   9   5 299.847 10.9806   1
   6   9   5 74.9877 6.27519   1
   7   9   5 1.07688 4.23831   1
   8   9   5 6.01833 5.20303   1
   1  10   5 216.410 9.49086   1
   6  10   5 270.163 11.0005   1
   5   9  -6 303.078 19.4090   3
   5   9  -6 294.981 15.0804   1
   5   9  -6 345.591 20.4432   4
   4   9  -6 18.9465 5.73787   1
   4   9  -6 24.3236 8.14009   3
   4   9  -6 47.2298 10.3976   4
   3   9  -6 74.9614 7.72361   1
   3   9  -6 68.7944 10.0936   3
   3   9  -6 68.7761 11.5614   4
   2   9  -6 19.9597 8.29182   4
   2   9  -6 15.9218 5.53977   1
   2   9  -6 4.51632 6.31680   3
   1   9  -6 227.727 17.4261   6
   1   9  -6 238.500 18.1881   4
   1   9  -6 217.376 15.0865   3
   1   9  -6 225.606 12.9119   1
   0   9  -6 17.5100 6.03303   1
   0   9  -6 22.5060 8.94747   4
   0   9  -6 17.8457 6.94336   3
   0   9  -6 11.3093 8.43113   6
   6   8  -6 9.80461 7.23644   3
   6   8  -6 1.99542 7.26939   4
   6   8  -6 2.65033 5.10096   1
   5   8  -6 53.4707 9.91935   4
   5   8  -6 57.0208 9.59456   3
   5   8  -6 61.9943 7.44347   1
   4   8  -6 162.368 13.8763   3
   4   8  -6 157.381 14.4373   4
   4   8  -6 139.812 10.2370   1
   3   8  -6 95.0790 10.7356   3
   3   8  -6 125.181 9.99419   1
   3   8  -6 112.292 12.7391   4
   2   8  -6 151.721 13.0551   6
   2   8  -6 116.743 9.67448   1
   2   8  -6 131.685 13.3678   4
   2   8  -6 121.885 11.6995   3
   1   8  -6 2.12359 4.65577   1
   1   8  -6 -0.7205 6.07560   3
   1   8  -6 10.9236 7.12945   4
   1   8  -6 0.71308 7.05615   6
   0   8  -6 55.7708 8.33377   3
   0   8  -6 50.8209 10.2707   6
   0   8  -6 49.7925 6.90916   1
   0   8  -6 38.9538 6.46042   1
   0   8  -6 51.6325 10.5705   4
  -1   8  -6 116.569 13.1151   4
  -1   8  -6 145.222 14.9546   6
  -1   8  -6 124.970 11.0161   3
  -1   8  -6 146.173 10.5953   1
  -2   8  -6 -4.9061 8.11105   4
  -2   8  -6 -14.687 4.85806   1
  -2   8  -6 1.38643 7.73085   6
   7   7  -6 7.19050 5.17455   1
   7   7  -6 5.32583 6.56710   3
   6   7  -6 93.4181 9.06309   1
   6   7  -6 112.910 12.1257   3
   6   7  -6 123.343 12.1154   4
   5   7  -6 9.19233 7.02757   3
   5   7  -6 14.9979 7.66782   4
   5   7  -6 13.6170 5.17145   1
   4   7  -6 473.137 21.0248   3
   4   7  -6 516.882 18.0498   1
   4   7  -6 528.923 21.6838   4
   3   7  -6 501.122 21.0418   6
   3   7  -6 513.591 17.7301   1
   3   7  -6 524.660 21.6315   3
   3   7  -6 520.797 21.7358   4
   2   7  -6 6.53121 5.96823   3
   2   7  -6 2.82516 6.45405   6
   2   7  -6 -4.3211 6.27531   4
   2   7  -6 4.51619 4.32796   1
   1   7  -6 81.2951 10.4004   4
   1   7  -6 73.0555 9.19197   3
   1   7  -6 60.9875 7.09453   1
   1   7  -6 76.2398 10.4122   6
   0   7  -6 156.388 11.5336   3
   0   7  -6 172.572 13.9409   4
   0   7  -6 149.524 10.0938   1
   0   7  -6 133.265 12.7989   6
  -1   7  -6 24.5267 6.52072   3
  -1   7  -6 37.9262 8.65958   4
  -1   7  -6 26.5745 8.17823   6
  -1   7  -6 24.5151 5.73989   1
  -2   7  -6 9.94002 5.43827   1
  -2   7  -6 7.19498 7.88689   6
  -2   7  -6 3.94396 7.07422   4
  -2   7  -6 0.53267 5.57382   3
  -3   7  -6 141.215 11.9076   1
  -3   7  -6 146.938 14.8307   6
  -3   7  -6 137.616 14.4458   4
  -4   7  -6 160.870 12.5211   1
  -4   7  -6 161.678 16.2584   6
  -4   7  -6 157.495 15.8342   4
   8   6  -6 104.696 10.8064   1
   8   6  -6 98.9285 12.2848   3
  -8  -6   6 100.710 11.5529   5
   7   6  -6 259.462 13.9925   1
   7   6  -6 245.079 16.2366   3
  -7  -6   6 264.646 15.9344   5
   6   6  -6 131.222 11.7287   4
   6   6  -6 126.876 10.5337   1
   6   6  -6 113.461 11.7194   3
  -6  -6   6 142.020 11.4547   5
   5   6  -6 70.6770 9.37363   3
   5   6  -6 71.7949 7.75027   1
   5   6  -6 71.7549 9.47266   4
  -5  -6   6 92.0878 9.01014   5
   4   6  -6 8.16502 6.27221   3
   4   6  -6 9.39884 4.89052   1
   4   6  -6 8.51267 6.02113   6
   4   6  -6 0.44683 6.15454   4
  -4  -6   6 14.1945 4.94444   5
   3   6  -6 85.1813 7.33561   1
   3   6  -6 83.3203 9.40583   3
   3   6  -6 60.2562 8.46627   4
   3   6  -6 97.2909 10.2111   6
  -3  -6   6 78.0538 7.66472   5
   2   6  -6 233.208 13.8829   3
   2   6  -6 256.133 11.6881   1
   2   6  -6 240.197 14.3555   6
   2   6  -6 248.957 14.5703   4
  -2  -6   6 227.563 11.7471   5
   1   6  -6 57.2812 8.65290   4
   1   6  -6 51.0154 8.40222   6
   1   6  -6 51.0849 6.31652   1
  -1  -6   6 56.9910 6.55613   5
   0   6  -6 125.057 11.6138   6
   0   6  -6 144.177 12.9819   4
   0   6  -6 136.452 9.27485   1
   0  -6   6 118.365 8.93207   5
  -1   6  -6 -1.7442 5.82718   4
  -1   6  -6 -3.5069 3.73516   1
  -1   6  -6 7.90364 6.99806   6
   1  -6   6 2.11752 4.50413   5
  -2   6  -6 20.2684 5.62046   1
  -2   6  -6 24.0158 7.83655   6
  -2   6  -6 5.19203 6.91133   4
   2  -6   6 20.7258 5.49230   5
  -3   6  -6 187.444 12.0356   1
  -3   6  -6 215.663 15.4629   4
  -3   6  -6 204.677 16.2218   6
   3  -6   6 198.751 13.0171   5
  -4   6  -6 -6.9465 7.25859   4
  -4   6  -6 -1.0644 5.83913   1
  -4   6  -6 7.76139 8.55005   6
   4  -6   6 -6.1378 6.42899   5
  -5   6  -6 116.327 8.09817   5
  -5   6  -6 134.720 14.6803   6
  -5   6  -6 155.205 12.8237   1
   5  -6   6 161.758 13.6919   5
   8   5  -6 6.16910 4.67608   5
   8   5  -6 9.97181 7.26487   3
   8   5  -6 -9.6496 5.36884   1
  -8  -5   6 -2.5103 6.07566   5
   7   5  -6 229.395 15.1846   3
   7   5  -6 190.797 12.6504   1
   7   5  -6 208.719 10.7563   5
  -7  -5   6 178.360 14.1371   5
   6   5  -6 12.8946 5.65368   4
   6   5  -6 12.6781 4.25284   5
   6   5  -6 15.9100 6.92176   3
   6   5  -6 4.93261 5.05329   1
  -6  -5   6 17.4694 6.05787   5
   5   5  -6 6.18133 3.69994   5
   5   5  -6 -1.2099 5.12150   4
   5   5  -6 16.3704 5.77058   3
   5   5  -6 0.49710 4.03224   1
  -5  -5   6 10.7231 4.98828   5
   4   5  -6 45.6191 4.71593   5
   4   5  -6 50.3516 7.15185   6
   4   5  -6 48.7099 7.15714   4
   4   5  -6 46.0146 6.18595   1
   4   5  -6 39.2386 7.19759   3
  -4  -5   6 54.2480 6.93519   5
   3   5  -6 20.2704 6.43107   4
   3   5  -6 23.7204 4.94464   1
   3   5  -6 26.9077 3.87998   5
   3   5  -6 22.7404 6.47879   6
  -3  -5   6 35.8300 5.61748   5
   2   5  -6 440.276 12.3161   5
   2   5  -6 414.905 17.4978   6
   2   5  -6 417.154 17.3596   4
   2   5  -6 399.495 14.8304   1
  -2  -5   6 413.549 15.3688   5
   1   5  -6 639.181 19.6862   1
   1   5  -6 629.887 22.7754   6
   1   5  -6 652.012 16.5225   5
   1   5  -6 667.694 22.7810   4
  -1  -5   6 612.147 19.7269   5
   0   5  -6 26.6849 7.27543   6
   0   5  -6 27.7499 3.83799   5
   0   5  -6 25.3169 5.42052   1
   0   5  -6 37.3798 7.49895   4
   0  -5   6 23.3428 5.40088   5
  -1   5  -6 149.177 7.26224   5
  -1   5  -6 125.232 9.12770   1
  -1   5  -6 130.503 12.2424   6
  -1   5  -6 156.409 12.1728   4
   1  -5   6 159.439 10.0274   5
  -2   5  -6 166.575 13.4254   6
  -2   5  -6 165.879 8.08545   5
  -2   5  -6 175.224 10.6946   1
   2  -5   6 164.211 10.5975   5
  -3   5  -6 8.51832 7.40512   6
  -3   5  -6 0.22374 3.79781   5
  -3   5  -6 7.15119 5.28728   1
   3  -5   6 5.92566 5.09484   5
  -4   5  -6 25.9951 5.17128   5
  -4   5  -6 17.5513 5.91388   1
  -4   5  -6 33.5337 9.15135   6
   4  -5   6 24.7084 6.77678   5
  -5   5  -6 48.6682 10.0781   6
  -5   5  -6 47.0557 6.34366   5
  -5   5  -6 41.8558 7.97946   1
   5  -5   6 36.0908 7.59603   5
  -6   5  -6 155.798 13.1920   1
  -6   5  -6 156.024 15.0871   6
  -6   5  -6 150.512 10.8453   5
   6  -5   6 136.644 12.9013   5
   8   4  -6 11.0244 6.49892   1
   8   4  -6 6.24031 5.15487   5
   8   4  -6 10.1372 7.04663   3
  -8  -4   6 3.58341 6.54094   5
   7   4  -6 1.71675 4.60358   5
   7   4  -6 -2.8503 5.59355   3
   7   4  -6 1.75540 4.48767   1
  -7  -4   6 4.13536 5.71823   5
   6   4  -6 119.308 11.3228   3
   6   4  -6 121.156 10.1824   1
   6   4  -6 129.803 9.43689   5
  -6  -4   6 138.665 11.4749   5
   5   4  -6 383.073 14.0581   5
   5   4  -6 369.302 14.4722   4
   5   4  -6 383.824 17.6779   3
   5   4  -6 383.639 15.4640   1
  -5  -4   6 363.502 16.0594   5
   4   4  -6 51.0124 6.43783   1
   4   4  -6 55.9974 6.64108   6
   4   4  -6 47.9007 5.60046   5
   4   4  -6 54.5426 6.90262   4
  -4  -4   6 45.5733 6.58922   5
  -4  -4   6 50.5479 7.97414   2
   3   4  -6 392.315 12.8783   5
   3   4  -6 370.967 15.0781   6
   3   4  -6 381.816 15.2493   4
   3   4  -6 367.991 14.4468   1
  -3  -4   6 374.005 14.6790   5
   2   4  -6 42.1529 7.08375   6
   2   4  -6 43.6485 6.62520   4
   2   4  -6 37.2373 4.70122   5
   2   4  -6 46.8540 5.60564   1
  -2  -4   6 41.8033 4.41967   1
  -2  -4   6 42.8488 5.77016   5
   1   4  -6 4.60427 5.82756   6
   1   4  -6 4.87559 3.74408   1
   1   4  -6 4.22990 5.18965   4
   1   4  -6 8.59059 3.28030   5
  -1  -4   6 4.33323 3.00008   1
  -1  -4   6 9.39471 4.11877   5
   0   4  -6 88.1864 6.34948   5
   0   4  -6 93.3776 7.39694   1
   0   4  -6 97.1684 8.97208   4
   0  -4   6 86.6793 7.40333   5
   0  -4   6 92.8029 6.57525   1
  -1   4  -6 34.8071 4.68592   5
  -1   4  -6 41.3310 5.97508   1
  -1   4  -6 51.0658 6.20475   1
   1  -4   6 38.1130 4.53683   1
   1  -4   6 44.0418 5.90523   5
  -2   4  -6 219.552 10.0625   5
  -2   4  -6 234.672 11.4818   1
  -2   4  -6 216.117 8.51600   2
   2  -4   6 204.572 11.7018   5
   2  -4   6 220.196 10.1224   1
  -3   4  -6 37.9933 6.52252   1
  -3   4  -6 45.9005 4.64034   2
  -3   4  -6 31.0908 5.30987   5
   3  -4   6 46.9776 6.50129   5
  -4   4  -6 4.68843 5.42198   1
  -4   4  -6 7.15552 4.63496   5
  -4   4  -6 -0.7750 3.65747   2
   4  -4   6 -7.9975 5.26590   5
  -5   4  -6 203.915 11.8361   5
  -5   4  -6 217.928 10.1977   2
  -5   4  -6 221.422 13.4132   1
   5  -4   6 229.376 14.2913   5
  -6   4  -6 3.54131 4.13293   2
  -6   4  -6 3.51922 6.10571   1
  -6   4  -6 2.13107 5.21412   5
   6  -4   6 12.2765 6.51447   5
  -7   4  -6 115.788 10.7253   5
  -7   4  -6 129.274 9.36362   2
  -7   4  -6 113.288 11.9152   1
  -7   4  -6 141.758 15.4360   6
   7  -4   6 139.374 13.2630   5
   8   3  -6 -0.4737 5.79090   1
   8   3  -6 3.59410 6.15664   3
   8   3  -6 0.80522 5.45330   5
  -8  -3   6 -6.5668 6.47174   5
   7   3  -6 69.8443 9.26948   3
   7   3  -6 85.0742 9.02291   1
   7   3  -6 66.6100 7.74519   5
  -7  -3   6 81.3310 9.74327   5
   6   3  -6 16.0403 6.26589   3
   6   3  -6 24.4900 5.88677   1
   6   3  -6 22.7313 5.80026   5
  -6  -3   6 22.1531 6.05612   2
  -6  -3   6 30.5854 6.89110   5
   5   3  -6 350.975 14.8174   1
   5   3  -6 373.393 14.2604   5
  -5  -3   6 344.749 14.6503   2
  -5  -3   6 346.922 15.7974   5
  -5  -3   6 332.055 13.8188   1
   4   3  -6 -1.0459 3.91839   5
   4   3  -6 17.1886 4.16457   4
   4   3  -6 3.38381 4.39642   6
   4   3  -6 1.86915 4.54488   1
  -4  -3   6 3.97680 4.16273   1
  -4  -3   6 4.28093 4.60328   5
  -4  -3   6 9.41299 4.68304   2
   3   3  -6 86.3262 7.33640   1
   3   3  -6 75.8823 7.13598   6
   3   3  -6 75.0016 7.19533   4
   3   3  -6 95.6663 7.25588   5
  -3  -3   6 91.4071 6.79355   1
  -3  -3   6 83.2572 7.59051   5
  -3  -3   6 77.8922 6.81568   2
   2   3  -6 56.7810 5.60023   5
   2   3  -6 56.0848 6.35459   4
   2   3  -6 59.5544 6.04422   1
  -2  -3   6 57.4430 5.29558   1
  -2  -3   6 49.5109 5.53286   5
   1   3  -6 216.812 11.2450   4
   1   3  -6 196.073 9.95582   1
   1   3  -6 184.336 8.84781   5
  -1  -3   6 203.294 10.1230   5
  -1  -3   6 200.129 8.79255   1
   0   3  -6 1089.26 27.7506   1
   0   3  -6 1054.38 26.8511   5
   0  -3   6 1121.09 28.4925   5
   0  -3   6 1071.94 26.6132   1
  -1   3  -6 185.593 8.20036   2
  -1   3  -6 179.263 8.67549   5
  -1   3  -6 171.964 9.59437   1
   1  -3   6 183.259 8.58385   1
   1  -3   6 190.202 9.94965   5
  -2   3  -6 60.2916 5.21934   2
  -2   3  -6 54.8841 5.80170   5
  -2   3  -6 49.0288 6.05777   1
   2  -3   6 64.5197 6.59512   5
   2  -3   6 46.6775 5.08797   1
  -3   3  -6 293.219 13.2988   1
  -3   3  -6 299.767 11.2806   2
  -3   3  -6 302.523 12.5341   5
   3  -3   6 299.872 11.9486   1
   3  -3   6 301.297 13.9307   5
  -4   3  -6 22.6053 5.65982   5
  -4   3  -6 29.9084 5.07812   2
  -4   3  -6 29.9296 6.20000   1
   4  -3   6 30.3842 5.34023   1
   4  -3   6 24.8365 6.15493   5
  -5   3  -6 17.2932 4.71132   2
  -5   3  -6 3.05565 5.31394   1
  -5   3  -6 8.22224 5.46861   5
   5  -3   6 13.4471 5.48557   5
   5  -3   6 16.9490 4.91360   1
  -6   3  -6 28.6399 6.91880   5
  -6   3  -6 16.9853 5.72902   2
  -6   3  -6 44.6359 7.80584   1
   6  -3   6 29.5398 7.28581   5
  -7   3  -6 1.58791 6.40926   1
  -7   3  -6 -3.1461 5.07984   2
  -7   3  -6 1.15206 6.30842   5
   7  -3   6 2.88359 6.63178   5
   8   2  -6 46.9701 8.19137   3
   8   2  -6 37.5611 7.54742   5
   8   2  -6 31.3482 7.81988   1
  -8  -2   6 32.6422 7.67045   2
  -8  -2   6 35.6063 8.37739   5
   7   2  -6 307.604 15.7917   1
   7   2  -6 286.574 15.6373   3
   7   2  -6 296.697 15.0042   5
  -7  -2   6 278.606 15.1179   2
  -7  -2   6 318.446 15.0659   1
  -7  -2   6 297.862 16.5737   5
   6   2  -6 48.6087 7.94906   3
   6   2  -6 66.7849 7.84768   1
   6   2  -6 55.4168 7.50000   5
  -6  -2   6 45.9304 6.57026   1
  -6  -2   6 64.0725 8.27799   5
  -6  -2   6 45.8157 7.17482   2
   5   2  -6 7.61764 4.77781   1
   5   2  -6 5.31988 4.49595   5
  -5  -2   6 3.04714 4.15227   1
  -5  -2   6 8.83096 5.19070   5
  -5  -2   6 4.71815 4.36373   2
   4   2  -6 36.2588 4.66464   6
   4   2  -6 10.4624 5.47468   5
   4   2  -6 11.4262 4.83695   1
   4   2  -6 21.0986 3.94418   4
  -4  -2   6 16.7637 6.14963   5
  -4  -2   6 10.2817 4.90256   2
  -4  -2   6 24.8798 5.21635   1
   3   2  -6 666.968 18.2168   4
   3   2  -6 674.667 19.6646   5
   3   2  -6 671.992 19.7851   1
  -3  -2   6 662.164 19.2024   1
  -3  -2   6 661.549 19.8435   2
  -3  -2   6 641.416 20.2412   5
   2   2  -6 11.4657 3.98508   1
   2   2  -6 8.98108 4.03547   4
   2   2  -6 13.4635 3.92165   5
  -2  -2   6 12.3603 3.90324   2
  -2  -2   6 14.9545 4.33913   5
  -2  -2   6 17.2648 3.71087   1
   1   2  -6 498.089 15.6463   5
   1   2  -6 518.811 15.8872   4
   1   2  -6 491.108 15.5747   1
  -1  -2   6 514.272 16.4889   5
  -1  -2   6 506.703 15.2390   1
   0   2  -6 13.9172 3.97528   5
   0   2  -6 23.0293 3.83030   2
   0   2  -6 17.7652 4.09493   1
   0  -2   6 18.0012 4.01362   5
   0  -2   6 16.3229 3.64203   1
  -1   2  -6 208.563 8.98990   2
  -1   2  -6 205.320 9.77696   1
  -1   2  -6 215.561 9.63343   5
   1  -2   6 183.672 8.93308   1
   1  -2   6 211.669 10.1591   5
  -2   2  -6 196.108 10.0191   1
  -2   2  -6 188.953 9.55575   5
  -2   2  -6 180.059 9.75098   1
  -2   2  -6 190.520 8.92444   2
   2  -2   6 186.913 9.81444   5
   2  -2   6 190.001 9.08724   1
  -3   2  -6 7.09533 4.13601   2
  -3   2  -6 6.11025 4.37892   5
  -3   2  -6 9.28325 4.46023   1
   3  -2   6 4.89802 3.78736   1
   3  -2   6 1.09235 4.27458   5
  -4   2  -6 713.883 20.5867   2
  -4   2  -6 687.113 21.7402   1
  -4   2  -6 629.671 20.9254   5
   4  -2   6 708.816 22.1052   5
   4  -2   6 649.508 20.2673   1
  -5   2  -6 -4.4765 4.49162   5
  -5   2  -6 -2.5611 4.06188   1
   5  -2   6 -4.8928 4.25468   1
   5  -2   6 -2.9422 4.37476   5
  -6   2  -6 74.2651 8.46626   1
  -6   2  -6 74.0442 7.50598   2
  -6   2  -6 73.0628 8.51118   5
   6  -2   6 73.5692 8.89592   5
   6  -2   6 70.7252 7.73841   1
  -7   2  -6 172.691 13.3211   5
  -7   2  -6 194.290 13.8959   1
  -7   2  -6 207.056 12.5135   2
   7  -2   6 191.455 12.9569   1
   7  -2   6 194.601 14.2323   5
  -8   2  -6 4.69773 5.80282   2
  -8   2  -6 9.37055 7.07158   1
  -8   2  -6 -6.1813 6.69634   5
   8  -2   6 -5.9188 5.85448   5
   8   1  -6 5.14780 5.81720   3
   8   1  -6 4.39511 6.22573   1
   8   1  -6 13.4378 6.48564   5
  -8  -1   6 7.11256 6.05578   1
  -8  -1   6 9.17131 7.40608   5
  -8  -1   6 3.07149 6.56376   2
   7   1  -6 413.592 17.5666   3
   7   1  -6 356.902 17.1156   1
   7   1  -6 385.078 17.7218   5
  -7  -1   6 352.984 16.8090   2
  -7  -1   6 371.411 17.0403   1
  -7  -1   6 366.079 18.0017   5
   6   1  -6 3.60972 4.86954   5
   6   1  -6 7.69551 5.74127   3
   6   1  -6 5.07444 4.80021   1
  -6  -1   6 7.92067 5.65509   5
  -6  -1   6 11.6226 5.67115   2
  -6  -1   6 18.3951 5.52014   1
   5   1  -6 20.4383 5.42445   1
   5   1  -6 19.9843 5.58654   5
  -5  -1   6 20.1843 5.18433   1
  -5  -1   6 25.2257 5.74807   5
  -5  -1   6 21.3991 5.19325   2
   4   1  -6 132.368 9.63343   5
   4   1  -6 131.682 9.32011   1
  -4  -1   6 147.031 9.55833   2
  -4  -1   6 139.977 9.40911   1
  -4  -1   6 143.579 10.2305   5
   3   1  -6 274.062 11.7303   1
   3   1  -6 288.230 12.1197   5
  -3  -1   6 275.282 12.4044   5
  -3  -1   6 274.649 12.0160   2
  -3  -1   6 276.099 11.4600   1
   2   1  -6 134.048 8.12054   5
   2   1  -6 125.845 8.28774   1
   2   1  -6 129.086 6.68226   4
  -2  -1   6 140.376 8.77750   5
  -2  -1   6 137.785 8.00160   1
  -2  -1   6 136.496 8.11955   2
   1   1  -6 254.447 10.2167   1
   1   1  -6 239.813 10.1310   5
  -1  -1   6 238.333 9.98700   2
  -1  -1   6 242.664 10.6712   5
  -1  -1   6 227.998 9.66060   1
   0   1  -6 47.6228 5.05554   1
   0   1  -6 43.3013 4.75027   2
   0   1  -6 39.4647 4.79486   5
   0  -1   6 44.5703 5.19003   5
   0  -1   6 42.4478 4.57962   1
  -1   1  -6 2.63295 3.26584   5
  -1   1  -6 4.07310 3.22817   2
  -1   1  -6 2.25944 3.20815   1
   1  -1   6 -2.8231 2.76267   1
   1  -1   6 1.37867 3.29660   5
  -2   1  -6 503.979 15.6209   2
  -2   1  -6 513.340 16.2785   5
  -2   1  -6 547.553 16.3896   1
   2  -1   6 510.171 16.5181   5
   2  -1   6 531.836 15.8243   1
  -3   1  -6 157.732 9.48791   1
  -3   1  -6 162.196 8.92547   2
  -3   1  -6 153.607 9.09436   5
   3  -1   6 144.892 9.24034   5
   3  -1   6 167.501 8.72741   1
  -4   1  -6 -2.3064 4.71648   1
  -4   1  -6 1.97871 4.19849   2
  -4   1  -6 3.48135 5.14540   5
   4  -1   6 5.67776 4.07739   1
   4  -1   6 5.73784 4.38216   5
  -5   1  -6 53.3406 6.99743   1
  -5   1  -6 54.0909 7.42414   5
  -5   1  -6 45.8268 6.02762   2
   5  -1   6 50.3873 7.32744   5
   5  -1   6 47.5709 6.41112   1
  -6   1  -6 178.925 11.6077   5
  -6   1  -6 162.152 10.7721   2
  -6   1  -6 188.603 11.8818   1
   6  -1   6 166.119 10.9069   1
   6  -1   6 176.740 12.0613   5
  -7   1  -6 -0.4371 5.21912   2
  -7   1  -6 2.99146 5.71050   1
  -7   1  -6 7.57517 5.53938   5
   7  -1   6 1.67843 5.80945   5
   7  -1   6 -1.3329 4.95110   1
  -8   1  -6 29.6931 7.12861   2
  -8   1  -6 23.5256 7.53671   1
  -8   1  -6 23.5751 7.63354   5
   8  -1   6 23.1562 6.85486   5
   8  -1   6 34.5564 7.58154   1
   8   0  -6 169.208 13.2566   1
   8   0  -6 161.132 13.7037   5
  -8   0   6 133.789 12.6114   5
  -8   0   6 134.991 11.7393   1
  -8   0   6 144.011 12.4188   2
   7   0  -6 77.2918 9.14045   1
   7   0  -6 71.4270 8.30753   3
   7   0  -6 70.8949 9.40139   5
  -7   0   6 98.7107 9.74850   2
  -7   0   6 68.6413 8.72227   1
  -7   0   6 75.6579 9.67837   5
   6   0  -6 94.1999 9.17499   1
   6   0  -6 89.1530 9.11149   5
  -6   0   6 98.1539 9.19520   1
  -6   0   6 93.7964 8.75974   2
  -6   0   6 102.806 9.98440   5
   5   0  -6 1224.62 33.8677   5
   5   0  -6 1207.90 32.9433   1
  -5   0   6 1289.46 33.2183   2
  -5   0   6 1232.83 33.2011   1
  -5   0   6 1247.60 34.4075   5
   4   0  -6 68.5332 7.47235   5
   4   0  -6 81.4120 7.41718   1
  -4   0   6 80.5759 7.31394   1
  -4   0   6 79.3055 7.17606   2
  -4   0   6 72.6658 7.90287   5
   3   0  -6 4.10578 3.94075   1
   3   0  -6 -4.3400 3.59018   5
  -3   0   6 -3.6121 3.49931   2
  -3   0   6 -5.3054 3.21458   1
  -3   0   6 0.07415 4.37282   5
   2   0  -6 260.745 10.6250   1
   2   0  -6 243.491 11.0841   5
  -2   0   6 255.145 10.6518   2
  -2   0   6 223.687 10.2824   1
  -2   0   6 255.895 11.3365   5
   1   0  -6 252.799 10.5466   5
   1   0  -6 264.732 10.2842   1
   1   0  -6 254.605 9.89046   2
  -1   0   6 228.277 10.2427   5
  -1   0   6 242.326 9.77600   1
  -1   0   6 256.381 9.99282   2
   0   0  -6 45.4880 4.57577   2
   0   0  -6 59.7162 5.58467   5
   0   0  -6 54.2611 5.01547   1
   0   0   6 53.9335 5.19381   5
   0   0   6 54.5446 5.01559   2
   0   0   6 48.2466 4.73193   1
  -1   0  -6 1022.23 25.2512   5
  -1   0  -6 959.583 24.3890   1
  -1   0  -6 954.998 24.2239   2
   1   0   6 972.098 24.4009   1
   1   0   6 933.868 24.7973   5
  -2   0  -6 478.652 14.8097   2
  -2   0  -6 438.377 14.4750   1
  -2   0  -6 470.922 15.2563   5
   2   0   6 454.466 15.0918   5
   2   0   6 467.853 14.4567   1
  -3   0  -6 17.8125 3.97218   2
  -3   0  -6 15.2017 3.79050   1
  -3   0  -6 22.1303 4.45208   5
  -3   0  -6 17.3221 3.90440   1
   3   0   6 15.9835 4.11303   5
   3   0   6 14.0845 3.86797   1
  -4   0  -6 87.4322 7.29622   1
  -4   0  -6 83.1773 7.80971   5
  -4   0  -6 79.1505 6.84931   2
   4   0   6 78.5434 7.22186   5
   4   0   6 83.6158 6.89122   1
  -5   0  -6 78.4850 7.74466   5
  -5   0  -6 90.5986 7.90477   2
  -5   0  -6 79.0974 7.55066   1
   5   0   6 87.9028 7.98076   5
   5   0   6 71.8407 7.18571   1
  -6   0  -6 441.395 18.1595   5
  -6   0  -6 459.104 17.4198   2
  -6   0  -6 495.192 17.9166   1
   6   0   6 457.079 16.9386   1
   6   0   6 461.397 17.7912   5
  -7   0  -6 22.7916 5.94784   1
  -7   0  -6 22.3649 6.94126   5
  -7   0  -6 25.9129 6.18792   2
   7   0   6 8.77967 5.28689   1
   7   0   6 28.3626 6.30588   5
  -8   0  -6 117.455 10.6570   1
  -8   0  -6 127.233 11.8452   5
  -8   0  -6 107.989 10.3852   2
   8   0   6 118.559 10.7012   5
   8   0   6 118.311 10.4822   1
  -9   0  -6 119.107 11.5976   2
  -9   0  -6 69.8219 10.8143   5
   9   0   6 78.2765 10.2538   5
   9   0   6 93.9395 10.3343   1
   8  -1  -6 8.36962 7.53778   5
  -8   1   6 6.19847 6.48153   1
  -8   1   6 14.8555 6.50967   2
  -8   1   6 14.6941 7.16639   5
   7  -1  -6 223.545 14.5130   5
  -7   1   6 185.188 13.1495   1
  -7   1   6 216.729 14.2245   5
  -7   1   6 219.965 13.6031   2
   6  -1  -6 29.5095 7.10657   5
   6  -1  -6 36.5496 6.99781   1
  -6   1   6 45.7762 7.29847   5
  -6   1   6 51.4365 6.66377   2
  -6   1   6 42.5449 7.06865   1
   5  -1  -6 395.595 16.7040   5
   5  -1  -6 375.652 15.3977   1
  -5   1   6 354.190 15.6544   1
  -5   1   6 401.286 15.5117   2
  -5   1   6 390.073 16.4254   5
   4  -1  -6 103.812 8.05893   1
   4  -1  -6 86.8332 8.30631   5
  -4   1   6 114.983 9.00089   1
  -4   1   6 110.758 8.69788   2
  -4   1   6 83.4439 8.06033   5
   3  -1  -6 47.2546 6.07541   5
   3  -1  -6 56.4713 5.92377   1
  -3   1   6 48.8569 5.89900   1
  -3   1   6 62.0222 6.89943   5
  -3   1   6 55.2301 5.86318   2
   2  -1  -6 212.076 10.3649   5
   2  -1  -6 204.391 9.51575   1
  -2   1   6 212.317 10.1578   5
  -2   1   6 205.226 9.64897   1
  -2   1   6 197.829 9.27779   2
   1  -1  -6 773.756 20.5840   1
   1  -1  -6 768.829 20.7954   2
   1  -1  -6 789.372 21.5177   5
  -1   1   6 789.825 20.9602   1
  -1   1   6 735.576 20.1619   2
  -1   1   6 777.411 21.3429   5
  -1   1   6 812.829 20.5261   2
   0  -1  -6 91.4862 5.94771   1
   0  -1  -6 95.7868 6.85005   5
   0  -1  -6 86.7514 6.09158   2
   0   1   6 92.5313 5.62131   2
   0   1   6 100.641 6.26785   1
   0   1   6 90.0128 6.52582   5
   0   1   6 83.8634 5.92710   2
  -1  -1  -6 688.244 19.2031   5
  -1  -1  -6 699.158 18.6347   2
  -1  -1  -6 685.084 18.3617   1
   1   1   6 678.311 18.3181   1
   1   1   6 676.155 17.7483   2
   1   1   6 682.593 18.7970   5
   1   1   6 654.697 17.7982   2
  -2  -1  -6 407.991 13.4109   2
  -2  -1  -6 425.501 13.3115   1
  -2  -1  -6 436.831 14.3210   5
   2   1   6 421.491 13.7209   5
   2   1   6 410.000 13.3149   1
   2   1   6 427.810 12.9705   2
  -3  -1  -6 5.44032 3.69522   5
  -3  -1  -6 12.3076 3.45065   1
  -3  -1  -6 10.0965 3.51708   2
   3   1   6 14.9600 3.60905   1
   3   1   6 10.1062 3.52249   5
   3   1   6 16.1184 3.58550   2
  -4  -1  -6 1115.63 27.5939   1
  -4  -1  -6 1029.87 28.1951   5
  -4  -1  -6 1071.01 27.9069   2
  -4  -1  -6 1039.65 27.3169   1
   4   1   6 1074.78 27.8103   5
   4   1   6 1055.82 29.3024   2
   4   1   6 1078.93 27.5799   1
  -5  -1  -6 37.6113 6.07143   2
  -5  -1  -6 35.6318 5.33455   1
  -5  -1  -6 33.3104 6.19993   5
   5   1   6 30.9184 5.63264   5
   5   1   6 33.3214 5.77350   1
  -6  -1  -6 -4.8111 4.91560   5
  -6  -1  -6 2.65537 4.76699   2
  -6  -1  -6 -7.5220 4.23039   1
   6   1   6 -7.6417 4.47760   5
   6   1   6 -11.652 4.23852   1
  -7  -1  -6 22.3083 6.93124   5
  -7  -1  -6 29.2976 6.41043   2
  -7  -1  -6 28.5305 6.25819   1
   7   1   6 31.3020 6.27896   1
   7   1   6 20.8283 5.75662   5
  -8  -1  -6 170.833 13.1550   2
  -8  -1  -6 186.287 13.3895   1
  -8  -1  -6 215.253 14.6440   5
   8   1   6 192.006 12.8652   5
   8   1   6 185.818 12.8080   1
  -9  -1  -6 -11.441 6.62327   2
  -9  -1  -6 -11.165 6.92101   5
   9   1   6 -1.5296 6.47993   1
   9   1   6 -10.506 5.47345   5
   7  -2  -6 -0.4358 5.57564   5
  -7   2   6 -2.9087 4.85595   2
  -7   2   6 0.96220 5.33248   5
  -7   2   6 -0.8586 5.68220   1
   6  -2  -6 225.897 14.6589   5
  -6   2   6 223.252 13.3283   1
  -6   2   6 217.499 11.9887   2
  -6   2   6 226.890 13.7140   5
   5  -2  -6 90.1946 8.92521   1
   5  -2  -6 95.1436 9.49850   5
  -5   2   6 87.9972 7.42266   2
  -5   2   6 95.7234 8.80914   5
  -5   2   6 84.5180 8.41913   1
   4  -2  -6 608.509 21.0008   5
   4  -2  -6 612.025 19.5162   1
  -4   2   6 662.582 20.6609   5
  -4   2   6 614.721 20.1536   1
  -4   2   6 633.536 18.9837   2
   3  -2  -6 1676.42 41.4394   5
   3  -2  -6 1705.19 40.1029   1
  -3   2   6 1764.21 40.9182   1
  -3   2   6 1693.78 39.1324   2
  -3   2   6 1640.53 38.5687   2
  -3   2   6 1684.54 40.7339   5
   2  -2  -6 349.282 13.5199   5
   2  -2  -6 358.414 12.5376   1
  -2   2   6 376.909 13.3042   1
  -2   2   6 354.577 11.4875   2
  -2   2   6 343.969 11.7274   2
  -2   2   6 359.547 13.2473   5
   1  -2  -6 202.085 9.85722   5
   1  -2  -6 218.298 8.93091   1
   1  -2  -6 209.660 9.21177   2
  -1   2   6 207.230 9.53760   5
  -1   2   6 222.996 8.65264   2
  -1   2   6 221.750 9.53476   1
  -1   2   6 220.396 8.25506   2
   0  -2  -6 365.556 12.0058   2
   0  -2  -6 339.864 11.3139   1
   0  -2  -6 327.809 12.2402   5
   0   2   6 354.727 11.8944   1
   0   2   6 367.679 12.1047   5
   0   2   6 363.065 10.7326   2
   0   2   6 354.761 10.8687   2
  -1  -2  -6 324.035 10.6207   1
  -1  -2  -6 325.323 11.2293   2
  -1  -2  -6 317.849 11.7365   5
   1   2   6 335.896 11.3185   1
   1   2   6 311.625 9.94350   2
   1   2   6 319.180 11.0280   5
   1   2   6 312.577 9.93851   2
  -2  -2  -6 21.0681 4.10160   5
  -2  -2  -6 24.4936 3.80184   2
  -2  -2  -6 21.5211 3.51013   1
   2   2   6 15.0270 3.10584   2
   2   2   6 22.6169 3.85857   5
   2   2   6 22.2330 3.88136   1
   2   2   6 11.2613 2.88939   2
  -3  -2  -6 580.956 17.0119   2
  -3  -2  -6 592.469 17.8234   5
  -3  -2  -6 562.720 16.3870   1
   3   2   6 569.181 15.5376   2
   3   2   6 612.879 16.9545   5
   3   2   6 579.538 16.9219   1
  -4  -2  -6 156.232 8.44826   1
  -4  -2  -6 143.735 8.78544   5
  -4  -2  -6 149.566 8.53118   2
   4   2   6 145.750 8.42863   1
   4   2   6 152.720 8.57462   5
   4   2   6 161.890 7.60085   2
  -5  -2  -6 33.7163 5.18001   2
  -5  -2  -6 24.1517 5.50245   5
  -5  -2  -6 31.1034 5.01077   1
  -5  -2  -6 34.0346 5.04304   1
   5   2   6 31.1452 4.48670   2
   5   2   6 27.8221 5.21314   1
   5   2   6 28.6374 5.21048   5
  -6  -2  -6 244.865 12.5541   2
  -6  -2  -6 233.039 11.6846   1
  -6  -2  -6 222.618 12.5012   5
   6   2   6 228.826 12.0496   1
   6   2   6 240.592 11.6198   5
  -7  -2  -6 221.762 12.8831   2
  -7  -2  -6 213.889 13.7966   5
  -7  -2  -6 232.729 13.3930   1
   7   2   6 232.843 12.7369   1
   7   2   6 252.634 12.3563   5
  -8  -2  -6 277.788 16.2868   5
  -8  -2  -6 313.205 19.2563   2
   8   2   6 299.843 15.4225   1
   8   2   6 288.635 14.0212   5
  -9  -2  -6 6.29809 7.16401   5
   9   2   6 13.9372 6.81604   1
   9   2   6 10.4404 6.22153   5
   7  -3  -6 249.884 16.7493   5
  -7   3   6 285.056 15.7467   5
  -7   3   6 271.041 16.6503   1
   6  -3  -6 47.0265 8.43349   5
  -6   3   6 43.4101 7.30736   1
  -6   3   6 50.0531 7.50100   5
  -6   3   6 35.1626 5.55679   2
   5  -3  -6 26.9065 6.53639   5
  -5   3   6 25.8008 6.19087   1
  -5   3   6 20.1525 4.61025   2
  -5   3   6 31.7994 6.51713   5
   4  -3  -6 68.3386 7.94630   5
  -4   3   6 60.6794 5.40718   2
  -4   3   6 60.7226 6.67596   5
  -4   3   6 76.9274 7.38364   1
  -4   3   6 53.0140 4.93170   2
   3  -3  -6 475.287 17.1631   5
   3  -3  -6 442.891 17.8358   1
  -3   3   6 475.639 15.7687   5
  -3   3   6 459.608 13.5446   2
  -3   3   6 469.000 16.2975   1
  -3   3   6 433.126 13.2840   2
   2  -3  -6 88.1751 6.41284   1
   2  -3  -6 122.273 9.05391   5
  -2   3   6 92.3468 7.68425   1
  -2   3   6 104.354 5.90551   2
  -2   3   6 103.191 5.93101   2
  -2   3   6 95.6186 7.50943   5
   1  -3  -6 82.3461 5.71880   1
   1  -3  -6 87.4866 7.21123   5
   1  -3  -6 84.3373 6.44439   2
  -1   3   6 85.7461 5.06303   2
  -1   3   6 93.7894 6.59408   5
  -1   3   6 88.2446 4.90014   2
  -1   3   6 95.5750 6.93897   1
   0  -3  -6 211.541 8.09402   1
   0  -3  -6 212.083 8.90882   2
   0  -3  -6 209.606 9.76010   5
   0   3   6 220.012 9.34552   1
   0   3   6 225.074 8.56496   5
   0   3   6 226.042 6.86764   2
   0   3   6 212.433 6.69622   2
  -1  -3  -6 463.656 14.6123   5
  -1  -3  -6 465.148 13.9800   2
  -1  -3  -6 450.170 13.0187   1
   1   3   6 469.885 11.2429   2
   1   3   6 474.088 13.2698   5
   1   3   6 476.080 11.3175   2
   1   3   6 468.685 14.1430   1
  -2  -3  -6 2.21900 3.28309   5
  -2  -3  -6 2.50581 3.19983   2
  -2  -3  -6 4.85886 2.62435   1
   2   3   6 4.39856 1.92982   2
   2   3   6 -2.6047 3.08813   1
   2   3   6 8.46407 3.06229   5
   2   3   6 4.17304 1.94122   2
  -3  -3  -6 869.035 22.4444   2
  -3  -3  -6 887.260 23.2473   5
  -3  -3  -6 842.518 21.4760   1
   3   3   6 906.000 22.7438   1
   3   3   6 881.592 21.6437   5
   3   3   6 876.696 19.6189   2
   3   3   6 850.068 19.4954   2
  -4  -3  -6 369.497 13.6280   5
  -4  -3  -6 376.989 12.0535   1
  -4  -3  -6 361.016 12.9371   2
   4   3   6 382.303 10.4718   2
   4   3   6 380.046 10.5561   2
   4   3   6 362.547 12.9728   1
   4   3   6 347.155 11.9949   5
  -5  -3  -6 154.355 10.0794   5
  -5  -3  -6 171.261 9.71618   2
  -5  -3  -6 165.505 8.74137   1
   5   3   6 153.032 8.60765   5
   5   3   6 146.655 9.06981   1
   5   3   6 164.163 7.09865   2
  -6  -3  -6 838.745 25.5197   5
   6   3   6 842.245 23.1242   5
   6   3   6 850.897 24.4359   1
   6   3   6 850.624 21.1618   2
  -7  -3  -6 85.7744 8.82879   5
   7   3   6 100.401 7.05911   2
   7   3   6 96.1471 8.32859   5
   7   3   6 97.0390 8.67373   1
  -8  -3  -6 -5.7508 5.37206   5
   8   3   6 1.46648 4.44229   5
   8   3   6 -4.4168 4.86074   1
  -9  -3  -6 6.30977 6.96459   5
   9   3   6 14.6722 5.63884   5
   9   3   6 13.3875 6.44560   1
   6  -4  -6 1.81613 6.76731   5
  -6   4   6 4.38574 3.48206   2
  -6   4   6 5.30905 5.53122   5
  -6   4   6 2.78099 5.82192   1
   5  -4  -6 11.4530 6.14314   5
  -5   4   6 -1.9638 4.56671   5
   4  -4  -6 575.178 20.9580   5
  -4   4   6 533.609 19.4920   1
  -4   4   6 584.224 17.7278   5
   3  -4  -6 14.8471 5.19113   5
  -3   4   6 9.15800 3.97357   1
  -3   4   6 11.7011 4.03676   5
   2  -4  -6 1087.94 28.7759   5
  -2   4   6 1073.23 25.5542   5
  -2   4   6 1058.57 28.1586   1
   1  -4  -6 2409.62 54.2845   5
  -1   4   6 2413.58 53.4545   1
  -1   4   6 2378.63 50.6532   5
   0  -4  -6 339.604 12.4188   5
   0   4   6 335.340 11.8426   1
  -1  -4  -6 1155.16 28.3507   5
   1   4   6 1142.68 27.6356   1
  -2  -4  -6 259.396 10.4826   5
   2   4   6 274.830 10.2537   1
  -3  -4  -6 471.662 15.0083   5
   3   4   6 485.385 14.6928   1
  -4  -4  -6 1.66377 3.65988   5
   4   4   6 8.48389 3.69030   1
  -5  -4  -6 244.709 11.5192   5
   5   4   6 231.633 8.68124   5
   5   4   6 235.555 10.8738   1
  -6  -4  -6 33.4178 6.39259   5
   6   4   6 42.8636 6.00672   1
   6   4   6 37.4258 4.64580   5
  -7  -4  -6 1.09461 5.31683   5
   7   4   6 2.20329 3.85561   5
   7   4   6 7.19981 4.90136   1
  -8  -4  -6 163.376 13.0972   5
   8   4   6 161.340 9.56909   5
   8   4   6 200.041 12.2532   1
  -9  -4  -6 119.274 12.2859   5
   9   4   6 97.5627 10.3137   1
   9   4   6 116.064 9.32004   5
   5  -5  -6 379.534 18.5656   5
  -5   5   6 367.559 16.9584   1
  -5   5   6 366.479 12.8509   5
   4  -5  -6 9.60518 5.75778   5
  -4   5   6 -0.8777 4.42243   1
   3  -5  -6 -1.7560 4.33602   5
  -3   5   6 3.94627 4.46643   1
   2  -5  -6 1.17451 3.99094   5
  -2   5   6 -1.2270 3.44723   1
   1  -5  -6 266.185 11.6516   5
  -1   5   6 244.667 11.0142   1
   0  -5  -6 243.402 10.6113   5
   0   5   6 226.934 10.0117   1
  -1  -5  -6 761.215 20.8472   5
   1   5   6 785.412 20.5060   1
  -2  -5  -6 733.796 19.8847   5
   2   5   6 731.598 19.5373   1
  -3  -5  -6 5.04187 3.66027   5
   3   5   6 -0.2701 3.59420   1
  -4  -5  -6 15.0608 4.26122   5
   4   5   6 13.9471 4.01553   1
  -5  -5  -6 641.804 19.7482   5
   5   5   6 630.955 18.7236   1
  -6  -5  -6 23.1361 5.64494   5
   6   5   6 28.7671 5.33453   1
  -7  -5  -6 259.123 13.8812   5
   7   5   6 261.392 12.9150   1
  -8  -5  -6 684.594 24.4268   5
   8   5   6 673.589 22.8751   1
  -9  -5  -6 31.4358 8.05612   5
   9   5   6 24.6902 6.69973   1
  -4   6   6 2.24345 4.89970   1
  -3   6   6 6.38886 4.17583   1
  -2   6   6 317.987 13.2740   1
  -1   6   6 2.15523 3.68703   1
   0   6   6 1267.82 30.9071   1
   1   6   6 859.146 22.2428   1
   2   6   6 1218.37 29.1349   1
   3   6   6 264.123 10.3193   1
   4   6   6 636.629 17.9247   1
   5   6   6 345.849 12.8000   1
   6   6   6 49.4443 6.04576   1
   7   6   6 295.160 13.2281   1
   8   6   6 67.1312 7.81087   1
   9   6   6 19.9833 5.99098   1
  -3   7   6 219.093 12.6306   1
  -2   7   6 3.12659 4.34065   1
  -1   7   6 93.8037 7.86166   1
   0   7   6 5.61085 3.66525   1
   1   7   6 223.370 9.58423   1
   2   7   6 11.8625 3.68996   1
   3   7   6 120.382 7.28378   1
   4   7   6 96.8972 6.97297   1
   5   7   6 40.7436 5.14469   1
   6   7   6 6.62577 4.29192   1
   7   7   6 41.6446 6.19068   1
   8   7   6 40.3884 6.91016   1
   9   7   6 71.0666 8.42639   1
  -2   8   6 53.8429 6.96086   1
  -1   8   6 -2.6988 3.68754   1
   0   8   6 229.607 10.5818   1
   1   8   6 34.6548 4.62495   1
   2   8   6 435.038 13.6573   1
   3   8   6 779.861 20.4141   1
   4   8   6 228.527 9.80730   1
   5   8   6 223.875 9.93500   1
   6   8   6 518.619 16.9702   1
   7   8   6 11.6764 5.03816   1
   8   8   6 4.24235 5.01072   1
  -1   9   6 233.624 12.0255   1
   0   9   6 26.1587 4.78994   1
   1   9   6 146.963 8.82744   1
   2   9   6 12.3113 3.77094   1
   3   9   6 51.9469 4.94738   1
   4   9   6 2.83883 3.37013   1
   5   9   6 52.2931 5.59530   1
   6   9   6 28.6618 5.35612   1
   7   9   6 6.24555 5.00995   1
   2  10   6 309.448 11.6099   1
   4  10   6 179.853 8.72340   1
   5  10   6 362.376 12.6138   1
   5   8  -7 3.70463 7.91411   4
   5   8  -7 -3.5253 6.37156   3
   5   8  -7 5.64350 5.38828   1
   4   8  -7 85.1405 8.72773   1
   4   8  -7 83.9783 11.6230   3
   4   8  -7 106.309 12.4042   4
   3   8  -7 243.534 13.2283   1
   3   8  -7 276.796 16.9813   3
   3   8  -7 247.804 16.8466   6
   3   8  -7 278.835 17.4859   4
   2   8  -7 -9.9822 6.87793   6
   2   8  -7 1.90336 6.66552   4
   2   8  -7 -1.8831 4.73827   1
   2   8  -7 0.50385 6.43291   3
   1   8  -7 333.965 15.7892   1
   1   8  -7 353.038 20.2269   6
   1   8  -7 373.938 20.4701   4
   1   8  -7 356.792 18.5248   3
   0   8  -7 32.7412 9.86117   4
   0   8  -7 41.8882 8.80641   3
   0   8  -7 36.5797 9.61644   6
   0   8  -7 28.5770 6.53285   1
  -1   8  -7 85.5389 8.87731   1
  -1   8  -7 91.7218 13.0459   6
  -1   8  -7 83.6377 10.3384   3
  -1   8  -7 97.4384 13.2470   4
  -1   8  -7 81.0743 9.02688   1
   6   7  -7 62.8913 9.88223   4
   6   7  -7 49.9896 10.0675   3
   6   7  -7 56.2203 8.20695   1
   5   7  -7 111.842 9.60414   1
   5   7  -7 129.942 12.8133   4
   5   7  -7 104.505 12.2110   3
   4   7  -7 130.400 11.9833   6
   4   7  -7 128.987 10.4247   1
   4   7  -7 111.572 11.5428   3
   4   7  -7 145.595 13.0072   4
   3   7  -7 149.608 13.3359   3
   3   7  -7 159.647 13.8277   4
   3   7  -7 150.923 13.3153   6
   3   7  -7 172.144 11.0380   1
   2   7  -7 148.811 13.6764   4
   2   7  -7 138.851 12.8114   3
   2   7  -7 160.157 13.4186   6
   2   7  -7 165.956 11.0707   1
   1   7  -7 371.441 15.7364   1
   1   7  -7 361.942 19.1657   6
   1   7  -7 376.410 18.5589   3
   1   7  -7 362.786 19.0274   4
   0   7  -7 30.7182 8.95071   4
   0   7  -7 24.2051 6.18628   1
   0   7  -7 27.7496 8.39419   6
   0   7  -7 18.5752 7.17244   3
  -1   7  -7 1.91905 5.88617   3
  -1   7  -7 12.0591 5.48670   1
  -1   7  -7 -0.1473 7.33313   4
  -1   7  -7 -4.5164 4.37076   1
  -1   7  -7 -0.0347 6.82866   6
  -2   7  -7 185.352 16.2619   6
  -2   7  -7 168.959 12.4409   1
  -2   7  -7 175.404 13.4764   3
  -2   7  -7 195.704 15.7448   4
  -3   7  -7 8.50498 8.54885   4
  -3   7  -7 6.85614 6.02091   1
  -3   7  -7 6.01755 9.23068   6
   7   6  -7 3.06491 4.09305   5
   7   6  -7 1.05439 5.93145   1
   7   6  -7 5.69684 7.61438   3
  -7  -6   7 5.04209 6.74716   5
   6   6  -7 -5.5919 6.01322   4
   6   6  -7 8.25000 7.00882   3
   6   6  -7 -0.7546 4.96449   1
  -6  -6   7 -7.5793 5.22013   5
   5   6  -7 761.496 26.0456   4
   5   6  -7 761.171 24.5264   1
   5   6  -7 757.525 28.2829   3
  -5  -6   7 766.548 25.8329   5
   4   6  -7 3.92577 6.15057   3
   4   6  -7 -1.9378 6.17536   6
   4   6  -7 -4.9029 4.97939   1
   4   6  -7 10.0398 6.16937   4
  -4  -6   7 2.16513 4.75231   5
   3   6  -7 240.386 15.4535   3
   3   6  -7 265.677 15.0807   4
   3   6  -7 251.974 15.2129   6
   3   6  -7 276.472 13.3762   1
  -3  -6   7 238.417 13.1983   5
   2   6  -7 83.7858 9.95273   4
   2   6  -7 68.1262 9.73283   6
   2   6  -7 61.8345 7.24958   1
  -2  -6   7 72.2596 7.97939   5
   1   6  -7 119.198 11.7673   4
   1   6  -7 115.188 11.7960   6
   1   6  -7 126.201 9.79597   1
  -1  -6   7 118.729 10.4843   5
   0   6  -7 -2.4601 6.02598   6
   0   6  -7 8.58887 4.93141   1
   0   6  -7 2.54402 6.90276   4
   0  -6   7 -5.1378 4.18968   5
  -1   6  -7 711.983 28.0351   6
  -1   6  -7 772.765 28.0528   4
  -1   6  -7 798.418 24.7611   1
  -1   6  -7 827.560 24.6622   1
   1  -6   7 827.595 25.5699   5
  -2   6  -7 0.55283 7.72409   6
  -2   6  -7 -4.7538 7.46489   4
  -2   6  -7 14.6604 5.38430   1
   2  -6   7 5.52079 5.36033   5
  -3   6  -7 356.765 19.9483   6
  -3   6  -7 352.064 20.2234   4
  -3   6  -7 344.267 16.3119   1
   3  -6   7 384.887 18.0451   5
  -4   6  -7 282.766 15.4864   1
  -4   6  -7 253.410 17.9768   4
  -4   6  -7 263.828 18.2405   6
  -4   6  -7 252.639 10.8387   5
   4  -6   7 264.485 16.2525   5
   7   5  -7 0.09287 7.34849   3
   7   5  -7 5.20183 4.78006   5
   7   5  -7 8.94571 5.83405   1
  -7  -5   7 0.36026 6.52604   5
   6   5  -7 241.140 15.3581   4
   6   5  -7 221.238 11.2581   5
   6   5  -7 225.778 13.4307   1
   6   5  -7 229.937 16.0155   3
  -6  -5   7 211.400 14.4899   5
   5   5  -7 44.2521 6.76688   1
   5   5  -7 38.0927 7.82005   3
   5   5  -7 39.9730 5.61913   5
   5   5  -7 50.6557 7.26743   4
  -5  -5   7 38.4739 7.38645   5
   4   5  -7 154.876 13.0309   3
   4   5  -7 180.403 9.12319   5
   4   5  -7 166.787 11.4269   6
   4   5  -7 165.909 11.7990   4
   4   5  -7 156.202 11.2597   1
  -4  -5   7 169.638 11.6787   5
   3   5  -7 345.308 16.0357   4
   3   5  -7 319.430 14.2633   1
   3   5  -7 339.925 11.7970   5
   3   5  -7 298.910 15.5307   6
  -3  -5   7 339.383 15.2970   5
   2   5  -7 78.6679 9.57335   6
   2   5  -7 72.0344 8.63440   4
   2   5  -7 61.3801 6.77682   1
   2   5  -7 80.8661 6.37411   5
  -2  -5   7 72.6155 7.73733   5
   1   5  -7 840.777 28.0517   6
   1   5  -7 878.625 22.3150   5
   1   5  -7 891.889 25.2833   1
   1   5  -7 869.417 27.6467   4
  -1  -5   7 885.562 26.1998   5
   0   5  -7 21.3652 7.34415   6
   0   5  -7 17.5273 5.16269   1
   0   5  -7 14.1992 4.13242   5
   0   5  -7 30.4529 7.07509   4
   0  -5   7 12.7819 5.26852   5
  -1   5  -7 168.795 8.47080   5
  -1   5  -7 143.448 12.7401   4
  -1   5  -7 145.323 13.5262   6
  -1   5  -7 155.901 10.5901   1
   1  -5   7 145.001 10.5127   5
  -2   5  -7 164.885 13.7091   6
  -2   5  -7 175.186 9.04279   5
  -2   5  -7 163.506 10.9580   1
   2  -5   7 157.960 11.3973   5
  -3   5  -7 3.26739 5.29410   1
  -3   5  -7 3.39164 4.03347   5
  -3   5  -7 0.93353 7.10745   6
   3  -5   7 4.86127 5.60280   5
  -4   5  -7 243.829 17.0828   6
  -4   5  -7 272.230 12.4657   5
  -4   5  -7 273.872 14.9706   1
   4  -5   7 272.384 15.9700   5
  -5   5  -7 -15.076 4.92087   5
  -5   5  -7 -4.1553 6.56826   1
  -5   5  -7 -0.2257 3.25964   2
  -5   5  -7 17.0069 9.07790   6
   5  -5   7 -8.1825 5.61354   5
   8   4  -7 126.095 13.2414   3
   8   4  -7 170.144 13.8970   1
   8   4  -7 148.580 11.5769   5
  -8  -4   7 158.903 14.2774   5
   7   4  -7 3.87753 6.61439   3
   7   4  -7 13.5032 6.17889   1
   7   4  -7 7.10244 5.42954   5
  -7  -4   7 -2.6104 5.85254   5
   6   4  -7 142.134 10.4655   5
   6   4  -7 150.470 11.2487   1
   6   4  -7 115.357 11.5226   3
  -6  -4   7 135.475 11.9856   5
   5   4  -7 1.23729 4.83699   5
   5   4  -7 11.6577 6.15538   3
   5   4  -7 4.92277 4.63067   4
   5   4  -7 1.11710 4.63565   6
   5   4  -7 11.2644 5.17093   1
  -5  -4   7 8.56629 5.16952   5
   4   4  -7 16.0820 5.43935   4
   4   4  -7 29.5096 5.96075   6
   4   4  -7 26.8347 5.67000   1
   4   4  -7 21.1455 4.86323   5
  -4  -4   7 23.1968 5.85025   5
   3   4  -7 930.060 27.2314   4
   3   4  -7 946.544 26.7562   1
   3   4  -7 980.676 25.4184   5
   3   4  -7 926.972 27.5056   6
  -3  -4   7 938.288 27.8115   5
   2   4  -7 89.5718 9.08653   4
   2   4  -7 93.5141 8.06761   1
   2   4  -7 90.9951 7.31204   5
   2   4  -7 84.4086 9.58681   6
  -2  -4   7 89.6155 8.31497   5
   1   4  -7 433.900 15.7505   1
   1   4  -7 425.057 17.4664   4
   1   4  -7 427.641 14.4702   5
  -1  -4   7 443.194 16.6016   5
   0   4  -7 426.843 16.5648   1
   0   4  -7 458.116 18.8515   4
   0   4  -7 455.311 15.0573   5
   0  -4   7 467.357 17.4774   5
  -1   4  -7 398.646 15.4365   1
  -1   4  -7 363.432 13.5041   5
   1  -4   7 388.018 15.7239   5
  -2   4  -7 142.198 8.67963   5
  -2   4  -7 135.971 9.89237   1
  -2   4  -7 128.526 9.77232   1
  -2   4  -7 150.029 7.63900   2
   2  -4   7 155.908 10.7283   5
  -3   4  -7 727.157 19.8878   2
  -3   4  -7 732.791 22.0043   5
  -3   4  -7 769.113 23.6324   1
   3  -4   7 722.651 24.4832   5
  -4   4  -7 -3.7593 4.91950   5
  -4   4  -7 -7.1551 3.65600   2
  -4   4  -7 -5.8740 5.35479   1
   4  -4   7 -9.4542 5.13870   5
  -5   4  -7 1039.12 31.5808   1
  -5   4  -7 1009.20 29.2996   5
  -5   4  -7 1004.83 26.6383   2
   5  -4   7 1010.51 32.0088   5
  -6   4  -7 54.1849 6.21955   2
  -6   4  -7 66.0684 8.16900   5
  -6   4  -7 38.7326 8.70494   1
   6  -4   7 52.8812 9.45461   5
   8   3  -7 -1.2482 6.27052   1
   8   3  -7 -2.2679 5.77559   5
   8   3  -7 -9.9742 6.17976   3
  -8  -3   7 3.04157 6.93620   5
   7   3  -7 292.845 15.9813   1
   7   3  -7 272.597 16.2691   3
   7   3  -7 268.094 14.5602   5
  -7  -3   7 292.601 17.3280   5
   6   3  -7 9.55596 5.45831   1
   6   3  -7 19.5006 7.38737   3
   6   3  -7 17.2315 5.75679   5
  -6  -3   7 31.3739 7.12780   5
  -6  -3   7 12.6472 5.74092   2
   5   3  -7 104.007 8.97514   5
   5   3  -7 100.358 8.94432   1
  -5  -3   7 104.916 9.83757   5
  -5  -3   7 96.5229 9.10730   1
  -5  -3   7 106.743 9.30897   2
   4   3  -7 976.749 26.5676   4
   4   3  -7 1017.39 27.9151   5
   4   3  -7 1068.75 29.2363   1
   4   3  -7 1015.21 27.4053   6
  -4  -3   7 1050.09 28.8462   2
  -4  -3   7 1075.98 30.4645   5
   3   3  -7 155.989 10.7459   6
   3   3  -7 182.233 10.9833   1
   3   3  -7 165.602 9.92151   5
   3   3  -7 146.527 9.39255   4
  -3  -3   7 168.646 10.0912   2
  -3  -3   7 163.705 11.3784   5
  -3  -3   7 177.160 9.81257   1
   2   3  -7 677.992 21.0947   1
   2   3  -7 738.390 20.7472   5
   2   3  -7 675.058 21.2208   4
  -2  -3   7 726.559 20.5405   1
  -2  -3   7 712.391 22.3490   5
   1   3  -7 355.008 14.6499   4
   1   3  -7 376.292 13.5924   5
   1   3  -7 345.137 14.0406   1
  -1  -3   7 335.298 14.2410   5
  -1  -3   7 351.146 13.0672   1
   0   3  -7 327.975 12.6873   5
   0   3  -7 291.204 13.1950   1
   0  -3   7 304.252 12.1666   1
   0  -3   7 295.428 13.5426   5
  -1   3  -7 1168.62 28.9442   2
  -1   3  -7 1154.63 31.2026   1
  -1   3  -7 1195.15 30.4554   5
   1  -3   7 1229.72 32.1999   5
   1  -3   7 1192.49 30.0390   1
  -2   3  -7 238.854 12.0747   1
  -2   3  -7 241.300 11.4304   5
  -2   3  -7 242.330 10.5340   2
  -2   3  -7 233.207 12.2507   1
   2  -3   7 231.436 11.0991   1
   2  -3   7 249.663 12.7081   5
  -3   3  -7 203.363 11.0149   5
  -3   3  -7 206.005 10.1606   2
  -3   3  -7 200.117 11.5359   1
   3  -3   7 172.469 10.3379   1
   3  -3   7 211.051 12.3388   5
  -4   3  -7 108.558 9.30532   1
  -4   3  -7 110.085 8.54728   2
  -4   3  -7 125.686 9.97743   5
   4  -3   7 100.230 9.41142   5
   4  -3   7 135.376 9.58166   1
  -5   3  -7 65.2665 8.30487   5
  -5   3  -7 61.5521 7.03496   2
  -5   3  -7 69.7416 8.77385   1
   5  -3   7 70.0405 9.29113   5
  -6   3  -7 789.544 27.1329   1
  -6   3  -7 744.472 25.7690   5
  -6   3  -7 778.264 23.7832   2
   6  -3   7 824.259 28.1363   5
  -7   3  -7 94.5964 10.9474   1
  -7   3  -7 95.7223 8.88932   2
  -7   3  -7 84.7368 9.83142   5
   7  -3   7 132.316 12.7045   5
   8   2  -7 3.54571 5.92680   5
   8   2  -7 8.75352 6.51152   1
   8   2  -7 3.82881 6.50764   3
  -8  -2   7 5.43305 6.36359   2
  -8  -2   7 12.2564 7.20646   5
   7   2  -7 82.6483 9.64256   1
   7   2  -7 79.9268 10.0636   3
   7   2  -7 71.8718 8.80879   5
  -7  -2   7 77.0952 10.0918   5
  -7  -2   7 77.5676 9.13767   2
   6   2  -7 274.323 14.4410   5
   6   2  -7 292.785 14.9154   1
   6   2  -7 280.684 16.1547   3
  -6  -2   7 273.338 16.0637   5
  -6  -2   7 283.829 15.2172   2
  -6  -2   7 273.596 14.0602   1
   5   2  -7 40.0993 6.72824   1
   5   2  -7 38.7497 6.60392   5
  -5  -2   7 44.7082 6.52814   2
  -5  -2   7 61.2275 8.12074   5
  -5  -2   7 41.9849 6.12806   1
   4   2  -7 9.98804 4.92701   5
   4   2  -7 -1.3292 4.23311   6
   4   2  -7 7.32814 4.73076   1
   4   2  -7 1.03499 3.03516   4
  -4  -2   7 6.37284 4.98396   5
  -4  -2   7 4.73637 4.64475   2
  -4  -2   7 9.93802 4.84968   1
   3   2  -7 14.3364 5.14925   1
   3   2  -7 21.7937 4.60130   4
   3   2  -7 20.6249 5.55224   5
  -3  -2   7 17.0403 5.12825   5
  -3  -2   7 21.6461 4.89802   1
  -3  -2   7 6.35390 5.05206   2
   2   2  -7 36.0218 5.71996   5
   2   2  -7 43.0640 5.61611   4
   2   2  -7 39.7218 5.77956   1
  -2  -2   7 38.0252 5.38954   2
  -2  -2   7 51.6722 6.52598   5
  -2  -2   7 49.4066 5.63676   1
   1   2  -7 1088.07 28.3657   4
   1   2  -7 1114.25 28.8523   1
   1   2  -7 1093.92 28.7831   5
  -1  -2   7 1137.44 29.8787   5
  -1  -2   7 1081.41 28.1706   1
   0   2  -7 108.648 8.62694   1
   0   2  -7 90.5821 7.74901   5
   0   2  -7 105.255 7.66279   2
   0  -2   7 108.451 8.03162   1
   0  -2   7 109.812 9.00712   5
  -1   2  -7 744.626 20.6996   2
  -1   2  -7 750.001 21.6722   5
  -1   2  -7 747.250 21.8942   1
   1  -2   7 732.837 21.0091   1
   1  -2   7 708.119 22.2164   5
  -2   2  -7 451.061 16.6849   1
  -2   2  -7 464.473 15.7346   2
  -2   2  -7 481.721 16.4827   5
   2  -2   7 495.413 17.7360   5
   2  -2   7 487.085 16.1079   1
  -3   2  -7 236.737 12.6718   1
  -3   2  -7 218.425 11.9170   5
  -3   2  -7 235.407 12.5884   1
  -3   2  -7 232.432 11.2166   2
   3  -2   7 247.456 11.4361   1
   3  -2   7 255.523 13.0503   5
  -4   2  -7 222.033 11.3242   2
  -4   2  -7 214.551 12.2449   1
  -4   2  -7 190.778 11.7289   5
   4  -2   7 205.556 12.6851   5
   4  -2   7 217.135 11.2519   1
  -5   2  -7 407.742 16.7615   5
  -5   2  -7 395.530 17.0628   1
  -5   2  -7 390.048 15.8525   2
   5  -2   7 404.881 17.4248   5
   5  -2   7 409.486 16.3112   1
  -6   2  -7 96.0349 9.79457   1
  -6   2  -7 81.5076 9.26503   5
  -6   2  -7 77.5877 8.13022   2
   6  -2   7 62.2404 7.88779   1
   6  -2   7 73.8154 9.42433   5
  -7   2  -7 489.204 20.7319   5
  -7   2  -7 522.742 19.5512   2
  -7   2  -7 444.730 20.6079   1
   7  -2   7 500.922 21.7982   5
  -8   2  -7 255.189 14.9101   2
  -8   2  -7 232.040 15.8017   5
   8  -2   7 244.292 17.0462   5
   8   1  -7 25.7482 7.61959   5
  -8  -1   7 29.3714 8.77889   5
  -8  -1   7 12.9596 7.60752   2
   7   1  -7 5.18974 5.85187   1
   7   1  -7 1.42024 6.08467   3
   7   1  -7 1.64731 5.64271   5
  -7  -1   7 4.53879 5.54682   1
  -7  -1   7 -3.3531 5.80519   5
  -7  -1   7 -1.9870 5.62217   2
   6   1  -7 3.02456 5.08638   1
   6   1  -7 7.48727 5.13654   5
  -6  -1   7 1.51820 4.89169   1
  -6  -1   7 2.42768 5.30289   5
  -6  -1   7 -1.3261 4.88523   2
   5   1  -7 561.129 20.3333   5
   5   1  -7 566.398 20.3091   1
  -5  -1   7 577.198 21.2814   5
  -5  -1   7 587.319 20.3815   2
  -5  -1   7 539.658 19.4956   1
   4   1  -7 365.129 15.1859   1
   4   1  -7 359.643 15.1382   5
  -4  -1   7 366.980 15.9313   5
  -4  -1   7 337.589 14.4397   2
  -4  -1   7 359.888 14.5502   1
   3   1  -7 1662.42 40.9142   1
   3   1  -7 1687.16 41.4294   5
  -3  -1   7 1632.53 40.7341   2
  -3  -1   7 1688.82 40.7523   1
  -3  -1   7 1730.04 42.5270   5
   2   1  -7 657.942 19.9469   1
   2   1  -7 643.292 19.7636   5
   2   1  -7 618.974 17.5159   4
  -2  -1   7 640.984 19.5327   2
  -2  -1   7 662.761 19.5569   1
  -2  -1   7 630.361 20.2436   5
   1   1  -7 5.08034 4.11836   5
   1   1  -7 7.13621 3.94584   1
  -1  -1   7 0.38549 3.88130   5
  -1  -1   7 4.95480 3.71563   1
  -1  -1   7 -1.9422 3.76087   2
   0   1  -7 1334.94 33.6781   5
   0   1  -7 1405.17 33.6069   1
   0   1  -7 1372.52 33.1122   2
   0  -1   7 1308.79 33.9810   5
   0  -1   7 1356.66 33.0018   1
  -1   1  -7 155.339 9.83680   5
  -1   1  -7 159.982 9.85161   1
  -1   1  -7 163.825 9.32421   2
   1  -1   7 156.170 9.37392   1
   1  -1   7 155.017 10.0136   5
  -2   1  -7 734.984 21.8555   5
  -2   1  -7 755.438 21.2119   2
  -2   1  -7 725.717 21.6209   1
   2  -1   7 729.441 21.1893   1
   2  -1   7 735.559 22.1741   5
  -3   1  -7 1670.93 41.5084   5
  -3   1  -7 1745.60 41.4355   1
  -3   1  -7 1608.83 40.8263   1
  -3   1  -7 1641.71 40.3209   2
   3  -1   7 1714.27 40.8157   1
   3  -1   7 1790.22 42.3661   5
  -4   1  -7 272.274 12.8267   2
  -4   1  -7 273.628 13.4981   1
  -4   1  -7 296.623 13.8789   5
   4  -1   7 304.783 12.9457   1
   4  -1   7 273.916 13.4380   5
  -5   1  -7 73.0859 8.71800   5
  -5   1  -7 90.4599 8.47391   2
  -5   1  -7 77.8871 8.28958   1
   5  -1   7 84.1790 8.68121   5
   5  -1   7 76.1155 8.08267   1
  -6   1  -7 11.4910 5.93499   2
  -6   1  -7 5.62060 6.07075   5
  -6   1  -7 10.6035 5.83971   1
   6  -1   7 10.4966 5.86641   1
   6  -1   7 10.0246 5.67227   5
  -7   1  -7 8.25303 5.88860   2
  -7   1  -7 -3.1872 5.98470   5
  -7   1  -7 -6.0172 5.77115   1
   7  -1   7 -0.7290 5.67238   5
   7  -1   7 -1.9320 5.65841   1
  -8   1  -7 261.731 16.2734   1
  -8   1  -7 262.432 15.5328   2
  -8   1  -7 223.191 15.9357   5
   8  -1   7 255.903 15.5165   1
   8  -1   7 250.532 16.2222   5
   7   0  -7 484.561 20.6558   1
   7   0  -7 512.878 20.3635   3
   7   0  -7 503.835 21.6874   5
  -7   0   7 483.208 20.2680   1
  -7   0   7 517.159 20.6429   2
  -7   0   7 477.705 21.4832   5
   6   0  -7 129.038 11.3017   5
   6   0  -7 139.858 11.4133   1
  -6   0   7 135.181 10.9412   1
  -6   0   7 131.070 10.9761   2
  -6   0   7 132.573 11.4684   5
   5   0  -7 177.363 11.4807   1
   5   0  -7 175.754 11.9746   5
  -5   0   7 169.265 11.3590   1
  -5   0   7 173.484 11.7970   2
  -5   0   7 182.484 12.0090   5
   4   0  -7 117.760 9.93178   5
   4   0  -7 124.396 9.73904   1
  -4   0   7 102.884 9.46516   5
  -4   0   7 110.291 8.72779   2
  -4   0   7 109.813 8.96353   1
   3   0  -7 59.5090 6.89070   5
   3   0  -7 76.4837 7.18698   1
  -3   0   7 54.6237 6.26205   2
  -3   0   7 63.5919 7.33383   5
  -3   0   7 56.5569 6.66800   1
   2   0  -7 297.575 12.5209   1
   2   0  -7 305.660 13.2193   5
  -2   0   7 290.834 12.3432   2
  -2   0   7 291.214 13.0804   5
  -2   0   7 302.530 12.5471   1
   1   0  -7 323.723 12.4159   2
   1   0  -7 329.548 13.0727   5
   1   0  -7 332.954 12.7616   1
  -1   0   7 320.014 13.2160   5
  -1   0   7 316.534 12.5708   1
  -1   0   7 311.522 12.5708   2
   0   0  -7 110.406 7.75916   2
   0   0  -7 111.561 8.24458   5
   0   0  -7 113.885 7.73794   1
   0   0   7 102.999 7.30924   1
   0   0   7 109.004 7.90004   5
   0   0   7 110.918 7.88603   2
  -1   0  -7 1015.85 27.0440   5
  -1   0  -7 1012.51 26.2392   2
  -1   0  -7 1005.85 26.3795   1
   1   0   7 1027.21 27.2142   5
   1   0   7 987.406 25.9748   1
  -2   0  -7 24.7563 4.68758   1
  -2   0  -7 17.4714 4.87334   5
  -2   0  -7 15.4447 4.44123   2
   2   0   7 19.2515 4.42636   1
   2   0   7 8.38210 4.39100   5
  -3   0  -7 1048.51 28.0304   1
  -3   0  -7 1071.71 28.9129   5
  -3   0  -7 1046.98 27.9798   2
   3   0   7 1062.89 27.8564   1
   3   0   7 1064.96 28.6085   5
  -4   0  -7 208.170 12.0528   5
  -4   0  -7 223.755 11.4825   1
  -4   0  -7 199.313 11.2965   1
  -4   0  -7 205.473 11.0173   2
   4   0   7 193.936 11.5054   5
   4   0   7 199.729 11.0326   1
  -5   0  -7 119.690 9.49442   2
  -5   0  -7 124.950 9.78113   1
  -5   0  -7 127.214 10.7599   5
   5   0   7 101.631 9.00998   5
   5   0   7 104.903 8.66935   1
  -6   0  -7 77.0198 8.23072   2
  -6   0  -7 66.9468 8.00377   1
  -6   0  -7 70.2188 8.53520   5
   6   0   7 55.9361 7.61155   5
   6   0   7 72.9280 7.81774   1
  -7   0  -7 426.199 17.9257   2
  -7   0  -7 375.582 17.3111   1
  -7   0  -7 400.349 18.4767   5
   7   0   7 396.086 18.1749   5
   7   0   7 402.470 17.6131   1
  -8   0  -7 2.52357 6.48362   1
  -8   0  -7 -9.8949 5.98728   5
  -8   0  -7 9.26588 6.28711   2
   8   0   7 4.50457 5.64452   5
   8   0   7 -2.4726 5.74642   1
   7  -1  -7 7.03085 6.93686   5
  -7   1   7 2.30018 5.93691   1
  -7   1   7 4.52682 6.00086   5
  -7   1   7 -6.3447 5.05969   2
   6  -1  -7 10.7265 6.62340   1
   6  -1  -7 4.01639 5.90633   5
  -6   1   7 7.96548 5.55604   2
  -6   1   7 8.88997 5.66280   1
  -6   1   7 3.78594 5.53586   5
   5  -1  -7 49.6580 6.91117   1
   5  -1  -7 44.7591 7.54587   5
  -5   1   7 43.0000 6.92204   1
  -5   1   7 47.4169 7.30094   5
  -5   1   7 47.8287 6.60659   2
   4  -1  -7 2.60241 4.15495   1
   4  -1  -7 4.65590 4.64131   5
  -4   1   7 4.05041 4.46609   2
  -4   1   7 7.25406 4.36546   1
  -4   1   7 3.47764 4.27689   5
   3  -1  -7 25.5858 5.10935   1
   3  -1  -7 29.8382 6.02270   5
  -3   1   7 43.5612 5.98876   1
  -3   1   7 38.6569 5.52594   2
  -3   1   7 32.6426 6.11829   5
   2  -1  -7 61.8065 6.25745   1
   2  -1  -7 74.3217 7.24147   5
  -2   1   7 63.6960 6.81624   5
  -2   1   7 73.1903 6.28582   2
  -2   1   7 59.4806 6.22078   1
   1  -1  -7 1378.83 33.2881   2
   1  -1  -7 1362.75 34.0571   5
   1  -1  -7 1343.32 32.8767   1
  -1   1   7 1305.76 33.9641   2
  -1   1   7 1330.22 33.0325   1
  -1   1   7 1337.38 32.5091   2
  -1   1   7 1368.81 33.7280   5
   0  -1  -7 733.960 20.7709   1
   0  -1  -7 745.356 21.6758   5
   0  -1  -7 792.508 21.3639   2
   0   1   7 737.291 20.4075   2
   0   1   7 772.798 20.6217   2
   0   1   7 761.266 21.5919   5
   0   1   7 763.017 21.2220   1
  -1  -1  -7 56.2119 5.70765   1
  -1  -1  -7 42.1746 5.51909   2
  -1  -1  -7 46.3196 6.01433   5
   1   1   7 57.9568 5.82365   1
   1   1   7 50.3721 5.10840   2
   1   1   7 46.5423 5.25538   2
   1   1   7 44.5879 5.65999   5
  -2  -1  -7 787.955 21.2982   1
  -2  -1  -7 760.915 22.1661   5
  -2  -1  -7 746.450 21.2750   2
   2   1   7 715.701 20.6367   2
   2   1   7 777.551 21.8977   5
   2   1   7 795.548 21.5566   1
  -3  -1  -7 389.704 14.7017   5
  -3  -1  -7 387.113 13.9523   1
  -3  -1  -7 370.751 13.7309   2
   3   1   7 366.391 13.5112   1
   3   1   7 366.186 13.2574   2
   3   1   7 364.494 14.0043   5
  -4  -1  -7 181.658 10.2100   2
  -4  -1  -7 186.508 10.1138   1
  -4  -1  -7 190.241 11.2573   5
   4   1   7 178.279 11.0685   2
   4   1   7 180.872 10.2892   5
   4   1   7 181.783 9.98010   1
  -5  -1  -7 2304.37 53.1692   5
  -5  -1  -7 2233.28 51.4900   1
  -5  -1  -7 2269.57 51.8313   1
  -5  -1  -7 2240.04 52.2032   2
   5   1   7 2345.94 52.2129   1
   5   1   7 1858.66 50.9098   5
  -6  -1  -7 49.4865 7.03926   1
  -6  -1  -7 37.5197 6.75607   2
  -6  -1  -7 38.1773 7.10420   5
   6   1   7 46.8317 6.85625   1
   6   1   7 41.6037 6.40578   5
  -7  -1  -7 -0.2714 4.90381   1
  -7  -1  -7 3.33819 5.91668   2
  -7  -1  -7 0.94444 6.08945   5
   7   1   7 -5.8131 5.06945   1
   7   1   7 -2.9294 4.47517   5
  -8  -1  -7 35.7407 7.63455   2
  -8  -1  -7 27.2679 7.56194   5
   8   1   7 30.5769 7.35521   1
   8   1   7 34.7665 7.29771   5
  -9  -1  -7 2.63906 7.04480   5
  -9  -1  -7 1.01151 7.53574   2
   9   1   7 -6.5134 5.41511   5
   9   1   7 4.49449 6.50549   1
   7  -2  -7 93.8408 11.7106   5
  -7   2   7 108.553 11.1950   5
  -7   2   7 98.2778 10.9249   1
  -7   2   7 69.5198 8.65531   2
   6  -2  -7 118.639 11.5066   5
  -6   2   7 118.216 10.0346   2
  -6   2   7 109.227 10.2053   1
  -6   2   7 105.514 10.1182   5
   5  -2  -7 634.649 22.9834   5
  -5   2   7 614.727 19.8054   2
  -5   2   7 554.392 20.9149   5
  -5   2   7 621.674 21.8117   1
   4  -2  -7 283.276 13.0066   1
   4  -2  -7 270.452 14.1546   5
  -4   2   7 259.798 11.6814   2
  -4   2   7 268.404 13.5260   5
  -4   2   7 275.984 13.3242   1
   3  -2  -7 56.5459 6.45534   1
   3  -2  -7 55.2962 7.48019   5
  -3   2   7 60.9202 6.24888   2
  -3   2   7 59.0373 6.76380   1
  -3   2   7 73.2744 7.56436   5
   2  -2  -7 408.871 16.1566   5
   2  -2  -7 429.648 14.8599   1
  -2   2   7 404.699 13.5298   2
  -2   2   7 416.081 15.5838   5
  -2   2   7 454.164 15.8118   1
  -2   2   7 426.825 14.2166   2
   1  -2  -7 11.5067 4.14926   2
   1  -2  -7 17.4072 4.54351   5
   1  -2  -7 4.86379 3.58447   1
  -1   2   7 13.1798 4.08494   1
  -1   2   7 12.9909 3.39751   2
  -1   2   7 15.8606 3.67972   2
  -1   2   7 21.9850 4.52412   5
   0  -2  -7 270.831 11.2713   2
   0  -2  -7 292.199 11.0598   1
   0  -2  -7 310.345 12.5965   5
   0   2   7 313.573 11.8677   1
   0   2   7 280.765 10.2034   2
   0   2   7 283.503 10.4132   2
   0   2   7 306.359 11.8038   5
  -1  -2  -7 665.185 19.2575   2
  -1  -2  -7 632.124 19.6096   5
  -1  -2  -7 681.249 18.7593   1
   1   2   7 696.615 19.3547   1
   1   2   7 665.802 19.0948   5
   1   2   7 680.440 17.8880   2
   1   2   7 671.052 17.7710   2
  -2  -2  -7 -4.5402 2.76162   1
  -2  -2  -7 -10.279 3.76261   2
  -2  -2  -7 -3.9228 3.94086   5
   2   2   7 -3.3860 3.00251   2
   2   2   7 -3.4290 3.51149   1
   2   2   7 -2.7663 3.82604   5
   2   2   7 0.96188 3.28802   2
  -3  -2  -7 55.6616 5.78163   2
  -3  -2  -7 56.4834 6.46412   5
  -3  -2  -7 53.6503 5.36654   1
   3   2   7 62.3830 5.94497   1
   3   2   7 62.0126 5.10225   2
   3   2   7 57.9698 5.89568   5
  -4  -2  -7 -0.9729 4.33728   5
  -4  -2  -7 8.40815 3.84659   1
  -4  -2  -7 0.17922 4.25718   2
   4   2   7 3.31341 4.07670   1
   4   2   7 1.38828 3.44966   2
   4   2   7 4.49434 3.88359   5
  -5  -2  -7 153.510 10.2039   2
  -5  -2  -7 179.036 10.3076   1
  -5  -2  -7 184.832 11.2641   5
   5   2   7 176.837 10.4896   1
   5   2   7 175.960 10.2732   5
   5   2   7 157.700 8.74192   2
  -6  -2  -7 290.152 14.4463   5
  -6  -2  -7 267.583 13.4491   2
  -6  -2  -7 262.929 12.7177   1
  -6  -2  -7 255.546 12.4730   1
   6   2   7 258.652 13.0795   1
   6   2   7 256.157 12.6028   5
  -7  -2  -7 273.373 15.1639   2
  -7  -2  -7 274.830 15.5044   5
   7   2   7 243.918 13.0318   5
   7   2   7 254.762 13.9214   1
  -8  -2  -7 55.5638 9.01729   5
   8   2   7 58.5504 8.17870   1
   8   2   7 51.0537 7.34731   5
  -9  -2  -7 219.043 16.6976   5
   9   2   7 217.011 13.8654   5
   9   2   7 211.380 14.7372   1
   6  -3  -7 194.429 14.7688   5
  -6   3   7 186.941 12.6771   5
  -6   3   7 188.514 10.2908   2
  -6   3   7 174.909 13.4041   1
   5  -3  -7 56.7228 8.53632   5
  -5   3   7 63.2961 7.97648   5
  -5   3   7 49.4974 5.75541   2
  -5   3   7 37.9149 7.00076   1
   4  -3  -7 87.0642 9.14379   5
  -4   3   7 83.3686 8.02531   5
  -4   3   7 90.6449 6.99328   2
  -4   3   7 92.5757 8.51752   1
   3  -3  -7 65.8831 7.65052   5
  -3   3   7 61.0006 6.77747   1
  -3   3   7 65.2575 6.88885   5
  -3   3   7 55.2265 4.99802   2
  -3   3   7 53.8656 4.92488   2
   2  -3  -7 18.2793 5.48487   5
  -2   3   7 21.2193 3.77324   2
  -2   3   7 22.7258 4.96454   5
  -2   3   7 22.2871 3.69448   2
  -2   3   7 15.0667 4.76485   1
   1  -3  -7 6.49321 4.36351   5
   1  -3  -7 9.57879 4.41163   2
   1  -3  -7 10.4634 3.71220   1
  -1   3   7 9.61622 4.14534   5
  -1   3   7 13.6561 2.93767   2
  -1   3   7 7.86342 4.41907   1
  -1   3   7 15.4120 3.26681   2
   0  -3  -7 149.616 7.60787   1
   0  -3  -7 165.999 9.37266   5
   0  -3  -7 142.783 8.50206   2
   0   3   7 159.628 6.49174   2
   0   3   7 151.100 8.07845   5
   0   3   7 157.357 8.84208   1
   0   3   7 160.390 6.61279   2
  -1  -3  -7 1041.37 26.7179   2
  -1  -3  -7 1008.70 25.5639   1
  -1  -3  -7 1051.65 27.5673   5
   1   3   7 1076.60 26.9328   1
   1   3   7 1075.73 25.9346   5
   1   3   7 1055.71 23.7892   2
   1   3   7 1070.78 23.9021   2
  -2  -3  -7 636.084 19.8885   5
  -2  -3  -7 657.302 19.1641   2
  -2  -3  -7 661.173 18.0623   1
   2   3   7 657.911 16.1779   2
   2   3   7 673.406 18.2606   5
   2   3   7 668.525 16.2215   2
   2   3   7 694.588 19.5113   1
  -3  -3  -7 8.12841 3.91078   2
  -3  -3  -7 2.48465 3.80987   5
  -3  -3  -7 8.77327 3.21553   1
   3   3   7 4.08246 2.49874   2
   3   3   7 3.98687 3.50569   5
   3   3   7 2.05481 3.75057   1
   3   3   7 5.30451 2.59293   2
  -4  -3  -7 819.463 23.8498   5
  -4  -3  -7 796.258 21.7075   1
  -4  -3  -7 828.391 23.0707   2
   4   3   7 822.043 19.9768   2
   4   3   7 850.967 22.1542   5
   4   3   7 821.453 23.1396   1
   4   3   7 826.031 20.0613   2
  -5  -3  -7 22.1327 5.44516   5
   5   3   7 22.6128 4.65120   5
   5   3   7 16.6401 4.79485   1
   5   3   7 22.1414 3.70767   2
  -6  -3  -7 229.541 13.1067   5
   6   3   7 269.710 12.8181   1
   6   3   7 251.175 11.5433   5
   6   3   7 261.769 10.0701   2
  -7  -3  -7 788.527 26.4968   5
   7   3   7 809.440 23.6420   5
   7   3   7 808.131 25.1084   1
  -8  -3  -7 38.1496 7.82862   5
   8   3   7 8.24132 6.02524   1
   8   3   7 23.9133 5.74407   5
  -9  -3  -7 13.5500 7.22257   5
   9   3   7 11.3595 6.62537   1
   9   3   7 14.5715 5.74948   5
   5  -4  -7 104.977 10.7227   5
  -5   4   7 102.613 9.66644   1
  -5   4   7 86.9656 8.33495   5
   4  -4  -7 5.78093 5.54558   5
  -4   4   7 -4.5044 4.24846   5
  -4   4   7 -1.0160 4.51728   1
   3  -4  -7 835.376 26.1368   5
  -3   4   7 840.380 22.6509   5
  -3   4   7 821.662 25.0298   1
   2  -4  -7 133.545 9.96435   5
  -2   4   7 124.666 9.02903   1
  -2   4   7 129.010 7.52878   5
   1  -4  -7 28.3777 5.59248   5
  -1   4   7 16.4659 3.85607   5
  -1   4   7 24.7985 5.18006   1
   0  -4  -7 525.946 17.5289   5
   0   4   7 525.283 16.7619   1
   0   4   7 554.817 14.5170   5
  -1  -4  -7 372.114 13.8305   5
   1   4   7 353.396 13.0691   1
   1   4   7 377.133 10.7629   5
  -2  -4  -7 280.339 12.0464   5
   2   4   7 299.955 11.8640   1
  -3  -4  -7 522.707 17.1124   5
   3   4   7 500.330 16.3108   1
  -4  -4  -7 67.1801 6.94681   5
   4   4   7 73.9813 6.44845   1
   4   4   7 72.9495 5.55195   5
  -5  -4  -7 -8.6410 4.25747   5
   5   4   7 -3.5325 3.18861   5
   5   4   7 -3.2734 4.06885   1
  -6  -4  -7 28.6682 6.43071   5
   6   4   7 24.7910 4.64708   5
   6   4   7 9.00842 4.87059   1
  -7  -4  -7 257.348 14.5697   5
   7   4   7 257.045 13.1631   1
   7   4   7 256.862 11.2462   5
  -8  -4  -7 11.7004 6.88946   5
   8   4   7 11.2607 4.89271   5
   8   4   7 5.00165 5.87210   1
  -9  -4  -7 169.850 14.6487   5
   9   4   7 181.459 11.4040   5
   9   4   7 177.334 13.5506   1
   5  -5  -7 0.79340 6.76633   5
  -5   5   7 0.37857 4.62860   5
  -5   5   7 5.75521 6.29288   1
   4  -5  -7 60.2498 8.81545   5
  -4   5   7 43.9149 7.32842   1
   3  -5  -7 28.7581 6.51333   5
  -3   5   7 19.0314 4.87143   1
   2  -5  -7 7.94556 4.71347   5
  -2   5   7 -1.1940 4.18071   1
   1  -5  -7 24.1662 5.32565   5
  -1   5   7 25.3584 4.88460   1
   0  -5  -7 135.651 9.01564   5
   0   5   7 160.605 9.08827   1
  -1  -5  -7 11.8702 4.17407   5
   1   5   7 0.35503 3.35330   1
  -2  -5  -7 507.099 16.7374   5
   2   5   7 542.558 16.4092   1
  -3  -5  -7 808.942 23.3168   5
   3   5   7 857.895 22.8714   1
  -4  -5  -7 428.194 15.5744   5
   4   5   7 461.923 15.3808   1
  -5  -5  -7 -2.7455 4.31078   5
   5   5   7 3.61326 4.00899   1
  -6  -5  -7 501.872 18.3537   5
   6   5   7 494.718 17.4560   1
  -7  -5  -7 16.2846 6.03902   5
   7   5   7 22.1087 5.80727   1
  -8  -5  -7 43.9894 7.87173   5
   8   5   7 14.0501 6.15579   1
  -9  -5  -7 324.098 18.5640   5
   9   5   7 349.700 17.1649   1
  -4   6   7 150.221 11.5921   1
  -3   6   7 5.76988 5.09859   1
  -2   6   7 14.8701 4.79307   1
  -1   6   7 360.131 14.1973   1
   0   6   7 -0.6368 3.71217   1
   1   6   7 267.701 11.1809   1
   2   6   7 15.8049 4.01595   1
   3   6   7 288.006 11.4185   1
   4   6   7 481.374 15.8723   1
   5   6   7 108.580 8.51348   1
   6   6   7 125.595 9.30233   1
   7   6   7 -1.3067 4.32676   1
   8   6   7 -1.4859 4.86841   1
   9   6   7 109.449 10.1865   1
  -3   7   7 -4.0429 4.83084   1
  -2   7   7 130.630 9.76590   1
  -1   7   7 262.718 12.4867   1
   0   7   7 8.71833 4.36846   1
   1   7   7 32.5470 4.88060   1
   2   7   7 58.8443 5.63403   1
   3   7   7 118.767 7.87249   1
   4   7   7 189.536 9.51712   1
   5   7   7 683.543 20.3983   1
   6   7   7 109.503 8.89997   1
   7   7   7 32.1368 6.32422   1
   8   7   7 297.473 15.1430   1
  -1   8   7 -2.2396 4.00115   1
   0   8   7 3.36689 4.06487   1
   1   8   7 174.006 9.53453   1
   2   8   7 29.8930 4.87372   1
   3   8   7 51.1436 5.33990   1
   4   8   7 36.1357 5.20003   1
   5   8   7 284.021 12.0429   1
   6   8   7 469.941 16.5743   1
   7   8   7 27.9739 6.12523   1
   0   9   7 16.9868 5.32329   1
   1   9   7 214.066 10.8447   1
   2   9   7 77.5731 6.74112   1
   3   9   7 5.43214 3.97083   1
   4   9   7 195.729 9.90914   1
   5   9   7 43.3558 5.74040   1
   6   9   7 49.7772 6.34730   1
   3   8  -8 137.240 14.2119   6
   3   8  -8 169.084 16.0282   4
   3   8  -8 175.737 14.9924   3
   3   8  -8 160.225 12.2158   1
   2   8  -8 4.97106 8.43890   4
   2   8  -8 4.73196 7.94464   6
   2   8  -8 -0.7640 6.61031   3
   2   8  -8 6.67666 5.53626   1
   1   8  -8 19.3830 6.56198   1
   1   8  -8 33.8571 9.04905   3
   1   8  -8 35.3098 9.39679   4
   1   8  -8 48.9980 10.7784   6
   5   7  -8 335.302 19.8660   3
   5   7  -8 349.076 18.9197   4
   5   7  -8 351.519 16.6756   1
   4   7  -8 40.7493 9.09225   6
   4   7  -8 33.2062 8.52800   3
   4   7  -8 44.5472 7.11314   1
   4   7  -8 57.8464 9.83926   4
   3   7  -8 -4.2762 6.53872   4
   3   7  -8 0.67394 6.78027   6
   3   7  -8 -3.8177 5.16160   1
   3   7  -8 0.04694 6.28175   3
   2   7  -8 126.305 13.0603   4
   2   7  -8 94.6415 11.3700   3
   2   7  -8 96.0167 12.0281   6
   2   7  -8 92.8860 9.48003   1
   1   7  -8 -2.3371 5.19725   1
   1   7  -8 9.97370 7.77857   4
   1   7  -8 1.36940 6.44035   3
   1   7  -8 5.51494 7.29864   6
   0   7  -8 255.771 17.8052   4
   0   7  -8 219.192 13.2623   1
   0   7  -8 228.321 16.6214   6
  -1   7  -8 10.5366 8.80928   6
  -1   7  -8 15.5386 6.44543   1
  -1   7  -8 23.4378 9.07113   4
  -2   7  -8 69.6594 11.7095   4
  -2   7  -8 69.7186 8.69831   1
  -2   7  -8 69.3725 11.9990   6
  -2   7  -8 74.6005 9.07537   1
   6   6  -8 24.5100 8.25696   3
   6   6  -8 19.2468 6.73923   1
   6   6  -8 22.2756 5.04100   5
  -6  -6   8 30.9165 8.29396   5
   5   6  -8 88.8522 9.64590   1
   5   6  -8 95.8448 7.36352   5
   5   6  -8 86.8154 11.2273   3
   5   6  -8 114.263 11.1948   4
  -5  -6   8 92.6208 10.5750   5
   4   6  -8 295.690 16.3189   4
   4   6  -8 264.396 16.7993   3
   4   6  -8 257.397 15.8710   6
   4   6  -8 288.560 14.7828   1
  -4  -6   8 275.676 15.7586   5
   3   6  -8 -4.0173 6.35590   4
   3   6  -8 -9.4436 4.35664   1
   3   6  -8 -5.9747 5.59668   6
  -3  -6   8 -2.6459 4.92079   5
   2   6  -8 227.924 14.5555   4
   2   6  -8 188.984 11.8988   1
   2   6  -8 205.090 14.7359   6
  -2  -6   8 182.172 12.9074   5
   1   6  -8 171.262 14.1941   4
   1   6  -8 169.328 11.4069   1
   1   6  -8 156.328 14.3819   6
  -1  -6   8 185.123 12.8240   5
   0   6  -8 2.77751 7.39405   4
   0   6  -8 4.01946 5.08818   1
   0   6  -8 -12.792 6.74273   6
   0  -6   8 -11.417 5.08455   5
  -1   6  -8 163.783 11.8767   1
  -1   6  -8 134.544 13.6216   4
  -1   6  -8 166.934 7.92002   5
  -1   6  -8 132.865 14.0992   6
   1  -6   8 165.498 12.6837   5
  -2   6  -8 277.121 18.1792   4
  -2   6  -8 306.006 18.5738   6
  -2   6  -8 268.920 14.8493   1
  -2   6  -8 282.376 15.2718   1
  -2   6  -8 276.179 10.8820   5
   2  -6   8 270.797 15.7266   5
  -3   6  -8 -2.9417 5.91807   1
  -3   6  -8 8.70958 8.25798   4
  -3   6  -8 7.82207 4.27497   5
  -3   6  -8 -5.0510 6.01995   1
  -3   6  -8 -4.4900 8.66055   6
   3  -6   8 10.7101 6.52494   5
  -4   6  -8 102.198 14.5629   6
   4  -6   8 88.9843 11.0809   5
   6   5  -8 563.481 18.9967   5
   6   5  -8 512.972 21.7458   1
   6   5  -8 535.544 24.2923   3
  -6  -5   8 631.776 24.2766   5
   5   5  -8 570.933 21.7245   1
   5   5  -8 602.502 19.2891   5
   5   5  -8 590.343 24.7719   6
   5   5  -8 647.018 21.7225   4
   5   5  -8 550.338 24.7256   3
  -5  -5   8 587.845 23.3374   5
   4   5  -8 114.713 10.4367   4
   4   5  -8 126.843 11.4877   6
   4   5  -8 129.457 9.06870   5
   4   5  -8 115.459 10.0989   1
  -4  -5   8 131.859 11.2978   5
   3   5  -8 865.013 26.5751   1
   3   5  -8 859.379 28.0563   6
   3   5  -8 839.833 27.4597   4
   3   5  -8 885.772 23.7738   5
  -3  -5   8 869.027 27.6853   5
   2   5  -8 229.387 12.4569   1
   2   5  -8 214.337 14.3124   6
   2   5  -8 225.641 10.3522   5
   2   5  -8 228.026 14.3656   4
  -2  -5   8 228.913 13.4732   5
   1   5  -8 1.33969 5.29125   1
   1   5  -8 -2.7483 6.18397   4
   1   5  -8 1.28946 3.71712   5
   1   5  -8 8.14787 7.14151   6
  -1  -5   8 -6.8544 4.51274   5
   0   5  -8 260.601 13.5591   1
   0   5  -8 237.452 16.1824   6
   0   5  -8 272.503 11.2144   5
   0   5  -8 284.829 16.3728   4
   0  -5   8 275.432 15.1031   5
  -1   5  -8 20.5907 4.82074   5
  -1   5  -8 20.9187 6.57084   1
  -1   5  -8 27.6800 9.05737   6
  -1   5  -8 42.1516 8.50422   4
   1  -5   8 30.5039 6.82652   5
  -2   5  -8 288.286 12.2539   5
  -2   5  -8 299.833 15.2951   1
   2  -5   8 295.863 15.7677   5
  -3   5  -8 -1.9272 5.71651   1
  -3   5  -8 6.07019 4.83121   5
  -3   5  -8 9.47369 5.92661   1
   3  -5   8 16.5325 6.60335   5
  -4   5  -8 96.8440 8.49279   5
  -4   5  -8 122.733 11.2361   1
   4  -5   8 120.158 11.9552   5
  -5   5  -8 269.595 13.7328   5
  -5   5  -8 277.254 10.7460   2
  -5   5  -8 282.170 20.5335   6
  -5   5  -8 294.648 16.9182   1
   5  -5   8 336.803 18.8365   5
   7   4  -8 57.3529 9.19543   1
   7   4  -8 55.8649 8.27035   5
   7   4  -8 66.9530 10.7059   3
  -7  -4   8 62.4692 10.2329   5
   6   4  -8 90.4767 9.53263   1
   6   4  -8 69.0606 10.3932   3
   6   4  -8 103.157 9.16074   5
  -6  -4   8 86.2694 10.7378   5
   5   4  -8 908.809 28.4549   1
   5   4  -8 885.193 26.4301   5
  -5  -4   8 936.567 30.2662   5
   4   4  -8 9.52599 5.26475   1
   4   4  -8 0.98309 4.41052   5
   4   4  -8 5.37938 5.22741   4
   4   4  -8 3.94880 5.49809   6
  -4  -4   8 5.29244 5.05359   5
   3   4  -8 171.047 9.88604   5
   3   4  -8 168.683 12.3033   6
   3   4  -8 157.145 10.9948   1
   3   4  -8 154.800 11.0968   4
  -3  -4   8 146.105 12.0072   5
   2   4  -8 365.501 14.3935   5
   2   4  -8 387.140 16.0262   1
   2   4  -8 405.504 17.0171   4
   2   4  -8 393.985 17.8952   6
  -2  -4   8 432.578 17.3139   5
   1   4  -8 50.0923 7.72128   4
   1   4  -8 38.9538 5.99342   5
   1   4  -8 50.0010 6.83633   1
  -1  -4   8 63.6684 7.68029   5
   0   4  -8 127.960 8.89305   5
   0   4  -8 162.730 10.5786   1
   0   4  -8 132.322 12.0493   4
   0  -4   8 120.404 10.6813   5
  -1   4  -8 112.764 8.78829   5
  -1   4  -8 97.4333 9.06688   1
   1  -4   8 106.067 9.46457   5
  -2   4  -8 37.6011 6.04968   5
  -2   4  -8 32.9988 6.41705   1
   2  -4   8 49.4781 7.52503   5
  -3   4  -8 272.875 11.2885   2
  -3   4  -8 270.349 13.2368   5
  -3   4  -8 280.418 14.5948   1
  -3   4  -8 246.400 14.0614   1
   3  -4   8 282.958 15.6020   5
  -4   4  -8 332.840 13.3295   2
  -4   4  -8 335.497 16.8407   1
  -4   4  -8 354.612 15.5465   5
   4  -4   8 379.469 18.1198   5
  -5   4  -8 1.13142 4.12111   2
  -5   4  -8 4.22290 5.73364   5
  -5   4  -8 -5.6602 5.71753   1
   5  -4   8 3.32491 6.13777   5
  -6   4  -8 116.578 12.0653   1
  -6   4  -8 140.704 11.8462   5
  -6   4  -8 134.382 9.49639   2
   6  -4   8 121.212 13.0405   5
   7   3  -8 88.1082 9.53621   5
   7   3  -8 59.5624 9.07746   1
   7   3  -8 67.1383 10.3141   3
  -7  -3   8 70.3163 11.0620   5
   6   3  -8 -0.9863 5.65990   1
   6   3  -8 1.57758 5.14014   5
   6   3  -8 3.43702 6.66142   3
  -6  -3   8 11.7245 7.17231   5
   5   3  -8 119.109 10.2581   5
   5   3  -8 116.261 10.0855   1
  -5  -3   8 127.676 11.3882   5
  -5  -3   8 123.414 10.3607   2
   4   3  -8 879.966 26.6925   1
   4   3  -8 838.427 25.3818   5
   4   3  -8 805.331 23.7916   4
  -4  -3   8 874.507 26.6261   2
  -4  -3   8 892.653 27.9527   5
   3   3  -8 330.846 14.7328   1
   3   3  -8 343.057 13.9539   5
   3   3  -8 261.176 13.0565   4
   3   3  -8 317.771 14.8171   6
  -3  -3   8 304.311 13.1922   1
  -3  -3   8 303.466 15.1661   5
  -3  -3   8 317.622 14.4550   2
   2   3  -8 530.917 18.3573   4
   2   3  -8 504.262 18.3121   1
   2   3  -8 484.751 17.2183   5
  -2  -3   8 557.528 19.8258   5
  -2  -3   8 499.573 17.4149   1
  -2  -3   8 488.530 18.2348   2
   1   3  -8 822.236 24.9920   4
   1   3  -8 777.601 23.2179   5
   1   3  -8 794.840 24.2807   1
  -1  -3   8 852.621 25.7308   5
  -1  -3   8 808.251 23.2142   1
   0   3  -8 569.824 18.9145   5
   0   3  -8 588.310 19.8931   1
   0  -3   8 620.547 21.2510   5
   0  -3   8 590.400 19.0502   1
  -1   3  -8 35.7221 5.27922   2
  -1   3  -8 42.4593 6.42287   5
  -1   3  -8 27.3809 6.41788   1
   1  -3   8 33.9431 7.12687   5
   1  -3   8 33.8784 5.51320   1
  -2   3  -8 222.744 10.7884   2
  -2   3  -8 217.433 11.3179   5
  -2   3  -8 247.321 12.8722   1
   2  -3   8 212.510 12.4729   5
   2  -3   8 227.228 11.4003   1
  -3   3  -8 21.3350 5.74904   5
  -3   3  -8 14.7202 5.52753   1
  -3   3  -8 8.84711 4.20292   2
  -3   3  -8 26.1471 5.64782   1
   3  -3   8 16.7607 5.93121   5
   3  -3   8 26.1421 5.49326   1
  -4   3  -8 321.418 13.5274   2
  -4   3  -8 327.587 15.8915   1
  -4   3  -8 334.617 15.1943   5
   4  -3   8 326.994 16.5999   5
  -5   3  -8 15.0714 5.31760   2
  -5   3  -8 7.34313 6.04285   5
  -5   3  -8 3.86857 5.78673   1
   5  -3   8 14.8918 6.83247   5
  -6   3  -8 53.3895 8.22549   5
  -6   3  -8 40.2081 6.93288   2
  -6   3  -8 64.0256 9.37563   1
   6  -3   8 44.2123 9.20479   5
   7   2  -8 94.6702 9.99730   5
   7   2  -8 116.470 11.1763   1
   7   2  -8 76.3433 10.3840   3
  -7  -2   8 103.429 11.7417   5
  -7  -2   8 93.2502 10.3545   2
   6   2  -8 -6.7513 4.84169   5
   6   2  -8 -9.1728 5.06721   1
  -6  -2   8 0.92885 5.53581   2
  -6  -2   8 0.99763 5.92282   5
   5   2  -8 331.546 15.4205   5
   5   2  -8 346.968 16.0519   1
  -5  -2   8 322.923 15.8721   2
  -5  -2   8 325.970 15.0904   1
  -5  -2   8 303.333 16.4366   5
   4   2  -8 125.238 9.42235   6
   4   2  -8 151.531 11.1057   1
   4   2  -8 143.011 10.2735   5
  -4  -2   8 126.777 10.2968   1
  -4  -2   8 146.426 10.4670   2
  -4  -2   8 139.867 11.3539   5
   3   2  -8 1081.01 30.5164   1
   3   2  -8 1116.41 28.0389   4
   3   2  -8 1126.55 30.7426   5
  -3  -2   8 1158.54 31.1171   2
  -3  -2   8 1136.70 32.1498   5
  -3  -2   8 1094.38 30.0604   1
   2   2  -8 205.322 11.5879   5
   2   2  -8 214.281 11.6595   1
   2   2  -8 195.438 10.6510   4
  -2  -2   8 186.447 11.6557   5
  -2  -2   8 181.238 10.5129   1
  -2  -2   8 169.006 10.8280   2
   1   2  -8 834.763 24.6600   4
   1   2  -8 870.904 25.2583   1
   1   2  -8 853.628 25.0053   5
  -1  -2   8 881.723 26.1628   5
  -1  -2   8 896.533 24.6103   1
   0   2  -8 75.8490 7.99276   1
   0   2  -8 80.0470 7.80560   5
   0   2  -8 86.1633 7.24979   2
   0  -2   8 65.8785 8.02455   5
   0  -2   8 71.9472 7.44302   1
  -1   2  -8 109.075 8.99294   1
  -1   2  -8 117.332 8.94040   2
  -1   2  -8 100.675 9.10674   5
   1  -2   8 116.593 9.80009   5
   1  -2   8 108.037 8.55986   1
  -2   2  -8 154.389 10.3179   5
  -2   2  -8 161.681 9.78997   2
  -2   2  -8 143.023 10.6611   1
   2  -2   8 165.112 9.89735   1
   2  -2   8 162.445 11.3757   5
  -3   2  -8 53.7267 7.08339   1
  -3   2  -8 51.6119 6.26046   2
  -3   2  -8 48.1912 6.79000   5
   3  -2   8 55.6964 6.80695   1
   3  -2   8 53.3302 7.43590   5
  -4   2  -8 67.5305 8.25585   1
  -4   2  -8 73.0916 8.30177   5
  -4   2  -8 65.7295 8.06907   1
  -4   2  -8 80.0382 7.70498   2
   4  -2   8 76.2195 7.62315   1
   4  -2   8 78.2735 8.74317   5
  -5   2  -8 263.570 13.0973   2
  -5   2  -8 234.995 13.8374   5
  -5   2  -8 233.945 14.0461   1
   5  -2   8 241.223 13.2710   1
   5  -2   8 250.805 14.9389   5
  -6   2  -8 138.219 11.6441   1
  -6   2  -8 157.640 11.6820   2
  -6   2  -8 116.433 11.1926   5
   6  -2   8 140.172 11.5346   1
   6  -2   8 158.795 12.8489   5
  -7   2  -8 -0.5703 6.28463   5
  -7   2  -8 0.45651 6.07983   2
  -7   2  -8 8.34225 7.01946   1
   7  -2   8 -9.3485 6.43406   5
   7   1  -8 155.783 13.9337   5
   7   1  -8 188.396 14.3466   3
   7   1  -8 218.545 14.7880   1
  -7  -1   8 191.649 15.4221   5
  -7  -1   8 195.378 14.3174   2
  -7  -1   8 181.785 13.8701   1
   6   1  -8 -1.0592 5.38006   5
   6   1  -8 -1.5404 5.06392   1
  -6  -1   8 1.80182 5.08213   2
  -6  -1   8 6.45464 5.51259   5
  -6  -1   8 5.41805 5.34594   1
   5   1  -8 127.666 10.5468   1
   5   1  -8 113.728 10.2109   5
  -5  -1   8 106.065 9.57351   2
  -5  -1   8 115.315 9.66955   1
  -5  -1   8 134.544 11.5743   5
   4   1  -8 3.37242 5.30997   5
   4   1  -8 -4.5737 5.03418   1
  -4  -1   8 -3.2309 5.23460   5
  -4  -1   8 5.49403 4.95775   2
  -4  -1   8 0.63108 4.91312   1
   3   1  -8 229.483 12.2029   1
   3   1  -8 258.991 12.9250   5
  -3  -1   8 227.958 13.2284   5
  -3  -1   8 212.026 11.5971   2
  -3  -1   8 249.851 12.3137   1
   2   1  -8 651.202 20.7295   1
   2   1  -8 655.255 20.9966   5
   2   1  -8 625.593 18.3327   4
  -2  -1   8 637.264 20.3736   1
  -2  -1   8 673.553 21.8841   5
  -2  -1   8 631.334 20.4869   2
   1   1  -8 310.534 13.6492   1
   1   1  -8 346.297 14.4030   5
  -1  -1   8 349.112 13.9246   1
  -1  -1   8 340.163 13.7579   2
  -1  -1   8 317.553 14.4800   5
   0   1  -8 74.8100 7.26622   2
   0   1  -8 74.2452 7.47964   5
   0   1  -8 89.5305 7.76659   1
   0  -1   8 88.7086 7.32663   1
   0  -1   8 80.5909 7.72206   5
  -1   1  -8 959.196 26.2629   2
  -1   1  -8 958.936 26.9752   1
  -1   1  -8 1001.54 27.7093   5
   1  -1   8 968.734 26.6334   1
   1  -1   8 972.573 27.9584   5
  -2   1  -8 716.435 22.1620   1
  -2   1  -8 689.398 22.0296   5
  -2   1  -8 700.976 21.1804   2
   2  -1   8 734.960 22.9230   5
   2  -1   8 691.178 21.4819   1
  -3   1  -8 4.62470 4.49644   1
  -3   1  -8 5.66248 4.39069   2
  -3   1  -8 0.50087 4.37874   5
   3  -1   8 -0.3683 4.54072   5
   3  -1   8 1.41619 4.05175   1
  -4   1  -8 427.232 16.9512   1
  -4   1  -8 380.540 16.6027   1
  -4   1  -8 434.612 16.6951   2
  -4   1  -8 449.411 17.7020   5
   4  -1   8 395.173 15.8546   1
   4  -1   8 445.431 17.8815   5
  -5   1  -8 159.504 11.4489   1
  -5   1  -8 173.020 11.7056   1
  -5   1  -8 170.156 12.1983   2
  -5   1  -8 165.593 11.6072   5
   5  -1   8 149.426 10.9576   1
   5  -1   8 169.890 12.2179   5
  -6   1  -8 390.675 17.7476   1
  -6   1  -8 397.130 17.3499   2
  -6   1  -8 372.326 17.9145   5
   6  -1   8 365.569 17.8903   5
   6  -1   8 405.655 17.3191   1
  -7   1  -8 2.79616 5.63854   2
  -7   1  -8 -0.7454 5.73713   1
  -7   1  -8 4.93215 6.74101   5
   7  -1   8 -10.030 5.85000   1
   7  -1   8 3.24842 6.46418   5
   7   0  -8 -5.4916 6.45643   3
   7   0  -8 -10.530 6.22355   5
  -7   0   8 7.41792 6.55817   2
  -7   0   8 -2.6435 6.41727   5
  -7   0   8 -3.8801 5.87904   1
   6   0  -8 18.5334 6.73435   1
   6   0  -8 21.7204 7.14520   5
  -6   0   8 14.8596 6.94183   5
  -6   0   8 12.4858 6.33090   2
  -6   0   8 10.0453 6.18754   1
   5   0  -8 50.9607 7.91128   5
   5   0  -8 52.6526 7.55977   1
  -5   0   8 47.6615 7.41940   1
  -5   0   8 64.2778 7.78166   2
  -5   0   8 68.4079 8.51649   5
   4   0  -8 4.85328 4.77427   1
   4   0  -8 -1.9463 4.93484   5
  -4   0   8 -5.9222 4.06437   2
  -4   0   8 -1.6461 4.88003   5
  -4   0   8 2.12733 4.77358   1
   3   0  -8 253.278 12.7201   1
   3   0  -8 242.785 13.0478   5
  -3   0   8 237.648 12.0681   2
  -3   0   8 239.207 12.3953   1
  -3   0   8 251.616 13.3131   5
   2   0  -8 256.142 12.9211   1
   2   0  -8 268.946 13.2503   5
  -2   0   8 303.680 13.9358   5
  -2   0   8 316.315 13.5602   1
  -2   0   8 312.735 13.2751   2
   1   0  -8 705.126 21.6854   1
   1   0  -8 712.394 22.3453   5
   1   0  -8 708.799 21.2196   2
  -1   0   8 711.230 21.4576   1
  -1   0   8 735.253 21.5570   2
  -1   0   8 699.371 22.1531   5
   0   0  -8 65.3225 6.61546   1
   0   0  -8 53.3308 6.78728   5
   0   0  -8 57.6055 6.55388   2
   0   0   8 58.6087 6.42026   2
   0   0   8 69.4436 6.63467   1
   0   0   8 62.2956 6.96417   5
  -1   0  -8 843.011 23.7149   1
  -1   0  -8 830.317 23.5721   2
  -1   0  -8 804.184 24.1726   5
   1   0   8 869.806 23.8616   1
   1   0   8 788.417 24.0625   5
  -2   0  -8 49.5364 6.38330   1
  -2   0  -8 56.0796 6.87966   5
  -2   0  -8 65.6072 7.05688   2
   2   0   8 41.9455 6.41509   5
   2   0   8 60.3811 6.69045   1
  -3   0  -8 31.3735 6.11845   5
  -3   0  -8 21.2004 5.25815   2
  -3   0  -8 26.2183 5.50562   1
   3   0   8 17.6726 5.07437   5
   3   0   8 23.8555 5.24342   1
  -4   0  -8 2.18785 4.69847   2
  -4   0  -8 10.6406 4.95998   1
  -4   0  -8 5.56832 5.06782   5
   4   0   8 -0.5764 4.74169   5
   4   0   8 5.75046 4.26366   1
  -5   0  -8 55.7235 7.33405   1
  -5   0  -8 50.3913 7.74511   5
  -5   0  -8 60.5182 7.45417   2
  -5   0  -8 56.7157 7.37318   1
   5   0   8 51.3963 7.08835   5
   5   0   8 70.8640 7.42250   1
  -6   0  -8 382.257 17.2402   2
  -6   0  -8 376.904 17.8813   5
  -6   0  -8 369.196 16.9482   1
  -6   0  -8 401.601 17.4642   1
   6   0   8 366.316 16.9968   5
   6   0   8 389.976 17.1265   1
  -7   0  -8 247.915 14.4590   2
  -7   0  -8 237.506 14.8761   1
  -7   0  -8 248.010 16.0246   5
   7   0   8 253.724 14.8157   1
   7   0   8 244.690 15.0308   5
  -8   0  -8 16.0249 7.59191   2
  -8   0  -8 10.0682 7.67620   5
   8   0   8 8.42399 7.05075   1
   8   0   8 17.1218 6.79134   5
   6  -1  -8 215.340 15.0110   5
  -6   1   8 184.002 13.6614   5
  -6   1   8 209.354 13.9811   1
  -6   1   8 216.367 13.4633   2
   5  -1  -8 80.1262 9.98851   1
   5  -1  -8 63.5277 9.21638   5
  -5   1   8 60.3113 8.40257   5
  -5   1   8 65.4035 8.09382   1
  -5   1   8 60.8990 7.50905   2
   4  -1  -8 -3.2059 4.44029   5
   4  -1  -8 4.36344 4.56267   1
  -4   1   8 0.63324 4.67842   1
  -4   1   8 0.89407 4.72102   5
  -4   1   8 1.39691 4.30523   2
   3  -1  -8 252.461 13.1462   5
   3  -1  -8 260.503 12.5971   1
  -3   1   8 253.012 12.1684   2
  -3   1   8 282.394 13.0874   1
  -3   1   8 244.095 13.0633   5
   2  -1  -8 1.55021 3.86677   1
   2  -1  -8 4.94463 4.48258   5
  -2   1   8 2.11426 4.20062   1
  -2   1   8 -0.8616 3.93832   2
  -2   1   8 -1.3670 4.15724   5
   1  -1  -8 292.340 12.5801   1
   1  -1  -8 300.392 13.4819   5
   1  -1  -8 306.184 13.2432   2
  -1   1   8 282.052 13.0599   5
  -1   1   8 294.238 12.3281   2
  -1   1   8 310.074 13.1076   1
   0  -1  -8 1003.17 26.5875   1
   0  -1  -8 934.443 26.3635   2
   0  -1  -8 992.965 27.6435   5
   0   1   8 1019.42 26.7277   1
   0   1   8 1017.93 27.4090   5
   0   1   8 957.447 26.3272   2
   0   1   8 949.639 25.6661   2
  -1  -1  -8 12.0351 4.67745   1
  -1  -1  -8 -2.8818 4.65878   2
  -1  -1  -8 6.51869 5.15303   5
   1   1   8 11.0484 4.21733   2
   1   1   8 11.7281 4.36690   2
   1   1   8 10.3192 4.72413   1
   1   1   8 12.4408 4.88105   5
  -2  -1  -8 11.9190 4.82383   2
  -2  -1  -8 11.4875 4.47523   1
  -2  -1  -8 10.7419 5.26930   5
   2   1   8 12.1432 5.07661   5
   2   1   8 19.4113 4.90300   2
   2   1   8 8.65103 4.58517   1
  -3  -1  -8 702.029 21.0128   1
  -3  -1  -8 664.708 21.7688   5
  -3  -1  -8 661.925 21.0221   2
   3   1   8 671.261 20.8460   1
   3   1   8 696.624 21.5339   5
  -4  -1  -8 124.861 9.88535   2
  -4  -1  -8 157.792 11.0121   5
  -4  -1  -8 138.080 9.51684   1
   4   1   8 127.841 9.55774   1
   4   1   8 131.390 9.51526   5
  -5  -1  -8 37.9952 6.28528   2
  -5  -1  -8 57.6319 7.88842   5
  -5  -1  -8 48.7563 6.91978   1
   5   1   8 47.6651 7.02038   5
   5   1   8 49.9163 6.96486   1
  -6  -1  -8 58.4000 8.09549   2
  -6  -1  -8 69.1329 7.73443   1
  -6  -1  -8 51.0333 8.66668   5
  -6  -1  -8 65.1551 8.08839   1
   6   1   8 56.2017 7.59282   1
   6   1   8 45.5879 7.39451   5
  -7  -1  -8 103.638 10.7624   2
  -7  -1  -8 93.4279 10.4046   5
   7   1   8 105.398 10.1289   1
   7   1   8 97.5564 9.98385   5
  -8  -1  -8 636.363 25.4964   5
  -8  -1  -8 665.875 24.8979   2
   8   1   8 612.875 23.4542   5
   8   1   8 651.272 24.3990   1
   6  -2  -8 18.2763 7.17107   5
  -6   2   8 7.44846 5.31572   2
  -6   2   8 -1.7266 5.57859   5
  -6   2   8 10.1083 6.31154   1
   5  -2  -8 65.8511 9.46623   5
  -5   2   8 50.4204 7.63422   5
  -5   2   8 67.2130 7.23742   2
  -5   2   8 75.7374 8.97462   1
   4  -2  -8 99.7985 9.90585   5
  -4   2   8 98.8139 9.41909   5
  -4   2   8 108.911 8.99017   2
  -4   2   8 96.9548 8.99894   1
   3  -2  -8 20.0838 6.16992   1
   3  -2  -8 25.7254 5.76796   5
  -3   2   8 19.4727 4.58980   2
  -3   2   8 21.3072 5.57777   1
  -3   2   8 27.6499 6.04741   5
   2  -2  -8 2.68491 4.74639   5
   2  -2  -8 3.41501 3.88918   1
  -2   2   8 1.48083 3.66920   2
  -2   2   8 8.11058 4.46330   5
  -2   2   8 4.51490 4.26996   1
   1  -2  -8 112.251 7.97214   1
   1  -2  -8 126.269 9.65977   5
   1  -2  -8 100.916 8.11058   2
  -1   2   8 104.123 8.43787   1
  -1   2   8 98.8770 7.09546   2
  -1   2   8 107.419 8.54737   5
  -1   2   8 110.534 7.74274   2
   0  -2  -8 503.108 16.8896   2
   0  -2  -8 475.403 15.8713   1
   0  -2  -8 483.001 17.3554   5
   0   2   8 501.929 15.2555   2
   0   2   8 461.111 14.7523   2
   0   2   8 486.475 16.5054   1
   0   2   8 482.977 16.5137   5
  -1  -2  -8 555.049 18.2563   2
  -1  -2  -8 577.621 19.1919   5
  -1  -2  -8 558.465 17.6278   1
   1   2   8 577.887 16.6657   2
   1   2   8 578.215 18.2614   1
   1   2   8 548.391 17.7061   5
   1   2   8 574.115 16.6656   2
  -2  -2  -8 18.8629 5.11675   2
  -2  -2  -8 14.4461 4.71331   1
  -2  -2  -8 12.2221 5.44243   5
   2   2   8 9.92551 4.10256   2
   2   2   8 2.71520 4.59627   5
   2   2   8 14.0944 4.28964   2
   2   2   8 0.65843 4.69944   1
  -3  -2  -8 745.257 22.9918   5
  -3  -2  -8 708.066 21.1013   1
  -3  -2  -8 713.830 21.9644   2
   3   2   8 747.381 20.2986   2
   3   2   8 759.698 20.3756   2
   3   2   8 727.967 21.6567   5
   3   2   8 764.259 22.1177   1
  -4  -2  -8 201.081 10.9406   2
  -4  -2  -8 211.289 12.2411   5
  -4  -2  -8 205.745 10.6447   1
   4   2   8 194.815 10.7653   5
   4   2   8 195.921 10.8344   1
   4   2   8 222.061 14.1874   2
  -5  -2  -8 7.92599 5.04188   2
  -5  -2  -8 6.26499 5.40556   5
  -5  -2  -8 12.5979 4.56326   1
   5   2   8 3.74232 4.48535   5
   5   2   8 3.07046 4.89509   1
  -6  -2  -8 80.9450 9.20039   5
  -6  -2  -8 99.6153 9.48514   2
   6   2   8 87.5354 8.50444   1
   6   2   8 87.0422 8.21171   5
  -7  -2  -8 196.921 14.0528   5
   7   2   8 207.729 13.0664   1
   7   2   8 193.093 12.6530   5
  -8  -2  -8 172.098 14.5360   5
   8   2   8 164.080 12.4184   5
   8   2   8 186.262 13.5367   1
   5  -3  -8 20.0055 7.05068   5
  -5   3   8 33.1844 7.17765   1
  -5   3   8 32.7094 6.98803   5
  -5   3   8 17.8807 4.88084   2
   4  -3  -8 128.289 11.4527   5
  -4   3   8 115.774 9.87597   5
  -4   3   8 125.435 8.16608   2
  -4   3   8 103.724 9.46051   1
   3  -3  -8 301.678 15.0130   5
  -3   3   8 302.698 11.5584   2
  -3   3   8 314.251 13.9766   5
  -3   3   8 317.419 14.3040   1
   2  -3  -8 42.9200 6.59492   5
  -2   3   8 42.8644 4.58540   2
  -2   3   8 44.6558 4.72186   2
  -2   3   8 32.7952 5.67858   5
  -2   3   8 40.1775 5.88102   1
   1  -3  -8 717.362 22.8459   5
  -1   3   8 714.319 21.2158   5
  -1   3   8 735.673 22.1444   1
  -1   3   8 748.403 19.0510   2
  -1   3   8 750.078 18.9715   2
   0  -3  -8 4.87981 4.49449   5
   0   3   8 6.30090 3.96497   5
   0   3   8 8.07535 3.08021   2
   0   3   8 7.33726 4.05414   1
   0   3   8 5.84646 3.09770   2
  -1  -3  -8 284.062 13.1887   5
  -1  -3  -8 289.968 13.9540   2
   1   3   8 287.152 9.58736   2
   1   3   8 271.167 11.8674   1
   1   3   8 253.469 11.0190   5
   1   3   8 270.484 9.47627   2
  -2  -3  -8 1739.57 42.4153   5
  -2  -3  -8 1810.31 44.4133   2
   2   3   8 1718.38 37.7210   2
   2   3   8 1664.81 39.8188   5
   2   3   8 1695.37 37.6316   2
   2   3   8 1686.28 41.0307   1
  -3  -3  -8 186.934 11.1868   5
   3   3   8 165.172 10.3531   1
   3   3   8 166.180 7.78097   2
   3   3   8 175.326 10.0466   5
   3   3   8 173.938 7.85428   2
  -4  -3  -8 83.6650 8.21032   5
   4   3   8 87.8183 7.48861   1
   4   3   8 88.1613 7.60739   5
   4   3   8 90.1428 6.16724   2
   4   3   8 87.5500 6.25271   2
  -5  -3  -8 155.195 11.6402   5
   5   3   8 175.949 8.28168   2
   5   3   8 190.677 8.42806   2
   5   3   8 188.159 11.0158   1
   5   3   8 181.987 10.2344   5
  -6  -3  -8 16.1738 5.43612   5
   6   3   8 23.3167 5.72105   1
   6   3   8 17.9598 4.94667   5
  -7  -3  -8 29.8723 7.31569   5
   7   3   8 26.7437 6.42412   1
   7   3   8 18.9458 5.32773   5
  -8  -3  -8 16.2940 7.45858   5
   8   3   8 23.2308 7.07432   1
   8   3   8 20.3228 6.37712   5
   5  -4  -8 451.977 21.0504   5
  -5   4   8 443.884 20.0442   1
  -5   4   8 435.945 17.4275   5
   4  -4  -8 12.6304 5.93756   5
  -4   4   8 5.16274 5.04687   1
  -4   4   8 4.07031 4.46339   5
   3  -4  -8 2.30465 5.20561   5
  -3   4   8 -2.4021 4.11639   1
  -3   4   8 6.64446 4.50685   5
   2  -4  -8 8.70021 5.47824   5
  -2   4   8 -2.0563 4.74796   1
  -2   4   8 11.7037 4.65823   5
   1  -4  -8 20.7339 5.64398   5
  -1   4   8 10.7607 4.41403   1
  -1   4   8 12.6565 3.80640   5
   0  -4  -8 11.1481 5.05044   5
   0   4   8 9.67135 4.24806   1
   0   4   8 15.0206 3.87869   5
  -1  -4  -8 2.74585 4.11233   5
   1   4   8 1.75387 3.12205   5
   1   4   8 6.13907 3.47889   1
  -2  -4  -8 192.373 11.1235   5
   2   4   8 175.753 9.73804   1
   2   4   8 189.025 8.17623   5
  -3  -4  -8 1333.08 34.5945   5
   3   4   8 1385.09 33.9476   1
   3   4   8 1289.52 30.7558   5
  -4  -4  -8 205.775 11.8248   5
   4   4   8 182.310 10.3101   1
   4   4   8 187.766 8.60651   5
  -5  -4  -8 1038.39 29.8528   5
   5   4   8 1060.25 29.0613   1
   5   4   8 1047.40 26.2748   5
  -6  -4  -8 219.231 13.1634   5
   6   4   8 208.421 12.0768   1
   6   4   8 239.597 10.5899   5
  -7  -4  -8 -1.2014 5.78147   5
   7   4   8 0.71696 5.03265   1
   7   4   8 -4.3275 4.38040   5
  -8  -4  -8 173.763 14.2375   5
   8   4   8 170.418 10.5263   5
   8   4   8 186.032 13.1356   1
   4  -5  -8 84.5442 10.6346   5
  -4   5   8 77.7897 9.28420   1
   3  -5  -8 3.28969 5.60592   5
  -3   5   8 0.87988 4.66279   1
   2  -5  -8 314.841 15.3723   5
  -2   5   8 306.440 13.9250   1
   1  -5  -8 159.409 11.2455   5
  -1   5   8 152.692 10.0445   1
   0  -5  -8 -3.1440 4.03830   5
   0   5   8 0.10821 3.91697   1
  -1  -5  -8 1123.37 30.3740   5
   1   5   8 1107.99 29.1770   1
  -2  -5  -8 165.176 10.6413   5
   2   5   8 160.284 9.62922   1
  -3  -5  -8 98.5921 8.56719   5
   3   5   8 111.826 8.63764   1
  -4  -5  -8 567.864 19.5849   5
   4   5   8 592.879 18.8840   1
  -5  -5  -8 10.2298 5.26459   5
   5   5   8 10.9730 4.67376   1
  -6  -5  -8 31.7578 7.13435   5
   6   5   8 41.0511 6.82748   1
  -7  -5  -8 27.6576 7.06338   5
   7   5   8 25.8623 6.27421   1
  -8  -5  -8 29.7714 7.52811   5
   8   5   8 21.1742 6.23232   1
  -3   6   8 705.245 23.9254   1
  -2   6   8 -4.9972 4.34719   1
  -1   6   8 12.4627 4.85883   1
   0   6   8 118.309 9.01153   1
   1   6   8 49.7715 5.88770   1
   2   6   8 58.8529 6.40728   1
   3   6   8 39.8831 5.78020   1
   4   6   8 964.706 26.4797   1
   5   6   8 202.598 11.6292   1
   6   6   8 25.6607 6.00591   1
   7   6   8 746.372 24.1200   1
   8   6   8 41.5910 7.43619   1
  -2   7   8 175.950 12.1798   1
  -1   7   8 -5.4349 4.16685   1
   0   7   8 377.596 14.8705   1
   1   7   8 157.906 9.71232   1
   2   7   8 9.63745 4.40466   1
   3   7   8 574.483 18.5251   1
   4   7   8 1.50290 4.30358   1
   5   7   8 47.7701 6.32621   1
   6   7   8 824.777 24.9753   1
   7   7   8 -4.5439 5.29645   1
   0   8   8 23.7408 5.51932   1
   1   8   8 20.5619 5.28284   1
   2   8   8 311.331 13.0198   1
   3   8   8 57.5071 6.27732   1
   4   8   8 -1.5212 4.27127   1
   5   8   8 -2.1559 4.16575   1
   6   8   8 708.868 22.3986   1
   2   9   8 112.605 8.75717   1
   3   9   8 196.215 10.5635   1
   4   9   8 7.06487 4.94418   1
   3   7  -9 32.7272 9.28565   4
   3   7  -9 19.6493 8.02629   3
   3   7  -9 40.3507 7.50742   1
   3   7  -9 38.8165 9.77320   6
   2   7  -9 44.9819 8.18790   1
   2   7  -9 51.4234 10.0123   3
   2   7  -9 58.0535 10.7573   4
   2   7  -9 55.3006 10.8237   6
   1   7  -9 12.1307 9.00185   4
   1   7  -9 11.9199 7.97024   6
   1   7  -9 23.0395 6.77831   1
   0   7  -9 43.2960 10.7264   4
   0   7  -9 41.5135 8.17096   1
   0   7  -9 49.8926 10.7646   6
   5   6  -9 48.2308 9.47514   3
   5   6  -9 41.4369 8.53623   1
   5   6  -9 39.1073 5.74607   5
  -5  -6   9 41.1846 8.76311   5
   4   6  -9 47.2813 9.54084   3
   4   6  -9 61.5334 6.21543   5
   4   6  -9 76.3802 10.3639   4
   4   6  -9 66.2846 9.92307   6
   4   6  -9 65.4157 8.65324   1
  -4  -6   9 78.4835 10.0624   5
   3   6  -9 109.345 10.0719   1
   3   6  -9 128.090 12.8007   4
   3   6  -9 135.721 8.35712   5
   3   6  -9 123.987 12.9502   6
  -3  -6   9 122.973 11.5333   5
   2   6  -9 26.7966 7.25673   1
   2   6  -9 46.2182 9.76545   6
   2   6  -9 33.5262 8.32672   4
   2   6  -9 28.2335 4.89536   5
  -2  -6   9 34.2228 7.46008   5
   1   6  -9 101.393 9.86341   1
   1   6  -9 100.767 7.60286   5
   1   6  -9 90.2776 12.3469   6
   1   6  -9 103.555 12.0453   4
  -1  -6   9 128.241 11.5683   5
   0   6  -9 82.9706 9.24787   1
   0   6  -9 59.9757 11.2145   4
   0   6  -9 96.7159 7.58407   5
   0   6  -9 87.7578 12.0141   6
   0  -6   9 86.1874 10.0744   5
  -1   6  -9 99.9692 9.96435   1
  -1   6  -9 93.3422 12.2887   4
  -1   6  -9 73.1243 12.5664   6
  -1   6  -9 93.4761 7.40690   5
   1  -6   9 110.873 11.1521   5
  -2   6  -9 138.598 15.0466   6
  -2   6  -9 143.451 8.73468   5
  -2   6  -9 139.507 14.7514   4
  -2   6  -9 132.766 11.6696   1
   2  -6   9 121.534 11.9668   5
   5   5  -9 267.611 13.0279   5
   5   5  -9 254.540 15.3946   1
   5   5  -9 241.373 17.5290   3
  -5  -5   9 266.123 16.9389   5
   4   5  -9 4.17750 4.66026   5
   4   5  -9 7.00125 5.81013   1
   4   5  -9 1.60048 6.25910   4
   4   5  -9 14.5186 6.99946   6
  -4  -5   9 17.8940 6.66600   5
   3   5  -9 80.7855 10.3985   6
   3   5  -9 98.4991 10.2618   4
   3   5  -9 83.0374 9.15224   1
   3   5  -9 85.1758 7.63264   5
  -3  -5   9 86.0371 10.1279   5
   2   5  -9 16.6358 6.71852   4
   2   5  -9 15.3366 7.41214   6
   2   5  -9 33.6465 6.79243   1
   2   5  -9 10.9986 4.95676   5
  -2  -5   9 16.5608 6.41768   5
   1   5  -9 2.00667 5.44054   1
   1   5  -9 8.77342 4.45965   5
   1   5  -9 20.0257 7.40641   4
   1   5  -9 10.2300 7.60310   6
  -1  -5   9 5.05255 5.92841   5
   0   5  -9 40.2297 7.54800   1
   0   5  -9 46.2334 9.29909   4
   0   5  -9 39.2679 5.98155   5
   0   5  -9 44.0490 9.96431   6
   0  -5   9 45.3922 7.53295   5
  -1   5  -9 -2.3597 7.00189   4
  -1   5  -9 -6.1249 5.29322   1
  -1   5  -9 0.44162 3.90045   5
   1  -5   9 5.88116 5.66671   5
  -2   5  -9 -2.9967 5.70669   1
  -2   5  -9 3.10940 4.63252   5
  -2   5  -9 -5.5763 7.29393   4
   2  -5   9 9.88821 6.03338   5
  -3   5  -9 375.413 15.7690   5
  -3   5  -9 407.939 18.8082   1
   3  -5   9 380.319 19.6771   5
  -4   5  -9 8.91790 5.72158   5
  -4   5  -9 2.32487 6.94363   1
  -4   5  -9 8.72812 7.21278   1
   4  -5   9 4.77217 6.41839   5
   6   4  -9 -3.6316 6.10328   1
   6   4  -9 2.38645 5.56537   5
   6   4  -9 1.21145 6.99868   3
  -6  -4   9 -5.9411 6.57481   5
   5   4  -9 145.596 11.9793   1
   5   4  -9 161.053 11.3307   5
  -5  -4   9 154.469 13.4738   5
   4   4  -9 54.6955 7.21172   5
   4   4  -9 37.5164 7.11553   1
   4   4  -9 56.2084 8.50834   6
  -4  -4   9 53.5254 8.30201   5
   3   4  -9 14.0611 7.45226   6
   3   4  -9 34.4908 6.98668   1
   3   4  -9 7.43733 5.15600   5
   3   4  -9 24.7776 6.60365   4
  -3  -4   9 21.2553 6.07651   5
   2   4  -9 2.74227 6.62880   6
   2   4  -9 2.97445 5.03522   1
   2   4  -9 4.74653 6.14780   4
   2   4  -9 7.63104 4.59408   5
  -2  -4   9 7.27412 5.62501   5
   1   4  -9 188.494 10.6874   5
   1   4  -9 171.411 13.4899   4
   1   4  -9 183.617 12.0869   1
  -1  -4   9 176.857 12.4063   5
   0   4  -9 1.29614 4.84420   1
   0   4  -9 15.0434 4.98638   5
   0   4  -9 6.07444 7.27515   4
   0  -4   9 2.37440 5.36929   5
  -1   4  -9 200.660 12.7417   1
  -1   4  -9 193.326 11.2494   5
   1  -4   9 189.863 13.6277   5
  -2   4  -9 38.1892 6.37858   5
  -2   4  -9 38.7327 7.43983   1
   2  -4   9 38.0252 7.09922   5
  -3   4  -9 39.9816 5.54548   2
  -3   4  -9 50.3940 7.87006   1
  -3   4  -9 51.5592 6.95981   5
   3  -4   9 52.2914 8.35795   5
  -4   4  -9 43.8301 8.36889   1
  -4   4  -9 46.5951 8.31031   1
  -4   4  -9 32.8558 6.75325   5
  -4   4  -9 33.7293 5.56580   2
   4  -4   9 46.2069 8.67133   5
  -5   4  -9 13.0222 6.02258   5
  -5   4  -9 6.48415 7.00494   1
  -5   4  -9 19.6231 5.44847   2
  -5   4  -9 15.8074 7.60344   1
   5  -4   9 9.28591 7.68151   5
   6   3  -9 102.841 10.8889   1
   6   3  -9 99.6386 9.96783   5
  -6  -3   9 97.3811 11.5023   5
   5   3  -9 29.8586 6.58892   5
   5   3  -9 22.8473 6.75703   1
  -5  -3   9 38.9481 8.03609   5
  -5  -3   9 36.1184 9.05818   2
   4   3  -9 184.763 11.8653   5
   4   3  -9 179.033 12.3701   6
   4   3  -9 199.152 13.0031   1
  -4  -3   9 188.720 13.1829   2
  -4  -3   9 187.432 13.3124   5
   3   3  -9 627.116 21.6742   1
   3   3  -9 614.553 21.0526   5
   3   3  -9 628.412 20.3714   4
  -3  -3   9 602.178 22.6596   5
  -3  -3   9 593.059 21.6208   2
   2   3  -9 240.488 12.5092   5
   2   3  -9 282.187 13.8254   4
   2   3  -9 278.404 14.2098   1
  -2  -3   9 251.919 13.6187   2
  -2  -3   9 282.083 15.3109   5
  -2  -3   9 269.138 13.2972   1
   1   3  -9 48.0857 7.21626   1
   1   3  -9 38.5925 6.65893   5
   1   3  -9 48.3314 7.93949   4
  -1  -3   9 68.2157 7.14165   1
  -1  -3   9 50.9300 7.84880   5
   0   3  -9 117.123 9.84252   1
   0   3  -9 116.442 9.31636   5
   0  -3   9 104.073 9.67408   5
   0  -3   9 116.274 9.28098   1
  -1   3  -9 146.408 10.2408   5
  -1   3  -9 153.015 11.3840   1
   1  -3   9 146.247 11.4402   5
   1  -3   9 153.808 10.0214   1
  -2   3  -9 211.211 11.8488   5
  -2   3  -9 167.770 10.7289   2
  -2   3  -9 195.126 12.2887   1
   2  -3   9 187.240 13.5223   5
   2  -3   9 203.638 13.1600   1
  -3   3  -9 10.1399 5.60155   5
  -3   3  -9 9.46485 5.30515   1
  -3   3  -9 -6.7357 4.31558   2
   3  -3   9 -1.1912 5.50614   5
  -4   3  -9 61.3475 7.82369   5
  -4   3  -9 52.3841 6.75918   2
  -4   3  -9 49.0582 7.75257   1
  -4   3  -9 66.6497 8.65560   1
   4  -3   9 61.0887 9.06242   5
  -5   3  -9 228.786 12.5859   2
  -5   3  -9 267.911 15.7067   1
  -5   3  -9 271.946 16.2984   1
  -5   3  -9 245.904 14.6683   5
   5  -3   9 232.332 15.5569   5
  -6   3  -9 -4.9462 5.86083   2
  -6   3  -9 -3.4139 6.89813   1
  -6   3  -9 -8.3466 6.22817   5
   6  -3   9 -13.346 7.17935   5
   6   2  -9 -0.6799 6.02412   1
   6   2  -9 6.30795 6.45890   5
  -6  -2   9 -3.1158 6.55897   5
  -6  -2   9 3.95805 6.30474   2
   5   2  -9 44.3198 7.59529   1
   5   2  -9 44.8849 7.29946   5
  -5  -2   9 40.6764 7.74374   2
  -5  -2   9 50.7048 8.97624   5
   4   2  -9 22.6351 6.26366   5
   4   2  -9 37.9630 7.10258   1
  -4  -2   9 47.1967 7.11070   2
  -4  -2   9 34.6335 7.13903   5
  -4  -2   9 34.3763 6.45417   1
   3   2  -9 197.687 12.0049   5
   3   2  -9 209.563 12.6209   1
  -3  -2   9 202.806 12.3633   2
  -3  -2   9 188.990 11.6776   1
  -3  -2   9 208.906 13.5479   5
   2   2  -9 540.226 19.6386   5
   2   2  -9 540.442 19.8126   1
   2   2  -9 548.196 18.2221   4
  -2  -2   9 568.905 20.2711   2
  -2  -2   9 556.618 21.2184   5
  -2  -2   9 563.517 19.6085   1
   1   2  -9 159.316 10.7324   5
   1   2  -9 145.502 10.8021   1
   1   2  -9 151.269 10.4783   4
  -1  -2   9 148.919 10.4285   2
  -1  -2   9 181.929 10.8904   1
  -1  -2   9 160.493 11.9498   5
   0   2  -9 143.793 10.5959   1
   0   2  -9 135.242 9.82786   5
   0  -2   9 128.213 10.6839   5
   0  -2   9 122.224 9.47454   1
  -1   2  -9 160.759 10.2510   2
  -1   2  -9 135.382 10.2032   5
  -1   2  -9 144.330 10.6226   1
   1  -2   9 127.980 9.66311   1
   1  -2   9 127.083 10.6966   5
  -2   2  -9 2.39635 4.91432   5
  -2   2  -9 8.51731 5.28735   1
  -2   2  -9 -0.8337 4.57748   2
   2  -2   9 -4.9635 5.01171   5
   2  -2   9 -3.5471 4.24367   1
  -3   2  -9 299.889 14.5159   5
  -3   2  -9 309.703 15.5758   1
  -3   2  -9 295.373 14.0306   2
   3  -2   9 300.707 15.7792   5
   3  -2   9 290.312 13.9870   1
  -4   2  -9 58.0323 8.22704   1
  -4   2  -9 56.9847 7.18107   2
  -4   2  -9 47.5744 7.79742   5
   4  -2   9 68.2059 8.19823   1
   4  -2   9 62.9697 8.33302   5
  -5   2  -9 57.0589 7.64715   2
  -5   2  -9 68.2002 9.09483   1
  -5   2  -9 64.6650 8.95534   5
  -5   2  -9 55.8920 8.34567   1
   5  -2   9 67.2837 8.43624   1
   5  -2   9 46.1278 8.63821   5
  -6   2  -9 34.5692 7.98717   1
  -6   2  -9 24.5649 7.60288   5
  -6   2  -9 24.6754 8.01862   1
  -6   2  -9 40.2308 7.47031   2
   6  -2   9 20.6257 7.63096   5
   6   1  -9 36.7173 8.01932   1
   6   1  -9 31.5893 7.76033   5
  -6  -1   9 50.4070 9.34958   5
  -6  -1   9 60.8427 9.09827   2
  -6  -1   9 52.0284 8.43622   1
   5   1  -9 58.0377 7.79789   1
  -5  -1   9 45.7751 8.01692   5
  -5  -1   9 56.9284 8.05389   1
  -5  -1   9 61.9886 8.30235   2
   4   1  -9 86.7759 9.06077   5
   4   1  -9 99.3253 9.49579   1
  -4  -1   9 88.6209 8.83196   1
  -4  -1   9 103.560 9.29526   2
  -4  -1   9 85.1557 9.79010   5
   3   1  -9 265.732 14.0086   5
   3   1  -9 266.892 13.5879   1
  -3  -1   9 259.436 14.6032   5
  -3  -1   9 256.337 13.5939   2
  -3  -1   9 281.868 13.6370   1
   2   1  -9 18.8646 5.47250   1
   2   1  -9 26.4518 5.12337   4
   2   1  -9 14.4354 5.41386   5
  -2  -1   9 20.4577 5.32967   2
  -2  -1   9 17.6841 5.53711   1
  -2  -1   9 21.6246 6.36169   5
   1   1  -9 138.067 10.1152   1
   1   1  -9 146.921 10.3295   5
  -1  -1   9 136.303 10.2361   1
  -1  -1   9 167.374 10.8834   2
  -1  -1   9 153.431 11.4186   5
   0   1  -9 80.1047 7.76898   1
   0   1  -9 110.072 9.21474   2
   0   1  -9 102.647 9.11304   5
   0  -1   9 91.9608 8.14791   2
   0  -1   9 95.0364 8.09674   1
   0  -1   9 104.265 9.32807   5
  -1   1  -9 134.718 9.80210   2
  -1   1  -9 138.816 10.3567   1
  -1   1  -9 172.705 11.0623   5
   1  -1   9 127.605 10.3848   5
   1  -1   9 143.495 10.1119   1
  -2   1  -9 247.341 12.4120   2
  -2   1  -9 232.486 13.0711   5
  -2   1  -9 237.278 12.7719   1
   2  -1   9 242.012 13.5016   5
   2  -1   9 231.956 12.4330   1
  -3   1  -9 255.192 13.8102   1
  -3   1  -9 267.525 13.8020   5
  -3   1  -9 264.636 13.5247   2
   3  -1   9 287.625 14.6276   5
   3  -1   9 250.761 13.0203   1
  -4   1  -9 508.158 20.2000   5
  -4   1  -9 520.588 20.1833   1
  -4   1  -9 537.962 19.5614   2
   4  -1   9 481.538 20.1407   5
   4  -1   9 519.432 19.3433   1
  -5   1  -9 12.0282 5.49861   2
  -5   1  -9 6.37958 6.52584   5
  -5   1  -9 18.8436 6.51346   1
   5  -1   9 18.4245 6.19232   1
   5  -1   9 14.3407 6.48078   5
  -6   1  -9 210.271 14.3876   2
  -6   1  -9 203.179 13.7189   1
  -6   1  -9 189.598 14.1658   1
  -6   1  -9 216.370 14.6184   5
   6  -1   9 192.017 13.4031   1
   6  -1   9 187.553 14.4260   5
  -7   1  -9 138.688 12.2954   1
  -7   1  -9 148.699 13.1095   1
  -7   1  -9 129.578 12.5223   5
  -7   1  -9 122.668 11.7889   2
   7  -1   9 107.927 11.5904   5
   7  -1   9 157.073 12.9679   1
   6   0  -9 63.4619 9.79331   5
  -6   0   9 51.2154 8.97980   5
  -6   0   9 83.7296 9.82654   2
  -6   0   9 57.9853 8.55117   1
   5   0  -9 105.926 10.1666   1
   5   0  -9 115.024 11.1845   5
  -5   0   9 90.5996 10.6478   5
  -5   0   9 134.302 11.5566   2
  -5   0   9 107.395 10.2063   1
   4   0  -9 80.1062 8.71961   1
   4   0  -9 78.5302 8.75156   5
  -4   0   9 77.9506 8.97025   5
  -4   0   9 74.5595 8.53598   1
  -4   0   9 87.6981 8.77506   2
   3   0  -9 61.8089 7.79135   5
   3   0  -9 71.4757 7.80248   1
  -3   0   9 61.7423 8.04846   5
  -3   0   9 50.4933 6.89855   2
  -3   0   9 71.8001 7.77794   1
   2   0  -9 9.25771 4.53551   1
   2   0  -9 9.83712 4.78997   5
  -2   0   9 13.2122 5.16247   1
  -2   0   9 8.91300 5.11233   5
  -2   0   9 4.02279 4.09839   2
   1   0  -9 1218.12 32.7144   1
   1   0  -9 1203.48 33.4542   5
  -1   0   9 1229.19 32.5910   1
  -1   0   9 1205.91 33.3053   5
  -1   0   9 1235.18 32.2968   2
   0   0  -9 335.367 14.7634   2
   0   0  -9 367.620 14.8157   1
   0   0  -9 359.425 15.5879   5
   0   0   9 322.894 13.8781   2
   0   0   9 351.925 14.8119   1
   0   0   9 369.511 15.7330   5
  -1   0  -9 -1.8607 4.35978   1
  -1   0  -9 -9.2708 4.30146   2
  -1   0  -9 -2.1172 4.66188   5
   1   0   9 -6.8229 4.17525   1
   1   0   9 -5.0873 4.60207   5
   1   0   9 -1.7072 4.21481   2
  -2   0  -9 399.774 16.8157   5
  -2   0  -9 382.742 15.7780   2
  -2   0  -9 384.769 16.0209   1
   2   0   9 413.300 16.0607   1
   2   0   9 413.970 16.9711   5
  -3   0  -9 71.0008 7.63178   1
  -3   0  -9 67.8653 8.24736   5
  -3   0  -9 61.2833 7.54393   2
   3   0   9 72.8876 7.67222   1
   3   0   9 77.1154 8.20619   5
  -4   0  -9 29.8910 6.78288   5
  -4   0  -9 37.3163 6.64182   2
  -4   0  -9 39.7250 6.79650   1
   4   0   9 39.7015 6.86589   5
   4   0   9 28.8814 6.17802   1
  -5   0  -9 190.392 13.6636   5
  -5   0  -9 196.406 13.3128   1
  -5   0  -9 232.066 13.9370   2
   5   0   9 203.019 13.0052   5
   5   0   9 186.876 12.4479   1
  -6   0  -9 186.330 13.7111   2
  -6   0  -9 175.463 13.8079   5
  -6   0  -9 163.770 12.7968   1
   6   0   9 164.686 12.4285   1
   6   0   9 150.229 12.6702   5
  -7   0  -9 43.1786 8.52470   5
  -7   0  -9 41.3748 8.10042   2
   7   0   9 32.3790 7.90768   5
   7   0   9 28.6330 7.76642   1
   6  -1  -9 -0.2602 7.13845   5
  -6   1   9 -6.2293 6.06593   2
  -6   1   9 -0.4112 6.12418   5
  -6   1   9 -11.620 5.83011   1
   5  -1  -9 297.565 17.1033   5
  -5   1   9 288.936 16.3025   5
  -5   1   9 275.890 15.4475   1
  -5   1   9 307.094 15.6350   2
   4  -1  -9 103.660 10.6852   5
  -4   1   9 138.324 10.3678   2
  -4   1   9 111.437 10.0875   1
  -4   1   9 104.627 10.0984   5
   3  -1  -9 24.8747 6.16218   5
   3  -1  -9 24.5670 5.71627   1
  -3   1   9 25.0435 5.86408   1
  -3   1   9 24.5943 5.57350   2
  -3   1   9 27.5635 6.12729   5
   2  -1  -9 97.9272 8.34078   1
   2  -1  -9 97.8381 9.21353   5
  -2   1   9 99.0310 8.69456   1
  -2   1   9 99.8486 8.63966   2
  -2   1   9 112.261 9.59515   5
   1  -1  -9 193.345 11.8033   5
   1  -1  -9 226.246 11.9188   2
   1  -1  -9 205.880 11.1613   1
  -1   1   9 185.898 11.1858   1
  -1   1   9 196.358 11.4903   5
  -1   1   9 198.666 10.7253   2
   0  -1  -9 60.6388 6.94468   2
   0  -1  -9 46.1647 6.96305   5
   0  -1  -9 57.1985 6.73924   1
   0   1   9 45.7726 5.95528   2
   0   1   9 55.8036 6.86485   1
   0   1   9 45.5319 6.74751   5
  -1  -1  -9 240.675 12.5518   2
  -1  -1  -9 217.885 12.6428   5
  -1  -1  -9 217.735 11.3341   1
   1   1   9 206.945 10.9614   2
   1   1   9 227.908 11.8692   1
   1   1   9 200.251 11.7783   5
  -2  -1  -9 42.3980 6.66367   2
  -2  -1  -9 54.7266 6.67003   1
  -2  -1  -9 47.7367 7.14193   5
   2   1   9 44.3234 6.03029   2
   2   1   9 46.3032 6.95193   5
   2   1   9 49.8141 6.73824   1
  -3  -1  -9 130.309 10.1206   2
  -3  -1  -9 127.215 9.64909   1
  -3  -1  -9 125.652 10.8708   5
   3   1   9 132.376 10.3367   5
   3   1   9 124.416 10.0602   1
  -4  -1  -9 38.9124 7.29273   5
  -4  -1  -9 34.9804 6.39664   1
  -4  -1  -9 40.1448 6.68942   2
   4   1   9 44.8970 6.83980   5
   4   1   9 42.2378 6.28198   1
  -5  -1  -9 445.716 17.6761   1
  -5  -1  -9 420.596 17.6459   2
  -5  -1  -9 434.718 18.4201   5
   5   1   9 412.082 17.1730   1
   5   1   9 420.279 17.5268   5
  -6  -1  -9 324.534 16.7464   5
  -6  -1  -9 286.260 15.3783   2
   6   1   9 267.513 14.7201   5
   6   1   9 293.266 15.1574   1
  -7  -1  -9 100.831 11.5969   5
  -7  -1  -9 106.498 10.6617   2
   7   1   9 102.225 10.0997   5
   7   1   9 116.331 11.0165   1
  -8  -1  -9 170.722 14.9934   5
  -8  -1  -9 191.231 15.0800   2
   8   1   9 195.296 14.5179   1
   8   1   9 183.007 13.9346   5
   5  -2  -9 19.0812 7.42164   5
  -5   2   9 26.0906 5.75153   2
  -5   2   9 13.5881 6.60850   5
  -5   2   9 12.8135 6.34269   1
   4  -2  -9 129.902 11.8305   5
  -4   2   9 121.514 9.70564   2
  -4   2   9 128.576 10.7728   1
  -4   2   9 97.2248 9.65310   5
   3  -2  -9 200.613 13.2387   5
  -3   2   9 188.972 12.2538   5
  -3   2   9 185.505 10.8672   2
  -3   2   9 206.083 12.5994   1
   2  -2  -9 182.938 11.9519   5
  -2   2   9 171.450 10.9537   5
  -2   2   9 170.907 11.2123   1
  -2   2   9 190.308 10.1008   2
   1  -2  -9 35.2760 6.04811   2
   1  -2  -9 18.5263 5.38175   1
   1  -2  -9 25.8367 6.08866   5
  -1   2   9 28.1821 5.63537   1
  -1   2   9 21.9913 5.17596   5
  -1   2   9 21.1241 4.53278   2
   0  -2  -9 24.4817 4.96161   1
   0  -2  -9 25.7331 5.73753   5
   0  -2  -9 12.3072 5.05025   2
   0   2   9 15.3605 4.94541   1
   0   2   9 20.7552 4.30678   2
   0   2   9 27.6811 5.41905   5
  -1  -2  -9 1570.84 40.5435   2
  -1  -2  -9 1695.22 41.9780   5
  -1  -2  -9 1591.41 39.6868   1
   1   2   9 1658.79 40.7408   1
   1   2   9 1656.46 40.2628   5
   1   2   9 1653.51 38.5729   2
  -2  -2  -9 285.321 13.0332   1
  -2  -2  -9 312.198 14.9881   5
  -2  -2  -9 280.964 14.2055   2
   2   2   9 298.999 13.8078   1
   2   2   9 312.421 12.1900   2
   2   2   9 316.973 13.9630   5
  -3  -2  -9 49.1083 7.23572   5
  -3  -2  -9 66.7151 6.75111   1
  -3  -2  -9 60.0984 6.96880   2
   3   2   9 52.9966 6.63441   5
   3   2   9 49.8577 5.75730   2
   3   2   9 53.2077 6.79987   1
  -4  -2  -9 598.179 20.7241   2
  -4  -2  -9 567.829 20.9226   5
   4   2   9 584.826 19.6717   5
   4   2   9 563.437 19.9331   1
  -5  -2  -9 78.9435 10.2869   2
  -5  -2  -9 76.2914 9.25688   5
   5   2   9 95.5818 8.78052   1
   5   2   9 78.5356 8.09330   5
  -6  -2  -9 41.1974 8.11532   5
   6   2   9 20.7281 5.99913   5
   6   2   9 36.0498 6.67174   1
  -7  -2  -9 298.920 17.2078   5
   7   2   9 286.916 15.0571   5
   7   2   9 262.773 15.2746   1
  -8  -2  -9 64.6081 10.6670   5
   8   2   9 53.4329 8.57916   5
   8   2   9 56.2759 9.49401   1
   5  -3  -9 16.1953 7.55938   5
  -5   3   9 10.0410 5.01431   2
  -5   3   9 17.5658 6.55059   5
  -5   3   9 8.62673 6.91157   1
   4  -3  -9 30.5139 7.45255   5
  -4   3   9 13.4412 5.88727   5
  -4   3   9 18.4747 4.54837   2
  -4   3   9 8.06399 5.63910   1
   3  -3  -9 312.293 16.2628   5
  -3   3   9 294.026 14.2990   5
  -3   3   9 335.405 12.4503   2
  -3   3   9 319.958 15.4222   1
   2  -3  -9 218.417 13.4605   5
  -2   3   9 208.235 12.4126   1
  -2   3   9 221.426 9.71097   2
  -2   3   9 235.455 12.0905   5
   1  -3  -9 13.8587 5.43903   5
  -1   3   9 9.64441 3.61536   2
  -1   3   9 7.05020 4.58669   1
  -1   3   9 12.2077 3.48824   2
  -1   3   9 10.9334 4.71737   5
   0  -3  -9 132.103 10.2683   5
   0   3   9 132.837 9.30075   1
   0   3   9 130.932 7.21634   2
   0   3   9 126.309 8.98411   5
   0   3   9 117.454 7.22069   2
  -1  -3  -9 153.898 10.8470   5
   1   3   9 146.603 9.37314   5
   1   3   9 160.686 10.0103   1
   1   3   9 162.690 7.72938   2
   1   3   9 158.740 7.75519   2
  -2  -3  -9 31.6448 6.58180   5
   2   3   9 32.7073 4.15882   2
   2   3   9 33.8318 5.55689   5
   2   3   9 33.1952 6.01773   1
   2   3   9 33.9254 4.27747   2
  -3  -3  -9 197.655 12.1477   5
   3   3   9 186.309 11.3022   1
   3   3   9 185.274 10.4267   5
   3   3   9 188.526 8.52652   2
   3   3   9 188.255 8.46523   2
  -4  -3  -9 2.71175 5.40034   5
   4   3   9 7.18944 4.48168   5
   4   3   9 -3.0013 4.51089   1
   4   3   9 7.04236 3.56051   2
   4   3   9 -0.1486 3.14392   2
  -5  -3  -9 124.436 10.6394   5
   5   3   9 104.383 9.17756   1
   5   3   9 116.906 7.68492   2
   5   3   9 112.292 9.05625   5
  -6  -3  -9 8.02838 6.34439   5
   6   3   9 8.45720 5.00087   5
   6   3   9 10.8087 5.48071   1
   6   3   9 4.61965 3.76781   2
  -7  -3  -9 164.119 13.8865   5
   7   3   9 167.256 12.7959   1
   7   3   9 167.792 11.3863   5
  -8  -3  -9 268.636 17.3784   5
   8   3   9 245.583 13.9943   5
   8   3   9 257.174 15.8745   1
   4  -4  -9 119.790 12.0714   5
  -4   4   9 95.8995 10.3572   1
  -4   4   9 109.327 9.11517   5
   3  -4  -9 63.2251 8.76716   5
  -3   4   9 72.5986 7.02376   5
  -3   4   9 65.3484 7.96281   1
   2  -4  -9 20.9607 6.53152   5
  -2   4   9 23.6834 5.06417   5
  -2   4   9 10.3554 5.42750   1
   1  -4  -9 98.5713 9.07846   5
  -1   4   9 90.9035 8.05866   5
  -1   4   9 78.4081 7.73391   1
   0  -4  -9 127.481 10.3409   5
   0   4   9 145.723 10.1358   1
   0   4   9 148.954 8.47793   5
  -1  -4  -9 6.82160 5.20839   5
   1   4   9 11.2073 3.93621   5
   1   4   9 5.35151 4.37104   1
  -2  -4  -9 115.280 9.72489   5
   2   4   9 102.031 8.47726   1
   2   4   9 113.377 7.43259   5
  -3  -4  -9 1226.13 34.0232   5
   3   4   9 1264.88 33.4548   1
   3   4   9 1270.75 30.3467   5
  -4  -4  -9 164.202 12.1495   5
   4   4   9 153.638 8.60627   5
   4   4   9 156.439 10.8137   1
  -5  -4  -9 213.704 13.4381   5
   5   4   9 242.682 10.8448   5
   5   4   9 241.873 12.8831   1
  -6  -4  -9 265.698 15.2356   5
   6   4   9 262.755 14.2233   1
   6   4   9 256.376 11.6048   5
  -7  -4  -9 82.3937 9.66595   5
   7   4   9 66.3650 7.05190   5
   7   4   9 78.1151 9.09254   1
  -8  -4  -9 47.4690 9.32321   5
   8   4   9 45.3026 6.79249   5
   8   4   9 50.1824 8.76789   1
   3  -5  -9 2.94709 6.30138   5
  -3   5   9 5.91667 5.29556   1
   2  -5  -9 2.83399 5.48763   5
  -2   5   9 -7.1262 4.55504   1
   1  -5  -9 734.496 24.5909   5
  -1   5   9 696.255 23.0323   1
   0  -5  -9 50.9612 7.27708   5
   0   5   9 49.2654 6.58566   1
  -1  -5  -9 7.97472 5.23813   5
   1   5   9 -2.5391 3.65865   1
   2   5   9 309.329 13.3954   1
  -3  -5  -9 424.008 16.8674   5
   3   5   9 399.881 15.9536   1
  -4  -5  -9 21.8215 6.10403   5
   4   5   9 18.5483 5.81897   1
  -5  -5  -9 126.096 10.9008   5
   5   5   9 144.814 10.3304   1
  -6  -5  -9 3.52531 6.07728   5
   6   5   9 0.78788 5.30902   1
  -7  -5  -9 9.75236 6.24109   5
   7   5   9 4.36585 5.74019   1
  -8  -5  -9 33.3399 8.52315   5
   8   5   9 35.1547 7.91123   1
  -2   6   9 65.8749 8.09028   1
  -1   6   9 8.92009 4.51530   1
   0   6   9 100.656 8.71886   1
   1   6   9 159.710 10.1493   1
   2   6   9 65.3990 6.77776   1
   3   6   9 0.30471 4.13039   1
   4   6   9 0.07511 4.47877   1
   5   6   9 980.952 28.4454   1
   6   6   9 88.4370 8.82618   1
   7   6   9 92.0569 9.28100   1
  -1   7   9 17.8941 6.02688   1
   0   7   9 31.6026 6.03605   1
   1   7   9 286.500 13.3990   1
   2   7   9 15.5831 5.28124   1
   3   7   9 6.53821 4.70182   1
   4   7   9 119.520 9.81701   1
   5   7   9 286.489 13.9195   1
   6   7   9 44.1831 7.13308   1
   1   8   9 102.048 8.81101   1
   2   8   9 16.6029 5.24363   1
   3   8   9 15.7978 5.21272   1
   4   8   9 36.8054 6.09099   1
   5   8   9 -9.4737 4.57906   1
   2   6 -10 13.2733 7.39834   1
   2   6 -10 17.0234 7.72943   4
   2   6 -10 20.4954 5.02533   5
   2   6 -10 26.5977 9.44221   6
  -2  -6  10 22.7813 7.66133   5
   1   6 -10 229.292 17.3616   4
   1   6 -10 218.895 14.2672   1
   1   6 -10 191.434 10.2935   5
   1   6 -10 173.746 16.6692   6
  -1  -6  10 198.132 15.6848   5
   0   6 -10 12.7996 5.21522   5
   0   6 -10 19.3148 9.54095   4
   0   6 -10 19.9711 7.89501   1
   0   6 -10 1.85396 9.10815   6
   0  -6  10 8.32522 7.44647   5
   4   5 -10 31.3636 7.58417   1
   4   5 -10 39.6340 8.84265   6
   4   5 -10 35.3112 6.90586   5
  -4  -5  10 37.8803 8.13828   5
   3   5 -10 12.4485 7.91427   6
   3   5 -10 21.9804 7.16031   1
   3   5 -10 9.86182 5.59460   5
   3   5 -10 4.99077 6.58798   4
  -3  -5  10 18.3849 7.55030   5
   2   5 -10 170.770 10.8831   5
   2   5 -10 157.120 12.8479   1
   2   5 -10 189.595 15.0748   6
   2   5 -10 184.959 14.0518   4
  -2  -5  10 149.833 13.0807   5
   1   5 -10 43.5380 9.88431   6
   1   5 -10 36.5654 7.68221   1
   1   5 -10 35.7629 8.79383   4
   1   5 -10 38.6219 6.47651   5
  -1  -5  10 44.1231 8.14436   5
   0   5 -10 42.6559 9.91129   6
   0   5 -10 25.6099 5.79792   5
   0   5 -10 25.3720 7.48441   1
   0   5 -10 33.1340 8.85654   4
   0  -5  10 18.2964 7.13989   5
  -1   5 -10 719.568 29.1139   4
  -1   5 -10 771.099 26.5741   1
   1  -5  10 786.121 28.3805   5
  -2   5 -10 29.9900 10.2454   4
  -2   5 -10 25.0767 7.78074   1
  -2   5 -10 19.1656 6.09932   5
   2  -5  10 27.0843 8.11761   5
   5   4 -10 -2.4300 5.31539   5
  -5  -4  10 5.21961 7.15378   5
   4   4 -10 194.893 13.7548   1
   4   4 -10 188.598 12.1884   5
  -4  -4  10 216.647 15.4436   5
   3   4 -10 162.030 11.2073   5
   3   4 -10 162.780 13.4760   6
   3   4 -10 149.421 12.3438   1
  -3  -4  10 158.493 13.9632   5
   2   4 -10 29.5577 6.45299   5
   2   4 -10 12.9123 8.03514   6
   2   4 -10 24.8276 7.37806   4
   2   4 -10 26.6551 6.68225   1
  -2  -4  10 20.2485 7.04244   5
   1   4 -10 245.813 13.3944   5
   1   4 -10 273.454 16.2366   4
   1   4 -10 283.235 15.0599   1
  -1  -4  10 294.878 16.5676   5
   0   4 -10 -0.0773 4.77652   5
   0   4 -10 -0.2713 5.90303   1
   0   4 -10 16.5289 7.75770   4
   0  -4  10 5.89067 5.84470   5
  -1   4 -10 49.5436 8.12620   1
  -1   4 -10 57.8702 10.0828   4
  -1   4 -10 38.5650 6.71284   5
   1  -4  10 73.5192 9.69316   5
  -2   4 -10 17.4814 6.25765   5
  -2   4 -10 7.75683 5.89103   1
   2  -4  10 18.6750 7.53960   5
  -3   4 -10 -0.7657 4.25577   2
  -3   4 -10 0.59928 5.09137   5
  -3   4 -10 6.31153 6.99301   1
   3  -4  10 4.20701 6.24600   5
  -4   4 -10 52.4864 6.90398   2
  -4   4 -10 60.8539 9.91104   1
  -4   4 -10 68.5928 8.81861   5
   4  -4  10 67.0226 10.7860   5
   5   3 -10 6.02907 6.67422   1
   5   3 -10 25.1165 7.07813   5
  -5  -3  10 14.7155 7.26227   5
   4   3 -10 20.5425 6.72680   1
   4   3 -10 14.1412 5.69626   5
  -4  -3  10 15.6701 6.83794   5
  -4  -3  10 14.6254 7.75455   2
   3   3 -10 49.7950 7.82841   5
   3   3 -10 51.3965 8.03372   1
  -3  -3  10 45.9500 7.69951   2
  -3  -3  10 47.1432 8.27274   5
   2   3 -10 110.892 10.5637   4
   2   3 -10 105.696 9.98223   1
   2   3 -10 122.568 9.95298   5
  -2  -3  10 104.485 10.7055   5
  -2  -3  10 103.985 10.0050   2
   1   3 -10 0.98772 6.21358   4
   1   3 -10 -3.3126 4.51274   5
   1   3 -10 -0.4518 5.07249   1
  -1  -3  10 -1.7736 5.55307   5
   0   3 -10 873.884 28.7627   4
   0   3 -10 850.200 26.9035   5
   0   3 -10 919.010 28.1306   1
   0  -3  10 908.819 29.6294   5
  -1   3 -10 6.55475 6.07467   1
  -1   3 -10 -2.2704 5.44478   5
   1  -3  10 0.93024 6.71510   5
  -2   3 -10 147.813 12.3845   1
  -2   3 -10 142.917 10.8390   5
  -2   3 -10 177.010 10.8922   2
   2  -3  10 165.887 13.4144   5
  -3   3 -10 861.104 28.1181   1
  -3   3 -10 801.922 25.0295   2
  -3   3 -10 798.063 26.4176   5
   3  -3  10 835.621 29.2934   5
  -4   3 -10 6.84026 5.61789   2
  -4   3 -10 5.42851 7.01624   1
  -4   3 -10 8.60299 6.45820   5
   4  -3  10 -0.8702 6.08397   5
  -5   3 -10 412.462 17.1513   2
  -5   3 -10 395.448 20.2653   1
  -5   3 -10 369.972 18.2111   5
   5  -3  10 410.625 21.5245   5
   5   2 -10 115.793 10.7808   5
   5   2 -10 128.354 11.4071   1
  -5  -2  10 134.634 11.7454   2
  -5  -2  10 114.434 12.6097   5
   4   2 -10 132.534 11.5938   5
   4   2 -10 149.305 12.1997   1
  -4  -2  10 138.140 12.4473   5
  -4  -2  10 158.939 11.9731   2
   3   2 -10 5.77759 5.56751   1
   3   2 -10 6.37113 5.42885   5
  -3  -2  10 7.07274 5.09631   1
  -3  -2  10 4.82753 5.05462   2
  -3  -2  10 -1.7372 5.61398   5
   2   2 -10 310.179 16.0129   1
   2   2 -10 326.094 16.0731   5
  -2  -2  10 326.239 15.7907   2
  -2  -2  10 337.846 17.2440   5
  -2  -2  10 332.588 15.3170   1
   1   2 -10 43.8519 7.06598   5
   1   2 -10 47.3828 7.76037   4
   1   2 -10 49.3342 7.50355   1
  -1  -2  10 54.8186 7.48112   2
  -1  -2  10 46.7355 8.23845   5
  -1  -2  10 41.6647 6.84536   1
   0   2 -10 20.8472 6.14700   5
   0   2 -10 30.0577 6.11888   1
   0  -2  10 16.7789 6.35181   5
   0  -2  10 28.3881 6.25997   1
  -1   2 -10 125.417 10.8851   5
  -1   2 -10 135.755 10.9750   1
  -1   2 -10 137.524 10.4787   2
   1  -2  10 108.816 9.47136   1
   1  -2  10 137.761 11.8703   5
  -2   2 -10 61.2885 7.52344   2
  -2   2 -10 56.8082 7.86350   5
  -2   2 -10 65.9321 8.36632   1
   2  -2  10 59.5918 8.71951   5
   2  -2  10 61.2524 7.69630   1
  -3   2 -10 31.1172 6.17492   2
  -3   2 -10 13.7221 6.24343   1
  -3   2 -10 18.8621 6.51026   5
   3  -2  10 21.7539 6.96719   5
   3  -2  10 23.2318 6.45087   1
  -4   2 -10 0.98138 6.39920   1
  -4   2 -10 9.11369 5.99661   2
  -4   2 -10 5.06654 6.14859   5
   4  -2  10 1.10858 5.90293   5
   4  -2  10 8.70937 5.95905   1
  -5   2 -10 13.0083 7.20419   1
  -5   2 -10 5.78056 5.99724   2
  -5   2 -10 7.77170 6.45317   5
   5  -2  10 9.00071 7.47007   5
   5   1 -10 1.78817 5.60756   1
   5   1 -10 -4.3554 5.99165   5
  -5  -1  10 -10.062 5.89710   2
  -5  -1  10 -8.6214 5.75712   5
  -5  -1  10 -3.0297 5.99267   1
   4   1 -10 17.3974 6.36551   1
   4   1 -10 13.2393 6.28175   5
  -4  -1  10 13.8947 6.26526   2
  -4  -1  10 -1.6109 5.36890   1
  -4  -1  10 10.9337 6.55839   5
   3   1 -10 79.6558 8.92266   1
   3   1 -10 69.0385 8.62761   5
  -3  -1  10 66.2462 9.10290   5
  -3  -1  10 76.2845 8.67012   2
  -3  -1  10 80.4323 8.59836   1
   2   1 -10 27.2711 6.61703   5
   2   1 -10 22.6898 6.06384   1
  -2  -1  10 29.7586 6.39790   2
  -2  -1  10 26.2348 6.53745   5
  -2  -1  10 23.0397 6.04683   1
   1   1 -10 47.4786 7.25286   1
   1   1 -10 37.8334 6.94321   4
   1   1 -10 43.7792 7.46250   5
  -1  -1  10 38.6177 6.92814   2
  -1  -1  10 40.2765 7.26647   5
  -1  -1  10 30.2230 6.58774   1
   0   1 -10 -2.6199 4.45655   1
   0   1 -10 11.9358 5.81404   5
   0   1 -10 8.63396 5.35825   2
   0  -1  10 -0.9351 4.91282   2
   0  -1  10 2.34963 5.02441   5
   0  -1  10 10.4333 5.13172   1
  -1   1 -10 60.8187 7.76916   5
  -1   1 -10 69.9038 8.08621   2
  -1   1 -10 65.7491 8.08619   1
   1  -1  10 70.0700 8.52379   5
   1  -1  10 84.5557 8.42017   1
  -2   1 -10 640.068 22.7270   5
  -2   1 -10 650.070 22.4213   1
  -2   1 -10 619.879 21.3303   2
   2  -1  10 626.751 21.7293   1
   2  -1  10 626.854 23.0424   5
  -3   1 -10 2.80866 5.37835   2
  -3   1 -10 3.56163 5.56544   1
  -3   1 -10 -6.8057 5.25394   5
   3  -1  10 7.47518 5.24434   5
   3  -1  10 4.02249 5.07701   1
  -4   1 -10 269.785 15.5613   1
  -4   1 -10 321.252 15.7889   2
  -4   1 -10 310.225 16.0399   5
   4  -1  10 293.408 15.4324   1
   4  -1  10 294.658 16.4666   5
  -5   1 -10 362.698 18.3561   5
  -5   1 -10 384.767 18.7154   1
  -5   1 -10 365.171 16.9868   2
   5  -1  10 351.114 18.4631   5
   5  -1  10 341.404 17.1456   1
  -6   1 -10 22.6758 7.62987   2
  -6   1 -10 17.5096 7.70683   5
  -6   1 -10 28.0062 7.74386   1
   6  -1  10 18.6985 7.51388   1
   6  -1  10 18.6720 7.81943   5
   5   0 -10 518.946 22.3606   5
  -5   0  10 519.679 21.7322   1
  -5   0  10 510.443 22.6595   5
  -5   0  10 517.851 21.4009   2
   4   0 -10 0.41805 5.46869   1
   4   0 -10 5.73800 5.67423   5
  -4   0  10 -8.4694 5.37253   5
  -4   0  10 2.29137 5.60236   1
  -4   0  10 -2.5827 5.25604   2
   3   0 -10 334.862 16.2949   5
   3   0 -10 323.294 15.6480   1
  -3   0  10 289.969 15.8606   5
  -3   0  10 317.789 15.7431   1
  -3   0  10 303.176 14.8305   2
   2   0 -10 101.278 9.60976   5
   2   0 -10 90.3380 8.88561   1
  -2   0  10 94.5357 8.79330   2
  -2   0  10 98.3388 9.36977   1
  -2   0  10 90.8420 9.37689   5
   1   0 -10 20.3370 5.51587   1
   1   0 -10 20.1484 6.18494   5
  -1   0  10 10.7095 5.31104   5
  -1   0  10 11.0902 4.76174   2
  -1   0  10 13.7672 5.47617   1
   0   0 -10 249.820 12.8590   1
   0   0 -10 232.150 12.7037   2
   0   0 -10 229.049 13.4217   5
   0   0  10 212.899 11.9880   1
   0   0  10 208.117 11.7873   2
   0   0  10 216.678 13.0939   5
  -1   0 -10 85.9276 9.24885   5
  -1   0 -10 124.807 10.0896   2
  -1   0 -10 93.2015 8.74639   1
   1   0  10 99.3763 8.63533   2
   1   0  10 102.908 9.65408   5
   1   0  10 104.506 9.16527   1
  -2   0 -10 4.88769 5.86010   5
  -2   0 -10 6.51367 5.06654   1
  -2   0 -10 7.68667 5.23096   2
   2   0  10 9.97011 5.51160   5
   2   0  10 4.32491 5.23121   1
  -3   0 -10 210.259 12.8909   1
  -3   0 -10 199.344 12.5632   2
  -3   0 -10 209.419 13.3070   5
   3   0  10 229.104 13.0245   1
   3   0  10 208.637 13.0868   5
  -4   0 -10 98.3255 9.71999   1
  -4   0 -10 101.436 10.5051   5
  -4   0 -10 102.863 9.75374   2
   4   0  10 116.448 10.4301   1
   4   0  10 123.998 11.0392   5
  -5   0 -10 29.3422 7.58056   1
  -5   0 -10 42.8930 7.60087   2
  -5   0 -10 32.2180 8.08827   5
   5   0  10 29.9315 7.18566   5
   5   0  10 35.4214 7.43688   1
  -6   0 -10 102.639 11.0915   5
  -6   0 -10 95.2068 10.5846   2
   6   0  10 99.8632 10.5721   1
   6   0  10 91.7761 10.4743   5
   5  -1 -10 11.1232 6.99160   5
  -5   1  10 13.2625 6.84463   2
  -5   1  10 -9.1462 6.02117   5
  -5   1  10 -5.5337 5.48489   1
   4  -1 -10 196.255 14.7662   5
  -4   1  10 215.050 12.9865   2
  -4   1  10 188.220 14.3149   5
  -4   1  10 183.712 13.2776   1
   3  -1 -10 59.2962 8.40874   5
  -3   1  10 57.2025 7.91420   1
  -3   1  10 54.9645 7.84806   5
  -3   1  10 47.7687 6.88001   2
   2  -1 -10 13.7228 6.02189   5
   2  -1 -10 9.03598 5.93963   1
  -2   1  10 7.95608 5.38531   1
  -2   1  10 10.4383 4.77354   2
  -2   1  10 2.61911 5.58739   5
   1  -1 -10 255.976 14.3714   5
   1  -1 -10 238.674 13.1894   1
  -1   1  10 265.247 13.6551   1
  -1   1  10 248.275 12.2474   2
  -1   1  10 237.627 13.3762   5
   0  -1 -10 88.2666 8.88559   2
   0  -1 -10 93.9284 8.60375   1
   0  -1 -10 108.568 9.75204   5
   0   1  10 77.6996 7.37463   2
   0   1  10 82.1176 8.26846   1
   0   1  10 78.3496 8.12209   5
  -1  -1 -10 -2.4539 5.17404   5
  -1  -1 -10 -2.4417 4.44980   2
  -1  -1 -10 3.86994 4.75889   1
   1   1  10 -0.9983 4.53004   5
   1   1  10 -1.9502 4.18006   1
   1   1  10 5.96757 4.29541   2
  -2  -1 -10 -2.3170 4.22979   1
  -2  -1 -10 1.97202 4.92883   2
  -2  -1 -10 1.24517 5.10040   5
   2   1  10 6.48630 5.54764   5
   2   1  10 -7.8231 4.45393   1
   2   1  10 -0.0777 4.14753   2
  -3  -1 -10 80.7753 8.33890   1
  -3  -1 -10 77.8892 8.66987   5
  -3  -1 -10 88.3796 8.85037   2
   3   1  10 91.3151 8.28788   2
   3   1  10 79.7762 8.33249   5
   3   1  10 83.1322 8.39874   1
  -4  -1 -10 340.561 15.9769   1
  -4  -1 -10 335.207 16.5475   5
  -4  -1 -10 368.965 16.4403   2
   4   1  10 328.538 15.6553   5
   4   1  10 346.967 15.8209   1
  -5  -1 -10 10.1862 6.73502   5
  -5  -1 -10 10.9934 6.31448   2
   5   1  10 2.90201 5.76881   1
   5   1  10 -0.8557 5.18552   5
  -6  -1 -10 108.176 11.3464   5
  -6  -1 -10 117.677 11.7154   2
   6   1  10 98.2228 9.95591   5
   6   1  10 102.456 10.4440   1
  -7  -1 -10 313.962 18.3334   2
  -7  -1 -10 300.270 18.3786   5
   7   1  10 310.227 17.0550   1
   7   1  10 295.357 17.1928   5
   4  -2 -10 325.949 18.0327   5
  -4   2  10 324.038 14.6754   2
  -4   2  10 342.028 16.8167   5
   3  -2 -10 237.710 14.8308   5
  -3   2  10 198.741 12.8324   1
  -3   2  10 203.764 12.9139   5
  -3   2  10 210.159 11.9573   2
   2  -2 -10 46.8501 7.65481   5
  -2   2  10 40.4288 7.06713   1
  -2   2  10 45.0837 6.02609   2
  -2   2  10 45.8768 7.08357   5
   1  -2 -10 93.1947 9.48509   5
  -1   2  10 100.456 9.05744   1
  -1   2  10 111.420 9.57501   5
  -1   2  10 105.176 8.66783   2
   0  -2 -10 223.630 13.5325   5
   0   2  10 221.306 12.2504   5
   0   2  10 224.202 10.9074   2
   0   2  10 220.501 12.4975   1
  -1  -2 -10 1.02625 4.57773   5
  -1  -2 -10 2.27121 5.72254   2
   1   2  10 1.56287 3.61275   2
   1   2  10 -3.4395 4.61910   1
   1   2  10 2.87472 4.54965   5
  -2  -2 -10 125.892 10.7837   5
  -2  -2 -10 163.837 17.0296   2
   2   2  10 151.321 9.00065   2
   2   2  10 131.196 10.1715   5
   2   2  10 136.185 10.4750   1
  -3  -2 -10 141.237 11.7669   5
   3   2  10 127.476 9.09523   2
   3   2  10 148.535 10.6552   1
   3   2  10 135.860 10.0232   5
  -4  -2 -10 206.032 13.6116   5
   4   2  10 189.063 10.4448   2
   4   2  10 185.316 12.3594   1
  -5  -2 -10 325.703 16.9874   5
   5   2  10 308.466 15.4073   5
   5   2  10 318.067 16.0633   1
  -6  -2 -10 -5.4502 6.56746   5
   6   2  10 13.6427 5.74814   5
   6   2  10 6.12125 6.14121   1
  -7  -2 -10 5.27769 7.45985   5
   7   2  10 -1.7831 5.73427   5
   7   2  10 6.95538 6.90112   1
   4  -3 -10 10.1661 6.80817   5
  -4   3  10 13.7212 6.33142   5
  -4   3  10 5.73084 4.25412   2
  -4   3  10 2.98647 5.74352   1
   3  -3 -10 12.3667 6.49918   5
  -3   3  10 24.6251 6.34442   5
  -3   3  10 11.1417 4.38818   2
  -3   3  10 17.0187 6.22467   1
   2  -3 -10 525.955 20.9934   5
  -2   3  10 521.205 20.1507   1
  -2   3  10 526.925 19.2460   5
   1  -3 -10 11.8321 6.23938   5
  -1   3  10 -2.7259 4.70212   5
  -1   3  10 -0.0250 4.65276   1
  -1   3  10 3.00775 3.64355   2
   0  -3 -10 34.4294 6.87121   5
   0   3  10 36.5947 6.29525   1
   0   3  10 32.8888 4.63570   2
   0   3  10 33.3312 6.17904   5
  -1  -3 -10 105.501 9.78045   5
   1   3  10 96.2122 8.20643   5
   1   3  10 102.039 7.07639   2
   1   3  10 80.4514 8.01483   1
  -2  -3 -10 149.541 11.7428   5
   2   3  10 167.053 10.2818   5
   2   3  10 140.033 10.5861   1
   2   3  10 162.349 8.24512   2
  -3  -3 -10 100.221 9.83329   5
   3   3  10 83.4576 7.89900   5
   3   3  10 90.1465 6.97885   2
   3   3  10 88.9474 8.53718   1
  -4  -3 -10 101.437 10.3227   5
   4   3  10 108.661 7.31648   2
   4   3  10 114.258 9.34614   5
   4   3  10 108.722 9.45039   1
  -5  -3 -10 2.13639 5.63569   5
   5   3  10 -3.8479 5.22539   1
   5   3  10 -0.2556 3.67202   2
   5   3  10 -1.0981 4.80611   5
  -6  -3 -10 470.993 20.9685   5
   6   3  10 478.156 15.1451   2
   6   3  10 454.348 17.8909   5
   6   3  10 424.188 18.9621   1
  -7  -3 -10 2.46406 6.88030   5
   7   3  10 -11.348 5.76568   1
   7   3  10 -4.8016 5.23291   5
   7   3  10 -0.5120 3.90936   2
   3  -4 -10 8.95502 7.39638   5
  -3   4  10 22.8747 6.10163   5
  -3   4  10 19.1627 6.57075   1
   2  -4 -10 449.711 20.0596   5
  -2   4  10 470.076 18.9797   1
  -2   4  10 457.356 16.4611   5
   1  -4 -10 271.942 15.1897   5
  -1   4  10 224.195 11.4850   5
  -1   4  10 245.267 13.6252   1
   0  -4 -10 1.81733 5.39833   5
   0   4  10 -2.0224 4.24469   1
   0   4  10 9.46939 4.28300   5
  -1  -4 -10 233.218 13.9315   5
   1   4  10 216.260 11.9595   1
   1   4  10 216.569 10.3813   5
  -2  -4 -10 126.700 11.0047   5
   2   4  10 128.196 9.83213   1
   2   4  10 120.687 8.39739   5
  -3  -4 -10 41.0899 7.29709   5
   3   4  10 30.1688 6.17484   1
   3   4  10 42.2885 5.84900   5
  -4  -4 -10 546.678 20.9963   5
   4   4  10 534.638 19.8581   1
   4   4  10 488.369 16.3809   5
  -5  -4 -10 35.8053 7.71125   5
   5   4  10 27.9904 5.36211   5
   5   4  10 30.7424 6.88728   1
  -6  -4 -10 35.8150 7.63873   5
   6   4  10 40.4976 6.05830   5
   6   4  10 29.5210 6.89440   1
  -7  -4 -10 66.3019 10.3426   5
   7   4  10 71.0982 9.09453   1
   7   4  10 63.1775 7.37684   5
   2  -5 -10 11.1832 6.72822   5
  -2   5  10 9.81947 5.66757   1
   1  -5 -10 6.58774 6.23582   5
  -1   5  10 2.56021 5.03573   1
   0  -5 -10 509.606 20.6029   5
   0   5  10 485.745 19.0657   1
  -1  -5 -10 -6.7988 4.75290   5
   1   5  10 2.01289 4.32167   1
  -2  -5 -10 7.19475 6.09685   5
   2   5  10 4.17841 4.88375   1
  -3  -5 -10 14.9153 6.27152   5
   3   5  10 7.53798 4.90095   1
  -4  -5 -10 21.6859 6.52596   5
   4   5  10 14.6437 5.48239   1
  -5  -5 -10 3.94652 6.08581   5
   5   5  10 21.5428 6.30757   1
  -6  -5 -10 5.83408 6.34584   5
   6   5  10 -3.7348 5.17859   1
  -7  -5 -10 42.8206 8.83035   5
   7   5  10 26.5388 7.35916   1
  -1   6  10 56.5011 7.67318   1
   0   6  10 386.257 16.8328   1
   1   6  10 135.527 10.6231   1
   2   6  10 5.79420 5.06450   1
   3   6  10 166.629 11.2695   1
   4   6  10 2.41830 5.40214   1
   5   6  10 9.30490 5.59446   1
   6   6  10 90.9675 9.32033   1
   1   7  10 25.3239 6.13321   1
   2   7  10 325.020 15.1845   1
   3   7  10 3.08045 5.06400   1
   4   7  10 4.14423 4.88323   1
   5   7  10 28.4476 6.42360   1
   3   4 -11 3.79053 6.05467   1
   3   4 -11 -3.4944 5.07235   5
   3   4 -11 -3.3641 7.01639   6
  -3  -4  11 -3.4656 6.88384   5
   2   4 -11 59.7015 9.04096   1
   2   4 -11 69.2060 11.9894   4
   2   4 -11 63.1840 8.31661   5
   2   4 -11 66.7301 11.7017   6
  -2  -4  11 82.4840 10.5511   5
   1   4 -11 444.090 20.8706   4
   1   4 -11 461.714 20.5782   1
  -1  -4  11 473.333 22.0382   5
   0   4 -11 24.2100 8.94914   4
   0   4 -11 8.13129 5.60859   5
   0   4 -11 15.0404 7.27995   1
   0  -4  11 16.9547 7.37981   5
  -1   4 -11 51.0627 11.1056   4
  -1   4 -11 67.5428 9.72982   1
  -1   4 -11 45.1593 7.64570   5
   1  -4  11 58.7800 9.89515   5
  -2   4 -11 331.015 17.6375   1
  -2   4 -11 317.848 16.1485   5
   2  -4  11 350.203 20.2245   5
   3   3 -11 61.5993 10.3897   6
   3   3 -11 68.5073 9.12746   1
   3   3 -11 53.7654 7.98117   5
  -3  -3  11 73.5708 11.8991   2
  -3  -3  11 72.3406 10.0349   5
   2   3 -11 91.9379 10.3424   1
   2   3 -11 104.760 9.88538   5
  -2  -3  11 102.893 10.8906   2
  -2  -3  11 118.056 12.0180   5
   1   3 -11 24.9055 7.29894   4
   1   3 -11 24.9584 7.07476   1
   1   3 -11 34.6451 6.96013   5
  -1  -3  11 31.0707 7.48762   5
  -1  -3  11 24.0808 6.78083   2
   0   3 -11 28.3299 7.56476   1
   0   3 -11 19.5336 6.43031   5
   0   3 -11 31.9564 8.59570   4
   0  -3  11 40.9680 7.76883   5
  -1   3 -11 411.183 18.3375   5
  -1   3 -11 432.959 19.3821   1
   1  -3  11 408.262 20.1759   5
  -2   3 -11 -5.4771 5.92680   1
  -2   3 -11 -4.4869 5.54648   5
   2  -3  11 -1.9682 6.06429   5
  -3   3 -11 467.217 18.9496   2
  -3   3 -11 494.719 22.1264   1
  -3   3 -11 463.779 19.9129   5
   3  -3  11 518.795 23.6387   5
   4   2 -11 86.8436 10.3362   1
   4   2 -11 64.5696 9.04376   5
  -4  -2  11 101.964 10.6300   2
  -4  -2  11 68.9181 10.4307   5
   3   2 -11 23.8662 6.95051   1
   3   2 -11 21.2853 6.93667   5
  -3  -2  11 18.6227 7.25214   5
  -3  -2  11 30.9878 7.40068   2
   2   2 -11 99.4157 10.0075   5
   2   2 -11 78.6815 9.48005   1
  -2  -2  11 87.0548 9.62958   2
  -2  -2  11 97.8687 10.7345   5
   1   2 -11 55.4426 8.19651   5
   1   2 -11 70.3482 9.15581   4
   1   2 -11 48.7415 7.99236   1
  -1  -2  11 55.5819 9.17769   5
  -1  -2  11 66.6974 8.62285   2
  -1  -2  11 53.1943 7.94491   1
   0   2 -11 -3.4922 5.54206   1
   0   2 -11 1.29590 5.39730   5
   0  -2  11 -8.1633 5.63736   5
   0  -2  11 -0.4486 5.72319   2
   0  -2  11 -3.6099 5.46719   1
  -1   2 -11 253.535 14.7194   5
  -1   2 -11 250.329 13.6142   2
  -1   2 -11 242.074 14.4062   1
   1  -2  11 265.338 16.3380   5
   1  -2  11 268.838 14.5180   1
  -2   2 -11 20.2403 6.81170   1
  -2   2 -11 9.94397 6.14152   5
  -2   2 -11 10.5315 6.14588   2
   2  -2  11 -12.402 6.07337   5
   2  -2  11 19.1991 6.44017   1
  -3   2 -11 125.886 11.3624   1
  -3   2 -11 124.830 10.6548   2
  -3   2 -11 121.036 11.1931   5
   3  -2  11 109.587 11.3385   5
  -4   2 -11 293.432 16.5942   1
  -4   2 -11 254.114 15.2181   2
  -4   2 -11 261.408 16.6329   5
   4  -2  11 307.716 18.2797   5
   4   1 -11 4.04249 6.54042   5
   4   1 -11 2.85851 6.25701   1
  -4  -1  11 5.56182 5.98217   1
  -4  -1  11 7.55092 6.23370   2
  -4  -1  11 19.7115 7.61025   5
   3   1 -11 206.893 14.3650   5
   3   1 -11 215.504 14.2192   1
  -3  -1  11 252.579 15.6370   5
  -3  -1  11 235.627 14.5256   2
  -3  -1  11 223.779 14.4086   1
   2   1 -11 1.64473 5.32432   1
   2   1 -11 3.64065 5.96727   5
  -2  -1  11 1.04968 5.36552   2
  -2  -1  11 12.1490 6.12020   1
  -2  -1  11 -3.4236 5.67987   5
   1   1 -11 75.1260 9.20558   5
   1   1 -11 81.8987 9.42432   1
  -1  -1  11 91.4389 9.38500   1
  -1  -1  11 90.8787 10.1986   5
  -1  -1  11 92.4581 9.43148   2
   0   1 -11 359.764 17.2064   5
   0   1 -11 378.181 17.2025   1
   0  -1  11 356.486 16.8674   2
   0  -1  11 353.589 17.9290   5
   0  -1  11 356.210 16.4579   1
  -1   1 -11 -10.615 5.97816   2
  -1   1 -11 -1.6833 5.63217   5
  -1   1 -11 -8.4617 5.20656   1
   1  -1  11 -11.578 5.24953   2
   1  -1  11 4.53791 5.48140   1
   1  -1  11 -8.5511 5.66000   5
  -2   1 -11 103.206 10.3940   1
  -2   1 -11 106.588 10.6165   5
  -2   1 -11 124.500 10.7533   2
   2  -1  11 121.656 10.6882   1
   2  -1  11 113.862 11.2603   5
  -3   1 -11 316.255 16.8277   5
  -3   1 -11 313.833 15.9570   2
  -3   1 -11 333.864 16.9248   1
   3  -1  11 350.970 16.6986   1
   3  -1  11 297.821 17.3814   5
  -4   1 -11 7.14949 6.09185   1
  -4   1 -11 10.9080 6.95665   5
  -4   1 -11 10.1444 6.65592   2
   4  -1  11 6.61478 6.52765   5
   4  -1  11 7.14507 6.53025   1
  -5   1 -11 600.238 23.9273   1
  -5   1 -11 577.105 22.8953   2
  -5   1 -11 512.085 22.6019   5
   5  -1  11 556.473 24.0415   5
   5  -1  11 544.117 22.7598   1
   4   0 -11 37.3860 8.77872   5
  -4   0  11 37.3685 8.01748   1
  -4   0  11 31.0609 7.70171   2
  -4   0  11 46.2574 8.89161   5
   3   0 -11 9.56688 6.44282   5
  -3   0  11 -2.4147 5.54815   1
  -3   0  11 9.23017 5.73363   2
  -3   0  11 0.26772 5.63102   5
   2   0 -11 107.215 10.7298   5
   2   0 -11 96.7528 9.80695   1
  -2   0  11 123.282 10.6196   1
  -2   0  11 86.9473 8.84346   2
  -2   0  11 83.2553 9.77067   5
   1   0 -11 27.9972 7.39586   5
   1   0 -11 15.1070 5.85403   1
  -1   0  11 16.5575 6.46244   5
  -1   0  11 28.9780 6.63402   1
  -1   0  11 32.3308 6.22007   2
   0   0 -11 86.3549 9.29157   2
   0   0 -11 99.8127 9.45963   1
   0   0 -11 85.7215 9.56466   5
   0   0  11 88.8532 8.77709   2
   0   0  11 82.9383 8.97799   1
   0   0  11 84.9156 9.39641   5
  -1   0 -11 43.8486 7.52030   2
  -1   0 -11 49.3050 7.75904   5
  -1   0 -11 41.9610 7.27023   1
   1   0  11 44.0587 7.75942   5
   1   0  11 39.2915 7.07131   2
   1   0  11 51.3190 7.62120   1
  -2   0 -11 -5.8532 4.94798   1
  -2   0 -11 5.38983 6.28477   5
  -2   0 -11 2.22951 5.57625   2
   2   0  11 -1.4577 5.16222   1
   2   0  11 4.49248 5.94366   5
   2   0  11 -3.1510 5.02165   2
  -3   0 -11 244.515 14.2839   2
  -3   0 -11 231.328 14.3377   1
  -3   0 -11 255.285 15.5437   5
   3   0  11 210.748 14.3572   5
   3   0  11 221.322 13.5958   1
  -4   0 -11 8.94844 6.80394   5
  -4   0 -11 2.12169 5.85170   1
  -4   0 -11 11.3106 6.40532   2
   4   0  11 -1.0928 5.94016   5
   4   0  11 -0.3409 5.74720   1
  -5   0 -11 140.744 12.1803   2
  -5   0 -11 135.391 12.8246   5
   5   0  11 143.890 12.8819   5
   5   0  11 149.323 12.5653   1
   3  -1 -11 31.9886 7.83683   5
  -3   1  11 42.9054 7.42486   2
  -3   1  11 25.7389 7.33363   1
  -3   1  11 34.3467 7.48602   5
   2  -1 -11 47.7462 8.00336   5
  -2   1  11 33.5879 7.48324   5
  -2   1  11 46.4076 8.09798   1
  -2   1  11 53.1033 7.31277   2
   1  -1 -11 209.568 14.0567   5
  -1   1  11 214.994 13.2094   1
  -1   1  11 185.784 11.7260   2
  -1   1  11 182.061 12.6245   5
   0  -1 -11 -1.6238 4.65169   5
   0  -1 -11 -0.5665 6.19409   2
   0   1  11 -2.5474 4.76591   5
   0   1  11 5.17161 4.38755   2
   0   1  11 7.99226 4.87862   1
  -1  -1 -11 91.9012 9.64648   5
  -1  -1 -11 98.2952 10.0855   2
   1   1  11 117.141 9.79236   2
   1   1  11 110.674 10.2565   5
   1   1  11 110.619 9.64838   1
  -2  -1 -11 471.883 19.4111   2
  -2  -1 -11 443.000 19.4536   5
   2   1  11 454.503 19.1076   5
   2   1  11 432.066 18.3027   1
   2   1  11 470.166 17.5256   2
  -3  -1 -11 7.02244 5.66542   5
  -3  -1 -11 -3.0205 6.11488   2
   3   1  11 -7.7698 4.96523   5
   3   1  11 12.8090 6.25974   1
   3   1  11 -2.8979 4.60625   2
  -4  -1 -11 229.883 14.7778   2
  -4  -1 -11 181.184 14.2703   5
   4   1  11 203.546 13.4871   1
   4   1  11 206.538 13.3860   5
  -5  -1 -11 253.892 16.5827   5
  -5  -1 -11 267.880 15.7072   2
   5   1  11 252.393 15.1375   1
   5   1  11 299.756 16.1125   5
  -6  -1 -11 41.7626 8.91701   2
  -6  -1 -11 37.7822 9.36742   5
   6   1  11 36.6697 8.30805   1
   6   1  11 38.0595 8.30811   5
   3  -2 -11 241.999 16.1362   5
  -3   2  11 273.885 13.3519   2
  -3   2  11 242.881 14.7759   1
  -3   2  11 259.856 15.1910   5
   2  -2 -11 25.1322 7.52297   5
  -2   2  11 37.6629 7.28092   5
  -2   2  11 32.0729 5.86512   2
  -2   2  11 47.3982 7.77981   1
   1  -2 -11 -5.3600 5.36147   5
  -1   2  11 3.59453 5.40246   1
  -1   2  11 2.18318 5.35246   5
  -1   2  11 4.20359 4.49667   2
   0  -2 -11 177.333 12.8744   5
   0   2  11 177.631 10.7324   2
   0   2  11 159.697 11.6855   5
   0   2  11 171.591 12.0841   1
  -1  -2 -11 5.58897 5.94832   5
   1   2  11 5.35876 4.31642   2
   1   2  11 6.15549 5.15775   1
   1   2  11 4.80650 4.92418   5
  -2  -2 -11 41.0048 7.71672   5
   2   2  11 38.0770 5.83528   2
   2   2  11 39.2563 7.00949   5
   2   2  11 33.4255 6.87933   1
  -3  -2 -11 44.9234 8.42448   5
   3   2  11 55.6353 6.47841   2
   3   2  11 44.9209 7.20476   1
   3   2  11 42.0623 7.29030   5
  -4  -2 -11 31.0898 7.98537   5
   4   2  11 15.8094 6.52938   1
   4   2  11 20.1632 5.30216   2
   4   2  11 17.8306 6.22313   5
  -5  -2 -11 77.5638 10.0087   5
   5   2  11 60.9127 7.10090   2
   5   2  11 51.1434 8.46960   1
   5   2  11 67.8855 8.73121   5
  -6  -2 -11 8.72830 7.70903   5
   6   2  11 -1.1562 6.71345   1
   6   2  11 -2.1532 6.32318   5
   2  -3 -11 36.4758 8.50258   5
  -2   3  11 23.7307 6.63317   5
  -2   3  11 24.9055 4.82047   2
  -2   3  11 28.2249 6.97338   1
   1  -3 -11 64.8025 9.17992   5
  -1   3  11 53.1882 7.89365   1
  -1   3  11 68.5350 6.13244   2
  -1   3  11 54.9597 7.71649   5
   0  -3 -11 163.832 12.6649   5
   0   3  11 130.261 8.06430   2
   0   3  11 138.442 11.5298   1
   0   3  11 113.035 9.60956   5
  -1  -3 -11 161.643 12.7354   5
   1   3  11 120.248 10.2907   5
   1   3  11 157.007 8.40129   2
   1   3  11 111.185 10.3143   1
  -2  -3 -11 8.44267 6.23929   5
   2   3  11 1.10905 4.97282   5
   2   3  11 -4.5732 3.30253   2
   2   3  11 3.70616 5.65412   1
  -3  -3 -11 183.966 13.7354   5
   3   3  11 188.689 9.18580   2
   3   3  11 180.023 11.3097   5
   3   3  11 172.758 12.4384   1
  -4  -3 -11 373.007 18.6326   5
   4   3  11 379.462 17.4576   1
   4   3  11 372.566 12.9776   2
   4   3  11 366.223 15.9291   5
  -5  -3 -11 31.9439 8.23249   5
   5   3  11 16.4004 6.98068   1
   5   3  11 32.3588 6.73258   5
   5   3  11 23.7861 4.54384   2
  -6  -3 -11 499.881 22.3640   5
   6   3  11 476.416 19.0118   5
   6   3  11 459.767 20.7037   1
   6   3  11 479.327 15.7068   2
   1  -4 -11 259.770 16.1895   5
  -1   4  11 251.304 12.4911   5
  -1   4  11 248.419 14.5308   1
   0  -4 -11 41.9867 8.15339   5
   0   4  11 51.2058 6.54169   5
   0   4  11 41.3205 7.29599   1
  -1  -4 -11 29.1229 7.26338   5
   1   4  11 35.2029 6.57416   1
   1   4  11 47.1230 6.35880   5
  -2  -4 -11 251.680 14.8326   5
   2   4  11 247.270 13.6992   1
   2   4  11 217.059 11.2419   5
  -3  -4 -11 2.74101 6.02464   5
   3   4  11 4.44772 4.78245   5
   3   4  11 11.8009 6.38962   1
  -4  -4 -11 57.5499 8.74119   5
   4   4  11 45.9175 6.52054   5
   4   4  11 57.5923 8.03753   1
  -5  -4 -11 61.6617 9.81405   5
   5   4  11 50.4314 6.35579   5
   5   4  11 59.2566 8.40407   1
  -6  -4 -11 17.2318 7.88654   5
   6   4  11 10.5493 5.45797   5
   6   4  11 7.02062 6.50339   1
   0  -5 -11 3.93496 6.52163   5
   0   5  11 4.01330 5.49116   1
  -1  -5 -11 8.41921 6.59930   5
   1   5  11 9.50684 5.42903   1
  -2  -5 -11 97.2054 10.3049   5
   2   5  11 64.5664 7.79893   1
  -3  -5 -11 97.1421 10.2953   5
   3   5  11 98.3424 9.43999   1
  -4  -5 -11 9.16627 6.51445   5
   4   5  11 1.68168 5.65010   1
  -5  -5 -11 112.647 11.3210   5
   5   5  11 110.184 10.2888   1
   2   6  11 8.90560 5.82478   1
   3   6  11 4.99688 5.24123   1
   4   6  11 96.2802 9.50590   1
   1   2 -12 48.8347 8.23526   1
   1   2 -12 45.5940 8.35720   5
  -1  -2  12 51.7809 9.65760   5
  -1  -2  12 42.2127 8.63535   2
   0   2 -12 100.075 11.6232   4
   0   2 -12 125.523 11.3602   1
   0   2 -12 104.157 10.9330   5
   0  -2  12 108.866 10.7684   2
   0  -2  12 114.033 12.3544   5
  -1   2 -12 -0.7239 6.09039   1
  -1   2 -12 4.79648 6.35886   5
   1  -2  12 1.07894 6.74789   2
   1  -2  12 -5.9738 6.62973   5
  -2   2 -12 77.4971 10.0596   5
  -2   2 -12 83.6024 9.52217   2
  -2   2 -12 103.009 11.1707   1
   2  -2  12 105.167 11.6986   5
   2   1 -12 276.213 16.8349   5
   2   1 -12 314.443 16.9753   1
  -2  -1  12 252.745 16.1915   1
  -2  -1  12 275.130 17.5592   5
  -2  -1  12 323.619 17.0157   2
   1   1 -12 -6.7714 5.49630   5
   1   1 -12 -4.3667 5.54228   1
  -1  -1  12 -4.7758 5.74735   2
  -1  -1  12 2.98543 5.63958   5
  -1  -1  12 4.50882 6.29634   1
   0   1 -12 211.615 13.8991   1
   0   1 -12 177.092 13.7331   5
   0  -1  12 183.415 13.6389   1
   0  -1  12 202.017 15.1583   5
   0  -1  12 167.159 13.1785   2
  -1   1 -12 109.506 11.4140   5
  -1   1 -12 118.023 11.3146   1
  -1   1 -12 126.634 11.2079   2
   1  -1  12 118.535 10.8974   2
   1  -1  12 117.692 11.1344   1
   1  -1  12 136.768 12.7651   5
  -2   1 -12 72.7855 9.18488   2
  -2   1 -12 78.6746 9.94364   5
  -2   1 -12 83.2740 9.92871   1
   2  -1  12 65.2033 9.07332   1
   2  -1  12 71.9810 9.89507   5
   2  -1  12 68.7906 9.58668   2
  -3   1 -12 24.3718 7.97429   5
  -3   1 -12 28.0906 7.46475   2
  -3   1 -12 31.6208 7.85063   1
   3  -1  12 31.1927 8.57569   5
   3  -1  12 22.0388 7.31054   1
   2   0 -12 11.7159 7.53744   5
  -2   0  12 8.05429 6.43304   1
  -2   0  12 8.08628 6.32209   2
  -2   0  12 2.63808 6.51779   5
   1   0 -12 118.632 11.7654   5
  -1   0  12 105.798 10.4772   1
  -1   0  12 120.820 10.5366   2
  -1   0  12 100.185 10.7091   5
   0   0 -12 32.3336 8.19475   5
   0   0  12 30.1979 7.38126   5
   0   0  12 22.0550 6.91915   1
   0   0  12 31.0777 6.67750   2
  -1   0 -12 160.797 12.7562   2
  -1   0 -12 156.934 13.7588   5
   1   0  12 151.554 12.4622   2
   1   0  12 158.391 13.5317   5
   1   0  12 173.655 12.9951   1
  -2   0 -12 276.542 16.4640   5
  -2   0 -12 253.764 15.5584   2
   2   0  12 281.726 15.2537   2
   2   0  12 234.471 15.6943   5
   2   0  12 249.452 15.3975   1
  -3   0 -12 38.6148 8.29768   2
  -3   0 -12 36.5870 8.81346   5
   3   0  12 44.6173 8.39397   5
   3   0  12 28.2195 7.43004   2
   3   0  12 45.4410 8.67780   1
  -4   0 -12 63.0235 9.65580   2
  -4   0 -12 61.7314 10.0367   5
   4   0  12 57.5403 9.23745   5
   4   0  12 61.0484 9.36815   1
   1  -1 -12 418.412 20.0253   5
  -1   1  12 382.385 18.6377   1
  -1   1  12 401.854 18.8440   5
  -1   1  12 411.724 17.7087   2
   0  -1 -12 69.3915 9.52762   2
   0  -1 -12 45.7883 8.76096   5
   0   1  12 50.6096 8.21162   5
   0   1  12 59.2340 7.72247   2
   0   1  12 33.9257 7.34338   1
  -1  -1 -12 8.78961 6.88120   5
  -1  -1 -12 2.68683 6.69324   2
   1   1  12 -1.1836 5.58256   5
   1   1  12 -2.6757 5.31560   1
   1   1  12 11.8844 5.17872   2
  -2  -1 -12 109.266 11.3435   5
  -2  -1 -12 104.998 11.0364   2
   2   1  12 104.256 9.09578   2
   2   1  12 117.654 10.6668   1
   2   1  12 84.6309 9.96158   5
  -3  -1 -12 64.1684 9.97896   5
  -3  -1 -12 75.6539 9.93078   2
   3   1  12 52.0437 8.96714   1
   3   1  12 59.4673 8.02827   2
   3   1  12 61.7325 8.99636   5
  -4  -1 -12 44.4338 9.28883   5
  -4  -1 -12 44.1539 8.65489   2
   4   1  12 29.6658 7.73102   1
   4   1  12 37.8076 7.89619   5
   4   1  12 59.9114 8.01069   2
   1  -2 -12 -2.1520 5.92889   5
  -1   2  12 6.19433 4.57332   2
  -1   2  12 -4.2692 5.77768   5
  -1   2  12 -3.0956 5.70918   1
   0  -2 -12 50.1928 9.04786   5
   0   2  12 52.0214 8.17241   5
   0   2  12 65.4933 8.94800   1
   0   2  12 54.4208 7.00885   2
  -1  -2 -12 276.714 16.1686   5
   1   2  12 236.666 14.3390   5
   1   2  12 262.559 12.9051   2
  -2  -2 -12 7.50744 6.92531   5
   2   2  12 3.25829 4.59701   2
   2   2  12 10.4705 6.24478   1
   2   2  12 10.8149 6.16272   5
  -3  -2 -12 161.998 13.3288   5
   3   2  12 151.617 10.5498   2
   3   2  12 122.173 11.0087   1
   3   2  12 150.388 12.1647   5
  -4  -2 -12 321.996 18.2842   5
   4   2  12 315.927 14.2673   2
   4   2  12 303.842 16.1638   5
   4   2  12 303.460 17.0445   1
   0  -3 -12 -1.7200 6.64006   5
   0   3  12 4.08923 3.95002   2
   0   3  12 -3.8529 5.14589   1
   0   3  12 8.78389 5.67929   5
  -1  -3 -12 243.668 15.6988   5
   1   3  12 303.004 15.7234   1
   1   3  12 279.063 14.4799   5
   1   3  12 263.009 11.0759   2
  -2  -3 -12 67.6973 9.44473   5
   2   3  12 81.0001 9.44182   1
   2   3  12 100.156 7.90719   2
   2   3  12 87.2413 9.15924   5
  -3  -3 -12 6.75841 6.49075   5
   3   3  12 -5.5893 5.06784   5
   3   3  12 -0.0656 3.66770   2
   3   3  12 -3.2403 5.49804   1
  -4  -3 -12 48.4809 8.64657   5
   4   3  12 59.0896 8.15809   5
   4   3  12 61.9863 9.11095   1
   4   3  12 54.1947 5.44352   2
  -1  -4 -12 9.15612 6.59511   5
   1   4  12 3.73266 5.16935   5
   1   4  12 6.32846 6.04005   1
  -2  -4 -12 6.07408 6.90819   5
   2   4  12 4.89562 5.21465   5
   2   4  12 12.2369 6.30234   1
  -3  -4 -12 118.177 11.8465   5
   3   4  12 114.689 10.9144   1
   3   4  12 114.557 9.90898   5
   0   0   0    0.00    0.00   0

 _exptl_absorpt_process_details 'SADABS 2014/4'
 _exptl_absorpt_correction_type   multiscan
 _exptl_absorpt_correction_T_max  0.9485
 _exptl_absorpt_correction_T_min  0.8446
 _exptl_special_details
)
 The following wavelength and cell were deduced by SADABS from the
 direction cosines etc. They are given here for emergency use only:
 CELL 0.71094    8.512    8.983   10.142   86.127   83.400   71.040
)

;
_shelx_hkl_checksum              54043
_publcif_info_exptl_table_max_cols 4
_publcif_info_exptl_table_use_headnotes n
loop_
_space_group_symop_operation_xyz
'x, y, z'
'-x, -y, -z'
loop_
_atom_site_label
_atom_site_type_symbol
_atom_site_fract_x
_atom_site_fract_y
_atom_site_fract_z
_atom_site_U_iso_or_equiv
_atom_site_adp_type
_atom_site_occupancy
_atom_site_site_symmetry_order
_atom_site_calc_flag
_atom_site_refinement_flags_posn
_atom_site_refinement_flags_adp
S1 S 1.03031(5) -0.27747(5) 0.10883(4) 0.01825(12) Uani 1 1 d . .
S2 S 0.66029(5) 0.07490(5) 0.31097(4) 0.02013(12) Uani 1 1 d . .
N1 N 0.93234(17) -0.18796(17) 0.24747(13) 0.0202(3) Uani 1 1 d . .
C1 C 0.9667(2) -0.2382(2) -0.41586(16) 0.0227(4) Uani 1 1 d . .
H1 H 0.9801 -0.2577 -0.5083 0.027 Uiso 1 1 calc R U
C2 C 1.0363(2) -0.3585(2) -0.32595(16) 0.0223(4) Uani 1 1 d . .
H13 H 1.0981 -0.4608 -0.3568 0.027 Uiso 1 1 calc R U
C3 C 1.01621(19) -0.3301(2) -0.19138(16) 0.0189(3) Uani 1 1 d . .
H3 H 1.0650 -0.4133 -0.1306 0.023 Uiso 1 1 calc R U
C4 C 0.92519(18) -0.18085(19) -0.14364(15) 0.0151(3) Uani 1 1 d . .
C5 C 0.90093(18) -0.15389(18) -0.00025(15) 0.0148(3) Uani 1 1 d . .
C6 C 0.78132(18) -0.03914(18) 0.07416(15) 0.0151(3) Uani 1 1 d . .
C7 C 0.63651(19) 0.09651(19) 0.05431(16) 0.0171(3) Uani 1 1 d . .
H4 H 0.5984 0.1324 -0.0304 0.020 Uiso 1 1 calc R U
C8 C 0.56112(19) 0.16679(19) 0.16915(16) 0.0171(3) Uani 1 1 d . .
C9 C 0.40787(19) 0.3084(2) 0.18727(16) 0.0198(3) Uani 1 1 d . .
H5 H 0.3237 0.2799 0.2509 0.024 Uiso 1 1 calc R U
H6 H 0.3598 0.3379 0.1009 0.024 Uiso 1 1 calc R U
C10 C 0.43940(18) 0.45020(19) 0.23759(16) 0.0173(3) Uani 1 1 d . .
C11 C 0.3487(2) 0.5245(2) 0.35097(17) 0.0231(4) Uani 1 1 d . .
H10 H 0.2652 0.4861 0.3976 0.028 Uiso 1 1 calc R U
C12 C 0.3782(2) 0.6540(2) 0.39735(19) 0.0281(4) Uani 1 1 d . .
H9 H 0.3160 0.7029 0.4759 0.034 Uiso 1 1 calc R U
C13 C 0.4979(2) 0.7123(2) 0.32972(18) 0.0252(4) Uani 1 1 d . .
H2 H 0.5180 0.8013 0.3614 0.030 Uiso 1 1 calc R U
C14 C 0.8080(2) -0.06637(19) 0.21142(15) 0.0173(3) Uani 1 1 d . .
C15 C 0.5881(2) 0.6405(2) 0.21584(17) 0.0226(4) Uani 1 1 d . .
H8 H 0.6703 0.6804 0.1689 0.027 Uiso 1 1 calc R U
C16 C 0.55931(19) 0.5102(2) 0.16971(17) 0.0209(3) Uani 1 1 d . .
H7 H 0.6219 0.4615 0.0912 0.025 Uiso 1 1 calc R U
C17 C 0.8561(2) -0.0599(2) -0.23503(16) 0.0184(3) Uani 1 1 d . .
H11 H 0.7945 0.0428 -0.2048 0.022 Uiso 1 1 calc R U
C18 C 0.8774(2) -0.0893(2) -0.36975(16) 0.0217(4) Uani 1 1 d . .
H12 H 0.8301 -0.0063 -0.4312 0.026 Uiso 1 1 calc R U
loop_
_atom_site_aniso_label
_atom_site_aniso_U_11
_atom_site_aniso_U_22
_atom_site_aniso_U_33
_atom_site_aniso_U_23
_atom_site_aniso_U_13
_atom_site_aniso_U_12
S1 0.0207(2) 0.0143(2) 0.0198(2) 0.00078(15) -0.00555(15) -0.00485(16)
S2 0.0264(2) 0.0173(2) 0.0182(2) -0.00398(15) -0.00173(15) -0.00845(17)
N1 0.0258(7) 0.0167(7) 0.0199(7) -0.0011(5) -0.0052(5) -0.0081(6)
C1 0.0217(8) 0.0296(10) 0.0175(7) -0.0022(7) -0.0002(6) -0.0093(7)
C2 0.0201(8) 0.0201(9) 0.0239(8) -0.0058(7) 0.0011(6) -0.0027(7)
C3 0.0159(7) 0.0175(8) 0.0225(8) 0.0017(6) -0.0027(6) -0.0044(6)
C4 0.0130(7) 0.0157(8) 0.0192(7) -0.0001(6) -0.0021(6) -0.0083(6)
C5 0.0161(7) 0.0116(7) 0.0201(7) 0.0017(6) -0.0036(6) -0.0087(6)
C6 0.0176(7) 0.0126(8) 0.0188(7) -0.0010(6) -0.0013(6) -0.0100(6)
C7 0.0179(7) 0.0152(8) 0.0209(7) 0.0001(6) -0.0040(6) -0.0087(6)
C8 0.0182(7) 0.0151(8) 0.0217(8) -0.0022(6) -0.0031(6) -0.0098(6)
C9 0.0166(7) 0.0180(9) 0.0264(8) -0.0051(7) -0.0013(6) -0.0071(7)
C10 0.0145(7) 0.0136(8) 0.0236(8) -0.0011(6) -0.0046(6) -0.0032(6)
C11 0.0211(8) 0.0189(9) 0.0302(9) -0.0053(7) 0.0029(7) -0.0085(7)
C12 0.0274(9) 0.0211(9) 0.0355(10) -0.0116(8) 0.0036(7) -0.0074(7)
C13 0.0242(8) 0.0122(8) 0.0409(10) -0.0037(7) -0.0090(7) -0.0055(7)
C14 0.0225(8) 0.0142(8) 0.0193(7) -0.0012(6) -0.0025(6) -0.0115(6)
C15 0.0188(8) 0.0179(9) 0.0332(9) 0.0020(7) -0.0052(7) -0.0083(7)
C16 0.0166(7) 0.0208(9) 0.0261(8) -0.0040(7) -0.0003(6) -0.0069(7)
C17 0.0209(8) 0.0141(8) 0.0215(8) 0.0012(6) -0.0020(6) -0.0079(6)
C18 0.0237(8) 0.0211(9) 0.0205(8) 0.0050(7) -0.0039(6) -0.0081(7)
loop_
_atom_type_symbol
_atom_type_description
_atom_type_scat_dispersion_real
_atom_type_scat_dispersion_imag
_atom_type_scat_source
C C 0.0033 0.0016 'International Tables Vol C Tables 4.2.6.8 and 6.1.1.4'
H H 0.0000 0.0000 'International Tables Vol C Tables 4.2.6.8 and 6.1.1.4'
N N 0.0061 0.0033 'International Tables Vol C Tables 4.2.6.8 and 6.1.1.4'
S S 0.1246 0.1234 'International Tables Vol C Tables 4.2.6.8 and 6.1.1.4'
loop_
_geom_angle_atom_site_label_1
_geom_angle_atom_site_label_2
_geom_angle_atom_site_label_3
_geom_angle
N1 S1 C5 97.17(7)
C14 S2 C8 90.29(7)
C14 N1 S1 106.53(11)
C2 C1 C18 119.37(15)
C2 C1 H1 120.3
C18 C1 H1 120.3
C3 C2 C1 120.21(16)
C3 C2 H13 119.9
C1 C2 H13 119.9
C2 C3 C4 120.94(15)
C2 C3 H3 119.5
C4 C3 H3 119.5
C3 C4 C17 118.53(14)
C3 C4 C5 120.24(14)
C17 C4 C5 121.22(15)
C6 C5 C4 130.93(14)
C6 C5 S1 107.24(11)
C4 C5 S1 121.82(12)
C5 C6 C14 109.65(14)
C5 C6 C7 138.88(14)
C14 C6 C7 111.45(14)
C8 C7 C6 112.72(14)
C8 C7 H4 123.6
C6 C7 H4 123.6
C7 C8 C9 127.68(15)
C7 C8 S2 113.65(12)
C9 C8 S2 118.67(12)
C8 C9 C10 113.99(13)
C8 C9 H5 108.8
C10 C9 H5 108.8
C8 C9 H6 108.8
C10 C9 H6 108.8
H5 C9 H6 107.6
C11 C10 C16 118.53(16)
C11 C10 C9 120.92(14)
C16 C10 C9 120.54(14)
C10 C11 C12 120.87(16)
C10 C11 H10 119.6
C12 C11 H10 119.6
C13 C12 C11 120.19(17)
C13 C12 H9 119.9
C11 C12 H9 119.9
C15 C13 C12 119.60(17)
C15 C13 H2 120.2
C12 C13 H2 120.2
N1 C14 C6 119.39(15)
N1 C14 S2 128.73(12)
C6 C14 S2 111.87(12)
C13 C15 C16 120.26(16)
C13 C15 H8 119.9
C16 C15 H8 119.9
C15 C16 C10 120.55(16)
C15 C16 H7 119.7
C10 C16 H7 119.7
C18 C17 C4 120.15(16)
C18 C17 H11 119.9
C4 C17 H11 119.9
C17 C18 C1 120.80(16)
C17 C18 H12 119.6
C1 C18 H12 119.6
loop_
_geom_bond_atom_site_label_1
_geom_bond_atom_site_label_2
_geom_bond_distance
S1 N1 1.6590(14)
S1 C5 1.7249(15)
S2 C14 1.7436(17)
S2 C8 1.7646(16)
N1 C14 1.313(2)
C1 C2 1.384(2)
C1 C18 1.386(3)
C1 H1 0.9500
C2 C3 1.383(2)
C2 H13 0.9500
C3 C4 1.396(2)
C3 H3 0.9500
C4 C17 1.396(2)
C4 C5 1.467(2)
C5 C6 1.380(2)
C6 C14 1.425(2)
C6 C7 1.443(2)
C7 C8 1.350(2)
C7 H4 0.9500
C8 C9 1.497(2)
C9 C10 1.511(2)
C9 H5 0.9900
C9 H6 0.9900
C10 C11 1.385(2)
C10 C16 1.393(2)
C11 C12 1.386(3)
C11 H10 0.9500
C12 C13 1.381(3)
C12 H9 0.9500
C13 C15 1.380(2)
C13 H2 0.9500
C15 C16 1.388(2)
C15 H8 0.9500
C16 H7 0.9500
C17 C18 1.386(2)
C17 H11 0.9500
C18 H12 0.9500
loop_
_publcif_info_datablock.id
_publcif_info_datablock.publ_exptl
_publcif_info_datablock.publ_geom
_publcif_info_datablock.structure
{7ff4b834-f81a-4f3f-a6ca-11a3cc74fa7d} y y y
loop_
_publcif_info_exptl_table_extra_item
sin_theta_over_lambda_max
loop_
_publcif_info_tables.block_id
_publcif_info_tables.reference_item
{7ff4b834-f81a-4f3f-a6ca-11a3cc74fa7d} '_publcif_info_datablock.publ_exptl'
loop_
_publcif_info_cif.paper_type
EE
