#------------------------------------------------------------------------------
#$Date: 2019-11-11 18:29:16 +0200 (Mon, 11 Nov 2019) $
#$Revision: 226903 $
#$URL: file:///home/coder/svn-repositories/cod/cif/4/03/54/4035448.cif $
#------------------------------------------------------------------------------
#
# This file is available in the Crystallography Open Database (COD),
# http://www.crystallography.net/
#
# All data on this site have been placed in the public domain by the
# contributors.
#
data_4035448
loop_
_publ_author_name
'Zwick, 3rd, Christian R'
'Renata, Hans'
_publ_section_title
;
 Evolution of Biocatalytic and Chemocatalytic C-H Functionalization
 Strategy in the Synthesis of Manzacidin C.
;
_journal_issue                   14
_journal_name_full               'The Journal of organic chemistry'
_journal_page_first              7407
_journal_page_last               7415
_journal_paper_doi               10.1021/acs.joc.8b00248
_journal_volume                  83
_journal_year                    2018
_chemical_absolute_configuration ad
_chemical_formula_moiety         'C11 H18 N4 O4'
_chemical_formula_sum            'C11 H18 N4 O4'
_chemical_formula_weight         270.29
_space_group_crystal_system      monoclinic
_space_group_IT_number           4
_space_group_name_Hall           'P 2yb'
_space_group_name_H-M_alt        'P 1 21 1'
_atom_sites_solution_hydrogens   mixed
_audit_creation_date             2017-04-28
_audit_creation_method
;
Olex2 1.2-beta
(compiled 2017.03.28 svn.r3405 for OlexSys, GUI svn.r5335)
;
_cell_angle_alpha                90
_cell_angle_beta                 95.0010(10)
_cell_angle_gamma                90
_cell_formula_units_Z            2
_cell_length_a                   9.9065(3)
_cell_length_b                   6.0070(2)
_cell_length_c                   11.3732(3)
_cell_measurement_reflns_used    9762
_cell_measurement_temperature    100(2)
_cell_measurement_theta_max      71.79
_cell_measurement_theta_min      3.90
_cell_volume                     674.22(4)
_computing_cell_refinement       'SAINT V8.38A (Bruker, 2017)'
_computing_data_collection       'APEX3 v2016.1-0 (Bruker, 2016)'
_computing_data_reduction        'SAINT V8.38A (Bruker, 2017)'
_computing_molecular_graphics    'Olex2 (Dolomanov et al., 2009)'
_computing_publication_material  'Olex2 (Dolomanov et al., 2009)'
_computing_structure_refinement  'XL (Sheldrick, 2008)'
_computing_structure_solution    'ShelXT (Sheldrick, 2015)'
_diffrn_ambient_temperature      100.0
_diffrn_detector                 'Bruker Platinum135 CCD'
_diffrn_detector_area_resol_mean 7.9
_diffrn_detector_type            'CCD Area Detector'
_diffrn_measured_fraction_theta_full 1.000
_diffrn_measured_fraction_theta_max 0.998
_diffrn_measurement_device       'Fixed Chi Three-Circle Diffractometer'
_diffrn_measurement_device_type  'Bruker D8 Platinum135'
_diffrn_measurement_method       '\w and \f scans'
_diffrn_radiation_monochromator  'Multilayer Mirrors'
_diffrn_radiation_probe          x-ray
_diffrn_radiation_type           CuK\a
_diffrn_radiation_wavelength     1.54178
_diffrn_radiation_xray_symbol    K-L~3~
_diffrn_reflns_av_R_equivalents  0.0391
_diffrn_reflns_av_unetI/netI     0.0288
_diffrn_reflns_Laue_measured_fraction_full 1.000
_diffrn_reflns_Laue_measured_fraction_max 0.998
_diffrn_reflns_limit_h_max       12
_diffrn_reflns_limit_h_min       -12
_diffrn_reflns_limit_k_max       7
_diffrn_reflns_limit_k_min       -7
_diffrn_reflns_limit_l_max       14
_diffrn_reflns_limit_l_min       -13
_diffrn_reflns_number            11019
_diffrn_reflns_point_group_measured_fraction_full 0.999
_diffrn_reflns_point_group_measured_fraction_max 0.990
_diffrn_reflns_theta_full        67.500
_diffrn_reflns_theta_max         72.143
_diffrn_reflns_theta_min         3.901
_diffrn_source                   'Micro Focus Rotating Anode'
_diffrn_source_type              'Bruker FR-591'
_diffrn_standards_number         0
_exptl_absorpt_coefficient_mu    0.863
_exptl_absorpt_correction_T_max  0.5230
_exptl_absorpt_correction_T_min  0.4301
_exptl_absorpt_correction_type   multi-scan
_exptl_absorpt_process_details
'SADABS-2016/2 (Bruker,2016/2) was used for absorption correction. wR2(int) was 0.0880 before and 0.0550 after correction. The Ratio of minimum to maximum transmission is 0.8224. The \l/2 correction factor is Not present.'
_exptl_crystal_colour            colourless
_exptl_crystal_colour_primary    colourless
_exptl_crystal_density_diffrn    1.331
_exptl_crystal_description       block
_exptl_crystal_F_000             288
_exptl_crystal_size_max          0.44
_exptl_crystal_size_mid          0.3
_exptl_crystal_size_min          0.25
_refine_diff_density_max         0.180
_refine_diff_density_min         -0.137
_refine_diff_density_rms         0.033
_refine_ls_abs_structure_details
;
 Flack x determined using 1137 quotients [(I+)-(I-)]/[(I+)+(I-)]
 (Parsons, Flack and Wagner, Acta Cryst. B69 (2013) 249-259).
;
_refine_ls_abs_structure_Flack   0.01(6)
_refine_ls_extinction_coef       0.0045(11)
_refine_ls_extinction_expression Fc^*^=kFc[1+0.001xFc^2^\l^3^/sin(2\q)]^-1/4^
_refine_ls_extinction_method     'SHELXL-2016/6 (Sheldrick 2016)'
_refine_ls_goodness_of_fit_ref   1.048
_refine_ls_hydrogen_treatment    mixed
_refine_ls_matrix_type           full
_refine_ls_number_parameters     180
_refine_ls_number_reflns         2640
_refine_ls_number_restraints     1
_refine_ls_restrained_S_all      1.048
_refine_ls_R_factor_all          0.0266
_refine_ls_R_factor_gt           0.0260
_refine_ls_shift/su_max          0.000
_refine_ls_shift/su_mean         0.000
_refine_ls_structure_factor_coef Fsqd
_refine_ls_weighting_details
'w=1/[\s^2^(Fo^2^)+(0.0417P)^2^+0.0816P] where P=(Fo^2^+2Fc^2^)/3'
_refine_ls_weighting_scheme      calc
_refine_ls_wR_factor_gt          0.0690
_refine_ls_wR_factor_ref         0.0695
_reflns_Friedel_coverage         0.801
_reflns_Friedel_fraction_full    0.997
_reflns_Friedel_fraction_max     0.979
_reflns_number_gt                2598
_reflns_number_total             2640
_reflns_threshold_expression     'I > 2\s(I)'
_cod_data_source_file            jo8b00248_si_001.cif
_cod_data_source_block           renata04
_cod_depositor_comments
;
The following automatic conversions were performed:

data item '_diffrn_radiation_probe' value 'X-ray' was changed to
'x-ray' in accordance with the
/home/data/users/saulius/crontab/automatic-downloads/current/ACS/lib/dictionaries/cif_core.dic
dictionary named 'cif_core.dic' version 2.4.2 last updated on
2011-04-26.

Automatic conversion script
Id: cif_fix_values 6909 2019-04-08 15:41:33Z antanas 
;
_cod_database_code               4035448
_shelx_shelxl_version_number     2016/6
_shelx_space_group_comment
;
The symmetry employed for this shelxl refinement is uniquely defined
by the following loop, which should always be used as a source of
symmetry information in preference to the above space-group names.
They are only intended as comments.
;
_shelx_estimated_absorpt_t_max   0.813
_shelx_estimated_absorpt_t_min   0.703
_olex2_refinement_description
;
1. Fixed Uiso
 At 1.2 times of:
  All C(H) groups, All C(H,H) groups, All N(H) groups
 At 1.5 times of:
  All C(H,H,H) groups
2.a Ternary CH refined with riding coordinates:
 C2(H2)
2.b Secondary CH2 refined with riding coordinates:
 C3(H3A,H3B), C5(H5A,H5B)
2.c Idealised Me refined as rotating group:
 C6(H6A,H6B,H6C), C9(H9A,H9B,H9C), C10(H10A,H10B,H10C), C11(H11A,H11B,H11C)
;
_shelx_res_file
;
TITL Renata04_a.res in P2(1)
    renata04.res
    created by SHELXL-2016/6 at 14:55:31 on 28-Apr-2017
REM Old TITL Renata04 in P2(1)
REM SHELXT solution in P2(1)
REM R1 0.084, Rweak 0.030, Alpha 0.001, Orientation as input
REM Flack x = 0.175 ( 0.057 ) from Parsons' quotients
REM Formula found by SHELXT: C12 N3 O4
CELL 1.54178 9.9065 6.007 11.3732 90 95.001 90
ZERR 2 0.0003 0.0002 0.0003 0 0.001 0
LATT -1
SYMM -X,0.5+Y,-Z
SFAC C H N O
UNIT 22 36 8 8

L.S. 10
PLAN  3
SIZE 0.44 0.3 0.25
TEMP -173.15
BOND $H
LIST 4
ACTA 135
REM <olex2.extras>
REM <HklSrc "%.\\Renata04.hkl">
REM </olex2.extras>

WGHT    0.041700    0.081600
EXTI    0.004482
FVAR       1.09153
O1    4    0.304114    0.192134    0.497435    11.00000    0.01845    0.01515 =
         0.02499   -0.00168    0.00497    0.00028
O2    4    0.129243    0.292818    0.589001    11.00000    0.01552    0.01776 =
         0.02528   -0.00288    0.00622   -0.00312
O3    4    0.210591    0.618086    0.369943    11.00000    0.01376    0.02114 =
         0.02164    0.00036    0.00040   -0.00158
O4    4    0.415951    0.711005    0.306032    11.00000    0.01945    0.02600 =
         0.01520   -0.00056    0.00172   -0.01034
N1    3    0.400063    0.631320    0.495600    11.00000    0.01015    0.01842 =
         0.01828    0.00120    0.00212   -0.00310
H1    2    0.488391    0.639070    0.501654    11.00000   -1.20000
N2    3    0.210892    0.516275    0.814273    11.00000    0.01657    0.03002 =
         0.01864    0.00447    0.00079    0.00320
N3    3    0.143351    0.410415    0.880728    11.00000    0.02349    0.02288 =
         0.01666    0.00043   -0.00259    0.00090
N4    3    0.092510    0.308021    0.948627    11.00000    0.03993    0.04147 =
         0.02397    0.01015   -0.00254   -0.01115
C1    1    0.251621    0.334705    0.552654    11.00000    0.01272    0.01438 =
         0.01743    0.00318    0.00053    0.00059
C2    1    0.326085    0.550761    0.591419    11.00000    0.01277    0.01506 =
         0.01552    0.00141    0.00225   -0.00057
AFIX  13
H2    2    0.395218    0.509764    0.657196    11.00000   -1.20000
AFIX   0
C3    1    0.236620    0.731717    0.639603    11.00000    0.01779    0.01359 =
         0.01962   -0.00104    0.00251   -0.00045
AFIX  23
H3A   2    0.294192    0.837059    0.688536    11.00000   -1.20000
H3B   2    0.190470    0.815991    0.572915    11.00000   -1.20000
AFIX   0
C4    1    0.131187    0.632003    0.713456    11.00000    0.01458    0.01890 =
         0.01540    0.00095    0.00071    0.00354
C5    1    0.047992    0.465372    0.637092    11.00000    0.01239    0.02192 =
         0.01972    0.00007    0.00335    0.00222
AFIX  23
H5A   2   -0.019177    0.395023    0.684902    11.00000   -1.20000
H5B   2   -0.002506    0.545812    0.571194    11.00000   -1.20000
AFIX   0
C6    1    0.039053    0.807950    0.759846    11.00000    0.02465    0.02487 =
         0.02584   -0.00073    0.00649    0.00768
AFIX 137
H6A   2   -0.026574    0.736373    0.807329    11.00000   -1.50000
H6B   2   -0.009281    0.886275    0.693292    11.00000   -1.50000
H6C   2    0.093638    0.914591    0.808812    11.00000   -1.50000
AFIX   0
C7    1    0.332097    0.651371    0.388360    11.00000    0.01633    0.01232 =
         0.01816    0.00028    0.00288   -0.00212
C8    1    0.378387    0.648893    0.182302    11.00000    0.02266    0.02310 =
         0.01413   -0.00209    0.00140   -0.00683
C9    1    0.254128    0.775559    0.131111    11.00000    0.03689    0.02762 =
         0.02172    0.00096   -0.00463   -0.00018
AFIX 137
H9A   2    0.172856    0.711917    0.161296    11.00000   -1.50000
H9B   2    0.247002    0.763972    0.044842    11.00000   -1.50000
H9C   2    0.262373    0.932490    0.154174    11.00000   -1.50000
AFIX   0
C10   1    0.502589    0.719034    0.121611    11.00000    0.03396    0.04306 =
         0.01981   -0.00297    0.00785   -0.01756
AFIX 137
H10A  2    0.516237    0.879868    0.130919    11.00000   -1.50000
H10B  2    0.489041    0.682301    0.037454    11.00000   -1.50000
H10C  2    0.582472    0.640101    0.157377    11.00000   -1.50000
AFIX   0
C11   1    0.359926    0.397269    0.174881    11.00000    0.02403    0.02266 =
         0.02704   -0.00449    0.00592   -0.00230
AFIX 137
H11A  2    0.442720    0.323691    0.208613    11.00000   -1.50000
H11B  2    0.341504    0.353066    0.092093    11.00000   -1.50000
H11C  2    0.283683    0.353243    0.219165    11.00000   -1.50000
AFIX   0
HKLF 4




REM  Renata04_a.res in P2(1)
REM R1 =  0.0260 for    2598 Fo > 4sig(Fo)  and  0.0266 for all    2640 data
REM    180 parameters refined using      1 restraints

END

WGHT      0.0417      0.0816

REM Highest difference peak  0.180,  deepest hole -0.137,  1-sigma level  0.033
Q1    1   0.2777  0.6319  0.6174  11.00000  0.05    0.18
Q2    1   0.2858  0.4563  0.5723  11.00000  0.05    0.18
Q3    1   0.3584  0.5180  0.1735  11.00000  0.05    0.17
;
_shelx_res_checksum              98128
_shelx_hkl_file
;
   1   0   0    3.00    0.30
   1   0   0    3.30    0.40
   1   0   0    3.80    0.30
   1   0   0    3.60    0.30
  -1   0   0    3.20    0.30
   2   0   0 1236.68   53.89
  -2   0   0 1270.77   53.69
  -2   0   0 1198.98   53.89
  -2   0   0 1158.58   53.59
   2   0   0 1158.28   53.79
   2   0   0 1202.48   53.79
   2   0   0 1299.57   53.69
   3   0   0   24.10    1.70
  -3   0   0   22.20    1.60
   3   0   0   19.00    1.60
   3   0   0   18.60    1.60
   3   0   0   20.00    1.50
   4   0   0  116.19    6.30
   4   0   0  123.09    5.50
   4   0   0  109.19    6.00
  -4   0   0  123.49    6.20
   4   0   0  122.69    6.20
   5   0   0   20.70    1.90
   5   0   0   17.30    2.00
  -5   0   0   18.90    1.90
   5   0   0   16.50    1.20
   6   0   0   41.50    2.40
   6   0   0   43.00    3.30
  -6   0   0   47.80    3.40
   6   0   0   37.50    3.40
   7   0   0   13.60    1.30
  -7   0   0   13.70    1.50
  -7   0   0   13.20    2.20
   7   0   0   14.60    2.30
  -7   0   0   13.10    1.60
  -7   0   0   14.90    1.50
  -8   0   0  117.29    5.70
   8   0   0  114.09    5.90
  -8   0   0  110.19    5.70
   9   0   0   22.60    2.00
  -9   0   0   24.50    1.90
  -9   0   0   22.60    2.00
 -10   0   0    1.20    0.80
  10   0   0    0.70    0.90
 -10   0   0    0.70    0.70
 -11   0   0  521.75   23.30
 -11   0   0  518.05   23.20
  12   0   0   15.10    1.40
 -12   0   0   11.20    1.10
 -12   0   0   11.00    0.90
   0  -1   0    0.40    0.50
   0   1   0    0.10    0.10
   0   1   0    0.60    0.20
   0   1   0    0.10    0.20
   0   1   0    0.10    0.40
   1  -1   0 6496.25  264.27
   1  -1   0 5971.20  260.97
   1  -1   0 5824.92  260.57
  -1  -1   0 6201.48  261.17
  -1  -1   0 5014.40  258.17
  -1   1   0 5999.40  258.77
   1   1   0 6179.78  258.87
   1   1   0 5976.40  264.67
   1   1   0 5376.66  258.57
   1   1   0 5493.05  259.37
  -1   1   0 6300.67  258.37
  -2  -1   0  961.00   42.70
   2  -1   0 1002.00   42.50
   2  -1   0  928.61   42.40
   2  -1   0  984.50   43.10
  -2  -1   0  975.70   42.20
   2   1   0  970.90   44.00
   2   1   0  959.70   42.10
  -2   1   0  875.11   42.80
  -2   1   0  966.90   42.40
  -2   1   0  952.80   42.70
   2   1   0  936.41   42.10
   3  -1   0  273.77   14.40
   3  -1   0  329.67   14.90
   3  -1   0  334.17   15.10
  -3  -1   0  336.37   14.60
   3  -1   0  304.07   14.80
   3   1   0  327.17   15.20
  -3   1   0  316.97   14.90
   3   1   0  344.97   14.60
  -3   1   0  324.87   15.10
   3   1   0  326.17   14.60
   3   1   0  334.67   16.50
  -3   1   0  296.37   15.10
  -4  -1   0  821.42   36.30
   4  -1   0  794.52   36.50
   4  -1   0  864.91   35.90
   4  -1   0  842.72   36.70
   4   1   0  821.12   37.00
  -4   1   0  749.92   36.60
   4   1   0  865.01   38.40
   4   1   0  732.13   36.30
   5  -1   0  405.76   18.90
  -5  -1   0  379.36   18.40
   5  -1   0  368.76   18.60
   5  -1   0  407.26   17.90
  -5   1   0  404.56   18.80
   5   1   0  419.06   18.60
   5   1   0  407.56   19.20
   5   1   0  382.86   17.70
  -6  -1   0 1064.59   49.30
   6  -1   0 1153.18   48.60
   6  -1   0 1056.39   49.80
   6   1   0 1108.39   49.50
  -6   1   0 1144.89   49.90
   6   1   0 1047.50   48.40
  -7  -1   0   22.80    2.70
   7  -1   0   26.50    1.90
   7  -1   0   24.10    3.10
  -7  -1   0   24.40    1.90
  -7  -1   0   25.70    2.10
  -7  -1   0   25.60    1.80
  -7   1   0   25.70    1.90
   7   1   0   27.60    2.90
  -7   1   0   27.30    3.20
  -7   1   0   25.60    2.00
   7   1   0   29.80    1.90
  -7   1   0   22.70    1.80
   8  -1   0   36.80    2.60
  -8  -1   0   37.40    2.40
  -8  -1   0   35.60    2.40
  -8  -1   0   37.30    2.80
  -8   1   0   35.30    2.30
  -8   1   0   36.10    2.40
  -8   1   0   35.50    2.60
   8   1   0   38.00    2.50
  -9  -1   0   16.80    1.70
   9  -1   0   17.90    2.00
  -9  -1   0   18.50    1.70
  -9  -1   0   17.20    2.00
  -9   1   0   18.70    1.60
   9   1   0   21.30    1.90
  -9   1   0   19.90    1.90
  -9   1   0   20.30    2.00
 -10  -1   0  110.29    6.00
 -10  -1   0  132.09    6.00
 -10   1   0  104.99    5.90
  10   1   0  119.49    6.10
 -10   1   0  133.29    6.00
 -10   1   0  128.09    6.10
 -11  -1   0    0.80    0.60
 -11  -1   0    0.90    0.60
 -11   1   0    1.80    0.60
 -11   1   0    0.80    0.50
  12  -1   0   30.60    2.10
 -12  -1   0   34.90    1.80
 -12   1   0   31.40    1.80
   0  -2   0 3159.48  123.19
   0   2   0 2940.41  122.29
   0   2   0 2683.73  125.09
   0   2   0 2646.94  122.69
   0   2   0 2499.65  122.49
   1  -2   0 2022.70   82.89
   1  -2   0 1708.13   82.39
  -1  -2   0 1852.91   82.99
  -1   2   0 1851.31   82.39
   1   2   0 1946.01   85.59
  -1   2   0 1789.42   82.09
   1   2   0 1812.92   82.09
  -1   2   0 2069.39   82.99
   1   2   0 1838.22   82.29
   1   2   0 1800.12   82.39
   2  -2   0  139.39    8.00
  -2  -2   0  140.89    8.40
   2  -2   0  168.88    8.20
   2   2   0  163.58    7.70
  -2   2   0  176.68    8.60
  -2   2   0  161.98    7.60
   2   2   0  165.18    7.70
  -2   2   0  167.68    8.00
   2   2   0  181.98   10.90
   2   2   0  168.48    7.70
   3  -2   0   40.30    2.80
  -3  -2   0   42.20    2.30
   3  -2   0   38.90    2.80
  -3  -2   0   39.60    3.20
   3   2   0   38.10    2.30
  -3   2   0   41.40    3.20
  -3   2   0   37.50    2.30
   3   2   0   41.50    4.70
   3   2   0   41.30    2.40
  -3   2   0   44.90    2.90
   4  -2   0   35.90    2.70
   4  -2   0   41.10    3.00
   4  -2   0   31.00    2.00
  -4  -2   0   34.90    2.30
  -4   2   0   33.70    2.70
   4   2   0   34.70    3.20
   4   2   0   33.00    4.60
   4   2   0   38.50    2.40
   5  -2   0  325.47   16.50
   5  -2   0  292.27   16.60
   5  -2   0  329.67   15.60
  -5   2   0  364.06   16.80
   5   2   0  384.96   16.30
   5   2   0  365.16   17.60
   6  -2   0  152.08    7.50
   6   2   0  153.28    7.30
   6   2   0  150.08    9.50
  -6   2   0  159.28    8.90
   6   2   0  162.08    8.20
  -7  -2   0  115.29    6.10
  -7  -2   0  124.79    6.40
  -7  -2   0  121.49    6.00
  -7   2   0  121.59    6.00
   7   2   0  115.69    7.00
  -7   2   0  120.79    7.70
  -7   2   0  122.09    6.10
   7   2   0  126.09    6.00
  -8  -2   0  207.98    9.60
  -8  -2   0  200.58    9.90
  -8   2   0  202.78    9.70
  -8   2   0  195.68    9.50
   8   2   0  199.58    9.60
   9  -2   0   28.50    2.20
  -9  -2   0   28.70    2.20
  -9  -2   0   31.70    2.60
   9   2   0   31.80    2.30
  -9   2   0   28.80    2.30
  -9   2   0   29.90    2.30
  10  -2   0  242.68   11.60
 -10  -2   0  264.37   11.70
  10  -2   0  237.78   12.00
  10   2   0  254.17   12.60
 -10   2   0  259.87   11.70
 -10   2   0  260.37   11.70
 -11  -2   0   87.29    4.30
  11  -2   0   89.39    4.60
 -11   2   0   82.89    4.30
 -11   2   0   91.09    4.30
   0  -3   0    0.30    1.10
   0   3   0    0.20    0.80
   0   3   0    1.30    0.50
   0   3   0    1.00    1.70
   1  -3   0  444.06   20.90
  -1  -3   0  401.06   20.90
   1   3   0  420.86   19.30
  -1   3   0  411.06   19.50
  -1   3   0  442.26   24.10
  -1   3   0  453.25   20.80
  -1   3   0  416.76   19.80
   1   3   0  431.56   20.30
  -1   3   0  451.75   19.60
   1   3   0  460.25   24.80
   2  -3   0   22.40    2.40
  -2  -3   0   21.00    2.60
  -2   3   0   21.90    1.60
  -2   3   0   21.10    1.60
  -2   3   0   23.40    2.50
   2   3   0   19.10    1.20
   2   3   0   24.30    2.00
  -2   3   0   19.30    3.70
  -2   3   0   19.00    1.90
   3  -3   0  381.56   18.70
  -3  -3   0  392.86   19.50
  -3   3   0  389.56   18.30
   3   3   0  404.46   18.10
  -3   3   0  376.26   19.20
  -3   3   0  385.86   17.70
   3   3   0  407.46   23.60
  -3   3   0  377.06   17.60
  -3   3   0  356.76   21.30
   4  -3   0  258.27   13.50
  -4   3   0  260.37   13.30
   4   3   0  275.57   14.60
   4   3   0  281.27   13.00
   4   3   0  247.38   17.80
  -5  -3   0  231.68   11.30
   5  -3   0  236.68   11.40
  -5  -3   0  239.28   11.70
   5  -3   0  235.28   11.10
   5   3   0  255.47   14.00
  -5   3   0  235.58   11.20
  -5   3   0  243.88   12.50
   5   3   0  247.58   11.90
   6  -3   0   44.10    2.70
  -6  -3   0   46.10    2.90
  -6  -3   0   43.10    3.10
  -6  -3   0   44.80    3.40
  -6  -3   0   45.10    3.10
   6  -3   0   49.00    3.20
  -6   3   0   44.90    2.80
   6   3   0   44.50    3.40
   6   3   0   45.00    2.60
  -6   3   0   45.00    3.00
  -6   3   0   48.00    2.80
  -6   3   0   45.50    4.10
   6   3   0   45.00    5.60
  -7  -3   0  470.95   21.20
  -7  -3   0  443.76   20.60
  -7  -3   0  470.35   21.00
   7  -3   0  457.05   20.50
   7  -3   0  472.25   21.00
  -7  -3   0  423.26   20.60
  -7   3   0  461.35   20.70
   7   3   0  458.15   20.50
  -7   3   0  442.86   20.40
  -7   3   0  433.56   20.70
   8  -3   0   57.79    3.80
  -8  -3   0   55.89    3.60
   8  -3   0   55.39    3.10
  -8  -3   0   51.99    3.10
   8   3   0   53.19    3.20
  -8   3   0   54.29    3.40
  -8   3   0   53.09    3.10
  -9  -3   0  110.79    6.00
   9  -3   0  109.39    6.00
  -9  -3   0  114.09    5.50
   9  -3   0  115.19    5.60
  -9   3   0  117.79    5.60
  -9   3   0  111.99    5.70
   9   3   0  110.49    5.70
  10  -3   0   26.70    2.20
 -10  -3   0   24.70    1.60
 -10   3   0   24.50    1.70
 -10   3   0   25.00    1.90
  11  -3   0   77.49    3.90
   0  -4   0   88.79    6.30
   0   4   0   79.59    5.60
   0   4   0   74.79    4.20
   0   4   0   77.69    4.20
   0   4   0   79.49    5.60
   0   4   0   66.39    8.80
  -1  -4   0  368.06   19.30
   1  -4   0  391.66   19.10
  -1   4   0  393.46   17.10
   1   4   0  342.57   23.60
  -1   4   0  327.37   22.80
  -1   4   0  362.06   18.70
   1   4   0  388.86   16.90
   1   4   0  355.06   16.80
   1   4   0  374.16   18.30
  -1   4   0  372.76   17.00
  -1   4   0  366.96   18.70
  -2  -4   0   31.60    4.10
   2  -4   0   27.90    3.80
  -2  -4   0   24.30    2.30
  -2  -4   0   32.90    2.70
   2  -4   0   34.90    2.50
  -2   4   0   29.60    2.30
  -2   4   0   27.10    3.60
  -2   4   0   27.40    3.50
   2   4   0   26.90    3.10
  -2   4   0   32.60    2.30
   2   4   0   29.00    1.90
  -3  -4   0   45.90    3.00
   3  -4   0   49.80    3.30
  -3  -4   0   49.10    3.00
  -3  -4   0   46.40    5.10
   3  -4   0   48.70    3.20
   3  -4   0   44.10    2.70
  -3  -4   0   46.70    3.40
  -3  -4   0   44.70    2.80
   3  -4   0   46.40    4.70
  -3  -4   0   43.50    3.50
   3  -4   0   48.20    2.80
  -3  -4   0   48.50    3.20
   3   4   0   48.70    4.00
  -3   4   0   48.40    3.20
   3   4   0   47.80    2.70
  -3   4   0   52.89    3.20
  -3   4   0   45.80    2.60
  -3   4   0   41.30    2.80
  -4  -4   0  258.97   12.60
  -4  -4   0  247.28   12.20
   4  -4   0  262.27   12.40
  -4  -4   0  258.07   12.20
  -4  -4   0  265.47   12.20
  -4  -4   0  261.77   12.10
   4  -4   0  251.67   11.90
  -4   4   0  251.67   12.00
   4   4   0  256.87   13.20
   4   4   0  266.57   11.90
   4   4   0  238.38   15.00
  -4   4   0  263.77   11.70
  -5  -4   0   24.30    2.40
  -5  -4   0   20.50    2.30
   5  -4   0   23.00    2.40
   5  -4   0   19.60    1.80
  -5  -4   0   23.80    2.50
  -5  -4   0   19.00    2.00
  -5  -4   0   25.30    2.20
  -5   4   0   22.50    2.10
  -5   4   0   22.40    1.90
   5   4   0   21.70    1.70
  -5   4   0   23.10    1.50
  -6  -4   0   57.99    4.10
   6  -4   0   52.19    3.10
   6  -4   0   55.39    3.60
  -6  -4   0   57.89    3.70
  -6  -4   0   52.89    3.40
  -6  -4   0   51.99    3.60
  -6   4   0   53.99    3.40
  -6   4   0   58.09    3.30
   6   4   0   48.90    3.10
  -7  -4   0    9.00    1.80
  -7  -4   0   10.70    2.30
   7  -4   0    7.40    1.50
  -7  -4   0    9.70    1.90
  -7  -4   0    6.80    1.60
   7  -4   0    9.40    1.90
  -7   4   0    7.50    1.70
  -7   4   0    6.90    1.50
   7   4   0    7.30    1.30
   8  -4   0   27.60    2.50
  -8  -4   0   29.30    2.40
   8  -4   0   28.30    2.10
  -8   4   0   29.10    2.30
   8   4   0   27.60    2.20
  -8   4   0   22.70    2.00
   9  -4   0   41.00    2.90
   9  -4   0   37.90    2.50
  -9  -4   0   43.50    2.70
  -9   4   0   44.50    2.60
  10  -4   0    4.80    0.90
 -10   4   0    4.80    0.90
   0  -5   0   -0.40    0.70
   0  -5   0    0.20    0.90
   0  -5   0    2.20    0.90
   0  -5   0   -0.60    0.80
   0  -5   0   -0.10    1.20
   0  -5   0    0.50    0.90
   0   5   0    0.60    0.90
   0   5   0    2.10    1.00
  -1  -5   0   25.40    2.20
  -1  -5   0   26.10    2.10
  -1  -5   0   23.00    2.00
   1  -5   0   26.30    2.30
   1  -5   0   24.20    2.00
  -1  -5   0   22.70    2.30
  -1  -5   0   25.90    2.30
  -1  -5   0   25.90    2.60
   1  -5   0   24.60    2.30
   1  -5   0   25.00    2.80
   1  -5   0   24.50    2.10
   1  -5   0   23.20    2.00
  -1   5   0   26.20    2.30
  -1   5   0   20.30    2.10
  -1   5   0   23.40    1.70
   1   5   0   25.70    2.20
   1   5   0   26.60    2.20
   2  -5   0   49.80    3.10
  -2  -5   0   47.40    3.20
  -2  -5   0   48.00    3.00
  -2  -5   0   50.39    3.30
  -2  -5   0   49.20    3.20
   2  -5   0   49.00    3.00
   2  -5   0   46.90    3.10
  -2  -5   0   48.80    3.70
   2  -5   0   51.29    3.80
   2  -5   0   46.70    3.00
   2   5   0   52.29    3.20
  -2   5   0   49.10    3.40
  -2   5   0   49.50    3.40
  -2   5   0   47.30    2.80
   2   5   0   49.60    3.20
   3  -5   0  265.47   12.10
  -3  -5   0  256.87   12.70
  -3  -5   0  255.17   12.20
  -3  -5   0  259.27   12.10
  -3  -5   0  258.17   11.90
   3  -5   0  258.27   12.00
   3  -5   0  241.78   12.00
  -3  -5   0  266.07   12.40
   3  -5   0  263.57   12.60
  -3   5   0  238.68   13.30
  -3   5   0  249.78   11.70
   3   5   0  250.07   12.10
   3   5   0  261.87   12.20
   4  -5   0   22.10    2.10
  -4  -5   0   24.70    2.30
   4  -5   0   23.20    2.70
  -4  -5   0   25.10    2.20
  -4  -5   0   24.90    2.50
  -4  -5   0   28.00    2.90
   4  -5   0   23.20    2.10
   4   5   0   23.00    2.10
  -4   5   0   24.70    2.50
   4   5   0   24.10    2.10
  -4   5   0   24.10    1.70
  -4   5   0   23.70    1.90
  -5  -5   0  132.69    6.50
  -5  -5   0  126.79    6.30
  -5  -5   0  128.19    6.90
  -5  -5   0  119.09    6.50
   5  -5   0  121.49    6.20
  -5  -5   0  116.49    7.20
   5  -5   0  130.19    6.80
   5   5   0  118.89    6.30
   5   5   0  114.09    6.30
  -5   5   0  122.99    6.50
  -5   5   0  122.19    6.10
  -6  -5   0   13.40    2.00
  -6  -5   0   16.00    2.20
  -6  -5   0   14.50    1.70
   6  -5   0   13.00    2.30
   6  -5   0   16.00    1.80
  -6  -5   0   17.00    2.50
  -6  -5   0   12.60    2.00
   6   5   0   12.30    1.60
  -6   5   0   16.00    1.90
  -6   5   0   17.50    1.80
  -7  -5   0   56.29    3.30
  -7  -5   0   53.69    3.30
   7  -5   0   54.79    3.60
  -7  -5   0   47.70    3.40
   7  -5   0   59.19    3.30
  -7   5   0   57.99    3.30
  -7   5   0   57.79    3.20
   8  -5   0   37.50    2.30
   8  -5   0   40.20    2.70
  -8  -5   0   34.50    2.30
  -8   5   0   36.00    2.30
  -8   5   0   39.30    2.30
  -9   5   0    4.90    0.80
   0  -6   0   67.39    4.10
   0  -6   0   62.49    3.90
   0  -6   0   74.89    4.00
   0  -6   0   71.99    4.30
   0  -6   0   78.39    4.70
   0   6   0   71.79    4.30
   0   6   0   72.49    3.70
   0   6   0   69.19    4.30
   1  -6   0  152.78    7.50
  -1  -6   0  152.88    7.80
   1  -6   0  159.38    8.10
  -1  -6   0  156.38    8.10
   1  -6   0  156.78    7.50
  -1  -6   0  160.58    7.50
   1  -6   0  141.89    7.60
  -1  -6   0  137.09    7.50
  -1  -6   0  156.18    7.60
   1  -6   0  158.28    7.70
  -1   6   0  143.79    7.90
  -1   6   0  156.48    7.30
  -1   6   0  163.18    7.80
   1   6   0  146.69    7.80
   1   6   0  145.89    7.20
   1   6   0  154.18    7.90
   2  -6   0   18.50    2.00
  -2  -6   0   12.80    1.90
  -2  -6   0   15.20    1.70
  -2  -6   0   13.30    2.50
  -2  -6   0   11.00    1.90
   2  -6   0   15.80    1.70
   2  -6   0   15.10    2.40
   2  -6   0   14.00    1.70
   2  -6   0   12.40    1.90
  -2  -6   0    9.70    1.60
   2   6   0   14.60    1.80
   2   6   0    9.80    1.70
  -2   6   0   11.00    1.20
  -2   6   0   13.40    1.90
  -2   6   0   12.90    2.00
  -3  -6   0   56.79    3.30
  -3  -6   0   57.09    3.50
   3  -6   0   60.49    3.30
  -3  -6   0   52.69    3.50
  -3  -6   0   60.59    4.00
   3  -6   0   59.49    4.10
  -3  -6   0   48.50    3.30
   3  -6   0   61.69    3.50
   3   6   0   53.79    3.50
  -3   6   0   57.09    3.00
  -3   6   0   59.79    3.60
   3   6   0   54.69    3.50
   4  -6   0   36.50    3.10
   4  -6   0   36.50    2.50
  -4  -6   0   36.50    3.20
  -4  -6   0   39.00    2.50
  -4  -6   0   35.70    2.80
  -4  -6   0   36.30    2.80
  -4   6   0   35.80    2.00
  -4   6   0   33.40    2.50
   4   6   0   36.90    2.60
  -5  -6   0   12.10    1.80
   5  -6   0   12.70    1.60
   5  -6   0   11.70    2.00
  -5  -6   0   10.30    2.00
  -5  -6   0    8.90    1.50
  -5  -6   0   11.00    1.50
  -5   6   0   13.00    1.50
   5   6   0    8.50    1.50
  -6  -6   0   15.80    1.70
  -6  -6   0   17.50    1.50
   6  -6   0   19.90    2.00
  -6  -6   0   19.70    1.70
   6  -6   0   20.10    1.70
  -6   6   0   24.70    1.80
   0  -7   0    0.70    0.80
   0  -7   0   -0.10    0.60
   0  -7   0   -0.40    0.90
   0  -7   0   -1.70    0.80
   0   7   0    0.10    0.40
  -1  -7   0   47.50    2.80
   1  -7   0   47.90    2.70
   1  -7   0   40.80    3.00
  -1  -7   0   51.49    2.70
   1  -7   0   48.10    2.60
  -1  -7   0   50.79    2.80
  -1  -7   0   48.10    3.00
   1  -7   0   50.19    2.80
   1   7   0   50.99    2.50
  -1   7   0   44.70    2.70
  -1   7   0   51.59    2.50
  -2  -7   0   36.20    2.80
  -2  -7   0   46.10    2.60
   2  -7   0   45.70    2.50
  -2  -7   0   46.30    2.40
  -2  -7   0   44.40    2.60
   2  -7   0   37.10    2.70
  -2   7   0   44.90    2.20
   2   7   0   41.80    2.20
  -2   7   0   41.90    2.40
  -3  -7   0   25.20    1.80
   3  -7   0   25.40    1.70
  -3  -7   0   23.80    1.70
  -3  -7   0   25.90    1.60
  -3   7   0   23.60    1.70
   3   7   0   23.00    1.40
  -3   7   0   23.10    1.50
  -4  -7   0    3.70    0.80
  -4   7   0    6.00    1.00
 -12   0   1   36.30    2.10
 -12   0   1   36.30    2.00
 -11   0   1  163.58    7.70
 -11   0   1  166.68    7.80
  10   0  -1  103.89    5.80
 -10   0   1  118.39    5.60
 -10   0   1  113.69    5.60
   9   0  -1  255.17   12.30
  -9   0   1  256.97   12.10
  -9   0   1  264.07   12.10
  -8   0   1   24.80    1.90
  -8   0   1   26.90    3.40
   8   0  -1   23.70    2.00
  -8   0   1   21.60    1.80
  -8   0   1   21.20    2.10
  -7   0   1  220.98   11.30
  -7   0   1  215.48   10.10
   7   0  -1  220.88   11.60
   7   0  -1  208.28   10.10
  -7   0   1  219.38   10.60
   7   0  -1  205.78   11.60
  -7   0   1  205.48   10.00
   6   0  -1  193.58   10.60
   6   0  -1  196.78    9.10
   6   0  -1  193.08   10.20
  -6   0   1  191.98   10.10
  -5   0   1   71.39    4.30
   5   0  -1   70.59    3.70
   5   0  -1   71.69    4.70
   5   0  -1   78.19    4.70
   4   0  -1  149.49    7.30
   4   0  -1  138.49    7.40
   4   0  -1  130.79    7.60
   4   0  -1  131.89    6.50
  -4   0   1  148.29    7.10
   3   0  -1 1082.49   44.70
  -3   0   1 1035.40   44.30
   3   0  -1 1086.19   44.50
   3   0  -1 1033.70   45.20
  -3   0   1  870.11   44.20
  -3   0   1  872.41   45.30
   2   0  -1 1716.33   73.29
   2   0  -1 1676.13   73.09
  -2   0   1 1690.63   72.99
  -2   0   1 1577.84   73.99
  -2   0   1 1550.04   73.09
   2   0  -1 1740.53   73.89
   1   0  -1    1.50    0.50
  -1   0   1    1.80    0.30
  -1   0   1    2.00    0.60
   1   0  -1    2.00    0.40
   0   0   1 2455.85  107.19
   0   0  -1 2459.45  106.89
   0   0   1 2352.96  108.09
   0   0   1 2412.46  106.79
   0   0  -1 2324.97  106.49
   0   0  -1 2464.95  107.09
   0   0  -1 2507.15  108.29
   1   0   1  233.38   11.60
  -1   0  -1  266.17   11.60
  -1   0  -1  253.97   11.40
   1   0   1  251.67   11.30
   1   0   1  267.87   11.50
  -1   0  -1  241.78   11.40
   1   0   1  268.67   11.40
  -2   0  -1 9672.43  413.86
   2   0   1 8989.60  412.56
   2   0   1 8868.91  413.16
   2   0   1 9999.00  414.06
   3   0   1  539.65   23.30
  -3   0  -1  526.85   23.40
   3   0   1  516.95   23.20
   3   0   1  484.75   23.40
  -4   0  -1  155.48    7.70
   4   0   1  162.68    7.70
   4   0   1  136.99    7.50
   4   0   1  156.58    7.00
   5   0   1   16.50    1.70
   5   0   1   17.60    1.20
  -5   0  -1   15.80    1.80
   5   0   1   15.00    1.80
  -6   0  -1   95.89    5.70
   6   0   1   94.89    5.60
   6   0   1   95.39    4.70
   7   0   1   19.50    1.60
  -7   0  -1   21.40    1.70
  -7   0  -1   19.80    1.90
  -7   0  -1   18.40    2.50
  -7   0  -1   16.00    1.90
  -7   0  -1   21.90    1.60
   7   0   1   20.10    2.60
  -8   0  -1   95.79    4.80
   8   0   1   93.19    4.90
  -8   0  -1   89.29    4.80
  -8   0  -1   92.39    4.80
  -9   0  -1   10.90    1.50
  -9   0  -1   13.70    1.90
  -9   0  -1   12.00    1.50
   9   0   1   13.90    1.50
 -10   0  -1   37.20    2.40
  10   0   1   37.30    2.50
 -10   0  -1   35.30    2.40
 -11   0  -1  252.67   11.40
 -11   0  -1  246.88   11.40
 -12   0  -1   47.10    2.50
 -12   0  -1   44.50    2.40
  12  -1  -1    7.50    1.10
 -12  -1   1    7.90    0.80
 -12   1   1    8.70    1.00
  11  -1  -1   25.70    1.90
 -11  -1   1   29.60    1.90
 -11  -1   1   25.30    1.80
 -11   1   1   29.80    1.90
 -11   1   1   28.70    1.80
 -10  -1   1  114.09    6.00
 -10  -1   1  126.59    5.90
 -10   1   1  112.69    6.00
  10   1  -1  120.39    6.20
 -10   1   1  130.79    6.00
   9  -1  -1   70.39    4.20
  -9  -1   1   75.79    3.90
  -9  -1   1   73.89    4.30
  -9  -1   1   72.09    4.00
  -9   1   1   74.69    4.00
  -9   1   1   68.49    3.80
  -9   1   1   64.49    4.00
   9   1  -1   71.79    4.20
  -8  -1   1   26.80    2.00
  -8  -1   1   25.70    2.00
  -8  -1   1   25.70    2.40
   8  -1  -1   30.70    2.20
  -8   1   1   24.80    2.00
  -8   1   1   24.70    2.00
  -8   1   1   28.60    2.20
   8   1  -1   25.50    2.10
  -7  -1   1   43.10    2.60
   7  -1  -1   43.20    4.20
  -7  -1   1   43.20    2.70
  -7  -1   1   49.90    5.60
   7  -1  -1   46.30    2.70
  -7  -1   1   40.50    2.90
   7   1  -1   44.60    2.70
   7   1  -1   43.70    3.90
  -7   1   1   43.30    2.60
  -7   1   1   37.90    2.70
  -7   1   1   39.70    2.60
   7   1  -1   43.70    4.60
  -7   1   1   43.30    4.00
   6  -1  -1  104.19    6.70
   6  -1  -1  112.49    6.80
   6  -1  -1  121.29    5.70
  -6  -1   1  113.19    6.30
  -6   1   1  113.19    6.80
   6   1  -1  121.19    6.80
   6   1  -1  120.09    5.70
   6   1  -1  111.79    7.30
  -5  -1   1  254.27   12.40
   5  -1  -1  263.07   12.90
   5  -1  -1  267.77   11.90
   5  -1  -1  264.57   12.90
   5   1  -1  242.58   15.50
   5   1  -1  247.18   11.80
  -5   1   1  262.27   12.90
   5   1  -1  260.27   12.70
   5   1  -1  276.67   13.50
   4  -1  -1  531.15   23.60
   4  -1  -1  519.25   24.80
   4  -1  -1  559.14   24.50
   4  -1  -1  538.95   24.40
  -4  -1   1  532.65   23.90
   4   1  -1  531.75   24.30
   4   1  -1  574.04   24.90
   4   1  -1  537.95   26.20
   4   1  -1  507.65   23.40
  -4   1   1  461.55   24.20
   3  -1  -1  363.06   17.00
  -3  -1   1  342.97   15.80
   3  -1  -1  345.07   16.30
   3  -1  -1  361.26   16.30
   3   1  -1  365.26   18.10
   3   1  -1  323.47   16.10
  -3   1   1  328.97   16.20
   3   1  -1  340.27   16.10
   3   1  -1  365.96   16.70
  -3   1   1  371.06   16.60
  -2  -1   1   49.30    2.60
   2  -1  -1   56.69    3.10
   2  -1  -1   56.09    3.70
   2  -1  -1   55.49    3.10
   2   1  -1   55.79    4.30
  -2   1   1   56.19    3.30
  -2   1   1   57.19    3.10
   2   1  -1   56.79    3.00
   2   1  -1   52.69    2.90
   2   1  -1   54.69    3.30
  -1  -1   1  751.62   33.20
   1  -1  -1  744.33   33.00
   1  -1  -1  726.03   32.90
   1  -1  -1  788.62   34.10
   1   1  -1  735.63   32.90
  -1   1   1  648.84   33.80
  -1   1   1  787.62   33.00
   1   1  -1  790.22   33.00
   1   1  -1  673.33   34.30
  -1   1   1  763.82   33.10
   0  -1   1 1041.30   52.39
   0  -1  -1 1295.57   51.49
   0  -1  -1 1159.18   52.49
   0  -1   1 1085.09   51.39
   0  -1   1 1197.48   51.39
   0   1  -1 1264.87   51.49
   0   1   1 1182.88   51.09
   0   1  -1 1229.78   51.49
   0   1   1 1092.09   52.39
   0   1   1 1294.77   51.29
   0   1  -1 1108.29   50.99
   0   1   1 1172.48   51.29
   0   1  -1  986.80   51.39
   0   1  -1 1176.08   52.69
  -1  -1  -1 2577.24  112.99
   1  -1   1 2444.76  111.59
   1  -1   1 2655.83  111.79
  -1  -1  -1 2449.45  111.79
  -1  -1  -1 2705.73  111.59
  -1   1  -1 2602.64  111.89
  -1   1  -1 2315.67  111.49
  -1   1  -1 2588.44  111.89
  -1   1  -1 2649.93  112.69
  -1   1  -1 2430.96  112.49
  -2  -1  -1  328.87   15.40
   2  -1   1  376.56   15.70
   2  -1   1  336.67   15.30
  -2  -1  -1  345.77   15.70
  -2   1  -1  334.07   15.80
  -2   1  -1  360.06   16.00
  -2   1  -1  342.17   15.50
  -2   1  -1  321.07   15.70
  -2   1  -1  317.07   15.80
   3  -1   1 1691.53   77.79
  -3  -1  -1 1856.21   77.99
   3  -1   1 1689.73   77.49
   3  -1   1 1858.81   78.19
   3   1   1 1905.61   77.59
   3   1   1 1709.03   78.29
   3   1   1 1841.82   79.69
  -3   1  -1 1628.54   78.29
  -3   1  -1 1785.82   78.09
  -3   1  -1 1633.44   78.29
   3   1   1 1826.02   77.59
  -4  -1  -1   38.30    2.50
   4  -1   1   36.10    2.40
   4  -1   1   36.20    2.00
   4  -1   1   44.10    2.80
   4   1   1   35.20    2.40
  -4   1  -1   33.80    2.60
   4   1   1   42.00    2.30
   4   1   1   35.20    3.40
   4   1   1   38.20    2.80
   5  -1   1   35.50    2.80
   5  -1   1   33.30    2.00
  -5  -1  -1   36.80    2.70
   5   1   1   37.10    2.50
  -5   1  -1   35.40    2.90
   5   1   1   32.30    1.80
   5   1   1   36.50    3.10
   6  -1   1  485.15   21.50
  -6  -1  -1  478.75   22.40
   6  -1   1  464.75   22.80
  -6   1  -1  466.05   22.70
   6   1   1  498.15   22.30
   6   1   1  470.35   21.30
  -7  -1  -1   30.40    3.30
   7  -1   1   31.70    3.50
  -7  -1  -1   33.80    2.20
  -7  -1  -1   34.50    2.20
   7  -1   1   39.20    2.40
  -7  -1  -1   34.20    2.50
  -7   1  -1   38.40    3.70
  -7   1  -1   35.70    2.30
  -7   1  -1   34.00    2.20
   7   1   1   36.00    2.20
   7   1   1   35.80    3.10
  -7   1  -1   34.20    2.20
  -8  -1  -1   87.19    5.10
   8  -1   1   98.29    5.00
  -8  -1  -1   91.99    4.70
  -8  -1  -1   97.19    4.90
  -8   1  -1   94.29    4.90
  -8   1  -1   89.29    4.90
  -8   1  -1   91.59    4.80
   8   1   1   93.99    4.90
  -9  -1  -1   23.30    1.90
  -9  -1  -1   23.80    1.90
   9  -1   1   22.80    2.10
  -9   1  -1   23.40    1.90
   9   1   1   23.70    2.00
  -9   1  -1   22.60    2.00
  -9   1  -1   25.60    2.10
 -10  -1  -1   14.50    1.50
  10  -1   1   10.60    2.10
 -10  -1  -1   12.70    1.30
 -10   1  -1   15.90    1.40
 -10   1  -1   11.40    1.50
 -10   1  -1   14.40    1.80
  10   1   1   14.50    1.50
 -11  -1  -1   64.19    3.40
 -11  -1  -1   63.49    3.30
  11  -1   1   67.29    3.80
 -11   1  -1   68.19    3.40
 -11   1  -1   63.19    3.30
 -11  -2   1   46.30    2.40
  11  -2  -1   41.80    2.40
  11  -2  -1   46.30    2.80
 -11   2   1   36.30    2.50
 -11   2   1   45.80    2.40
  10  -2  -1   26.60    2.40
 -10  -2   1   25.50    1.90
  10  -2  -1   23.30    2.00
  10   2  -1   23.30    2.60
 -10   2   1   23.60    1.90
 -10   2   1   24.50    2.00
   9  -2  -1  190.48    9.00
  -9  -2   1  203.28    9.10
  -9  -2   1  176.38    9.40
  -9   2   1  186.48    9.10
   9   2  -1  193.68    9.30
  -9   2   1  191.08    9.10
  -8  -2   1  122.59    6.70
  -8  -2   1  128.89    6.40
  -8   2   1  128.59    6.30
   8   2  -1  127.49    6.50
  -8   2   1  124.59    6.40
  -7  -2   1   62.49    3.70
  -7  -2   1   67.29    4.10
  -7  -2   1   61.59    3.90
  -7  -2   1   65.59    3.60
  -7   2   1   60.09    3.50
  -7   2   1   63.69    3.60
   7   2  -1   66.59    3.60
  -7   2   1   64.89    5.20
   7   2  -1   60.29    5.90
   7   2  -1   64.29    4.90
  -6  -2   1   58.79    3.60
  -6  -2   1   47.90    4.90
   6  -2  -1   56.29    4.40
  -6   2   1   51.69    4.30
   6   2  -1   56.49    3.10
   6   2  -1   58.39    4.10
   6   2  -1   57.79    5.30
  -5   2   1   24.20    2.70
   5   2  -1   24.60    2.40
   5   2  -1   23.40    1.50
   5   2  -1   24.70    3.10
   5   2  -1   26.00    4.50
   4  -2  -1   90.89    5.30
   4  -2  -1   87.19    5.50
   4   2  -1   91.49    7.90
   4   2  -1   95.29    6.00
  -4   2   1   72.89    5.70
   4   2  -1   86.69    4.20
   4   2  -1   95.39    5.20
  -4   2   1   95.09    5.40
   3  -2  -1   89.79    5.00
   3  -2  -1   79.99    4.90
   3  -2  -1   82.99    6.30
  -3   2   1   89.09    5.30
   3   2  -1   90.79    4.80
  -3   2   1   83.79    4.30
   3   2  -1  101.49    7.70
   3   2  -1   76.59    4.00
   3   2  -1   78.89    5.30
  -3   2   1   97.29    5.00
   2  -2  -1  416.86   18.70
   2  -2  -1  434.76   20.70
  -2  -2   1  358.16   18.90
  -2   2   1  397.96   18.00
  -2   2   1  417.46   18.50
   2   2  -1  341.47   18.30
   2   2  -1  365.16   18.20
   2   2  -1  449.26   21.90
  -2   2   1  423.36   19.00
  -1  -2   1  787.12   35.10
   1  -2  -1  787.12   34.90
   1  -2  -1  825.82   37.10
   1   2  -1  699.93   34.50
  -1   2   1  801.82   34.50
  -1   2   1  777.82   34.80
  -1   2   1  763.62   34.10
   1   2  -1  699.43   34.60
   1   2  -1  798.12   37.60
   0  -2  -1 1873.81   80.59
   0  -2  -1 1873.01   82.79
   0  -2   1 1937.91   80.49
   0   2  -1 1900.51   80.39
   0   2   1 1728.43   80.09
   0   2  -1 1710.33   79.59
   0   2  -1 1911.41   82.99
   0   2  -1 1731.93   79.59
   0   2   1 1706.73   79.89
   0   2   1 1651.03   79.89
   0   2  -1 1919.61   80.39
   1  -2   1  177.98    8.90
  -1  -2  -1  173.38    9.10
  -1  -2  -1  182.48   11.10
  -1   2  -1  178.68    8.30
   1   2   1  179.58    8.30
  -1   2  -1  185.08   10.80
  -1   2  -1  182.88    9.10
   1   2   1  184.18    8.50
  -1   2  -1  179.08    8.50
  -1   2  -1  189.48    9.20
   2  -2   1 1327.87   63.49
   2  -2   1 1412.56   63.49
  -2  -2  -1 1431.56   63.99
   2   2   1 1457.55   62.79
  -2   2  -1 1448.66   65.49
   2   2   1 1498.75   62.79
  -2   2  -1 1472.55   63.99
  -2   2  -1 1277.97   62.89
  -2   2  -1 1443.06   63.29
  -2   2  -1 1461.95   63.99
   2   2   1 1490.15   66.69
   3  -2   1  294.07   14.60
  -3  -2  -1  319.27   15.90
   3  -2   1  319.17   15.30
  -3  -2  -1  318.07   15.00
   3  -2   1  310.57   15.50
  -3   2  -1  328.67   16.70
   3   2   1  357.66   18.70
  -3   2  -1  321.57   15.90
  -3   2  -1  331.77   15.90
  -3   2  -1  353.46   15.40
  -4  -2  -1  546.75   23.40
   4  -2   1  478.55   23.40
   4  -2   1  479.55   22.80
   4  -2   1  502.65   23.90
  -4   2  -1  564.44   23.80
   4   2   1  505.65   26.90
   4   2   1  546.65   22.90
   4   2   1  463.55   22.90
   5  -2   1   55.19    3.00
  -5  -2  -1   46.70    3.40
   5  -2   1   53.29    4.10
   5   2   1   54.89    3.20
   5   2   1   58.29    4.50
  -5   2  -1   55.69    4.00
  -6  -2  -1  135.69    7.30
  -6  -2  -1  158.58    7.90
   6  -2   1  145.59    7.10
   6   2   1  147.59    7.50
  -6   2  -1  137.69    7.00
  -6   2  -1  146.39    8.40
  -7  -2  -1  145.69    7.10
  -7  -2  -1  146.59    7.30
   7  -2   1  134.29    6.80
  -7  -2  -1  154.28    7.00
   7  -2   1  151.48    7.20
   7   2   1  147.19    6.90
  -7   2  -1  142.69    6.90
  -7   2  -1  125.49    8.40
  -7   2  -1  152.08    7.10
   7   2   1  132.89    9.10
  -8  -2  -1   31.60    2.20
  -8  -2  -1   37.10    2.80
   8  -2   1   30.80    2.30
  -8  -2  -1   37.50    2.40
  -8   2  -1   33.00    2.40
  -8   2  -1   35.80    2.60
   8   2   1   35.10    2.30
  -9  -2  -1   12.20    1.50
  -9  -2  -1    9.20    1.40
   9  -2   1   17.20    2.20
  -9  -2  -1   12.80    1.90
  -9   2  -1   13.70    1.70
   9   2   1   12.00    1.40
  -9   2  -1   14.30    1.60
  10  -2   1   70.39    4.10
 -10  -2  -1   73.99    3.70
 -10   2  -1   68.79    3.70
 -10   2  -1   68.59    3.80
 -11  -2  -1   37.30    2.00
  11  -2   1   37.30    2.40
 -11   2  -1   38.80    2.10
 -11   2  -1   32.50    2.10
  11  -3  -1   18.00    1.50
 -11   3   1   16.50    1.20
 -10  -3   1   71.39    3.80
  10  -3  -1   64.39    3.70
 -10  -3   1   62.39    3.30
  10  -3  -1   65.19    3.40
 -10   3   1   64.39    3.50
 -10   3   1   66.49    3.40
   9  -3  -1   21.90    1.90
  -9  -3   1   19.00    2.10
   9  -3  -1   23.10    2.40
  -9  -3   1   22.30    1.70
  -9   3   1   20.80    1.90
   9   3  -1   23.50    2.00
  -9   3   1   21.70    1.80
  -8  -3   1  119.49    6.10
   8  -3  -1  125.79    6.20
  -8  -3   1  125.39    6.60
   8  -3  -1  128.89    6.60
  -8   3   1  119.19    6.10
   8   3  -1  124.69    6.30
  -8   3   1  120.99    6.30
  -7  -3   1  453.55   20.80
  -7  -3   1  451.35   20.40
   7  -3  -1  458.25   20.70
   7  -3  -1  438.96   20.20
  -7  -3   1  451.15   21.00
  -7  -3   1  435.46   20.50
  -7   3   1  448.26   20.40
  -7   3   1  435.56   20.20
   7   3  -1  455.55   20.40
  -6  -3   1   78.39    4.80
   6  -3  -1   78.39    4.50
  -6  -3   1   76.69    4.30
   6  -3  -1   74.79    4.10
  -6  -3   1   77.29    4.40
  -6  -3   1   78.79    4.60
  -6   3   1   72.59    5.70
  -6   3   1   74.69    4.30
  -6   3   1   76.89    4.10
   6   3  -1   77.29    5.30
   6   3  -1   79.19    7.10
  -6   3   1   81.49    4.30
   6   3  -1   84.39    4.20
   5  -3  -1  344.37   17.40
  -5  -3   1  339.67   16.20
   5  -3  -1  288.97   15.90
   5  -3  -1  335.87   15.60
  -5  -3   1  329.57   15.90
  -5  -3   1  343.07   15.80
  -5  -3   1  346.77   16.10
  -5   3   1  345.17   15.80
  -5   3   1  373.76   15.60
   5   3  -1  341.17   18.40
   5   3  -1  369.96   15.70
  -5   3   1  367.76   17.40
   5   3  -1  357.76   16.90
   4  -3  -1  376.26   19.00
   4   3  -1  351.06   23.30
  -4   3   1  389.36   18.80
   4   3  -1  380.36   17.40
   4   3  -1  404.66   20.20
   4   3  -1  424.56   18.80
   3  -3  -1   67.79    4.70
  -3   3   1   67.69    3.70
   3   3  -1   64.49    3.30
   3   3  -1   66.09    7.80
  -3   3   1   68.09    5.00
   3   3  -1   69.79    4.40
  -3   3   1   67.19    4.30
  -3   3   1   64.79    3.70
   2  -3  -1   89.29    5.50
  -2  -3   1   84.29    5.90
   2   3  -1   86.49    8.60
  -2   3   1   84.09    4.40
   2   3  -1   83.79    4.10
   2   3  -1   89.49    5.20
  -2   3   1   82.49    4.90
  -2   3   1   85.29    5.50
  -2   3   1   78.99    4.30
   1  -3  -1 1363.86   59.99
  -1  -3   1 1341.77   60.19
  -1   3   1 1366.26   59.79
  -1   3   1 1277.07   58.99
   1   3  -1 1380.56   59.59
   1   3  -1 1244.68   58.39
  -1   3   1 1231.28   58.49
  -1   3   1 1326.47   58.49
   1   3  -1 1399.76   64.39
   0  -3  -1  814.22   38.60
   0  -3   1  878.31   38.60
   0   3  -1  856.91   37.10
   0   3  -1  841.02   38.30
   0   3   1  783.72   37.40
   0   3  -1  776.22   37.10
   0   3   1  811.32   37.00
   0   3  -1  889.71   42.40
   0   3  -1  851.41   38.30
   0   3   1  857.51   38.00
  -1  -3  -1  568.14   27.30
   1  -3   1  597.24   27.00
   1   3   1  536.25   25.30
  -1   3  -1  556.64   25.70
  -1   3  -1  577.44   30.30
   1   3   1  524.95   25.90
  -1   3  -1  604.64   25.80
  -1   3  -1  575.14   27.00
  -1   3  -1  587.24   27.00
   1   3   1  596.54   31.00
   1   3   1  585.64   26.30
  -2  -3  -1    5.20    1.90
   2  -3   1    2.70    1.30
   2   3   1    3.60    2.60
  -2   3  -1    6.40    2.80
   2   3   1    3.10    0.90
  -2   3  -1    3.30    0.80
  -2   3  -1    2.50    0.70
  -2   3  -1    6.10    1.20
  -2   3  -1    3.10    1.50
  -2   3  -1    4.60    1.70
   3  -3   1  302.47   14.90
  -3  -3  -1  298.77   15.70
   3   3   1  311.47   19.60
  -3   3  -1  305.37   13.90
  -3   3  -1  294.07   13.90
   3   3   1  322.17   14.10
  -3   3  -1  289.47   15.50
  -3   3  -1  285.27   15.40
  -3   3  -1  318.77   14.50
  -3   3  -1  272.77   18.50
   4   3   1  506.75   31.00
   4   3   1  605.74   25.40
  -4   3  -1  556.24   26.00
   5  -3   1  469.55   20.80
  -5  -3  -1  445.36   20.90
  -5  -3  -1  440.56   20.70
   5  -3   1  457.55   20.50
  -5  -3  -1  435.26   20.50
   5   3   1  473.75   20.80
  -5   3  -1  459.35   21.90
  -5   3  -1  429.36   20.50
  -5   3  -1  447.56   20.70
   5   3   1  480.75   23.30
   6  -3   1   36.00    2.80
  -6  -3  -1   36.30    2.90
   6  -3   1   34.50    2.20
  -6  -3  -1   33.50    2.60
  -6  -3  -1   37.60    2.80
  -6   3  -1   35.30    3.90
   6   3   1   33.80    2.60
  -6   3  -1   37.10    2.50
  -6   3  -1   37.30    2.60
  -7  -3  -1   32.80    2.50
  -7  -3  -1   34.00    2.60
   7  -3   1   33.00    2.70
   7  -3   1   29.20    2.20
  -7  -3  -1   31.50    2.10
  -7   3  -1   30.40    2.50
  -7   3  -1   31.40    2.20
   7   3   1   30.50    2.10
  -7   3  -1   30.40    2.40
   8  -3   1  101.99    5.70
  -8  -3  -1  112.19    5.80
   8  -3   1  101.79    5.20
  -8  -3  -1  109.39    5.20
   8   3   1   99.59    5.20
  -8   3  -1  105.99    5.20
  -8   3  -1  100.09    5.40
  -9  -3  -1   59.89    3.50
  -9  -3  -1   55.99    3.00
   9  -3   1   49.70    3.50
   9   3   1   46.90    3.00
  -9   3  -1   50.59    3.20
  -9   3  -1   57.09    3.00
  10  -3   1   43.40    2.80
 -10  -3  -1   39.90    2.30
 -10   3  -1   43.10    2.30
 -10   3  -1   43.30    2.50
  11  -3   1    4.20    0.90
  10  -4  -1   17.20    1.60
 -10   4   1   18.60    1.30
  -9  -4   1    3.90    1.10
   9  -4  -1    3.80    0.90
   9  -4  -1    1.90    0.90
  -9   4   1    4.30    1.00
   8  -4  -1  172.58    8.30
   8  -4  -1  180.68    8.00
  -8  -4   1  172.78    8.40
  -8   4   1  150.18    8.00
   8   4  -1  159.28    8.10
  -7  -4   1   56.19    3.90
  -7  -4   1   64.59    3.80
   7  -4  -1   62.29    3.80
  -7  -4   1   60.49    4.20
  -7  -4   1   64.99    4.00
   7  -4  -1   61.29    3.50
   7   4  -1   61.29    3.60
  -7   4   1   59.69    3.70
  -7   4   1   60.19    3.60
  -6  -4   1  418.76   18.60
  -6  -4   1  383.06   17.90
   6  -4  -1  377.66   18.10
  -6  -4   1  392.26   18.00
   6  -4  -1  392.96   17.70
  -6  -4   1  364.56   17.70
  -6  -4   1  409.96   18.20
   6   4  -1  389.36   17.90
  -6   4   1  373.76   17.80
  -6   4   1  387.26   18.00
   5  -4  -1   20.20    1.70
  -5  -4   1   18.90    2.40
   5  -4  -1   21.10    2.30
  -5  -4   1   22.30    2.20
  -5  -4   1   16.00    1.90
  -5  -4   1   17.90    2.10
  -5  -4   1   20.80    2.30
  -5   4   1   20.40    1.40
  -5   4   1   12.50    3.40
   5   4  -1   23.40    1.80
  -5   4   1   18.90    1.90
  -4  -4   1   45.30    3.20
   4  -4  -1   40.50    3.10
  -4  -4   1   43.50    2.90
   4  -4  -1   38.40    4.60
  -4  -4   1   42.60    2.70
   4  -4  -1   42.10    2.90
  -4  -4   1   38.60    2.80
  -4  -4   1   42.30    3.40
   4  -4  -1   39.20    2.60
   4  -4  -1   39.00    2.70
   4   4  -1   40.10    4.00
  -4   4   1   44.80    3.00
   4   4  -1   41.40    5.50
  -4   4   1   42.10    2.80
  -4   4   1   45.40    2.40
   4   4  -1   44.00    2.70
  -3  -4   1   18.40    1.60
  -3  -4   1   16.20    2.10
   3  -4  -1   12.60    1.60
  -3  -4   1   14.30    1.60
  -3  -4   1   12.90    1.90
   3  -4  -1   15.30    1.90
   3  -4  -1   15.60    1.50
  -3  -4   1   13.50    2.00
   3  -4  -1   13.80    2.10
  -3  -4   1   13.40    1.50
   3  -4  -1   13.30    3.20
   3  -4  -1   12.80    1.50
   3   4  -1   15.40    1.40
   3   4  -1   15.50    1.50
  -3   4   1   12.70    1.60
  -3   4   1   15.20    1.30
  -3   4   1   12.60    3.20
  -3   4   1   16.70    1.70
   3   4  -1   15.20    2.70
  -3   4   1   14.80    1.80
  -2  -4   1   75.59    4.80
  -2  -4   1   81.79    4.40
  -2  -4   1   84.29    4.40
  -2  -4   1   76.99    4.70
   2  -4  -1   80.09    6.20
   2  -4  -1   78.29    4.60
   2  -4  -1   86.19    4.30
  -2  -4   1   87.39    6.70
  -2   4   1   85.89    4.60
   2   4  -1   82.79    5.80
  -2   4   1   83.59    4.60
   2   4  -1   81.19    4.40
  -2   4   1   67.19    8.90
   2   4  -1   85.89    4.40
  -2   4   1   85.09    6.30
  -1  -4   1  396.96   20.10
   1  -4  -1  397.66   19.80
   1   4  -1  387.86   17.60
  -1   4   1  366.16   17.60
   1   4  -1  383.46   17.60
   1   4  -1  390.96   19.20
  -1   4   1  382.26   17.60
   1   4  -1  363.06   24.50
  -1   4   1  377.26   19.30
   0  -4  -1   41.10    4.60
   0  -4   1   42.90    4.40
   0   4  -1   41.50    2.70
   0   4   1   41.20    2.50
   0   4   1   39.50    7.00
   0   4  -1   41.30    2.60
   0   4  -1   35.10    6.80
   0   4   1   40.30    3.70
   0   4   1   42.10    2.50
   0   4  -1   42.00    4.10
   1  -4   1   89.89    6.30
  -1  -4  -1   93.19    6.80
  -1   4  -1   68.69    8.70
   1   4   1   95.69    4.50
   1   4   1   79.29    9.60
  -1   4  -1   85.69    6.40
  -1   4  -1   97.49    4.90
   1   4   1   85.59    5.60
   1   4   1   87.79    5.70
   1   4   1   81.79    4.40
  -1   4  -1   91.69    4.80
   2  -4   1  150.88    7.80
  -2  -4  -1  157.38    7.60
   2  -4   1  131.59    7.50
   2  -4   1  147.29    9.30
  -2  -4  -1  154.98   10.00
  -2  -4  -1  153.08    7.60
  -2  -4  -1  150.18    7.50
  -2   4  -1  160.08    7.30
  -2   4  -1  141.89    9.50
  -2   4  -1  171.88    7.80
   2   4   1  154.28    8.50
  -2   4  -1  159.98    7.70
   2   4   1  155.58    7.30
  -3  -4  -1  412.66   21.50
   3  -4   1  368.06   20.20
  -3  -4  -1  414.86   18.50
   3  -4   1  391.26   18.30
  -3  -4  -1  395.76   18.80
   3  -4   1  402.96   18.30
  -3  -4  -1  402.66   18.60
   3  -4   1  411.06   18.80
  -3  -4  -1  416.46   18.50
  -3  -4  -1  385.56   18.30
   3   4   1  423.86   19.40
  -3   4  -1  429.56   18.70
  -3   4  -1  360.46   18.20
  -3   4  -1  405.56   18.10
  -3   4  -1  427.76   18.80
   3   4   1  403.66   18.10
  -4  -4  -1  113.19    5.70
  -4  -4  -1  105.29    5.70
  -4  -4  -1  111.09    5.60
   4  -4   1  105.19    5.40
  -4  -4  -1  109.89    6.00
   4  -4   1  102.39    5.40
   4  -4   1  115.49    5.90
  -4   4  -1  106.69    5.10
  -4   4  -1  101.69    5.40
   4   4   1  102.39    6.20
  -4   4  -1  108.39    5.80
  -5  -4  -1   47.00    3.20
  -5  -4  -1   43.90    3.40
  -5  -4  -1   39.90    3.10
  -5  -4  -1   46.10    3.10
  -5  -4  -1   43.70    2.80
   5  -4   1   43.10    2.60
   5  -4   1   44.00    3.20
  -5   4  -1   42.20    2.90
  -5   4  -1   40.30    2.60
  -6  -4  -1  141.19    7.40
  -6  -4  -1  140.49    7.30
   6  -4   1  143.89    7.10
  -6  -4  -1  144.59    7.50
   6  -4   1  151.98    7.70
  -6  -4  -1  149.29    7.80
  -6   4  -1  148.09    7.50
  -6   4  -1  154.98    7.30
   7  -4   1    1.20    1.10
   7  -4   1    0.80    0.90
  -7  -4  -1    2.70    1.10
  -7  -4  -1    1.40    1.20
  -7   4  -1   -0.30    0.90
  -7   4  -1    3.10    1.10
   8  -4   1  173.58    8.10
   8  -4   1  159.28    8.50
  -8  -4  -1  176.38    8.40
  -8   4  -1  171.48    8.30
  -8   4  -1  179.58    8.30
   9  -4   1   10.20    1.80
  -9   4  -1   11.10    1.40
  10  -4   1  109.09    5.30
 -10   4  -1  107.19    5.10
  -9   5   1   68.09    3.40
  -8  -5   1    1.60    0.80
   8  -5  -1   -0.30    0.90
   8  -5  -1    1.10    0.80
  -8   5   1    1.40    0.80
   7  -5  -1   61.99    3.40
   7  -5  -1   55.69    3.60
  -7  -5   1   59.29    3.50
  -7  -5   1   54.79    3.60
  -7  -5   1   60.59    3.60
  -7  -5   1   60.29    3.90
  -7   5   1   55.79    3.40
  -7   5   1   60.39    3.40
   6  -5  -1   15.70    2.30
  -6  -5   1   15.50    1.80
   6  -5  -1   17.80    1.70
  -6  -5   1   14.90    2.20
  -6  -5   1   16.20    2.50
  -6  -5   1   18.80    2.20
  -6  -5   1   14.40    2.10
   6   5  -1   17.00    1.80
  -6   5   1   18.60    2.00
   6   5  -1   17.20    1.90
  -6   5   1   20.10    1.80
   5  -5  -1   32.60    3.00
  -5  -5   1   36.30    3.30
   5  -5  -1   33.90    2.40
  -5  -5   1   33.40    2.80
  -5  -5   1   31.90    2.70
  -5  -5   1   31.20    2.80
  -5  -5   1   36.10    2.60
   5   5  -1   32.90    2.60
  -5   5   1   35.60    2.40
   5   5  -1   36.60    2.70
  -5   5   1   34.90    2.00
  -5   5   1   35.00    2.80
  -4  -5   1   35.50    2.60
  -4  -5   1   37.10    2.90
  -4  -5   1   34.40    2.90
   4  -5  -1   31.30    2.40
   4  -5  -1   31.90    3.00
  -4  -5   1   32.10    2.80
   4  -5  -1   33.30    2.50
  -4  -5   1   34.70    3.30
   4  -5  -1   34.80    2.60
   4   5  -1   33.00    2.60
  -4   5   1   33.50    2.10
   4   5  -1   36.90    2.60
  -4   5   1   31.80    2.40
  -3  -5   1  133.19    6.70
   3  -5  -1  132.49    7.10
  -3  -5   1  133.69    6.80
   3  -5  -1  128.69    6.70
  -3  -5   1  132.09    6.80
  -3  -5   1  127.49    6.90
   3  -5  -1  131.19    6.50
  -3  -5   1  138.09    7.40
   3  -5  -1  130.89    6.70
  -3  -5   1  132.09    6.50
  -3   5   1  130.99    6.30
   3   5  -1  129.49    6.80
   3   5  -1  134.39    6.80
  -3   5   1  126.09    6.50
  -3   5   1  124.49    7.00
  -3   5   1  132.69    7.00
   2  -5  -1  330.27   15.30
  -2  -5   1  334.57   15.20
   2  -5  -1  319.87   15.20
   2  -5  -1  322.17   15.40
  -2  -5   1  331.97   15.50
  -2  -5   1  322.07   15.80
   2  -5  -1  320.37   15.20
   2  -5  -1  331.67   15.70
   2  -5  -1  333.27   15.30
  -2  -5   1  321.97   15.30
  -2  -5   1  324.87   15.30
  -2   5   1  313.87   15.60
   2   5  -1  338.27   15.50
  -2   5   1  322.37   15.00
   2   5  -1  342.17   15.50
  -2   5   1  351.06   15.80
   1  -5  -1   35.50    2.50
   1  -5  -1   32.90    2.50
  -1  -5   1   33.90    3.00
  -1  -5   1   32.20    2.70
  -1  -5   1   35.20    2.40
   1  -5  -1   35.40    2.40
  -1  -5   1   33.00    2.50
   1  -5  -1   35.60    2.60
   1  -5  -1   29.30    3.20
   1  -5  -1   34.40    2.50
  -1  -5   1   32.30    2.30
   1   5  -1   32.30    2.60
  -1   5   1   30.10    2.10
   1   5  -1   34.20    2.60
  -1   5   1   31.30    2.60
  -1   5   1   28.50    2.50
   0  -5  -1   21.60    2.20
   0  -5   1   19.30    2.20
   0  -5   1   21.10    1.80
   0  -5  -1   17.80    2.60
   0  -5  -1   19.90    2.00
   0  -5   1   16.70    2.70
   0  -5  -1   17.30    1.90
   0  -5  -1   18.70    1.80
   0  -5   1   24.30    2.10
   0  -5  -1   19.10    2.00
   0  -5   1   21.40    1.90
   0   5  -1   22.80    2.10
   0   5  -1   18.00    1.60
   0   5   1   22.30    2.10
   0   5   1   21.00    2.00
   0   5  -1   17.50    2.00
   1  -5   1   39.40    2.80
   1  -5   1   44.50    2.80
  -1  -5  -1   45.00    3.50
   1  -5   1   44.30    2.80
  -1  -5  -1   43.40    3.10
  -1  -5  -1   41.00    3.00
   1  -5   1   38.90    3.00
  -1  -5  -1   42.20    3.00
   1  -5   1   47.40    3.50
  -1  -5  -1   43.30    2.90
  -1  -5  -1   48.00    3.10
  -1   5  -1   43.00    2.50
   1   5   1   45.10    3.00
   1   5   1   45.20    3.00
  -1   5  -1   42.60    3.10
  -1   5  -1   46.80    3.20
  -2  -5  -1  148.99    7.50
   2  -5   1  148.89    7.40
   2  -5   1  141.09    7.40
  -2  -5  -1  153.88    7.50
   2  -5   1  149.79    7.90
  -2  -5  -1  148.59    8.00
   2  -5   1  141.49    7.40
  -2  -5  -1  154.78    7.70
   2  -5   1  149.49    7.40
  -2  -5  -1  151.88    7.40
  -2   5  -1  148.49    7.10
   2   5   1  143.59    7.50
  -2   5  -1  149.79    7.60
  -2   5  -1  155.68    7.80
   2   5   1  155.48    7.50
  -2   5  -1  149.99    7.80
   3  -5   1    8.80    1.60
  -3  -5  -1   10.50    2.20
  -3  -5  -1   12.60    1.90
  -3  -5  -1   10.70    1.50
  -3  -5  -1   14.00    1.80
  -3  -5  -1   12.00    2.30
   3  -5   1   13.30    2.20
   3  -5   1   12.30    1.70
   3   5   1   13.10    1.50
  -3   5  -1   12.30    2.00
  -3   5  -1   11.30    1.90
  -3   5  -1   11.60    1.20
  -4  -5  -1   14.70    2.10
  -4  -5  -1   19.60    2.00
   4  -5   1   13.00    1.90
  -4  -5  -1   13.00    1.50
   4  -5   1   15.70    2.30
  -4  -5  -1   20.60    2.60
  -4  -5  -1   18.70    2.30
   4   5   1   15.80    1.60
  -4   5  -1   17.90    1.30
  -4   5  -1   17.30    2.00
   5  -5   1   16.90    1.90
   5  -5   1   20.00    2.40
  -5  -5  -1   17.50    2.00
  -5  -5  -1   16.70    2.70
  -5  -5  -1   18.20    2.40
  -5  -5  -1   19.10    2.30
  -5   5  -1   20.10    1.90
   5   5   1   18.10    1.70
  -5   5  -1   17.40    1.90
   6  -5   1   29.90    2.30
  -6  -5  -1   26.20    2.50
  -6  -5  -1   25.00    2.80
  -6  -5  -1   25.40    2.40
   6  -5   1   28.30    2.70
  -6   5  -1   26.40    2.30
  -6   5  -1   29.20    2.20
  -7  -5  -1  198.68   10.30
   7  -5   1  227.98   10.70
   7  -5   1  216.48   10.20
  -7  -5  -1  214.18   10.30
  -7   5  -1  232.68   10.50
  -7   5  -1  240.18   10.30
   8  -5   1   25.90    2.10
  -8   5  -1   22.20    1.80
  -8   5  -1   24.60    1.70
   7  -6  -1   18.90    1.70
  -6  -6   1   32.60    2.10
  -6  -6   1   35.10    2.20
  -6  -6   1   35.30    2.30
   6  -6  -1   34.60    2.10
   6  -6  -1   25.50    2.40
  -6  -6   1   30.50    2.50
  -6   6   1   32.00    1.90
  -6   6   1   35.30    2.20
   5  -6  -1   12.90    2.20
  -5  -6   1   21.50    1.80
  -5  -6   1   17.20    1.90
  -5  -6   1   17.20    1.90
  -5  -6   1   19.20    2.30
   5  -6  -1   15.20    1.80
  -5   6   1   17.80    1.80
  -5   6   1   19.30    1.90
   5   6  -1   16.80    1.70
   4  -6  -1    1.40    0.90
  -4  -6   1    2.70    1.10
  -4  -6   1    1.80    1.20
  -4  -6   1    1.10    0.90
  -4  -6   1    2.40    1.10
   4  -6  -1    0.20    1.20
  -4   6   1    2.90    1.00
   4   6  -1    2.50    0.90
  -4   6   1    4.00    0.80
  -3  -6   1   34.70    3.00
  -3  -6   1   27.20    2.50
  -3  -6   1   26.60    2.10
   3  -6  -1   28.20    2.30
  -3  -6   1   29.90    2.20
   3  -6  -1   31.60    2.40
  -3  -6   1   28.10    2.40
   3  -6  -1   32.20    2.20
   3  -6  -1   28.60    2.90
   3   6  -1   29.10    2.40
  -3   6   1   26.40    2.80
  -3   6   1   31.30    2.50
   3   6  -1   31.20    2.40
   3   6  -1   29.80    2.60
  -3   6   1   28.00    1.80
  -2  -6   1   55.69    3.70
   2  -6  -1   70.69    3.80
  -2  -6   1   74.49    3.80
  -2  -6   1   70.09    4.60
   2  -6  -1   69.89    4.40
  -2  -6   1   56.79    3.80
   2  -6  -1   70.39    3.80
   2  -6  -1   60.39    3.80
   2  -6  -1   71.89    4.00
  -2  -6   1   67.09    4.00
   2   6  -1   65.09    4.10
   2   6  -1   68.79    4.10
   2   6  -1   68.79    3.50
  -2   6   1   69.69    4.20
  -2   6   1   61.69    4.20
  -2   6   1   67.89    3.50
  -1  -6   1    1.20    1.20
  -1  -6   1    0.20    0.90
   1  -6  -1    0.20    1.10
  -1  -6   1    1.10    1.10
   1  -6  -1    1.30    1.30
   1  -6  -1    1.10    1.00
  -1  -6   1    0.20    0.90
  -1  -6   1    1.00    1.00
   1  -6  -1    1.90    0.90
   1  -6  -1    1.40    0.90
   1   6  -1    0.80    0.60
  -1   6   1    1.00    0.60
   1   6  -1    1.70    1.10
  -1   6   1    0.40    1.10
   1   6  -1    0.50    0.80
  -1   6   1    0.00    0.80
   0  -6   1   60.69    3.60
   0  -6  -1   60.09    3.80
   0  -6  -1   54.99    3.40
   0  -6  -1   61.69    3.60
   0  -6  -1   54.89    3.70
   0  -6   1   60.99    3.80
   0  -6   1   60.79    4.20
   0  -6  -1   63.09    4.10
   0  -6   1   59.79    3.60
   0  -6   1   56.19    3.40
   0   6   1   62.39    3.80
   0   6   1   57.89    3.80
   0   6  -1   63.79    3.90
   0   6  -1   58.79    3.20
   0   6  -1   61.19    3.70
   0   6   1   57.79    3.20
  -1  -6  -1   30.70    2.50
  -1  -6  -1   30.20    2.20
   1  -6   1   25.50    2.20
   1  -6   1   31.80    2.90
  -1  -6  -1   25.40    2.90
   1  -6   1   24.90    2.20
  -1  -6  -1   25.50    2.50
  -1  -6  -1   28.10    2.20
   1  -6   1   25.70    2.50
   1  -6   1   27.50    2.40
   1   6   1   30.20    2.40
  -1   6  -1   25.50    2.50
  -1   6  -1   25.10    2.40
  -1   6  -1   29.90    2.40
   1   6   1   26.60    2.40
  -1   6  -1   26.60    1.80
  -2  -6  -1   38.30    2.40
  -2  -6  -1   36.70    3.10
  -2  -6  -1   29.60    2.70
   2  -6   1   38.30    2.50
  -2  -6  -1   30.20    2.40
  -2  -6  -1   38.20    2.70
   2  -6   1   34.70    3.00
   2  -6   1   37.50    2.60
   2  -6   1   35.10    3.20
  -2   6  -1   38.60    2.70
  -2   6  -1   30.20    2.00
  -2   6  -1   33.40    2.80
   2   6   1   35.70    2.60
   2   6   1   35.80    2.70
   3  -6   1  397.56   18.30
  -3  -6  -1  381.26   17.80
  -3  -6  -1  379.76   18.10
  -3  -6  -1  347.57   17.90
  -3  -6  -1  401.66   17.70
  -3  -6  -1  410.86   17.90
   3  -6   1  427.36   17.90
   3   6   1  357.76   17.90
   3   6   1  370.46   18.00
  -3   6  -1  407.06   17.50
  -3   6  -1  409.56   18.00
  -4  -6  -1   46.90    3.10
   4  -6   1   47.20    3.40
  -4  -6  -1   47.30    2.90
  -4  -6  -1   42.30    3.30
   4  -6   1   48.50    2.90
  -4  -6  -1   49.90    3.20
  -4   6  -1   47.50    3.00
  -4   6  -1   45.20    2.70
   4   6   1   40.10    2.90
  -5  -6  -1  109.09    5.40
  -5  -6  -1  116.99    5.60
  -5  -6  -1  113.99    5.60
  -5  -6  -1  101.49    5.90
   5  -6   1  113.89    5.90
   5  -6   1  107.19    5.40
  -5   6  -1  109.99    5.60
   6  -6   1   20.40    1.60
  -6  -6  -1   18.40    1.70
  -6  -6  -1   19.70    1.70
   6  -6   1   22.70    2.00
  -6   6  -1   22.50    1.70
  -4  -7   1    1.40    0.70
  -3  -7   1   31.70    2.00
  -3  -7   1   25.00    1.70
   3  -7  -1   29.60    1.90
  -3  -7   1   28.50    1.70
  -3  -7   1   23.20    2.40
   3   7  -1   27.30    1.60
  -3   7   1   29.90    1.80
  -2  -7   1   55.99    3.20
  -2  -7   1   58.89    3.10
  -2  -7   1   57.99    3.40
  -2  -7   1   58.89    3.20
   2  -7  -1   53.99    3.10
   2  -7  -1   60.39    3.20
  -2   7   1   56.99    3.10
  -2   7   1   60.19    2.80
   2   7  -1   59.29    2.90
   2   7  -1   56.99    3.00
  -1  -7   1   73.99    3.90
   1  -7  -1   77.49    4.00
   1  -7  -1   78.89    3.90
   1  -7  -1   76.59    4.00
  -1  -7   1   75.49    4.10
  -1  -7   1   82.29    4.00
  -1  -7   1   80.99    3.90
   1  -7  -1   72.09    3.80
  -1   7   1   71.59    3.90
   1   7  -1   77.69    3.70
  -1   7   1   76.49    3.70
   0  -7   1    4.20    0.90
   0  -7   1    6.40    1.20
   0  -7  -1    6.80    1.10
   0  -7   1    6.80    1.40
   0  -7  -1    6.60    1.10
   0  -7  -1    7.70    1.20
   0  -7  -1    8.00    1.40
   0  -7   1    6.30    1.00
   0   7  -1    8.00    0.80
   0   7   1    8.40    0.80
  -1  -7  -1   43.50    2.50
   1  -7   1   43.30    2.90
  -1  -7  -1   43.60    2.60
   1  -7   1   44.70    2.70
  -1  -7  -1   45.20    2.70
  -1  -7  -1   40.70    2.40
  -1   7  -1   44.40    2.20
   1   7   1   45.00    2.30
  -2  -7  -1   19.60    1.70
  -2  -7  -1   17.50    1.40
  -2  -7  -1   17.20    1.60
   2  -7   1   18.10    1.80
   2  -7   1   15.60    1.50
  -2   7  -1   16.30    1.40
  -2   7  -1   15.00    1.00
   2   7   1   16.00    1.10
  -2   7  -1   18.80    1.40
   3  -7   1    3.50    1.10
   3  -7   1    2.40    0.70
  -3  -7  -1    4.20    0.80
  -3  -7  -1    2.90    0.80
  -3  -7  -1    4.00    0.90
  -3   7  -1    3.50    0.70
  -3   7  -1    3.50    0.70
 -12   0   2   33.30    1.90
 -12   0   2   41.30    2.20
 -11   0   2   23.50    1.80
 -11   0   2   23.50    1.70
 -10   0   2   12.50    1.40
 -10   0   2   11.50    1.60
   9   0  -2  350.66   16.70
  -9   0   2  367.06   16.50
  -9   0   2  360.36   16.60
  -8   0   2   21.20    1.80
  -8   0   2   20.50    1.80
  -8   0   2   18.30    3.20
  -8   0   2   22.80    2.00
   8   0  -2   21.50    2.00
  -7   0   2   17.80    1.50
  -7   0   2   17.80    1.70
   7   0  -2   17.40    2.90
  -7   0   2   17.80    2.60
   7   0  -2   18.40    1.60
   7   0  -2   16.10    3.10
  -6   0   2   17.00    2.20
   6   0  -2   17.90    2.50
   6   0  -2   14.50    2.70
   6   0  -2   15.80    1.40
  -5   0   2  756.92   33.50
   5   0  -2  645.74   35.00
   5   0  -2  760.42   34.20
   5   0  -2  729.33   32.70
   5   0  -2  783.52   34.00
   4   0  -2  656.13   30.60
   4   0  -2  698.43   31.80
   4   0  -2  652.63   29.40
  -4   0   2  676.83   30.10
   4   0  -2  631.64   30.30
  -3   0   2    1.40    0.70
  -3   0   2    1.60    0.50
   3   0  -2    1.60    0.80
   3   0  -2    2.10    0.80
   2   0  -2  976.70   43.10
  -2   0   2  945.31   43.00
   2   0  -2  957.10   43.10
  -2   0   2  994.90   42.80
   2   0  -2  954.60   44.30
   1   0  -2   70.39    3.60
  -1   0   2   66.89    3.30
  -1   0   2   61.49    4.50
  -1   0   2   72.69    3.60
   1   0  -2   69.79    3.60
   1   0  -2   65.69    4.40
   0   0   2    8.80    1.30
   0   0  -2    9.70    0.70
   0   0  -2    9.60    0.80
   0   0   2    8.80    0.80
   0   0  -2    9.00    0.70
  -1   0  -2  900.81   37.10
   1   0   2  897.91   36.30
   1   0   2  764.62   37.00
  -1   0  -2  715.93   36.60
  -1   0  -2  837.92   36.30
   1   0   2  798.62   36.40
   2   0   2   23.20    1.90
  -2   0  -2   27.40    1.70
   2   0   2   22.20    1.60
  -2   0  -2   25.80    1.80
   2   0   2   25.20    1.50
   3   0   2  109.99    5.70
   3   0   2  112.89    5.20
   3   0   2  108.19    5.50
  -3   0  -2  110.99    5.60
   4   0   2  594.44   27.00
  -4   0  -2  568.94   27.20
   4   0   2  626.44   26.40
   5   0   2  720.33   33.30
  -5   0  -2  742.13   33.50
   5   0   2  736.73   32.50
  -6   0  -2   25.30    2.60
   6   0   2   23.90    1.60
   6   0   2   23.60    2.30
  -7   0  -2  214.88    9.80
   7   0   2  209.08   11.10
   7   0   2  201.18    9.80
  -7   0  -2  196.58    9.80
  -7   0  -2  218.68   11.30
  -7   0  -2  213.68    9.80
  -8   0  -2   39.90    2.70
  -8   0  -2   39.80    2.60
  -8   0  -2   39.50    2.60
   8   0   2   41.90    2.60
  -9   0  -2  345.17   15.90
  -9   0  -2  350.76   15.90
   9   0   2  353.26   16.10
  -9   0  -2  343.67   15.90
 -10   0  -2   73.89    3.70
  10   0   2   65.29    3.90
 -10   0  -2   65.39    3.70
 -10   0  -2   70.89    4.20
 -11   0  -2   27.00    1.90
 -11   0  -2   30.00    1.90
 -12  -1   2    5.50    0.60
  12  -1  -2    7.30    1.10
 -12   1   2    6.30    0.70
  11  -1  -2   26.00    1.90
 -11  -1   2   22.00    1.60
 -11  -1   2   24.60    1.70
 -11   1   2   22.00    1.60
 -11   1   2   22.80    1.70
 -10  -1   2   66.19    3.50
 -10  -1   2   60.39    3.50
 -10   1   2   69.59    3.50
 -10   1   2   60.29    3.50
  10   1  -2   59.39    3.70
  -9  -1   2   70.69    4.00
  -9  -1   2   73.39    4.40
  -9  -1   2   75.39    4.20
  -9   1   2   75.49    4.10
  -9   1   2   71.29    4.00
   9   1  -2   75.99    4.30
  -8  -1   2  174.18    8.30
   8  -1  -2  174.58    8.40
  -8  -1   2  166.28    8.10
  -8  -1   2  159.68    8.40
  -8   1   2  168.48    8.20
  -8   1   2  159.58    8.10
  -8   1   2  171.08    8.20
   8   1  -2  175.68    8.40
  -7  -1   2   46.00    2.70
  -7  -1   2   47.00    3.10
   7  -1  -2   45.40    4.40
   7  -1  -2   51.39    5.30
   7  -1  -2   48.70    2.90
  -7  -1   2   48.20    2.90
   7   1  -2   45.00    4.90
  -7   1   2   44.20    2.70
  -7   1   2   52.19    4.30
   7   1  -2   41.90    2.80
   7   1  -2   53.69    4.50
  -7   1   2   43.90    2.80
  -7   1   2   45.00    2.80
   6  -1  -2  127.69    7.80
   6  -1  -2  129.09    7.80
   6  -1  -2  137.19    6.50
  -6  -1   2  125.59    7.00
   6   1  -2  132.09    6.50
   6   1  -2  127.09    7.60
  -6   1   2  138.79    7.70
   6   1  -2  135.49    8.30
   5  -1  -2  269.47   12.00
   5  -1  -2  269.57   13.20
  -5  -1   2  250.87   12.40
   5  -1  -2  258.37   13.10
   5   1  -2  266.47   12.00
  -5   1   2  258.27   13.00
   5   1  -2  277.77   13.60
   5   1  -2  272.17   13.10
   5   1  -2  222.08   14.70
   4  -1  -2 1028.50   44.20
   4  -1  -2  953.20   43.20
  -4  -1   2  961.70   43.50
   4  -1  -2 1005.60   45.40
   4  -1  -2 1041.50   44.30
   4   1  -2 1031.40   46.70
   4   1  -2  967.60   44.20
  -4   1   2  905.61   44.30
  -4   1   2  871.61   43.90
   4   1  -2  946.71   43.20
   4   1  -2 1043.80   44.70
   3  -1  -2  509.65   22.80
  -3  -1   2  453.55   20.80
   3  -1  -2  481.55   21.40
   3  -1  -2  456.85   21.40
   3   1  -2  512.95   23.70
   3   1  -2  420.66   21.60
  -3   1   2  414.16   21.20
   3   1  -2  466.45   22.60
   3   1  -2  449.46   21.40
   3   1  -2  454.35   20.60
  -3   1   2  481.55   21.70
   2  -1  -2  808.22   36.00
  -2  -1   2  679.33   35.60
   2  -1  -2  838.92   37.30
  -2  -1   2  782.62   35.30
   2  -1  -2  775.12   35.80
   2   1  -2  683.63   35.90
   2   1  -2  865.21   36.10
  -2   1   2  813.02   36.10
   2   1  -2  852.51   36.20
  -2   1   2  870.11   35.90
   2   1  -2  845.52   38.00
  -1  -1   2 1000.10   46.40
   1  -1  -2  998.20   47.70
   1  -1  -2  955.10   46.20
  -1  -1   2 1001.90   45.80
   1  -1  -2 1103.59   46.50
   1   1  -2 1049.89   46.60
   1   1  -2 1147.49   46.60
   1   1  -2  960.40   48.10
  -1   1   2 1111.89   46.50
  -1   1   2 1121.89   46.40
   0  -1   2   31.60    2.00
   0  -1  -2   28.60    2.80
   0  -1   2   37.30    2.20
   0  -1  -2   36.50    2.10
   0   1   2   33.20    1.90
   0   1   2   30.60    1.80
   0   1  -2   34.20    2.20
   0   1   2   34.30    2.00
   0   1  -2   32.70    1.70
   0   1  -2   31.50    3.00
   1  -1   2 1715.23   78.19
   1  -1   2 1532.35   79.49
  -1  -1  -2 1760.22   78.49
   1  -1   2 1906.31   78.59
  -1  -1  -2 1809.42   78.39
  -1  -1  -2 1839.52   79.99
  -1   1  -2 1779.72   78.69
  -1   1  -2 1907.11   79.69
  -1   1  -2 1686.13   78.19
   1   1   2 1796.12   77.99
   1   1   2 1836.62   77.99
  -2  -1  -2  673.93   29.20
   2  -1   2  613.54   28.90
   2  -1   2  698.73   29.40
  -2  -1  -2  668.03   30.80
  -2  -1  -2  632.14   29.30
  -2   1  -2  607.44   29.50
  -2   1  -2  676.03   29.90
  -2   1  -2  644.24   29.20
   3  -1   2 1469.45   64.99
   3  -1   2 1552.74   65.69
   3  -1   2 1342.37   64.99
  -3  -1  -2 1502.25   65.49
   3   1   2 1577.94   64.99
   3   1   2 1416.06   64.99
  -3   1  -2 1485.15   65.59
   4  -1   2    9.90    0.80
   4  -1   2    9.00    1.30
  -4  -1  -2    9.40    1.20
   4   1   2    9.60    1.40
  -4   1  -2    9.00    1.50
   5  -1   2  309.77   15.10
  -5  -1  -2  311.17   14.80
   5  -1   2  293.77   14.00
   5   1   2  316.67   14.40
  -5   1  -2  310.57   15.00
   6  -1   2   76.89    4.00
   6  -1   2   78.99    5.30
  -6  -1  -2   76.89    5.00
   6   1   2   73.09    3.80
  -6   1  -2   78.99    5.20
   6   1   2   77.39    4.50
  -7  -1  -2    1.70    1.50
   7  -1   2    4.30    0.90
  -7  -1  -2    6.20    1.50
  -7  -1  -2    4.70    1.00
  -7  -1  -2    6.40    1.20
   7  -1   2    3.30    1.90
  -7   1  -2    3.40    1.00
   7   1   2    3.40    1.40
   7   1   2    5.20    0.90
  -7   1  -2    4.90    0.90
  -7   1  -2    4.80    1.80
  -7   1  -2    4.20    0.90
  -8  -1  -2   55.59    3.20
   8  -1   2   55.39    3.40
  -8  -1  -2   56.69    3.10
  -8   1  -2   56.59    3.40
   8   1   2   59.49    3.20
  -8   1  -2   52.89    3.20
  -8   1  -2   52.89    3.10
  -9  -1  -2   86.39    4.40
  -9  -1  -2   82.79    4.40
   9  -1   2   80.29    4.60
   9   1   2   83.59    4.50
  -9   1  -2   85.49    4.50
  -9   1  -2   86.19    4.60
  -9   1  -2   86.09    4.40
 -10  -1  -2   69.39    4.10
 -10  -1  -2   90.69    4.20
  10   1   2   76.19    4.20
 -10   1  -2   84.99    4.30
 -10   1  -2   83.69    4.10
 -10   1  -2   74.89    4.10
 -11  -1  -2   13.80    1.30
 -11  -1  -2   12.90    1.20
  11  -1   2   14.70    1.60
 -11   1  -2   17.70    1.40
 -11   1  -2   15.20    1.20
 -11   1  -2   13.20    1.40
  11  -2  -2   16.20    1.80
 -11  -2   2   22.80    1.40
 -11   2   2   20.10    1.50
 -10  -2   2   27.80    2.40
 -10  -2   2   28.00    2.00
  10  -2  -2   27.10    2.10
  10  -2  -2   26.90    2.40
  10   2  -2   33.30    3.30
 -10   2   2   27.60    2.00
 -10   2   2   26.60    2.10
   9  -2  -2  164.38    7.60
  -9  -2   2  159.28    7.70
  -9  -2   2  150.58    8.00
   9   2  -2  157.98    7.90
  -9   2   2  158.38    7.70
  -9   2   2  154.08    7.70
  -8  -2   2    4.90    1.30
  -8  -2   2    5.00    1.10
  -8   2   2    7.00    1.30
   8   2  -2    4.20    1.10
  -8   2   2    4.60    1.00
  -7  -2   2  236.18   10.70
  -7  -2   2  230.88   10.70
  -7  -2   2  219.58   10.90
  -7  -2   2  221.48   11.10
   7   2  -2  216.68   13.20
   7   2  -2  239.18   10.70
  -7   2   2  206.98   12.20
   7   2  -2  215.08   12.60
  -7   2   2  221.98   10.60
  -7   2   2  230.28   10.60
  -6  -2   2    7.70    1.60
  -6  -2   2    6.60    1.70
   6  -2  -2   10.50    2.80
  -6  -2   2    7.70    1.40
   6   2  -2    9.80    2.10
  -6   2   2   11.00    1.60
   6   2  -2    8.90    1.10
   6   2  -2   12.80    3.60
  -6   2   2   10.10    2.30
  -6   2   2    7.10    1.30
   5  -2  -2  200.88   10.50
   5   2  -2  195.88   10.40
  -5   2   2  211.28   10.50
   5   2  -2  192.48    9.10
   5   2  -2  180.38    9.10
   5   2  -2  178.68   13.30
   5   2  -2  209.08   11.30
   4  -2  -2  381.26   20.70
   4  -2  -2  422.16   19.00
   4   2  -2  392.26   18.80
   4   2  -2  398.46   22.30
  -4   2   2  368.16   19.30
  -4   2   2  416.16   18.90
   4   2  -2  373.26   17.70
   4   2  -2  382.06   17.70
   4   2  -2  417.36   19.70
   3  -2  -2 2434.06  106.79
   3  -2  -2 2329.37  108.79
  -3   2   2 2311.67  105.79
   3   2  -2 2316.07  106.59
   3   2  -2 2415.26  110.39
  -3   2   2 2556.94  106.69
  -3   2   2 2553.04  107.19
   3   2  -2 2340.37  105.59
   2  -2  -2  258.97   14.30
   2  -2  -2  323.17   16.70
  -2   2   2  300.77   14.30
  -2   2   2  303.77   13.70
   2   2  -2  292.37   13.60
   2   2  -2  295.57   14.40
  -2   2   2  316.37   14.70
   2   2  -2  324.07   17.60
   1  -2  -2 1981.00   84.89
   1  -2  -2 1642.94   82.19
  -1  -2   2 1791.12   82.39
   1   2  -2 1930.81   85.39
   1   2  -2 1924.51   82.29
  -1   2   2 1822.02   81.39
  -1   2   2 1959.50   82.09
  -1   2   2 1831.52   82.19
   1   2  -2 1795.32   81.39
   0  -2   2  176.28    8.60
   0  -2  -2  165.68    8.60
   0  -2  -2  184.88   10.80
   0  -2   2  158.78    8.30
   0   2   2  151.68    8.00
   0   2  -2  186.28    8.70
   0   2   2  152.08    8.10
   0   2  -2  170.78    7.80
   0   2  -2  183.08   10.80
   0   2   2  179.78    8.20
   0   2  -2  153.28    7.60
  -1  -2  -2  219.18   12.60
   1  -2   2  196.18   10.10
   1  -2   2  199.18   10.00
  -1  -2  -2  203.68   10.30
  -1   2  -2  218.78   12.20
   1   2   2  197.78    9.40
   1   2   2  215.28    9.90
  -1   2  -2  198.18    9.50
  -1   2  -2  207.88   10.40
   1   2   2  210.08    9.60
  -1   2  -2  201.68    9.50
   2  -2   2 1665.63   73.59
  -2  -2  -2 1764.42   76.99
  -2  -2  -2 1686.03   74.09
   2  -2   2 1646.44   73.89
  -2   2  -2 1658.53   74.19
  -2   2  -2 1757.92   75.79
  -2   2  -2 1597.04   73.39
  -2   2  -2 1506.45   73.09
   3  -2   2  406.46   19.10
   3  -2   2  388.06   18.10
  -3  -2  -2  425.66   19.50
  -3  -2  -2  421.86   18.60
   3  -2   2  375.66   18.60
  -3   2  -2  425.86   18.80
  -3   2  -2  379.36   19.80
   3   2   2  409.96   22.00
   4  -2   2  289.27   14.90
  -4  -2  -2  309.37   14.40
   4  -2   2  306.17   13.80
   4   2   2  295.47   17.70
   4   2   2  298.47   15.20
  -4   2  -2  321.57   14.70
   5  -2   2  256.77   12.00
   5  -2   2  254.37   13.30
  -5  -2  -2  240.38   12.70
   5   2   2  266.57   12.00
  -5   2  -2  277.27   13.10
  -6  -2  -2  288.87   12.90
   6  -2   2  303.07   13.00
  -6  -2  -2  270.77   13.00
  -6  -2  -2  247.58   13.80
  -6  -2  -2  280.07   12.80
  -6   2  -2  291.47   14.40
  -6   2  -2  270.17   12.70
  -6   2  -2  265.67   13.00
  -6   2  -2  282.57   12.90
   6   2   2  286.07   13.10
  -7  -2  -2   63.99    3.90
  -7  -2  -2   66.69    3.60
   7  -2   2   67.39    3.80
  -7  -2  -2   61.19    3.50
  -7   2  -2   67.09    5.50
  -7   2  -2   62.69    3.90
  -7   2  -2   69.09    3.70
  -7   2  -2   65.19    3.60
   7   2   2   66.89    3.40
  -8  -2  -2  232.48   10.60
  -8  -2  -2  224.48   11.00
  -8  -2  -2  225.88   10.50
   8  -2   2  228.48   11.00
  -8   2  -2  236.18   10.80
  -8   2  -2  223.78   10.60
   8   2   2  214.38   10.50
  -9  -2  -2   67.09    3.90
  -9  -2  -2   76.39    4.00
   9  -2   2   78.69    4.50
  -9   2  -2   75.79    4.00
   9   2   2   75.89    4.00
  -9   2  -2   77.89    4.20
 -10  -2  -2   50.99    3.10
  10  -2   2   60.09    3.60
 -10  -2  -2   59.09    3.10
 -10   2  -2   58.89    3.10
 -10   2  -2   59.89    3.30
  11  -2   2    2.80    0.80
 -11  -2  -2    4.70    0.70
 -11   2  -2    3.60    0.70
 -11   2  -2    2.90    0.60
 -11   3   2   16.00    1.20
 -10  -3   2    8.30    1.00
  10  -3  -2    7.70    1.60
  10  -3  -2    8.20    1.30
 -10  -3   2    9.50    1.50
 -10   3   2    7.40    1.20
 -10   3   2    8.00    1.20
  -9  -3   2   43.20    2.50
  -9  -3   2   37.70    3.00
   9  -3  -2   44.60    2.70
   9  -3  -2   41.00    3.10
  -9   3   2   42.00    2.80
   9   3  -2   41.60    2.80
  -9   3   2   42.90    2.60
   8  -3  -2  258.87   12.30
  -8  -3   2  252.47   12.30
  -8  -3   2  251.77   11.80
   8  -3  -2  255.77   11.90
   8   3  -2  257.87   12.20
  -8   3   2  258.47   11.90
  -8   3   2  251.97   12.00
   7  -3  -2  442.36   20.40
  -7  -3   2  442.56   20.20
  -7  -3   2  446.86   20.70
   7  -3  -2  440.16   20.00
  -7  -3   2  435.16   20.20
  -7  -3   2  461.05   20.60
  -7   3   2  429.16   20.00
   7   3  -2  453.35   20.30
  -7   3   2  421.56   20.10
   6  -3  -2  122.59    6.00
  -6  -3   2  127.29    6.30
  -6  -3   2  126.29    6.40
  -6  -3   2  123.49    6.80
   6  -3  -2  114.79    8.00
   6  -3  -2  124.49    6.50
  -6  -3   2  127.89    6.60
   6   3  -2  132.59    6.30
   6   3  -2  117.69    8.90
  -6   3   2  129.09    6.30
  -6   3   2  116.79    6.00
  -6   3   2  107.49    6.60
   6   3  -2  124.39    6.30
  -6   3   2  116.39    7.80
   5  -3  -2  115.39    6.50
  -5  -3   2  126.59    6.80
   5  -3  -2  129.09    6.30
  -5  -3   2  129.69    6.50
  -5  -3   2  130.59    6.70
  -5  -3   2  120.99    6.50
   5  -3  -2  131.29    8.10
  -5  -3   2  125.39    6.40
   5   3  -2  129.89    6.40
   5   3  -2  135.29    8.90
  -5   3   2  135.59    7.90
  -5   3   2  123.39    6.00
  -5   3   2  126.29    6.40
   5   3  -2  135.69    7.80
   5   3  -2  141.49    6.50
   4  -3  -2  793.72   36.90
  -4   3   2  764.12   35.40
   4   3  -2  828.62   37.90
   4   3  -2  824.82   36.80
   4   3  -2  750.72   41.80
  -4   3   2  804.92   36.60
   4   3  -2  748.33   35.20
  -4   3   2  791.42   35.40
   4   3  -2  805.92   35.20
   3  -3  -2  355.26   17.70
   3  -3  -2  336.47   20.50
  -3   3   2  358.96   16.40
  -3   3   2  360.96   16.40
   3   3  -2  369.06   16.20
   3   3  -2  325.47   16.10
   3   3  -2  364.86   22.30
  -3   3   2  364.06   17.30
  -3   3   2  347.57   17.90
   3   3  -2  367.76   18.40
   3   3  -2  367.76   17.60
   2  -3  -2  876.01   39.30
  -2  -3   2  878.31   39.70
   2  -3  -2  852.11   42.70
  -2   3   2  872.31   37.90
   2   3  -2  874.31   39.10
  -2   3   2  860.81   38.70
  -2   3   2  865.61   39.30
   2   3  -2  762.62   37.70
   2   3  -2  856.61   37.80
   2   3  -2  855.01   43.80
  -2   3   2  800.02   37.80
   1  -3  -2   89.29    5.70
   1  -3  -2   84.59    7.90
  -1  -3   2   87.49    5.80
  -1   3   2   79.29    4.40
  -1   3   2   92.19    5.10
  -1   3   2   87.39    5.40
   1   3  -2   95.79    5.60
   1   3  -2   85.29    4.40
  -1   3   2   90.29    4.40
   1   3  -2   89.49    8.50
   1   3  -2   81.19    4.40
   0  -3  -2  108.69    9.20
   0  -3   2  105.89    6.50
   0  -3  -2  100.49    6.50
   0   3  -2  120.39    5.30
   0   3   2   97.89    5.90
   0   3  -2  106.79    6.40
   0   3   2  100.29    5.70
   0   3   2   98.69    5.00
   0   3  -2  106.29    9.20
   0   3  -2  105.39    5.30
  -1  -3  -2  237.28   12.30
   1  -3   2  232.58   11.90
  -1   3  -2  223.18   10.80
  -1   3  -2  226.98   14.90
  -1   3  -2  244.88   12.30
   1   3   2  208.08   10.30
  -1   3  -2  241.38   10.80
   1   3   2  247.98   11.30
   1   3   2  216.68   11.10
   2  -3   2  137.39    7.60
  -2  -3  -2  129.69    8.00
   2   3   2  139.19   11.20
   2   3   2  130.99    6.90
  -2   3  -2  129.49    6.60
   2   3   2  144.59    6.80
  -2   3  -2  124.69    9.80
  -2   3  -2  126.99    7.90
  -2   3  -2  139.29    6.60
  -3  -3  -2  160.78    9.30
   3   3   2  148.99   12.50
   3   3   2  152.58    7.20
  -3   3  -2  138.89    7.70
   4   3   2  313.67   20.90
  -4   3  -2  328.37   15.70
  -5  -3  -2  102.79    5.90
  -5  -3  -2  104.09    5.60
  -5  -3  -2  104.49    5.40
   5  -3   2  117.79    5.80
  -5   3  -2  109.69    5.40
  -5   3  -2  110.69    5.60
  -5   3  -2  113.69    6.70
   5   3   2   91.19    8.50
  -6  -3  -2  115.69    6.30
  -6  -3  -2  120.79    6.10
   6  -3   2  123.29    6.30
  -6  -3  -2  109.59    6.00
  -6   3  -2  111.49    7.30
  -6   3  -2  119.89    6.10
  -6   3  -2  115.19    5.90
   7  -3   2  349.17   15.90
  -7  -3  -2  319.67   15.30
  -7  -3  -2  339.77   15.70
  -7   3  -2  332.67   15.60
  -7   3  -2  342.57   15.60
  -8  -3  -2  141.19    7.00
   8  -3   2  138.49    7.10
  -8  -3  -2  142.39    6.60
  -8   3  -2  135.69    6.90
  -8   3  -2  135.99    6.50
  -8   3  -2  126.69    6.80
   8   3   2  132.09    6.70
   9  -3   2   11.90    1.90
  -9  -3  -2   13.00    1.30
  -9   3  -2   12.40    1.50
  -9   3  -2   15.50    1.40
  10  -3   2    8.30    1.50
 -10  -3  -2    5.00    0.90
 -10   3  -2    5.20    1.10
 -10   3  -2    3.50    0.70
  10  -4  -2   10.10    1.10
 -10   4   2   11.70    1.10
   9  -4  -2   40.40    2.40
  -9  -4   2   43.20    2.70
   9  -4  -2   30.90    2.50
  -9   4   2   39.90    2.40
  -8  -4   2   78.39    4.50
   8  -4  -2   75.59    4.30
   8  -4  -2   77.89    4.00
   8   4  -2   71.99    4.20
  -8   4   2   65.39    4.00
   7  -4  -2   35.00    2.30
  -7  -4   2   33.40    2.80
   7  -4  -2   34.10    2.80
  -7  -4   2   34.20    3.00
  -7  -4   2   36.80    3.30
  -7  -4   2   32.40    2.50
  -7   4   2   30.90    2.40
  -7   4   2   29.80    2.60
   7   4  -2   31.90    2.50
  -6  -4   2  490.35   21.80
   6  -4  -2  465.65   21.20
   6  -4  -2  431.96   21.40
  -6  -4   2  420.86   21.10
  -6  -4   2  484.15   22.00
  -6  -4   2  474.65   21.50
  -6  -4   2  489.75   21.40
   6   4  -2  476.55   21.50
   6   4  -2  478.05   21.50
  -6   4   2  466.15   21.30
  -6   4   2  466.15   21.50
   5  -4  -2   48.00    3.60
   5  -4  -2   50.99    3.20
  -5  -4   2   57.89    3.50
  -5  -4   2   53.79    3.50
  -5  -4   2   52.99    3.30
  -5  -4   2   52.09    3.70
  -5  -4   2   54.19    4.00
   5  -4  -2   51.79    3.10
  -5   4   2   55.39    2.90
   5   4  -2   55.19    3.40
   5   4  -2   55.49    3.40
  -5   4   2   55.59    3.30
   4  -4  -2  126.09    6.20
  -4  -4   2  121.69    6.40
  -4  -4   2  126.09    6.50
  -4  -4   2  132.19    7.00
   4  -4  -2  118.19    6.20
   4  -4  -2  117.29    8.50
  -4  -4   2  127.79    6.30
  -4  -4   2  123.49    6.70
   4  -4  -2  125.79    6.50
   4  -4  -2  117.09    6.50
   4   4  -2  124.99    9.50
  -4   4   2  126.29    6.40
  -4   4   2  128.59    6.00
   4   4  -2  138.49    6.50
  -4   4   2  132.99    6.80
  -4   4   2  102.39    7.60
   4   4  -2  128.99    6.40
  -3  -4   2   73.39    4.30
  -3  -4   2   79.59    4.90
  -3  -4   2   81.69    4.70
   3  -4  -2   74.69    4.20
   3  -4  -2   74.99    4.30
  -3  -4   2   77.89    4.20
   3  -4  -2   83.69    4.60
  -3  -4   2   80.39    4.40
   3  -4  -2   77.49    4.20
   3  -4  -2   79.59    4.50
   3  -4  -2   76.49    6.40
  -3  -4   2   76.19    4.40
   3  -4  -2   81.09    4.30
   3   4  -2   78.49    6.00
  -3   4   2   92.19    4.70
   3   4  -2   89.69    4.50
   3   4  -2   84.99    4.50
   3   4  -2   77.39    6.80
  -3   4   2   78.29    6.50
  -3   4   2   90.39    4.70
  -3   4   2   70.49    5.50
  -3   4   2   77.69    4.10
  -2  -4   2   90.49    5.30
  -2  -4   2   91.39    4.70
  -2  -4   2   87.89    5.30
  -2  -4   2   86.99    4.70
  -2  -4   2   90.49    4.90
   2  -4  -2   82.39    4.70
  -2  -4   2   86.49    4.70
   2  -4  -2   94.79    6.80
   2  -4  -2   96.39    4.80
   2  -4  -2   94.89    4.70
   2  -4  -2   84.49    4.80
   2   4  -2   94.59    4.90
   2   4  -2   91.09    6.50
   2   4  -2   90.49    4.80
  -2   4   2   94.89    5.00
  -2   4   2   82.49    6.40
  -2   4   2   92.89    5.00
   1  -4  -2  406.16   20.00
   1  -4  -2  370.46   18.60
  -1  -4   2  344.07   18.20
  -1  -4   2  407.36   20.20
   1   4  -2  391.86   19.50
   1   4  -2  352.16   17.60
   1   4  -2  409.76   17.70
  -1   4   2  361.96   17.60
  -1   4   2  392.16   17.60
  -1   4   2  401.26   19.40
   0  -4   2   35.50    4.00
   0  -4  -2   42.50    4.40
   0   4   2   35.70    2.40
   0   4  -2   37.50    2.60
   0   4  -2   38.30    2.60
   0   4   2   36.70    3.60
   0   4  -2   33.80    6.80
   0   4  -2   36.80    4.10
   0   4   2   38.70    2.40
  -1  -4  -2  121.69    8.30
   1  -4   2  119.29    6.30
   1  -4   2  117.19    7.80
  -1  -4  -2  118.59    6.00
  -1  -4  -2  100.59    6.10
  -1  -4  -2  121.89    6.00
   1  -4   2   98.09    5.80
   1   4   2  119.69    5.70
  -1   4  -2  124.89    6.10
  -1   4  -2  120.39    6.10
  -1   4  -2  112.29    7.80
  -1   4  -2  106.19   11.00
   1   4   2  117.19    7.00
  -2  -4  -2  105.69    5.50
  -2  -4  -2  110.09    5.60
  -2  -4  -2  111.79    8.10
  -2  -4  -2   98.79    5.50
   2  -4   2  108.89    5.90
   2  -4   2  102.29    5.40
  -2  -4  -2  106.29    5.70
   2  -4   2  105.49    5.40
   2  -4   2  104.09    7.20
   2   4   2  111.99    6.40
  -2   4  -2  120.49    5.90
  -2   4  -2  106.69    5.20
  -2   4  -2  107.49    5.70
   2   4   2  107.49    5.20
  -2   4  -2  116.69    5.90
   3  -4   2   85.39    4.70
  -3  -4  -2   81.29    4.40
   3  -4   2   80.99    4.30
  -3  -4  -2   80.69    4.50
  -3  -4  -2   77.79    7.10
   3  -4   2   75.89    4.50
   3  -4   2   75.29    4.20
  -3  -4  -2   77.69    4.50
  -3  -4  -2   78.39    4.20
  -3   4  -2   86.89    4.60
  -3   4  -2   82.89    4.00
   3   4   2   79.19    4.90
  -3   4  -2   81.89    4.70
   4  -4   2   86.39    4.90
  -4  -4  -2   83.89    4.70
  -4  -4  -2   81.59    4.90
  -4  -4  -2   86.69    4.50
   4  -4   2   75.09    4.60
   4  -4   2   81.09    4.30
  -4  -4  -2   86.89    4.60
  -4   4  -2   83.99    4.10
  -4   4  -2   80.39    4.40
  -4   4  -2   84.89    4.70
   5  -4   2  261.07   11.90
  -5  -4  -2  242.18   11.50
   5  -4   2  233.48   11.60
  -5  -4  -2  231.58   11.50
   5  -4   2  242.98   11.30
  -5  -4  -2  228.48   11.50
  -5  -4  -2  238.18   11.80
  -5   4  -2  253.67   11.40
  -5   4  -2  251.17   11.60
   6  -4   2   98.49    5.40
   6  -4   2  106.59    5.40
   6  -4   2   96.59    5.60
  -6  -4  -2  100.89    5.30
  -6  -4  -2   90.89    5.60
  -6   4  -2  104.79    5.40
  -6   4  -2   98.29    5.10
   7  -4   2    9.10    1.90
  -7  -4  -2   10.90    2.10
  -7  -4  -2   10.90    1.90
   7  -4   2   13.70    2.10
  -7   4  -2   12.00    1.60
  -7   4  -2   11.20    1.80
   8  -4   2   47.30    3.30
  -8   4  -2   52.59    3.10
  -8   4  -2   50.59    3.00
   9  -4   2    1.00    0.90
  -9   4  -2    2.00    0.80
  -8  -5   2   40.50    2.60
   8  -5  -2   41.10    2.40
  -8   5   2   39.80    2.40
   7  -5  -2   27.80    2.60
   7  -5  -2   37.40    2.40
  -7  -5   2   34.60    2.60
  -7  -5   2   30.50    2.90
  -7  -5   2   34.00    2.50
  -7  -5   2   37.70    2.70
  -7   5   2   38.00    2.40
  -7   5   2   35.00    2.30
   6  -5  -2   46.70    2.90
  -6  -5   2   49.50    3.30
   6  -5  -2   42.70    3.20
  -6  -5   2   42.90    2.90
  -6  -5   2   43.90    3.60
  -6  -5   2   44.10    3.20
  -6  -5   2   45.30    3.20
   6   5  -2   49.20    3.10
  -6   5   2   49.10    3.10
  -6   5   2   51.59    3.00
   5  -5  -2   15.60    1.90
   5  -5  -2   11.70    1.70
  -5  -5   2   11.50    2.10
  -5  -5   2   14.00    1.80
   5  -5  -2   10.10    2.20
  -5  -5   2   11.90    2.00
  -5  -5   2   14.70    2.20
  -5  -5   2   12.70    2.30
   5   5  -2   12.70    1.80
  -5   5   2   14.00    2.00
  -5   5   2   14.00    1.20
  -5   5   2   14.60    1.80
   5   5  -2   13.40    1.80
   4  -5  -2   11.00    1.60
  -4  -5   2    4.10    1.50
   4  -5  -2    6.20    1.30
  -4  -5   2    5.50    1.40
  -4  -5   2    4.70    1.20
   4  -5  -2    7.00    1.50
  -4  -5   2    5.90    1.50
  -4  -5   2    7.10    1.70
   4  -5  -2    6.00    1.60
   4   5  -2    7.70    1.70
  -4   5   2    5.30    1.20
  -4   5   2    4.50    1.20
   4   5  -2    9.40    1.50
   4   5  -2    6.80    1.50
  -4   5   2    6.20    1.10
  -3  -5   2  194.88    9.90
  -3  -5   2  188.08    9.20
  -3  -5   2  188.28    8.90
  -3  -5   2  195.38    9.20
   3  -5  -2  175.08    9.40
   3  -5  -2  187.88    9.00
   3  -5  -2  179.58    9.00
   3  -5  -2  180.38    9.20
   3  -5  -2  178.68    9.10
  -3  -5   2  183.68    9.40
  -3  -5   2  186.38    9.20
   3  -5  -2  194.48    9.10
  -3   5   2  187.58    8.80
   3   5  -2  195.28    9.40
  -3   5   2  184.48    9.50
  -3   5   2  180.38    9.00
   3   5  -2  190.48    9.40
  -3   5   2  191.48    9.50
  -2  -5   2  394.96   18.50
  -2  -5   2  403.36   18.40
   2  -5  -2  385.16   18.40
   2  -5  -2  391.86   18.30
  -2  -5   2  404.26   18.70
   2  -5  -2  412.16   18.40
  -2  -5   2  414.16   18.30
   2  -5  -2  393.76   18.30
  -2  -5   2  406.06   18.40
   2  -5  -2  405.06   18.60
  -2  -5   2  406.76   19.10
   2  -5  -2  388.96   18.90
  -2   5   2  394.96   18.10
   2   5  -2  413.96   18.70
   2   5  -2  417.46   18.70
  -2   5   2  361.86   18.70
  -2   5   2  381.86   18.20
  -2   5   2  419.16   18.80
  -1  -5   2  162.58    8.30
  -1  -5   2  164.38    7.60
   1  -5  -2  151.58    7.80
   1  -5  -2  160.48    7.70
   1  -5  -2  160.48    7.70
  -1  -5   2  153.98    7.80
  -1  -5   2  156.18    8.10
  -1  -5   2  150.48    7.60
   1  -5  -2  151.68    7.70
   1  -5  -2  162.58    7.90
  -1  -5   2  153.48    7.70
   1   5  -2  141.49    7.30
   1   5  -2  135.59    7.90
  -1   5   2  159.38    8.00
  -1   5   2  150.78    7.60
   1   5  -2  160.08    8.00
  -1   5   2  150.68    7.90
   0  -5  -2  125.79    6.60
   0  -5   2  128.69    6.40
   0  -5  -2  127.59    6.60
   0  -5   2  119.19    6.80
   0  -5   2  126.19    7.10
   0  -5   2  123.99    6.50
   0  -5  -2  133.99    6.50
   0  -5   2  123.69    6.50
   0  -5  -2  133.69    6.50
   0  -5   2  138.29    6.50
   0  -5  -2  129.59    6.50
   0   5  -2  129.99    6.80
   0   5  -2  125.79    6.20
   0   5  -2  110.29    6.70
   0   5  -2  127.79    6.60
   0   5   2  125.99    6.60
   0   5   2  126.39    6.60
  -1  -5  -2   20.00    2.10
   1  -5   2   20.40    2.50
  -1  -5  -2   17.30    1.90
  -1  -5  -2   22.20    2.10
   1  -5   2   16.20    1.80
   1  -5   2   18.50    1.90
  -1  -5  -2   20.40    2.00
   1  -5   2   16.80    2.10
   1  -5   2   17.10    1.70
  -1  -5  -2   17.10    1.70
  -1   5  -2   16.20    2.00
   1   5   2   20.10    1.80
  -1   5  -2   15.30    1.50
  -1   5  -2   17.30    2.10
  -1   5  -2   17.20    2.10
   1   5   2   19.40    1.90
  -2  -5  -2  181.38    8.60
   2  -5   2  172.28    8.50
  -2  -5  -2  174.88    8.80
   2  -5   2  188.58    9.30
  -2  -5  -2  162.18    8.60
  -2  -5  -2  184.68    8.70
  -2  -5  -2  175.88    8.60
   2  -5   2  187.18    8.60
  -2   5  -2  170.98    8.70
  -2   5  -2  173.28    8.90
   2   5   2  175.38    8.60
   2   5   2  163.48    8.50
  -2   5  -2  174.58    8.20
  -3  -5  -2   34.20    2.80
   3  -5   2   30.90    2.40
  -3  -5  -2   35.10    2.70
  -3  -5  -2   34.00    3.00
   3  -5   2   33.00    2.30
  -3  -5  -2   35.70    2.40
   3  -5   2   32.80    3.00
   3   5   2   32.00    2.30
  -3   5  -2   34.40    2.60
  -3   5  -2   34.10    2.10
   4  -5   2  210.28   10.30
  -4  -5  -2  187.28    9.40
  -4  -5  -2  204.98    9.70
  -4  -5  -2  211.48    9.90
   4  -5   2  201.58    9.50
  -4  -5  -2  203.28    9.70
  -4   5  -2  193.08    9.10
   4   5   2  192.38    9.50
  -4   5  -2  199.28    9.80
  -5  -5  -2   28.60    2.70
   5  -5   2   24.70    2.70
  -5  -5  -2   30.20    2.30
   5  -5   2   26.90    2.20
  -5  -5  -2   29.80    2.50
  -5   5  -2   26.40    2.30
  -5   5  -2   29.40    2.10
   6  -5   2   16.80    2.40
  -6  -5  -2   16.90    2.00
   6  -5   2   15.80    2.20
  -6  -5  -2   19.90    2.00
  -6   5  -2   19.60    2.00
  -6   5  -2   20.40    1.80
   7  -5   2    4.60    1.20
  -7   5  -2    5.00    1.00
  -7   5  -2    5.80    1.40
   8  -5   2    2.20    0.90
  -8   5  -2    3.10    0.80
  -8   5  -2    2.20    0.70
   7  -6  -2   22.30    1.60
  -6  -6   2  132.89    6.30
  -6  -6   2  118.29    6.00
  -6  -6   2  126.39    6.50
  -6  -6   2  134.29    6.20
   6  -6  -2  137.69    6.20
  -6   6   2  127.09    6.20
  -6   6   2  127.49    6.10
  -5  -6   2   94.99    5.20
   5  -6  -2   90.99    4.60
  -5  -6   2   93.19    4.70
  -5  -6   2   86.99    5.30
  -5  -6   2   90.49    4.80
  -5  -6   2   88.09    4.50
   5   6  -2   85.19    4.60
  -5   6   2   87.69    4.50
   5   6  -2   87.09    4.80
  -5   6   2   91.49    4.70
  -4  -6   2   49.99    3.60
  -4  -6   2   46.30    2.90
  -4  -6   2   38.50    4.10
  -4  -6   2   44.30    3.00
   4  -6  -2   47.20    2.90
   4  -6  -2   48.40    2.90
   4  -6  -2   45.30    2.70
  -4  -6   2   45.70    3.00
  -4   6   2   48.30    2.80
  -4   6   2   47.00    3.10
   4   6  -2   45.20    3.00
  -4   6   2   48.00    2.50
   4   6  -2   43.70    2.60
   3  -6  -2   46.30    3.00
  -3  -6   2   50.49    3.30
  -3  -6   2   52.29    3.80
   3  -6  -2   56.99    3.20
  -3  -6   2   45.30    3.00
   3  -6  -2   53.69    3.00
  -3  -6   2   52.19    3.30
  -3   6   2   48.00    3.40
  -3   6   2   46.20    2.70
   3   6  -2   50.89    3.30
   3   6  -2   44.00    3.30
   3   6  -2   49.80    2.80
   2  -6  -2   64.79    3.60
  -2  -6   2   63.79    3.80
  -2  -6   2   64.99    3.80
  -2  -6   2   65.29    3.70
   2  -6  -2   59.19    3.70
  -2  -6   2   61.39    4.30
   2  -6  -2   68.89    3.60
   2  -6  -2   67.49    3.80
  -2   6   2   55.19    3.90
  -2   6   2   64.09    3.30
   2   6  -2   57.19    3.80
   2   6  -2   54.59    3.90
   2   6  -2   61.79    3.90
  -2   6   2   61.99    4.00
   2   6  -2   61.19    3.30
  -1  -6   2   50.69    3.30
  -1  -6   2   54.29    3.90
   1  -6  -2   49.50    3.00
  -1  -6   2   51.49    3.10
   1  -6  -2   50.39    3.20
  -1  -6   2   53.19    3.10
  -1  -6   2   50.29    3.30
   1  -6  -2   47.70    3.30
   1  -6  -2   51.49    3.40
   1  -6  -2   48.20    3.20
  -1   6   2   52.19    3.40
   1   6  -2   42.80    3.40
  -1   6   2   46.10    3.30
   1   6  -2   50.79    3.40
   1   6  -2   41.10    3.30
  -1   6   2   49.80    2.80
   1   6  -2   50.99    2.80
   0  -6   2    9.40    1.50
   0  -6   2   11.80    1.80
   0  -6  -2   12.20    1.90
   0  -6  -2    9.40    1.60
   0  -6  -2    8.20    1.40
   0  -6   2    9.00    1.50
   0  -6  -2   11.20    2.00
   0  -6  -2    7.00    1.50
   0  -6   2   11.70    2.20
   0  -6   2    9.70    1.90
   0   6  -2    9.10    2.00
   0   6   2    9.40    1.60
   0   6   2   11.50    1.60
   0   6  -2    7.70    1.80
   0   6   2   10.50    1.20
   0   6  -2    9.90    1.20
   0   6  -2   10.80    1.80
  -1  -6  -2    7.60    1.50
  -1  -6  -2    8.90    1.90
   1  -6   2    8.80    2.10
   1  -6   2    9.40    1.90
   1  -6   2    9.30    1.70
  -1  -6  -2    7.50    1.70
  -1  -6  -2    8.60    1.40
   1  -6   2    9.40    1.60
  -1   6  -2    7.70    1.70
  -1   6  -2    7.60    1.00
  -1   6  -2    9.60    1.70
   1   6   2   10.00    1.60
   1   6   2   10.00    1.60
   2  -6   2   78.09    4.20
  -2  -6  -2   64.39    4.00
   2  -6   2   73.89    4.70
  -2  -6  -2   77.49    4.30
  -2  -6  -2   76.19    4.00
  -2  -6  -2   65.99    4.30
   2   6   2   66.89    4.10
   2   6   2   71.79    4.20
  -2   6  -2   72.99    3.70
  -2   6  -2   79.09    4.20
  -3  -6  -2  121.29    6.20
  -3  -6  -2  128.69    6.30
  -3  -6  -2  122.99    6.00
  -3  -6  -2  125.49    6.40
   3  -6   2  122.69    6.10
   3  -6   2  117.39    6.60
  -3   6  -2  130.89    6.30
  -3   6  -2  120.89    5.70
   3   6   2  115.49    6.30
  -4  -6  -2   19.90    2.10
  -4  -6  -2   19.90    1.80
   4  -6   2   19.80    2.40
  -4  -6  -2   21.40    2.10
   4  -6   2   22.70    2.00
  -4  -6  -2   15.40    2.20
  -4   6  -2   19.10    1.70
   4   6   2   19.20    2.10
  -4   6  -2   22.20    2.00
  -5  -6  -2   17.60    1.80
   5  -6   2   14.60    1.60
   5  -6   2   16.60    2.10
  -5  -6  -2   15.80    1.80
  -5  -6  -2   15.60    1.50
  -5   6  -2   16.20    1.60
   6  -6   2    4.30    1.10
  -6   6  -2    5.60    1.10
   3  -7  -2   15.10    1.30
  -3  -7   2   14.60    1.20
  -3  -7   2   13.90    1.50
  -3  -7   2   12.30    1.70
  -3  -7   2   14.00    1.40
  -3   7   2   13.80    1.20
   3   7  -2   13.70    1.00
  -2  -7   2  101.99    4.80
  -2  -7   2  100.09    5.20
  -2  -7   2  104.09    4.90
   2  -7  -2  102.49    4.90
   2  -7  -2   94.79    4.90
  -2  -7   2  104.59    4.90
   2  -7  -2  101.09    4.80
   2   7  -2   91.29    4.70
   2   7  -2  101.79    4.70
  -2   7   2  100.99    4.90
  -2   7   2  102.89    4.70
   1  -7  -2    2.60    0.90
  -1  -7   2    1.70    0.90
   1  -7  -2    1.50    0.60
   1  -7  -2    0.80    0.80
  -1  -7   2    2.20    0.90
   1  -7  -2    1.20    0.70
  -1  -7   2    2.40    0.70
  -1  -7   2    1.40    0.90
  -1   7   2    2.50    0.50
   1   7  -2    2.00    0.50
   1   7  -2    2.20    0.60
  -1   7   2    2.00    0.70
   0  -7   2   27.20    1.90
   0  -7   2   23.50    1.60
   0  -7  -2   21.80    1.90
   0  -7   2   21.50    2.30
   0  -7  -2   25.70    1.90
   0  -7  -2   23.10    1.60
   0  -7  -2   24.30    1.70
   0   7  -2   23.90    1.60
   0   7   2   24.90    1.50
   0   7   2   22.90    1.70
   0   7  -2   23.70    1.40
  -1  -7  -2   90.39    4.60
  -1  -7  -2   92.59    4.70
  -1  -7  -2  103.29    4.70
   1  -7   2   88.99    4.60
   1  -7   2   94.79    5.00
  -1  -7  -2  102.19    4.80
  -1   7  -2   92.59    4.40
  -1   7  -2  101.19    4.70
   1   7   2   87.89    4.50
  -2  -7  -2   26.40    1.80
   2  -7   2   23.60    1.80
   2  -7   2   26.60    2.10
  -2  -7  -2   28.10    1.70
  -2  -7  -2   24.40    1.60
  -2  -7  -2   24.00    1.70
   2   7   2   25.80    1.50
  -2   7  -2   25.60    1.60
  -2   7  -2   29.50    2.10
  -3  -7  -2    6.50    0.70
  -3  -7  -2    8.40    0.90
   3  -7   2    9.40    1.40
  -3   7  -2    5.20    1.20
  12   0  -3   26.60    1.80
 -12   0   3   23.30    1.40
 -11   0   3    0.40    0.60
 -11   0   3    0.60    0.60
 -10   0   3   23.70    2.00
 -10   0   3   27.60    2.00
   9   0  -3   53.49    3.50
  -9   0   3   53.29    3.40
  -9   0   3   56.39    3.30
  -8   0   3  180.28    8.50
   8   0  -3  184.18    8.80
  -8   0   3  178.08    8.60
  -8   0   3  159.98    8.60
   7   0  -3  120.69    5.70
  -7   0   3   97.39    6.60
  -7   0   3  110.99    5.40
  -7   0   3  104.09    5.50
   7   0  -3  106.99    7.40
  -7   0   3  108.19    5.70
   7   0  -3   99.59    7.20
  -6   0   3   45.90    3.70
   6   0  -3   51.19    2.90
   6   0  -3   46.40    4.10
   6   0  -3   47.30    4.30
   5   0  -3   92.89    6.00
   5   0  -3   90.99    5.80
   5   0  -3   84.49    6.90
  -5   0   3   96.39    5.40
   5   0  -3   94.49    4.70
   4   0  -3    0.40    1.30
  -4   0   3    2.10    0.80
   4   0  -3    0.40    0.90
   3   0  -3  990.00   51.99
   3   0  -3 1131.49   51.19
  -3   0   3 1094.59   51.99
   3   0  -3 1255.77   52.19
   3   0  -3 1235.28   54.09
  -3   0   3 1257.97   51.69
  -2   0   3   83.39    5.00
   2   0  -3   88.59    5.00
   2   0  -3   89.69    5.00
  -2   0   3   92.19    4.70
   2   0  -3  108.49    6.70
  -1   0   3  324.87   14.90
  -1   0   3  333.47   14.60
   1   0  -3  332.47   14.80
   1   0  -3  318.57   14.90
   1   0  -3  290.77   16.20
   0   0   3  844.42   35.80
   0   0  -3  844.72   35.50
   0   0  -3  750.22   37.00
   0   0  -3  810.82   35.50
   0   0  -3  749.82   35.70
  -1   0  -3 2499.35  101.89
   1   0   3 2086.79  102.09
   1   0   3 2332.77  101.89
  -1   0  -3 2493.65  103.29
  -1   0  -3 2162.58  101.39
   2   0   3  412.06   20.80
   2   0   3  460.95   20.70
  -2   0  -3  471.55   20.70
   2   0   3  411.96   21.60
  -2   0  -3  524.45   21.80
  -3   0  -3  131.49    7.20
   3   0   3  143.89    7.20
  -3   0  -3  155.48    7.60
   3   0   3  150.18    6.60
   4   0   3    8.50    0.70
   4   0   3    8.20    1.10
  -4   0  -3    8.90    1.30
  -5   0  -3   13.20    1.80
   5   0   3   14.50    1.10
   5   0   3   14.70    1.70
   6   0   3  464.15   21.60
   6   0   3  504.85   22.90
  -6   0  -3  475.65   22.90
  -7   0  -3   96.39    5.00
  -7   0  -3  100.29    6.60
  -7   0  -3   98.39    5.10
   7   0   3   97.79    6.30
   7   0   3   96.89    5.00
  -7   0  -3   98.29    4.90
  -8   0  -3   26.70    2.00
  -8   0  -3   28.70    2.00
   8   0   3   29.00    2.00
  -8   0  -3   28.10    2.20
  -9   0  -3  182.48    9.00
  -9   0  -3  186.68    9.10
  -9   0  -3  193.88    9.10
   9   0   3  199.48    9.20
 -10   0  -3   12.50    1.40
 -10   0  -3   13.40    1.40
 -10   0  -3   12.50    1.60
  11   0   3   82.29    4.30
 -11   0  -3   86.79    4.20
 -11   0  -3   85.89    4.20
 -12  -1   3    4.40    0.80
  11  -1  -3   21.20    1.60
 -11  -1   3   19.60    1.50
 -11   1   3   19.20    1.50
 -11   1   3   21.20    1.60
 -10  -1   3  165.78    8.50
 -10  -1   3  183.68    8.40
 -10   1   3  180.28    8.50
  10   1  -3  170.88    8.80
 -10   1   3  194.28    8.50
  -9  -1   3   70.99    3.90
  -9  -1   3   73.29    4.10
  -9  -1   3   71.79    4.30
  -9   1   3   71.69    4.00
  -9   1   3   67.59    3.90
   9   1  -3   72.29    4.20
  -8  -1   3  154.48    8.00
  -8  -1   3  168.28    7.90
  -8  -1   3  145.79    7.50
   8   1  -3  160.78    8.00
  -8   1   3  160.48    7.80
  -8   1   3  157.38    7.70
   7  -1  -3  207.28   10.70
  -7  -1   3  245.38   11.00
   7  -1  -3  238.28   11.00
  -7  -1   3  228.48   10.70
  -7  -1   3  229.38   11.10
   7  -1  -3  231.48   12.90
   7   1  -3  252.67   13.60
   7   1  -3  212.68   12.70
  -7   1   3  235.38   12.60
  -7   1   3  224.28   10.80
  -7   1   3  243.58   10.90
   7   1  -3  230.98   11.10
   6  -1  -3  195.08    9.30
   6  -1  -3  205.28   11.00
   6  -1  -3  179.08   13.20
   6   1  -3  190.78   10.80
  -6   1   3  201.78   10.70
   6   1  -3  200.28   11.30
   6   1  -3  194.38    9.30
   5  -1  -3  344.87   17.20
   5  -1  -3  354.56   17.30
   5  -1  -3  337.07   15.80
  -5  -1   3  312.37   16.20
   5   1  -3  359.66   17.60
   5   1  -3  338.77   19.70
   5   1  -3  351.56   15.90
  -5   1   3  370.66   17.10
   5   1  -3  370.96   17.40
   4  -1  -3   83.89    5.20
   4  -1  -3   83.39    6.40
   4  -1  -3   78.69    4.10
  -4  -1   3   82.19    4.40
   4  -1  -3   84.29    5.10
  -4   1   3   80.59    5.50
   4   1  -3   83.69    4.20
  -4   1   3   81.39    5.00
   4   1  -3   76.99    5.30
   4   1  -3   85.89    7.10
   4   1  -3   88.59    5.30
   3  -1  -3  103.69    6.30
  -3  -1   3  117.49    5.70
   3  -1  -3  124.69    6.50
   3  -1  -3  130.49    8.10
  -3   1   3  117.79    6.60
   3   1  -3  129.59    8.70
   3   1  -3  122.89    5.70
   3   1  -3  128.49    6.60
  -3   1   3  119.39    6.30
   3   1  -3  105.59    6.50
  -3   1   3  108.99    5.70
  -2  -1   3  524.15   23.90
  -2  -1   3  478.95   24.40
   2  -1  -3  507.55   24.50
   2  -1  -3  520.45   24.40
   2  -1  -3  580.74   26.50
  -2   1   3  485.75   23.80
   2   1  -3  568.34   24.80
   2   1  -3  586.34   24.80
  -2   1   3  581.74   24.80
   2   1  -3  576.54   27.10
  -2   1   3  506.85   24.40
   2   1  -3  526.45   23.90
   1  -1  -3   29.60    3.10
  -1  -1   3   30.80    1.70
   1  -1  -3   28.70    2.00
  -1  -1   3   29.90    2.20
   1  -1  -3   32.60    2.20
   1   1  -3   36.30    2.50
   1   1  -3   31.70    2.20
   1   1  -3   29.10    3.30
  -1   1   3   31.00    2.10
  -1   1   3   35.00    2.30
   0  -1  -3 4023.10  166.38
   0  -1  -3 3323.97  167.88
   0  -1   3 3888.81  166.48
   0   1  -3 3966.80  168.48
   0   1  -3 3902.91  166.68
   0   1   3 3510.05  166.18
   0   1   3 3718.43  166.28
   0   1  -3 3831.22  166.18
   0   1   3 3661.03  166.18
   0   1  -3 4018.60  165.88
  -1  -1  -3 3079.79  136.49
   1  -1   3 3106.69  136.79
  -1  -1  -3 3085.79  136.59
  -1  -1  -3 3223.38  138.59
  -1   1  -3 2868.61  136.19
  -1   1  -3 3007.50  136.29
   1   1   3 3067.39  136.39
   1   1   3 3251.37  136.39
  -1   1  -3 3095.19  136.99
  -1   1  -3 3267.37  138.39
   2  -1   3  157.38    7.30
  -2  -1  -3  150.08    6.90
  -2  -1  -3  137.19    8.50
  -2  -1  -3  128.49    6.90
   2  -1   3  155.58    6.50
   2   1   3  136.69    6.50
  -2   1  -3  136.39    6.90
   2   1   3  133.19    6.60
  -2   1  -3  127.29    7.20
  -2   1  -3  135.69    7.80
   3  -1   3 1065.39   45.40
  -3  -1  -3  985.70   47.70
   3  -1   3 1050.69   46.20
  -3  -1  -3 1008.80   46.00
  -3   1  -3 1043.20   46.00
   3   1   3 1095.79   45.50
   3   1   3  950.20   45.60
   4  -1   3  333.77   15.10
   4  -1   3  334.57   16.10
  -4  -1  -3  324.67   15.80
  -4   1  -3  334.47   15.90
   4   1   3  344.47   15.30
   5  -1   3  514.65   23.50
  -5  -1  -3  536.55   24.60
   5  -1   3  551.74   24.90
   5   1   3  545.75   24.00
  -5   1  -3  540.25   24.70
   5   1   3  470.05   23.20
  -6  -1  -3   47.60    3.20
  -6  -1  -3   46.60    2.60
  -6  -1  -3   51.09    3.90
  -6  -1  -3   44.60    2.70
   6  -1   3   48.50    2.70
   6  -1   3   49.80    4.00
   6   1   3   45.90    2.50
   6   1   3   49.30    3.30
  -6   1  -3   46.20    2.80
  -6   1  -3   40.40    2.70
  -6   1  -3   49.90    4.00
  -7  -1  -3   38.60    2.60
   7  -1   3   42.20    4.20
   7  -1   3   44.00    2.70
  -7  -1  -3   41.10    2.60
  -7  -1  -3   44.90    2.60
  -7  -1  -3   40.80    4.10
   7   1   3   44.40    2.50
  -7   1  -3   40.10    2.60
  -7   1  -3   41.70    4.20
  -7   1  -3   41.70    2.60
  -7   1  -3   42.60    2.70
  -8  -1  -3   58.09    3.50
  -8  -1  -3   61.29    3.50
   8  -1   3   61.79    3.60
  -8  -1  -3   62.59    3.40
  -8   1  -3   61.19    3.60
  -8   1  -3   60.29    3.40
   8   1   3   60.79    3.40
  -8   1  -3   58.39    3.30
   9  -1   3    0.90    0.90
  -9  -1  -3    0.90    0.70
  -9  -1  -3    0.30    0.80
  -9   1  -3    0.40    0.60
   9   1   3    0.60    0.60
  -9   1  -3    0.30    0.60
  -9   1  -3    2.30    1.00
 -10  -1  -3  131.79    6.20
 -10  -1  -3  122.29    6.20
  10  -1   3  128.69    6.50
 -10   1  -3  126.19    6.10
 -10   1  -3  133.79    6.30
 -10   1  -3  128.99    6.20
 -11  -1  -3   47.40    2.40
  11  -1   3   43.60    2.60
 -11  -1  -3   46.10    2.40
 -11   1  -3   42.10    2.40
 -11   1  -3   45.60    2.40
 -11   1  -3   47.70    2.50
 -11  -2   3    7.90    0.90
  11  -2  -3    6.70    1.40
  11  -2  -3    8.80    1.10
 -11   2   3    7.60    1.00
  10  -2  -3   34.70    2.30
 -10  -2   3   33.00    2.60
 -10  -2   3   33.50    2.20
  10  -2  -3   33.60    2.60
 -10   2   3   32.30    2.20
 -10   2   3   28.70    2.20
  -9  -2   3  329.07   14.40
  -9  -2   3  311.37   14.70
   9   2  -3  296.47   14.60
  -9   2   3  303.97   14.30
  -9   2   3  310.47   14.30
  -8  -2   3   19.80    1.90
  -8  -2   3   21.30    2.30
   8   2  -3   22.20    2.10
  -8   2   3   21.20    2.00
  -8   2   3   22.20    1.90
  -7  -2   3  206.88    9.90
   7  -2  -3  178.08   11.30
  -7  -2   3  203.58   10.00
   7  -2  -3  195.48    9.40
  -7  -2   3  212.38    9.60
   7   2  -3  183.18   12.10
  -7   2   3  190.28   11.30
  -7   2   3  197.08    9.40
   7   2  -3  197.18    9.70
  -7   2   3  211.48    9.50
  -6  -2   3   20.30    1.70
  -6  -2   3   16.10    2.10
   6  -2  -3   17.80    2.20
  -6  -2   3   14.90    1.90
  -6  -2   3   17.80    1.70
  -6  -2   3   18.90    1.90
   6  -2  -3   17.80    3.10
  -6   2   3   21.10    3.10
   6   2  -3   17.00    2.90
   6   2  -3   26.00    4.00
  -6   2   3   21.30    1.80
  -6   2   3   18.00    1.60
   6   2  -3   17.10    1.70
   5  -2  -3  239.38   12.70
   5   2  -3  257.37   13.40
   5   2  -3  242.78   11.20
   5   2  -3  202.78   15.60
   5   2  -3  242.08   12.70
  -5   2   3  255.37   12.60
   4  -2  -3   39.90    3.30
   4  -2  -3   34.50    4.40
  -4   2   3   42.80    3.30
   4   2  -3   36.40    2.30
  -4   2   3   36.70    3.60
  -4   2   3   35.60    2.40
   4   2  -3   38.60    2.30
   4   2  -3   38.90    3.30
  -4   2   3   34.80    2.40
   4   2  -3   40.20    5.70
   4   2  -3   37.30    3.60
   3  -2  -3  579.54   28.70
   3  -2  -3  625.94   31.30
   3   2  -3  658.33   32.60
  -3   2   3  636.84   27.80
   3   2  -3  631.94   27.70
   3   2  -3  659.13   29.00
   3   2  -3  630.04   27.70
  -3   2   3  624.94   28.70
   3   2  -3  564.54   27.60
   3   2  -3  610.74   29.20
  -3   2   3  632.04   29.20
  -3   2   3  595.14   27.80
   2  -2  -3  308.37   16.60
   2  -2  -3  373.36   19.30
   2   2  -3  359.16   16.90
   2   2  -3  348.87   15.80
  -2   2   3  339.07   15.80
   2   2  -3  348.27   15.80
   2   2  -3  335.47   17.00
   2   2  -3  370.46   20.00
  -2   2   3  358.36   16.60
  -2   2   3  350.56   16.90
   1  -2  -3 1116.29   50.69
   1  -2  -3 1005.70   47.90
   1   2  -3 1126.49   51.29
  -1   2   3 1053.19   47.60
  -1   2   3 1017.20   46.90
   1   2  -3 1045.90   47.00
  -1   2   3 1056.39   47.80
   1   2  -3 1086.79   48.10
   0  -2  -3   47.60    4.80
   0  -2  -3   47.70    3.20
   0  -2   3   46.50    3.10
   0  -2   3   39.80    3.00
   0   2  -3   43.40    2.40
   0   2  -3   45.50    3.30
   0   2   3   36.60    2.70
   0   2   3   45.30    2.90
   0   2   3   39.40    2.10
   0   2  -3   47.00    4.80
   1  -2   3  322.17   15.90
  -1  -2  -3  360.56   16.40
  -1  -2  -3  356.16   19.10
   1  -2   3  324.17   16.20
   1   2   3  330.87   15.50
  -1   2  -3  349.37   18.50
  -1   2  -3  304.77   15.40
  -1   2  -3  327.57   15.40
  -1   2  -3  337.27   16.50
   1   2   3  367.26   15.70
   1   2   3  363.96   16.00
  -2  -2  -3 1552.04   69.69
   2  -2   3 1510.35   66.39
   2  -2   3 1338.47   65.29
  -2  -2  -3 1520.65   66.49
   2  -2   3 1394.46   65.79
  -2   2  -3 1467.75   66.69
  -2   2  -3 1474.15   65.69
  -2   2  -3 1477.25   68.09
   2   2   3 1455.85   65.29
   2   2   3 1641.14   65.29
   3  -2   3  328.37   15.50
   3  -2   3  292.27   14.20
  -3  -2  -3  322.27   14.90
  -3  -2  -3  306.07   15.40
  -3   2  -3  320.57   14.90
   4  -2   3  572.54   27.50
   4  -2   3  601.44   26.20
  -4  -2  -3  594.24   26.90
  -4   2  -3  566.64   27.00
   5  -2   3  199.78   11.70
   5  -2   3  237.78   10.40
  -5  -2  -3  205.48   11.20
  -5   2  -3  243.48   11.60
   5   2   3  218.88   10.30
  -6  -2  -3  179.38    8.50
  -6  -2  -3  180.58    8.50
  -6  -2  -3  169.38    8.70
   6  -2   3  178.48    8.90
   6  -2   3  198.08    8.80
  -6   2  -3  178.38    8.60
   6   2   3  182.98    8.80
  -6   2  -3  176.38    8.80
  -6   2  -3  187.48   10.10
  -6   2  -3  179.68    8.50
  -7  -2  -3  203.18    9.30
  -7  -2  -3  200.18    9.40
  -7  -2  -3  198.08    9.70
   7  -2   3  196.08    9.80
   7  -2   3  195.28    9.60
  -7   2  -3  192.98    9.60
   7   2   3  193.98    9.20
  -7   2  -3  208.38    9.50
  -7   2  -3  197.68    9.30
  -8  -2  -3   37.00    2.40
  -8  -2  -3   38.40    2.50
   8  -2   3   42.30    3.10
  -8   2  -3   34.20    2.30
   8   2   3   36.30    2.30
  -8   2  -3   39.30    2.70
   9  -2   3   76.79    4.40
  -9  -2  -3   76.09    3.90
  -9  -2  -3   75.59    3.80
  -9   2  -3   65.39    4.00
   9   2   3   68.49    3.80
  -9   2  -3   76.89    3.90
  10  -2   3  186.38    8.90
 -10  -2  -3  193.48    8.60
 -10  -2  -3  168.88    8.40
 -10   2  -3  187.08    8.60
 -10   2  -3  183.98    8.50
  11  -2   3    3.00    0.80
 -11  -2  -3    3.30    0.70
 -11   2  -3    3.80    0.70
 -11   2  -3    2.40    0.70
  11  -3  -3   20.60    1.60
  10  -3  -3   38.30    2.60
 -10  -3   3   46.00    2.80
 -10  -3   3   43.60    2.40
  10  -3  -3   47.60    2.50
 -10   3   3   43.10    2.50
 -10   3   3   42.00    2.50
  -9  -3   3  151.38    8.00
   9  -3  -3  165.68    7.70
  -9  -3   3  161.48    7.60
   9  -3  -3  157.58    7.90
  -9   3   3  167.28    7.80
   9   3  -3  152.38    8.00
  -9   3   3  171.38    7.70
  -8  -3   3   20.40    2.30
   8  -3  -3   22.50    1.90
   8  -3  -3   17.40    2.20
  -8  -3   3   21.50    1.90
  -8   3   3   20.30    1.90
   8   3  -3   22.50    2.10
  -8   3   3   21.90    2.00
   7  -3  -3  127.79    6.50
  -7  -3   3  134.69    6.80
  -7  -3   3  133.39    7.10
   7  -3  -3  121.79    6.80
  -7  -3   3  135.29    7.40
  -7   3   3  131.39    6.60
   7   3  -3  138.09    6.90
  -7   3   3  130.39    6.60
  -6  -3   3  449.06   20.60
  -6  -3   3  446.86   20.80
  -6  -3   3  393.16   20.00
   6  -3  -3  462.35   20.10
   6  -3  -3  428.56   20.30
   6  -3  -3  379.66   22.00
  -6  -3   3  449.36   20.30
   6  -3  -3  429.66   20.10
  -6  -3   3  477.15   20.40
   6   3  -3  482.55   20.50
  -6   3   3  440.16   20.10
  -6   3   3  477.45   20.30
  -6   3   3  452.95   22.30
   6   3  -3  443.06   23.50
   5  -3  -3  442.76   20.90
  -5  -3   3  452.45   21.10
   5  -3  -3  483.45   23.20
  -5  -3   3  460.05   21.50
   5  -3  -3  413.86   21.00
  -5  -3   3  470.05   21.20
   5  -3  -3  479.95   20.90
  -5  -3   3  435.86   21.00
  -5  -3   3  495.65   21.50
   5   3  -3  480.85   24.00
   5   3  -3  493.15   21.20
  -5   3   3  437.86   20.90
   5   3  -3  428.16   22.80
  -5   3   3  465.45   20.70
  -5   3   3  475.15   21.10
   5   3  -3  484.55   21.30
  -5   3   3  499.65   23.00
   4  -3  -3    8.20    2.30
  -4   3   3   10.00    2.20
   4   3  -3    7.90    1.20
  -4   3   3    8.00    1.40
   4   3  -3    8.90    2.90
   4   3  -3    8.10    2.20
   4   3  -3    7.20    3.80
  -4   3   3    9.30    1.30
   4   3  -3    9.50    1.30
   3  -3  -3  282.87   14.20
   3  -3  -3  244.08   16.90
   3   3  -3  265.07   12.50
  -3   3   3  268.67   13.70
   3   3  -3  263.07   12.50
  -3   3   3  285.07   12.70
   3   3  -3  262.27   18.30
  -3   3   3  265.27   14.30
   3   3  -3  275.37   14.10
  -3   3   3  274.67   12.60
   3   3  -3  275.07   14.60
   3   3  -3  268.77   12.50
   2  -3  -3  491.85   24.40
   2  -3  -3  505.15   28.10
   2   3  -3  538.85   25.00
   2   3  -3  490.55   23.00
   2   3  -3  519.35   24.50
   2   3  -3  520.15   23.00
  -2   3   3  506.95   24.50
  -2   3   3  517.65   24.00
   2   3  -3  522.95   29.10
  -2   3   3  516.35   23.00
  -2   3   3  473.15   23.00
   1  -3  -3  600.64   27.20
   1  -3  -3  546.65   30.50
  -1   3   3  579.74   26.80
   1   3  -3  577.44   31.30
   1   3  -3  541.15   25.60
  -1   3   3  572.04   25.50
  -1   3   3  518.15   25.40
   1   3  -3  602.54   27.20
   1   3  -3  567.64   25.60
  -1   3   3  584.84   26.50
   0  -3  -3   92.69    8.80
   0  -3  -3  101.59    6.30
   0  -3   3   94.19    6.10
   0   3  -3   92.29    6.10
   0   3  -3   89.99    8.50
   0   3   3   95.39    5.50
   0   3   3   99.29    5.70
   0   3  -3   94.99    4.90
   0   3   3   91.99    4.60
   0   3  -3   95.19    4.90
   1  -3   3   37.50    3.20
  -1  -3  -3   36.70    3.60
  -1  -3  -3   35.90    5.40
  -1   3  -3   32.30    2.30
   1   3   3   31.60    1.70
  -1   3  -3   35.20    2.30
   1   3   3   37.10    2.70
  -1   3  -3   32.60    5.00
  -1   3  -3   36.20    3.40
   1   3   3   36.10    2.80
  -2  -3  -3  130.29    7.70
   2   3   3  127.19    6.20
   2   3   3  121.49    6.60
  -2   3  -3  112.69    9.30
  -2   3  -3  113.09    6.00
  -2   3  -3  115.09    6.20
  -3  -3  -3  127.09    8.10
   3   3   3  127.09   11.70
   3   3   3  131.39    6.30
   3   3   3  131.09    7.20
   4  -3   3    7.50    1.60
  -4   3  -3    7.20    1.40
   5  -3   3    1.10    0.90
  -5   3  -3    1.70    0.80
  -5   3  -3    1.80    0.90
  -5   3  -3    3.30    1.70
   6  -3   3   84.89    4.80
  -6  -3  -3   77.89    4.60
  -6   3  -3   82.79    4.60
  -6   3  -3   81.89    4.40
  -7  -3  -3    9.60    1.90
   7  -3   3   10.80    1.80
  -7  -3  -3   10.30    1.30
  -7   3  -3    9.20    1.60
  -7   3  -3    8.50    1.80
  -8  -3  -3  223.98   10.50
   8  -3   3  227.28   11.00
  -8   3  -3  233.28   10.80
  -8   3  -3  225.58   10.70
  -9  -3  -3   67.59    3.60
   9  -3   3   72.19    4.10
  -9   3  -3   71.19    3.80
  10  -3   3   99.19    4.80
  10  -3   3   87.09    4.60
 -10   3  -3   93.49    4.50
  10  -4  -3  105.69    5.20
 -10  -4   3  103.39    5.30
 -10   4   3  123.19    5.40
  -9  -4   3   44.70    2.80
   9  -4  -3   43.40    2.50
  -9   4   3   37.50    2.70
  -9   4   3   42.90    2.60
   8  -4  -3  110.39    5.70
   8  -4  -3  110.49    6.00
  -8  -4   3  107.89    6.00
  -8   4   3  119.89    5.60
   8   4  -3  126.79    7.10
  -8   4   3  112.69    5.70
  -7  -4   3    8.30    1.60
  -7  -4   3    6.30    1.50
   7  -4  -3    6.70    1.30
   7  -4  -3    7.60    1.30
  -7  -4   3    9.30    1.70
  -7  -4   3    4.40    1.40
  -7   4   3   10.70    1.40
  -7   4   3    9.20    1.50
   7   4  -3    7.70    1.60
  -6  -4   3  394.36   18.40
  -6  -4   3  362.46   17.80
   6  -4  -3  402.96   17.80
  -6  -4   3  392.36   18.00
   6  -4  -3  371.16   17.80
  -6  -4   3  397.26   18.60
  -6  -4   3  409.66   18.10
  -6   4   3  381.06   18.00
   6   4  -3  401.56   18.20
  -5  -4   3  120.69    6.40
   5  -4  -3  124.59    6.10
  -5  -4   3  119.89    6.30
  -5  -4   3  117.39    6.80
  -5  -4   3  115.99    6.10
   5  -4  -3  122.59    6.40
  -5  -4   3  120.39    6.60
   5  -4  -3  114.09    6.10
  -5   4   3  119.09    6.20
   5   4  -3  124.59    6.50
  -5   4   3  123.19    5.80
   5   4  -3  130.29    6.50
  -4  -4   3  392.56   17.10
  -4  -4   3  398.56   17.60
   4  -4  -3  392.56   17.00
  -4  -4   3  372.76   17.20
   4  -4  -3  331.07   19.30
   4  -4  -3  367.76   17.00
   4  -4  -3  367.36   17.20
  -4  -4   3  373.36   17.70
  -4  -4   3  358.06   17.10
  -4   4   3  376.16   16.80
  -4   4   3  376.76   17.50
   4   4  -3  382.96   17.30
  -4   4   3  363.26   17.10
   4   4  -3  376.56   17.30
  -4   4   3  398.46   17.50
   4   4  -3  330.77   19.90
  -4   4   3  320.47   18.60
   4   4  -3  386.56   17.30
  -3  -4   3   33.70    2.90
   3  -4  -3   39.60    2.80
   3  -4  -3   33.90    2.50
   3  -4  -3   35.90    2.50
  -3  -4   3   35.20    2.50
   3  -4  -3   33.80    4.30
  -3  -4   3   32.80    2.40
  -3  -4   3   37.30    3.10
  -3  -4   3   39.30    2.50
   3  -4  -3   36.50    2.50
  -3  -4   3   36.40    2.60
   3  -4  -3   37.30    2.40
  -3   4   3   39.60    2.80
   3   4  -3   37.70    4.80
  -3   4   3   34.10    3.80
   3   4  -3   34.60    2.60
  -3   4   3   35.70    2.20
  -3   4   3   32.90    4.50
  -3   4   3   40.20    2.80
   3   4  -3   39.30    4.40
   3   4  -3   33.10    2.50
   3   4  -3   40.60    2.80
   2  -4  -3   50.29    4.90
  -2  -4   3   47.50    3.50
  -2  -4   3   44.60    2.90
  -2  -4   3   47.40    3.40
  -2  -4   3   44.70    3.00
   2  -4  -3   46.70    2.90
   2  -4  -3   47.20    2.90
   2  -4  -3   50.19    3.10
  -2  -4   3   46.40    3.00
   2  -4  -3   47.80    2.90
  -2  -4   3   49.00    3.10
   2  -4  -3   46.50    3.00
   2   4  -3   51.59    3.20
   2   4  -3   44.90    3.00
   2   4  -3   47.20    5.10
  -2   4   3   48.70    4.30
  -2   4   3   47.40    4.80
  -2   4   3   58.09    3.30
   2   4  -3   48.70    4.80
  -2   4   3   50.89    2.80
  -2   4   3   48.10    3.10
   1  -4  -3  334.07   15.90
  -1  -4   3  350.16   16.30
   1  -4  -3  339.57   15.90
   1  -4  -3  341.27   15.90
   1  -4  -3  363.26   18.60
   1  -4  -3  339.87   16.00
  -1  -4   3  336.37   16.10
  -1  -4   3  327.47   15.90
   1  -4  -3  338.77   16.10
  -1  -4   3  347.47   16.50
  -1  -4   3  351.26   15.90
  -1  -4   3  349.37   15.80
   1  -4  -3  343.17   15.90
  -1   4   3  363.56   16.20
  -1   4   3  364.66   17.90
  -1   4   3  318.47   16.00
   1   4  -3  368.26   16.30
   1   4  -3  340.37   18.30
   1   4  -3  377.56   16.30
   0  -4   3   39.70    3.30
   0  -4  -3   47.10    4.90
   0  -4   3   46.50    3.30
   0  -4  -3   47.40    2.80
   0  -4  -3   48.50    3.00
   0  -4   3   46.80    4.60
   0  -4  -3   46.90    3.10
   0  -4  -3   45.00    2.90
   0  -4   3   47.40    2.80
   0  -4   3   36.10    2.80
   0  -4  -3   43.80    2.90
   0   4   3   55.29    4.30
   0   4  -3   41.70    4.60
   0   4   3   45.00    2.80
   0   4  -3   52.09    3.10
   0   4  -3   42.10    2.60
   0   4   3   49.90    2.80
   0   4  -3   51.39    3.10
  -1  -4  -3   28.30    2.00
  -1  -4  -3   24.30    4.10
   1  -4   3   23.70    1.90
   1  -4   3   21.60    2.60
   1  -4   3   24.10    2.00
  -1  -4  -3   24.50    2.00
   1  -4   3   23.90    2.30
  -1  -4  -3   23.40    2.10
  -1  -4  -3   29.90    2.20
  -1  -4  -3   23.50    2.20
  -1   4  -3   28.20    2.20
  -1   4  -3   24.00    1.70
  -1   4  -3   25.50    4.20
  -1   4  -3   29.00    2.20
   1   4   3   27.30    3.00
   1   4   3   26.70    1.80
  -1   4  -3   28.70    2.20
  -2  -4  -3  118.59    5.90
  -2  -4  -3  108.69    5.90
   2  -4   3  112.19    5.70
   2  -4   3  103.89    5.60
  -2  -4  -3  109.09    8.20
  -2  -4  -3  113.99    5.90
   2  -4   3  112.39    6.00
  -2  -4  -3  113.89    5.70
  -2  -4  -3  109.49    5.80
   2  -4   3  114.69    6.20
  -2   4  -3  115.79    5.90
  -2   4  -3  117.09    6.00
   2   4   3  114.49    6.60
   2   4   3  114.69    5.40
  -2   4  -3  117.49    5.50
  -3  -4  -3  177.18    8.60
  -3  -4  -3  182.28    8.50
  -3  -4  -3  165.88    8.50
  -3  -4  -3  148.79   11.00
  -3  -4  -3  165.08    8.30
   3  -4   3  177.78    8.80
   3  -4   3  177.38    8.60
  -3  -4  -3  181.98    8.30
  -3   4  -3  182.38    8.00
   3   4   3  159.38    8.70
  -3   4  -3  173.58    8.50
  -4  -4  -3  122.89    6.20
   4  -4   3  121.19    6.40
  -4  -4  -3  106.79    6.30
   4  -4   3  124.09    6.60
  -4  -4  -3  118.49    6.00
  -4  -4  -3  119.89    6.40
  -4   4  -3  128.79    6.40
  -4   4  -3  121.99    6.20
  -4   4  -3  124.19    6.10
   5  -4   3  318.07   15.00
   5  -4   3  327.97   15.20
  -5   4  -3  322.67   15.00
  -5   4  -3  306.97   14.60
   6  -4   3   64.89    4.00
   6  -4   3   65.29    4.20
  -6   4  -3   64.99    4.00
  -6   4  -3   66.69    3.70
   7  -4   3   27.70    2.40
   7  -4   3   25.90    2.60
  -7   4  -3   27.50    2.30
  -7   4  -3   27.80    2.20
   8  -4   3   42.80    3.00
   8  -4   3   37.10    2.70
  -8   4  -3   39.90    2.60
  -8   4  -3   42.60    2.60
   9  -4   3  103.69    5.20
  -9   4  -3  100.29    4.90
  -8  -5   3   75.49    4.10
   8  -5  -3   74.79    3.90
  -8   5   3   80.99    4.00
  -7  -5   3   78.39    4.20
  -7  -5   3   81.19    4.40
  -7  -5   3   76.79    4.70
   7  -5  -3   81.19    4.10
  -7   5   3   79.49    4.10
  -7   5   3   68.89    4.00
   6  -5  -3  127.29    6.20
  -6  -5   3  115.79    6.20
  -6  -5   3  128.79    6.20
  -6  -5   3  115.09    6.30
  -6  -5   3  112.79    6.70
  -6  -5   3  134.39    6.60
   6  -5  -3  117.69    6.10
  -6   5   3  127.49    6.30
  -6   5   3  129.39    6.20
   6   5  -3  121.09    6.40
   5  -5  -3   17.70    1.90
  -5  -5   3   16.40    2.10
  -5  -5   3   14.70    2.10
  -5  -5   3   18.20    2.00
  -5  -5   3   16.50    2.30
   5  -5  -3   19.90    2.00
  -5  -5   3   15.10    2.30
   5   5  -3   19.60    2.00
  -5   5   3   16.30    1.90
   5   5  -3   17.60    2.10
  -5   5   3   19.70    1.40
  -4  -5   3   43.30    3.70
  -4  -5   3   47.80    3.50
   4  -5  -3   45.10    2.90
   4  -5  -3   48.80    3.10
  -4  -5   3   46.80    3.30
   4  -5  -3   45.40    3.30
  -4  -5   3   48.10    3.00
   4  -5  -3   45.40    3.00
  -4  -5   3   44.80    3.10
  -4   5   3   43.80    2.60
   4   5  -3   44.60    3.20
  -4   5   3   44.10    3.30
  -4   5   3   45.30    3.00
   4   5  -3   46.90    3.30
  -3  -5   3  247.68   11.80
   3  -5  -3  254.27   12.00
  -3  -5   3  246.68   11.90
   3  -5  -3  262.07   11.80
  -3  -5   3  253.67   12.60
   3  -5  -3  239.38   11.80
   3  -5  -3  239.88   11.80
  -3  -5   3  250.07   11.90
   3  -5  -3  249.58   11.70
  -3  -5   3  262.87   12.30
  -3   5   3  246.18   11.80
   3   5  -3  251.27   12.20
   3   5  -3  257.17   12.20
  -3   5   3  262.67   12.30
   3   5  -3  223.18   11.50
   3   5  -3  250.97   12.10
  -3   5   3  252.47   11.50
  -3   5   3  243.78   12.30
   2  -5  -3  300.57   13.80
   2  -5  -3  313.17   13.90
  -2  -5   3  294.17   13.90
   2  -5  -3  290.87   13.80
   2  -5  -3  287.47   13.90
   2  -5  -3  302.27   14.10
  -2  -5   3  314.67   14.30
  -2  -5   3  302.77   13.70
  -2  -5   3  291.47   13.80
  -2  -5   3  303.97   13.80
  -2  -5   3  299.47   14.50
  -2   5   3  258.97   14.10
  -2   5   3  302.57   14.30
   2   5  -3  304.67   14.20
   2   5  -3  286.47   13.50
   2   5  -3  264.97   14.10
  -2   5   3  306.17   13.60
  -1  -5   3  271.97   13.30
   1  -5  -3  284.27   13.40
   1  -5  -3  282.77   13.30
   1  -5  -3  298.67   13.30
   1  -5  -3  275.07   13.40
  -1  -5   3  277.67   13.30
  -1  -5   3  287.77   13.70
  -1  -5   3  278.87   13.90
  -1  -5   3  299.37   13.30
  -1  -5   3  288.67   13.30
   1  -5  -3  288.47   13.50
  -1   5   3  291.47   13.70
   1   5  -3  296.57   13.80
   1   5  -3  290.27   13.70
   1   5  -3  278.17   13.00
   1   5  -3  250.67   13.60
  -1   5   3  289.47   13.60
   0  -5  -3  260.17   12.20
   0  -5   3  252.17   12.10
   0  -5   3  255.67   12.70
   0  -5  -3  264.97   12.20
   0  -5  -3  256.47   12.30
   0  -5  -3  255.77   12.30
   0  -5   3  254.27   12.00
   0  -5   3  243.68   12.40
   0  -5   3  246.58   12.10
   0  -5   3  265.37   12.00
   0  -5  -3  258.27   12.10
   0   5  -3  259.27   12.50
   0   5  -3  247.48   11.80
   0   5   3  253.57   12.30
   0   5  -3  255.27   12.50
   0   5  -3  260.37   12.50
   0   5   3  264.37   12.30
   1  -5   3    4.60    1.60
  -1  -5  -3    3.50    1.10
  -1  -5  -3    3.20    1.20
  -1  -5  -3    2.60    0.90
  -1  -5  -3    3.80    1.20
   1  -5   3    4.10    1.20
   1  -5   3    4.20    1.00
   1  -5   3    2.90    1.10
   1  -5   3    3.10    1.40
  -1  -5  -3    3.40    1.00
   1   5   3    5.50    1.30
  -1   5  -3    1.10    1.20
  -1   5  -3    1.60    1.20
  -1   5  -3    4.00    1.10
  -1   5  -3    2.80    0.70
  -1   5  -3    3.40    1.20
   1   5   3    3.70    1.10
  -2  -5  -3   71.09    4.40
   2  -5   3   73.39    4.70
  -2  -5  -3   74.09    4.10
  -2  -5  -3   75.59    4.20
  -2  -5  -3   71.29    4.30
   2  -5   3   68.29    4.50
  -2  -5  -3   70.89    4.20
   2  -5   3   73.49    4.10
  -2   5  -3   72.89    3.70
  -2   5  -3   70.49    4.20
   2   5   3   69.29    4.00
  -3  -5  -3   86.39    4.70
  -3  -5  -3   82.69    4.40
  -3  -5  -3   84.39    4.60
  -3  -5  -3   84.69    4.80
   3  -5   3   77.09    4.80
   3  -5   3   79.19    5.00
   3  -5   3   78.89    4.40
  -3   5  -3   82.99    4.00
   3   5   3   74.29    4.30
  -3   5  -3   83.59    4.70
  -4  -5  -3   44.40    2.90
  -4  -5  -3   49.60    3.30
   4  -5   3   43.70    3.30
  -4  -5  -3   44.00    3.10
  -4  -5  -3   46.20    3.10
   4  -5   3   47.00    3.60
  -4   5  -3   46.60    3.20
  -4   5  -3   44.40    2.90
  -5  -5  -3    2.40    1.40
   5  -5   3    1.50    1.10
   5  -5   3    3.10    1.40
  -5  -5  -3    3.00    0.90
  -5   5  -3    1.70    0.90
   6  -5   3   15.80    2.20
  -6   5  -3   15.30    1.70
  -6   5  -3   12.80    1.60
   7  -5   3   34.10    2.70
  -7   5  -3   33.60    2.30
  -7   5  -3   34.90    2.10
   8  -5   3   42.60    2.60
  -8   5  -3   46.00    2.40
  -8   5  -3   33.50    2.40
   6  -6  -3  151.98    6.70
  -6  -6   3  146.79    6.70
  -6  -6   3  132.09    6.70
  -6  -6   3  142.99    7.00
  -6   6   3  139.69    6.60
  -6   6   3  142.39    6.70
  -5  -6   3  158.88    7.30
  -5  -6   3  157.78    7.70
  -5  -6   3  160.08    7.20
   5  -6  -3  146.99    7.10
  -5  -6   3  152.58    7.10
   5  -6  -3  140.99    7.10
  -5  -6   3  148.99    7.30
  -5   6   3  143.99    7.00
  -5   6   3  146.59    7.30
   5   6  -3  142.89    7.00
  -4  -6   3    9.70    1.80
  -4  -6   3   12.20    1.50
  -4  -6   3   12.50    1.80
   4  -6  -3   11.10    1.60
   4  -6  -3   13.10    1.70
  -4  -6   3   11.30    2.20
  -4  -6   3   12.60    1.80
  -4   6   3   14.50    1.50
  -4   6   3   11.90    1.80
  -4   6   3   12.70    1.10
   4   6  -3   13.00    1.20
   4   6  -3   12.10    1.60
   3  -6  -3   28.60    2.30
  -3  -6   3   25.20    2.70
   3  -6  -3   27.20    2.20
  -3  -6   3   28.00    2.30
  -3  -6   3   23.10    2.40
   3  -6  -3   26.00    2.00
   3  -6  -3   29.10    2.00
  -3  -6   3   26.00    2.30
  -3  -6   3   25.60    2.10
  -3   6   3   24.40    2.40
  -3   6   3   28.20    2.30
   3   6  -3   25.60    1.80
  -3   6   3   22.70    1.70
   3   6  -3   25.20    1.90
   3   6  -3   27.30    2.30
  -2  -6   3  113.19    6.20
   2  -6  -3  120.79    6.10
  -2  -6   3  126.59    6.10
  -2  -6   3  101.29    6.50
   2  -6  -3  118.39    6.00
   2  -6  -3  107.09    6.10
  -2  -6   3  125.39    6.00
   2  -6  -3  127.79    5.90
  -2  -6   3  125.79    6.00
   2  -6  -3  123.39    6.00
  -2   6   3  117.39    6.30
  -2   6   3  106.39    7.00
   2   6  -3   96.09    6.20
   2   6  -3  115.29    6.30
  -2   6   3  124.79    5.70
   2   6  -3  124.29    5.70
   1  -6  -3  177.18    8.60
  -1  -6   3  173.68    8.80
   1  -6  -3  174.58    8.70
   1  -6  -3  181.68    8.60
  -1  -6   3  184.38    8.60
   1  -6  -3  189.58    8.60
  -1  -6   3  194.78    8.60
  -1  -6   3  192.48    8.70
  -1  -6   3  147.59    9.00
   1  -6  -3  179.78    8.70
   1   6  -3  174.98    8.90
  -1   6   3  182.08    8.30
   1   6  -3  159.68    8.90
  -1   6   3  178.18    9.00
   1   6  -3  184.18    8.30
  -1   6   3  162.68    8.90
   0  -6  -3   31.90    2.30
   0  -6   3   34.40    2.60
   0  -6  -3   35.50    2.70
   0  -6   3   33.50    2.40
   0  -6  -3   35.20    2.60
   0  -6  -3   27.10    2.50
   0  -6   3   29.00    2.80
   0  -6   3   34.70    2.40
   0  -6  -3   32.20    2.40
   0   6   3   35.00    2.60
   0   6  -3   30.40    2.70
   0   6  -3   28.30    2.00
   0   6   3   32.50    2.10
   0   6   3   31.50    2.60
  -1  -6  -3    1.30    1.20
   1  -6   3    0.70    0.80
  -1  -6  -3   -0.40    0.80
  -1  -6  -3    0.20    0.80
   1  -6   3    0.80    1.00
  -1  -6  -3    2.30    1.10
   1  -6   3    0.60    1.10
  -1  -6  -3    1.40    1.20
  -1   6  -3    0.70    0.60
  -1   6  -3    1.60    0.90
   1   6   3    1.80    0.90
   1   6   3    0.80    0.90
   2  -6   3   28.20    2.90
  -2  -6  -3   33.90    2.70
   2  -6   3   33.40    2.40
  -2  -6  -3   31.10    2.60
  -2  -6  -3   36.80    2.50
  -2  -6  -3   29.70    2.30
  -2  -6  -3   34.30    2.30
   2   6   3   27.10    2.40
  -2   6  -3   32.40    1.90
   2   6   3   31.50    2.40
  -2   6  -3   34.20    2.30
  -2   6  -3   34.20    2.50
   3  -6   3   10.80    1.60
  -3  -6  -3   13.20    1.90
  -3  -6  -3   12.60    1.50
  -3  -6  -3   11.10    1.40
  -3  -6  -3   11.60    1.80
   3  -6   3   10.10    2.20
  -3   6  -3   11.50    1.50
   3   6   3   11.20    1.60
  -3   6  -3   14.30    1.70
  -4  -6  -3   33.20    2.40
  -4  -6  -3   33.00    2.40
   4  -6   3   36.10    2.90
  -4  -6  -3   36.70    2.40
  -4  -6  -3   35.50    2.50
  -4   6  -3   36.30    2.40
  -4   6  -3   36.20    2.10
  -5  -6  -3   60.89    3.30
  -5  -6  -3   60.29    3.40
   5  -6   3   69.49    3.90
  -5   6  -3   66.09    3.50
   6  -6   3   47.90    2.80
  -6   6  -3   46.90    2.60
   3  -7  -3   13.10    1.30
  -3  -7   3   13.20    1.10
   3   7  -3   13.60    0.90
  -3   7   3   13.40    1.20
   2  -7  -3  137.49    6.40
   2  -7  -3  142.09    6.50
  -2  -7   3  131.29    6.50
   2  -7  -3  134.29    6.50
  -2  -7   3  139.49    6.40
  -2  -7   3  130.69    6.70
  -2  -7   3  142.39    6.50
   2   7  -3  149.59    6.50
   2   7  -3  139.29    6.30
  -2   7   3  142.19    6.30
  -2   7   3  136.59    6.60
  -1  -7   3  119.89    6.20
   1  -7  -3  135.89    6.30
   1  -7  -3  128.99    6.20
  -1  -7   3  134.19    6.10
   1  -7  -3  134.09    6.30
  -1  -7   3  127.69    6.50
   1  -7  -3  130.89    6.20
  -1   7   3  140.09    6.10
   1   7  -3  130.69    6.00
  -1   7   3  134.69    6.30
   1   7  -3  130.49    6.10
   0  -7   3  128.49    6.30
   0  -7   3  113.09    6.00
   0  -7   3  123.89    6.00
   0  -7  -3  120.89    6.00
   0  -7  -3  131.59    6.10
   0  -7  -3  133.59    6.00
   0  -7  -3  130.19    6.00
   0   7  -3  129.89    5.80
   0   7   3  110.59    5.90
   0   7   3  135.69    5.90
   0   7  -3  134.39    6.00
  -1  -7  -3    5.60    0.90
   1  -7   3    4.20    1.00
  -1  -7  -3    5.90    1.30
  -1  -7  -3    4.70    0.80
   1  -7   3    8.50    1.50
   1   7   3    6.50    0.80
  -1   7  -3    7.70    0.90
  -2  -7  -3   15.00    1.30
  -2  -7  -3   18.40    1.30
   2  -7   3   21.20    1.80
  -2  -7  -3   19.40    1.40
  -2   7  -3   20.40    1.30
 -11   0   4   13.70    1.30
 -11   0   4   13.90    1.30
 -10   0   4  447.66   19.90
 -10   0   4  432.26   20.00
  -9   0   4  229.08   11.00
  -9   0   4  239.98   11.20
  -8   0   4   20.80    1.90
  -8   0   4   21.70    2.00
   8   0  -4   21.50    2.10
   7   0  -4  300.47   16.10
   7   0  -4  312.77   13.90
  -7   0   4  291.17   13.60
  -7   0   4  296.67   15.40
  -7   0   4  273.57   13.70
   6   0  -4  168.68    9.90
  -6   0   4  164.88    9.10
   6   0  -4  151.08    9.60
   6   0  -4  177.28    8.10
   5   0  -4  160.38    9.30
  -5   0   4  161.18    8.50
   5   0  -4  160.38    9.10
   5   0  -4  156.38   11.00
   5   0  -4  157.08    7.60
  -4   0   4  753.92   33.00
   4   0  -4  771.02   36.10
   4   0  -4  713.53   33.40
   4   0  -4  691.73   32.10
   4   0  -4  683.23   33.50
   3   0  -4   62.29    3.30
   3   0  -4   69.99    5.90
  -3   0   4   62.89    4.30
  -3   0   4   71.69    4.00
   3   0  -4   65.19    4.20
   3   0  -4   65.19    4.30
  -2   0   4  609.34   28.80
   2   0  -4  583.74   28.70
   2   0  -4  643.84   28.80
  -2   0   4  638.74   28.40
   2   0  -4  659.23   31.10
  -1   0   4    0.20    0.40
   1   0  -4    0.80    1.00
  -1   0   4    0.60    0.40
   1   0  -4    0.80    0.70
   1   0  -4    0.80    0.70
   0   0  -4 1453.25   66.09
   0   0  -4 1580.34   68.69
   0   0   4 1398.76   65.79
   0   0   4 1561.74   66.59
  -1   0  -4  202.88    9.20
   1   0   4  198.18    9.30
   1   0   4  181.48    8.60
  -1   0  -4  170.78    8.60
  -1   0  -4  199.78   10.90
   2   0   4  350.76   17.10
   2   0   4  363.46   16.40
  -2   0  -4  389.56   18.60
  -2   0  -4  373.06   17.10
   3   0   4 1171.88   50.99
  -3   0  -4 1141.49   51.89
   3   0   4 1217.88   51.89
  -3   0  -4 1108.59   52.69
   4   0   4   76.99    3.80
   4   0   4   83.09    4.70
  -4   0  -4   77.39    4.80
   5   0   4  131.69    6.40
   5   0   4  136.19    7.40
  -5   0  -4  139.99    7.60
  -6   0  -4   58.19    4.40
  -6   0  -4   57.99    3.20
   6   0   4   57.49    3.10
  -6   0  -4   50.49    3.70
  -6   0  -4   54.79    3.10
  -6   0  -4   55.29    3.10
   6   0   4   60.99    4.30
  -7   0  -4  124.99    6.10
  -7   0  -4  101.99    8.60
  -7   0  -4  124.19    6.20
  -7   0  -4  125.49    6.00
   7   0   4  129.09    6.10
  -8   0  -4   66.49    3.90
   8   0   4   74.59    3.90
  -8   0  -4   68.49    3.80
  -8   0  -4   66.59    3.70
  -9   0  -4    4.00    0.90
   9   0   4    5.70    1.20
  -9   0  -4    6.30    1.50
  -9   0  -4    3.50    0.80
 -10   0  -4   -0.40    0.90
 -10   0  -4   -0.30    0.60
 -10   0  -4    0.30    0.60
  10   0   4    0.50    0.80
 -11   0  -4   34.90    2.00
 -11   0  -4   34.20    2.00
  11  -1  -4   19.30    1.60
 -11  -1   4   20.20    1.50
  11  -1  -4   19.60    1.80
 -11   1   4   21.40    1.60
 -11   1   4   19.70    1.40
 -10  -1   4  125.79    6.80
 -10   1   4  145.59    6.80
 -10   1   4  145.49    6.80
  -9  -1   4  111.89    5.80
  -9  -1   4  119.39    6.00
  -9  -1   4  119.09    6.20
  -9   1   4  120.49    5.90
   9   1  -4  105.39    6.10
  -9   1   4  115.69    5.90
   8  -1  -4  701.43   33.70
  -8  -1   4  746.43   34.00
  -8  -1   4  723.73   33.60
  -8  -1   4  797.02   34.00
  -8   1   4  762.42   33.90
  -8   1   4  770.52   33.80
   8   1  -4  781.72   34.10
   7  -1  -4  200.68   11.70
   7  -1  -4  184.28    9.30
  -7  -1   4  195.18    9.60
  -7  -1   4  214.08    9.60
  -7   1   4  200.98    9.40
   7   1  -4  161.98   11.30
  -7   1   4  200.18   11.20
   7   1  -4  216.18    9.70
   7   1  -4  197.98   12.10
  -7   1   4  196.08    9.50
   6  -1  -4   38.20    3.80
  -6   1   4   33.40    2.40
   6   1  -4   31.50    2.30
   6   1  -4   31.10    3.90
   6   1  -4   25.20    3.50
  -6   1   4   31.10    3.50
   5  -1  -4  204.58   14.00
   5  -1  -4  243.38   12.50
   5   1  -4  242.48   12.50
   5   1  -4  207.38   14.70
   5   1  -4  244.88   12.80
  -5   1   4  246.98   12.20
   5   1  -4  244.08   11.00
  -4  -1   4  944.11   42.80
   4  -1  -4  834.82   45.10
   4  -1  -4 1006.50   43.30
   4   1  -4  983.80   43.50
   4   1  -4  920.81   43.30
   4   1  -4  972.80   46.60
  -4   1   4  953.00   42.90
   4   1  -4  930.11   41.90
   3  -1  -4 1500.65   67.19
   3  -1  -4 1277.87   64.39
   3  -1  -4 1333.77   65.49
  -3  -1   4 1365.06   63.59
   3   1  -4 1551.04   64.89
  -3   1   4 1337.27   63.49
   3   1  -4 1469.45   64.79
  -3   1   4 1484.05   64.89
  -3   1   4 1456.05   64.39
   3   1  -4 1569.54   68.19
   3   1  -4 1492.45   63.49
  -2  -1   4   73.69    3.90
  -2  -1   4   67.69    4.50
   2  -1  -4   78.69    6.20
   2  -1  -4   77.39    4.50
   2  -1  -4   64.59    4.90
   2   1  -4   74.09    3.80
  -2   1   4   77.39    3.80
  -2   1   4   81.09    4.80
   2   1  -4   80.39    4.80
   2   1  -4   85.29    6.80
   2   1  -4   75.79    4.60
  -2   1   4   68.59    4.30
  -1  -1   4  763.12   36.00
   1  -1  -4  816.22   38.30
  -1  -1   4  771.22   35.30
   1  -1  -4  814.32   35.90
  -1   1   4  787.12   35.10
  -1   1   4  818.82   36.10
  -1   1   4  690.13   35.60
   1   1  -4  826.62   35.90
   1   1  -4  850.51   38.80
   1   1  -4  802.22   36.20
   0  -1  -4   11.00    2.30
   0  -1   4    9.50    1.10
   0  -1   4   11.30    1.40
   0   1   4   10.70    1.20
   0   1  -4   11.80    1.20
   0   1  -4   10.70    1.00
   0   1  -4   11.90    2.30
   0   1   4   10.10    0.70
   0   1  -4   12.00    1.50
   0   1   4    9.20    1.20
   1  -1   4 1329.67   57.59
   1  -1   4 1466.65   58.59
  -1  -1  -4 1170.48   57.99
  -1  -1  -4 1481.25   60.99
  -1  -1  -4 1341.07   57.99
  -1   1  -4 1239.68   57.49
   1   1   4 1156.08   57.29
   1   1   4 1217.58   57.99
  -1   1  -4 1350.56   57.89
  -1   1  -4 1268.87   58.49
  -1   1  -4 1460.75   60.59
   1   1   4 1203.28   58.09
  -2  -1  -4 1300.57   65.19
   2  -1   4 1525.85   64.99
   2  -1   4 1610.94   65.99
  -2  -1  -4 1342.37   65.49
  -2  -1  -4 1539.75   68.19
  -2   1  -4 1492.95   67.19
  -2   1  -4 1528.65   65.49
   2   1   4 1466.55   65.29
   3  -1   4 2088.69   90.89
  -3  -1  -4 1887.71   92.59
  -3  -1  -4 1962.80   90.59
   3  -1   4 2009.00   89.79
   3   1   4 2142.69   90.19
  -3   1  -4 2168.88   90.59
   4  -1   4  128.19    7.30
   4  -1   4  130.19    6.20
  -4  -1  -4  128.99    7.10
   4   1   4  129.39    6.60
  -4   1  -4  134.99    7.10
   5  -1   4   81.89    4.20
  -5  -1  -4   84.69    5.30
   5  -1   4   83.79    5.50
   5   1   4   81.79    4.70
   5   1   4   76.89    3.90
  -5   1  -4   78.69    5.10
   6  -1   4   43.80    2.50
  -6  -1  -4   40.00    2.40
  -6  -1  -4   40.50    2.40
  -6  -1  -4   40.70    2.50
  -6  -1  -4   39.70    3.80
   6  -1   4   38.60    3.90
  -6   1  -4   39.40    2.50
  -6   1  -4   40.40    2.50
   6   1   4   42.30    2.30
   6   1   4   39.70    3.10
  -6   1  -4   36.90    2.90
  -6   1  -4   39.00    2.40
  -6   1  -4   39.00    3.80
  -7  -1  -4  181.48    8.40
   7  -1   4  182.58    8.60
  -7  -1  -4  172.98    8.50
  -7  -1  -4  184.48    8.50
  -7   1  -4  170.68    8.70
  -7   1  -4  180.58    8.60
   7   1   4  182.48    8.40
  -7   1  -4  172.08    8.40
  -7   1  -4  170.98    8.40
   8  -1   4    3.80    1.10
  -8  -1  -4    2.10    0.90
  -8  -1  -4    2.40    1.20
  -8  -1  -4    2.40    0.80
  -8   1  -4    4.10    1.20
   8   1   4    3.90    0.90
  -8   1  -4    1.90    0.80
  -8   1  -4    1.80    0.80
  -9  -1  -4   64.39    3.50
  -9  -1  -4   66.49    3.40
  -9  -1  -4   51.39    3.30
   9  -1   4   63.89    3.70
   9  -1   4   54.89    3.60
  -9   1  -4   63.29    3.60
  -9   1  -4   61.19    3.30
  -9   1  -4   65.19    3.40
   9   1   4   60.49    3.40
 -10  -1  -4   36.00    2.20
 -10  -1  -4   35.30    2.20
  10  -1   4   33.90    2.40
 -10   1  -4   32.70    2.10
 -10   1  -4   35.70    2.20
 -10   1  -4   38.00    2.30
 -11  -1  -4   26.90    1.60
 -11  -1  -4   23.30    1.50
 -11   1  -4   22.90    1.50
 -11   1  -4   23.90    1.60
 -11  -2   4   39.20    2.20
  11  -2  -4   42.60    2.30
 -11   2   4   45.80    2.40
 -10  -2   4    2.70    0.70
  10  -2  -4    3.20    0.90
  10  -2  -4    2.00    0.90
 -10  -2   4    3.90    1.20
 -10   2   4    2.60    0.70
   9  -2  -4  235.48   11.70
  -9  -2   4  269.97   12.20
  -9  -2   4  290.37   12.00
  -9   2   4  259.47   11.80
   9   2  -4  232.58   12.10
  -9   2   4  231.48   11.80
  -8  -2   4   12.60    2.00
   8  -2  -4    8.90    1.60
  -8  -2   4   11.90    1.60
  -8   2   4   13.10    1.60
  -8   2   4   12.60    1.70
   8   2  -4   15.00    1.80
  -7  -2   4  517.55   22.70
  -7  -2   4  499.15   23.10
   7  -2  -4  468.15   22.40
  -7  -2   4  515.45   23.00
  -7   2   4  499.15   22.60
  -7   2   4  493.35   22.60
   7   2  -4  495.85   22.90
  -6  -2   4    3.70    1.10
   6  -2  -4    4.50    1.00
  -6  -2   4    4.90    1.10
   6  -2  -4    4.40    2.80
  -6  -2   4    5.50    1.20
  -6  -2   4    3.10    1.30
  -6   2   4    3.10    2.10
  -6   2   4    3.70    1.10
   6   2  -4    4.50    2.40
   6   2  -4    3.30    2.50
   6   2  -4    3.90    1.00
  -6   2   4    2.60    0.80
   5  -2  -4    7.80    2.10
   5   2  -4    4.50    1.10
   5   2  -4    4.50    3.50
  -5   2   4    5.30    1.70
   5   2  -4    3.80    2.40
   5   2  -4    4.00    1.90
   4  -2  -4  392.56   23.50
   4  -2  -4  463.25   21.10
   4   2  -4  442.56   21.40
   4   2  -4  438.66   19.50
  -4   2   4  451.35   20.80
   4   2  -4  447.66   21.10
  -4   2   4  407.86   19.50
   4   2  -4  441.56   25.20
  -4   2   4  421.46   19.60
  -4   2   4  385.26   21.30
   3  -2  -4 1116.29   53.89
   3  -2  -4 1087.79   50.69
  -3   2   4 1120.69   49.60
   3   2  -4 1115.59   49.50
   3   2  -4 1050.69   49.50
  -3   2   4 1131.19   50.59
   3   2  -4 1131.89   54.99
   3   2  -4 1194.08   51.09
   3   2  -4 1136.59   51.09
  -3   2   4 1082.59   51.09
  -3   2   4 1115.19   49.60
   2  -2  -4    5.70    1.50
   2  -2  -4    6.40    2.40
   2   2  -4    5.60    1.60
  -2   2   4    6.30    0.90
   2   2  -4    5.80    2.90
  -2   2   4    5.50    1.40
  -2   2   4    6.20    1.40
  -2   2   4    5.30    0.80
   2   2  -4    6.80    1.50
   2   2  -4    4.80    0.90
   2   2  -4    5.50    1.00
   1  -2  -4   41.10    4.80
   1  -2  -4   38.20    3.00
  -1   2   4   39.70    3.10
   1   2  -4   39.20    3.20
   1   2  -4   39.20    2.40
   1   2  -4   41.90    5.10
   1   2  -4   39.30    3.30
   1   2  -4   38.40    2.40
  -1   2   4   40.00    2.20
  -1   2   4   38.80    2.90
   0  -2  -4  115.99    6.40
   0  -2  -4  115.49    8.70
   0   2  -4  112.19    6.10
   0   2  -4  104.69    5.40
   0   2   4  113.59    6.10
   0   2   4  110.79    6.10
   0   2  -4  101.79    6.50
   0   2  -4  113.09    8.60
   0   2   4  108.69    5.20
  -1  -2  -4  158.18   10.90
   1  -2   4  143.69    8.20
  -1  -2  -4  158.68    8.20
   1   2   4  157.48    8.00
  -1   2  -4  140.39    7.30
  -1   2  -4  155.68   10.40
  -1   2  -4  145.19    7.60
   1   2   4  161.18    7.70
  -1   2  -4  145.69    8.50
   2  -2   4  281.77   14.10
   2  -2   4  258.97   12.90
  -2  -2  -4  265.17   13.90
  -2  -2  -4  305.27   17.50
  -2   2  -4  286.97   13.30
  -2   2  -4  277.27   15.80
   2   2   4  309.37   13.20
   3  -2   4   50.39    2.90
  -3  -2  -4   47.90    5.80
  -3  -2  -4   53.09    3.60
   3  -2   4   51.39    4.00
  -3  -2  -4   46.20    3.70
   3   2   4   54.89    2.90
  -3   2  -4   52.39    3.40
   4  -2   4  291.37   13.40
  -4  -2  -4  296.37   14.30
   4  -2   4  288.47   14.90
   4   2   4  283.87   13.30
  -4   2  -4  288.47   14.20
   5  -2   4   57.19    3.40
   5  -2   4   61.09    3.30
  -5  -2  -4   60.39    3.30
  -5  -2  -4   58.69    4.30
  -5  -2  -4   50.69    3.00
  -5  -2  -4   53.59    3.00
   5  -2   4   52.19    5.50
  -5   2  -4   54.49    3.20
  -5   2  -4   54.19    4.20
  -5   2  -4   53.99    3.30
   5   2   4   59.49    3.20
   6  -2   4   81.69    4.60
  -6  -2  -4   72.19    5.40
  -6  -2  -4   82.29    4.20
   6  -2   4   83.79    4.50
  -6  -2  -4   78.29    4.20
  -6  -2  -4   83.09    4.20
   6   2   4   68.29    4.50
  -6   2  -4   81.29    4.10
  -6   2  -4   78.49    4.20
  -6   2  -4   84.19    4.50
  -6   2  -4   81.79    5.70
  -7  -2  -4  163.38    7.70
  -7  -2  -4  153.38    7.40
   7  -2   4  153.88    7.80
  -7  -2  -4  157.58    7.50
   7  -2   4  150.68    7.70
  -7   2  -4  154.88    7.60
  -7   2  -4  152.68    7.40
  -7   2  -4  157.58    7.80
   7   2   4  147.99    7.20
  -8  -2  -4  631.54   27.10
   8  -2   4  608.84   27.50
  -8  -2  -4  624.94   27.10
  -8   2  -4  613.14   27.00
   8   2   4  580.14   27.00
  -8   2  -4  596.14   27.30
  -8   2  -4  579.54   27.20
  -9  -2  -4   46.40    2.70
  -9  -2  -4   46.60    2.70
   9  -2   4   48.00    3.10
  -9   2  -4   41.40    2.80
  -9   2  -4   44.20    2.60
  10  -2   4   -0.30    0.90
 -10  -2  -4    0.20    0.50
 -10  -2  -4   -0.60    0.50
 -10   2  -4    0.10    0.80
 -10   2  -4   -0.10    0.50
  10  -3  -4    7.60    1.20
 -10  -3   4    8.60    1.50
 -10   3   4    8.50    1.10
 -10   3   4    8.70    1.20
  -9  -3   4   21.10    2.20
  -9  -3   4   22.60    1.70
   9  -3  -4   19.50    1.70
  -9   3   4   17.40    1.80
  -9   3   4   20.30    1.80
  -8  -3   4   35.60    2.90
   8  -3  -4   33.00    2.40
   8  -3  -4   36.80    2.70
  -8  -3   4   37.70    2.50
   8   3  -4   37.20    2.80
  -8   3   4   39.20    2.60
  -8   3   4   38.80    2.60
   7  -3  -4  321.87   15.00
  -7  -3   4  351.86   15.70
  -7  -3   4  332.27   15.20
  -7  -3   4  317.47   15.70
   7  -3  -4  311.57   15.00
  -7   3   4  320.97   15.10
   7   3  -4  320.87   15.40
  -7   3   4  342.17   15.30
  -6  -3   4  179.48    9.10
   6  -3  -4  179.88    8.50
  -6  -3   4  176.78    8.70
  -6  -3   4  193.48    8.90
  -6  -3   4  168.38    8.60
  -6  -3   4  178.18    9.30
   6  -3  -4  174.38    8.60
  -6   3   4  178.18    8.60
  -6   3   4  179.58    8.80
   6   3  -4  183.98    9.00
  -5  -3   4   77.29    4.30
   5  -3  -4   79.89    4.10
  -5  -3   4   79.79    4.80
   5  -3  -4   81.99    6.30
  -5  -3   4   77.49    4.20
   5  -3  -4   73.69    4.10
  -5  -3   4   87.59    4.80
  -5  -3   4   82.99    4.50
   5   3  -4   70.39    4.30
   5   3  -4   76.29    6.20
   5   3  -4   71.89    6.80
  -5   3   4   78.19    4.30
  -5   3   4   84.69    6.10
  -5   3   4   76.29    4.20
  -5   3   4   81.49    4.00
   4  -3  -4  168.58    9.80
   4  -3  -4  157.28    7.70
  -4  -3   4  160.08    8.10
   4  -3  -4  164.58    7.70
   4  -3  -4  153.48    7.70
  -4  -3   4  162.68    7.90
  -4  -3   4  157.88    8.20
  -4  -3   4  159.48    7.80
  -4  -3   4  163.78    7.80
  -4   3   4  151.78    8.50
  -4   3   4  169.78    8.10
  -4   3   4  166.18    8.10
   4   3  -4  157.98   10.10
   4   3  -4  138.99    9.50
  -4   3   4  162.38    7.50
  -4   3   4  164.68    9.50
   4   3  -4  170.58    8.00
   4   3  -4  149.49    7.90
   3  -3  -4  177.18   14.30
   3  -3  -4  205.98   11.20
  -3   3   4  193.28   11.30
   3   3  -4  179.68   11.00
   3   3  -4  201.28    9.50
  -3   3   4  209.48    9.60
  -3   3   4  207.48    9.60
  -3   3   4  197.58   10.70
   3   3  -4  187.28   15.10
   3   3  -4  201.78    9.50
   3   3  -4  196.48   11.50
   2  -3  -4   89.89    9.20
   2  -3  -4  102.69    6.60
  -2   3   4  100.79    6.20
   2   3  -4   93.99    5.10
  -2   3   4   98.69    6.50
   2   3  -4   98.99    5.10
  -2   3   4   96.19    5.10
   2   3  -4   91.99    6.50
   2   3  -4  104.69    5.10
   2   3  -4   91.89    9.50
  -2   3   4   93.79    5.00
   2   3  -4   93.09    6.60
   1  -3  -4   46.20    4.00
   1  -3  -4   43.90    6.30
  -1   3   4   43.20    2.60
   1   3  -4   46.10    2.80
   1   3  -4   45.00    6.50
   1   3  -4   47.30    2.80
   1   3  -4   41.70    4.00
   1   3  -4   45.60    2.80
  -1   3   4   45.10    3.60
  -1   3   4   43.80    3.80
   1   3  -4   42.20    4.00
  -1   3   4   46.70    2.60
   0  -3  -4   87.29    9.00
   0  -3  -4  100.29    6.20
   0   3  -4   85.49    4.60
   0   3  -4   80.09    5.60
   0   3   4   84.89    4.30
   0   3  -4   86.29    4.60
   0   3  -4   84.59    6.10
   0   3   4   90.29    5.50
   0   3  -4   84.49    8.50
   0   3  -4   87.59    4.60
   0   3   4   86.89    5.40
  -1  -3  -4  284.17   15.00
  -1  -3  -4  283.47   18.90
  -1   3  -4  270.47   13.30
  -1   3  -4  285.47   13.40
   1   3   4  304.37   14.10
  -1   3  -4  287.07   13.30
  -1   3  -4  276.87   17.70
   1   3   4  285.17   12.90
   1   3   4  303.57   14.30
  -2  -3  -4   72.09    8.40
  -2  -3  -4   90.49    6.00
   2   3   4   69.29    5.00
   2   3   4   81.79    4.60
  -3  -3  -4   48.60    4.60
   3   3   4   42.00    3.70
  -3   3  -4   39.00    3.40
   3   3   4   45.30    2.70
  -4  -3  -4    8.70    1.70
   4  -3   4    6.40    1.20
  -4   3  -4    7.30    1.40
  -4   3  -4    6.60    1.30
  -4   3  -4    7.20    1.20
   5  -3   4   14.90    2.00
  -5   3  -4   13.70    1.60
  -5   3  -4   13.50    1.90
   6  -3   4   29.20    2.50
  -6  -3  -4   26.40    1.90
  -6   3  -4   26.50    2.20
  -6   3  -4   29.80    2.50
  -7  -3  -4  119.19    6.10
   7  -3   4  124.59    6.60
  -7   3  -4  130.09    6.30
  -7   3  -4  128.19    6.50
  -8  -3  -4   77.39    4.20
   8  -3   4   94.19    4.80
  -8   3  -4   83.49    4.50
  -8   3  -4   79.69    4.60
  -9  -3  -4   75.79    3.90
   9  -3   4   78.09    4.30
  -9   3  -4   81.19    4.10
  10  -3   4   77.79    4.60
  10  -3   4   93.99    4.50
 -10   3  -4  100.99    4.40
   9  -4  -4   65.29    3.30
  -9  -4   4   63.89    3.60
  -9   4   4   61.19    3.30
  -9   4   4   61.89    3.20
   8  -4  -4   48.60    2.90
  -8  -4   4   48.20    3.30
  -8   4   4   49.80    3.00
  -8   4   4   50.79    2.80
   7  -4  -4   33.50    2.50
  -7  -4   4   38.70    3.40
  -7  -4   4   37.90    2.70
   7  -4  -4   39.30    2.60
  -7  -4   4   31.10    2.90
  -7   4   4   35.00    2.50
  -7   4   4   38.60    2.40
   7   4  -4   39.30    2.80
  -6  -4   4  110.69    5.90
   6  -4  -4  112.19    5.70
  -6  -4   4  108.39    5.70
  -6  -4   4  108.29    6.10
  -6  -4   4  106.59    5.70
   6  -4  -4  114.69    5.60
  -6  -4   4  107.99    6.30
   6   4  -4  100.69    5.90
  -6   4   4  108.39    5.80
  -6   4   4  108.39    5.60
   6   4  -4  116.89    6.00
   5  -4  -4   66.49    3.90
  -5  -4   4   73.39    4.00
  -5  -4   4   70.09    4.50
  -5  -4   4   68.19    4.60
   5  -4  -4   72.29    3.90
  -5  -4   4   70.09    4.20
  -5  -4   4   70.49    4.10
   5  -4  -4   68.09    4.20
  -5   4   4   67.99    4.10
   5   4  -4   67.19    4.20
  -5   4   4   68.39    3.60
  -4  -4   4   87.39    4.70
   4  -4  -4   86.79    5.00
   4  -4  -4   79.39    4.60
   4  -4  -4   81.09    4.60
  -4  -4   4   86.69    4.80
  -4  -4   4   89.19    5.20
  -4  -4   4   85.19    5.40
  -4  -4   4   89.89    4.70
   4  -4  -4   84.19    4.50
   4   4  -4   85.59    4.90
   4   4  -4   84.59    4.90
  -4   4   4   88.59    5.00
  -4   4   4   88.09    4.40
  -4   4   4   86.89    5.10
   3  -4  -4  171.18   11.20
  -3  -4   4  186.58    9.10
   3  -4  -4  180.78    8.60
   3  -4  -4  182.18    8.60
  -3  -4   4  168.88    9.10
  -3  -4   4  178.38    8.70
   3  -4  -4  183.18    8.60
   3  -4  -4  170.58    8.60
   3  -4  -4  185.98    8.50
   3  -4  -4  176.38    8.80
  -3  -4   4  185.28    8.60
  -3  -4   4  171.78    8.60
   3   4  -4  171.28    8.30
  -3   4   4  188.58    9.00
  -3   4   4  198.68    9.10
   3   4  -4  154.68   11.10
   3   4  -4  180.18    8.90
   3   4  -4  141.09   12.40
  -3   4   4  160.48   11.10
   3   4  -4  198.78    9.00
  -3   4   4  178.78    8.40
  -3   4   4  161.98   10.30
  -2  -4   4  217.98   10.70
   2  -4  -4  225.28   10.90
  -2  -4   4  235.88   11.20
  -2  -4   4  222.38   10.70
   2  -4  -4  224.48   10.70
   2  -4  -4  231.58   10.80
  -2  -4   4  224.58   10.70
   2  -4  -4  228.58   10.70
   2  -4  -4  234.58   13.40
   2  -4  -4  229.68   10.60
   2  -4  -4  230.18   10.70
  -2  -4   4  228.78   11.30
   2   4  -4  239.38   11.00
  -2   4   4  242.98   11.00
  -2   4   4  237.38   11.00
   2   4  -4  237.98   11.00
  -2   4   4  219.18   10.50
   2   4  -4  213.68   10.40
   2   4  -4  237.38   11.00
   2   4  -4  216.08   13.20
   2   4  -4  210.98   13.10
  -2   4   4  192.38   12.00
  -2   4   4  197.18   12.70
  -1  -4   4  438.26   19.90
   1  -4  -4  432.56   19.90
   1  -4  -4  443.66   20.00
   1  -4  -4  438.56   22.70
  -1  -4   4  411.76   19.90
   1  -4  -4  432.76   20.20
   1  -4  -4  427.76   19.90
   1  -4  -4  443.56   20.00
  -1  -4   4  451.25   20.50
   1  -4  -4  445.86   20.00
  -1  -4   4  452.65   20.40
  -1  -4   4  404.46   19.80
   1   4  -4  473.85   20.40
  -1   4   4  410.06   20.10
   1   4  -4  426.86   22.60
   1   4  -4  470.95   20.40
   1   4  -4  470.65   20.40
  -1   4   4  477.95   20.30
   1   4  -4  433.76   19.70
  -1   4   4  440.66   22.00
  -1   4   4  403.66   21.30
   1   4  -4  411.86   22.30
   0  -4   4   40.10    3.10
   0  -4  -4   40.70    2.90
   0  -4   4   41.30    2.70
   0  -4  -4   35.50    2.60
   0  -4  -4   43.10    2.90
   0  -4  -4   42.90    2.70
   0  -4  -4   36.90    2.70
   0  -4   4   38.70    2.60
   0  -4  -4   41.20    2.60
   0  -4  -4   38.30    5.00
   0  -4   4   37.50    3.20
   0   4   4   43.10    2.70
   0   4  -4   42.30    2.90
   0   4   4   39.50    3.90
   0   4  -4   42.00    3.00
   0   4   4   41.40    2.70
   0   4  -4   29.70    4.60
   0   4  -4   41.90    2.90
   0   4  -4   43.80    6.40
   0   4  -4   40.30    2.40
  -1  -4  -4   90.79    5.10
  -1  -4  -4  100.69    7.90
   1  -4   4  101.49    5.50
  -1  -4  -4   88.49    5.00
  -1  -4  -4  102.29    5.20
   1  -4   4   85.69    5.10
  -1  -4  -4  104.19    5.30
   1  -4   4   98.49    5.50
  -1  -4  -4  100.99    5.10
  -1  -4  -4  100.29    5.30
  -1   4  -4  100.69    5.60
   1   4   4  104.99    5.00
  -1   4  -4   89.79    5.10
  -1   4  -4   98.79    4.80
  -1   4  -4  101.49    5.40
   1   4   4   95.39    6.30
  -1   4  -4   99.09    5.70
  -2  -4  -4   76.09    4.60
  -2  -4  -4   82.99    4.70
   2  -4   4   87.59    4.80
  -2  -4  -4   88.19    4.60
   2  -4   4   87.79    5.00
  -2  -4  -4   92.59    4.70
  -2  -4  -4   67.69    6.60
  -2  -4  -4   81.29    4.70
  -2   4  -4   86.89    4.20
  -2   4  -4   81.69    4.60
   2   4   4   85.89    4.20
   2   4   4   79.19    5.30
  -3  -4  -4   61.99    3.90
  -3  -4  -4   63.89    3.90
   3  -4   4   63.29    4.20
   3  -4   4   66.99    4.00
  -3  -4  -4   66.59    3.60
  -3  -4  -4   63.29    3.90
  -3   4  -4   62.19    3.20
  -3   4  -4   65.29    3.60
  -3   4  -4   62.99    3.80
  -4  -4  -4    4.00    1.20
   4  -4   4    2.00    1.10
  -4  -4  -4    3.80    1.00
   4  -4   4    4.90    1.30
  -4   4  -4    3.50    1.00
  -4   4  -4    2.30    0.90
   5  -4   4  199.28   10.00
   5  -4   4  213.88   10.30
  -5   4  -4  198.18    9.70
  -5   4  -4  209.18   10.00
   6  -4   4   43.60    3.20
   6  -4   4   42.30    3.10
  -6   4  -4   38.00    2.90
  -6   4  -4   41.60    2.70
   7  -4   4   51.49    3.50
   7  -4   4   49.70    3.30
  -7   4  -4   51.39    3.30
  -7   4  -4   56.49    3.10
   8  -4   4   62.49    3.60
   8  -4   4   66.59    3.80
  -8   4  -4   67.59    3.50
  -8   4  -4   62.29    3.60
   9  -4   4  159.28    7.60
  -9   4  -4  162.18    7.40
  -8  -5   4  103.09    5.40
   8  -5  -4  114.89    5.30
  -8   5   4  113.39    5.30
  -7  -5   4   81.69    4.70
   7  -5  -4   83.29    4.30
  -7  -5   4   85.99    4.60
  -7   5   4   79.99    4.20
  -6  -5   4    7.70    1.30
  -6  -5   4    6.40    1.40
  -6  -5   4    7.00    1.40
   6  -5  -4    5.40    1.10
  -6  -5   4    5.70    1.60
   6  -5  -4    8.80    1.50
  -6  -5   4    4.30    1.30
  -6   5   4    8.00    1.40
  -6   5   4    5.90    1.50
  -5  -5   4   37.60    3.10
  -5  -5   4   35.90    2.80
   5  -5  -4   39.50    2.60
  -5  -5   4   36.80    3.30
  -5  -5   4   40.90    2.70
   5  -5  -4   37.90    2.70
  -5  -5   4   37.10    2.90
   5   5  -4   37.50    2.40
  -5   5   4   37.40    2.70
   5   5  -4   37.70    2.90
  -5   5   4   39.00    2.20
   4  -5  -4   62.29    3.70
  -4  -5   4   57.49    3.60
   4  -5  -4   54.19    4.50
  -4  -5   4   62.19    3.70
   4  -5  -4   62.79    3.60
  -4  -5   4   57.89    4.20
  -4  -5   4   61.29    4.00
   4  -5  -4   61.59    3.80
  -4  -5   4   61.59    3.80
  -4   5   4   52.79    3.20
   4   5  -4   64.29    3.30
   4   5  -4   57.09    3.90
   4   5  -4   59.49    3.80
  -4   5   4   59.39    3.70
  -4   5   4   61.29    4.00
   3  -5  -4   17.50    1.90
  -3  -5   4   18.00    2.80
   3  -5  -4   17.50    2.10
   3  -5  -4   19.10    2.10
  -3  -5   4   18.80    2.20
   3  -5  -4   15.30    2.30
  -3  -5   4   17.10    2.20
  -3  -5   4   18.10    1.90
   3  -5  -4   19.00    2.10
  -3  -5   4   19.10    2.60
  -3   5   4   17.80    1.60
   3   5  -4   17.00    2.10
   3   5  -4   15.80    2.00
  -3   5   4   15.50    2.30
   3   5  -4   18.50    1.80
   3   5  -4   16.30    1.50
  -3   5   4   19.20    2.20
  -3   5   4   20.50    2.10
   2  -5  -4   77.19    4.10
   2  -5  -4   72.69    4.20
  -2  -5   4   69.69    4.10
  -2  -5   4   70.09    4.70
  -2  -5   4   68.79    4.00
  -2  -5   4   74.69    4.90
   2  -5  -4   74.19    4.20
   2  -5  -4   70.89    4.00
   2  -5  -4   72.09    4.30
  -2  -5   4   69.69    4.20
   2   5  -4   70.79    4.40
   2   5  -4   68.29    3.80
  -2   5   4   69.49    3.80
  -2   5   4   75.39    4.50
  -2   5   4   63.99    4.30
   2   5  -4   73.89    4.50
  -1  -5   4   18.60    1.90
   1  -5  -4   17.20    2.00
   1  -5  -4   18.10    1.90
  -1  -5   4   15.80    2.00
  -1  -5   4   17.30    2.40
   1  -5  -4   17.40    2.10
   1  -5  -4   16.20    2.00
   1  -5  -4   19.10    2.00
  -1  -5   4   14.70    2.50
   1  -5  -4   16.10    1.90
  -1  -5   4   17.10    2.00
   1   5  -4   12.00    2.20
  -1   5   4   17.00    2.00
   1   5  -4   15.10    1.50
   1   5  -4   14.90    2.00
  -1   5   4   18.40    2.00
   0  -5  -4  288.57   13.30
   0  -5  -4  283.97   13.10
   0  -5   4  268.17   13.00
   0  -5   4  272.27   13.00
   0  -5  -4  274.97   13.10
   0  -5  -4  294.27   13.40
   0  -5  -4  256.87   12.90
   0  -5   4  291.77   13.80
   0  -5   4  284.17   13.50
   0  -5  -4  291.57   13.30
   0   5  -4  279.67   12.80
   0   5  -4  286.17   13.50
   0   5  -4  244.38   13.40
   0   5   4  284.37   13.30
   0   5   4  281.47   13.30
   1  -5   4   36.30    2.60
  -1  -5  -4   38.50    3.00
   1  -5   4   41.00    3.50
   1  -5   4   39.20    2.70
   1  -5   4   31.20    3.10
  -1  -5  -4   36.00    2.90
  -1  -5  -4   37.20    3.00
  -1  -5  -4   36.00    2.60
  -1  -5  -4   38.50    2.80
  -1   5  -4   38.40    2.30
   1   5   4   40.50    2.70
  -1   5  -4   37.70    2.80
  -1   5  -4   36.60    3.00
   1   5   4   41.20    2.80
   2  -5   4    0.70    1.40
  -2  -5  -4    5.20    1.40
  -2  -5  -4    0.30    1.10
  -2  -5  -4    0.40    0.90
  -2  -5  -4    0.80    1.10
   2  -5   4    0.50    1.30
  -2  -5  -4    0.20    1.20
  -2   5  -4    1.40    0.60
  -2   5  -4    0.20    1.00
   2   5   4    1.00    0.90
  -2   5  -4    2.70    1.10
  -3  -5  -4   72.39    4.30
  -3  -5  -4   71.79    4.00
   3  -5   4   71.79    4.60
   3  -5   4   67.39    4.40
  -3  -5  -4   70.29    4.40
  -3  -5  -4   74.29    4.30
  -3   5  -4   75.69    4.00
  -3   5  -4   71.39    4.20
   3   5   4   65.99    3.80
  -4  -5  -4  152.88    7.70
  -4  -5  -4  148.29    7.50
  -4  -5  -4  161.98    7.80
   4  -5   4  152.98    7.90
   4  -5   4  160.58    8.10
  -4   5  -4  157.28    7.50
  -4   5  -4  156.38    7.80
   5  -5   4    6.90    1.50
   5  -5   4    6.20    1.40
  -5   5  -4    4.00    1.00
  -5   5  -4    7.10    1.50
   6  -5   4    4.20    1.20
   6  -5   4    3.70    1.10
  -6   5  -4    2.60    0.90
   7  -5   4   35.30    2.60
  -7   5  -4   35.60    2.30
   8  -5   4    3.40    1.00
  -6  -6   4    1.40    0.80
  -6  -6   4   -0.10    1.00
   6  -6  -4    1.80    0.70
  -6   6   4    1.80    0.60
  -6   6   4    2.30    0.70
   6   6  -4    0.70    0.40
  -5  -6   4   12.00    1.60
  -5  -6   4   11.40    1.50
   5  -6  -4   10.70    1.40
  -5  -6   4   10.90    1.80
  -5  -6   4   11.10    1.50
   5  -6  -4   12.70    1.40
  -5   6   4   13.60    1.40
  -5   6   4   13.70    1.30
  -4  -6   4    3.20    1.10
  -4  -6   4    4.00    1.10
  -4  -6   4    3.60    0.90
   4  -6  -4    3.10    1.10
  -4  -6   4    1.30    1.00
  -4  -6   4    3.20    1.10
   4  -6  -4    3.20    1.00
  -4   6   4    2.70    0.60
  -4   6   4    3.70    0.90
   4   6  -4    2.80    0.70
   3  -6  -4  104.99    5.10
  -3  -6   4  107.39    5.30
  -3  -6   4  108.09    5.40
  -3  -6   4  103.29    5.80
   3  -6  -4   94.99    5.20
   3  -6  -4  105.69    5.40
  -3  -6   4  110.39    5.30
   3  -6  -4  103.59    5.30
  -3  -6   4  104.09    5.50
  -3   6   4  103.79    5.20
   3   6  -4  105.09    5.00
  -3   6   4  101.79    5.00
   3   6  -4   99.99    5.10
  -3   6   4   92.89    5.50
   2  -6  -4   94.89    5.00
  -2  -6   4   90.09    5.60
   2  -6  -4   97.89    5.10
  -2  -6   4  100.49    5.10
  -2  -6   4   96.39    5.10
   2  -6  -4  102.39    5.00
  -2  -6   4  100.69    5.00
   2  -6  -4   91.19    5.20
  -2  -6   4   97.69    5.40
   2  -6  -4   96.49    5.20
   2   6  -4   97.09    4.80
   2   6  -4   87.29    5.20
  -2   6   4   95.09    5.40
  -2   6   4  102.99    4.80
   2   6  -4   98.49    5.00
   1  -6  -4   72.69    4.20
   1  -6  -4   78.09    4.10
  -1  -6   4   76.29    4.10
  -1  -6   4   68.09    4.60
   1  -6  -4   78.59    4.20
   1  -6  -4   74.19    4.10
  -1  -6   4   72.19    4.10
  -1  -6   4   79.59    4.00
  -1  -6   4   71.89    4.40
   1   6  -4   77.09    4.00
  -1   6   4   74.09    3.80
  -1   6   4   75.29    4.40
   1   6  -4   65.39    3.70
   1   6  -4   67.89    4.20
  -1   6   4   75.69    4.80
   0  -6  -4  108.09    5.60
   0  -6   4  106.89    5.70
   0  -6   4   93.49    5.90
   0  -6  -4  102.39    5.40
   0  -6   4  116.19    5.40
   0  -6  -4  113.49    5.50
   0  -6  -4  113.49    5.70
   0  -6  -4  104.09    5.60
   0  -6   4  113.79    5.50
   0   6   4   93.49    5.80
   0   6   4  105.59    5.20
   0   6  -4  106.79    5.40
   0   6  -4  101.89    5.10
   0   6   4  115.59    5.80
  -1  -6  -4    2.60    1.10
   1  -6   4    1.30    1.10
  -1  -6  -4    0.90    1.20
   1  -6   4    0.30    1.00
  -1  -6  -4    0.60    1.00
  -1  -6  -4    1.00    0.90
   1  -6   4    1.50    1.30
  -1  -6  -4    1.60    0.90
   1   6   4    0.90    1.60
  -1   6  -4    2.40    1.00
  -1   6  -4    1.70    0.60
   1   6   4    1.40    0.90
  -2  -6  -4   51.59    3.20
   2  -6   4   53.29    3.60
  -2  -6  -4   56.49    3.40
   2  -6   4   49.50    3.40
  -2  -6  -4   54.49    3.10
  -2  -6  -4   51.89    3.10
  -2  -6  -4   55.19    3.20
  -2   6  -4   52.09    3.10
   2   6   4   49.50    3.30
  -2   6  -4   54.39    3.20
  -3  -6  -4   18.60    1.90
  -3  -6  -4   13.90    1.50
  -3  -6  -4   16.80    1.60
   3  -6   4   15.50    2.20
  -3   6  -4   17.10    1.50
   3   6   4   14.00    1.70
  -3   6  -4   16.90    1.80
  -4  -6  -4   29.70    2.60
  -4  -6  -4   35.50    2.20
  -4  -6  -4   27.70    2.20
   4  -6   4   36.20    2.70
  -4   6  -4   32.50    2.00
  -4   6  -4   36.70    2.30
   5  -6   4   30.10    2.30
  -5   6  -4   30.50    2.00
   2  -7  -4   34.30    2.10
  -2  -7   4   30.40    2.10
  -2   7   4   34.30    1.70
  -2   7   4   33.70    2.00
   1  -7  -4   15.70    1.40
   1  -7  -4   21.10    1.60
  -1  -7   4   19.40    1.60
   1  -7  -4   16.80    1.20
  -1   7   4   19.50    1.10
   1   7  -4   15.80    1.30
  -1   7   4   16.30    1.50
   0  -7  -4   23.50    1.60
   0  -7  -4   20.80    1.40
   0  -7  -4   24.00    1.50
   0  -7   4   24.90    1.90
   0   7  -4   23.80    1.50
   0   7   4   24.00    1.40
   1  -7   4   47.10    2.80
  -1  -7  -4   50.29    2.60
  -1  -7  -4   47.40    2.50
  -1  -7  -4   46.30    2.50
  -1   7  -4   45.30    2.40
 -11   0   5   11.50    1.20
 -11   0   5   13.00    1.10
  10   0  -5   70.09    4.00
 -10   0   5   78.19    4.10
 -10   0   5   81.59    4.00
  -9   0   5  111.29    5.60
  -9   0   5  108.69    5.70
  -8   0   5    9.80    1.50
  -8   0   5    9.30    1.50
   7   0  -5  284.87   15.70
   7   0  -5  284.07   13.40
  -7   0   5  280.37   13.30
  -7   0   5  281.07   13.10
   6   0  -5   49.80    3.10
  -6   0   5   44.50    2.90
  -6   0   5   49.80    3.10
   6   0  -5   54.89    4.80
  -6   0   5   54.99    4.30
   5   0  -5   65.29    7.20
  -5   0   5   72.89    4.90
   5   0  -5   71.19    3.80
   5   0  -5   72.79    5.40
  -4   0   5   40.30    3.00
   4   0  -5   35.40    5.10
   4   0  -5   45.20    3.80
   4   0  -5   32.70    3.40
   4   0  -5   30.40    2.10
   3   0  -5   12.10    2.00
   3   0  -5   15.30    2.10
  -3   0   5   13.90    2.20
  -3   0   5   16.30    1.80
   3   0  -5   16.60    3.30
   2   0  -5  460.55   20.90
  -2   0   5  460.35   20.50
   2   0  -5  416.86   20.80
  -2   0   5  442.16   21.10
   2   0  -5  469.45   23.80
  -2   0   5  403.86   19.80
  -1   0   5   16.30    1.60
  -1   0   5   15.00    1.20
  -1   0   5   16.30    1.80
   1   0  -5   16.60    3.00
   1   0  -5   16.80    1.60
   0   0   5    4.20    1.00
   0   0   5    5.20    1.20
   0   0  -5    5.70    0.90
   0   0   5    5.50    0.70
   0   0  -5    6.10    2.10
   1   0   5 1764.52   81.89
  -1   0  -5 1862.91   84.19
   1   0   5 1824.22   80.99
  -1   0  -5 1917.21   81.59
  -2   0  -5  271.97   15.30
   2   0   5  270.97   12.70
  -2   0  -5  299.67   13.50
   2   0   5  280.57   13.60
   3   0   5   87.99    4.40
   3   0   5   89.49    5.30
  -3   0  -5   94.49    5.30
   4   0   5   63.79    3.40
   4   0   5   71.09    4.50
  -4   0  -5   69.39    4.50
   5   0   5   31.80    3.00
   5   0   5   32.70    1.90
  -5   0  -5   30.90    2.00
  -5   0  -5   29.70    2.00
  -5   0  -5   31.80    3.10
  -5   0  -5   29.00    2.10
   6   0   5  100.59    4.90
  -6   0  -5   96.49    6.50
  -6   0  -5   92.79    4.80
  -6   0  -5   95.39    4.90
  -6   0  -5   99.69    5.00
  -6   0  -5   91.69    5.10
   6   0   5   93.89    6.30
  -7   0  -5  758.42   32.90
   7   0   5  748.83   32.90
  -7   0  -5  753.42   32.80
  -7   0  -5  676.63   33.00
  -7   0  -5  734.53   32.90
  -8   0  -5   54.79    3.10
  -8   0  -5   47.40    3.00
   8   0   5   52.19    3.10
  -8   0  -5   51.49    3.20
  -9   0  -5  173.48    9.10
  -9   0  -5  215.38    9.30
  -9   0  -5  208.58    9.40
   9   0   5  190.48    9.40
 -10   0  -5   30.00    2.00
 -10   0  -5   27.70    1.80
 -10   0  -5   29.40    1.90
  11  -1  -5   45.10    2.40
 -11  -1   5   44.60    2.40
 -11   1   5   43.80    2.40
 -11   1   5   42.20    2.30
 -10  -1   5   25.80    2.00
 -10   1   5   26.50    1.90
 -10   1   5   26.50    2.00
   9  -1  -5   75.59    4.10
  -9  -1   5   74.69    4.30
  -9  -1   5   68.69    4.10
  -9   1   5   75.49    4.10
   9   1  -5   67.49    4.40
  -9   1   5   81.59    4.20
   8  -1  -5  281.37   13.60
  -8  -1   5  311.67   13.90
  -8  -1   5  290.07   13.90
  -8   1   5  288.57   13.80
   8   1  -5  291.37   14.00
  -8   1   5  305.97   13.80
   7  -1  -5  281.87   16.60
   7  -1  -5  317.47   14.40
  -7  -1   5  332.57   14.70
  -7  -1   5  308.07   14.70
   7   1  -5  337.87   14.80
  -7   1   5  324.97   14.50
   7   1  -5  278.07   18.30
  -7   1   5  305.27   14.50
   6  -1  -5  322.77   16.30
  -6  -1   5  273.07   14.20
  -6  -1   5  309.07   14.20
   6   1  -5  319.37   16.70
  -6   1   5  304.77   15.80
   6   1  -5  279.57   16.20
  -6   1   5  308.17   14.10
   6   1  -5  335.07   14.40
  -6   1   5  293.27   14.10
   5  -1  -5   10.70    4.10
   5  -1  -5   14.20    2.60
   5   1  -5   18.70    4.80
  -5   1   5   12.00    2.20
   5   1  -5   12.70    3.00
   5   1  -5   15.30    2.80
   5   1  -5   16.80    1.50
   4  -1  -5  476.25   22.50
   4  -1  -5  414.56   24.90
   4   1  -5  493.75   22.90
   4   1  -5  471.15   22.80
   4   1  -5  467.35   26.10
   4   1  -5  452.25   21.00
  -4   1   5  485.15   22.30
   3  -1  -5  817.02   36.10
   3  -1  -5  813.72   39.20
  -3   1   5  731.23   34.80
   3   1  -5  801.22   36.40
   3   1  -5  717.33   34.70
  -3   1   5  738.03   34.80
  -3   1   5  805.32   35.90
   3   1  -5  815.62   39.80
  -3   1   5  774.32   36.40
   3   1  -5  804.72   36.20
   2  -1  -5  395.26   18.60
   2  -1  -5  433.26   21.80
  -2  -1   5  370.16   17.80
   2   1  -5  366.16   18.80
  -2   1   5  394.16   17.70
   2   1  -5  413.36   22.00
  -2   1   5  365.46   17.60
  -2   1   5  416.46   19.10
   2   1  -5  398.36   18.70
  -2   1   5  396.86   18.50
   2   1  -5  343.27   17.50
  -1  -1   5  104.99    5.90
  -1  -1   5  116.09    6.80
   1  -1  -5  121.39    8.90
   1  -1  -5  122.79    6.50
   1   1  -5  120.09    8.90
  -1   1   5  118.99    6.80
   1   1  -5  116.99    6.80
  -1   1   5  124.79    6.50
  -1   1   5  123.89    5.70
   1   1  -5  121.59    6.40
   0  -1  -5  135.39    9.40
   0  -1  -5  149.99    6.90
   0  -1   5  129.69    7.20
   0  -1   5  120.19    6.20
   0   1   5  113.19    6.70
   0   1  -5  123.39    6.50
   0   1  -5  141.39    9.40
   0   1   5  130.79    7.00
   0   1   5  124.29    6.10
  -1  -1  -5  843.42   40.40
  -1  -1  -5  751.42   36.90
   1  -1   5  809.42   36.60
   1  -1   5  852.71   37.80
  -1   1  -5  852.81   37.00
  -1   1  -5  809.62   39.80
   1   1   5  817.12   36.40
   1   1   5  862.31   37.40
  -2  -1  -5  104.59    8.20
   2  -1   5  120.69    6.50
  -2  -1  -5  105.39    6.00
   2  -1   5  110.69    5.30
   2   1   5  113.29    5.90
  -2   1  -5  115.99    5.90
  -2   1  -5   98.39    7.40
   2   1   5  102.49    5.00
  -3  -1  -5  803.02   35.40
  -3  -1  -5  662.93   37.60
   3  -1   5  794.02   34.40
   3  -1   5  789.82   35.70
   3   1   5  785.72   35.00
   3   1   5  758.02   34.00
  -3   1  -5  815.72   35.20
  -4  -1  -5  346.17   16.30
   4  -1   5  332.87   15.20
   4  -1   5  332.27   16.60
   4   1   5  316.47   14.80
   4   1   5  337.07   15.80
  -4   1  -5  331.67   16.20
   5  -1   5   79.39    4.00
  -5  -1  -5   75.59    3.90
  -5  -1  -5   73.39    3.90
   5  -1   5   83.69    5.70
  -5  -1  -5   80.59    5.30
  -5  -1  -5   73.59    4.20
  -5  -1  -5   70.59    3.90
  -5   1  -5   77.29    5.10
   5   1   5   79.09    3.70
  -5   1  -5   72.49    4.30
   5   1   5   74.69    4.70
  -5   1  -5   72.29    4.00
  -5   1  -5   69.59    3.80
  -5   1  -5   72.39    3.90
   6  -1   5  102.39    7.30
  -6  -1  -5  100.39    5.20
  -6  -1  -5   98.19    5.40
  -6  -1  -5  105.09    5.20
  -6  -1  -5   99.29    6.70
  -6  -1  -5  105.89    5.10
   6  -1   5  107.39    5.30
  -6   1  -5   97.09    6.70
   6   1   5  106.59    5.00
  -6   1  -5  101.99    5.40
  -6   1  -5   95.19    5.20
  -6   1  -5   98.79    5.10
  -6   1  -5  102.09    5.10
   7  -1   5  342.87   15.30
  -7  -1  -5  336.97   15.10
  -7  -1  -5  325.97   15.10
  -7  -1  -5  335.47   15.00
  -7   1  -5  327.97   15.10
  -7   1  -5  306.17   15.20
  -7   1  -5  316.67   15.00
   7   1   5  332.97   15.00
  -7   1  -5  325.87   15.00
  -8  -1  -5  233.58   11.20
   8  -1   5  241.98   11.50
  -8  -1  -5  260.47   11.20
  -8  -1  -5  251.17   11.30
   8  -1   5  215.08   11.50
   8   1   5  246.58   11.30
  -8   1  -5  228.28   11.40
  -8   1  -5  242.88   11.30
  -8   1  -5  244.68   11.20
  -8   1  -5  244.38   11.20
  -9  -1  -5   55.29    3.30
  -9  -1  -5   60.59    3.40
  -9  -1  -5   63.59    3.40
   9   1   5   61.29    3.60
  -9   1  -5   62.89    3.30
  -9   1  -5   60.69    3.40
  -9   1  -5   64.89    3.40
 -10  -1  -5   12.00    1.20
 -10  -1  -5   11.10    1.20
 -10   1  -5   14.40    1.40
 -10   1  -5    9.70    1.10
 -10   1  -5   10.30    1.20
 -11  -2   5    7.90    0.80
  11  -2  -5    8.50    1.00
 -11   2   5    9.00    0.90
 -10  -2   5  116.39    5.70
  10  -2  -5  116.09    5.60
 -10  -2   5  111.39    5.80
 -10   2   5  120.09    5.70
   9  -2  -5   82.49    4.60
  -9  -2   5  103.89    5.10
  -9  -2   5   97.19    4.80
   9  -2  -5   92.89    4.60
  -9   2   5   81.39    4.70
   9   2  -5   82.19    5.00
  -8  -2   5   23.50    2.10
   8  -2  -5   19.60    2.00
  -8  -2   5   22.70    2.40
  -8   2   5   21.60    1.90
   8   2  -5   20.70    2.20
  -8   2   5   25.90    2.10
  -7  -2   5  270.67   12.40
   7  -2  -5  250.47   12.10
  -7  -2   5  255.97   12.50
  -7   2   5  255.87   12.20
  -7   2   5  259.97   12.20
   7   2  -5  270.47   12.60
   6  -2  -5   57.69    3.30
  -6  -2   5   53.09    3.70
   6  -2  -5   52.89    5.20
  -6  -2   5   55.99    3.60
  -6  -2   5   60.09    3.50
  -6   2   5   54.59    3.40
   6   2  -5   41.40    5.00
   6   2  -5   65.09    3.60
  -6   2   5   55.39    3.30
   6   2  -5   51.19    5.80
   6   2  -5   54.09    3.30
  -6   2   5   50.69    5.20
  -5  -2   5  188.88    9.50
   5  -2  -5  195.68   11.10
   5  -2  -5  182.38    9.10
  -5  -2   5  184.18    9.10
  -5  -2   5  188.48    9.30
  -5   2   5  194.78    9.20
   5   2  -5  202.38   11.60
   5   2  -5  177.58   11.20
  -5   2   5  206.68   11.10
  -5   2   5  191.48    8.80
   5   2  -5  207.58    9.40
   4  -2  -5  416.96   24.90
   4  -2  -5  446.76   21.60
   4   2  -5  449.46   22.00
   4   2  -5  428.46   21.80
   4   2  -5  415.76   25.90
  -4   2   5  457.15   21.50
  -4   2   5  431.16   20.10
   4   2  -5  464.85   20.00
  -4   2   5  422.96   20.00
   3  -2  -5  422.96   20.30
   3  -2  -5  405.96   23.60
   3   2  -5  425.96   20.50
   3   2  -5  410.26   18.80
  -3   2   5  439.16   20.20
   3   2  -5  392.46   24.10
   3   2  -5  390.56   20.40
  -3   2   5  417.56   18.90
  -3   2   5  414.86   18.90
  -3   2   5  405.76   20.60
   2  -2  -5  236.08   11.90
   2  -2  -5  226.48   15.00
   2   2  -5  235.98   15.60
   2   2  -5  226.68   10.60
  -2   2   5  213.08   12.00
  -2   2   5  229.08   10.70
   2   2  -5  221.08   11.90
   2   2  -5  223.68   12.20
  -2   2   5  247.28   11.90
  -2   2   5  213.08   10.60
   1  -2  -5   73.39    7.10
   1  -2  -5   71.89    4.70
   1   2  -5   68.19    7.00
  -1   2   5   69.69    4.70
  -1   2   5   62.49    3.50
  -1   2   5   66.39    3.50
  -1   2   5   67.69    4.40
   1   2  -5   64.69    4.40
   1   2  -5   61.69    3.60
   1   2  -5   66.39    4.90
   0  -2  -5  446.66   24.70
   0  -2  -5  450.35   21.00
   0   2   5  457.85   21.00
   0   2   5  424.36   19.70
   0   2  -5  403.26   20.50
   0   2  -5  446.36   24.40
   0   2   5  453.45   20.90
  -1  -2  -5  779.62   40.30
  -1  -2  -5  771.82   36.30
   1   2   5  837.12   36.10
   1   2   5  762.02   34.90
   1   2   5  827.22   36.40
  -1   2  -5  774.32   39.40
   2  -2   5  285.87   16.80
   2  -2   5  318.07   15.50
  -2  -2  -5  337.17   20.50
   2   2   5  377.76   16.70
  -2   2  -5  333.77   15.90
   2   2   5  384.36   16.20
   3  -2   5   13.60    1.40
  -3  -2  -5   11.80    4.20
   3  -2   5   16.20    2.60
  -3   2  -5   12.70    1.90
   3   2   5   14.00    1.60
   4  -2   5   19.80    1.80
  -4  -2  -5   22.10    2.60
  -4  -2  -5   16.30    1.70
  -4   2  -5   20.20    2.50
  -4   2  -5   19.30    1.80
   4   2   5   20.30    1.90
  -5  -2  -5   35.60    2.30
  -5  -2  -5   31.00    3.50
   5  -2   5   38.90    2.50
  -5  -2  -5   34.90    2.80
  -5  -2  -5   36.20    2.30
   5  -2   5   34.00    2.60
  -5  -2  -5   34.10    2.40
  -5   2  -5   34.00    2.30
  -5   2  -5   34.70    2.60
   5   2   5   34.80    2.60
  -5   2  -5   35.90    3.50
   6  -2   5   85.39    4.90
  -6  -2  -5   90.79    4.80
   6  -2   5   85.29    4.90
  -6  -2  -5   89.29    4.60
  -6  -2  -5   93.39    4.70
  -6   2  -5   90.09    4.70
  -6   2  -5   95.69    5.10
  -6   2  -5   86.99    4.50
   7  -2   5   18.60    2.20
   7  -2   5   16.50    2.10
  -7  -2  -5   18.60    2.00
  -7  -2  -5   21.60    1.80
  -7  -2  -5   20.60    1.70
  -7   2  -5   18.60    1.90
   7   2   5   18.70    1.40
  -7   2  -5   19.40    2.20
  -7   2  -5   19.70    1.80
   8  -2   5  147.59    7.30
  -8  -2  -5  152.58    7.10
  -8  -2  -5  156.28    7.00
  -8  -2  -5  145.69    7.10
  -8   2  -5  128.69    7.10
  -8   2  -5  151.08    6.90
  -8   2  -5  146.79    7.30
   8   2   5  136.59    6.90
   9  -2   5   10.00    1.60
  -9  -2  -5   10.80    1.40
  -9  -2  -5   12.50    1.30
  -9   2  -5   11.70    1.50
  -9   2  -5    9.40    1.30
 -10  -2  -5   32.70    1.90
 -10  -2  -5   32.20    1.90
 -10   2  -5   31.80    1.80
 -10   2  -5   38.00    2.00
 -10  -3   5   25.50    1.80
  10  -3  -5   22.60    1.60
 -10   3   5   24.50    1.60
  -9  -3   5   39.00    2.30
  -9  -3   5   40.30    2.80
   9  -3  -5   40.00    2.50
  -9   3   5   38.80    2.40
  -9   3   5   36.30    2.50
   8  -3  -5    7.90    1.30
   8  -3  -5   10.70    1.50
  -8  -3   5    9.00    1.70
  -8  -3   5    8.70    1.40
  -8   3   5   11.90    1.60
   8   3  -5    8.40    1.70
  -8   3   5    8.90    1.40
  -7  -3   5   10.00    2.10
   7  -3  -5    8.30    1.40
   7  -3  -5   10.70    1.60
  -7  -3   5    7.60    1.60
  -7   3   5    7.80    1.70
   7   3  -5   11.70    1.80
   7   3  -5   10.90    1.70
  -7   3   5   10.20    1.80
   6  -3  -5  137.69    6.60
  -6  -3   5  131.59    6.80
   6  -3  -5  129.69    6.70
  -6  -3   5  142.29    7.30
  -6  -3   5  132.89    7.40
  -6   3   5  132.99    6.90
   6   3  -5  139.09    7.10
  -6   3   5  132.89    6.80
  -5  -3   5   73.39    4.10
   5  -3  -5   68.09    3.90
  -5  -3   5   70.69    4.40
   5  -3  -5   72.49    3.80
  -5  -3   5   69.59    4.50
  -5  -3   5   73.29    4.00
  -5  -3   5   71.69    4.10
   5  -3  -5   70.19    6.20
   5   3  -5   60.49    6.40
  -5   3   5   70.29    4.00
  -5   3   5   67.79    6.00
   5   3  -5   69.29    3.80
   5   3  -5   74.89    4.30
  -5   3   5   73.99    3.70
  -4  -3   5  126.99    6.50
   4  -3  -5  125.49    6.40
   4  -3  -5  132.29    6.70
  -4  -3   5  129.19    7.00
   4  -3  -5  131.69    6.40
  -4  -3   5  131.49    6.90
   4  -3  -5  128.09    8.50
  -4  -3   5  134.29    6.60
  -4  -3   5  135.79    6.60
   4  -3  -5  124.89    6.50
   4  -3  -5  128.89    6.60
  -4   3   5  128.99    8.30
  -4   3   5  140.69    6.90
  -4   3   5  138.69    7.00
   4   3  -5  141.89    6.80
   4   3  -5  126.29    6.30
   4   3  -5  121.79    8.60
  -4   3   5  135.39    6.30
   4   3  -5  132.19    9.20
  -4   3   5  126.59    6.50
  -3  -3   5  184.58    9.50
  -3  -3   5  186.68    9.10
   3  -3  -5  181.78    9.00
  -3  -3   5  187.98    9.00
   3  -3  -5  212.18   11.40
   3  -3  -5  184.78    9.10
   3  -3  -5  181.78    9.00
   3  -3  -5  192.28   10.30
   3   3  -5  209.98    9.40
   3   3  -5  201.28    9.30
   3   3  -5  181.98    8.90
  -3   3   5  174.38    8.80
  -3   3   5  207.88    9.40
  -3   3   5  183.88   11.40
   3   3  -5  174.18   11.10
   3   3  -5  177.48   11.10
  -3   3   5  201.88    9.40
  -3   3   5  194.78   10.80
   2  -3  -5   60.89    8.50
   2  -3  -5   69.99    5.40
  -2   3   5   62.59    3.70
   2   3  -5   54.29    9.70
  -2   3   5   63.89    3.70
   2   3  -5   67.19    3.80
   2   3  -5   63.29    5.50
   2   3  -5   60.39    5.20
   2   3  -5   66.59    3.80
  -2   3   5   67.19    5.00
  -2   3   5   63.49    5.20
   1  -3  -5  437.56   27.00
   1  -3  -5  465.75   22.50
   1   3  -5  457.75   20.70
   1   3  -5  437.26   22.70
  -1   3   5  465.75   22.30
   1   3  -5  407.56   26.30
  -1   3   5  453.55   20.60
   1   3  -5  451.75   20.70
   1   3  -5  437.26   22.10
  -1   3   5  476.05   22.10
  -1   3   5  480.25   20.60
   0  -3  -5  462.05   22.50
   0  -3  -5  414.86   26.70
   0   3   5  473.25   22.00
   0   3  -5  458.45   20.70
   0   3   5  444.06   20.40
   0   3   5  471.85   21.90
   0   3  -5  441.86   20.60
   0   3  -5  419.76   26.10
   0   3   5  482.35   20.50
  -1  -3  -5   14.60    3.00
  -1  -3  -5   11.80    5.10
   1   3   5   15.80    1.20
  -1   3  -5    9.30    4.40
   1   3   5   21.50    2.70
   1   3   5   17.10    2.30
  -2  -3  -5   91.79    6.50
  -2  -3  -5   89.49    4.80
  -2  -3  -5   90.39    4.70
   2  -3   5   93.49    4.90
   2   3   5   93.09    5.40
   2   3   5   93.49    6.00
  -2   3  -5   88.29    4.70
  -2   3  -5   80.39    4.90
  -3  -3  -5   62.39    3.70
   3  -3   5   66.89    3.70
  -3  -3  -5   63.49    3.50
  -3  -3  -5   60.09    3.60
  -3  -3  -5   59.99    3.30
  -3  -3  -5   59.69    3.50
   3  -3   5   60.29    3.80
   3   3   5   57.79    4.70
  -3   3  -5   62.49    3.40
   3   3   5   60.69    3.80
  -3   3  -5   58.69    3.60
  -4  -3  -5  191.68    9.10
  -4  -3  -5  195.68    9.50
  -4  -3  -5  196.88    9.30
   4  -3   5  197.58    9.60
  -4  -3  -5  201.58    9.30
  -4   3  -5  197.28    9.20
   4   3   5  178.98   10.80
  -4   3  -5  203.88    9.50
  -4   3  -5  191.08    9.20
   5  -3   5   33.80    2.60
  -5  -3  -5   34.60    2.30
  -5  -3  -5   27.00    3.00
  -5  -3  -5   37.10    2.50
  -5   3  -5   39.80    2.70
  -5   3  -5   32.90    2.30
  -6  -3  -5    7.40    1.40
  -6  -3  -5    5.70    1.10
   6  -3   5    4.10    1.10
  -6   3  -5    6.10    1.40
  -6   3  -5    6.70    1.40
  -7  -3  -5   38.60    2.50
  -7  -3  -5   40.40    2.50
   7  -3   5   39.80    3.00
  -7   3  -5   41.70    2.70
  -7   3  -5   45.70    3.10
   8  -3   5   38.40    2.80
  -8  -3  -5   40.40    2.40
  -8   3  -5   40.90    2.80
  -8   3  -5   42.20    2.60
  -9  -3  -5   20.30    1.40
   9  -3   5   19.10    1.80
   9  -3   5   22.60    1.80
  -9   3  -5   20.10    1.60
   9  -4  -5   14.70    1.30
  -9  -4   5   15.20    1.60
  -9   4   5   13.90    1.30
  -9   4   5   15.20    1.20
   8  -4  -5   31.10    2.20
   8  -4  -5   30.40    2.20
  -8  -4   5   35.40    2.60
  -8   4   5   33.60    2.20
  -8   4   5   30.20    2.00
   7  -4  -5  149.39    7.00
  -7  -4   5  129.49    7.40
  -7  -4   5  155.88    7.70
   7  -4  -5  151.68    7.10
  -7   4   5  143.79    7.10
   7   4  -5  139.69    7.00
  -7   4   5  149.09    6.90
   7   4  -5  123.79    7.20
   6  -4  -5   97.39    4.80
   6  -4  -5   92.09    4.90
  -6  -4   5   94.69    5.60
  -6  -4   5   82.99    5.30
  -6  -4   5   98.49    5.00
   6   4  -5   92.89    5.20
  -6   4   5   89.09    4.80
  -6   4   5   83.69    4.90
  -5  -4   5  199.68    9.60
  -5  -4   5  206.68    9.80
   5  -4  -5  200.38    9.60
   5  -4  -5  198.58    9.50
   5  -4  -5  190.38    9.70
  -5  -4   5  203.88   10.20
  -5  -4   5  199.58   10.20
  -5  -4   5  191.58    9.60
  -5   4   5  205.28    9.30
  -5   4   5  200.58    9.70
  -5   4   5  188.88    9.50
   5   4  -5  205.78   10.00
   5   4  -5  202.38    9.40
   4  -4  -5   93.49    5.00
   4  -4  -5   93.09    5.10
  -4  -4   5   94.79    5.70
  -4  -4   5  100.79    5.20
  -4  -4   5   93.79    5.80
   4  -4  -5   98.29    5.20
   4  -4  -5   97.69    5.40
  -4  -4   5  103.39    5.20
  -4  -4   5   97.79    5.30
  -4   4   5   98.49    4.90
  -4   4   5   83.49    5.00
  -4   4   5   95.09    5.60
  -4   4   5  104.19    5.60
   4   4  -5  100.29    4.90
   4   4  -5   99.69    5.50
   3  -4  -5  192.68    9.10
   3  -4  -5  191.88    9.20
   3  -4  -5  189.08    9.30
   3  -4  -5  193.18    9.50
   3  -4  -5  189.18    9.30
  -3  -4   5  199.38    9.90
  -3  -4   5  187.18    9.20
  -3  -4   5  190.48    9.20
  -3  -4   5  188.68    9.30
  -3  -4   5  199.48    9.80
   3  -4  -5  192.08    9.20
   3   4  -5  169.28    9.00
  -3   4   5  187.78    9.60
   3   4  -5  198.78    9.00
   3   4  -5  201.08    9.60
  -3   4   5  200.58    9.70
  -3   4   5  186.78    9.00
   3   4  -5  187.38    9.60
   2  -4  -5  168.78    8.20
   2  -4  -5  166.48   11.00
  -2  -4   5  165.08    8.30
   2  -4  -5  166.48    8.10
  -2  -4   5  167.18    8.20
  -2  -4   5  166.48    8.70
   2  -4  -5  165.58    8.40
  -2  -4   5  177.28    8.80
   2  -4  -5  168.68    8.30
   2  -4  -5  172.48    8.30
  -2  -4   5  154.08    8.10
   2  -4  -5  177.78    8.30
  -2   4   5  149.99    9.90
   2   4  -5  177.88    8.00
   2   4  -5  163.98    8.10
   2   4  -5  185.58    8.60
   2   4  -5  182.08    8.60
  -2   4   5  187.28    8.70
   2   4  -5  143.59   10.50
  -2   4   5  156.28    8.00
  -2   4   5  163.58    8.50
   1  -4  -5  528.25   23.70
   1  -4  -5  490.25   23.50
   1  -4  -5  508.35   23.70
  -1  -4   5  533.15   23.70
   1  -4  -5  545.25   23.80
   1  -4  -5  486.05   26.40
   1  -4  -5  515.35   23.70
  -1  -4   5  540.35   24.20
  -1  -4   5  520.35   24.20
   1  -4  -5  531.35   24.00
  -1   4   5  568.44   24.10
  -1   4   5  531.15   24.00
  -1   4   5  443.46   25.10
   1   4  -5  546.95   24.10
   1   4  -5  528.35   23.60
   1   4  -5  549.25   24.10
   0  -4   5  335.57   15.40
   0  -4  -5  322.07   15.00
   0  -4   5  303.07   14.80
   0  -4  -5  323.77   14.90
   0  -4  -5  330.47   15.20
   0  -4  -5  314.47   14.90
   0  -4  -5  306.37   17.70
   0  -4  -5  327.57   15.00
   0  -4   5  321.77   15.40
   0   4  -5  328.37   14.60
   0   4  -5  310.27   14.80
   0   4  -5  314.47   15.20
   0   4   5  331.57   15.00
   0   4   5  337.87   15.00
   1  -4   5   75.69    4.50
  -1  -4  -5   71.39    4.30
  -1  -4  -5   73.39    4.20
  -1  -4  -5   61.69    6.60
  -1  -4  -5   73.49    4.10
  -1  -4  -5   66.39    3.90
   1  -4   5   73.39    4.50
  -1  -4  -5   71.69    4.10
  -1   4  -5   71.19    4.00
   1   4   5   73.49    3.90
  -1   4  -5   77.59    3.70
  -1   4  -5   69.09    4.10
   2  -4   5   87.29    5.00
   2  -4   5   84.89    5.00
  -2  -4  -5   84.99    4.50
  -2  -4  -5   84.49    4.70
  -2  -4  -5   86.19    4.70
  -2  -4  -5   83.29    4.80
  -2  -4  -5   80.79    4.80
  -2   4  -5   82.49    4.60
   2   4   5   83.79    4.30
  -2   4  -5   89.29    4.60
  -2   4  -5   83.29    4.20
  -3  -4  -5   26.80    2.20
  -3  -4  -5   28.70    2.60
   3  -4   5   26.00    2.70
   3  -4   5   29.60    2.60
  -3  -4  -5   24.00    2.30
  -3  -4  -5   28.00    2.20
  -3   4  -5   29.30    2.10
  -3   4  -5   24.30    2.30
  -4  -4  -5   10.90    1.50
  -4  -4  -5   10.00    1.50
   4  -4   5    7.50    1.70
   4  -4   5    6.30    1.80
  -4  -4  -5    5.30    1.40
  -4   4  -5    7.80    1.50
  -4   4  -5    8.80    1.40
   5  -4   5   27.00    2.50
   5  -4   5   23.50    2.50
  -5   4  -5   31.40    2.20
  -5   4  -5   23.90    2.30
   6  -4   5   96.29    5.30
   6  -4   5   90.39    5.10
  -6   4  -5   82.09    4.90
  -6   4  -5   99.49    4.80
   7  -4   5  102.79    5.60
   7  -4   5  108.09    5.50
  -7   4  -5  102.89    5.40
  -7   4  -5  103.99    5.20
   8  -4   5   48.50    2.80
   8  -4   5   47.90    3.00
  -8   4  -5   46.80    2.60
  -8   4  -5   46.20    2.70
  -8  -5   5   12.60    1.20
   8  -5  -5   13.20    1.20
  -8   5   5   14.90    1.20
   7  -5  -5   28.60    2.00
  -7  -5   5   28.90    2.20
  -7  -5   5   30.00    2.30
   7  -5  -5   29.00    2.00
   7   5  -5   24.60    1.90
  -7   5   5   28.70    1.90
  -6  -5   5  103.59    5.20
   6  -5  -5  104.09    5.10
  -6  -5   5  104.39    5.60
  -6  -5   5  107.99    5.80
   6  -5  -5  102.19    5.20
  -6   5   5   90.59    5.20
  -6   5   5   99.59    5.20
   5  -5  -5  184.48    8.70
  -5  -5   5  162.68    8.90
  -5  -5   5  179.38    8.60
  -5  -5   5  177.08    9.10
   5  -5  -5  176.58    8.50
  -5  -5   5  181.78    8.60
  -5  -5   5  184.48    8.70
   5   5  -5  183.98    8.40
  -5   5   5  180.18    8.70
  -5   5   5  177.48    8.20
  -4  -5   5    9.50    2.20
  -4  -5   5   11.20    1.60
   4  -5  -5   12.70    1.80
   4  -5  -5   13.00    1.90
   4  -5  -5    9.70    1.80
  -4  -5   5    9.40    1.70
   4  -5  -5    7.80    1.70
  -4  -5   5   13.90    2.40
  -4  -5   5   11.90    2.00
  -4   5   5    9.50    1.20
  -4   5   5   11.00    1.70
  -4   5   5   12.70    2.00
   4   5  -5    9.40    1.30
   4   5  -5   11.10    1.80
  -3  -5   5   45.30    3.00
   3  -5  -5   40.50    2.80
  -3  -5   5   45.80    3.50
   3  -5  -5   43.10    2.90
  -3  -5   5   41.80    3.00
  -3  -5   5   42.30    3.70
   3  -5  -5   42.20    3.00
  -3  -5   5   43.40    2.90
   3  -5  -5   41.50    2.90
   3  -5  -5   44.00    3.20
  -3   5   5   40.50    3.30
  -3   5   5   44.80    2.60
   3   5  -5   41.10    2.70
   3   5  -5   44.40    2.60
  -3   5   5   45.10    3.20
   3   5  -5   39.80    3.20
  -2  -5   5  161.28    7.80
  -2  -5   5  152.48    8.40
   2  -5  -5  160.68    7.90
  -2  -5   5  154.58    7.80
  -2  -5   5  152.68    7.70
  -2  -5   5  164.38    8.40
   2  -5  -5  146.29    7.80
   2  -5  -5  164.98    7.80
   2  -5  -5  157.88    8.00
   2  -5  -5  161.38    7.80
   2   5  -5  147.09    8.10
   2   5  -5  156.88    7.70
  -2   5   5  157.08    7.50
   2   5  -5  158.28    8.20
   2   5  -5  164.98    7.50
  -2   5   5  158.88    8.20
  -2   5   5  159.48    8.30
  -1  -5   5   56.59    4.00
   1  -5  -5   55.49    3.50
   1  -5  -5   59.29    3.60
  -1  -5   5   60.59    4.20
   1  -5  -5   58.49    3.90
   1  -5  -5   58.59    3.50
  -1  -5   5   58.49    3.50
   1  -5  -5   58.89    3.70
  -1  -5   5   54.59    3.50
   1  -5  -5   59.49    3.70
  -1   5   5   61.99    3.80
   1   5  -5   52.29    4.70
   1   5  -5   56.19    3.20
  -1   5   5   59.19    3.80
   1   5  -5   59.59    3.80
   1   5  -5   59.49    3.50
  -1   5   5   57.79    4.00
   0  -5   5   13.00    2.20
   0  -5  -5   12.00    1.90
   0  -5  -5   12.70    1.70
   0  -5  -5    9.20    2.10
   0  -5   5   14.70    2.40
   0  -5  -5   12.80    1.90
   0  -5  -5   12.60    2.10
   0  -5   5    9.40    1.60
   0  -5  -5    9.10    1.90
   0   5   5   13.30    1.80
   0   5  -5   13.20    1.70
   0   5   5   12.70    1.80
   0   5  -5   15.10    1.40
   0   5  -5   11.30    2.10
   1  -5   5  109.39    6.10
  -1  -5  -5  105.19    5.90
  -1  -5  -5  109.39    5.90
  -1  -5  -5  109.39    5.70
   1  -5   5  109.49    6.30
  -1  -5  -5  101.99    5.60
  -1  -5  -5  113.39    6.00
  -1   5  -5  100.19    5.60
  -1   5  -5  107.99    5.60
  -1   5  -5  112.99    5.30
   1   5   5  112.39    5.80
   1   5   5  109.09    5.80
   2  -5   5   11.60    2.20
  -2  -5  -5   14.20    2.20
  -2  -5  -5   14.80    2.20
  -2  -5  -5   15.20    2.00
   2  -5   5   12.80    2.20
  -2  -5  -5   16.50    1.80
   2   5   5   15.30    1.70
  -2   5  -5   13.20    1.70
  -2   5  -5   14.90    1.90
  -3  -5  -5    7.80    1.70
  -3  -5  -5    7.70    1.50
  -3  -5  -5    6.50    1.40
  -3  -5  -5    9.50    1.80
   3  -5   5    8.80    2.00
   3  -5   5    8.40    1.80
   3   5   5    8.00    1.40
  -3   5  -5    8.00    1.80
  -3   5  -5   10.60    1.40
  -4  -5  -5   86.39    4.90
   4  -5   5   95.89    5.40
   4  -5   5   96.09    5.20
  -4  -5  -5   92.49    4.80
  -4   5  -5   90.69    4.70
  -4   5  -5   97.39    5.00
   5  -5   5   12.70    2.00
   5  -5   5   15.20    2.10
  -5   5  -5   16.40    1.80
  -5   5  -5   12.80    1.90
   6  -5   5   70.29    4.00
   6  -5   5   63.39    3.80
  -6   5  -5   70.49    3.70
   7  -5   5   46.30    2.70
  -7   5  -5   45.50    2.50
  -6  -6   5    6.50    1.40
  -6   6   5    3.50    0.80
  -5  -6   5    6.40    1.10
   5  -6  -5    8.90    1.20
   5  -6  -5    5.80    1.00
  -5  -6   5   10.50    1.60
  -5  -6   5    7.40    1.30
  -5   6   5    9.60    1.00
  -5   6   5    8.60    1.10
  -4  -6   5   17.30    2.10
  -4  -6   5   17.50    1.70
   4  -6  -5   15.70    1.50
  -4  -6   5   18.50    1.80
   4  -6  -5   13.20    1.50
  -4   6   5   15.30    1.60
  -4   6   5   16.70    1.10
  -3  -6   5    7.30    1.50
  -3  -6   5    8.90    1.90
   3  -6  -5    6.40    1.30
  -3  -6   5    8.00    1.50
   3  -6  -5    8.70    1.50
  -3  -6   5    8.10    1.80
   3  -6  -5    9.50    1.20
   3  -6  -5    7.60    1.50
  -3  -6   5    8.80    1.40
  -3   6   5    8.50    0.90
  -3   6   5    8.30    1.50
   3   6  -5    8.00    1.00
   2  -6  -5   14.80    1.80
  -2  -6   5   14.20    2.00
   2  -6  -5   13.50    1.70
  -2  -6   5   11.20    1.70
  -2  -6   5   18.80    1.70
   2  -6  -5   16.10    1.90
   2  -6  -5   13.10    1.70
   2  -6  -5   14.90    1.50
  -2  -6   5   12.80    1.80
  -2  -6   5   16.50    2.30
  -2   6   5   13.80    1.70
  -2   6   5   13.90    1.90
  -2   6   5   16.00    1.30
   2   6  -5   14.50    1.30
   2   6  -5   16.80    1.50
   1  -6  -5   56.59    3.40
   1  -6  -5   55.99    3.20
   1  -6  -5   54.69    3.30
  -1  -6   5   43.30    4.00
   1  -6  -5   53.69    3.40
   1  -6  -5   57.89    3.20
  -1  -6   5   54.79    3.80
  -1  -6   5   54.39    3.60
  -1  -6   5   57.59    3.20
  -1   6   5   55.69    3.00
   1   6  -5   53.79    2.90
   1   6  -5   56.79    3.10
  -1   6   5   53.29    3.50
   0  -6   5   27.30    2.60
   0  -6  -5   30.80    2.40
   0  -6  -5   33.60    2.80
   0  -6   5   26.90    2.00
   0  -6  -5   24.80    2.20
   0  -6  -5   29.00    2.10
   0  -6  -5   28.00    2.40
   0  -6   5   31.00    2.80
   0   6   5   28.60    2.30
   0   6   5   27.50    1.90
   0   6  -5   32.00    2.10
   0   6  -5   31.00    1.80
   1  -6   5   87.69    5.00
  -1  -6  -5   86.99    4.60
  -1  -6  -5   86.79    4.50
  -1  -6  -5   86.69    4.70
  -1  -6  -5   91.49    4.80
   1  -6   5   86.99    4.80
   1   6   5   84.69    4.70
  -1   6  -5   85.99    4.50
   2  -6   5   64.19    3.80
  -2  -6  -5   64.99    3.70
   2  -6   5   69.29    4.10
  -2  -6  -5   71.49    3.70
  -2  -6  -5   65.39    3.90
  -2  -6  -5   70.49    3.60
   2   6   5   62.79    3.80
  -2   6  -5   70.19    3.60
  -2   6  -5   64.89    3.60
  -3  -6  -5   27.30    1.80
  -3  -6  -5   26.30    1.80
   3  -6   5   23.20    2.10
  -3  -6  -5   26.80    1.90
   3  -6   5   25.60    2.40
  -3   6  -5   25.50    1.80
  -3   6  -5   25.00    1.90
   4  -6   5    4.90    1.10
  -4   6  -5    3.80    0.70
  -4   6  -5    5.00    1.00
   5  -6   5   11.80    1.40
  -5   6  -5   10.50    1.10
 -11   0   6   10.60    1.00
 -10   0   6   63.69    3.50
 -10   0   6   61.39    3.30
  10   0  -6   60.29    3.40
  -9   0   6    1.00    0.70
  -9   0   6    0.00    0.70
   9   0  -6    0.10    0.90
  -8   0   6   43.20    3.00
  -8   0   6   46.60    2.90
  -7   0   6    6.50    1.40
  -7   0   6    7.20    1.50
   6   0  -6  240.28   13.10
  -6   0   6  285.17   12.70
   6   0  -6  281.87   15.10
  -6   0   6  280.87   12.90
  -5   0   6    2.40    0.90
  -5   0   6    2.00    1.40
   5   0  -6    1.80    2.20
   5   0  -6    0.70    3.20
   4   0  -6   11.30    2.20
  -4   0   6    9.50    2.00
  -3   0   6    0.50    0.90
   3   0  -6    5.20    1.70
   3   0  -6   -0.10    1.90
  -2   0   6   29.90    2.00
  -2   0   6   30.20    2.50
   2   0  -6   28.60    4.40
  -2   0   6   24.40    1.90
  -2   0   6   26.70    3.00
   2   0  -6   26.60    2.60
  -1   0   6  503.45   23.90
   1   0  -6  563.74   28.40
   1   0  -6  516.25   24.50
  -1   0   6  551.34   24.70
  -1   0   6  531.15   23.90
  -1   0   6  532.15   25.30
   0   0   6  372.36   16.80
   0   0   6  383.16   18.10
   0   0   6  361.86   17.50
   0   0  -6  365.66   20.60
  -1   0  -6  844.62   42.80
   1   0   6  911.01   39.00
   1   0   6  882.81   40.30
  -2   0  -6   78.19    7.00
  -2   0  -6   85.69    5.10
   2   0   6   86.79    4.30
   2   0   6   90.49    5.40
   3   0   6  309.27   15.00
   3   0   6  287.87   13.70
  -3   0  -6  303.37   14.80
  -4   0  -6   74.59    4.90
  -4   0  -6   70.49    4.50
   4   0   6   71.19    3.80
   4   0   6   66.79    4.90
  -4   0  -6   74.59    5.00
   5   0   6 1328.17   59.19
  -5   0  -6 1304.57   57.49
  -5   0  -6 1305.57   59.19
   5   0   6 1280.17   57.59
  -5   0  -6 1304.37   57.79
  -5   0  -6 1286.17   57.59
  -5   0  -6 1302.57   57.59
  -6   0  -6   24.90    2.00
  -6   0  -6   22.90    1.80
  -6   0  -6   25.40    1.90
   6   0   6   22.50    1.80
  -6   0  -6   23.20    2.20
  -7   0  -6   54.29    3.60
  -7   0  -6   57.29    3.30
  -7   0  -6   55.59    3.40
   7   0   6   56.59    3.40
  -7   0  -6   59.39    3.30
  -8   0  -6    1.10    0.80
  -8   0  -6    0.20    1.00
  -8   0  -6    2.30    0.90
   8   0   6    1.60    0.90
  -9   0  -6  201.08    9.20
  -9   0  -6  197.38    9.30
  -9   0  -6  194.08    9.20
 -10   0  -6   74.49    3.60
 -10   0  -6   68.19    3.60
 -10   0  -6   73.99    3.60
 -11  -1   6   21.10    1.30
  11  -1  -6   21.20    1.40
 -11   1   6   20.70    1.40
 -11   1   6   18.10    1.30
  10  -1  -6   12.30    1.50
 -10  -1   6   14.50    1.50
 -10   1   6   15.70    1.40
  10   1  -6   13.70    1.50
 -10   1   6   13.30    1.50
  -9  -1   6   14.60    1.70
   9  -1  -6   17.80    1.80
  -9   1   6   17.70    1.70
  -9   1   6   15.50    1.70
  -8  -1   6  108.29    5.80
   8  -1  -6  111.99    5.70
  -8   1   6  103.49    5.70
  -8   1   6  112.99    5.70
   7  -1  -6  281.97   13.00
  -7  -1   6  282.07   13.20
  -7   1   6  279.17   13.00
  -7   1   6  275.57   13.10
   7   1  -6  269.17   13.20
   6  -1  -6  223.58   10.60
  -6  -1   6  242.58   10.90
   6  -1  -6  206.28   12.60
  -6   1   6  241.88   10.80
   6   1  -6  240.48   10.90
   6   1  -6  204.78   13.10
  -6   1   6  238.88   10.80
   6   1  -6  218.98   10.60
  -6   1   6  196.58   12.30
   5  -1  -6   98.49    6.60
  -5  -1   6   88.39    4.80
  -5   1   6   86.29    4.80
   5   1  -6   99.09    7.00
   5   1  -6   91.19    4.80
   5   1  -6   76.99    4.60
  -5   1   6   85.89    4.60
  -5   1   6   83.79    6.10
   4  -1  -6   61.29    4.80
   4  -1  -6   55.09    7.20
  -4   1   6   57.99    4.50
   4   1  -6   53.29    7.00
   4   1  -6   56.79    3.40
   4   1  -6   63.19    4.90
   3  -1  -6  252.57   16.40
   3  -1  -6  270.87   13.30
  -3   1   6  252.97   12.00
  -3   1   6  241.08   11.90
  -3   1   6  251.57   13.70
  -3   1   6  265.77   13.10
   3   1  -6  250.57   16.70
   3   1  -6  257.77   13.40
   2  -1  -6  127.09    7.30
   2  -1  -6  129.39   10.20
  -2   1   6  133.29    6.40
  -2   1   6  123.69    7.80
  -2   1   6  127.79    7.30
   2   1  -6  132.29   10.50
   2   1  -6  126.99    7.40
  -2   1   6  131.39    6.40
  -1  -1   6   39.80    2.50
  -1  -1   6   37.20    3.50
   1  -1  -6   43.10    3.20
  -1  -1   6   37.00    2.70
   1  -1  -6   44.90    5.50
  -1   1   6   39.90    2.50
  -1   1   6   44.50    3.60
   1   1  -6   44.00    5.40
   1   1  -6   40.40    3.10
  -1   1   6   41.80    2.50
  -1   1   6   43.20    3.20
   0  -1   6  177.98    9.80
   0  -1  -6  175.68    9.00
   0  -1  -6  178.08   12.30
   0  -1   6  168.68    8.80
   0  -1   6  173.78    8.50
   0   1   6  185.58    9.60
   0   1   6  186.38    8.40
   0   1   6  174.08    9.30
   0   1  -6  181.68   12.20
  -1  -1  -6  624.74   32.40
   1  -1   6  627.94   27.90
   1  -1   6  578.84   29.20
   1   1   6  617.64   28.90
   1   1   6  634.74   27.70
  -1   1  -6  644.24   28.40
   1   1   6  650.53   29.00
  -1   1  -6  605.74   31.70
   2  -1   6  254.77   11.40
   2  -1   6  241.58   12.80
  -2  -1  -6  214.88   15.00
   2   1   6  243.18   11.20
   2   1   6  255.97   12.30
  -2   1  -6  260.07   12.10
   3  -1   6  139.99    8.40
   3  -1   6  150.28    7.10
  -3  -1  -6  140.69    8.00
   3   1   6  148.19    7.90
   3   1   6  140.79    6.80
  -3   1  -6  149.99    8.00
  -4  -1  -6 1211.08   53.79
  -4  -1  -6 1292.47   55.39
   4  -1   6 1278.47   54.09
  -4  -1  -6 1184.38   53.89
  -4  -1  -6 1222.98   53.89
  -4  -1  -6 1205.68   54.19
   4  -1   6 1253.17   55.89
  -4   1  -6 1152.08   55.09
  -4   1  -6 1151.08   53.89
   4   1   6 1249.47   53.79
  -4   1  -6 1201.08   54.09
   4   1   6 1230.68   55.09
  -5  -1  -6   35.40    2.30
  -5  -1  -6   36.20    2.70
   5  -1   6   37.50    2.40
  -5  -1  -6   33.10    2.20
   5  -1   6   30.40    3.80
  -5  -1  -6   34.30    2.30
  -5  -1  -6   28.70    3.50
  -5   1  -6   31.60    2.10
  -5   1  -6   32.90    2.20
   5   1   6   30.90    3.10
  -5   1  -6   36.80    2.70
   5   1   6   35.80    2.10
  -5   1  -6   36.00    2.30
  -5   1  -6   30.70    3.60
  -6  -1  -6  480.55   21.10
  -6  -1  -6  469.75   21.20
  -6  -1  -6  472.35   21.20
  -6  -1  -6  451.15   21.40
   6  -1   6  482.35   21.40
   6   1   6  461.35   21.10
  -6   1  -6  459.25   21.40
  -6   1  -6  472.15   21.10
  -6   1  -6  465.95   21.00
  -6   1  -6  457.75   21.20
  -7  -1  -6  436.66   21.00
  -7  -1  -6  466.75   20.70
  -7  -1  -6  467.95   20.80
   7  -1   6  447.26   21.00
  -7  -1  -6  468.15   20.80
  -7   1  -6  464.35   20.70
  -7   1  -6  463.85   21.00
   7   1   6  459.45   20.80
  -7   1  -6  455.55   20.70
  -7   1  -6  451.95   20.80
  -8  -1  -6   97.89    4.80
  -8  -1  -6   85.59    4.60
  -8  -1  -6   84.19    4.60
   8  -1   6   85.89    4.80
  -8   1  -6   87.09    4.90
   8   1   6   89.59    4.70
  -8   1  -6  101.09    4.70
  -8   1  -6   93.39    4.60
  -8   1  -6   77.99    4.60
  -9  -1  -6   61.29    3.40
  -9  -1  -6   69.49    3.50
  -9  -1  -6   65.69    3.60
  -9   1  -6   63.49    3.40
  -9   1  -6   67.19    3.60
  -9   1  -6   65.69    3.40
 -10  -1  -6   54.69    2.80
 -10  -1  -6   55.89    2.80
 -10   1  -6   56.49    2.70
 -10   1  -6   47.70    2.70
 -10   1  -6   56.29    2.80
  10  -2  -6   65.79    3.40
 -10  -2   6   67.49    3.50
 -10   2   6   66.39    3.50
   9  -2  -6   41.50    2.60
  -9  -2   6   46.80    2.90
  -9  -2   6   46.00    2.80
   9  -2  -6   44.60    2.70
  -9   2   6   38.40    2.70
   8  -2  -6   82.09    4.40
  -8  -2   6   85.49    4.70
   8  -2  -6   89.89    4.40
  -8  -2   6   84.79    4.60
  -8   2   6   72.59    4.40
   8   2  -6   75.99    4.60
   7  -2  -6  280.47   12.80
  -7  -2   6  274.37   13.10
  -7  -2   6  280.17   12.90
  -7   2   6  264.67   13.00
   7   2  -6  258.67   12.70
  -7   2   6  284.07   12.90
   7   2  -6  272.37   13.10
  -7   2   6  268.67   12.80
  -6  -2   6   44.20    3.10
   6  -2  -6   46.00    3.00
  -6  -2   6   44.80    3.30
  -6  -2   6   46.60    3.70
   6   2  -6   50.19    3.00
  -6   2   6   47.30    3.10
  -6   2   6   54.19    4.00
   6   2  -6   48.80    3.30
  -6   2   6   49.90    3.10
  -5  -2   6   25.70    2.50
  -5  -2   6   25.40    2.10
   5  -2  -6   22.90    2.00
   5  -2  -6   26.80    3.70
   5  -2  -6   26.60    2.00
   5   2  -6   25.00    4.10
  -5   2   6   26.60    1.70
  -5   2   6   21.40    3.70
  -5   2   6   26.90    2.10
   5   2  -6   28.90    2.20
   5   2  -6   28.30    2.20
   5   2  -6   22.60    4.60
  -4  -2   6   60.39    3.80
   4  -2  -6   54.69    3.30
   4  -2  -6   57.69    3.20
   4  -2  -6   55.39    3.40
  -4  -2   6   45.60    3.70
   4  -2  -6   63.19    5.10
  -4   2   6   56.79    3.30
   4   2  -6   60.39    3.50
   4   2  -6   50.49    5.00
  -4   2   6   64.79    3.80
  -4   2   6   59.89    3.60
   4   2  -6   54.39    5.00
  -4   2   6   54.99    3.00
  -4   2   6   49.60    4.60
   3  -2  -6   45.00    6.80
   3  -2  -6   46.60    4.20
   3   2  -6   45.90    4.30
  -3   2   6   49.99    3.00
   3   2  -6   36.60    4.30
   3   2  -6   41.50    6.70
   3   2  -6   42.70    2.80
  -3   2   6   46.10    2.90
  -3   2   6   40.60    3.80
  -3   2   6   42.50    4.40
   2  -2  -6  117.79    7.20
   2  -2  -6  114.39   10.30
   2   2  -6  108.39   10.30
  -2   2   6  112.79    7.50
  -2   2   6  117.99    5.90
   2   2  -6  115.49    7.20
   2   2  -6  109.79    5.90
  -2   2   6  124.79    6.00
  -2   2   6  125.29    7.20
   1  -2  -6  520.85   29.30
   1  -2  -6  556.24   25.10
  -1   2   6  529.45   23.60
  -1   2   6  500.75   23.60
   1   2  -6  466.25   24.60
   1   2  -6  506.65   29.20
  -1   2   6  559.74   25.00
  -1   2   6  551.64   25.40
   0  -2  -6  370.06   22.80
   0  -2  -6  369.56   18.50
   0   2  -6  361.66   22.10
   0   2   6  398.96   18.70
   0   2   6  377.96   17.20
   0   2   6  404.96   18.90
  -1  -2  -6  145.89   12.10
   1   2   6  164.88    8.60
  -1   2  -6  137.89   11.00
   1   2   6  161.38    8.60
   1   2   6  154.28    7.20
  -2  -2  -6   74.69    8.60
   2   2   6   85.29    5.10
   2   2   6   78.09    3.90
   2   2   6   82.99    5.50
  -3  -2  -6  214.88   10.60
  -3  -2  -6  225.28   10.50
  -3  -2  -6  218.58   10.40
   3  -2   6  226.58   10.60
  -3  -2  -6  220.18   10.30
  -3   2  -6  190.68   10.30
   3   2   6  233.58   10.10
   3   2   6  236.88   11.30
  -3   2  -6  224.88   10.60
   3   2   6  235.68   12.00
  -4  -2  -6   59.09    3.50
  -4  -2  -6   59.99    3.40
   4  -2   6   64.49    3.70
  -4  -2  -6   65.89    3.50
  -4  -2  -6   62.69    3.70
  -4  -2  -6   62.39    3.50
  -4   2  -6   63.19    3.70
  -4   2  -6   57.59    3.40
   4   2   6   58.89    4.10
  -4   2  -6   61.59    3.40
   4   2   6   63.99    3.10
   5  -2   6   40.00    2.90
  -5  -2  -6   42.10    2.70
  -5  -2  -6   44.30    2.60
  -5  -2  -6   43.40    3.10
  -5  -2  -6   45.10    2.70
  -5   2  -6   47.00    3.20
  -5   2  -6   37.00    5.20
   5   2   6   44.00    2.40
  -5   2  -6   44.50    2.80
  -6  -2  -6  205.08   10.40
  -6  -2  -6  220.48   10.20
  -6  -2  -6  217.88   10.10
   6  -2   6  208.08   10.40
  -6  -2  -6  226.58   10.10
  -6   2  -6  224.38   10.20
  -6   2  -6  213.08   10.20
   6   2   6  189.28    9.80
  -6   2  -6  228.88   10.50
  -7  -2  -6   21.40    1.80
  -7  -2  -6   23.70    1.90
  -7  -2  -6   24.10    2.00
   7   2   6   19.90    1.60
  -7   2  -6   18.50    1.80
  -7   2  -6   22.40    2.00
  -7   2  -6   24.30    2.30
  -8  -2  -6   90.99    4.50
  -8  -2  -6   85.89    4.40
  -8  -2  -6   83.99    4.40
  -8   2  -6   82.59    4.50
  -8   2  -6   86.59    4.60
  -8   2  -6   85.49    4.30
  -9  -2  -6   12.50    1.20
  -9  -2  -6   13.30    1.30
  -9   2  -6   12.00    1.40
  -9   2  -6   12.10    1.20
  10  -2   6   27.50    1.70
 -10   2  -6   26.00    1.60
  10  -3  -6   23.60    1.60
 -10  -3   6   26.90    1.80
 -10   3   6   25.30    1.50
   9  -3  -6   21.60    1.60
  -9  -3   6   21.30    1.80
   9  -3  -6   21.80    1.70
  -9   3   6   19.20    1.70
  -9   3   6   21.30    1.70
   8  -3  -6   18.10    1.70
   8  -3  -6   16.90    1.60
  -8  -3   6   14.80    1.60
  -8  -3   6   15.40    2.20
  -8   3   6   16.40    1.70
  -8   3   6   16.90    1.70
   7  -3  -6   55.49    3.20
   7  -3  -6   57.29    3.20
  -7  -3   6   54.69    3.70
  -7  -3   6   48.80    3.60
   7   3  -6   46.10    3.50
  -7   3   6   51.89    3.30
   7   3  -6   51.59    3.20
  -7   3   6   51.99    3.30
   6  -3  -6  130.09    6.60
   6  -3  -6  128.29    6.40
  -6  -3   6  127.89    7.00
  -6  -3   6  134.69    7.10
  -6   3   6  134.99    6.70
   6   3  -6  123.19    6.80
  -6   3   6  128.89    6.60
   6   3  -6  133.59    6.60
   5  -3  -6    6.80    1.50
  -5  -3   6    4.10    1.30
   5  -3  -6    5.90    1.20
  -5  -3   6    3.50    1.40
   5  -3  -6    4.10    0.90
  -5  -3   6    7.40    1.30
  -5   3   6    4.20    1.10
  -5   3   6    7.90    1.10
   5   3  -6    6.10    1.50
  -4  -3   6  278.97   13.50
   4  -3  -6  298.77   13.60
  -4  -3   6  298.77   14.10
   4  -3  -6  286.87   13.70
  -4  -3   6  310.77   13.70
   4  -3  -6  295.57   13.60
   4  -3  -6  282.67   13.70
   4  -3  -6  289.57   13.40
   4  -3  -6  285.77   16.00
  -4  -3   6  305.77   13.70
  -4  -3   6  284.97   14.00
  -4   3   6  285.57   13.60
   4   3  -6  303.07   13.40
  -4   3   6  295.97   14.10
  -4   3   6  249.97   15.40
   4   3  -6  309.17   14.00
  -4   3   6  298.57   14.00
  -4   3   6  297.97   13.40
   3  -3  -6   37.70    2.50
   3  -3  -6   37.80    2.50
   3  -3  -6   34.70    2.80
   3  -3  -6   38.50    2.60
   3  -3  -6   36.50    4.30
  -3  -3   6   38.70    2.60
  -3  -3   6   38.60    3.10
  -3  -3   6   37.70    3.20
   3  -3  -6   37.70    2.60
  -3  -3   6   36.50    2.70
  -3   3   6   35.80    2.30
   3   3  -6   37.10    2.30
  -3   3   6   40.50    2.90
  -3   3   6   42.00    4.10
  -3   3   6   38.80    2.90
  -3   3   6   28.60    4.40
   3   3  -6   38.40    2.80
   3   3  -6   30.90    4.50
   2  -3  -6    3.30    1.10
   2  -3  -6    6.50    1.20
  -2  -3   6    4.50    1.40
   2  -3  -6    4.20    1.10
   2  -3  -6    3.80    1.20
   2  -3  -6    3.60    0.90
   2  -3  -6    6.20    2.80
  -2  -3   6    4.50    1.30
   2  -3  -6    9.10    1.60
  -2  -3   6    7.10    1.20
  -2  -3   6    4.20    1.20
  -2   3   6    3.10    1.90
   2   3  -6    1.40    2.50
  -2   3   6    7.00    1.30
   2   3  -6    4.10    0.80
  -2   3   6    4.30    0.90
  -2   3   6    3.80    1.00
  -2   3   6    3.90    2.30
   2   3  -6    7.80    1.20
   2   3  -6    7.30    1.40
   1  -3  -6  115.59    5.70
   1  -3  -6  115.89    5.80
   1  -3  -6  113.99    5.70
   1  -3  -6  109.39    5.70
   1  -3  -6  118.99    7.90
   1  -3  -6  112.79    6.00
   1  -3  -6  108.89    5.60
  -1  -3   6  120.79    6.20
  -1  -3   6  111.29    5.70
   1   3  -6  109.79    5.60
  -1   3   6  114.19    7.60
  -1   3   6  113.39    7.30
  -1   3   6  117.79    5.90
   1   3  -6  119.29    5.50
  -1   3   6  102.59    5.80
   0  -3  -6  361.96   16.90
   0  -3  -6  355.76   18.80
   0  -3   6  345.87   16.70
   0  -3   6  358.16   17.00
   0  -3  -6  338.77   16.60
   0  -3  -6  365.56   16.70
   0  -3  -6  383.06   16.80
   0  -3  -6  342.67   16.50
   0  -3  -6  351.56   16.60
   0   3   6  389.76   16.80
   0   3  -6  351.76   16.60
   0   3   6  383.86   16.80
   0   3   6  384.96   18.60
   0   3  -6  369.76   16.40
   0   3   6  389.76   18.50
  -1  -3  -6   79.79    4.30
  -1  -3  -6   84.29    4.40
  -1  -3  -6   84.29    4.40
  -1  -3  -6   78.79    4.50
  -1  -3  -6   75.59    4.20
   1  -3   6   82.69    4.60
  -1   3  -6   80.89    4.20
   1   3   6   78.89    5.70
  -1   3  -6   72.69    4.30
   1   3   6   83.59    4.20
   1   3   6   86.19    5.70
  -2  -3  -6  570.14   24.60
  -2  -3  -6  559.24   24.50
  -2  -3  -6  529.75   24.60
  -2  -3  -6  506.45   24.30
  -2  -3  -6  536.45   24.80
   2  -3   6  541.05   24.80
  -2   3  -6  551.84   24.50
  -2   3  -6  536.75   24.60
   2   3   6  587.14   24.40
   2   3   6  536.25   26.20
   2   3   6  532.05   25.60
   3  -3   6  139.79    7.80
  -3  -3  -6  156.78    7.60
  -3  -3  -6  159.68    7.50
  -3  -3  -6  148.09    7.20
  -3  -3  -6  151.28    7.40
  -3  -3  -6  146.69    7.50
   3  -3   6  160.68    7.70
   3   3   6  141.29    9.10
  -3   3  -6  156.08    7.40
   3   3   6  145.99    7.20
  -3   3  -6  153.08    7.50
   4  -3   6   70.69    4.40
  -4  -3  -6   77.09    4.10
  -4  -3  -6   72.59    4.20
   4  -3   6   78.99    4.50
  -4  -3  -6   70.59    3.90
  -4  -3  -6   73.39    4.40
  -4   3  -6   74.79    4.10
  -4   3  -6   76.89    4.40
   5  -3   6  122.79    6.60
  -5  -3  -6  131.89    6.60
  -5  -3  -6  129.99    6.40
  -5  -3  -6  119.69    6.10
  -5  -3  -6  123.29    6.10
  -5   3  -6  121.69    6.20
  -5   3  -6  127.19    6.30
  -5   3  -6  130.49    6.60
   6  -3   6  161.98    8.20
  -6  -3  -6  161.78    7.70
  -6  -3  -6  156.28    7.70
  -6  -3  -6  161.28    7.90
  -6   3  -6  174.08    7.90
  -6   3  -6  162.98    8.20
   7  -3   6   55.39    3.60
  -7  -3  -6   53.39    3.10
  -7  -3  -6   59.09    3.10
  -7   3  -6   57.89    3.30
  -7   3  -6   57.69    3.50
   8  -3   6   57.69    3.20
  -8  -3  -6   47.70    3.00
  -8  -3  -6   52.79    2.80
  -8   3  -6   56.29    3.00
  -8   3  -6   51.99    3.10
   9  -3   6   19.20    1.60
  -9   3  -6   18.80    1.30
  -9  -4   6   10.70    1.20
   9  -4  -6   10.30    1.00
   8  -4  -6   20.20    1.70
   8  -4  -6   22.30    1.70
  -8  -4   6   22.00    2.10
  -8   4   6   21.60    1.60
  -8   4   6   22.00    1.70
  -7  -4   6   35.90    2.90
  -7  -4   6   37.50    2.90
   7  -4  -6   34.80    2.50
   7  -4  -6   34.50    2.30
  -7   4   6   35.00    2.40
   7   4  -6   36.90    2.40
  -7   4   6   37.20    2.50
  -6  -4   6   39.00    3.20
   6  -4  -6   38.70    2.70
   6  -4  -6   38.20    2.50
  -6  -4   6   36.20    3.10
  -6   4   6   37.80    2.70
  -6   4   6   37.90    2.60
   6   4  -6   34.50    2.80
   5  -4  -6  192.58    8.80
   5  -4  -6  191.98    9.10
  -5  -4   6  187.28    9.50
   5  -4  -6  184.58    9.30
  -5  -4   6  185.48    9.50
   5  -4  -6  178.58    9.00
  -5  -4   6  183.58    8.90
  -5   4   6  186.08    9.10
   5   4  -6  172.98    9.30
  -5   4   6  183.28    8.90
  -5   4   6  193.88    8.70
  -4  -4   6  193.18    9.80
   4  -4  -6  197.88    9.30
  -4  -4   6  204.18    9.30
  -4  -4   6  191.38    9.70
  -4  -4   6  194.18    9.30
   4  -4  -6  190.68    9.10
  -4  -4   6  191.08    9.20
   4  -4  -6  198.78    9.40
   4  -4  -6  184.38    9.30
   4   4  -6  182.38    9.60
  -4   4   6  191.38    9.00
  -4   4   6  185.08    9.20
  -4   4   6  190.68    9.60
   4   4  -6  197.28    9.00
  -4   4   6  170.28    9.80
  -3  -4   6  159.48    8.30
  -3  -4   6  164.68    7.80
  -3  -4   6  159.08    7.80
   3  -4  -6  159.38    7.70
   3  -4  -6  155.38    7.60
   3  -4  -6  167.48    7.90
   3  -4  -6  158.38    8.00
  -3  -4   6  154.78    8.30
   3  -4  -6  164.08    7.90
   3  -4  -6  154.48    7.80
   3   4  -6  144.19    7.50
  -3   4   6  158.88    8.20
   3   4  -6  170.08    7.60
  -3   4   6  155.68    7.50
  -3   4   6  157.08    8.30
  -3   4   6  144.29    7.60
   3   4  -6  146.49    8.00
   2  -4  -6  109.19    5.50
  -2  -4   6  100.69    5.50
   2  -4  -6  104.69    5.40
  -2  -4   6  101.69    5.90
   2  -4  -6  108.69    5.60
  -2  -4   6  106.09    6.00
   2  -4  -6  106.59    5.80
   2  -4  -6  105.89    5.50
  -2  -4   6  106.99    5.40
  -2   4   6  108.19    5.80
  -2   4   6   98.19    5.20
   2   4  -6   98.09    5.70
   2   4  -6  103.69    5.30
   2   4  -6  103.59    5.20
  -2   4   6  101.09    6.00
  -2   4   6   90.29    5.70
   1  -4  -6  349.96   16.40
  -1  -4   6  351.26   16.40
   1  -4  -6  349.67   16.50
  -1  -4   6  337.67   16.80
   1  -4  -6  354.66   16.70
   1  -4  -6  359.16   16.50
   1  -4  -6  349.96   16.50
  -1  -4   6  350.66   16.90
   1   4  -6  345.67   16.30
   1   4  -6  372.36   16.20
  -1   4   6  378.36   16.80
  -1   4   6  371.86   16.80
   0  -4  -6  477.55   21.80
   0  -4  -6  465.75   21.80
   0  -4  -6  480.45   21.80
   0  -4   6  478.35   22.20
   0  -4  -6  491.25   21.90
   0  -4   6  454.05   22.10
   0  -4  -6  482.45   22.10
   0  -4   6  448.86   21.60
   0   4  -6  490.85   21.40
   0   4   6  494.65   22.00
   0   4   6  501.75   22.00
   0   4  -6  473.55   21.70
   1  -4   6  702.73   32.90
  -1  -4  -6  699.73   32.50
   1  -4   6  764.72   33.00
  -1  -4  -6  749.42   32.70
  -1  -4  -6  710.13   32.60
  -1  -4  -6  730.33   32.80
  -1  -4  -6  778.22   32.70
  -1   4  -6  732.93   32.50
  -1   4  -6  685.23   32.50
   1   4   6  742.93   32.60
  -1   4  -6  723.63   32.10
   1   4   6  685.93   32.50
  -2  -4  -6   30.00    2.50
   2  -4   6   29.90    2.80
  -2  -4  -6   31.50    2.80
  -2  -4  -6   32.40    2.60
  -2  -4  -6   28.10    2.70
  -2  -4  -6   31.60    2.40
   2  -4   6   34.10    2.90
  -2   4  -6   34.10    2.30
  -2   4  -6   32.00    2.60
   2   4   6   32.00    2.20
  -3  -4  -6   57.09    3.70
  -3  -4  -6   56.49    3.40
  -3  -4  -6   52.59    3.30
  -3  -4  -6   52.29    3.40
   3  -4   6   54.59    3.60
   3  -4   6   49.99    3.70
   3   4   6   50.29    3.00
  -3   4  -6   55.59    3.20
  -3   4  -6   54.89    3.40
   4  -4   6   78.79    4.90
  -4  -4  -6   80.09    4.40
   4  -4   6   86.49    4.80
  -4  -4  -6   82.49    4.50
  -4  -4  -6   84.09    4.80
  -4   4  -6   83.29    4.40
  -4   4  -6   79.79    4.70
   5  -4   6   29.60    2.70
  -5  -4  -6   21.20    3.60
   5  -4   6   30.90    2.50
  -5   4  -6   30.40    2.10
  -5   4  -6   29.00    2.40
   6  -4   6   26.50    2.50
   6  -4   6   30.20    2.40
  -6   4  -6   25.80    2.30
   7  -4   6   18.60    1.70
   7  -4   6   14.00    1.90
  -7   4  -6   13.60    1.40
  -7   4  -6   15.40    1.70
   8  -4   6   38.30    2.30
  -8   4  -6   38.30    2.20
  -7  -5   6    4.70    1.10
   7  -5  -6    3.50    0.80
   7  -5  -6    4.10    1.00
   7   5  -6    2.60    0.70
  -7   5   6    4.70    0.90
  -6  -5   6   46.30    3.20
   6  -5  -6   43.70    2.70
  -6  -5   6   43.70    3.00
   6  -5  -6   41.20    2.60
  -6   5   6   39.70    2.60
   6   5  -6   47.10    2.70
   5  -5  -6   87.59    4.60
  -5  -5   6   83.29    5.00
  -5  -5   6   82.19    4.90
   5  -5  -6   84.59    4.40
  -5  -5   6   85.29    4.40
  -5   5   6   84.49    4.10
  -5   5   6   83.79    4.50
   4  -5  -6   84.09    4.80
   4  -5  -6   95.29    4.80
  -4  -5   6   80.39    5.20
  -4  -5   6   94.49    5.30
  -4  -5   6   94.49    4.80
   4  -5  -6   97.19    5.00
   4  -5  -6   93.39    4.70
  -4   5   6   87.79    5.10
  -4   5   6   80.09    4.40
  -4   5   6   95.39    4.90
  -3  -5   6  140.19    6.70
   3  -5  -6  137.09    6.80
  -3  -5   6  135.79    6.60
   3  -5  -6  140.89    6.50
  -3  -5   6  137.09    7.10
   3  -5  -6  139.19    6.60
   3  -5  -6  112.89    6.60
  -3  -5   6  117.49    6.90
  -3  -5   6  135.09    6.60
   3  -5  -6  128.89    6.40
  -3   5   6  134.79    6.30
   3   5  -6  112.19    6.20
   3   5  -6  132.09    6.40
  -3   5   6  137.59    7.00
  -3   5   6  116.09    6.90
   2  -5  -6   19.80    2.00
   2  -5  -6   17.30    2.00
   2  -5  -6   17.00    1.90
  -2  -5   6   16.40    2.50
   2  -5  -6   17.00    2.20
   2  -5  -6   16.10    1.90
  -2  -5   6   17.10    1.90
   2  -5  -6   16.10    2.20
  -2  -5   6   17.30    2.60
  -2   5   6   14.40    2.10
   2   5  -6   17.90    1.70
  -2   5   6   17.90    1.50
   2   5  -6   14.10    1.40
  -2   5   6   15.40    2.00
   1  -5  -6   24.60    2.50
  -1  -5   6   25.80    2.80
  -1  -5   6   23.60    2.80
   1  -5  -6   23.00    2.20
   1  -5  -6   24.70    2.10
   1  -5  -6   26.10    2.40
  -1  -5   6   26.10    2.20
   1  -5  -6   26.50    2.40
  -1   5   6   27.50    2.40
   1   5  -6   24.00    2.00
  -1   5   6   26.30    2.40
   1   5  -6   22.70    1.80
  -1   5   6   25.50    1.90
   0  -5  -6  319.97   15.80
   0  -5  -6  346.47   15.70
   0  -5  -6  322.77   15.90
   0  -5  -6  315.37   15.70
   0  -5  -6  360.66   15.90
   0  -5   6  339.37   15.60
   0  -5   6  348.17   16.20
   0  -5   6  348.37   16.20
   0   5  -6  354.76   15.40
   0   5   6  332.07   16.00
   0   5   6  357.36   16.10
   0   5  -6  336.67   15.60
  -1  -5  -6   65.79    3.70
  -1  -5  -6   58.99    3.70
  -1  -5  -6   65.89    4.10
   1  -5   6   65.09    4.20
   1  -5   6   66.09    4.20
  -1  -5  -6   66.69    4.00
  -1  -5  -6   64.69    3.90
   1   5   6   67.09    3.90
  -1   5  -6   57.79    3.60
   1   5   6   62.99    3.90
  -2  -5  -6  136.49    7.10
  -2  -5  -6  146.79    7.10
  -2  -5  -6  129.19    6.80
  -2  -5  -6  145.99    7.00
   2  -5   6  145.49    7.50
   2  -5   6  144.09    7.40
  -2  -5  -6  143.39    7.20
  -2   5  -6  140.39    7.00
   2   5   6  130.89    7.00
  -2   5  -6  132.39    6.80
   2   5   6  141.79    7.00
   3  -5   6   64.29    4.00
  -3  -5  -6   62.29    3.60
  -3  -5  -6   61.19    3.80
  -3  -5  -6   62.69    3.50
   3  -5   6   63.19    4.10
   3   5   6   51.69    3.60
  -3   5  -6   65.99    3.70
  -3   5  -6   57.69    3.40
   4  -5   6    4.80    1.30
  -4  -5  -6    7.10    1.80
   4  -5   6    8.70    1.60
  -4  -5  -6    8.20    1.40
  -4  -5  -6    6.60    1.30
  -4   5  -6    7.80    1.60
  -4   5  -6    6.60    1.30
   5  -5   6   12.40    1.80
   5  -5   6   15.10    1.90
  -5   5  -6   14.90    1.70
   6  -5   6   51.79    3.00
   6  -5   6   55.49    3.20
  -6   5  -6   59.39    3.10
   5  -6  -6    2.80    0.70
  -5  -6   6    1.70    0.80
  -5  -6   6    1.30    0.70
   5   6  -6    4.60    1.00
  -4  -6   6   30.20    2.20
   4  -6  -6   23.90    1.90
   4  -6  -6   25.80    1.90
  -4  -6   6   24.30    2.10
   4   6  -6   25.00    1.70
  -4   6   6   23.30    1.70
  -4   6   6   25.70    1.40
  -3  -6   6   24.30    2.20
   3  -6  -6   24.70    1.60
  -3  -6   6   28.60    2.40
   3  -6  -6   24.10    1.90
   3  -6  -6   26.30    2.00
  -3   6   6   25.60    1.90
  -3   6   6   25.20    1.50
  -2  -6   6   39.40    2.80
   2  -6  -6   35.80    2.30
   2  -6  -6   40.00    2.60
   2  -6  -6   38.90    2.60
  -2  -6   6   39.40    2.80
   2  -6  -6   39.60    2.50
  -2   6   6   34.00    3.40
  -2   6   6   40.50    2.20
  -2   6   6   37.90    2.40
   2   6  -6   39.30    2.30
   1  -6  -6    1.90    0.80
   1  -6  -6    8.70    1.50
   1  -6  -6    4.10    1.10
   1  -6  -6    3.50    1.00
  -1  -6   6    4.70    1.20
  -1  -6   6    2.40    1.10
   1   6  -6    5.90    1.00
  -1   6   6    4.90    1.10
  -1   6   6    5.60    1.20
  -1   6   6    4.60    0.90
   0  -6   6   23.40    2.10
   0  -6  -6   25.60    2.20
   0  -6   6   28.90    2.60
   0  -6  -6   26.30    1.90
   0  -6  -6   27.20    2.20
   0  -6  -6   27.10    2.00
   0   6  -6   27.60    1.90
   0   6   6   24.60    2.10
   0   6   6   25.70    1.70
  -1  -6  -6  115.89    5.90
  -1  -6  -6  121.99    6.00
   1  -6   6  121.29    6.30
   1  -6   6  125.49    6.20
  -1  -6  -6  119.69    6.10
  -1  -6  -6  120.09    6.10
  -1   6  -6  124.99    5.90
  -2  -6  -6   47.60    2.90
  -2  -6  -6   47.40    2.90
   2  -6   6   49.99    3.00
   2  -6   6   50.69    3.20
  -2  -6  -6   51.49    2.80
  -2  -6  -6   48.30    2.80
  -2   6  -6   51.79    2.70
  -3  -6  -6   34.50    2.00
   3  -6   6   32.60    2.20
   3  -6   6   33.80    2.40
  -3  -6  -6   32.50    2.00
  -3   6  -6   30.30    2.00
  -3   6  -6   34.70    2.00
   4  -6   6   40.70    2.70
  -4   6  -6   40.70    2.40
 -11   0   7    7.40    0.80
  11   0  -7    5.10    0.80
 -10   0   7   38.70    2.30
 -10   0   7   37.80    2.30
  10   0  -7   42.10    2.40
  -9   0   7  109.49    5.70
   9   0  -7  114.19    5.60
  -9   0   7  106.49    5.50
  -8   0   7  711.43   31.40
  -8   0   7  678.73   31.10
  -7   0   7  199.58    9.80
  -7   0   7  198.18    9.50
   6   0  -7   12.90    4.70
  -6   0   7   21.70    2.00
   6   0  -7   17.20    1.80
  -6   0   7   21.10    2.00
   5   0  -7  369.96   19.60
  -5   0   7  380.16   17.60
   5   0  -7  395.06   17.50
  -5   0   7  391.46   17.80
   4   0  -7   73.79    4.00
  -4   0   7   78.89    6.00
   4   0  -7   78.59    5.80
  -4   0   7   72.29    4.20
   3   0  -7  133.29   11.50
   3   0  -7  148.09    8.20
  -3   0   7  129.79    7.70
  -2   0   7   27.20    2.10
  -2   0   7   28.60    2.80
   2   0  -7   30.30    5.40
   2   0  -7   28.10    2.90
  -2   0   7   26.80    2.10
  -1   0   7    1.10    0.90
  -1   0   7    2.10    1.50
   1   0  -7    1.10    2.40
  -1   0   7    2.70    0.80
  -1   0   7    2.10    0.80
   0   0   7   29.00    3.10
   0   0   7   26.40    2.70
   0   0  -7   29.30    4.90
   0   0   7   31.00    2.10
  -1   0  -7   19.60    4.20
   1   0   7   21.90    1.60
   1   0   7   15.60    2.60
   1   0   7   18.20    2.40
   2   0   7  158.98    8.90
   2   0   7  146.19    7.30
  -3   0  -7 1288.67   55.79
  -3   0  -7 1257.47   54.49
  -3   0  -7 1208.08   54.39
  -3   0  -7 1215.98   54.29
   3   0   7 1320.47   56.39
  -3   0  -7 1176.48   54.59
   3   0   7 1156.98   54.59
  -4   0  -7   65.39    3.80
   4   0   7   60.79    3.50
   4   0   7   62.89    5.10
  -4   0  -7   61.09    3.40
  -4   0  -7   67.09    3.50
  -4   0  -7   60.29    4.80
  -4   0  -7   62.19    3.50
  -4   0  -7   61.39    3.50
  -5   0  -7    3.10    1.00
  -5   0  -7    6.60    1.20
   6   0   7   50.89    3.10
  -6   0  -7   51.89    3.50
  -6   0  -7   50.19    3.00
  -6   0  -7   49.60    3.20
  -6   0  -7   50.89    3.10
  -7   0  -7  124.49    6.50
   7   0   7  123.19    6.30
  -7   0  -7  126.79    6.10
  -7   0  -7  128.39    6.20
  -7   0  -7  118.69    6.20
  -8   0  -7    0.80    0.80
  -8   0  -7    1.30    1.00
   8   0   7    1.00    1.10
  -8   0  -7    0.40    0.80
  -8   0  -7    2.00    0.90
  -9   0  -7   18.10    1.60
  -9   0  -7   21.10    1.60
  -9   0  -7   19.20    1.50
 -10   0  -7   49.50    3.00
 -10   0  -7   65.89    2.90
  10  -1  -7   48.10    2.70
 -10  -1   7   49.30    2.80
  10  -1  -7   49.90    2.70
  10   1  -7   53.09    2.80
 -10   1   7   49.00    2.80
 -10   1   7   47.00    2.70
  -9  -1   7   68.19    4.20
   9  -1  -7   80.29    4.10
  -9   1   7   80.59    4.20
  -9   1   7   79.39    4.10
  -8  -1   7   48.10    3.20
   8  -1  -7   49.70    3.10
  -8   1   7   49.80    3.10
  -8   1   7   49.00    3.10
   7  -1  -7   48.20    3.00
  -7  -1   7   49.00    3.20
   7   1  -7   45.00    2.90
  -7   1   7   39.40    2.90
  -7   1   7   47.70    3.00
  -6  -1   7  357.56   16.30
   6  -1  -7  336.57   15.90
   6  -1  -7  343.57   16.00
  -6   1   7  360.16   16.20
   6   1  -7  345.97   16.00
  -6   1   7  346.77   16.20
  -5  -1   7  175.88    8.30
   5  -1  -7  163.98    7.90
   5  -1  -7  167.08   10.10
   5  -1  -7  160.08    7.90
   5   1  -7  169.58    8.00
  -5   1   7  165.78    8.00
  -5   1   7  168.58    8.20
   5   1  -7  157.38   10.40
  -5   1   7  145.29    9.60
   4  -1  -7  497.25   22.40
   4  -1  -7  493.95   22.40
   4  -1  -7  503.35   24.40
  -4  -1   7  506.35   22.70
  -4   1   7  501.65   22.20
  -4   1   7  479.65   24.10
  -4   1   7  477.05   22.60
   4   1  -7  503.55   24.70
   4   1  -7  511.95   22.50
   3  -1  -7   79.89    5.50
   3  -1  -7   64.39    8.40
  -3   1   7   85.69    5.70
  -3   1   7   84.39    4.50
   3   1  -7   74.79    9.80
  -3   1   7   85.19    4.50
   3   1  -7   78.69    5.90
   2  -1  -7  209.68   11.10
   2  -1  -7  201.18   14.90
  -2   1   7  218.58   10.10
   2   1  -7  200.68   14.90
  -2   1   7  211.98   11.20
   2   1  -7  198.58   11.10
  -2   1   7  211.48   12.00
  -2   1   7  223.58   10.10
   1  -1  -7   33.20    3.00
   1  -1  -7   33.00    5.60
  -1  -1   7   28.70    2.30
  -1   1   7   31.00    3.10
  -1   1   7   35.50    2.30
   1   1  -7   31.80    5.70
  -1   1   7   34.50    3.60
  -1   1   7   32.90    2.20
   0  -1   7    6.30    1.20
   0  -1  -7    8.20    3.80
   0  -1   7    6.40    1.50
   0  -1   7    3.60    1.80
   0  -1   7    6.20    1.10
   0   1   7    5.30    1.80
   0   1  -7    5.10    3.00
   0   1   7    7.20    1.00
   0   1   7    6.90    1.80
   1  -1   7   49.80    2.90
   1  -1   7   49.90    4.40
  -1  -1  -7   44.60    6.30
   1   1   7   49.40    2.70
  -1   1  -7   39.00    5.60
   1   1   7   46.40    3.90
   1   1   7   48.60    4.00
   2  -1   7   61.99    3.40
   2  -1   7   53.19    4.70
   2   1   7   59.39    4.60
   2   1   7   58.39    3.20
   2   1   7   60.89    4.50
  -2   1  -7   55.09    4.10
  -3  -1  -7  150.78    7.40
  -3  -1  -7  145.59    7.20
  -3  -1  -7  143.79    7.00
   3  -1   7  139.79    8.90
  -3  -1  -7  151.68    7.10
  -3  -1  -7  139.69    7.10
   3  -1   7  158.58    7.30
   3   1   7  149.88    8.50
  -3   1  -7  136.09    8.10
  -3   1  -7  141.19    7.20
  -3   1  -7  146.59    7.10
  -3   1  -7  141.69    7.00
   3   1   7  158.38    7.10
  -3   1  -7  145.69    7.10
   4  -1   7  157.08    7.50
  -4  -1  -7  156.48    7.60
  -4  -1  -7  155.38    7.30
  -4  -1  -7  143.49    8.70
  -4  -1  -7  149.99    7.20
   4  -1   7  126.69    9.00
  -4  -1  -7  144.99    7.30
  -4  -1  -7  148.59    7.20
  -4   1  -7  140.89    8.60
  -4   1  -7  152.58    7.20
  -4   1  -7  148.79    7.10
  -4   1  -7  145.79    7.20
  -4   1  -7  152.28    7.50
  -4   1  -7  139.39    7.20
   4   1   7  146.19    8.60
   4   1   7  171.38    7.30
   5  -1   7  212.98    9.80
  -5  -1  -7  198.18    9.40
  -5  -1  -7  200.88    9.60
  -5  -1  -7  205.48    9.90
  -5  -1  -7  203.58    9.50
  -5   1  -7  198.78    9.50
  -5   1  -7  200.88    9.80
  -5   1  -7  187.38    9.50
   5   1   7  202.98    9.50
  -5   1  -7  196.58    9.40
  -6  -1  -7  557.64   24.80
  -6  -1  -7  555.64   24.90
  -6  -1  -7  565.14   24.90
  -6  -1  -7  563.74   25.20
   6  -1   7  544.25   25.10
  -6   1  -7  552.14   24.90
  -6   1  -7  548.45   24.90
  -6   1  -7  545.25   24.70
   6   1   7  543.25   24.90
  -6   1  -7  543.85   25.10
  -7  -1  -7   75.39    4.10
  -7  -1  -7   69.69    3.90
  -7  -1  -7   75.89    4.30
   7  -1   7   69.79    4.20
  -7  -1  -7   68.09    4.00
   7   1   7   72.09    4.00
  -7   1  -7   75.19    3.90
  -7   1  -7   71.79    4.10
  -7   1  -7   78.39    4.30
  -7   1  -7   77.79    4.00
  -8  -1  -7   23.60    1.90
  -8  -1  -7   23.10    1.90
  -8  -1  -7   28.50    2.10
  -8   1  -7   26.60    2.30
  -8   1  -7   24.70    2.00
  -8   1  -7   27.10    1.90
  -8   1  -7   27.50    1.90
  -9  -1  -7   79.69    3.90
  -9  -1  -7   82.39    4.00
  -9  -1  -7   74.99    4.00
  -9   1  -7   79.79    3.90
  -9   1  -7   77.69    3.90
  -9   1  -7   79.69    4.00
  10  -2  -7   91.49    4.60
 -10  -2   7   95.49    4.70
  10  -2  -7  101.39    4.60
  10   2  -7   94.09    4.70
 -10   2   7  103.39    4.70
   9  -2  -7   50.09    2.80
   9  -2  -7   47.60    2.80
  -9  -2   7   46.70    2.80
  -9   2   7   49.00    2.90
   8  -2  -7   46.00    2.70
  -8  -2   7   45.40    3.20
  -8  -2   7   46.00    2.90
   8  -2  -7   45.70    2.80
  -8   2   7   41.40    3.50
  -8   2   7   37.40    2.80
   7  -2  -7   56.19    3.10
   7  -2  -7   53.69    3.30
  -7  -2   7   49.50    3.50
  -7  -2   7   53.79    3.40
  -7   2   7   49.99    3.30
   7   2  -7   50.59    3.20
  -7   2   7   48.00    3.10
  -6  -2   7   -0.10    1.00
   6  -2  -7    0.70    0.90
  -6  -2   7   -1.00    1.00
   6  -2  -7    0.70    0.80
  -6   2   7    0.80    1.20
   6   2  -7   -0.90    0.90
  -6   2   7    0.80    0.90
  -6   2   7    0.30    0.80
  -5  -2   7   66.89    4.30
   5  -2  -7   80.29    4.40
  -5  -2   7   71.49    4.10
   5  -2  -7   69.19    4.00
   5  -2  -7   74.39    3.90
   5   2  -7   69.79    4.00
  -5   2   7   71.19    4.10
  -5   2   7   62.79    4.00
  -5   2   7   70.39    3.60
  -4  -2   7  118.39    6.10
   4  -2  -7  110.79    7.80
   4  -2  -7  124.19    6.00
   4  -2  -7  122.99    5.90
   4  -2  -7  117.19    6.00
  -4  -2   7  111.59    6.20
  -4   2   7  116.79    6.00
  -4   2   7  114.69    6.00
   4   2  -7  114.99    8.30
  -4   2   7  121.39    6.40
  -4   2   7  117.69    8.00
   4   2  -7  117.59    6.00
  -4   2   7  120.19    5.80
   3  -2  -7   28.30    2.00
  -3  -2   7   28.50    2.40
  -3  -2   7   25.30    2.30
   3  -2  -7   24.50    2.10
   3  -2  -7   28.20    2.20
   3  -2  -7   26.80    2.20
   3   2  -7   25.20    2.10
  -3   2   7   29.90    2.40
  -3   2   7   25.50    3.40
  -3   2   7   32.40    2.30
  -3   2   7   27.50    1.90
   3   2  -7   28.70    4.10
  -3   2   7   24.10    4.20
  -3   2   7   28.00    2.40
   2  -2  -7  105.99    5.40
   2  -2  -7  105.19    5.40
   2  -2  -7   98.29    5.40
   2  -2  -7  103.79    6.80
   2  -2  -7  101.99    5.30
  -2   2   7  117.39    5.70
  -2   2   7  108.19    7.60
  -2   2   7  118.59    5.70
  -2   2   7  113.29    7.20
  -2   2   7   86.69    5.40
   2   2  -7  102.69    5.40
   1  -2  -7    7.20    1.40
   1  -2  -7    8.80    1.20
   1  -2  -7    9.40    1.50
   1  -2  -7   10.30    2.60
  -1   2   7    9.90    2.20
  -1   2   7    8.60    1.30
  -1   2   7   11.70    3.00
  -1   2   7    9.90    1.40
   0  -2  -7  174.98    8.10
   0  -2  -7  156.28    7.90
   0  -2  -7  165.58    7.80
   0  -2  -7  169.18    8.90
   0  -2  -7  156.68    8.30
   0   2   7  166.88    9.70
   0   2  -7  138.79   12.30
   0   2   7  165.88    8.00
   0   2   7  179.38    9.50
   0   2   7  166.18    8.00
  -1  -2  -7   83.79    4.60
   1  -2   7   88.69    4.30
  -1  -2  -7   88.09    5.10
   1  -2   7   84.89    4.80
  -1  -2  -7   87.39    4.60
  -1  -2  -7   88.19    4.90
  -1  -2  -7   89.99    4.70
  -1  -2  -7   85.79    4.50
   1   2   7   91.09    6.10
   1   2   7   95.09    4.60
   1   2   7   92.09    6.10
  -1   2  -7   84.59    4.50
  -2  -2  -7  531.65   23.40
   2  -2   7  514.75   23.60
  -2  -2  -7  482.25   23.40
  -2  -2  -7  509.15   23.30
  -2  -2  -7  545.25   23.70
  -2  -2  -7  540.85   23.50
  -2  -2  -7  513.85   23.30
   2   2   7  527.25   25.20
   2   2   7  537.35   23.30
  -2   2  -7  529.35   23.40
   2   2   7  498.85   24.80
  -2   2  -7  498.55   23.50
  -3  -2  -7  148.39    7.50
  -3  -2  -7  143.59    7.10
  -3  -2  -7  145.69    7.20
  -3  -2  -7  148.29    7.30
  -3  -2  -7  156.18    7.10
   3   2   7  132.49    8.80
   3   2   7  155.28    7.10
   3   2   7  144.29    8.40
  -3   2  -7  148.49    7.50
  -3   2  -7  149.88    7.20
  -4  -2  -7  113.29    6.00
  -4  -2  -7  110.29    5.70
  -4  -2  -7  110.59    5.50
  -4  -2  -7  112.19    5.70
  -4  -2  -7  111.09    5.60
   4   2   7  114.59    5.50
  -4   2  -7  109.39    5.60
  -4   2  -7  106.79    5.60
  -4   2  -7  115.09    6.00
  -5  -2  -7  183.88    8.80
  -5  -2  -7  178.38    8.50
  -5  -2  -7  172.48    8.40
  -5  -2  -7  173.68    8.40
  -5   2  -7  166.08    8.40
   5   2   7  178.18    8.30
  -5   2  -7  186.58    8.80
  -5   2  -7  170.58    8.40
  -6  -2  -7   95.29    5.50
  -6  -2  -7  103.59    5.10
  -6  -2  -7   99.19    5.20
  -6  -2  -7  104.59    5.20
   6   2   7   92.89    5.00
  -6   2  -7   99.89    5.40
  -6   2  -7  104.99    5.20
  -7  -2  -7   69.49    3.80
  -7  -2  -7   68.29    3.70
  -7  -2  -7   70.69    3.70
  -7   2  -7   69.09    3.80
   7   2   7   59.59    3.50
  -7   2  -7   67.79    4.00
  -8  -2  -7   22.90    1.60
  -8  -2  -7   21.60    1.70
  -8  -2  -7   20.40    1.80
  -8   2  -7   17.10    2.00
  -8   2  -7   23.20    1.80
  -9  -2  -7   13.40    1.10
   9  -2   7   16.80    1.40
  -9  -2  -7   16.70    1.20
  -9   2  -7   14.60    1.20
   9  -3  -7  102.69    5.20
  -9  -3   7  111.09    5.40
   9  -3  -7  108.89    5.20
  -9   3   7  116.89    5.30
   8  -3  -7   17.10    1.60
   8  -3  -7   19.80    1.80
  -8  -3   7   18.00    2.00
  -8   3   7   18.10    1.70
  -8   3   7   20.30    1.70
   7  -3  -7    0.70    0.80
   7  -3  -7    3.00    1.00
  -7  -3   7    1.50    1.20
  -7   3   7    1.70    1.10
  -7   3   7    0.30    0.80
   7   3  -7    0.80    1.00
   6  -3  -7   24.50    2.00
   6  -3  -7   19.80    1.90
  -6  -3   7   21.90    2.50
   6   3  -7   26.40    3.40
  -6   3   7   21.60    2.00
  -6   3   7   21.10    2.20
   6   3  -7   27.10    2.20
  -5  -3   7  114.39    6.40
   5  -3  -7  108.89    5.80
   5  -3  -7  113.79    5.60
   5  -3  -7  115.89    5.80
  -5   3   7  118.29    5.50
   5   3  -7  102.39    6.40
  -5   3   7  118.39    6.00
   5   3  -7  113.29    5.90
   4  -3  -7  180.58    8.60
   4  -3  -7  169.28    8.60
   4  -3  -7  180.78    8.60
  -4  -3   7  173.18    9.00
  -4   3   7  174.98    8.90
  -4   3   7  182.18    8.40
  -4   3   7  179.48   10.10
  -4   3   7  172.48    8.60
   3  -3  -7   72.19    4.00
  -3  -3   7   69.99    4.40
   3  -3  -7   68.09    4.20
   3  -3  -7   64.09    3.90
   3  -3  -7   66.69    3.90
   3  -3  -7   67.09    4.00
  -3   3   7   71.39    4.40
  -3   3   7   69.09    3.70
  -3   3   7   76.09    4.50
   2  -3  -7   68.29    3.90
   2  -3  -7   64.79    3.80
   2  -3  -7   69.69    3.90
  -2  -3   7   71.49    4.30
   2  -3  -7   67.89    4.20
   2  -3  -7   73.09    3.90
   2  -3  -7   69.39    3.90
   2  -3  -7   57.19    5.90
  -2   3   7   66.19    3.60
  -2   3   7   67.29    4.20
   2   3  -7   64.99    3.70
  -2   3   7   72.29    4.20
  -2   3   7   58.59    5.50
   1  -3  -7   86.49    4.70
  -1  -3   7   84.49    5.00
   1  -3  -7   77.59    6.80
   1  -3  -7   88.39    4.70
   1  -3  -7   88.09    4.70
   1  -3  -7   88.09    5.00
   1  -3  -7   91.29    4.70
   1  -3  -7   89.39    4.70
   1   3  -7   84.99    4.50
  -1   3   7   91.99    4.90
  -1   3   7   84.09    4.80
  -1   3   7   77.59    7.00
  -1   3   7   84.19    6.60
   0  -3  -7   54.49    3.30
   0  -3   7   59.69    3.80
   0  -3  -7   52.69    3.30
   0  -3  -7   58.19    3.40
   0  -3  -7   58.99    3.60
   0  -3  -7   56.79    3.50
   0  -3  -7   60.19    3.50
   0   3   7   60.99    3.50
   0   3   7   50.59    4.90
   0   3  -7   53.49    3.30
   0   3   7   60.49    3.50
  -1  -3  -7   85.49    4.50
   1  -3   7   78.49    4.70
  -1  -3  -7   79.89    4.70
  -1  -3  -7   83.29    4.60
  -1  -3  -7   81.09    4.40
  -1  -3  -7   82.09    4.60
   1   3   7   86.29    4.50
   1   3   7   92.39    4.50
   1   3   7   80.09    6.20
  -1   3  -7   80.09    4.40
  -1   3  -7   82.19    4.60
  -2  -3  -7   83.89    4.40
  -2  -3  -7   85.09    4.70
  -2  -3  -7   79.49    4.80
   2  -3   7   83.89    4.90
  -2  -3  -7   81.39    4.60
  -2  -3  -7   87.39    4.70
  -2   3  -7   83.49    4.60
   2   3   7   92.89    4.50
  -2   3  -7   88.69    4.50
  -3  -3  -7   15.10    2.00
  -3  -3  -7   16.90    1.90
  -3  -3  -7   17.80    1.60
  -3  -3  -7   15.70    2.20
   3  -3   7   15.70    2.00
   3   3   7   16.00    1.50
  -3   3  -7   16.70    1.70
  -3   3  -7   17.60    2.00
   4  -3   7   86.19    4.30
   4  -3   7   91.69    5.10
  -4  -3  -7   93.09    5.10
  -4  -3  -7   90.39    4.60
  -4  -3  -7   91.79    4.90
  -4  -3  -7   89.49    4.90
  -4   3  -7   89.89    5.10
   4   3   7   84.49    4.50
  -4   3  -7   91.69    4.70
  -5  -3  -7  135.39    6.50
   5  -3   7  129.89    6.90
  -5  -3  -7  140.69    6.70
  -5  -3  -7  131.99    6.50
  -5  -3  -7  140.29    7.00
  -5   3  -7  123.69    6.80
  -5   3  -7  133.59    6.50
  -5   3  -7  130.79    6.50
  -6  -3  -7   92.49    4.50
  -6  -3  -7   90.39    4.90
  -6  -3  -7   91.99    4.70
   6  -3   7   78.09    4.80
  -6  -3  -7   90.29    4.50
  -6   3  -7   94.79    4.60
  -6   3  -7   80.79    4.80
  -7  -3  -7   44.30    2.70
   7  -3   7   50.29    3.10
  -7  -3  -7   43.60    2.60
  -7  -3  -7   44.30    2.60
  -7   3  -7   49.80    2.70
  -7   3  -7   47.80    2.90
  -8  -3  -7   82.69    4.20
   8  -3   7   91.19    4.50
  -8  -3  -7   76.89    4.50
  -8   3  -7   88.19    4.20
  -8   3  -7   93.79    4.40
   8  -4  -7    3.80    0.80
   8  -4  -7    3.40    0.70
  -8  -4   7    5.40    1.30
  -8   4   7    5.50    0.90
   7  -4  -7   95.59    4.80
   7  -4  -7   90.89    4.60
  -7  -4   7   96.49    5.10
   7   4  -7   90.69    4.70
  -7   4   7   89.99    4.70
  -7   4   7   91.29    4.60
  -6  -4   7   15.30    2.30
   6  -4  -7   15.00    1.70
   6  -4  -7   16.40    1.80
  -6  -4   7   17.10    2.20
   6   4  -7   15.90    1.70
  -6   4   7   15.20    1.90
  -6   4   7   15.00    1.80
  -5  -4   7  135.59    7.10
   5  -4  -7  128.99    6.40
   5  -4  -7  115.39    6.50
   5  -4  -7  133.49    6.50
  -5  -4   7  127.09    6.90
  -5   4   7  136.09    6.20
  -5   4   7  132.99    6.70
   5   4  -7  133.19    6.60
  -5   4   7  133.39    6.50
   4  -4  -7   94.99    5.10
   4  -4  -7   96.09    5.00
  -4  -4   7   90.39    5.30
   4  -4  -7   93.19    5.00
  -4  -4   7   94.79    5.50
  -4   4   7   84.09    4.60
  -4   4   7   92.29    5.30
  -4   4   7   85.49    4.90
  -3  -4   7   42.20    3.50
   3  -4  -7   45.40    3.00
   3  -4  -7   46.90    3.30
   3  -4  -7   43.80    2.90
  -3  -4   7   47.30    3.60
   3  -4  -7   44.70    3.20
   3  -4  -7   49.90    3.10
   3   4  -7   40.90    2.70
  -3   4   7   45.10    2.70
  -3   4   7   41.90    3.00
  -3   4   7   44.50    3.30
  -3   4   7   43.10    3.40
   2  -4  -7   71.39    4.10
   2  -4  -7   73.69    4.20
   2  -4  -7   74.09    4.20
   2  -4  -7   68.69    4.10
   2  -4  -7   70.69    4.40
  -2  -4   7   68.79    4.60
  -2  -4   7   70.69    4.60
  -2   4   7   66.49    4.40
   2   4  -7   71.69    3.90
  -2   4   7   70.19    3.80
  -2   4   7   72.69    4.50
  -1  -4   7  101.79    6.10
   1  -4  -7  108.79    5.90
   1  -4  -7  114.89    5.90
   1  -4  -7  115.39    5.90
   1  -4  -7  110.49    5.80
  -1  -4   7  105.49    6.30
   1  -4  -7  115.79    6.20
   1   4  -7  107.89    5.60
  -1   4   7  112.69    6.10
  -1   4   7  112.79    6.10
   0  -4  -7   56.39    3.50
   0  -4  -7   57.29    3.60
   0  -4  -7   57.79    3.70
   0  -4   7   55.79    4.10
   0  -4   7   56.09    4.00
   0  -4  -7   55.39    3.60
   0  -4  -7   57.09    3.90
   0  -4  -7   55.59    3.60
   0   4   7   63.29    3.70
   0   4  -7   57.09    3.40
   0   4   7   61.39    3.70
  -1  -4  -7  125.29    6.60
   1  -4   7  116.39    6.90
  -1  -4  -7  128.59    6.60
  -1  -4  -7  130.59    6.80
  -1  -4  -7  126.09    6.40
  -1  -4  -7  120.69    6.30
   1  -4   7  123.49    6.90
  -1  -4  -7  130.69    6.50
   1   4   7  130.29    6.50
   1   4   7  123.79    6.50
  -1   4  -7  125.19    6.30
  -2  -4  -7   95.59    5.30
   2  -4   7   78.69    6.10
  -2  -4  -7  104.89    5.90
  -2  -4  -7   90.69    5.00
   2  -4   7   89.29    5.30
  -2  -4  -7   93.09    4.90
  -2  -4  -7   90.89    5.00
   2   4   7   83.89    4.90
   2   4   7   88.29    4.80
  -2   4  -7   91.59    4.90
  -2   4  -7   93.49    4.80
  -3  -4  -7   67.09    4.20
  -3  -4  -7   67.29    3.90
  -3  -4  -7   70.29    3.80
   3  -4   7   62.29    4.10
  -3  -4  -7   65.09    4.00
   3  -4   7   60.99    5.30
  -3   4  -7   68.09    4.00
   3   4   7   64.99    3.60
  -3   4  -7   68.99    3.80
  -4  -4  -7   24.30    2.00
   4  -4   7   20.10    2.20
  -4  -4  -7   25.20    2.10
  -4  -4  -7   24.50    2.60
  -4   4  -7   26.10    2.00
  -4   4  -7   22.90    2.30
   5  -4   7    7.70    1.60
  -5  -4  -7    6.40    1.40
  -5   4  -7    9.10    1.70
  -5   4  -7    6.60    1.30
   6  -4   7    6.50    1.50
  -6   4  -7    6.10    1.40
   7  -4   7   56.99    3.10
  -7   4  -7   56.69    3.10
   7  -5  -7    7.80    1.20
  -7  -5   7   11.40    1.20
  -7   5   7   11.80    1.00
   6  -5  -7    8.40    1.20
   6  -5  -7    6.10    1.20
  -6  -5   7    9.60    1.60
  -6  -5   7    8.80    1.70
  -6   5   7    7.60    1.20
   6   5  -7    7.90    1.10
  -5  -5   7   37.00    2.80
   5  -5  -7   40.30    2.60
   5  -5  -7   41.20    2.70
  -5  -5   7   40.00    2.80
  -5   5   7   36.70    2.00
   5   5  -7   39.60    2.50
  -5   5   7   39.90    2.50
  -4  -5   7   12.10    2.00
  -4  -5   7   10.20    2.10
   4  -5  -7   12.10    1.80
   4  -5  -7   11.60    1.50
   4  -5  -7   11.50    1.70
  -4   5   7   11.50    1.10
  -4   5   7   12.70    1.70
  -3  -5   7   10.10    2.10
   3  -5  -7    9.30    1.50
  -3  -5   7   14.30    2.10
   3  -5  -7   12.00    2.00
   3  -5  -7   12.90    1.60
   3  -5  -7   12.80    1.70
   3   5  -7    8.90    1.90
  -3   5   7   12.80    1.30
  -3   5   7   13.40    1.90
   2  -5  -7   43.80    3.00
   2  -5  -7   44.10    3.10
   2  -5  -7   43.70    3.00
   2  -5  -7   43.90    2.90
   2  -5  -7   47.60    2.90
  -2  -5   7   36.60    3.20
  -2  -5   7   44.30    3.40
   2   5  -7   45.80    2.70
  -2   5   7   48.90    2.60
  -2   5   7   40.10    3.20
  -2   5   7   43.30    3.10
  -1  -5   7   55.99    3.80
   1  -5  -7   47.30    3.20
   1  -5  -7   49.60    3.30
   1  -5  -7   54.99    3.30
   1  -5  -7   49.00    3.50
  -1  -5   7   48.60    3.70
   1  -5  -7   56.99    3.50
   1   5  -7   60.29    3.20
  -1   5   7   56.99    3.50
  -1   5   7   57.79    3.10
  -1   5   7   50.19    3.60
   0  -5  -7   43.80    3.10
   0  -5  -7   42.30    2.90
   0  -5   7   36.00    3.10
   0  -5  -7   37.20    3.00
   0  -5  -7   40.20    2.90
   0  -5   7   44.00    3.30
   0  -5  -7   38.60    2.70
   0   5  -7   44.60    2.70
   0   5   7   47.90    3.10
   0   5   7   40.00    3.00
  -1  -5  -7    1.60    1.00
   1  -5   7    2.70    1.30
   1  -5   7    2.00    1.20
  -1  -5  -7    3.90    1.30
  -1  -5  -7    1.40    1.20
  -1   5  -7    2.30    0.90
   1   5   7    3.80    1.20
   1   5   7    1.90    1.00
  -2  -5  -7   93.79    5.10
   2  -5   7   91.69    5.10
  -2  -5  -7   93.79    4.90
   2  -5   7   88.89    5.10
  -2  -5  -7   87.89    4.70
  -2  -5  -7   94.29    4.80
   2   5   7   89.49    4.90
  -2   5  -7   90.99    4.80
  -2   5  -7   95.59    4.70
  -3  -5  -7   36.60    2.40
   3  -5   7   35.60    2.80
  -3  -5  -7   34.80    2.50
   3  -5   7   34.60    2.80
  -3  -5  -7   38.40    2.70
  -3   5  -7   37.80    2.30
  -3   5  -7   34.70    2.60
   4  -5   7    1.60    0.90
  -4  -5  -7    3.10    1.10
   4  -5   7    1.70    1.00
  -4  -5  -7    2.00    0.80
  -4   5  -7    2.70    0.90
  -4   5  -7    3.20    0.80
   5  -5   7    3.30    0.90
  -5   5  -7    5.20    1.10
   6  -5   7   94.19    5.30
  -6   5  -7  104.09    4.80
   4  -6  -7    7.50    1.00
  -4  -6   7    9.20    1.30
   4   6  -7    6.00    0.70
  -3  -6   7    3.30    1.00
  -3  -6   7    2.50    0.90
   3  -6  -7    3.40    0.80
   3  -6  -7    3.60    0.90
  -3   6   7    6.00    1.10
  -3   6   7    4.80    0.70
   3   6  -7    4.50    0.90
  -2  -6   7    7.30    1.40
   2  -6  -7    9.20    1.20
   2  -6  -7    7.50    1.30
   2  -6  -7    5.70    1.10
  -2  -6   7    7.60    1.40
   2   6  -7    6.60    0.90
   2   6  -7    6.90    1.00
  -2   6   7    5.20    1.20
  -2   6   7    6.80    0.80
  -1  -6   7   26.10    2.00
  -1  -6   7   25.40    2.10
   1  -6  -7   28.20    1.90
   1  -6  -7   28.30    1.90
   1  -6  -7   25.30    1.70
   1  -6  -7   26.20    2.00
   1   6  -7   26.90    1.70
   1   6  -7   23.50    1.70
  -1   6   7   27.50    1.60
  -1   6   7   23.80    1.70
   0  -6  -7   22.90    1.80
   0  -6  -7   18.80    1.50
   0  -6  -7   18.70    1.60
   0  -6   7   19.10    2.00
   0  -6  -7   21.70    1.80
   0  -6   7   24.10    1.90
   0   6  -7   21.80    1.50
   0   6   7   20.10    1.30
   1  -6   7   89.09    4.90
  -1  -6  -7   93.89    4.80
   1  -6   7   96.99    4.90
  -1  -6  -7   97.49    4.80
  -1  -6  -7   92.69    4.80
  -1  -6  -7  106.49    4.80
  -1   6  -7  101.69    4.70
   2  -6   7  126.99    6.00
  -2  -6  -7  122.09    5.80
  -2  -6  -7  120.69    5.90
   2  -6   7  123.59    6.60
  -2  -6  -7  126.09    5.90
  -2   6  -7  125.19    5.80
  -3   6  -7   34.70    2.00
  10   0  -8   21.60    1.50
 -10   0   8   23.20    1.60
   9   0  -8    2.40    1.00
  -9   0   8    1.90    0.70
  -9   0   8    2.50    0.80
   8   0  -8    7.70    1.50
  -8   0   8    7.20    1.50
  -8   0   8    6.90    1.40
  -7   0   8    0.00    0.90
  -7   0   8    1.90    0.90
   7   0  -8    0.90    1.00
  -6   0   8  477.25   21.10
  -6   0   8  451.35   20.80
   6   0  -8  439.76   20.70
  -5   0   8   11.60    1.80
  -5   0   8   13.40    1.80
   5   0  -8   15.60    5.40
   5   0  -8   13.10    1.60
  -4   0   8  173.08    8.90
   4   0  -8  198.38    9.00
  -4   0   8  199.68    9.30
   4   0  -8  174.88   10.80
   3   0  -8   27.50    2.30
  -3   0   8   25.40    1.80
  -3   0   8   26.30    2.20
   3   0  -8   28.00    2.00
   3   0  -8   26.00    3.50
   2   0  -8  199.18    9.10
  -2   0   8  190.58    9.30
  -2   0   8  193.08    8.90
  -2   0   8  180.98   10.30
  -1   0   8    0.40    1.20
   1   0  -8   -1.20    1.10
  -1   0   8    1.40    2.00
  -1   0   8    0.80    0.70
  -1   0   8    0.00    0.60
  -1   0   8    0.80    0.90
   1   0  -8    1.70    0.90
   1   0  -8   -0.10    0.90
   0   0   8  109.39    5.50
   0   0   8   97.59    5.20
   0   0   8   96.79    6.40
   0   0   8  101.29    7.10
   0   0  -8  102.09    5.30
   0   0   8  111.19    5.50
   0   0  -8  110.19    5.40
   1   0   8    5.00    1.80
  -1   0  -8    6.00    1.20
   1   0   8    7.10    1.30
  -1   0  -8    6.70    1.20
  -1   0  -8    7.20    1.50
  -1   0  -8    8.10    1.30
   1   0   8    4.90    2.20
  -2   0  -8   33.40    2.20
  -2   0  -8   35.30    2.40
   2   0   8   33.90    3.70
  -2   0  -8   35.60    2.40
   2   0   8   36.90    2.40
   2   0   8   35.80    4.10
  -2   0  -8   37.10    2.40
  -2   0  -8   33.20    2.60
   3   0   8   17.50    3.50
  -3   0  -8   22.60    2.00
  -3   0  -8   22.30    1.90
  -3   0  -8   27.00    1.90
  -3   0  -8   27.90    2.40
   3   0   8   24.50    2.00
  -3   0  -8   26.30    1.90
  -4   0  -8  140.89    7.00
   4   0   8  140.89    7.10
  -4   0  -8  140.39    6.90
  -4   0  -8  148.59    7.30
  -4   0  -8  141.99    7.00
  -4   0  -8  137.89    7.00
  -5   0  -8  259.67   11.90
  -5   0  -8  253.17   12.00
  -5   0  -8  272.37   12.10
  -5   0  -8  260.57   12.40
   5   0   8  265.57   12.20
  -5   0  -8  234.78   12.00
   6   0   8    7.20    1.40
  -6   0  -8    6.40    1.50
  -6   0  -8    6.30    1.50
  -6   0  -8    6.40    1.10
  -6   0  -8    6.30    1.40
  -7   0  -8    1.70    1.00
  -7   0  -8    0.30    0.80
  -7   0  -8   -1.60    1.00
   7   0   8    1.60    0.90
  -7   0  -8    1.00    0.80
  -8   0  -8   35.60    2.20
  -8   0  -8   35.30    2.30
  -8   0  -8   35.60    2.20
  -8   0  -8   30.90    2.40
  -9   0  -8   49.30    2.50
  -9   0  -8   45.40    2.50
  -9   0  -8   48.50    2.40
  10  -1  -8   36.50    2.00
 -10  -1   8   34.40    2.00
  10  -1  -8   28.70    1.80
 -10   1   8   31.90    1.90
  10   1  -8   32.70    2.00
 -10   1   8   33.50    1.90
   9  -1  -8   27.30    1.90
  -9  -1   8   31.20    2.10
   9  -1  -8   30.10    2.10
  -9   1   8   29.20    2.10
  -9   1   8   30.40    2.10
   9   1  -8   32.40    2.20
  -8  -1   8   60.89    3.90
   8  -1  -8   73.29    3.90
  -8   1   8   72.79    4.00
  -8   1   8   69.09    3.90
  -7  -1   8   75.29    4.50
   7  -1  -8   76.49    4.40
   7   1  -8   81.19    4.30
  -7   1   8   84.39    4.60
  -7   1   8   84.89    4.50
   6  -1  -8  151.78    7.60
   6  -1  -8  153.88    7.50
  -6  -1   8  156.08    7.90
   6   1  -8  154.08    7.50
  -6   1   8  158.28    7.70
  -6   1   8  144.29    7.70
   5  -1  -8  140.19    6.90
  -5  -1   8  142.69    7.30
   5  -1  -8  139.49    6.90
   5   1  -8  138.39    6.90
  -5   1   8  139.79    7.20
  -5   1   8  135.69    7.00
   4  -1  -8   36.10    2.50
   4  -1  -8   36.20    2.40
  -4  -1   8   37.20    2.70
   4  -1  -8   31.40    4.10
  -4   1   8   36.60    2.20
  -4   1   8   30.10    4.20
   4   1  -8   34.60    2.40
  -4   1   8   35.30    2.60
  -3  -1   8   61.39    3.80
   3  -1  -8   64.49    3.60
   3  -1  -8   57.89    3.50
   3  -1  -8   57.69    3.50
   3  -1  -8   56.49    5.00
   3   1  -8   65.29    3.60
  -3   1   8   58.49    5.10
  -3   1   8   60.59    3.60
  -3   1   8   60.69    3.80
  -3   1   8   63.59    3.30
   2  -1  -8   67.59    3.90
   2  -1  -8   70.89    4.10
  -2  -1   8   71.39    3.60
   2  -1  -8   74.39    3.90
  -2  -1   8   74.29    4.10
   2  -1  -8   69.89    3.90
   2  -1  -8   76.19    4.00
  -2   1   8   75.59    4.30
  -2   1   8   75.69    3.80
   2   1  -8   64.99    3.80
  -2   1   8   70.79    5.60
   2   1  -8   72.49    4.00
  -2   1   8   79.69    4.30
  -2   1   8   66.89    6.20
   1  -1  -8   35.50    2.50
  -1  -1   8   36.00    2.10
   1  -1  -8   34.20    2.40
   1  -1  -8   27.10    2.80
   1  -1  -8   37.60    2.40
   1  -1  -8   34.70    2.40
  -1   1   8   32.90    3.40
  -1   1   8   39.00    2.60
  -1   1   8   34.40    4.10
  -1   1   8   40.70    2.60
  -1   1   8   36.20    2.20
   1   1  -8   35.60    2.30
   1   1  -8   36.10    2.30
   0  -1  -8   95.59    5.00
   0  -1   8   97.49    5.60
   0  -1  -8   98.99    5.10
   0  -1  -8   95.59    5.00
   0  -1  -8  102.39    5.10
   0  -1   8  102.89    5.30
   0  -1   8  102.09    4.80
   0  -1  -8   97.79    5.30
   0  -1  -8   94.09    5.10
   0   1  -8   96.49    5.10
   0   1  -8   96.89    5.10
   0   1  -8  101.19    5.10
   0   1   8  103.19    5.30
   0   1   8   91.39    6.80
   0   1   8  101.69    5.30
   0   1   8  104.69    6.60
  -1  -1  -8  114.19    5.50
   1  -1   8  121.19    5.80
  -1  -1  -8  118.89    5.60
  -1  -1  -8  108.69    5.70
  -1  -1  -8  106.39    5.40
  -1  -1  -8  103.99    5.30
  -1  -1  -8  100.39    5.40
   1   1   8  103.39    6.90
   1   1   8  105.09    7.20
  -1   1  -8  111.99    5.60
  -1   1  -8  107.39    5.40
   1   1   8  103.19    5.60
  -1   1  -8  101.69    5.50
  -2  -1  -8  118.09    5.90
  -2  -1  -8  119.29    6.20
  -2  -1  -8  116.09    5.80
   2  -1   8  130.29    6.20
  -2  -1  -8  126.79    6.00
  -2  -1  -8  125.19    6.00
  -2   1  -8  124.99    6.00
  -2   1  -8  124.09    6.00
   2   1   8  116.09    7.60
  -2   1  -8  104.39    5.90
  -2   1  -8  116.69    6.10
   2   1   8  108.79    5.90
   2   1   8  108.39    7.50
  -3  -1  -8   83.69    4.80
  -3  -1  -8   80.79    4.40
  -3  -1  -8   88.09    4.50
  -3  -1  -8   80.39    4.30
   3  -1   8   77.19    7.00
   3  -1   8   90.69    4.70
  -3  -1  -8   86.79    4.50
  -3   1  -8   81.19    4.40
   3   1   8   72.29    6.10
  -3   1  -8   84.59    4.50
  -3   1  -8   80.09    4.30
   3   1   8   95.39    4.60
  -3   1  -8   80.99    4.70
  -3   1  -8   84.99    4.40
  -4  -1  -8    2.30    0.90
  -4  -1  -8    2.60    1.10
  -4  -1  -8    0.50    1.00
  -4  -1  -8    1.30    0.80
  -4  -1  -8    0.70    1.10
   4  -1   8    2.50    1.10
  -4   1  -8    3.60    1.10
  -4   1  -8    2.20    1.10
  -4   1  -8   -0.10    0.80
  -4   1  -8    1.60    0.90
   4   1   8    1.40    0.80
  -4   1  -8    1.50    0.90
  -5  -1  -8   53.59    3.40
  -5  -1  -8   57.19    3.60
   5  -1   8   51.39    3.40
  -5  -1  -8   51.39    3.20
  -5  -1  -8   54.59    3.30
  -5  -1  -8   55.79    3.20
  -5   1  -8   50.39    3.20
  -5   1  -8   57.49    3.60
  -5   1  -8   55.09    3.30
  -5   1  -8   50.19    3.20
  -5   1  -8   52.29    3.10
   5   1   8   56.09    3.30
  -6  -1  -8   16.60    2.00
  -6  -1  -8   17.80    1.70
   6  -1   8   17.40    1.90
  -6  -1  -8   18.70    2.30
  -6  -1  -8   15.00    1.80
  -6   1  -8   20.60    2.20
  -6   1  -8   19.10    1.80
  -6   1  -8   21.40    1.90
   6   1   8   18.20    1.70
  -6   1  -8   19.20    1.80
  -7  -1  -8   21.00    1.80
  -7  -1  -8   23.00    2.20
  -7  -1  -8   20.30    1.80
  -7  -1  -8   20.80    1.90
   7   1   8   22.70    1.80
  -7   1  -8   21.20    1.80
  -7   1  -8   19.60    2.20
  -7   1  -8   22.40    1.90
  -7   1  -8   23.10    1.80
  -8  -1  -8   63.69    3.30
  -8  -1  -8   61.59    3.20
  -8  -1  -8   56.29    3.30
  -8   1  -8   59.59    3.20
  -8   1  -8   62.19    3.30
  -8   1  -8   58.99    3.50
   9  -1   8   50.49    2.90
  -9  -1  -8   59.49    2.80
  -9  -1  -8   58.09    2.80
  -9  -1  -8   53.99    2.90
  -9   1  -8   57.19    2.80
 -10   2   8   47.80    2.70
  10   2  -8   53.29    2.70
   9  -2  -8    1.20    0.60
  -9  -2   8    1.10    0.50
   9  -2  -8    3.00    0.80
  -9   2   8    0.60    0.60
  -8  -2   8   12.00    1.50
   8  -2  -8   14.10    1.50
   8  -2  -8    9.70    1.30
  -8   2   8   11.50    1.50
   7  -2  -8   55.79    3.50
  -7  -2   8   66.29    3.80
   7  -2  -8   65.39    3.40
  -7   2   8   60.89    3.60
  -7   2   8   59.89    3.60
   7   2  -8   64.39    3.60
  -6  -2   8  116.39    6.10
   6  -2  -8  118.79    5.90
   6  -2  -8  113.19    5.90
  -6   2   8  114.29    6.00
   6   2  -8  117.69    5.90
  -6   2   8  110.99    6.00
   5  -2  -8   10.40    1.70
   5  -2  -8    8.50    1.60
  -5   2   8    7.80    1.30
  -5   2   8    6.30    1.30
   5   2  -8    9.80    1.70
  -5   2   8    9.40    1.10
   4  -2  -8  200.68    9.60
  -4  -2   8  180.18   10.80
  -4  -2   8  199.18    9.70
   4  -2  -8  205.18    9.50
   4  -2  -8  205.18    9.50
   4   2  -8  206.08    9.60
  -4   2   8  208.88    9.30
  -4   2   8  185.08   10.70
  -4   2   8  193.48    9.60
  -4   2   8  198.08    9.60
   3  -2  -8   77.29    4.10
   3  -2  -8   72.69    4.10
   3  -2  -8   72.79    4.20
   3  -2  -8   74.69    4.10
   3  -2  -8   75.99    4.10
   3  -2  -8   70.79    6.00
  -3  -2   8   71.49    4.40
  -3  -2   8   69.19    4.30
   3   2  -8   77.59    4.20
  -3   2   8   67.59    6.10
  -3   2   8   70.39    4.20
  -3   2   8   71.79    3.90
  -3   2   8   78.49    4.60
  -3   2   8   72.89    4.50
   2  -2  -8  507.45   22.40
   2  -2  -8  470.65   22.20
  -2  -2   8  471.95   22.60
   2  -2  -8  484.15   22.30
   2  -2  -8  480.05   22.50
  -2  -2   8  473.15   22.40
   2  -2  -8  500.25   22.40
   2  -2  -8  523.15   22.40
  -2   2   8  505.85   22.20
  -2   2   8  461.15   22.40
  -2   2   8  476.65   24.40
   2   2  -8  519.25   22.40
   2   2  -8  468.75   22.20
  -2   2   8  522.95   22.80
  -2   2   8  536.35   22.80
   1  -2  -8  129.09    6.10
  -1  -2   8  112.49    6.10
   1  -2  -8  117.69    6.20
  -1  -2   8  108.99    6.30
   1  -2  -8  121.19    6.00
   1  -2  -8  124.49    6.10
   1  -2  -8  134.19    6.10
   1   2  -8  121.49    6.00
   1   2  -8  116.49    5.90
  -1   2   8  123.19    6.30
  -1   2   8  118.29    7.90
  -1   2   8  116.79    6.30
  -1   2   8  113.59    8.30
  -1   2   8  110.69    5.80
   0  -2  -8  137.39    6.80
   0  -2  -8  138.49    7.00
   0  -2   8  131.69    7.00
   0  -2  -8  140.59    6.70
   0  -2  -8  134.69    6.70
   0  -2   8  129.49    6.30
   0  -2  -8  135.19    6.80
   0  -2  -8  142.49    6.80
   0   2   8  132.39    8.40
   0   2   8  129.59    6.90
   0   2   8  128.29    8.80
   0   2  -8  137.09    6.70
   0   2   8  147.09    7.00
   0   2  -8  133.59    6.60
  -1  -2  -8   41.30    2.80
  -1  -2  -8   49.60    3.00
   1  -2   8   43.40    3.00
  -1  -2  -8   46.70    2.90
   1  -2   8   44.80    2.50
  -1  -2  -8   41.10    2.90
  -1  -2  -8   45.00    2.70
  -1  -2  -8   39.80    3.10
   1   2   8   46.00    2.80
  -1   2  -8   47.20    2.70
  -1   2  -8   42.50    2.90
   1   2   8   41.40    4.20
  -1   2  -8   42.90    2.90
  -2  -2  -8   69.99    4.00
  -2  -2  -8   70.49    4.10
   2  -2   8   69.99    4.10
  -2  -2  -8   72.39    3.80
  -2  -2  -8   71.29    3.90
  -2  -2  -8   69.39    4.20
  -2  -2  -8   63.19    4.00
   2  -2   8   75.09    3.60
   2   2   8   74.39    4.00
  -2   2  -8   58.39    4.00
  -2   2  -8   71.09    4.00
  -2   2  -8   75.49    4.00
  -3  -2  -8   95.39    5.30
  -3  -2  -8   89.19    4.80
   3  -2   8   94.99    5.20
  -3  -2  -8   95.29    4.90
  -3  -2  -8   92.99    4.80
  -3  -2  -8   89.59    4.90
  -3   2  -8   91.79    4.90
  -3   2  -8   89.69    5.00
   3   2   8   95.09    4.90
  -4  -2  -8  198.08    9.70
  -4  -2  -8  213.28   10.00
  -4  -2  -8  200.38    9.50
  -4  -2  -8  204.38    9.60
  -4  -2  -8  205.48    9.60
   4  -2   8  190.18    9.80
  -4   2  -8  197.18    9.50
  -4   2  -8  205.08    9.60
   4   2   8  201.58    9.50
  -4   2  -8  198.38    9.80
  -5  -2  -8   46.00    2.80
  -5  -2  -8   46.90    3.00
  -5  -2  -8   48.00    3.40
   5  -2   8   48.90    3.10
  -5  -2  -8   39.20    3.00
  -5  -2  -8   47.20    2.80
  -5   2  -8   41.80    2.80
  -5   2  -8   43.70    3.10
   5   2   8   43.80    2.70
  -5   2  -8   45.60    2.90
   6  -2   8    3.30    1.00
  -6  -2  -8    2.20    0.80
  -6  -2  -8    2.40    0.90
  -6  -2  -8    3.80    1.30
  -6  -2  -8    3.30    1.10
  -6   2  -8    6.60    1.60
  -6   2  -8    4.80    1.20
   6   2   8    3.10    0.90
  -7  -2  -8   78.19    4.00
  -7  -2  -8   71.89    3.80
  -7  -2  -8   72.79    3.80
   7  -2   8   78.29    4.10
  -7  -2  -8   65.19    4.00
  -7   2  -8   75.59    3.90
  -7   2  -8   73.49    4.10
  -8  -2  -8    8.40    1.20
   8  -2   8    8.60    1.30
  -8  -2  -8    8.20    1.10
  -8  -2  -8   10.20    1.10
  -8   2  -8    8.50    1.30
  -8   2  -8   11.20    1.20
   9  -3  -8   78.59    3.90
  -9   3   8   84.29    3.90
   8  -3  -8   19.00    1.60
   8  -3  -8   23.00    1.70
  -8  -3   8   20.70    1.90
  -8   3   8   21.60    1.70
   7  -3  -8   27.40    2.00
   7  -3  -8   23.30    1.90
  -7  -3   8   24.20    2.20
  -7   3   8   27.60    2.10
  -7   3   8   28.00    2.10
   7   3  -8   25.60    2.00
   6  -3  -8   10.60    1.70
   6  -3  -8   12.80    1.60
  -6  -3   8   15.20    2.00
  -6   3   8   15.60    1.90
  -6   3   8   11.00    1.60
   6   3  -8   14.00    1.70
  -5  -3   8   68.09    4.30
   5  -3  -8   68.99    3.90
   5  -3  -8   63.19    3.80
  -5   3   8   65.89    4.00
   5   3  -8   67.39    3.90
  -5   3   8   70.79    3.50
   4  -3  -8  266.87   12.50
  -4  -3   8  265.57   12.90
   4  -3  -8  271.87   12.50
   4  -3  -8  268.47   12.50
  -4   3   8  262.27   12.50
  -4   3   8  273.77   12.20
   4   3  -8  270.57   12.50
  -4   3   8  246.38   12.70
   3  -3  -8  231.68   10.70
   3  -3  -8  218.98   10.60
   3  -3  -8  219.28   10.60
   3  -3  -8  215.28   10.80
   3  -3  -8  224.68   10.70
  -3  -3   8  227.38   11.10
  -3   3   8  234.38   11.10
   3   3  -8  232.78   10.70
  -3   3   8  213.98   11.10
   3   3  -8  200.78   11.00
  -3   3   8  233.28   10.40
   2  -3  -8  380.46   17.30
   2  -3  -8  377.16   17.30
   2  -3  -8  373.36   17.20
   2  -3  -8  380.36   17.50
   2  -3  -8  366.16   17.20
  -2  -3   8  385.56   17.70
   2  -3  -8  386.26   17.30
  -2   3   8  381.16   17.10
   2   3  -8  381.76   17.30
   2   3  -8  368.06   17.10
  -2   3   8  389.96   17.70
  -2   3   8  335.67   17.60
   1  -3  -8   52.19    3.20
   1  -3  -8   50.09    3.20
  -1  -3   8   46.60    3.60
   1  -3  -8   44.20    3.40
   1  -3  -8   46.80    3.20
   1  -3  -8   49.10    3.20
   1  -3  -8   51.09    3.10
  -1   3   8   48.40    3.30
   1   3  -8   49.20    3.00
  -1   3   8   47.40    3.30
   1   3  -8   45.60    3.00
  -1   3   8   45.90    2.80
   0  -3  -8  308.97   14.30
   0  -3  -8  313.97   14.20
   0  -3  -8  297.27   14.00
   0  -3  -8  296.07   13.90
   0  -3   8  291.37   14.40
   0  -3  -8  309.67   14.10
   0   3  -8  286.67   13.90
   0   3   8  311.27   14.30
   0   3   8  304.17   14.30
   0   3  -8  293.47   13.90
  -1  -3  -8  211.08   10.10
  -1  -3  -8  220.58   10.40
  -1  -3  -8  219.68   10.30
  -1  -3  -8  213.18   10.20
  -1  -3  -8  217.28   10.50
   1  -3   8  211.38   10.50
  -1   3  -8  202.88   10.20
   1   3   8  215.68   10.40
  -1   3  -8  210.58   10.20
   1   3   8  221.98   10.40
  -2  -3  -8  112.29    5.90
   2  -3   8  111.89    6.10
  -2  -3  -8  112.89    5.90
  -2  -3  -8  112.69    5.80
  -2  -3  -8  104.39    5.60
  -2  -3  -8  113.89    6.20
   2   3   8  111.99    5.80
  -2   3  -8  116.09    5.70
   2   3   8  114.49    5.80
  -2   3  -8  113.99    5.90
  -3  -3  -8    3.00    1.30
  -3  -3  -8    4.10    0.90
  -3  -3  -8    2.90    1.10
  -3  -3  -8    3.20    1.30
  -3   3  -8    3.60    1.20
  -3   3  -8    3.70    1.00
   3   3   8    4.00    1.00
  -4  -3  -8   26.50    2.10
  -4  -3  -8   25.40    2.30
  -4  -3  -8   22.90    2.20
  -4  -3  -8   28.40    2.60
   4  -3   8   25.90    2.40
  -4  -3  -8   24.80    2.00
  -4   3  -8   28.20    2.10
   4   3   8   25.70    1.90
  -4   3  -8   28.70    2.40
   5  -3   8   13.20    1.90
  -5  -3  -8   14.10    2.10
  -5  -3  -8   13.20    1.40
  -5  -3  -8   15.00    1.60
  -5  -3  -8   14.50    1.80
  -5   3  -8   14.20    1.90
  -5   3  -8    8.60    1.50
   5   3   8   11.80    1.40
   6  -3   8   50.29    3.10
  -6  -3  -8   47.20    2.70
  -6  -3  -8   48.80    2.80
  -6  -3  -8   46.80    3.10
  -6  -3  -8   45.80    2.90
  -6   3  -8   47.50    2.80
  -6   3  -8   46.60    3.00
  -7  -3  -8   -0.70    0.70
   7  -3   8    1.00    0.80
  -7  -3  -8    0.40    0.60
  -7   3  -8    0.80    0.70
  -7   3  -8    0.90    0.80
   8  -3   8   75.99    3.80
   8  -4  -8  106.59    5.20
  -7  -4   8   28.10    2.10
   7  -4  -8   25.40    1.80
  -7   4   8   24.20    1.70
  -7   4   8   27.40    1.70
   7   4  -8   22.50    1.70
  -6  -4   8    6.90    1.50
   6  -4  -8    5.40    1.10
  -6   4   8    3.90    0.90
  -6   4   8    4.20    1.10
   6   4  -8    4.90    0.90
   5  -4  -8  235.68   11.70
  -5  -4   8  263.07   12.10
   5  -4  -8  247.78   11.60
  -5   4   8  250.67   11.30
  -5   4   8  259.37   11.60
  -5   4   8  242.98   11.70
   4  -4  -8   27.80    2.20
   4  -4  -8   30.20    2.20
   4  -4  -8   26.90    2.50
  -4  -4   8   28.50    2.70
  -4   4   8   22.60    1.70
   4   4  -8   21.70    2.10
  -4   4   8   25.70    2.30
  -4   4   8   26.20    2.70
   3  -4  -8   33.00    2.60
   3  -4  -8   37.30    2.70
  -3  -4   8   32.80    3.00
   3  -4  -8   34.40    2.50
   3  -4  -8   35.30    2.90
   3  -4  -8   38.20    2.70
  -3   4   8   33.20    2.20
  -3   4   8   34.90    2.60
  -3   4   8   29.20    3.00
   3   4  -8   34.40    2.50
   3   4  -8   35.60    2.70
  -3   4   8   36.40    2.90
   2  -4  -8   73.69    4.10
   2  -4  -8   68.79    4.10
   2  -4  -8   61.59    4.10
   2  -4  -8   68.19    4.00
   2  -4  -8   70.39    4.30
  -2  -4   8   69.09    4.50
  -2   4   8   67.99    4.40
  -2   4   8   72.39    4.40
   2   4  -8   67.79    3.80
   2   4  -8   70.29    4.00
  -2   4   8   68.19    3.70
  -2   4   8   78.89    4.00
   1  -4  -8  123.49    6.50
   1  -4  -8  120.89    6.50
   1  -4  -8  126.39    6.50
   1  -4  -8  132.99    6.60
   1  -4  -8  127.29    6.70
  -1  -4   8  124.49    6.90
   1   4  -8  127.99    6.40
  -1   4   8  124.29    6.80
  -1   4   8  135.39    6.90
   1   4  -8  129.69    6.40
  -1   4   8  123.19    6.20
   0  -4   8   92.89    5.40
   0  -4  -8   89.49    5.20
   0  -4  -8   90.89    5.00
   0  -4  -8   91.19    5.00
   0  -4  -8   91.79    4.80
   0  -4  -8   88.29    5.00
   0  -4  -8   93.79    5.10
   0   4   8   94.69    5.20
   0   4  -8   95.29    4.90
   0   4   8  101.39    5.30
   0   4  -8   84.79    4.80
  -1  -4  -8   14.10    2.10
  -1  -4  -8   15.30    2.30
  -1  -4  -8   16.10    2.00
   1  -4   8   18.40    2.40
  -1  -4  -8   17.20    2.00
  -1  -4  -8   14.70    2.00
   1   4   8   16.30    1.90
  -1   4  -8   14.30    1.70
   1   4   8   18.60    1.90
  -2  -4  -8   29.70    2.50
  -2  -4  -8   31.60    2.40
  -2  -4  -8   33.80    2.50
   2  -4   8   31.50    2.80
  -2  -4  -8   30.70    2.50
  -2  -4  -8   31.50    2.80
   2   4   8   32.00    2.40
  -2   4  -8   31.40    2.30
   2   4   8   32.20    2.40
  -2   4  -8   33.90    2.60
  -3  -4  -8   64.69    3.90
  -3  -4  -8   70.59    4.30
  -3  -4  -8   75.99    3.90
  -3  -4  -8   69.89    4.00
  -3  -4  -8   65.69    3.70
   3  -4   8   62.09    4.10
  -3   4  -8   75.59    4.00
   3   4   8   66.99    3.80
  -3   4  -8   71.59    3.80
   3   4   8   63.29    4.50
  -4  -4  -8   65.99    3.80
   4  -4   8   65.39    4.10
  -4  -4  -8   71.09    4.10
  -4  -4  -8   72.59    3.80
  -4   4  -8   74.49    4.00
  -4   4  -8   66.29    3.70
  -5  -4  -8  123.59    6.30
  -5  -4  -8  126.19    6.10
   5  -4   8  136.59    6.50
  -5   4  -8  117.89    6.00
  -5   4  -8  134.49    6.40
   6  -4   8   19.40    1.80
  -6   4  -8   19.40    1.60
  -6  -5   8   16.00    1.30
   6  -5  -8   19.70    1.40
  -6   5   8   19.60    1.30
   6   5  -8   19.90    1.30
  -5  -5   8   63.79    3.50
   5  -5  -8   56.29    3.20
  -5   5   8   58.59    3.20
   5   5  -8   59.99    3.10
   4  -5  -8    5.30    1.40
   4  -5  -8    2.50    0.80
  -4  -5   8    2.10    1.20
   4  -5  -8    3.80    0.90
  -4   5   8    2.50    0.90
  -4   5   8    2.90    0.60
   4   5  -8    1.90    0.70
   3  -5  -8   24.10    2.00
   3  -5  -8   23.40    2.20
   3  -5  -8   21.30    1.70
  -3  -5   8   23.60    2.40
   3  -5  -8   25.10    1.90
   3   5  -8   23.30    1.90
  -3   5   8   19.50    2.30
  -3   5   8   23.20    1.60
   2  -5  -8    2.80    1.00
   2  -5  -8    3.00    0.90
   2  -5  -8    6.00    1.20
   2  -5  -8    3.70    1.00
  -2  -5   8    4.60    1.40
  -2   5   8    4.80    0.90
  -2   5   8    5.40    1.20
   2   5  -8    5.50    1.10
   2   5  -8    5.40    1.20
   1  -5  -8  128.19    6.20
   1  -5  -8  130.39    6.50
   1  -5  -8  121.19    6.30
   1  -5  -8  122.29    6.20
  -1  -5   8  129.09    6.70
   1  -5  -8  129.89    6.40
  -1   5   8  122.29    6.50
   1   5  -8  120.09    6.10
   1   5  -8  126.69    6.10
  -1   5   8  128.19    6.00
   0  -5  -8    0.60    1.10
   0  -5   8    1.10    1.10
   0  -5  -8    2.10    1.00
   0  -5  -8    1.30    1.00
   0  -5  -8    1.30    0.90
   0  -5  -8    4.30    1.20
   0   5   8    2.30    1.00
   0   5  -8    2.70    0.90
   0   5   8    1.30    0.70
  -1  -5  -8  218.48   10.50
   1  -5   8  217.28   10.70
  -1  -5  -8  227.28   10.40
  -1  -5  -8  219.58   10.30
  -1  -5  -8  219.38   10.30
  -1   5  -8  222.68   10.20
   1   5   8  216.78   10.50
  -2  -5  -8   24.40    1.90
   2  -5   8   25.20    2.30
  -2  -5  -8   21.50    1.90
  -2  -5  -8   21.90    1.90
  -2  -5  -8   24.00    2.20
  -2   5  -8   25.40    1.80
   2   5   8   23.00    2.00
  -3  -5  -8   74.99    3.90
  -3  -5  -8   70.99    4.00
  -3  -5  -8   77.99    4.20
   3  -5   8   82.69    4.30
  -3  -5  -8   78.99    4.00
  -3   5  -8   78.19    4.00
  -3   5  -8   80.19    3.90
  -4  -5  -8   43.30    2.50
  -4  -5  -8   36.70    2.30
   4  -5   8   46.60    2.70
  -4   5  -8   42.20    2.40
  -4   5  -8   37.40    2.20
   5  -5   8    2.20    0.70
  -5   5  -8    4.00    0.90
  -2  -6   8   29.00    2.20
   2  -6  -8   34.00    2.00
   2  -6  -8   31.00    2.00
  -2   6   8   29.10    1.60
   1  -6  -8   10.80    1.00
  -1  -6   8   10.00    1.20
   1  -6  -8    9.50    1.00
   1  -6  -8   11.70    1.10
  -1   6   8   11.80    0.90
   1   6  -8   11.00    1.20
   0  -6   8   52.19    2.90
   0  -6  -8   53.39    2.70
   0  -6  -8   48.60    2.70
   0  -6  -8   54.39    2.70
   0   6   8   55.89    3.00
   0   6  -8   51.19    2.60
   1  -6   8    6.70    1.20
  -1  -6  -8    4.90    0.90
  -1   6  -8    4.90    0.80
 -10   0   9    9.50    1.00
  10   0  -9    7.70    0.90
  -9   0   9  127.89    6.10
   9   0  -9  124.79    6.00
  -8   0   9   11.90    1.40
   8   0  -9   11.20    1.50
  -8   0   9    9.50    1.50
   7   0  -9   13.40    1.60
   7   0  -9   15.10    1.60
  -7   0   9    9.80    1.70
  -7   0   9   10.60    1.70
   6   0  -9  105.19    5.50
  -6   0   9  106.29    5.60
  -6   0   9  104.69    5.80
   6   0  -9  111.79    5.60
   5   0  -9   86.99    4.50
  -5   0   9   82.29    4.80
  -5   0   9   78.49    4.60
   5   0  -9   84.19    4.50
   4   0  -9  176.98    8.50
  -4   0   9  178.78    8.90
   4   0  -9  181.98    8.60
  -4   0   9  173.28    8.60
   3   0  -9  697.03   30.10
   3   0  -9  617.14   29.90
  -3   0   9  681.93   30.30
  -3   0   9  680.73   29.70
  -2   0   9  271.97   12.70
  -2   0   9  289.67   14.20
   2   0  -9  277.77   12.50
   2   0  -9  246.88   12.40
  -2   0   9  273.57   12.30
   2   0  -9  249.48   12.40
   1   0  -9  135.59    6.50
  -1   0   9  134.59    6.90
  -1   0   9  125.29    6.90
  -1   0   9  131.89    6.30
   1   0  -9  124.29    6.60
   1   0  -9  139.19    6.60
   0   0  -9  333.57   15.70
   0   0   9  363.46   16.20
   0   0  -9  339.37   15.70
   0   0   9  329.87   15.60
   0   0  -9  335.57   15.80
   0   0   9  357.06   16.20
   0   0  -9  333.47   15.90
   0   0  -9  363.66   16.00
  -1   0  -9    8.30    1.30
   1   0   9    6.40    1.10
  -1   0  -9    7.50    1.60
   1   0   9    5.90    2.50
  -1   0  -9    6.90    2.10
  -1   0  -9    5.90    1.30
  -1   0  -9    7.50    1.20
   1   0   9    6.50    1.40
  -1   0  -9    5.50    1.20
   1   0   9    2.90    2.90
   2   0   9    6.60    1.40
  -2   0  -9    7.70    1.60
  -2   0  -9    7.80    1.30
  -2   0  -9    8.30    1.30
  -2   0  -9    8.80    1.50
  -2   0  -9    6.80    1.40
   3   0   9   26.50    2.20
  -3   0  -9   25.70    2.00
  -3   0  -9   28.50    2.20
  -3   0  -9   25.40    2.00
  -3   0  -9   28.80    2.60
  -3   0  -9   26.00    2.10
  -4   0  -9  329.87   15.20
  -4   0  -9  331.07   15.40
  -4   0  -9  317.17   15.10
  -4   0  -9  330.07   15.20
  -4   0  -9  329.17   15.00
   4   0   9  332.97   15.40
  -5   0  -9   53.39    3.20
   5   0   9   48.90    3.20
  -5   0  -9   53.29    3.20
  -5   0  -9   51.19    3.50
  -5   0  -9   52.19    3.00
  -5   0  -9   49.99    3.20
  -6   0  -9   21.00    2.30
  -6   0  -9   22.80    1.90
  -6   0  -9   21.80    2.00
   6   0   9   17.90    1.90
  -6   0  -9   22.40    1.80
  -7   0  -9    8.80    1.40
  -7   0  -9   10.00    1.70
  -7   0  -9   10.20    1.30
  -7   0  -9    9.00    1.30
  -8   0  -9  170.28    7.60
  -8   0  -9  149.09    7.70
  -8   0  -9  174.38    7.70
  -8   0  -9  169.08    7.70
  -9  -1   9   49.40    2.80
   9  -1  -9   55.09    2.80
  -9   1   9   52.49    2.80
  -9   1   9   48.10    2.80
   9   1  -9   53.49    2.80
  -8  -1   9   42.50    2.80
   8  -1  -9   45.80    2.80
   8   1  -9   47.90    2.80
  -8   1   9   46.40    2.80
  -8   1   9   48.20    2.90
   7  -1  -9  103.39    5.30
  -7  -1   9   99.79    5.50
   7  -1  -9   89.29    5.20
  -7   1   9  111.39    5.40
  -7   1   9  113.89    5.60
   7   1  -9  108.49    5.30
  -6  -1   9  185.18    9.40
   6  -1  -9  191.68    9.20
   6  -1  -9  186.68    9.10
  -6   1   9  196.88    9.40
   6   1  -9  192.98    9.10
  -6   1   9  195.48    9.30
   5  -1  -9   55.59    3.30
  -5  -1   9   56.99    3.70
   5  -1  -9   57.19    3.40
   5   1  -9   53.69    3.30
  -5   1   9   51.29    3.40
  -5   1   9   55.89    3.50
   4  -1  -9   15.70    1.70
   4  -1  -9   14.80    1.60
  -4  -1   9   21.10    2.20
  -4   1   9   16.90    1.50
  -4   1   9   15.60    1.80
  -4   1   9   15.20    2.00
   4   1  -9   15.50    1.70
  -3  -1   9   16.30    2.00
   3  -1  -9   13.60    1.70
   3  -1  -9   12.10    2.40
   3  -1  -9   13.40    1.80
   3  -1  -9   15.20    1.70
  -3   1   9    9.30    2.30
   3   1  -9   12.70    1.70
  -3   1   9   13.30    1.50
  -3   1   9   13.30    1.70
   2  -1  -9  227.48   10.70
  -2  -1   9  233.48   10.90
   2  -1  -9  219.98   10.60
   2  -1  -9  229.68   10.70
  -2  -1   9  210.88   10.30
   2  -1  -9  245.08   11.40
  -2   1   9  233.28   10.50
   2   1  -9  212.88   10.50
  -2   1   9  220.48   10.80
  -2   1   9  230.28   11.10
   2   1  -9  232.98   10.70
  -2   1   9  221.18   11.10
  -1  -1   9   87.69    4.30
   1  -1  -9   81.69    4.90
   1  -1  -9   86.39    4.60
   1  -1  -9   82.39    4.60
   1  -1  -9   83.19    4.70
   1  -1  -9   87.79    4.60
  -1   1   9   92.09    5.00
  -1   1   9   94.19    5.00
  -1   1   9   87.19    4.40
   1   1  -9   88.79    4.60
   1   1  -9   88.79    4.60
   0  -1  -9    9.70    1.60
   0  -1  -9    8.00    1.50
   0  -1  -9   10.00    1.50
   0  -1   9   10.80    1.30
   0  -1  -9    8.70    1.60
   0  -1  -9    9.20    1.50
   0  -1  -9   10.50    1.90
   0  -1   9    9.50    1.90
   0   1  -9    9.50    1.50
   0   1   9   11.20    1.60
   0   1  -9   11.00    1.60
   0   1  -9   10.80    1.50
   0   1   9   11.20    1.50
   0   1   9    4.50    2.10
   0   1   9    9.60    1.20
  -1  -1  -9   57.39    3.40
  -1  -1  -9   53.29    3.30
  -1  -1  -9   55.49    3.30
  -1  -1  -9   55.39    3.60
   1  -1   9   49.99    3.80
  -1  -1  -9   49.99    3.20
   1  -1   9   55.39    3.00
  -1  -1  -9   53.19    3.10
   1  -1   9   54.69    3.60
   1   1   9   58.09    3.50
   1   1   9   72.59    7.50
   1   1   9   51.49    3.00
  -1   1  -9   55.09    3.20
  -1   1  -9   51.99    3.50
  -1   1  -9   57.49    3.30
  -2  -1  -9   11.30    1.60
  -2  -1  -9   10.00    2.00
  -2  -1  -9   10.10    1.50
  -2  -1  -9   10.90    1.60
   2  -1   9    8.20    1.70
  -2  -1  -9   10.90    1.50
   2  -1   9   12.10    1.20
  -2   1  -9   11.20    1.60
  -2   1  -9   10.30    1.90
  -2   1  -9   10.20    1.70
   2   1   9    9.30    1.50
  -3  -1  -9  107.99    5.40
   3  -1   9   96.99    5.60
  -3  -1  -9  101.99    5.30
  -3  -1  -9  104.59    5.50
  -3  -1  -9  100.29    5.40
  -3  -1  -9  103.59    5.70
  -3   1  -9  106.89    5.60
   3   1   9  109.89    5.60
  -3   1  -9   98.19    5.20
  -3   1  -9  101.89    5.30
  -3   1  -9  101.89    5.40
  -3   1  -9  106.29    5.40
  -4  -1  -9  207.98   10.00
   4  -1   9  191.18    9.80
  -4  -1  -9  198.78    9.50
   4  -1   9  175.68   10.30
  -4  -1  -9  208.48    9.60
  -4  -1  -9  202.18    9.60
  -4  -1  -9  205.08    9.70
  -4   1  -9  198.78    9.50
  -4   1  -9  208.18    9.90
   4   1   9  209.48    9.80
  -4   1  -9  199.28    9.40
  -4   1  -9  197.68    9.60
  -4   1  -9  207.18    9.60
  -5  -1  -9   13.50    1.60
   5  -1   9   15.40    1.90
  -5  -1  -9   13.60    1.80
  -5  -1  -9   13.60    1.80
   5  -1   9   10.20    1.70
  -5  -1  -9   13.70    1.60
  -5  -1  -9   15.10    2.10
  -5   1  -9   14.70    1.50
  -5   1  -9   13.90    1.80
  -5   1  -9   11.00    2.00
   5   1   9   12.70    1.50
  -5   1  -9   13.20    1.70
  -5   1  -9   14.00    1.60
  -6  -1  -9    9.90    1.60
   6  -1   9   11.30    1.70
  -6  -1  -9   10.80    1.40
  -6  -1  -9   11.10    1.40
  -6  -1  -9   11.30    2.00
  -6   1  -9   11.40    1.40
  -6   1  -9   10.90    1.40
  -6   1  -9   12.10    1.80
   6   1   9   10.30    1.40
  -6   1  -9   12.20    1.70
   7  -1   9   12.70    1.60
  -7  -1  -9   11.00    1.40
  -7  -1  -9   13.50    1.30
  -7  -1  -9    8.20    1.70
  -7  -1  -9   12.30    1.30
  -7   1  -9   11.30    1.30
  -7   1  -9    9.00    1.40
  -7   1  -9   10.40    1.20
  -7   1  -9    8.20    1.60
  -8  -1  -9    6.30    1.00
   8  -1   9    4.60    1.10
  -8  -1  -9    8.40    0.90
  -8  -1  -9    6.40    1.00
  -8   1  -9    6.60    1.00
  -8   1  -9    6.80    1.00
  -8   1  -9    5.10    0.90
  -8   1  -9    3.70    0.80
  -9  -2   9   14.20    1.10
   9  -2  -9   16.00    1.30
  -9   2   9   17.20    1.30
   9   2  -9   17.30    1.30
   8  -2  -9   55.39    2.90
  -8  -2   9   46.20    2.90
  -8   2   9   49.90    2.90
   7  -2  -9   35.00    2.30
  -7  -2   9   35.10    2.50
  -7   2   9   27.70    2.10
   7   2  -9   35.10    2.30
  -7   2   9   33.30    2.40
   6  -2  -9   61.09    3.60
  -6  -2   9   66.69    3.90
   6  -2  -9   63.39    3.70
   6   2  -9   66.99    3.70
  -6   2   9   58.79    3.70
  -6   2   9   67.39    3.80
   5  -2  -9    3.50    1.10
   5  -2  -9    2.30    1.10
  -5  -2   9    2.60    1.10
   5   2  -9    3.00    1.10
  -5   2   9    1.30    0.90
  -5   2   9    0.80    1.00
  -5   2   9    4.40    1.10
   4  -2  -9  251.97   11.80
   4  -2  -9  245.28   11.80
   4  -2  -9  265.37   11.90
  -4  -2   9  254.17   12.00
  -4   2   9  256.17   11.60
  -4   2   9  234.88   11.90
   4   2  -9  248.68   11.80
  -4   2   9  251.07   11.90
   3  -2  -9   17.20    1.90
   3  -2  -9   16.80    2.00
   3  -2  -9   20.80    2.10
   3  -2  -9   19.70    1.90
  -3  -2   9   17.30    2.00
  -3   2   9   17.00    2.30
  -3   2   9   18.50    2.00
   3   2  -9   18.70    1.90
  -3   2   9   16.80    1.70
   2  -2  -9  284.07   14.00
   2  -2  -9  277.67   13.60
   2  -2  -9  309.07   13.90
   2  -2  -9  299.97   13.80
  -2  -2   9  289.17   13.90
   2  -2  -9  313.97   13.90
   2  -2  -9  306.27   13.90
  -2   2   9  306.27   14.30
   2   2  -9  280.97   13.60
  -2   2   9  290.07   13.90
  -2   2   9  290.57   13.60
   2   2  -9  310.07   13.80
  -2   2   9  302.47   14.30
   1  -2  -9  141.09    6.60
   1  -2  -9  132.99    6.50
  -1  -2   9  122.89    6.60
   1  -2  -9  122.99    6.60
   1  -2  -9  126.29    6.50
   1  -2  -9  124.79    6.50
   1   2  -9  135.99    6.50
   1   2  -9  130.09    6.40
  -1   2   9  135.59    6.90
  -1   2   9  125.49    6.20
  -1   2   9  115.59    6.70
   0  -2  -9  430.86   18.50
   0  -2  -9  416.86   18.50
   0  -2   9  395.66   18.70
   0  -2  -9  395.86   18.60
   0  -2  -9  412.46   18.50
   0  -2  -9  420.16   18.40
   0  -2  -9  405.66   18.40
   0   2  -9  374.96   18.30
   0   2  -9  419.76   18.40
   0   2   9  358.16   18.60
   0   2   9  381.46   18.20
   0   2   9  423.86   18.80
  -1  -2  -9    9.80    1.60
  -1  -2  -9   11.10    1.60
   1  -2   9    9.60    2.00
  -1  -2  -9   10.40    1.80
  -1  -2  -9   10.30    1.70
  -1  -2  -9    9.30    1.70
  -1  -2  -9   10.40    2.00
   1  -2   9   12.40    1.20
  -1   2  -9   13.10    1.80
  -1   2  -9    9.30    1.40
   1   2   9    8.90    1.50
   1   2   9    8.60    1.50
  -2  -2  -9   66.99    3.90
   2  -2   9   65.69    3.40
  -2  -2  -9   63.99    3.80
  -2  -2  -9   60.39    4.10
   2  -2   9   62.19    4.00
  -2  -2  -9   69.39    3.70
  -2  -2  -9   69.69    4.00
  -2   2  -9   65.59    3.90
  -2   2  -9   62.79    3.70
   2   2   9   66.49    3.90
  -2   2  -9   69.29    3.80
  -3  -2  -9   13.50    1.70
  -3  -2  -9   12.50    1.70
   3  -2   9   10.80    1.20
  -3  -2  -9    9.30    1.60
   3  -2   9    9.60    1.90
  -3  -2  -9    8.10    1.50
  -3  -2  -9    8.60    1.90
  -3   2  -9   10.20    1.70
  -3   2  -9   10.40    1.60
   3   2   9    9.00    1.50
  -3   2  -9    9.40    1.60
  -4  -2  -9   14.00    1.90
  -4  -2  -9   16.90    1.70
   4  -2   9   18.00    1.40
  -4  -2  -9   17.50    2.00
  -4  -2  -9   12.90    2.20
   4  -2   9   17.00    2.10
  -4  -2  -9   18.20    1.70
  -4   2  -9   17.30    2.00
   4   2   9   17.20    1.70
  -4   2  -9   17.80    1.70
  -4   2  -9   13.10    1.80
  -5  -2  -9   60.49    3.20
  -5  -2  -9   53.39    3.20
  -5  -2  -9   53.19    3.30
   5  -2   9   58.69    3.60
  -5  -2  -9   55.89    3.30
  -5  -2  -9   57.69    3.60
  -5   2  -9   58.89    3.20
   5   2   9   54.69    3.30
  -5   2  -9   48.40    3.40
  -5   2  -9   56.89    3.20
  -6  -2  -9   43.40    2.80
  -6  -2  -9   40.10    2.70
   6  -2   9   41.20    2.20
  -6  -2  -9   42.40    2.50
   6  -2   9   40.60    2.90
  -6  -2  -9   43.70    2.50
  -6   2  -9   40.50    2.50
  -6   2  -9   37.50    2.80
   7  -2   9  113.99    5.40
  -7  -2  -9  121.99    5.60
  -7  -2  -9  109.49    5.70
   7  -2   9  118.39    5.80
  -7  -2  -9  124.39    5.70
  -7  -2  -9  114.99    5.60
  -7   2  -9  119.49    5.60
  -7   2  -9  119.19    5.80
  -8  -2  -9    7.10    1.10
   8  -3  -9    1.70    0.60
  -8   3   9    1.50    0.60
   7  -3  -9    1.70    0.80
   7   3  -9    1.40    0.70
  -7   3   9    1.20    0.70
   6  -3  -9   68.59    3.80
  -6  -3   9   69.79    4.10
   6  -3  -9   68.99    3.80
  -6   3   9   74.49    4.00
   6   3  -9   72.29    3.90
  -6   3   9   71.19    3.90
   5  -3  -9   83.49    4.50
   5  -3  -9   80.49    4.40
  -5  -3   9   83.49    4.80
  -5   3   9   77.39    4.00
  -5   3   9   84.69    4.50
   5   3  -9   83.39    4.40
   4  -3  -9   31.10    2.50
  -4  -3   9   27.80    2.80
   4  -3  -9   30.60    2.30
   4  -3  -9   28.80    2.30
   4   3  -9   24.80    2.20
  -4   3   9   26.20    1.90
  -4   3   9   29.80    2.40
   3  -3  -9   88.69    4.70
   3  -3  -9   87.09    4.60
  -3  -3   9   87.39    5.10
   3  -3  -9   79.99    4.90
   3  -3  -9   89.99    4.80
   3  -3  -9   84.19    4.70
  -3   3   9   76.09    5.10
  -3   3   9   84.69    4.40
  -3   3   9   88.19    5.10
   3   3  -9   90.09    4.70
  -2  -3   9   54.79    3.90
   2  -3  -9   58.99    3.60
   2  -3  -9   59.89    3.50
   2  -3  -9   58.29    3.80
   2  -3  -9   56.19    3.60
   2  -3  -9   59.19    3.60
  -2   3   9   54.39    3.90
   2   3  -9   62.29    3.50
  -2   3   9   57.59    3.30
  -2   3   9   59.79    3.90
   2   3  -9   55.69    3.30
   1  -3  -9  384.46   17.50
   1  -3  -9  382.56   17.50
   1  -3  -9  386.26   17.50
   1  -3  -9  388.06   17.90
   1  -3  -9  383.86   17.40
   1  -3  -9  384.96   17.70
  -1  -3   9  362.36   17.80
   1   3  -9  375.36   17.40
   1   3  -9  377.36   17.30
  -1   3   9  378.66   17.20
  -1   3   9  371.56   17.80
  -1   3   9  378.76   17.80
   0  -3  -9  295.17   13.50
   0  -3  -9  298.87   13.90
   0  -3  -9  300.67   13.70
   0  -3   9  295.47   14.00
   0  -3  -9  298.27   13.70
   0  -3  -9  276.87   13.60
   0   3   9  292.67   13.90
   0   3  -9  270.87   13.40
   0   3   9  306.97   14.00
   0   3   9  276.57   13.90
   0   3  -9  297.17   13.50
   1  -3   9   96.79    5.60
  -1  -3  -9   94.89    5.20
  -1  -3  -9   93.69    5.40
  -1  -3  -9   97.69    5.30
  -1  -3  -9  101.49    5.30
  -1  -3  -9   98.69    5.20
   1   3   9   97.79    5.30
   1   3   9   97.99    5.30
  -1   3  -9   94.79    5.10
   2  -3   9   89.69    5.00
  -2  -3  -9   83.49    4.70
  -2  -3  -9   76.89    4.80
  -2  -3  -9   79.09    4.60
  -2  -3  -9   88.69    4.50
  -2  -3  -9   87.19    4.70
   2   3   9   85.59    4.70
  -2   3  -9   85.39    4.70
  -2   3  -9   82.49    4.50
   2   3   9   82.19    4.60
  -3  -3  -9  221.78   10.80
  -3  -3  -9  218.58   11.10
  -3  -3  -9  238.78   11.00
  -3  -3  -9  232.28   10.70
   3  -3   9  234.78   11.10
   3   3   9  220.28   10.90
   3   3   9  222.28   10.90
  -3   3  -9  241.88   10.80
  -3   3  -9  239.98   11.00
  -4  -3  -9   13.90    1.60
  -4  -3  -9   10.30    1.90
  -4  -3  -9   12.90    1.70
   4  -3   9   12.20    1.90
  -4  -3  -9    9.60    1.60
  -4  -3  -9    9.90    1.40
   4   3   9    9.60    1.40
   4   3   9    8.80    1.50
  -4   3  -9    8.70    1.50
  -4   3  -9   12.40    1.70
   5  -3   9   38.70    2.60
  -5  -3  -9   36.40    2.60
  -5  -3  -9   35.80    2.20
  -5  -3  -9   35.30    2.40
   5   3   9   26.60    2.20
  -5   3  -9   36.80    2.50
  -5   3  -9   32.90    2.20
   6  -3   9   12.00    1.60
  -6  -3  -9   10.40    1.20
  -6  -3  -9    7.70    1.20
  -6  -3  -9    7.90    1.40
  -6   3  -9    9.60    1.50
   7  -3   9   13.00    1.20
  -7   3  -9   14.50    1.40
  -7   4   9    7.20    0.90
   7   4  -9    4.90    0.60
   6  -4  -9    5.10    1.20
  -6  -4   9    7.80    1.40
  -6   4   9    2.20    0.70
   6   4  -9    4.30    1.00
  -5  -4   9   10.60    1.80
   5  -4  -9   13.50    1.50
   5  -4  -9   10.70    1.40
   5   4  -9   10.90    1.30
  -5   4   9   10.60    1.50
  -5   4   9    6.70    1.20
  -5   4   9   10.90    1.50
   4  -4  -9    8.10    1.40
  -4  -4   9    7.30    1.50
   4  -4  -9    9.60    1.50
  -4   4   9    6.20    0.90
  -4   4   9    4.20    1.00
   4   4  -9    3.80    0.90
   3  -4  -9  161.88    7.80
   3  -4  -9  158.08    7.60
   3  -4  -9  165.38    7.80
   3  -4  -9  156.68    7.80
   3  -4  -9  169.48    7.80
  -3  -4   9  165.98    8.10
  -3   4   9  139.79    7.40
   3   4  -9  160.58    7.70
  -3   4   9  163.98    7.70
  -3   4   9  147.49    8.00
   2  -4  -9   46.40    3.20
   2  -4  -9   39.20    2.90
  -2  -4   9   44.80    3.30
   2  -4  -9   46.20    2.90
   2  -4  -9   42.60    2.80
   2  -4  -9   36.00    2.80
   2   4  -9   42.30    2.70
  -2   4   9   44.00    2.80
  -2   4   9   42.60    3.10
  -2   4   9   44.30    2.60
   2   4  -9   41.50    2.60
  -2   4   9   36.60    3.20
   1  -4  -9   63.79    3.70
   1  -4  -9   66.29    3.70
   1  -4  -9   64.99    4.00
   1  -4  -9   56.19    3.60
  -1  -4   9   66.99    4.20
   1  -4  -9   53.59    3.60
  -1   4   9   56.79    3.90
  -1   4   9   64.29    3.40
  -1   4   9   62.19    3.90
   1   4  -9   65.19    3.50
   1   4  -9   59.69    3.50
   0  -4  -9   77.59    4.40
   0  -4  -9   80.69    4.70
   0  -4   9   83.69    4.80
   0  -4  -9   69.79    4.30
   0  -4  -9   81.49    4.50
   0   4   9   79.79    4.10
   0   4   9   74.09    4.60
   0   4  -9   84.69    4.30
   0   4   9   81.19    4.60
  -1  -4  -9  235.18   10.40
  -1  -4  -9  206.08   10.50
  -1  -4  -9  225.98   10.20
  -1  -4  -9  193.88   10.30
  -1  -4  -9  221.78   10.30
   1  -4   9  240.88   10.70
   1   4   9  233.38   10.60
  -1   4  -9  195.28   10.20
   1   4   9  208.48   10.50
  -2  -4  -9   17.10    2.30
   2  -4   9   20.90    2.30
  -2  -4  -9   19.00    1.90
  -2  -4  -9   21.10    1.90
  -2  -4  -9   18.50    2.00
  -2  -4  -9   22.70    1.90
   2   4   9   19.50    1.90
  -2   4  -9   19.60    1.70
  -2   4  -9   21.50    2.00
   3  -4   9   63.29    3.80
  -3  -4  -9   60.79    3.50
  -3  -4  -9   62.19    3.80
  -3  -4  -9   58.99    3.30
  -3  -4  -9   63.29    3.50
   3   4   9   58.99    3.50
  -3   4  -9   61.49    3.50
  -3   4  -9   61.49    3.30
  -4  -4  -9   63.29    3.50
  -4  -4  -9   59.19    3.60
  -4  -4  -9   65.69    3.40
   4  -4   9   67.69    3.80
  -4  -4  -9   62.39    3.70
  -4   4  -9   61.99    3.30
  -4   4  -9   66.99    3.50
   5  -4   9   47.40    2.80
  -5  -4  -9   39.80    2.50
  -5  -4  -9   45.50    2.80
  -5   4  -9   50.79    2.60
   5  -5  -9    6.70    0.90
  -5  -5   9    4.10    0.90
   5   5  -9    6.70    0.90
  -5   5   9    6.90    1.00
  -4  -5   9   20.40    1.80
   4  -5  -9   16.60    1.40
   4  -5  -9   20.50    1.50
   4   5  -9   21.40    1.40
  -4   5   9   21.00    1.60
  -4   5   9   19.30    1.20
   3  -5  -9   14.90    1.40
   3  -5  -9   14.90    1.50
   3  -5  -9   14.30    1.40
  -3  -5   9   15.50    1.80
   3   5  -9   15.20    1.30
  -3   5   9   14.70    1.50
  -3   5   9   14.80    1.10
   2  -5  -9  142.09    6.70
   2  -5  -9  127.39    6.60
   2  -5  -9  136.99    6.70
  -2  -5   9  151.68    7.00
   2   5  -9  135.99    6.50
  -2   5   9  145.69    6.40
   2   5  -9  129.99    6.40
   1  -5  -9   41.80    2.70
   1  -5  -9   44.80    2.60
  -1  -5   9   46.40    2.90
   1  -5  -9   42.20    2.60
   1  -5  -9   42.90    2.50
  -1   5   9   44.30    2.30
   1   5  -9   39.40    2.40
   1   5  -9   42.70    2.40
   0  -5  -9    5.10    1.20
   0  -5   9    5.00    1.10
   0  -5  -9    5.10    1.00
   0  -5  -9    5.50    1.00
   0  -5  -9    8.70    1.50
   0   5  -9    5.20    1.10
   0   5   9    5.00    0.90
  -1  -5  -9   66.29    3.70
  -1  -5  -9   67.39    3.60
  -1  -5  -9   60.69    3.50
  -1  -5  -9   66.29    3.50
   1  -5   9   70.39    3.80
  -1   5  -9   73.89    3.50
   1   5   9   62.59    3.30
   2  -5   9   25.90    2.00
  -2  -5  -9   21.40    1.70
  -2  -5  -9   23.20    1.60
  -2  -5  -9   22.70    1.70
  -2  -5  -9   24.90    1.90
  -2   5  -9   25.20    1.60
  -3  -5  -9   51.89    2.90
  -3  -5  -9   52.99    2.80
   3  -5   9   56.49    3.10
  -3   5  -9   59.19    2.90
  -9   0  10    0.70    0.50
   9   0 -10   -0.10    0.50
   8   0 -10    0.50    0.60
  -8   0  10   -0.70    0.70
   7   0 -10   44.60    2.60
  -7   0  10   37.10    2.70
   7   0 -10   41.20    2.50
   6   0 -10   65.69    3.60
  -6   0  10   55.59    3.70
  -6   0  10   60.09    3.50
   6   0 -10   67.69    3.50
   5   0 -10  141.89    6.80
   5   0 -10  139.39    6.80
  -5   0  10  134.89    7.10
  -5   0  10  134.19    6.90
   4   0 -10  397.16   17.50
  -4   0  10  380.56   17.70
   4   0 -10  367.06   17.30
  -4   0  10  377.46   17.40
  -3   0  10   10.10    1.80
   3   0 -10    8.20    1.50
  -3   0  10    6.80    1.20
   2   0 -10   15.90    1.70
   2   0 -10   15.90    1.80
   2   0 -10   13.50    2.00
  -2   0  10   17.30    1.50
  -2   0  10   13.20    2.00
   1   0 -10  479.25   21.40
   1   0 -10  465.95   21.30
   1   0 -10  461.45   21.40
  -1   0  10  486.95   21.20
  -1   0  10  460.45   21.70
   0   0  10  143.59    7.70
   0   0 -10  149.19    7.50
   0   0  10  153.08    7.70
   0   0 -10  146.99    7.30
   0   0 -10  155.58    7.40
   0   0 -10  140.69    7.50
   0   0 -10  146.29    7.20
   0   0  10  150.28    7.10
  -1   0 -10   33.50    2.80
   1   0  10   36.30    2.20
  -1   0 -10   37.00    2.50
  -1   0 -10   38.70    2.60
   1   0  10   36.80    2.80
  -1   0 -10   32.60    2.50
  -1   0 -10   33.80    2.60
   1   0  10   37.10    2.80
   2   0  10   34.00    2.20
  -2   0 -10   34.50    2.50
   2   0  10   32.30    2.70
  -2   0 -10   32.60    2.40
  -2   0 -10   33.60    2.50
   2   0  10   34.50    2.70
  -2   0 -10   32.40    2.40
  -2   0 -10   33.70    2.70
  -3   0 -10   48.60    3.10
   3   0  10   49.40    3.40
  -3   0 -10   49.30    3.50
  -3   0 -10   49.60    3.20
  -3   0 -10   50.39    3.10
  -3   0 -10   49.99    3.00
  -4   0 -10  201.18    9.20
  -4   0 -10  190.98    9.30
   4   0  10  184.58    9.50
  -4   0 -10  174.88    9.50
  -4   0 -10  202.88    9.10
  -4   0 -10  208.88    9.30
  -5   0 -10  151.08    7.60
  -5   0 -10  169.28    7.60
   5   0  10  149.09    8.30
  -5   0 -10  164.18    7.70
  -5   0 -10  150.78    7.90
  -5   0 -10  163.78    7.50
  -6   0 -10   94.79    4.70
  -6   0 -10   90.49    4.70
  -6   0 -10   92.89    4.60
  -6   0 -10   93.49    5.00
  -7   0 -10  147.09    6.80
  -7   0 -10  146.99    6.70
  -7   0 -10  138.09    6.90
  -7   0 -10  142.79    6.60
  -9  -1  10   15.40    1.10
   9  -1 -10   17.30    1.20
   9   1 -10   16.00    1.10
   8  -1 -10   89.79    4.20
  -8  -1  10   80.79    4.30
  -8   1  10   80.59    4.30
   8   1 -10   88.49    4.20
  -8   1  10   82.39    4.20
   7  -1 -10  108.89    5.60
   7  -1 -10  115.79    5.70
  -7  -1  10  112.69    5.90
  -7   1  10  121.29    5.90
  -7   1  10  114.89    5.70
   7   1 -10  119.99    5.70
   7   1 -10  114.79    5.60
  -6  -1  10   18.60    2.00
   6  -1 -10   22.20    1.90
   6  -1 -10   21.40    1.90
  -6   1  10   22.20    2.00
   6   1 -10   20.70    1.80
  -6   1  10   19.10    2.00
   5  -1 -10   82.79    4.50
  -5  -1  10   80.69    4.70
   5  -1 -10   87.09    4.40
  -5   1  10   78.99    4.60
   5   1 -10   80.99    4.40
  -5   1  10   82.99    4.60
   4  -1 -10  134.09    6.70
   4  -1 -10  132.09    6.80
  -4  -1  10  141.59    7.10
  -4   1  10  142.89    6.90
  -4   1  10  137.69    7.00
  -4   1  10  127.29    6.50
  -3  -1  10  430.16   19.60
   3  -1 -10  389.66   19.30
   3  -1 -10  412.16   19.20
   3  -1 -10  436.16   19.40
  -3   1  10  441.86   19.10
   3   1 -10  431.66   19.40
  -3   1  10  428.06   19.60
   2  -1 -10  136.29    6.90
   2  -1 -10  144.49    7.00
   2  -1 -10  143.29    7.00
  -2  -1  10  142.99    7.20
   2   1 -10  138.49    6.90
   2   1 -10  134.19    6.80
  -2   1  10  132.19    7.30
  -2   1  10  138.69    7.10
  -2   1  10  143.69    6.80
   1  -1 -10    4.00    1.00
   1  -1 -10    4.30    1.10
  -1  -1  10    9.00    1.60
   1  -1 -10    5.40    1.20
   1  -1 -10    4.30    1.20
   1  -1 -10    3.60    1.00
  -1  -1  10    6.10    1.10
  -1   1  10    7.40    1.70
   1   1 -10    3.30    1.00
  -1   1  10    5.20    1.20
   1   1 -10    4.00    1.10
  -1   1  10    5.70    1.30
   0  -1 -10   98.69    5.30
   0  -1 -10  102.19    5.30
   0  -1  10  100.79    4.90
   0  -1 -10  100.99    5.30
   0  -1 -10   97.39    5.20
   0  -1 -10   97.69    5.50
   0  -1 -10   99.49    5.20
   0   1  10  101.59    5.60
   0   1  10  100.89    5.60
   0   1  10   94.19    4.90
   0   1 -10  103.09    5.20
   0   1 -10   91.19    5.10
   1  -1  10   91.49    4.50
   1  -1  10   83.69    5.60
  -1  -1 -10   93.89    4.90
  -1  -1 -10   87.89    5.00
  -1  -1 -10   92.19    4.70
  -1  -1 -10   85.39    4.80
  -1  -1 -10   87.69    4.80
  -1  -1 -10   90.19    4.80
  -1   1 -10   90.09    4.90
   1   1  10   85.89    4.50
  -1   1 -10   91.39    4.90
   1   1  10   81.89    5.00
   1   1  10   92.09    5.10
  -1   1 -10   89.89    4.70
  -2  -1 -10   68.09    3.80
  -2  -1 -10   65.99    3.80
   2  -1  10   63.79    3.40
  -2  -1 -10   64.59    4.10
  -2  -1 -10   68.09    3.90
  -2  -1 -10   68.99    3.80
   2  -1  10   64.99    4.10
  -2   1 -10   67.69    3.80
   2   1  10   63.69    4.00
  -2   1 -10   67.09    3.90
   2   1  10   64.09    3.50
   2   1  10   64.59    4.00
  -2   1 -10   63.69    4.00
  -3  -1 -10    3.40    1.10
  -3  -1 -10    3.60    1.20
  -3  -1 -10    4.60    1.40
  -3  -1 -10    5.20    1.30
  -3  -1 -10    5.00    1.00
   3  -1  10    3.90    1.30
   3  -1  10    4.50    1.00
  -3   1 -10    5.20    1.40
   3   1  10    4.70    0.90
   3   1  10    3.90    1.20
  -3   1 -10    4.10    1.20
  -3   1 -10    2.80    1.00
  -3   1 -10    7.10    1.50
  -4  -1 -10   10.20    1.70
  -4  -1 -10    9.00    1.90
  -4  -1 -10    9.60    1.50
  -4  -1 -10   11.20    1.70
   4  -1  10    9.20    1.10
  -4  -1 -10   11.90    1.60
  -4   1 -10   13.00    1.60
  -4   1 -10    9.70    1.60
  -4   1 -10   10.90    1.90
   4   1  10   10.30    1.70
  -4   1 -10   11.80    1.60
  -4   1 -10   14.00    1.70
  -5  -1 -10   84.99    4.50
  -5  -1 -10   85.29    4.90
  -5  -1 -10   83.39    4.50
  -5  -1 -10   87.69    4.60
  -5  -1 -10   88.19    4.40
  -5   1 -10   83.79    4.80
  -5   1 -10   90.69    4.60
  -5   1 -10   84.79    4.30
  -5   1 -10   88.29    4.50
  -5   1 -10   91.69    4.50
  -6  -1 -10   14.80    1.90
  -6  -1 -10   15.20    1.50
  -6  -1 -10   14.80    1.50
   6  -1  10   15.40    1.20
  -6  -1 -10   15.60    1.70
  -6   1 -10   15.10    1.40
  -6   1 -10   15.30    1.50
  -6   1 -10   16.20    1.50
  -6   1 -10   16.00    1.90
  -7  -1 -10    0.30    0.50
  -7  -1 -10    0.60    0.50
  -7  -1 -10    2.00    0.70
  -7  -1 -10   -0.20    0.70
   7  -1  10    0.10    0.40
  -7   1 -10    0.80    0.70
   7   1  10   -0.10    0.40
  -7   1 -10   -0.10    0.50
  -7   1 -10    0.40    0.70
   8  -2 -10   14.70    1.20
  -8  -2  10   12.10    1.10
   8   2 -10   13.70    1.20
  -8   2  10   13.20    1.20
   7  -2 -10   10.50    1.20
  -7  -2  10    7.80    1.30
   7   2 -10    8.50    1.20
  -7   2  10    8.50    1.40
   6  -2 -10  104.89    5.10
  -6  -2  10   97.49    5.20
   6  -2 -10   98.19    5.00
  -6   2  10   95.59    5.10
   6   2 -10   97.49    5.00
  -6   2  10  103.39    5.20
  -5  -2  10   31.90    2.40
   5  -2 -10   32.40    2.30
  -5   2  10   27.30    2.40
  -5   2  10   30.50    2.40
   4  -2 -10   96.79    4.80
   4  -2 -10   88.59    4.60
  -4  -2  10   87.49    4.90
  -4   2  10   91.09    4.30
  -4   2  10   86.09    4.80
   4   2 -10   80.29    4.60
  -4   2  10   82.79    4.80
   3  -2 -10  174.48    8.60
  -3  -2  10  179.48    8.80
   3  -2 -10  183.08    8.60
   3  -2 -10  182.28    8.70
   3  -2 -10  171.88    8.70
  -3   2  10  178.68    8.80
  -3   2  10  178.58    8.40
   3   2 -10  187.48    8.70
  -3   2  10  174.98    9.20
   2  -2 -10   55.59    3.50
   2  -2 -10   54.39    3.40
   2  -2 -10   55.59    3.40
   2  -2 -10   50.79    3.80
  -2  -2  10   54.69    3.50
   2  -2 -10   55.59    3.40
  -2   2  10   53.29    3.40
  -2   2  10   51.59    3.80
   2   2 -10   56.89    3.20
  -2   2  10   57.09    3.10
  -2   2  10   56.29    3.80
   2   2 -10   59.39    3.40
   1  -2 -10   38.40    3.00
  -1  -2  10   42.70    3.00
   1  -2 -10   43.60    3.10
   1  -2 -10   45.60    3.00
   1  -2 -10   43.50    2.90
   1  -2 -10   44.30    3.00
  -1   2  10   43.70    2.60
   1   2 -10   43.60    2.80
   1   2 -10   42.90    2.80
  -1   2  10   44.10    3.20
  -1   2  10   45.00    3.00
  -1   2  10   39.90    3.20
   0  -2 -10  286.87   12.90
   0  -2  10  260.27   12.90
   0  -2 -10  279.27   12.80
   0  -2 -10  278.37   12.80
   0  -2 -10  272.97   13.10
   0  -2 -10  281.37   12.90
   0   2  10  262.27   12.60
   0   2  10  272.37   13.20
   0   2 -10  267.57   12.70
   0   2  10  279.97   13.20
   0   2 -10  281.57   12.80
  -1  -2 -10   56.69    3.50
  -1  -2 -10   54.69    3.30
  -1  -2 -10   60.69    3.80
  -1  -2 -10   53.39    3.40
  -1  -2 -10   57.99    3.50
  -1  -2 -10   56.29    3.40
   1   2  10   57.79    3.60
  -1   2 -10   57.59    3.40
   1   2  10   53.19    3.10
   1   2  10   58.69    3.70
  -1   2 -10   55.89    3.60
  -2  -2 -10  146.29    7.40
   2  -2  10  158.68    8.00
  -2  -2 -10  143.89    7.30
   2  -2  10  149.39    7.00
  -2  -2 -10  152.88    7.70
  -2  -2 -10  158.38    7.60
  -2  -2 -10  153.28    7.50
   2   2  10  153.08    7.80
   2   2  10  156.88    7.70
  -2   2 -10  152.18    7.60
  -2   2 -10  148.89    7.40
   2   2  10  146.99    7.70
  -3  -2 -10   29.50    2.60
   3  -2  10   34.20    2.80
  -3  -2 -10   35.50    2.40
  -3  -2 -10   36.60    2.60
  -3  -2 -10   30.50    2.40
  -3  -2 -10   31.40    2.30
   3  -2  10   33.90    2.00
  -3   2 -10   34.60    2.70
  -3   2 -10   36.30    2.40
  -3   2 -10   32.00    2.30
   3   2  10   34.20    2.50
   3   2  10   35.90    2.60
  -4  -2 -10   22.50    2.20
  -4  -2 -10   20.00    2.00
  -4  -2 -10   21.90    1.80
   4  -2  10   21.90    2.20
   4  -2  10   23.30    1.50
  -4  -2 -10   20.20    1.80
  -4  -2 -10   21.30    2.00
   4   2  10   20.20    1.90
  -4   2 -10   21.40    2.20
  -4   2 -10   27.20    1.90
   5  -2  10    5.80    0.80
  -5  -2 -10    7.10    1.30
  -5  -2 -10    4.80    1.10
  -5  -2 -10    5.80    1.40
   5  -2  10    6.20    1.50
  -5  -2 -10    7.20    1.70
  -5  -2 -10    2.80    0.80
  -5   2 -10    4.50    1.10
  -5   2 -10    5.60    1.20
  -6  -2 -10   33.70    2.00
  -6  -2 -10   36.30    2.20
   6  -2  10   30.60    2.00
   6  -2  10   34.10    2.30
  -6  -2 -10   38.60    2.10
  -6  -2 -10   35.90    2.30
  -6   2 -10   36.50    2.40
  -6   2 -10   33.40    2.10
  -7  -2 -10   94.49    4.30
  -7   2 -10   86.49    4.50
   7  -3 -10   34.50    2.00
   7   3 -10   31.00    1.90
  -7   3  10   37.90    2.10
   6  -3 -10   11.10    1.40
   6  -3 -10   13.00    1.40
  -6   3  10   13.20    1.50
   6   3 -10   12.30    1.30
   5  -3 -10    5.10    1.10
   5  -3 -10    5.90    1.00
  -5   3  10    4.20    1.00
   5   3 -10    7.00    1.20
  -5   3  10    4.10    1.10
   4  -3 -10  184.88    8.50
   4  -3 -10  175.68    8.50
  -4   3  10  174.88    8.10
   4   3 -10  165.28    8.40
  -4   3  10  183.78    8.50
   3  -3 -10  221.68   11.10
  -3  -3  10  233.18   11.30
   3  -3 -10  240.88   11.00
   3  -3 -10  235.98   11.00
   3  -3 -10  243.28   11.10
  -3   3  10  217.78   11.30
   3   3 -10  248.08   11.10
  -3   3  10  241.38   11.10
   2  -3 -10   64.19    4.10
   2  -3 -10   69.79    4.00
   2  -3 -10   76.39    4.30
  -2  -3  10   72.79    4.40
   2  -3 -10   71.89    4.10
   2  -3 -10   75.09    4.10
  -2   3  10   75.69    4.50
   2   3 -10   77.99    4.00
  -2   3  10   60.79    4.40
  -2   3  10   72.29    3.80
   2   3 -10   77.69    4.00
   1  -3 -10    9.00    2.00
   1  -3 -10   12.30    1.80
  -1  -3  10   10.80    2.20
   1  -3 -10   11.60    1.80
   1  -3 -10   11.00    1.80
   1  -3 -10   13.10    1.90
  -1   3  10   10.90    1.40
  -1   3  10   13.70    1.90
  -1   3  10   10.90    2.00
   1   3 -10   12.30    1.60
   1   3 -10   11.30    1.60
   0  -3 -10   91.19    4.90
   0  -3  10   92.79    5.20
   0  -3 -10   90.39    4.90
   0  -3 -10   89.29    4.90
   0  -3 -10   92.39    5.20
   0  -3 -10   95.59    5.00
   0   3  10   88.29    5.10
   0   3 -10   88.49    4.80
   0   3  10   92.39    5.20
   0   3  10   91.49    4.60
  -1  -3 -10  139.79    6.80
  -1  -3 -10  114.09    6.40
  -1  -3 -10  131.79    6.40
   1  -3  10  130.39    6.70
  -1  -3 -10  112.49    6.30
  -1  -3 -10  137.89    6.50
   1   3  10  133.89    6.20
   1   3  10  129.99    6.70
   1   3  10  136.79    6.70
  -1   3 -10  115.49    6.30
  -2  -3 -10   11.00    2.00
  -2  -3 -10    8.00    1.90
  -2  -3 -10    9.80    1.60
   2  -3  10    9.10    2.00
  -2  -3 -10    5.80    1.10
  -2   3 -10   10.30    1.80
   2   3  10   11.50    1.60
  -2   3 -10    8.80    1.50
   2   3  10   10.80    1.60
  -3  -3 -10  124.59    6.50
  -3  -3 -10  118.29    6.20
   3  -3  10  129.19    6.60
  -3  -3 -10  131.09    6.40
  -3  -3 -10  129.19    6.30
   3   3  10  126.99    6.50
  -3   3 -10  131.19    6.40
  -3   3 -10  132.69    6.30
  -4  -3 -10    6.70    1.30
  -4  -3 -10    6.70    1.60
  -4  -3 -10    6.90    1.40
   4  -3  10    7.80    1.50
  -4  -3 -10    6.10    1.40
  -4   3 -10    9.30    1.60
  -4   3 -10    5.90    1.20
   4   3  10    5.80    1.30
  -5  -3 -10   62.09    3.60
  -5  -3 -10   64.69    3.30
   5  -3  10   64.49    3.50
  -5  -3 -10   70.49    3.40
  -5   3 -10   70.09    3.60
  -5   3 -10   57.69    3.50
  -6  -3 -10   27.70    1.80
   6  -3  10   30.40    2.50
  -6   3 -10   20.90    1.60
   6  -4 -10   96.39    4.90
   6   4 -10   95.69    4.80
  -6   4  10  116.89    5.10
   5  -4 -10   17.10    1.50
  -5  -4  10   16.80    1.60
   5  -4 -10   15.50    1.30
   5   4 -10   17.10    1.30
  -5   4  10   17.70    1.40
  -5   4  10   18.40    1.40
   4  -4 -10    5.80    1.10
   4  -4 -10    6.10    1.20
  -4  -4  10    5.80    1.20
  -4   4  10    5.70    1.20
   4   4 -10    6.60    1.00
  -4   4  10    5.50    0.70
  -3  -4  10   52.99    3.30
   3  -4 -10   50.89    3.00
   3  -4 -10   49.80    3.10
   3  -4 -10   50.79    3.10
   3  -4 -10   54.79    3.10
  -3   4  10   52.29    3.00
   3   4 -10   55.59    3.00
  -3   4  10   51.89    2.70
   2  -4 -10   31.90    2.20
   2  -4 -10   33.70    2.40
   2  -4 -10   33.60    2.30
   2  -4 -10   33.70    2.30
  -2  -4  10   32.50    2.60
   2  -4 -10   32.60    2.40
  -2   4  10   31.20    2.50
  -2   4  10   32.60    2.00
   2   4 -10   33.40    2.10
  -2   4  10   33.40    2.30
   2   4 -10   31.00    2.20
   1  -4 -10  145.29    6.90
  -1  -4  10  139.49    6.90
   1  -4 -10  133.19    6.70
   1  -4 -10  138.79    6.70
   1  -4 -10  136.39    6.70
   1   4 -10  137.49    6.50
  -1   4  10  135.39    6.60
  -1   4  10  139.09    6.40
   1   4 -10  123.59    6.40
  -1   4  10  127.79    6.90
   0  -4 -10   78.29    4.20
   0  -4 -10   80.69    4.50
   0  -4 -10   81.29    4.20
   0  -4 -10   78.39    4.20
   0  -4  10   77.29    4.50
   0   4 -10   81.99    4.10
   0   4  10   76.99    4.00
   0   4  10   75.19    4.40
  -1  -4 -10  120.19    5.80
  -1  -4 -10  120.49    6.00
   1  -4  10  119.89    6.10
  -1  -4 -10  113.39    5.70
  -1  -4 -10  115.19    5.80
   1   4  10  109.29    5.50
   1   4  10  108.49    5.90
  -1   4 -10  120.09    5.70
   2  -4  10   12.70    1.80
  -2  -4 -10   10.20    1.70
  -2  -4 -10   12.70    1.50
  -2  -4 -10   10.40    1.60
  -2  -4 -10   11.40    1.40
  -2  -4 -10   13.60    1.40
  -2   4 -10   11.10    1.30
   2   4  10    8.70    1.70
  -3  -4 -10   -0.20    0.90
   3  -4  10    0.50    0.80
  -3  -4 -10    0.60    0.70
  -3  -4 -10   -0.10    0.80
  -3  -4 -10    1.40    0.60
  -3   4 -10   -1.10    0.70
  -3   4 -10   -0.30    0.70
   4  -4  10   40.70    2.40
  -4  -4 -10   41.30    2.40
  -4  -4 -10   38.40    2.20
  -4   4 -10   33.30    2.00
  -4   4 -10   33.40    2.20
   3  -5 -10    6.90    1.00
  -3   5  10    5.90    1.00
   2  -5 -10   14.60    1.30
   2  -5 -10   11.50    1.30
  -2  -5  10   11.70    1.30
  -2   5  10   12.70    0.90
  -1  -5  10    0.90    0.70
   1  -5 -10    1.30    0.70
   1  -5 -10   -0.50    0.60
   1  -5 -10    1.10    0.50
   1   5 -10    1.70    0.70
  -1   5  10    1.00    0.40
   0  -5  10  105.19    4.90
   0  -5 -10   95.09    4.70
   0  -5 -10  103.19    4.80
   0  -5 -10   96.69    4.70
   0  -5 -10   95.79    4.80
   0   5  10   96.59    4.60
   0   5 -10   96.59    4.60
  -1  -5 -10   72.99    3.80
   1  -5  10   68.89    3.80
  -1  -5 -10   86.89    3.90
  -1  -5 -10   72.79    3.70
  -1   5 -10   78.99    3.70
  -8   0  11   23.20    1.50
   8   0 -11   18.10    1.20
  -7   0  11  193.68    8.60
   7   0 -11  169.98    8.30
  -6   0  11    1.90    0.90
   6   0 -11    2.40    0.80
   6   0 -11    2.70    0.90
   5   0 -11  466.75   20.30
   5   0 -11  484.15   20.40
  -5   0  11  402.66   20.60
   4   0 -11   88.09    4.80
  -4   0  11  103.29    4.90
  -4   0  11   87.59    5.10
  -3   0  11    8.10    1.80
  -3   0  11    7.70    1.70
   3   0 -11    8.80    1.40
  -2   0  11  240.28   11.90
  -2   0  11  254.37   11.40
   2   0 -11  246.38   11.70
   2   0 -11  257.87   11.70
  -1   0  11   93.39    5.20
  -1   0  11   98.79    4.70
   1   0 -11   89.39    4.90
   1   0 -11   89.59    4.90
   1   0 -11   93.59    4.90
   0   0 -11   23.80    2.10
   0   0 -11   22.70    2.50
   0   0  11   22.00    2.40
   0   0  11   24.10    1.70
   0   0 -11   28.00    2.20
   0   0 -11   26.40    2.10
  -1   0 -11   -0.20    0.90
   1   0  11   -0.10    0.60
   1   0  11    1.60    1.10
  -1   0 -11   -0.80    0.90
  -1   0 -11    0.60    1.20
  -2   0 -11    0.20    0.80
  -2   0 -11   -0.40    1.10
   2   0  11    0.60    1.00
  -2   0 -11   -0.80    0.80
  -2   0 -11   -0.50    1.10
  -2   0 -11   -0.40    0.80
   2   0  11   -0.20    0.60
   2   0  11   -1.10    1.20
   3   0  11    4.60    1.50
  -3   0 -11    4.00    1.00
  -3   0 -11    4.00    1.20
   3   0  11    8.00    1.60
  -3   0 -11    7.60    1.80
  -3   0 -11    7.40    1.50
   3   0  11    6.30    1.00
  -3   0 -11    6.10    1.40
  -4   0 -11   17.40    1.70
  -4   0 -11   17.40    1.80
   4   0  11   19.00    1.40
  -4   0 -11   20.10    2.00
  -4   0 -11   17.00    1.90
  -4   0 -11   17.30    1.70
   4   0  11   16.20    1.90
  -5   0 -11   13.00    1.60
  -5   0 -11   14.90    1.90
   5   0  11   14.60    1.20
  -5   0 -11   14.40    1.50
  -5   0 -11   14.30    1.50
   5   0  11   15.60    2.20
  -5   0 -11   15.10    1.60
  -6   0 -11   41.40    2.30
  -6   0 -11   38.40    2.50
  -6   0 -11   38.70    2.20
  -6   0 -11   38.70    2.30
   6   0  11   41.70    2.10
  -8  -1  11   16.50    1.30
   8  -1 -11   18.90    1.30
   8   1 -11   21.10    1.50
  -8   1  11   20.30    1.50
  -7  -1  11   11.80    1.40
   7  -1 -11   11.20    1.20
   7  -1 -11   14.40    1.20
   7   1 -11   11.10    1.00
   7   1 -11   13.10    1.30
  -7   1  11   11.80    1.30
  -7   1  11   13.20    1.30
   6  -1 -11  185.38    8.80
  -6  -1  11  189.68    9.00
   6  -1 -11  187.38    8.80
  -6   1  11  191.68    9.00
   6   1 -11  187.08    8.80
  -6   1  11  199.68    8.90
   6   1 -11  180.88    8.70
  -5  -1  11  124.69    6.40
   5  -1 -11  119.59    6.00
   5  -1 -11  126.29    6.20
   5   1 -11  122.19    6.10
   5   1 -11  117.79    6.00
  -5   1  11  129.19    6.20
  -5   1  11  131.99    6.40
   4  -1 -11   21.90    1.80
  -4  -1  11   21.80    2.10
   4  -1 -11   18.50    1.90
  -4   1  11   19.60    2.00
  -4   1  11   22.60    2.10
   4   1 -11   16.10    1.60
   3  -1 -11   66.39    4.20
  -3  -1  11   73.89    4.20
   3  -1 -11   62.49    3.90
  -3   1  11   75.49    4.20
  -3   1  11   74.79    3.60
   2  -1 -11   63.79    3.70
   2  -1 -11   63.59    3.70
   2  -1 -11   67.09    3.70
  -2  -1  11   63.99    3.90
   2   1 -11   62.69    3.60
  -2   1  11   64.49    3.40
   2   1 -11   61.29    3.60
  -2   1  11   61.09    3.80
   1  -1 -11  230.98   10.80
   1  -1 -11  234.68   10.80
   1  -1 -11  226.38   10.80
  -1  -1  11  246.08   11.00
   1   1 -11  229.68   10.70
  -1   1  11  217.78   11.10
   1   1 -11  226.78   10.70
  -1   1  11  231.88   10.90
  -1   1  11  204.88   10.50
   0  -1  11   75.49    3.60
   0  -1 -11   72.49    4.10
   0  -1 -11   72.59    4.20
   0  -1 -11   74.39    4.10
   0  -1  11   78.59    4.30
   0  -1 -11   70.99    4.00
   0  -1 -11   69.59    4.00
   0   1 -11   69.99    3.90
   0   1  11   64.19    4.30
   0   1 -11   69.69    4.00
   0   1  11   71.89    3.70
   0   1  11   70.49    4.30
  -1  -1 -11    4.40    1.10
  -1  -1 -11    2.90    1.00
   1  -1  11    7.60    1.00
  -1  -1 -11    5.10    1.20
  -1  -1 -11    3.50    1.30
  -1  -1 -11    3.40    1.40
  -1   1 -11    4.40    1.00
  -1   1 -11    3.40    1.20
   1   1  11    5.10    1.50
   1   1  11    5.90    1.60
   1   1  11    5.30    1.00
  -2  -1 -11  139.89    7.20
  -2  -1 -11  142.59    7.30
   2  -1  11  150.48    6.90
  -2  -1 -11  156.88    7.20
  -2  -1 -11  149.09    7.20
  -2  -1 -11  158.28    7.50
  -2   1 -11  131.29    7.10
  -2   1 -11  162.98    7.50
   2   1  11  152.88    7.60
   2   1  11  124.19    7.40
   2   1  11  147.69    7.00
  -3  -1 -11    2.60    0.90
  -3  -1 -11    4.60    1.20
  -3  -1 -11    4.20    1.30
   3  -1  11    3.40    0.70
  -3  -1 -11    4.00    0.90
  -3  -1 -11    2.40    1.00
  -3   1 -11    4.20    1.30
   3   1  11    2.00    1.20
  -3   1 -11    3.10    1.00
   3   1  11    5.90    1.00
   3   1  11    3.20    1.00
  -3   1 -11    2.60    0.90
  -4  -1 -11    4.00    0.90
  -4  -1 -11    9.00    1.40
  -4  -1 -11    6.10    1.00
  -4  -1 -11    7.70    1.40
  -4  -1 -11    4.20    1.20
   4  -1  11    7.60    0.90
   4   1  11    6.20    0.90
  -4   1 -11    5.80    1.30
  -4   1 -11    7.60    1.30
   4   1  11    5.40    1.30
  -4   1 -11    4.80    1.20
  -4   1 -11    7.90    1.30
  -5  -1 -11   44.90    3.00
  -5  -1 -11   46.90    2.70
  -5  -1 -11   53.39    2.70
   5  -1  11   49.50    2.40
  -5  -1 -11   49.10    2.80
  -5  -1 -11   49.40    3.00
  -5   1 -11   41.20    2.60
   5   1  11   47.50    2.50
  -5   1 -11   51.59    3.00
  -5   1 -11   48.90    2.70
  -5   1 -11   44.80    2.70
  -6  -1 -11   38.20    2.20
  -6  -1 -11   42.40    2.40
  -6  -1 -11   39.20    2.20
   6  -1  11   38.10    2.00
  -6  -1 -11   37.70    2.20
  -6   1 -11   41.40    2.40
  -6   1 -11   39.10    2.20
   6   1  11   39.20    2.00
  -7  -2  11    1.60    0.60
   7  -2 -11    1.80    0.70
  -7   2  11    2.60    0.60
   7   2 -11    1.70    0.50
   7   2 -11    3.90    0.90
   6  -2 -11    8.00    1.20
   6  -2 -11    6.40    1.20
  -6   2  11    7.80    1.30
   6   2 -11    7.60    1.00
   6   2 -11    7.20    1.10
  -6   2  11    9.30    1.70
  -5  -2  11   14.10    1.60
   5  -2 -11   17.20    1.60
   5  -2 -11   14.60    1.50
  -5   2  11   15.70    1.60
  -5   2  11   11.30    1.70
   5   2 -11   15.40    1.40
   4  -2 -11   10.60    1.50
  -4  -2  11   12.30    1.70
   4  -2 -11   13.40    1.50
   4   2 -11   12.00    1.50
  -4   2  11   13.70    1.70
  -4   2  11   11.40    1.80
  -4   2  11   13.70    1.40
   3  -2 -11  106.69    5.60
   3  -2 -11   78.59    4.70
   3  -2 -11   86.49    4.90
  -3  -2  11   93.09    4.90
  -3   2  11   94.39    4.90
  -3   2  11   95.19    4.50
   3   2 -11   90.19    4.70
  -3   2  11   82.69    4.80
   2  -2 -11   58.69    3.40
   2  -2 -11   59.79    3.40
  -2  -2  11   56.19    3.50
   2  -2 -11   58.09    3.40
  -2   2  11   48.30    3.00
  -2   2  11   49.40    3.70
   2   2 -11   63.19    3.30
   2   2 -11   61.49    3.30
  -2   2  11   60.39    3.50
   1  -2 -11  202.78    9.30
   1  -2 -11  203.48    9.30
  -1  -2  11  189.88    9.30
   1  -2 -11  195.18    9.40
   1  -2 -11  173.78    9.20
   1  -2 -11  199.98    9.20
   1   2 -11  198.38    9.20
  -1   2  11  195.28    9.00
  -1   2  11  205.48    9.40
  -1   2  11  171.48    9.60
   1   2 -11  194.38    9.10
  -1   2  11  190.78    9.60
   0  -2 -11  152.68    7.50
   0  -2 -11  151.08    7.20
   0  -2 -11  153.18    7.30
   0  -2 -11  156.48    7.30
   0  -2 -11  128.89    7.20
   0  -2  11  140.29    7.30
   0   2  11  153.08    7.40
   0   2 -11  150.38    7.20
   0   2  11  147.79    7.60
   0   2  11  153.38    7.10
   0   2  11  136.29    7.50
  -1  -2 -11  138.79    6.40
  -1  -2 -11  131.89    6.40
   1  -2  11  130.89    6.40
  -1  -2 -11  113.89    6.30
  -1  -2 -11  120.59    6.40
  -1  -2 -11  136.59    6.70
   1   2  11  140.69    6.80
   1   2  11  139.79    6.20
   1   2  11  118.09    6.70
  -1   2 -11  116.09    6.30
  -2  -2 -11   19.00    2.00
   2  -2  11   20.60    1.90
  -2  -2 -11   17.40    1.90
  -2  -2 -11   20.70    1.90
  -2  -2 -11   21.20    2.20
   2   2  11   15.70    2.80
   2   2  11   21.60    1.60
   2   2  11   22.30    2.00
  -2   2 -11   22.20    2.10
  -2   2 -11   22.90    1.80
  -3  -2 -11   82.19    4.60
  -3  -2 -11   82.19    4.30
  -3  -2 -11   82.99    4.30
  -3  -2 -11   75.99    4.30
  -3  -2 -11   82.29    4.40
   3   2  11   82.99    4.60
  -3   2 -11   87.29    4.30
  -3   2 -11   88.59    4.50
   3   2  11   82.19    4.10
  -4  -2 -11   -0.10    0.70
  -4  -2 -11   -0.10    0.80
  -4  -2 -11    0.30    0.90
  -4  -2 -11    0.60    0.50
  -4  -2 -11    1.00    0.90
   4   2  11    1.00    0.70
  -4   2 -11    0.40    0.80
   4   2  11    0.40    0.50
  -4   2 -11    0.60    0.70
  -5  -2 -11   28.30    1.80
  -5  -2 -11   26.50    1.70
  -5  -2 -11   27.00    2.00
  -5   2 -11   28.50    2.00
  -5   2 -11   27.20    2.40
   5   2  11   27.60    1.60
   6  -3 -11    1.30    0.70
   6  -3 -11    1.20    0.60
   6   3 -11    0.20    0.60
  -6   3  11    0.40    0.60
   5  -3 -11    9.50    1.20
   5  -3 -11   11.00    1.20
  -5   3  11   12.50    1.40
   5   3 -11   11.90    1.20
   4  -3 -11   17.90    1.60
   4  -3 -11   16.30    1.60
  -4   3  11   15.60    1.30
   4   3 -11   18.40    1.50
  -4   3  11   19.10    1.80
   3  -3 -11   90.39    4.70
   3  -3 -11   90.29    4.60
  -3   3  11   91.09    4.70
  -3   3  11   88.19    4.30
   3   3 -11   90.09    4.50
   2  -3 -11   43.10    3.10
   2  -3 -11   48.30    3.00
   2  -3 -11   48.50    2.90
   2  -3 -11   49.99    3.00
  -2   3  11   49.50    2.60
  -2   3  11   43.20    3.20
   2   3 -11   48.70    2.70
   2   3 -11   48.10    2.80
   1  -3 -11  131.79    6.30
   1  -3 -11  123.49    6.30
   1  -3 -11  128.59    6.50
   1  -3 -11  129.59    6.30
  -1   3  11  117.09    6.60
   1   3 -11  132.59    6.20
  -1   3  11  131.29    6.10
   1   3 -11  122.79    6.10
   0  -3 -11   19.20    1.90
   0  -3 -11   21.60    1.90
   0  -3 -11   20.30    2.20
   0  -3 -11   19.20    1.90
   0  -3 -11   23.00    2.00
   0   3  11   20.30    2.00
   0   3 -11   23.00    1.80
   0   3  11   21.90    1.60
  -1  -3 -11   -1.10    0.90
  -1  -3 -11   -0.40    0.90
  -1  -3 -11    0.70    0.90
  -1  -3 -11   -0.40    1.00
   1  -3  11   -0.70    1.10
  -1  -3 -11    0.10    0.90
  -1   3 -11   -0.10    0.80
   1   3  11   -0.40    0.80
   1   3  11    0.80    0.60
  -2  -3 -11   55.89    3.10
   2  -3  11   50.29    3.20
  -2  -3 -11   55.89    3.40
  -2  -3 -11   53.49    3.10
   2   3  11   52.29    3.20
  -2   3 -11   56.49    3.00
   2   3  11   54.69    2.80
  -3  -3 -11   69.79    3.50
  -3  -3 -11   68.49    3.80
  -3  -3 -11   70.39    3.60
  -3  -3 -11   71.39    3.60
   3  -3  11   62.39    3.70
  -3   3 -11   65.59    3.60
  -3   3 -11   70.39    3.50
   3   3  11   65.39    3.40
  -4  -3 -11  113.99    5.70
  -4  -3 -11  124.09    5.90
  -4  -3 -11  127.59    5.80
  -4  -3 -11  125.49    5.70
  -4   3 -11  115.09    5.70
  -4   3 -11  123.59    5.80
   4  -4 -11   29.80    1.90
  -4   4  11   29.60    1.90
   4   4 -11   34.30    1.90
  -4   4  11   39.70    2.20
   3  -4 -11   17.80    1.40
   3   4 -11   18.50    1.30
  -3   4  11   16.90    1.10
  -3   4  11   17.00    1.50
  -2  -4  11   34.90    2.40
   2  -4 -11   36.40    2.10
   2  -4 -11   37.70    2.20
   2  -4 -11   38.60    2.30
   2  -4 -11   38.80    2.20
   2   4 -11   33.40    2.00
   2   4 -11   34.10    2.00
  -2   4  11   39.60    2.30
  -2   4  11   40.00    2.00
  -1  -4  11   22.00    1.80
   1  -4 -11   22.60    1.80
   1  -4 -11   20.50    1.80
   1  -4 -11   23.00    1.70
   1  -4 -11   22.30    1.60
  -1   4  11   24.00    1.40
  -1   4  11   23.10    1.70
   1   4 -11   22.00    1.60
   0  -4 -11   33.00    2.30
   0  -4 -11   33.30    2.10
   0  -4 -11   33.10    2.20
   0  -4  11   33.30    2.30
   0  -4 -11   33.60    2.10
   0   4 -11   38.80    2.10
   0   4  11   33.70    2.10
   0   4  11   35.70    1.90
   1  -4  11   51.79    2.90
  -1  -4 -11   55.49    2.90
  -1  -4 -11   52.19    2.80
  -1  -4 -11   44.90    2.80
  -1   4 -11   52.89    2.70
   1   4  11   56.09    2.70
   2  -4  11   56.49    3.40
  -2  -4 -11   71.09    3.40
  -2  -4 -11   67.09    3.20
  -2  -4 -11   60.19    3.10
   2   4  11   59.29    3.10
  -2   4 -11   59.39    3.10
  -7   0  12   26.10    1.60
   6   0 -12   19.20    1.40
   6   0 -12   17.50    1.30
  -6   0  12   14.90    1.40
  -5   0  12   39.10    2.60
   5   0 -12   39.40    2.40
   4   0 -12    7.80    1.30
  -4   0  12    9.90    1.60
   3   0 -12  331.87   14.80
  -3   0  12  312.57   14.90
  -2   0  12    1.30    1.00
   2   0 -12    2.80    0.90
   2   0 -12    2.80    1.00
   1   0 -12  151.78    7.20
  -1   0  12  136.99    7.30
   1   0 -12  155.58    7.20
  -1   0  12  148.19    6.90
   0   0 -12   32.80    2.40
   0   0  12   38.40    2.10
   0   0 -12   39.00    2.50
   0   0 -12   38.40    2.50
   0   0  12   33.80    2.60
  -1   0 -12    5.70    1.30
  -1   0 -12    3.30    0.90
  -1   0 -12    4.60    1.00
   1   0  12    4.40    0.90
   2   0  12    5.50    0.90
  -2   0 -12    4.00    0.90
  -2   0 -12    5.40    1.20
  -2   0 -12    6.10    1.20
  -3   0 -12   44.70    2.60
   3   0  12   43.50    2.30
  -3   0 -12   42.10    2.60
  -3   0 -12   42.30    2.60
  -4   0 -12  121.19    5.80
  -4   0 -12  113.49    5.80
   4   0  12  128.39    5.70
  -4   0 -12  117.59    5.80
  -4   0 -12  137.79    6.20
   5   0  12   57.29    2.70
  -5   0 -12   57.19    3.00
  -5   0 -12   57.39    3.00
  -7  -1  12    8.20    1.00
   6  -1 -12    2.70    0.70
  -6  -1  12    1.40    0.60
   6  -1 -12    1.70    0.60
  -6   1  12    0.50    0.50
  -6   1  12    2.30    0.60
   6   1 -12    1.10    0.50
   5  -1 -12   13.00    1.40
  -5  -1  12   14.10    1.50
   5   1 -12   11.80    1.20
  -5   1  12   14.00    1.40
  -5   1  12   13.70    1.60
  -4  -1  12   21.60    2.10
   4  -1 -12   25.20    1.90
  -4   1  12   22.30    2.00
  -4   1  12   22.60    1.90
  -3  -1  12   11.80    1.60
   3  -1 -12   12.40    1.50
   3   1 -12   13.40    1.50
  -3   1  12   14.90    1.60
  -3   1  12   13.50    1.80
   2  -1 -12   86.39    4.60
   2  -1 -12   88.39    4.60
  -2  -1  12   84.89    4.80
   2   1 -12   89.09    4.50
  -2   1  12   88.49    4.30
   2   1 -12   86.19    4.50
  -2   1  12   93.99    4.80
   1  -1 -12   65.69    3.60
   1  -1 -12   62.69    3.60
   1  -1 -12   60.09    3.50
  -1  -1  12   63.49    3.70
  -1   1  12   63.49    3.30
   1   1 -12   60.99    3.40
   1   1 -12   64.19    3.50
  -1   1  12   64.49    3.80
   0  -1 -12   45.00    2.70
   0  -1  12   46.20    3.00
   0  -1 -12   47.40    3.00
   0  -1 -12   44.70    2.90
   0  -1 -12   48.40    2.90
   0   1  12   42.30    2.50
   0   1  12   39.20    3.00
   0   1  12   45.90    3.00
   0   1 -12   45.00    2.80
  -1  -1 -12   72.99    3.80
  -1  -1 -12   69.59    3.80
  -1  -1 -12   69.69    3.70
   1  -1  12   66.59    3.40
  -1  -1 -12   73.09    3.90
   1  -1  12   74.89    3.90
   1   1  12   61.29    3.90
   1   1  12   68.79    3.50
  -1   1 -12   65.69    3.70
  -2  -1 -12   78.99    4.00
  -2  -1 -12   74.39    3.90
   2  -1  12   71.59    3.50
  -2  -1 -12   74.39    4.00
  -2  -1 -12   76.39    4.10
   2   1  12   67.59    4.20
  -2   1 -12   73.59    4.00
  -2   1 -12   76.79    3.90
   2   1  12   74.59    3.70
  -3  -1 -12   59.09    3.10
  -3  -1 -12   52.69    3.30
  -3  -1 -12   55.89    3.10
   3  -1  12   51.49    2.70
  -3  -1 -12   53.79    3.10
  -3   1 -12   55.69    3.20
  -3   1 -12   56.89    3.10
   3   1  12   57.89    2.80
  -4  -1 -12   20.60    1.60
   4  -1  12   20.70    1.20
  -4  -1 -12   21.10    1.60
  -4  -1 -12   21.20    1.60
  -4  -1 -12   23.10    1.80
   4   1  12   24.20    1.40
  -4   1 -12   21.80    1.60
  -4   1 -12   27.00    1.90
  -5  -1 -12   16.30    1.30
  -5  -1 -12   17.50    1.30
  -5  -1 -12   21.70    1.60
   5   1  12   18.40    1.10
  -5   1 -12   16.70    1.40
   6  -2 -12   23.00    1.80
  -6   2  12   24.70    1.60
   6   2 -12   27.40    1.50
   5  -2 -12    0.40    0.50
   5  -2 -12    1.00    1.20
  -5  -2  12   -0.10    0.50
   5   2 -12    0.20    0.40
  -5   2  12    0.70    0.50
   4  -2 -12   10.50    1.30
  -4  -2  12   12.20    1.30
   4   2 -12   11.90    1.20
  -4   2  12   12.50    1.50
  -4   2  12   14.10    1.50
   3  -2 -12   24.40    1.80
  -3  -2  12   20.80    1.90
  -3   2  12   23.60    2.00
   3   2 -12   25.50    1.80
  -3   2  12   22.20    1.40
  -3   2  12   27.50    2.00
  -2  -2  12   94.69    5.00
   2  -2 -12  101.19    5.00
   2  -2 -12   97.49    5.00
   2   2 -12  103.19    4.90
   2   2 -12   96.39    4.90
  -2   2  12  101.39    4.70
  -2   2  12  101.09    5.10
   1  -2 -12   28.60    2.00
   1  -2 -12   27.90    2.00
   1  -2 -12   27.10    2.10
  -1  -2  12   21.40    1.90
  -1   2  12   19.70    2.90
   1   2 -12   26.80    1.80
  -1   2  12   25.80    2.00
  -1   2  12   27.90    1.80
   1   2 -12   31.30    2.00
   0  -2 -12    8.00    1.40
   0  -2 -12    6.40    1.60
   0  -2 -12    9.50    1.50
   0  -2 -12    7.70    1.40
   0  -2 -12    7.30    1.70
   0  -2  12   10.60    1.50
   0   2  12   10.70    1.50
   0   2 -12   12.00    1.40
   0   2  12    9.60    1.60
   0   2  12   10.30    1.10
  -1  -2 -12   68.49    3.70
   1  -2  12   61.39    3.60
  -1  -2 -12   67.49    3.70
  -1  -2 -12   69.69    3.80
  -1  -2 -12   73.19    3.70
   1   2  12   70.59    3.50
  -1   2 -12   70.19    3.60
   1   2  12   61.09    3.80
   1   2  12   70.29    3.80
  -2  -2 -12   34.10    2.20
  -2  -2 -12   33.00    2.20
  -2  -2 -12   34.40    2.20
   2  -2  12   28.10    2.60
  -2  -2 -12   34.00    2.40
  -2   2 -12   32.50    2.10
   2   2  12   36.10    2.30
   2   2  12   33.90    1.90
  -3  -2 -12   62.59    3.20
  -3  -2 -12   62.89    3.40
  -3  -2 -12   61.19    3.30
  -3  -2 -12   62.49    3.30
  -3   2 -12   60.69    3.20
  -3   2 -12   58.49    3.30
   3   2  12   63.29    3.10
  -4  -2 -12   24.50    1.50
  -4  -2 -12   22.60    1.70
  -4  -2 -12   20.80    1.50
  -4   2 -12   22.10    1.60
   4   2  12   23.80    1.40
   4  -3 -12    8.90    0.90
  -4   3  12    9.00    1.10
   4   3 -12    7.80    0.90
   3  -3 -12   47.80    2.60
  -3   3  12   44.70    2.60
   3   3 -12   46.50    2.50
   2  -3 -12    5.30    1.00
   2  -3 -12    2.40    0.70
   2   3 -12    3.00    0.70
  -2   3  12    3.20    0.70
  -2   3  12    2.90    0.70
   2   3 -12    4.60    0.80
   1  -3 -12   93.39    4.60
   1  -3 -12   90.89    4.60
   1  -3 -12   88.09    4.60
   1  -3 -12   85.59    4.60
   1   3 -12   96.79    4.50
  -1   3  12   97.99    4.60
  -1   3  12   97.99    4.40
   0  -3 -12   41.30    2.40
   0  -3 -12   36.70    2.40
   0  -3 -12   38.70    2.30
   0  -3 -12   37.20    2.20
   0   3 -12   38.80    2.20
   0   3  12   39.60    2.10
  -1  -3 -12   45.40    2.60
  -1  -3 -12   46.40    2.70
  -1  -3 -12   47.40    2.70
   1   3  12   48.70    2.50
  -1   3 -12   47.60    2.60
  -2  -3 -12   14.00    1.60
  -2  -3 -12   12.30    1.10
  -2  -3 -12   10.10    1.20
  -2  -3 -12   10.90    1.20
  -2   3 -12   12.10    1.10
   2   3  12   12.50    1.00
  -3  -3 -12    2.00    0.80
  -3  -3 -12    0.70    0.50
  -3  -3 -12    0.70    0.60
  -5   0  13   11.80    1.10
   5   0 -13   11.10    1.00
   4   0 -13   31.80    2.00
  -4   0  13   34.00    2.10
  -3   0  13  116.29    5.70
   3   0 -13  114.49    5.50
   2   0 -13    2.00    0.80
   2   0 -13    1.30    0.70
  -2   0  13    2.00    0.90
   1   0 -13    4.50    0.90
   1   0 -13    5.30    1.20
  -1   0  13    6.20    1.40
   0   0 -13  101.29    5.10
   0   0  13  108.19    5.30
   1   0  13    6.60    0.70
   1   0  13    7.80    1.30
  -1   0 -13    8.40    1.30
   2   0  13    8.80    1.30
  -2   0 -13   10.50    1.20
   2   0  13    9.00    0.80
  -2   0 -13    9.30    1.20
  -3   0 -13    4.30    1.10
   3   0  13    2.60    0.70
   3   0  13    4.60    0.80
  -3   0 -13    4.30    0.80
   5  -1 -13   10.40    0.90
  -5  -1  13    8.70    1.00
   5   1 -13    8.50    0.90
  -4  -1  13  120.39    6.00
   4  -1 -13  130.99    5.90
  -4   1  13  112.59    5.90
   4   1 -13  138.19    6.00
  -4   1  13  129.59    6.00
   3  -1 -13   74.09    3.60
  -3  -1  13   69.29    3.70
   3   1 -13   71.89    3.60
  -3   1  13   75.99    3.80
  -3   1  13   66.39    3.60
   2  -1 -13   41.50    2.50
  -2  -1  13   45.60    2.60
   2  -1 -13   46.00    2.50
   2   1 -13   42.00    2.50
  -2   1  13   47.40    2.70
   2   1 -13   44.00    2.40
  -2   1  13   44.30    2.60
   1  -1 -13   51.79    2.80
  -1  -1  13   48.30    2.90
   1  -1 -13   49.50    2.70
   1   1 -13   47.80    2.70
  -1   1  13   56.29    3.00
   1   1 -13   55.39    2.80
  -1   1  13   46.10    2.50
   0  -1 -13   37.40    2.30
   0  -1  13   38.50    2.40
   0   1 -13   39.00    2.30
   0   1  13   38.20    2.00
   0   1  13   37.60    2.50
  -1  -1 -13   13.10    1.30
  -1  -1 -13   12.80    1.50
   1  -1  13   13.00    1.40
  -1  -1 -13   14.20    1.40
   1   1  13   13.50    1.40
  -1   1 -13   14.60    1.30
   1   1  13   14.70    1.00
   2  -1  13    5.00    1.10
  -2  -1 -13    5.50    1.00
  -2  -1 -13    5.80    1.00
  -2  -1 -13    5.80    1.20
  -2   1 -13    5.10    0.90
   2   1  13    5.90    1.10
   2   1  13    4.60    0.60
  -3  -1 -13    4.40    0.90
  -3  -1 -13    4.70    1.00
  -3  -1 -13    6.00    0.90
  -3   1 -13    2.80    0.80
   3   1  13    4.50    0.60
   3   1  13    5.20    0.90
   4  -2 -13   14.00    1.10
  -4   2  13   16.30    1.30
   4   2 -13   15.50    1.10
   3  -2 -13   13.10    1.10
   3   2 -13   10.80    1.00
  -3   2  13   12.60    1.20
   2  -2 -13    5.10    1.10
  -2  -2  13    6.00    1.10
   2  -2 -13    3.60    0.80
  -2   2  13    9.10    1.20
   2   2 -13    5.10    0.90
  -2   2  13    7.40    1.50
   1  -2 -13   16.00    1.30
  -1  -2  13   18.00    1.80
   1  -2 -13   15.10    1.30
  -1   2  13   17.80    1.40
   1   2 -13   15.50    1.30
  -1   2  13   16.00    1.00
  -1   2  13   16.30    1.40
   0  -2 -13    2.90    0.70
   0  -2 -13    4.60    1.20
   0   2  13    2.40    0.80
   0   2  13    4.10    0.70
  -1  -2 -13   33.60    2.10
  -1  -2 -13   41.10    2.30
   1   2  13   36.50    1.90
   1   2  13   38.20    2.40
  -1   2 -13   34.70    2.00
  -2  -2 -13    4.40    0.80
  -2  -2 -13    5.30    0.80
  -2  -2 -13    2.40    1.00
   2   2  13    6.20    0.60
  -2   2 -13    4.20    0.80
  -2   0  14    1.10    0.70
  -1   0  14   68.19    3.50
   0   0   0    0.00    0.00

_computing_structure_solution     'SHELXT 2014/5 (Sheldrick, 2014)'
;
_shelx_hkl_checksum              52141
_olex2_submission_special_instructions 'No special instructions were received'
loop_
_space_group_symop_operation_xyz
'x, y, z'
'-x, y+1/2, -z'
loop_
_atom_site_label
_atom_site_type_symbol
_atom_site_fract_x
_atom_site_fract_y
_atom_site_fract_z
_atom_site_U_iso_or_equiv
_atom_site_adp_type
_atom_site_occupancy
_atom_site_site_symmetry_order
_atom_site_calc_flag
_atom_site_refinement_flags_posn
O1 O 0.30411(12) 0.19213(19) 0.49744(10) 0.0194(3) Uani 1 1 d .
O2 O 0.12924(11) 0.2928(2) 0.58900(10) 0.0193(3) Uani 1 1 d .
O3 O 0.21059(11) 0.6181(2) 0.36994(10) 0.0189(3) Uani 1 1 d .
O4 O 0.41595(12) 0.7110(2) 0.30603(10) 0.0202(3) Uani 1 1 d .
N1 N 0.40006(14) 0.6313(2) 0.49560(12) 0.0156(3) Uani 1 1 d .
H1 H 0.488(3) 0.639(4) 0.5017(19) 0.019 Uiso 1 1 d R
N2 N 0.21089(14) 0.5163(3) 0.81427(12) 0.0218(3) Uani 1 1 d .
N3 N 0.14335(15) 0.4104(3) 0.88073(12) 0.0213(3) Uani 1 1 d .
N4 N 0.09251(18) 0.3080(3) 0.94863(14) 0.0354(4) Uani 1 1 d .
C1 C 0.25162(15) 0.3347(3) 0.55265(13) 0.0149(3) Uani 1 1 d .
C2 C 0.32609(16) 0.5508(3) 0.59142(13) 0.0144(3) Uani 1 1 d .
H2 H 0.395218 0.509764 0.657196 0.017 Uiso 1 1 calc R
C3 C 0.23662(16) 0.7317(3) 0.63960(14) 0.0170(3) Uani 1 1 d .
H3A H 0.294192 0.837059 0.688536 0.020 Uiso 1 1 calc R
H3B H 0.190470 0.815991 0.572915 0.020 Uiso 1 1 calc R
C4 C 0.13119(16) 0.6320(3) 0.71346(14) 0.0163(3) Uani 1 1 d .
C5 C 0.04799(16) 0.4654(3) 0.63709(14) 0.0179(3) Uani 1 1 d .
H5A H -0.019177 0.395023 0.684902 0.021 Uiso 1 1 calc R
H5B H -0.002506 0.545812 0.571194 0.021 Uiso 1 1 calc R
C6 C 0.03905(19) 0.8080(3) 0.75985(16) 0.0249(4) Uani 1 1 d .
H6A H -0.026574 0.736373 0.807329 0.037 Uiso 1 1 calc GR
H6B H -0.009281 0.886275 0.693292 0.037 Uiso 1 1 calc GR
H6C H 0.093638 0.914591 0.808812 0.037 Uiso 1 1 calc GR
C7 C 0.33210(16) 0.6514(3) 0.38836(14) 0.0155(3) Uani 1 1 d .
C8 C 0.37839(18) 0.6489(3) 0.18230(14) 0.0200(4) Uani 1 1 d .
C9 C 0.2541(2) 0.7756(3) 0.13111(16) 0.0292(4) Uani 1 1 d .
H9A H 0.172856 0.711917 0.161296 0.044 Uiso 1 1 calc GR
H9B H 0.247002 0.763972 0.044842 0.044 Uiso 1 1 calc GR
H9C H 0.262373 0.932490 0.154174 0.044 Uiso 1 1 calc GR
C10 C 0.5026(2) 0.7190(4) 0.12161(16) 0.0320(5) Uani 1 1 d .
H10A H 0.516237 0.879868 0.130919 0.048 Uiso 1 1 calc GR
H10B H 0.489041 0.682301 0.037454 0.048 Uiso 1 1 calc GR
H10C H 0.582472 0.640101 0.157377 0.048 Uiso 1 1 calc GR
C11 C 0.35993(19) 0.3973(3) 0.17488(17) 0.0244(4) Uani 1 1 d .
H11A H 0.442720 0.323691 0.208613 0.037 Uiso 1 1 calc GR
H11B H 0.341504 0.353066 0.092093 0.037 Uiso 1 1 calc GR
H11C H 0.283683 0.353243 0.219165 0.037 Uiso 1 1 calc GR
loop_
_atom_site_aniso_label
_atom_site_aniso_U_11
_atom_site_aniso_U_22
_atom_site_aniso_U_33
_atom_site_aniso_U_23
_atom_site_aniso_U_13
_atom_site_aniso_U_12
O1 0.0185(5) 0.0151(5) 0.0250(6) -0.0017(5) 0.0050(5) 0.0003(5)
O2 0.0155(5) 0.0178(5) 0.0253(6) -0.0029(5) 0.0062(4) -0.0031(5)
O3 0.0138(5) 0.0211(6) 0.0216(6) 0.0004(5) 0.0004(4) -0.0016(5)
O4 0.0194(6) 0.0260(6) 0.0152(5) -0.0006(5) 0.0017(4) -0.0103(5)
N1 0.0102(6) 0.0184(6) 0.0183(6) 0.0012(5) 0.0021(5) -0.0031(6)
N2 0.0166(7) 0.0300(8) 0.0186(6) 0.0045(6) 0.0008(5) 0.0032(6)
N3 0.0235(7) 0.0229(7) 0.0167(6) 0.0004(6) -0.0026(6) 0.0009(6)
N4 0.0399(9) 0.0415(10) 0.0240(8) 0.0101(8) -0.0025(7) -0.0112(9)
C1 0.0127(7) 0.0144(7) 0.0174(7) 0.0032(6) 0.0005(6) 0.0006(6)
C2 0.0128(7) 0.0151(7) 0.0155(7) 0.0014(6) 0.0023(6) -0.0006(6)
C3 0.0178(8) 0.0136(7) 0.0196(7) -0.0010(6) 0.0025(6) -0.0004(6)
C4 0.0146(7) 0.0189(7) 0.0154(7) 0.0009(6) 0.0007(6) 0.0035(7)
C5 0.0124(7) 0.0219(8) 0.0197(7) 0.0001(7) 0.0034(6) 0.0022(6)
C6 0.0246(9) 0.0249(8) 0.0258(8) -0.0007(8) 0.0065(7) 0.0077(8)
C7 0.0163(7) 0.0123(7) 0.0182(7) 0.0003(6) 0.0029(6) -0.0021(6)
C8 0.0227(8) 0.0231(8) 0.0141(7) -0.0021(6) 0.0014(6) -0.0068(7)
C9 0.0369(10) 0.0276(9) 0.0217(8) 0.0010(7) -0.0046(7) -0.0002(8)
C10 0.0340(10) 0.0431(11) 0.0198(8) -0.0030(8) 0.0079(7) -0.0176(9)
C11 0.0240(8) 0.0227(8) 0.0270(8) -0.0045(7) 0.0059(7) -0.0023(8)
loop_
_atom_type_symbol
_atom_type_description
_atom_type_scat_dispersion_real
_atom_type_scat_dispersion_imag
_atom_type_scat_source
C C 0.0181 0.0091 'International Tables Vol C Tables 4.2.6.8 and 6.1.1.4'
H H 0.0000 0.0000 'International Tables Vol C Tables 4.2.6.8 and 6.1.1.4'
N N 0.0311 0.0180 'International Tables Vol C Tables 4.2.6.8 and 6.1.1.4'
O O 0.0492 0.0322 'International Tables Vol C Tables 4.2.6.8 and 6.1.1.4'
loop_
_geom_angle_atom_site_label_1
_geom_angle_atom_site_label_2
_geom_angle_atom_site_label_3
_geom_angle
C1 O2 C5 122.02(13)
C7 O4 C8 118.37(12)
C2 N1 H1 121.9(14)
C7 N1 H1 119.0(14)
C7 N1 C2 117.75(13)
N3 N2 C4 115.46(13)
N4 N3 N2 173.26(17)
O1 C1 O2 118.07(14)
O1 C1 C2 122.04(14)
O2 C1 C2 119.65(13)
N1 C2 C1 109.13(12)
N1 C2 H2 106.7
N1 C2 C3 112.22(13)
C1 C2 H2 106.7
C3 C2 C1 115.01(13)
C3 C2 H2 106.7
C2 C3 H3A 109.4
C2 C3 H3B 109.4
H3A C3 H3B 108.0
C4 C3 C2 111.39(13)
C4 C3 H3A 109.4
C4 C3 H3B 109.4
N2 C4 C3 105.25(12)
N2 C4 C5 110.71(14)
N2 C4 C6 110.35(13)
C3 C4 C5 107.96(12)
C3 C4 C6 112.34(14)
C5 C4 C6 110.12(13)
O2 C5 C4 113.30(12)
O2 C5 H5A 108.9
O2 C5 H5B 108.9
C4 C5 H5A 108.9
C4 C5 H5B 108.9
H5A C5 H5B 107.7
C4 C6 H6A 109.5
C4 C6 H6B 109.5
C4 C6 H6C 109.5
H6A C6 H6B 109.5
H6A C6 H6C 109.5
H6B C6 H6C 109.5
O3 C7 O4 125.49(14)
O3 C7 N1 123.29(15)
N1 C7 O4 111.22(13)
O4 C8 C9 111.61(15)
O4 C8 C10 102.50(13)
O4 C8 C11 108.87(14)
C9 C8 C10 110.34(16)
C9 C8 C11 112.72(16)
C10 C8 C11 110.32(16)
C8 C9 H9A 109.5
C8 C9 H9B 109.5
C8 C9 H9C 109.5
H9A C9 H9B 109.5
H9A C9 H9C 109.5
H9B C9 H9C 109.5
C8 C10 H10A 109.5
C8 C10 H10B 109.5
C8 C10 H10C 109.5
H10A C10 H10B 109.5
H10A C10 H10C 109.5
H10B C10 H10C 109.5
C8 C11 H11A 109.5
C8 C11 H11B 109.5
C8 C11 H11C 109.5
H11A C11 H11B 109.5
H11A C11 H11C 109.5
H11B C11 H11C 109.5
loop_
_geom_bond_atom_site_label_1
_geom_bond_atom_site_label_2
_geom_bond_distance
O1 C1 1.206(2)
O2 C1 1.3384(19)
O2 C5 1.449(2)
O3 C7 1.220(2)
O4 C7 1.3530(19)
O4 C8 1.472(2)
N1 H1 0.87(2)
N1 C2 1.448(2)
N1 C7 1.346(2)
N2 N3 1.229(2)
N2 C4 1.505(2)
N3 N4 1.138(2)
C1 C2 1.538(2)
C2 H2 1.0000
C2 C3 1.534(2)
C3 H3A 0.9900
C3 H3B 0.9900
C3 C4 1.519(2)
C4 C5 1.520(2)
C4 C6 1.521(2)
C5 H5A 0.9900
C5 H5B 0.9900
C6 H6A 0.9800
C6 H6B 0.9800
C6 H6C 0.9800
C8 C9 1.519(3)
C8 C10 1.522(2)
C8 C11 1.524(2)
C9 H9A 0.9800
C9 H9B 0.9800
C9 H9C 0.9800
C10 H10A 0.9800
C10 H10B 0.9800
C10 H10C 0.9800
C11 H11A 0.9800
C11 H11B 0.9800
C11 H11C 0.9800
