#------------------------------------------------------------------------------
#$Date: 2019-11-11 18:52:09 +0200 (Mon, 11 Nov 2019) $
#$Revision: 226947 $
#$URL: file:///home/coder/svn-repositories/cod/cif/4/03/54/4035497.cif $
#------------------------------------------------------------------------------
#
# This file is available in the Crystallography Open Database (COD),
# http://www.crystallography.net/
#
# All data on this site have been placed in the public domain by the
# contributors.
#
data_4035497
loop_
_publ_author_name
'Guo, Shenghai'
'Wang, Fang'
'Tao, Li'
'Zhang, Xinying'
'Fan, Xuesen'
_publ_section_title
;
 Solvent-Dependent Copper-Catalyzed Indolyl C3-Oxygenation and
 N1-Cyclization Reactions: Selective Synthesis of 3 H-Indol-3-ones and
 Indolo[1,2- c]quinazolines.
;
_journal_issue                   7
_journal_name_full               'The Journal of organic chemistry'
_journal_page_first              3889
_journal_page_last               3896
_journal_paper_doi               10.1021/acs.joc.8b00231
_journal_volume                  83
_journal_year                    2018
_chemical_formula_moiety         'C21 H14 N2 O2'
_chemical_formula_sum            'C21 H14 N2 O2'
_chemical_formula_weight         326.34
_space_group_crystal_system      monoclinic
_space_group_IT_number           4
_space_group_name_Hall           'P 2yb'
_space_group_name_H-M_alt        'P 1 21 1'
_atom_sites_solution_hydrogens   geom
_atom_sites_solution_primary     direct
_audit_creation_date             2017-07-27
_audit_creation_method
;
Olex2 1.2-alpha
(compiled 2017.03.28 svn.r3405 for OlexSys, GUI svn.r5335)
;
_cell_angle_alpha                90
_cell_angle_beta                 90.250(3)
_cell_angle_gamma                90
_cell_formula_units_Z            2
_cell_length_a                   4.5911(2)
_cell_length_b                   14.4019(4)
_cell_length_c                   12.1555(4)
_cell_measurement_reflns_used    2667
_cell_measurement_temperature    297.28(12)
_cell_measurement_theta_max      71.5490
_cell_measurement_theta_min      4.7430
_cell_volume                     803.72(5)
_computing_molecular_graphics    'Olex2 (Dolomanov et al., 2009)'
_computing_publication_material  'Olex2 (Dolomanov et al., 2009)'
_computing_structure_refinement  'ShelXL (Sheldrick, 2015)'
_computing_structure_solution    'ShelXS (Sheldrick, 2008)'
_diffrn_ambient_temperature      297.28(12)
_diffrn_detector_area_resol_mean 8.0528
_diffrn_measured_fraction_theta_full 0.984
_diffrn_measured_fraction_theta_max 0.966
_diffrn_measurement_device_type  'four-circle diffractometer'
_diffrn_measurement_method       '\w scans'
_diffrn_radiation_monochromator  mirror
_diffrn_radiation_type           CuK\a
_diffrn_radiation_wavelength     1.54184
_diffrn_reflns_av_R_equivalents  0.0303
_diffrn_reflns_av_unetI/netI     0.0380
_diffrn_reflns_Laue_measured_fraction_full 0.984
_diffrn_reflns_Laue_measured_fraction_max 0.966
_diffrn_reflns_limit_h_max       5
_diffrn_reflns_limit_h_min       -5
_diffrn_reflns_limit_k_max       17
_diffrn_reflns_limit_k_min       -17
_diffrn_reflns_limit_l_max       14
_diffrn_reflns_limit_l_min       -14
_diffrn_reflns_number            5528
_diffrn_reflns_point_group_measured_fraction_full 0.927
_diffrn_reflns_point_group_measured_fraction_max 0.897
_diffrn_reflns_theta_full        67.684
_diffrn_reflns_theta_max         72.340
_diffrn_reflns_theta_min         3.636
_diffrn_source                   'micro-focus sealed X-ray tube'
_exptl_absorpt_coefficient_mu    0.709
_exptl_absorpt_correction_T_max  1.00000
_exptl_absorpt_correction_T_min  0.08235
_exptl_absorpt_correction_type   multi-scan
_exptl_crystal_colour            'clear light red'
_exptl_crystal_colour_lustre     clear
_exptl_crystal_colour_modifier   light
_exptl_crystal_colour_primary    red
_exptl_crystal_density_diffrn    1.348
_exptl_crystal_description       block
_exptl_crystal_F_000             340
_exptl_crystal_size_max          0.21
_exptl_crystal_size_mid          0.19
_exptl_crystal_size_min          0.18
_refine_diff_density_max         0.129
_refine_diff_density_min         -0.129
_refine_diff_density_rms         0.029
_refine_ls_abs_structure_details
;
 Flack x determined using 913 quotients [(I+)-(I-)]/[(I+)+(I-)]
 (Parsons, Flack and Wagner, Acta Cryst. B69 (2013) 249-259).
;
_refine_ls_abs_structure_Flack   -0.1(3)
_refine_ls_extinction_method     none
_refine_ls_goodness_of_fit_ref   1.048
_refine_ls_hydrogen_treatment    constr
_refine_ls_matrix_type           full
_refine_ls_number_parameters     226
_refine_ls_number_reflns         2854
_refine_ls_number_restraints     1
_refine_ls_restrained_S_all      1.048
_refine_ls_R_factor_all          0.0512
_refine_ls_R_factor_gt           0.0446
_refine_ls_shift/su_max          0.000
_refine_ls_shift/su_mean         0.000
_refine_ls_structure_factor_coef Fsqd
_refine_ls_weighting_details
'w=1/[\s^2^(Fo^2^)+(0.0510P)^2^+0.0513P] where P=(Fo^2^+2Fc^2^)/3'
_refine_ls_weighting_scheme      calc
_refine_ls_wR_factor_gt          0.1108
_refine_ls_wR_factor_ref         0.1167
_reflns_Friedel_coverage         0.783
_reflns_Friedel_fraction_full    0.865
_reflns_Friedel_fraction_max     0.823
_reflns_number_gt                2507
_reflns_number_total             2854
_reflns_threshold_expression     'I > 2\s(I)'
_iucr_refine_instructions_details
;

    2a.res created by SHELXL-2014/7

TITL 2a in P21 #4
REM reset to P21 #4
CELL 1.54184 4.5911 14.4019 12.1555 90 90.25 90
ZERR 2 0.0002 0.0004 0.0004 0 0.003 0
LATT -1
SYMM -X,0.5+Y,-Z
SFAC C H N O
UNIT 42 28 4 4
 
L.S. 4
PLAN  5
TEMP 24.13(12)
BOND
fmap 2
ACTA
REM <olex2.extras>
REM <HklSrc "%.\\2a.hkl">
REM </olex2.extras>
 
WGHT    0.051000    0.051300
FVAR       1.09711
O1    4   -0.454725    0.782937    0.017014    11.00000    0.17322    0.10873 =
         0.07177   -0.00199   -0.02370    0.08399
O2    4    0.343922    0.584691    0.493522    11.00000    0.09727    0.11787 =
         0.04538   -0.00285   -0.00747    0.01772
N1    3   -0.136735    0.700033    0.121197    11.00000    0.06312    0.04914 =
         0.04348   -0.00220   -0.00392    0.00534
AFIX  43
H1    2   -0.008944    0.656547    0.116782    11.00000   -1.20000
AFIX   0
N2    3    0.258889    0.586621    0.207625    11.00000    0.05327    0.05144 =
         0.04776   -0.00123   -0.00351    0.00053
C1    1   -0.014387    0.586978   -0.066217    11.00000    0.12061    0.10593 =
         0.05348   -0.02007   -0.01924    0.04524
AFIX  43
H1A   2    0.069902    0.570425    0.000671    11.00000   -1.20000
AFIX   0
C2    1    0.044253    0.535159   -0.159488    11.00000    0.13858    0.13438 =
         0.07548   -0.03864   -0.01333    0.06200
AFIX  43
H2    2    0.166170    0.483761   -0.154314    11.00000   -1.20000
AFIX   0
C3    1   -0.073713    0.558308   -0.258446    11.00000    0.11601    0.10753 =
         0.06035   -0.02594    0.00503   -0.00933
AFIX  43
H3    2   -0.032017    0.523529   -0.320889    11.00000   -1.20000
AFIX   0
C4    1   -0.253723    0.633128   -0.264773    11.00000    0.14587    0.11017 =
         0.05141   -0.00648   -0.01620   -0.00389
AFIX  43
H4    2   -0.337129    0.649470   -0.331891    11.00000   -1.20000
AFIX   0
C5    1   -0.312929    0.684721   -0.172339    11.00000    0.12484    0.08884 =
         0.05535    0.00274   -0.02263    0.02537
AFIX  43
H5    2   -0.435460    0.735906   -0.178375    11.00000   -1.20000
AFIX   0
C6    1   -0.196761    0.662928   -0.071720    11.00000    0.07362    0.05562 =
         0.04675    0.00512   -0.00273   -0.00094
C7    1   -0.274808    0.721862    0.024954    11.00000    0.08419    0.05382 =
         0.04900    0.00572   -0.00628    0.01106
C8    1   -0.173295    0.738157    0.225590    11.00000    0.05295    0.04411 =
         0.04822   -0.00508    0.00291   -0.01124
C9    1   -0.365567    0.811936    0.245096    11.00000    0.06539    0.04942 =
         0.06609   -0.00436    0.00254    0.00068
AFIX  43
H9    2   -0.471953    0.837519    0.187299    11.00000   -1.20000
AFIX   0
C10   1   -0.396279    0.846247    0.349596    11.00000    0.07045    0.06070 =
         0.07512   -0.02120    0.00818    0.00111
AFIX  43
H10   2   -0.521070    0.896152    0.361052    11.00000   -1.20000
AFIX   0
C11   1   -0.249096    0.809433    0.437840    11.00000    0.06737    0.08671 =
         0.06356   -0.03113    0.00560   -0.00550
AFIX  43
H11   2   -0.276300    0.833552    0.508019    11.00000   -1.20000
AFIX   0
C12   1   -0.059064    0.735778    0.421285    11.00000    0.06309    0.07571 =
         0.05218   -0.01788   -0.00102   -0.00745
AFIX  43
H12   2    0.041144    0.710621    0.480887    11.00000   -1.20000
AFIX   0
C13   1   -0.016224    0.698741    0.315519    11.00000    0.04784    0.05224 =
         0.04667   -0.00819    0.00159   -0.01012
C14   1    0.189428    0.622940    0.301982    11.00000    0.04602    0.05273 =
         0.04348   -0.00318   -0.00280   -0.00949
C15   1    0.359358    0.573340    0.395578    11.00000    0.05181    0.07000 =
         0.04746    0.00242   -0.00316   -0.00894
C16   1    0.538612    0.504879    0.336050    11.00000    0.04833    0.05871 =
         0.04954    0.00588   -0.00682   -0.00909
C17   1    0.735747    0.438044    0.370789    11.00000    0.05971    0.07358 =
         0.05983    0.01688   -0.01100   -0.00389
AFIX  43
H17   2    0.781999    0.431047    0.444890    11.00000   -1.20000
AFIX   0
C18   1    0.861214    0.382193    0.291783    11.00000    0.05831    0.06122 =
         0.07845    0.00923   -0.01438    0.00177
AFIX  43
H18   2    0.995188    0.337048    0.312790    11.00000   -1.20000
AFIX   0
C19   1    0.790247    0.392531    0.181943    11.00000    0.06103    0.05623 =
         0.07678   -0.00962   -0.00631    0.00147
AFIX  43
H19   2    0.878151    0.354117    0.130321    11.00000   -1.20000
AFIX   0
C20   1    0.590724    0.458898    0.146503    11.00000    0.06069    0.05899 =
         0.05995   -0.00669   -0.00937    0.00258
AFIX  43
H20   2    0.542077    0.465293    0.072541    11.00000   -1.20000
AFIX   0
C21   1    0.468303    0.514782    0.225971    11.00000    0.04510    0.04866 =
         0.05130    0.00153   -0.00758   -0.00845
HKLF 4
 
REM  2a in P21 #4
REM R1 =  0.0446 for    2507 Fo > 4sig(Fo)  and  0.0512 for all    2854 data
REM    226 parameters refined using      1 restraints
 
END  
     
WGHT      0.0510      0.0512 

REM Highest difference peak  0.129,  deepest hole -0.129,  1-sigma level  0.029
Q1    1  -0.2365  0.8105  0.0200  11.00000  0.05    0.13
Q2    1  -0.1604  0.6588 -0.3739  11.00000  0.05    0.11
Q3    1   0.6623  0.4338  0.4954  11.00000  0.05    0.10
Q4    1  -0.2042  0.5999  0.1399  11.00000  0.05    0.10
Q5    1  -0.5080  0.7550  0.0305  11.00000  0.05    0.09

  REM The information below was added by Olex2.
  REM
  REM R1 = 0.0446 for 2507 Fo > 4sig(Fo) and 0.0512 for all 5551 data
  REM n/a parameters refined using n/a restraints
  REM Highest difference peak 0.13, deepest hole -0.13
  REM Mean Shift 0, Max Shift 0.000.

  REM +++ Tabular Listing of Refinement Information +++
  REM R1_all = 0.0512
  REM R1_gt = 0.0446
  REM wR_ref = 0.1167
  REM GOOF = 1.048
  REM Shift_max = 0.000
  REM Shift_mean = 0
  REM Reflections_all = 5551
  REM Reflections_gt = 2507
  REM Parameters = n/a
  REM Hole = -0.13
  REM Peak = 0.13
  REM Flack = -0.1(3)

  
;
_cod_data_source_file            jo8b00231_si_002.cif
_cod_data_source_block           2a
_cod_database_code               4035497
_shelx_shelxl_version_number     2014/7
_shelx_space_group_comment
;
The symmetry employed for this shelxl refinement is uniquely defined
by the following loop, which should always be used as a source of
symmetry information in preference to the above space-group names.
They are only intended as comments.
;
_olex2_refinement_description
;
1. Fixed Uiso
 At 1.2 times of:
  All C(H) groups, All N(H) groups
2.a Aromatic/amide H refined with riding coordinates:
 N1(H1), C1(H1A), C2(H2), C3(H3), C4(H4), C5(H5), C9(H9), C10(H10), C11(H11),
 C12(H12), C17(H17), C18(H18), C19(H19), C20(H20)
;
_olex2_submission_special_instructions 'No special instructions were received'
loop_
_space_group_symop_operation_xyz
'x, y, z'
'-x, y+1/2, -z'
loop_
_atom_site_label
_atom_site_type_symbol
_atom_site_fract_x
_atom_site_fract_y
_atom_site_fract_z
_atom_site_U_iso_or_equiv
_atom_site_adp_type
_atom_site_occupancy
_atom_site_site_symmetry_order
_atom_site_calc_flag
_atom_site_refinement_flags_posn
O1 O -0.4547(11) 0.7829(3) 0.0170(3) 0.1180(16) Uani 1 1 d .
O2 O 0.3439(7) 0.5847(3) 0.4935(2) 0.0869(10) Uani 1 1 d .
N1 N -0.1367(6) 0.70003(19) 0.1212(2) 0.0519(7) Uani 1 1 d .
H1 H -0.0089 0.6565 0.1168 0.062 Uiso 1 1 calc R
N2 N 0.2589(6) 0.58662(19) 0.2076(2) 0.0508(6) Uani 1 1 d .
C1 C -0.0144(12) 0.5870(4) -0.0662(3) 0.0934(16) Uani 1 1 d .
H1A H 0.0699 0.5704 0.0007 0.112 Uiso 1 1 calc R
C2 C 0.0443(15) 0.5352(5) -0.1595(5) 0.116(2) Uani 1 1 d .
H2 H 0.1662 0.4838 -0.1543 0.139 Uiso 1 1 calc R
C3 C -0.0737(13) 0.5583(4) -0.2584(4) 0.0946(17) Uani 1 1 d .
H3 H -0.0320 0.5235 -0.3209 0.114 Uiso 1 1 calc R
C4 C -0.2537(14) 0.6331(4) -0.2648(4) 0.1025(18) Uani 1 1 d .
H4 H -0.3371 0.6495 -0.3319 0.123 Uiso 1 1 calc R
C5 C -0.3129(12) 0.6847(4) -0.1723(4) 0.0897(15) Uani 1 1 d .
H5 H -0.4355 0.7359 -0.1784 0.108 Uiso 1 1 calc R
C6 C -0.1968(9) 0.6629(3) -0.0717(3) 0.0587(9) Uani 1 1 d .
C7 C -0.2748(9) 0.7219(2) 0.0250(3) 0.0624(10) Uani 1 1 d .
C8 C -0.1733(7) 0.7382(2) 0.2256(3) 0.0484(7) Uani 1 1 d .
C9 C -0.3656(9) 0.8119(3) 0.2451(3) 0.0603(9) Uani 1 1 d .
H9 H -0.4720 0.8375 0.1873 0.072 Uiso 1 1 calc R
C10 C -0.3963(9) 0.8462(3) 0.3496(4) 0.0687(11) Uani 1 1 d .
H10 H -0.5211 0.8962 0.3611 0.082 Uiso 1 1 calc R
C11 C -0.2491(9) 0.8094(3) 0.4378(4) 0.0725(12) Uani 1 1 d .
H11 H -0.2763 0.8336 0.5080 0.087 Uiso 1 1 calc R
C12 C -0.0591(9) 0.7358(3) 0.4213(3) 0.0637(10) Uani 1 1 d .
H12 H 0.0411 0.7106 0.4809 0.076 Uiso 1 1 calc R
C13 C -0.0162(7) 0.6987(2) 0.3155(3) 0.0489(7) Uani 1 1 d .
C14 C 0.1894(7) 0.6229(2) 0.3020(3) 0.0474(7) Uani 1 1 d .
C15 C 0.3594(8) 0.5733(3) 0.3956(3) 0.0564(8) Uani 1 1 d .
C16 C 0.5386(7) 0.5049(2) 0.3360(3) 0.0522(8) Uani 1 1 d .
C17 C 0.7357(9) 0.4380(3) 0.3708(3) 0.0644(10) Uani 1 1 d .
H17 H 0.7820 0.4310 0.4449 0.077 Uiso 1 1 calc R
C18 C 0.8612(9) 0.3822(3) 0.2918(4) 0.0660(10) Uani 1 1 d .
H18 H 0.9952 0.3370 0.3128 0.079 Uiso 1 1 calc R
C19 C 0.7902(9) 0.3925(3) 0.1819(4) 0.0647(10) Uani 1 1 d .
H19 H 0.8782 0.3541 0.1303 0.078 Uiso 1 1 calc R
C20 C 0.5907(8) 0.4589(3) 0.1465(3) 0.0599(9) Uani 1 1 d .
H20 H 0.5421 0.4653 0.0725 0.072 Uiso 1 1 calc R
C21 C 0.4683(7) 0.5148(2) 0.2260(3) 0.0484(7) Uani 1 1 d .
loop_
_atom_site_aniso_label
_atom_site_aniso_U_11
_atom_site_aniso_U_22
_atom_site_aniso_U_33
_atom_site_aniso_U_23
_atom_site_aniso_U_13
_atom_site_aniso_U_12
O1 0.173(4) 0.109(3) 0.072(2) -0.0020(19) -0.024(2) 0.084(3)
O2 0.097(2) 0.118(3) 0.0454(16) -0.0028(16) -0.0075(14) 0.018(2)
N1 0.0631(18) 0.0491(14) 0.0435(15) -0.0022(11) -0.0039(12) 0.0053(13)
N2 0.0533(16) 0.0514(15) 0.0478(15) -0.0012(11) -0.0035(12) 0.0005(13)
C1 0.121(4) 0.106(4) 0.053(2) -0.020(2) -0.019(2) 0.045(3)
C2 0.139(5) 0.134(5) 0.075(3) -0.039(3) -0.013(3) 0.062(4)
C3 0.116(4) 0.108(4) 0.060(3) -0.026(3) 0.005(3) -0.009(3)
C4 0.146(5) 0.110(4) 0.051(3) -0.006(3) -0.016(3) -0.004(4)
C5 0.125(4) 0.089(3) 0.055(3) 0.003(2) -0.023(2) 0.025(3)
C6 0.074(2) 0.0556(18) 0.0467(19) 0.0051(15) -0.0027(16) -0.0009(18)
C7 0.084(3) 0.054(2) 0.049(2) 0.0057(15) -0.0063(18) 0.0111(19)
C8 0.0530(19) 0.0441(15) 0.0482(18) -0.0051(13) 0.0029(14) -0.0112(14)
C9 0.065(2) 0.0494(17) 0.066(2) -0.0044(16) 0.0025(18) 0.0007(17)
C10 0.070(3) 0.061(2) 0.075(3) -0.021(2) 0.008(2) 0.0011(19)
C11 0.067(3) 0.087(3) 0.064(3) -0.031(2) 0.0056(19) -0.006(2)
C12 0.063(2) 0.076(2) 0.052(2) -0.0179(18) -0.0010(17) -0.007(2)
C13 0.0478(17) 0.0522(17) 0.0467(17) -0.0082(13) 0.0016(13) -0.0101(14)
C14 0.0460(18) 0.0527(16) 0.0435(17) -0.0032(13) -0.0028(13) -0.0095(13)
C15 0.0518(19) 0.070(2) 0.0475(19) 0.0024(16) -0.0032(14) -0.0089(17)
C16 0.0483(17) 0.0587(19) 0.0495(18) 0.0059(15) -0.0068(13) -0.0091(15)
C17 0.060(2) 0.074(2) 0.060(2) 0.0169(18) -0.0110(17) -0.0039(19)
C18 0.058(2) 0.061(2) 0.078(3) 0.0092(19) -0.0144(19) 0.0018(18)
C19 0.061(2) 0.0562(19) 0.077(3) -0.0096(18) -0.0063(18) 0.0015(18)
C20 0.061(2) 0.0590(19) 0.060(2) -0.0067(16) -0.0094(16) 0.0026(17)
C21 0.0451(17) 0.0487(15) 0.0513(18) 0.0015(14) -0.0076(13) -0.0084(14)
loop_
_atom_type_symbol
_atom_type_description
_atom_type_scat_dispersion_real
_atom_type_scat_dispersion_imag
_atom_type_scat_source
C C 0.0181 0.0091 'International Tables Vol C Tables 4.2.6.8 and 6.1.1.4'
H H 0.0000 0.0000 'International Tables Vol C Tables 4.2.6.8 and 6.1.1.4'
N N 0.0311 0.0180 'International Tables Vol C Tables 4.2.6.8 and 6.1.1.4'
O O 0.0492 0.0322 'International Tables Vol C Tables 4.2.6.8 and 6.1.1.4'
loop_
_geom_angle_atom_site_label_1
_geom_angle_atom_site_label_2
_geom_angle_atom_site_label_3
_geom_angle
C7 N1 C8 129.2(3)
C14 N2 C21 108.7(3)
C6 C1 C2 120.5(5)
C3 C2 C1 121.0(5)
C2 C3 C4 119.0(5)
C3 C4 C5 120.3(5)
C6 C5 C4 121.9(5)
C1 C6 C7 124.1(3)
C5 C6 C1 117.3(4)
C5 C6 C7 118.6(4)
O1 C7 N1 123.4(4)
O1 C7 C6 121.1(4)
N1 C7 C6 115.5(3)
N1 C8 C9 122.1(3)
N1 C8 C13 118.6(3)
C9 C8 C13 119.3(3)
C10 C9 C8 119.8(4)
C9 C10 C11 122.2(4)
C10 C11 C12 119.3(4)
C11 C12 C13 120.8(4)
C8 C13 C14 122.6(3)
C12 C13 C8 118.5(3)
C12 C13 C14 118.8(3)
N2 C14 C13 124.3(3)
N2 C14 C15 109.7(3)
C13 C14 C15 126.0(3)
O2 C15 C14 129.1(4)
O2 C15 C16 127.6(4)
C16 C15 C14 103.2(3)
C17 C16 C15 132.8(3)
C21 C16 C15 106.1(3)
C21 C16 C17 121.1(4)
C18 C17 C16 117.8(4)
C17 C18 C19 120.8(4)
C18 C19 C20 121.7(4)
C21 C20 C19 117.0(3)
C16 C21 N2 112.3(3)
C20 C21 N2 126.1(3)
C20 C21 C16 121.6(3)
loop_
_geom_bond_atom_site_label_1
_geom_bond_atom_site_label_2
_geom_bond_distance
O1 C7 1.210(5)
O2 C15 1.204(4)
N1 C7 1.365(4)
N1 C8 1.393(4)
N2 C14 1.302(4)
N2 C21 1.429(4)
C1 C2 1.385(6)
C1 C6 1.379(6)
C2 C3 1.359(7)
C3 C4 1.360(8)
C4 C5 1.375(7)
C5 C6 1.369(5)
C6 C7 1.494(5)
C8 C9 1.402(5)
C8 C13 1.425(5)
C9 C10 1.371(6)
C10 C11 1.372(6)
C11 C12 1.389(6)
C12 C13 1.407(5)
C13 C14 1.453(5)
C14 C15 1.551(5)
C15 C16 1.476(5)
C16 C17 1.386(5)
C16 C21 1.382(5)
C17 C18 1.381(6)
C18 C19 1.381(6)
C19 C20 1.391(5)
C20 C21 1.379(5)
loop_
_refln_index_h
_refln_index_k
_refln_index_l
_refln_F_squared_meas
_refln_F_squared_sigma
0 0 -1 96.7 2.07
0 0 -2 2157.08 15.65
0 0 2 2234.08 14.78
0 0 -3 0.09 0.92
0 0 3 0.52 0.42
0 0 4 258.61 6.2
0 0 4 256.93 7.62
0 0 5 36.19 3.33
0 0 -5 36.86 4.3
0 0 -5 36.24 4.35
0 0 5 37.26 2.85
0 0 6 157.2 5.99
0 0 6 144.75 5.99
0 0 6 145.48 7.75
0 0 -6 145.35 10.16
0 0 -6 174.7 11.05
0 0 6 151.16 6.54
0 0 -7 2.36 2.64
0 0 -7 6.44 3.54
0 0 7 2.72 1.14
0 0 -8 6.22 4.55
0 0 -8 12.28 5.11
0 0 -9 5.07 5.08
0 0 -9 -0.9 5
0 0 9 0.45 1.21
0 0 10 3.1 1.38
0 0 11 41.79 3.95
0 0 12 15.51 2.52
0 0 13 1.37 0.96
0 0 -13 3.81 2.68
0 0 -14 13.23 4.05
0 -1 1 2204.4 12.26
0 -1 -1 2256.19 11.29
0 -1 1 2232.58 12.25
0 -1 1 2212.45 12.6
0 1 1 2257.14 15.28
0 1 -2 1635.34 14.83
0 -1 2 1627.86 11.3
0 1 -2 1695.18 18.9
0 1 2 1705.16 15.77
0 1 2 1609.04 13.1
0 -1 2 1641.8 10.95
0 -1 2 1625.21 10.45
0 -1 -2 1626.79 13.12
0 1 3 197.97 6.42
0 1 3 173.25 5.24
0 -1 -3 182.14 5.72
0 -1 3 177.33 4.36
0 -1 3 189.53 4.17
0 1 -3 166.68 7.07
0 1 -3 160.59 5.97
0 1 -4 191.82 8.08
0 -1 4 200.83 5
0 1 -4 179.03 8.78
0 1 4 196.3 6.08
0 -1 -4 173.23 7.24
0 -1 4 174.7 5.04
0 -1 4 199.67 6.57
0 -1 5 577.07 10.09
0 -1 5 589.16 9.05
0 -1 5 594.31 13.04
0 1 -5 543.83 18.39
0 -1 -5 497.13 14.98
0 1 5 548.33 11.69
0 -1 5 539.56 10.15
0 1 -5 592.53 17.27
0 -1 -6 15.57 3.46
0 1 6 14.4 2.08
0 -1 6 13.26 2.26
0 -1 -6 15.98 3.88
0 -1 6 14.25 1.9
0 1 6 12.77 2.09
0 1 -6 13.52 3.95
0 -1 -7 28.25 6.34
0 -1 -7 30.15 5.78
0 -1 7 23.05 3.38
0 -1 7 24.24 2.84
0 -1 -7 27.45 5.18
0 1 7 25.89 2.93
0 1 -7 21.99 5.82
0 -1 8 65.59 7.05
0 -1 -8 67.99 9.84
0 -1 -8 67.38 11.39
0 -1 -8 75.06 10.79
0 1 -8 77.06 13.15
0 1 -9 43.99 12.31
0 -1 9 36.81 6
0 1 -9 42.58 12.89
0 -1 -9 37.76 10.55
0 -1 -9 37.66 9.66
0 1 9 37.36 6.21
0 -1 10 574.64 13.14
0 1 10 576.38 13.76
0 -1 11 245.85 9.06
0 1 11 245.1 9.4
0 1 12 26.23 3.2
0 -1 -12 39.11 6.78
0 1 13 3.93 1.3
0 -1 -13 5.99 3.16
0 1 -14 6.97 2.97
0 -1 -14 6 3.46
0 1 14 5.16 1.26
0 2 0 3200.05 25.38
0 -2 0 3248.64 27.28
0 2 -1 772.88 5.4
0 2 1 777.9 12.4
0 2 -1 785.28 15.6
0 -2 -1 757.18 7.95
0 -2 1 776.24 13.74
0 2 2 907.86 13.67
0 -2 2 915.12 10.46
0 -2 2 928.17 10.96
0 -2 -2 953.73 10.71
0 2 -2 908.41 18.8
0 -2 3 478.15 7.22
0 -2 -3 445.69 9.21
0 -2 3 458.27 7.06
0 2 3 467.15 10.6
0 2 -3 471.39 15.15
0 -2 4 525.01 11.42
0 -2 4 507.85 7.72
0 2 4 471.06 10.59
0 2 4 532.1 12.53
0 -2 4 456.15 8.55
0 2 -4 465.02 16.99
0 -2 -4 530.4 15.55
0 -2 -4 505.3 12.19
0 -2 5 399.51 10.97
0 -2 5 336.86 7.95
0 2 -5 385.39 17.96
0 -2 -5 434.33 16.56
0 -2 -5 374.74 13.16
0 -2 5 420.12 8.15
0 2 5 374.07 10.48
0 -2 6 113.09 6.49
0 -2 -6 106.47 8.61
0 2 -6 123.21 12.24
0 -2 6 117.75 5.1
0 -2 -6 122.77 10.4
0 2 -7 356.75 24.51
0 -2 -7 340.22 20.76
0 2 7 318.96 11.21
0 -2 7 323.42 12.56
0 -2 -7 324.04 17.76
0 -2 -8 15.73 5.54
0 -2 -8 16.7 4.75
0 2 -8 22.45 8.86
0 -2 -8 18.32 6.25
0 -2 8 12.77 3
0 -2 8 16.84 3.67
0 2 -9 202.51 26.22
0 -2 -9 167.44 17.63
0 2 9 164.88 12.84
0 -2 9 155.4 12.2
0 -2 -9 183.13 21.69
0 2 10 65.79 4.85
0 -2 10 62.45 4.45
0 -2 -11 41.56 6.68
0 2 11 32.44 3.7
0 -2 -12 5.58 3.33
0 2 12 2.09 1.19
0 -2 -13 3.21 3.03
0 2 13 2.85 1.25
0 2 -14 4.54 2.6
0 -2 -14 5.55 3.64
0 2 14 5.01 1.25
0 3 0 -1.18 1.24
0 -3 0 0.3 0.45
0 -3 0 -0.04 1.37
0 3 0 1.12 1.41
0 3 -1 3169.76 34.8
0 -3 1 3056.63 33.42
0 3 1 3093.96 30.62
0 -3 -1 3034.45 18.4
0 -3 1 2959.38 15.17
0 -3 2 402.73 9.47
0 -3 2 388.09 8.72
0 3 2 395.4 10.74
0 3 -2 422.59 15.18
0 -3 -2 421.6 7.89
0 3 -3 205.48 11.75
0 3 3 202.66 7.97
0 -3 -3 200.9 9.2
0 -3 -3 187.48 6.22
0 -3 3 205.49 5.72
0 -3 3 205.12 8.19
0 -3 3 205.54 5.86
0 3 4 153.01 7.35
0 -3 4 162.74 4.62
0 3 -4 157.65 11.55
0 -3 -4 163.69 7.17
0 -3 4 137.28 4.76
0 -3 4 162.77 7.33
0 -3 4 176.42 5.06
0 -3 -4 167.92 9.38
0 3 5 349.83 11.93
0 -3 -5 331.47 15.03
0 -3 5 358.5 7.17
0 3 -5 322.09 18.63
0 -3 -5 313.59 12.23
0 -3 5 357.5 11.17
0 3 -6 511.87 26.84
0 -3 6 490.96 13.92
0 -3 -6 491.48 21.28
0 -3 -6 448.11 17.65
0 -3 -7 6.01 2.82
0 3 7 6.7 1.85
0 -3 7 8.69 2.43
0 3 -7 11.94 6.26
0 -3 -7 6.07 3.32
0 -3 7 6.61 2.06
0 -3 -8 172.88 15.63
0 -3 -8 158.96 13.32
0 -3 8 151.82 9.84
0 -3 8 162.48 11.25
0 -3 -8 149.45 16.52
0 3 8 177.72 12.2
0 -3 9 85.63 8.31
0 -3 -9 113.97 15.44
0 -3 -9 96.75 12.93
0 3 10 26.8 3.27
0 -3 10 23.6 2.79
0 -3 -10 32.63 5.88
0 3 11 122.15 7.01
0 -3 11 119.34 6.14
0 -3 12 19.88 2.54
0 -3 -12 21.54 5.18
0 3 12 17.8 2.76
0 3 13 -0.43 0.97
0 -3 -13 -1.27 2.42
0 3 -14 5.64 2.55
0 3 14 4.55 1.27
0 -3 -14 9.48 3.96
0 -4 0 282.67 11.55
0 4 0 278.82 10.55
0 4 0 280.42 10.98
0 -4 0 277.93 5.54
0 4 1 825.07 18.21
0 -4 -1 880.39 11.02
0 -4 1 845.02 20.43
0 -4 -1 841.26 20.31
0 4 -1 854.01 20.37
0 -4 1 792.72 8.52
0 4 2 247.68 9.79
0 -4 -2 237.44 10.83
0 -4 2 228.15 4.42
0 -4 2 236.13 4.94
0 -4 2 249.09 9.33
0 -4 -2 259.78 6.84
0 4 -2 246.14 12.15
0 4 -2 240.43 4.48
0 -4 3 3.88 1.92
0 -4 3 3.92 0.94
0 4 -3 6.32 3.34
0 -4 -3 4.13 1.22
0 4 3 2.95 1.32
0 -4 3 3.76 1.18
0 -4 -3 3.46 1.43
0 -4 3 3.45 1.18
0 -4 4 1317.16 14.74
0 -4 4 1375.35 16.1
0 -4 4 1346.04 19.14
0 -4 -4 1252.15 28.31
0 4 4 1299.45 22.93
0 -4 4 1316.71 23.44
0 4 -4 1428.2 37.76
0 -4 -4 1316.03 21.32
0 4 -5 785.99 31.6
0 -4 -5 687.57 18.89
0 -4 5 730.3 17.46
0 -4 5 780.68 17.11
0 -4 -5 725.54 23.77
0 4 5 739.85 18.26
0 -4 6 71.2 5.74
0 -4 -6 57.82 7.71
0 4 -6 65.77 10.91
0 -4 -6 54.68 6.37
0 -4 6 72.4 5.99
0 -4 -7 130.04 13.38
0 -4 -7 107.29 10.61
0 4 7 126.72 7.92
0 4 -7 155.26 19.01
0 -4 7 139.37 8.57
0 -4 -8 74.69 12.01
0 4 8 98.34 9.41
0 -4 8 84.08 7.33
0 4 8 81.11 7.04
0 -4 -8 78.5 11.1
0 4 9 199.89 8.27
0 -4 -9 207.77 12.6
0 -4 9 225.72 7.7
0 4 10 40.9 4.06
0 -4 -10 51.15 7.03
0 -4 10 40.9 3.58
0 -4 -11 49.67 7.71
0 4 11 38.26 3.99
0 -4 11 39.42 3.54
0 -4 12 9.64 2.02
0 -4 -12 13.32 4.33
0 4 12 6.99 1.66
0 -4 13 4.74 1.34
0 4 13 3.96 1.49
0 -4 -13 4.1 2.82
0 4 14 3.81 1.15
0 -4 -14 4.35 3.14
0 5 0 1.64 1.58
0 5 0 -0.63 1.61
0 -5 0 1.35 1.94
0 -5 0 2 0.55
0 -5 1 121.08 8.88
0 -5 -1 136.94 4.7
0 -5 -1 127.72 9.19
0 5 -1 123.37 8.49
0 -5 1 124 3.54
0 5 1 145.34 4.55
0 5 1 122.18 7.9
0 5 -1 132.6 4.66
0 5 2 24.16 3.58
0 5 -2 23.07 4.07
0 -5 2 25.91 3.75
0 -5 2 26.64 4.72
0 -5 -2 22.04 3.9
0 -5 -2 28.29 2.49
0 -5 2 23.5 1.29
0 5 -2 27.99 1.89
0 -5 3 46.72 3.99
0 -5 -3 36.06 3.52
0 5 -3 38.65 5.96
0 5 3 39.59 4.3
0 -5 3 42.22 3.64
0 -5 -3 37.69 5.12
0 -5 3 35.91 4.8
0 5 4 614.72 17.33
0 -5 -4 567.43 20.49
0 -5 -4 584.06 15.72
0 -5 4 610.33 17.99
0 5 -4 643.4 26.04
0 -5 5 520.94 16.35
0 5 -5 539.48 26.88
0 -5 -5 487.28 16.8
0 -5 -5 483 20.75
0 5 5 511.92 16.4
0 5 -6 138.78 15.94
0 5 6 127.17 8
0 -5 -6 112.56 9.5
0 -5 6 138.68 8.63
0 -5 -6 119.55 11.77
0 5 6 129.42 8.85
0 -5 7 54.65 5.78
0 5 7 63.13 6.98
0 -5 -7 51.53 7.79
0 5 7 55.4 5.71
0 5 -7 61.87 12.56
0 -5 -7 44.66 8.25
0 -5 -8 53.08 9.39
0 5 8 45.36 6.59
0 -5 -8 42.06 9.18
0 5 8 38.77 5.26
0 5 -8 54.74 13.93
0 -5 8 44.98 5.63
0 5 9 51.01 3.84
0 -5 9 48.86 3.74
0 -5 -9 52.03 6.36
0 5 9 46.8 4.21
0 5 10 78.07 5.69
0 -5 10 90.93 5.21
0 5 10 89.97 5.22
0 5 -10 100.8 6.52
0 -5 -10 95.09 9.36
0 5 11 25.52 3.3
0 -5 11 24.84 2.8
0 -5 12 0.83 0.93
0 -5 -12 0.72 2.73
0 5 12 0.21 0.97
0 -5 13 2.06 0.98
0 5 13 1.6 1.11
0 5 14 7.27 1.39
0 -5 -14 10.45 3.72
0 6 0 377.99 15.76
0 -6 0 384.09 17.17
0 6 -1 48.9 5.84
0 6 1 50.59 5.69
0 6 -1 60.4 3.63
0 -6 -1 65.32 3.57
0 -6 1 57.72 7.03
0 -6 -1 50.83 6.22
0 6 -1 53.09 6.1
0 -6 1 54.49 2.45
0 6 2 419.3 15.78
0 -6 2 434 19.17
0 -6 -2 487.92 11.27
0 6 -2 395.59 17.73
0 -6 2 460.31 16.79
0 -6 -2 424.6 18.41
0 -6 -3 115.89 6.42
0 -6 3 125.87 7.41
0 -6 3 109.77 9.13
0 -6 -3 103.8 9.4
0 6 -3 103.46 9.8
0 6 3 120.49 8.26
0 6 4 267.38 12.6
0 -6 4 267.12 13.28
0 6 -4 277.13 17.58
0 -6 -4 300.4 12.12
0 -6 -4 246.13 15.03
0 6 -5 196.07 16.73
0 6 5 190.75 10.76
0 -6 5 193.26 11.06
0 -6 -5 198.54 11.44
0 -6 -5 185.66 14.09
0 6 6 39.22 5.23
0 6 6 29.37 4.65
0 6 6 38.61 4.71
0 -6 6 30.98 4.4
0 -6 -6 30.61 6.32
0 -6 -6 25.4 5.26
0 6 -6 28 8.18
0 6 -7 14.68 6.95
0 6 7 12.8 3.02
0 6 7 12.84 3.38
0 -6 -7 11.77 4.8
0 -6 7 15.9 3.48
0 -6 -7 17.94 5.4
0 6 8 18.44 4.32
0 6 8 13.45 3.35
0 -6 -9 54.64 6.77
0 -6 9 57.15 4.08
0 6 9 55.8 4.22
0 6 9 51.71 4.53
0 -6 -10 75.58 8.55
0 6 10 67.69 5.28
0 6 -10 91.71 6.09
0 6 10 78.1 4.99
0 -6 10 78.8 4.87
0 -6 11 13.49 2.13
0 -6 -11 16.43 4.62
0 6 11 14.44 2.58
0 6 -11 17.55 2.98
0 6 11 15.6 2.33
0 -6 -12 11.11 4.09
0 -6 12 5.93 1.57
0 6 12 7.84 1.78
0 6 13 9.8 1.85
0 -6 -13 9.56 3.87
0 -6 13 6.08 1.33
0 6 14 6.81 1.23
0 7 0 1.03 1.7
0 7 0 0.49 0.72
0 -7 0 1.62 1.83
0 -7 0 0.16 0.64
0 -7 1 108.74 10.45
0 -7 -1 128.15 5.57
0 7 -1 96.47 8.51
0 -7 1 118.03 11.83
0 7 1 108.65 6.21
0 7 -1 102.7 9.23
0 7 -1 122.13 5.92
0 7 1 98.98 8.45
0 -7 -1 102.13 9.78
0 7 -2 66.32 7.76
0 7 2 69.39 7
0 -7 2 73.31 7.78
0 -7 -2 63.51 7.86
0 -7 2 71.77 8.97
0 -7 -2 76.08 5.03
0 7 3 239.57 12.74
0 -7 3 236.08 14.6
0 7 -3 235.02 15.57
0 -7 -3 271.33 10.68
0 -7 -3 227.97 15.26
0 7 4 86.35 7.71
0 -7 4 95.04 8.9
0 7 -4 91.88 10.72
0 -7 -4 80.93 9.56
0 -7 -4 92.69 7.42
0 -7 -5 46.74 6.39
0 -7 -5 47.73 7.88
0 7 -5 55.55 9.21
0 7 5 59.02 5.78
0 7 5 56.82 6.45
0 -7 5 61.93 7.04
0 7 6 40.66 5.69
0 -7 -6 30.85 6.34
0 7 6 44.93 5.5
0 -7 -6 44 8.2
0 -7 6 42.89 5.73
0 7 -6 52.79 10.1
0 7 -7 23.5 7.36
0 -7 -7 36.93 7.6
0 7 7 32.33 4.97
0 -7 7 35.66 5.34
0 -7 -7 28.48 7.49
0 -7 8 26.5 2.81
0 7 8 22.1 2.68
0 7 8 17.44 2.69
0 -7 -8 14.05 3.24
0 -7 -9 0.02 1.74
0 -7 9 0.18 0.89
0 7 9 0.36 0.95
0 7 9 0.33 1.28
0 -7 10 1.13 0.96
0 7 10 3.49 1.39
0 -7 -10 0.49 2.33
0 7 10 3.04 1.43
0 7 -10 3.55 1.69
0 -7 11 13.21 2.06
0 7 -11 16.56 2.74
0 7 11 13.32 2.38
0 7 11 14.67 2.24
0 -7 -11 16.76 4.14
0 -7 12 10.74 1.96
0 7 12 11.06 2.06
0 7 12 9.72 1.64
0 -7 -12 14.24 4.12
0 -7 -13 1.47 2.33
0 -7 13 0.75 0.79
0 7 13 1.46 0.78
0 -8 0 364.9 20.38
0 8 0 376.92 18.62
0 8 1 69.6 5.47
0 8 -1 63.14 7.99
0 -8 1 71.08 10.39
0 -8 -1 82.05 5.16
0 -8 1 64.01 8.95
0 -8 -1 69.14 8.79
0 8 1 62.56 7.39
0 -8 2 172.71 14.7
0 -8 -2 188.48 8.82
0 8 2 158.32 8.65
0 8 -2 159.22 12.55
0 8 2 157.45 11.27
0 -8 -2 141.69 12.54
0 8 -2 163.91 13.15
0 -8 -3 84.38 10.05
0 -8 3 105.1 10.55
0 8 -3 97.05 10.67
0 8 3 100.73 9.04
0 8 3 91.4 6.91
0 -8 -3 123.93 8.1
0 -8 -4 86.05 7.95
0 8 -4 87.83 11.03
0 -8 -4 75.15 9.97
0 8 4 80.7 6.84
0 -8 4 88.06 9.36
0 8 4 80.64 8.01
0 -8 -5 10.73 4.32
0 8 5 7.55 2.71
0 8 5 10.48 2.72
0 -8 5 7.64 2.88
0 -8 -5 6.61 2.72
0 8 -5 12.51 5.7
0 -8 -6 4.63 3.79
0 8 6 3.48 1.89
0 -8 6 1.17 1.66
0 8 6 2.48 1.82
0 8 -6 2.52 3.97
0 -8 -6 1.23 2.37
0 -8 -7 6.2 2.32
0 8 7 5.72 1.66
0 8 7 8.38 1.74
0 -8 7 9.77 1.94
0 8 8 38.18 3.6
0 -8 -8 31.85 4.82
0 8 8 34.14 3.72
0 -8 9 13.81 2.12
0 -8 -9 11.52 3.23
0 8 9 9.53 2.15
0 8 9 13.87 2.36
0 -8 10 10.55 1.78
0 8 -10 14.42 2.58
0 8 10 13.89 2.52
0 -8 -10 11.61 3.3
0 8 10 14.08 2.23
0 8 -11 36.07 3.79
0 -8 -11 30.5 5.52
0 8 11 27.28 3.16
0 8 11 27.6 2.89
0 -8 11 27.24 2.72
0 -8 12 4.43 1.34
0 8 12 4.92 1.4
0 8 12 4.53 1.03
0 -8 -12 5.37 2.62
0 8 -12 6.21 1.85
0 8 13 5.88 1.25
0 -8 13 4.19 1.05
0 9 0 -1.3 2.79
0 -9 0 0.92 2.02
0 -9 -1 559.16 26.89
0 -9 1 653.32 31.01
0 9 1 596.35 24.03
0 9 1 651.3 18.34
0 -9 1 619.31 28.93
0 9 -1 573.83 25.49
0 9 2 23.71 3.7
0 9 -2 22.26 4.97
0 9 -2 27.03 6.06
0 -9 -2 22.44 5.85
0 -9 2 24.88 6.74
0 9 2 23.29 4.72
0 9 -3 69.13 9.71
0 -9 -3 85.02 7.67
0 9 3 70.72 6.67
0 9 -3 75.92 9.84
0 9 3 82.32 8.62
0 -9 3 87.49 10.27
0 -9 -3 64.74 9.41
0 -9 -4 12.33 4.45
0 9 -4 21.29 5.9
0 9 4 17.89 4.18
0 9 4 18.25 3.61
0 -9 4 19 5.08
0 -9 -4 12.92 3.96
0 -9 -5 30.68 6.57
0 9 5 28.86 4.7
0 9 5 25.4 4.93
0 -9 5 29.11 5.67
0 9 -5 29.9 7.33
0 -9 -5 27.14 7.03
0 -9 6 79.02 4.53
0 9 6 73.96 4.7
0 9 7 37.06 3.52
0 -9 -7 36.22 4.73
0 9 8 12.62 2.45
0 -9 8 16.6 2.31
0 9 8 12.86 2.18
0 -9 -8 8.59 2.9
0 9 9 21.96 2.87
0 9 9 18.29 2.88
0 -9 9 21.95 2.52
0 -9 -9 20.78 4.05
0 9 10 11.3 1.95
0 9 10 11.88 2.22
0 9 -10 15.38 2.76
0 -9 -10 12.19 3.55
0 -9 10 8.45 1.57
0 9 -11 11.71 2.31
0 9 11 8.33 1.89
0 -9 -11 11.02 3.34
0 9 11 11.74 1.85
0 -9 11 9.49 1.56
0 9 12 0.22 0.62
0 -9 12 1.46 0.89
0 -9 -12 0.45 1.83
0 9 12 1.58 1.02
0 9 -12 0.81 0.95
0 -10 0 129.26 15.23
0 -10 0 116.55 13.41
0 10 0 112.42 11.47
0 10 1 33.69 6.27
0 -10 -1 40.75 8.11
0 10 -1 38.56 7.1
0 -10 1 46.72 8.99
0 -10 1 41.64 8.3
0 -10 2 42.8 8.45
0 10 -2 42.92 7.62
0 10 2 35.59 6.34
0 -10 -2 41.48 7.71
0 10 2 47.71 5.81
0 10 3 23.49 4.16
0 -10 -3 20.77 5.87
0 -10 3 31.22 6.9
0 10 3 22.71 4.88
0 10 -3 32.18 7.37
0 10 -3 24.34 5.92
0 -10 -4 22.78 6.69
0 10 4 27.3 4.68
0 10 4 32.49 5.75
0 10 -4 31.13 7.45
0 10 -4 28.76 7.12
0 10 5 15.24 2.23
0 -10 -5 10.05 2.57
0 -10 5 12.33 1.96
0 -10 6 49.65 3.58
0 -10 -6 41.49 5
0 10 6 48.24 3.99
0 -10 6 51.67 3.72
0 -10 -7 6.4 2.43
0 -10 7 10.43 1.96
0 10 7 5.89 1.6
0 10 8 18.67 2.58
0 -10 8 22.74 2.55
0 -10 -8 15.52 3.68
0 10 9 55.44 4.47
0 -10 -9 56.63 6.28
0 -10 9 59.67 3.92
0 10 9 54.37 4.26
0 10 10 20.25 2.46
0 -10 -10 21.52 4.09
0 10 10 20.52 2.66
0 10 -10 20.43 2.77
0 -10 10 17.39 2.01
0 10 -11 4.17 1.46
0 10 11 2.03 0.9
0 10 11 3.82 1.22
0 -10 -11 3.8 2.25
0 -10 11 0.85 0.61
0 10 12 1.42 0.86
0 -10 12 0.82 0.67
0 10 -12 0.32 0.9
0 10 12 1.15 0.69
0 -11 0 2.45 3.88
0 11 0 0.96 2.36
0 -11 0 3.2 4.63
0 11 1 4.75 2.54
0 -11 1 9.03 5.79
0 11 -1 6.27 3.45
0 -11 -1 1.77 2.52
0 -11 -1 4.22 5.52
0 -11 2 6.71 2.01
0 11 -3 35.99 2.84
0 -11 -3 27.22 3.65
0 -11 3 28.19 3.24
0 -11 -4 77.71 6.36
0 11 4 89.24 5.24
0 -11 4 83.93 5.12
0 -11 5 40.17 3.38
0 11 5 46.8 3.89
0 -11 -5 33.53 4.33
0 -11 -6 10.13 2.57
0 11 6 15.44 2.42
0 -11 6 14.78 2.04
0 -11 6 15.13 2.1
0 -11 -7 0.22 1.66
0 11 7 2.03 1.09
0 11 8 35.99 3.5
0 -11 8 40.51 3.13
0 11 9 1.32 1.01
0 -11 -9 1.81 1.34
0 -11 9 1.84 0.8
0 -11 10 1.38 0.75
0 11 -10 4.47 1.46
0 11 10 2.45 1.09
0 -11 -10 0.83 1.44
0 -11 11 0.89 0.71
0 -11 -11 1.09 1.59
0 11 -11 2.41 1.15
0 11 11 0.29 0.56
0 -12 0 6.98 2.4
0 -12 0 11.24 2.71
0 -12 -1 14.32 3.28
0 -12 1 14.92 2.88
0 12 -1 15.57 1.94
0 -12 2 3.1 1.84
0 12 -2 2.15 1.12
0 -12 -2 2.17 1.39
0 -12 -3 7.29 2.28
0 12 -3 9.09 1.59
0 -12 3 4.36 1.81
0 -12 -4 45.89 4.89
0 -12 4 45.83 3.81
0 -12 5 44.81 3.6
0 12 5 42.14 2.74
0 12 5 40.21 3.65
0 -12 -5 37.47 4.5
0 12 6 69.88 4.81
0 -12 -6 56.07 5.61
0 -12 6 66.86 4.05
0 -12 -7 116.06 7.94
0 12 7 149.48 6.86
0 -12 8 1.46 0.8
0 -12 -8 -0.35 1.44
0 12 8 2.59 1.14
0 12 9 3.19 1.13
0 -12 9 1.68 0.66
0 -12 -9 3.59 1.92
0 12 10 -1.05 0.84
0 12 -10 0.51 0.97
0 -12 -10 1.2 1.44
0 12 11 1.42 0.62
0 -12 11 2.18 0.73
0 13 0 0.85 0.88
0 -13 0 2.83 1.64
0 13 -1 10.42 1.68
0 13 1 9.38 1.53
0 -13 -1 7.5 2.33
0 -13 1 7.78 2.23
0 -13 -1 10.79 2.94
0 -13 2 17.52 2.78
0 13 2 16.73 1.99
0 -13 -2 20.2 3.34
0 13 -2 21.23 2.33
0 -13 -2 17.01 3.11
0 13 3 35.36 2.69
0 -13 3 35.24 3.5
0 -13 -3 35.47 4.32
0 -13 -4 87.54 6.5
0 13 4 90.5 4.14
0 -13 4 94.57 5.24
0 -13 -4 102.44 6.67
0 13 5 32.78 3.24
0 -13 -5 32.8 4.11
0 13 5 33.55 2.47
0 -13 5 40.15 3.28
0 13 6 52.65 4.01
0 -13 6 54.32 3.5
0 -13 -6 46.83 4.86
0 -13 -7 19.76 3.19
0 13 7 23.12 2.67
0 -13 -8 10.22 2.42
0 13 8 8.89 1.64
0 13 9 3.61 1.01
0 -13 -9 3.61 1.69
0 13 -9 5.56 1.51
0 13 10 6.07 1.04
0 13 -10 6.78 1.4
0 14 0 48.83 3.28
0 -14 0 43.58 4.18
0 14 -1 3.51 1.11
0 14 1 2.43 0.96
0 -14 -1 4.69 2.06
0 -14 1 1 1.31
0 -14 -2 15.34 2.76
0 -14 -2 13.48 2.63
0 14 -2 15.73 2.04
0 -14 2 11.74 2.09
0 14 2 12.74 1.67
0 14 -3 56.23 3.54
0 -14 -3 43.86 4.53
0 14 3 41.18 2.9
0 -14 3 42.34 3.64
0 -14 -3 51.28 4.57
0 -14 -4 19.37 3.2
0 -14 4 20.02 2.53
0 14 4 21.8 2.01
0 -14 -4 27.49 3.46
0 -14 -5 28.3 3.64
0 14 5 30.9 2.21
0 -14 5 32.73 2.79
0 -14 -6 20.07 3.08
0 -14 6 19.98 1.96
0 14 6 19.85 2.3
0 14 7 16.66 1.98
0 -14 -7 16.16 2.7
0 -14 -8 4.37 1.63
0 14 8 2.47 0.84
0 14 -9 2.5 0.9
0 14 9 1.88 0.72
0 15 0 0.64 0.73
0 -15 0 -0.14 1.15
0 15 1 14.32 1.78
0 -15 -1 14.62 2.31
0 15 -1 16.41 1.98
0 -15 1 12.33 2.01
0 -15 2 4.68 1.3
0 15 2 6.01 1.21
0 15 -2 7.75 1.41
0 -15 -2 6.36 1.81
0 15 -3 11.77 1.59
0 -15 -3 8.95 2.26
0 -15 3 12.31 1.95
0 15 3 10.02 1.44
0 -15 -3 9.86 2.04
0 -15 4 24.64 2.11
0 -15 -4 27.14 3.26
0 -15 -4 34.22 3.2
0 15 4 26.76 2.06
0 -15 4 27.5 2.44
0 -15 -5 18.29 2.73
0 15 5 16.95 1.5
0 -15 5 16.69 1.8
0 -15 6 7.85 1.12
0 -15 -6 9.03 1.91
0 -15 -7 5.53 1.66
0 15 7 1.43 0.69
0 15 -8 2.86 0.92
0 -16 0 21.12 2.33
0 16 0 23.49 2.07
0 -16 1 9.49 1.55
0 16 1 12.44 1.54
0 16 -1 13.66 1.64
0 -16 -1 11.7 1.9
0 16 2 23.15 1.9
0 -16 -2 19.97 2.26
0 -16 2 24.06 2.29
0 16 -2 27.1 2.2
0 16 -3 6.15 1.1
0 -16 3 3.76 1
0 -16 -3 1.99 0.87
0 16 3 4.73 0.89
0 -16 3 4.61 0.99
0 -16 4 3.72 0.93
0 16 4 3.39 0.72
0 16 5 2.3 0.55
0 -16 5 1.35 0.59
0 17 0 0.44 0.55
0 -17 0 2.82 0.95
0 -17 1 24.17 1.99
0 17 -1 21.61 1.7
0 -17 -1 23.17 2.07
0 17 1 18.54 1.56
0 -17 2 8.02 1.19
0 17 2 8.84 1.06
0 17 -2 8.98 1.13
0 -17 2 7.19 0.97
0 -17 -2 11.29 1.44
0 17 3 1.16 0.54
0 -17 3 1.67 0.65
0 -17 4 2.3 0.56
1 0 -13 10.47 6.45
-1 0 10 75.23 5.14
-1 0 9 136.08 12.94
-1 0 8 209.17 14.58
1 0 -8 204.56 16.76
-1 0 7 127.65 10.42
-1 0 7 126.78 8.27
1 0 -6 231.11 12.81
1 0 -6 287.29 10.27
-1 0 6 233.09 12.85
-1 0 6 265.2 10.98
-1 0 5 145.25 7.31
1 0 -5 140.69 8.46
-1 0 5 152.24 7.87
-1 0 5 154.89 9.72
1 0 -5 173.03 6.4
-1 0 4 2.08 1.16
1 0 -4 2.8 0.91
-1 0 4 1.76 1.4
1 0 -4 3.38 1.35
-1 0 4 1.88 0.96
-1 0 3 578.1 15.97
-1 0 3 589.73 13.19
-1 0 3 596.48 13.3
1 0 -3 575.7 11.09
1 0 -3 555.57 11.64
-1 0 2 61.02 4.12
1 0 -2 56.41 3.24
1 0 -1 44.12 2.56
-1 0 0 1.26 1.07
-1 0 0 1.07 0.73
1 0 0 1.15 0.54
-1 0 -1 522.73 10.1
-1 0 -1 519.08 9.79
-1 0 -2 220.72 8.23
-1 0 -2 209.66 7.08
1 0 2 217.77 3.58
1 0 2 219.29 5.85
1 0 3 268.7 5.53
1 0 3 270.37 8.27
-1 0 -4 263.03 13.07
1 0 4 239.89 6.56
1 0 4 244.87 7.66
1 0 5 1043.28 16.59
1 0 5 1026.32 16.04
-1 0 -6 384.05 21.55
1 0 6 370.84 10.49
1 0 7 163 7.88
-1 0 -7 194.93 18.38
-1 0 -8 178.34 20.71
1 0 8 123.56 7.72
1 0 9 46.33 5.39
1 0 10 179.27 7.38
1 0 11 0.45 0.95
1 0 12 6.01 1.69
-1 0 -12 9.25 3.01
1 0 13 -0.51 0.84
-1 0 -13 -0.54 1.39
1 0 14 9.21 1.48
-1 0 -14 11.96 2.85
-1 1 13 6.16 1.51
1 1 -13 10.32 4.86
-1 -1 12 20.35 2.7
-1 1 12 19.54 2.78
-1 1 11 105.44 6.42
-1 -1 11 103.33 6.16
-1 -1 10 39.35 3.95
-1 1 10 39.99 3.93
-1 -1 9 42.09 6.97
1 -1 -9 34.19 8.3
-1 1 8 8.75 3.27
1 1 -8 7.94 4.27
-1 1 8 7.78 2.34
-1 -1 8 6.91 2.8
1 -1 -8 5.07 3.02
1 1 -7 68.14 8.6
-1 1 7 81.36 8.47
-1 -1 7 78.17 8.13
1 -1 -7 63.87 8.21
1 -1 -7 86.91 7.43
-1 1 7 81.97 6.59
1 1 -7 54.75 7.61
-1 -1 7 76.79 6.53
-1 -1 6 707.02 22.34
-1 1 6 828.62 19.25
-1 1 6 748.76 22.96
1 1 -6 607.94 20.99
-1 -1 6 777.73 19.28
1 -1 -6 756.91 23.61
1 -1 -6 773.48 17.02
-1 -1 6 828.22 19.65
-1 1 6 869.89 19.86
-1 1 5 53.38 5.76
-1 1 5 65.37 5.13
-1 -1 5 65.55 4.94
1 1 -5 63.43 3.85
-1 1 5 62.38 4.93
-1 -1 5 56.03 4.35
-1 -1 5 55.71 4.91
-1 -1 5 59.18 6.04
1 -1 -5 61.94 4.16
1 -1 -5 60.36 5.8
1 1 -5 59.21 5.42
-1 1 4 104.08 5.72
-1 -1 4 114.64 7.71
-1 -1 4 113.82 5.76
-1 1 4 115.43 7.81
-1 -1 4 105.04 6.24
-1 -1 4 121.61 6.11
1 -1 -4 105.71 6.6
1 1 -4 121.24 4.42
-1 1 4 111.81 6.34
1 -1 -4 119.86 5.45
-1 -1 3 71.54 4.27
-1 -1 3 63.19 4.54
1 1 -3 66.92 3.43
-1 1 3 72.76 5.82
-1 -1 3 64.99 5.41
1 -1 -3 66.43 4.12
-1 1 3 67.3 4.75
-1 1 3 59.02 3.96
1 -1 -3 59.03 4.39
-1 -1 3 69.69 4.47
1 1 -3 73.61 3.9
-1 -1 3 65.79 3.88
-1 -1 2 750.85 14.05
-1 -1 2 680.3 16.27
1 1 -2 703.61 8.85
-1 1 2 745.88 14.69
1 -1 -2 686.65 13.82
-1 -1 2 702.7 10.62
1 -1 -1 582.87 12.48
-1 1 1 561.96 9
1 1 -1 547.11 9.4
-1 -1 1 561.21 11.84
1 1 0 1849.11 20.6
-1 1 0 1846.69 18.47
1 1 0 1793.53 17.74
-1 1 0 1805 14.36
1 -1 0 1847.19 21.64
-1 1 0 1809.13 25.79
-1 -1 0 1746.59 9.03
-1 -1 0 1790.44 22.29
-1 1 -1 2596.14 15.17
-1 -1 -1 2601.82 29.18
-1 1 -1 2642.73 28.48
-1 1 -1 2669.53 27.76
1 1 1 2598.86 22.02
1 1 1 2631.78 22.59
-1 -1 -2 103.39 4.78
1 1 2 92.21 4.49
-1 1 -2 87.78 2.45
1 -1 2 97.21 3.7
-1 1 -2 90.13 6.09
-1 1 -3 286.96 12.59
1 -1 3 282.51 6.43
1 1 3 277.34 7.37
1 -1 3 283.08 9.48
-1 -1 -3 283.01 10.14
1 1 3 258.71 8.03
1 1 4 721.91 12.59
1 -1 4 744.91 15.14
-1 -1 -4 738.34 19.75
1 1 4 730.29 14.99
1 -1 4 746 11.86
1 1 5 331.67 9.17
-1 -1 -5 300.08 15.01
1 -1 5 322.92 9.56
1 -1 5 325.92 9.06
-1 1 -6 20.97 6.3
-1 -1 -6 23.72 5.6
1 -1 6 17.75 2.53
1 -1 6 20.23 2.58
1 1 6 18.13 2.45
-1 -1 -7 74.58 10.99
1 -1 7 58.76 5.09
1 1 7 58.53 4.85
1 -1 7 61.88 4.73
-1 1 -7 81.44 13.09
-1 1 -8 31.32 10.68
1 1 8 17.66 3.25
-1 -1 -8 27.92 7.46
1 -1 8 18.09 2.93
1 1 9 144.61 9.82
-1 1 -9 255.49 29.96
1 1 10 301.83 9.61
1 -1 10 302.24 9.29
1 1 11 4.61 1.5
-1 -1 -11 3.96 2.29
1 -1 11 5.26 1.49
1 1 12 38.04 3.6
-1 -1 -12 40.68 5.85
1 -1 12 37.88 3.45
-1 -1 -13 0.59 1.72
-1 1 -13 1.52 1.74
1 -1 13 -0.22 0.87
1 1 13 -0.16 0.85
-1 1 -14 4.24 1.93
-1 -1 -14 5.75 2.18
1 1 14 5.38 1.26
1 2 -14 -0.43 5.21
-1 2 14 2.36 1
-1 2 13 2.35 1.29
-1 -2 13 0.26 0.93
-1 -2 12 1 1.22
1 -2 -12 1.45 3.23
-1 2 12 1.73 1.41
-1 2 11 137.73 7.5
-1 -2 11 136.38 7.12
-1 2 10 186.69 8.68
-1 -2 10 205.53 8.65
-1 -2 9 10.82 3.7
-1 -2 9 23.03 2.94
1 -2 -9 12.05 5.13
1 -2 -8 1.25 2.48
1 2 -8 3.61 4.16
-1 -2 8 1.43 1.51
-1 2 8 -0.12 1.38
-1 2 8 -0.57 1.44
1 -2 -8 -1.53 2.26
-1 -2 7 21.85 4.4
-1 2 7 22.06 4.49
-1 2 7 24.78 3.91
1 -2 -7 25.96 4.24
-1 -2 7 24.2 3.86
1 2 -7 18.45 4.69
1 2 -7 20.7 5.59
-1 2 7 26.25 3.77
1 -2 -7 23.96 5.43
1 2 -6 46.36 6.58
1 -2 -6 48.7 4.47
-1 -2 6 47.43 5.93
-1 2 6 46.82 4.58
1 -2 -6 43.78 6.12
-1 2 6 51.42 5.04
-1 -2 6 50.8 4.88
-1 -2 6 45.89 4.8
-1 2 6 44.58 5.84
1 -2 -5 908.8 23.65
-1 -2 5 903.66 23.56
-1 2 5 858.41 23.16
-1 2 5 936.08 20.04
-1 -2 5 947.75 18.27
1 2 -5 858.8 22.87
1 -2 -5 891.01 16.32
-1 2 5 917.83 18
-1 -2 5 819.26 18.76
-1 -2 4 193.04 7.68
-1 -2 4 168.39 6.27
-1 2 4 182.85 9.92
-1 -2 4 170.1 8.25
1 -2 -4 164.52 9.13
1 2 -4 176.49 8.84
1 2 -4 208.13 5.08
-1 -2 4 179.31 9.79
-1 -2 4 188.83 7.25
-1 2 4 175.69 8.27
-1 2 4 174.38 7.32
1 -2 -4 173.55 6.93
-1 2 3 29.99 3.85
1 2 -3 29.27 1.82
1 -2 -3 26.96 2.85
-1 -2 3 25.41 2.5
-1 -2 3 26.54 3.24
-1 2 3 27.74 3.14
-1 -2 3 26.12 2.49
-1 -2 3 26.31 2.82
1 -2 -3 25.72 3.32
-1 -2 3 27.25 3.59
-1 -2 2 281.69 8.1
1 -2 -2 286.18 9.47
-1 2 2 300.74 11.08
1 -2 -2 304.73 10.91
-1 -2 2 293.21 7.14
-1 -2 2 275.99 10.47
-1 -2 2 290.81 10
1 -2 -1 9917.56 60.57
-1 -2 1 9645.46 60.8
-1 2 1 9838.11 59.82
-1 -2 1 9878.52 49.1
-1 2 1 9900.19 42.99
1 2 -1 9999 37.31
-1 -2 1 9814.11 36.34
1 2 -1 9781.72 25.38
-1 2 0 1578.91 15.8
1 -2 0 1554.55 24.58
-1 2 0 1577.9 24.04
1 2 0 1572.86 23.47
1 2 0 1600.76 12.31
-1 -2 0 1513.1 12.71
-1 2 -1 2576.1 32.46
1 2 1 2590.71 28.06
-1 2 -1 2573.74 27.26
1 2 1 2649.78 18.37
-1 2 -1 2593.05 19.41
-1 -2 -2 311.19 9.19
-1 -2 -2 250.49 5.96
-1 2 -2 294.21 9.9
-1 2 -2 265.85 11.64
1 2 2 265.93 6.4
1 -2 2 244.38 8.61
1 2 2 257.77 8.72
-1 2 -3 667.18 20.41
1 -2 3 657.92 12.73
-1 -2 -3 625.21 12.54
1 2 3 672.48 10.95
1 -2 3 642.51 15.93
-1 -2 -4 411.77 12.72
1 2 4 514.35 10.68
-1 2 -4 522.51 20.8
1 2 4 443.18 12.72
1 -2 4 498.08 13.58
1 -2 4 480.77 10.75
1 2 5 317.02 11.63
-1 -2 -5 333.37 14.26
-1 2 -5 357.35 19.95
1 -2 5 351.65 11.05
1 2 5 341.21 9.68
1 -2 5 333.14 9.65
-1 -2 -6 49.92 6.93
1 -2 6 55.39 4.33
-1 -2 -6 67.29 8.6
-1 2 -6 59.48 9.95
1 -2 6 56.06 4.47
1 2 6 51.8 4.33
-1 -2 -7 170.8 15.81
-1 2 -7 171.1 18.98
1 2 7 129.48 7.85
1 -2 7 146.14 8.09
1 -2 7 130.91 6.77
-1 2 -8 47.64 12.12
1 2 8 28.52 4.1
1 -2 8 35.1 3.89
-1 -2 -8 43.37 9.57
1 2 9 161.14 6.7
1 -2 9 154.6 6.28
1 -2 10 205.14 7.53
-1 2 -10 225.08 10.81
-1 -2 -10 218.5 13.27
1 2 10 207.17 8.15
1 -2 11 9.32 1.74
-1 -2 -11 11.66 3.61
1 -2 11 12.94 2.07
-1 2 -11 17.64 3.4
1 2 11 12.34 2.23
1 2 12 1.24 1.28
-1 -2 -12 0.11 2.09
1 -2 12 2.62 1.15
1 2 13 4.01 1.3
-1 -2 -13 5.84 2.76
-1 2 -13 2.51 1.55
-1 -2 -14 0.95 1.58
-1 2 -14 0.22 1.37
1 2 14 1.21 0.78
1 3 -14 5.05 4.7
-1 3 14 3.12 1.07
-1 3 13 3.52 1.44
-1 -3 13 2.47 1.09
-1 3 12 28.41 3.37
-1 -3 12 28.38 3.23
-1 -3 11 39.99 4.02
-1 3 11 38.03 4.12
-1 3 10 115.13 7.06
-1 -3 10 114.44 6.74
-1 3 9 20.86 3.06
-1 -3 9 17.99 2.36
-1 -3 8 6.31 3.07
1 -3 -8 6.88 3.81
1 3 -8 3.43 4.23
-1 3 8 5.51 1.92
-1 3 8 4.04 2.57
1 -3 -8 5.75 2.84
-1 -3 8 2.26 1.21
1 3 -7 68.7 11.32
1 -3 -7 63.07 6.35
-1 -3 7 56.37 7.1
1 -3 -7 53.8 8.18
-1 3 7 62.86 6.37
-1 3 7 65.8 5.95
-1 3 7 60.71 7.52
-1 -3 7 61.39 6.04
-1 -3 6 89.36 8.2
-1 3 6 87.15 8.33
-1 3 6 103.97 6.84
1 -3 -6 91.57 9.19
1 3 -6 97.81 10.99
-1 3 6 98.85 7.4
-1 -3 6 89.69 6.58
-1 -3 6 100.59 6.83
1 -3 -6 105.42 6.72
-1 3 5 516.6 15.62
1 3 -5 514.9 20.74
-1 -3 5 519.39 18.26
-1 3 5 523.2 18.57
-1 -3 5 545.43 14.07
1 -3 -5 519.84 13.23
1 -3 -5 506.97 18.88
-1 -3 5 462.05 14.27
-1 -3 4 3.81 1.2
-1 -3 4 3.12 1.5
1 3 -4 3.08 1.94
1 -3 -4 1.84 1.36
-1 -3 4 3.86 1.39
-1 -3 4 2.1 1.23
-1 3 4 4.22 1.9
-1 3 4 2.61 1.3
1 -3 -4 3.81 1.42
-1 -3 3 498.4 15.37
-1 3 3 514.12 13.86
-1 3 3 546.27 16.41
1 -3 -3 488.43 16.08
-1 -3 3 507.71 11.59
-1 -3 3 516.51 13.59
1 3 -3 481.13 15.13
-1 -3 3 500.19 14.42
1 -3 -3 486.61 12.48
1 3 -2 200.3 9
-1 3 2 214.32 9.67
1 -3 -2 192.97 8.14
-1 -3 2 212.13 9.1
-1 3 2 209.03 8.62
-1 -3 2 201.39 6.99
-1 -3 2 210.45 9.62
-1 -3 2 186.32 8.75
-1 3 2 202.69 5.46
1 -3 -2 201.44 10.32
1 -3 -1 9168.83 67.25
-1 -3 1 9138.33 61.49
-1 3 1 9302.67 59.3
-1 3 1 9648 55.84
-1 3 1 9028.16 31.02
-1 -3 1 8801.56 44.85
1 -3 0 7209.02 60.57
-1 -3 0 7176.68 38.52
-1 -3 0 6841.42 41.36
-1 3 0 7138.54 46.19
-1 3 0 7573.41 52.92
-1 3 0 7045.8 32.77
1 3 0 7227.1 58.86
1 3 0 7283.94 25.79
1 3 1 2967.25 35.2
-1 3 -1 2826.54 29.17
-1 -3 -1 2973.67 28.65
-1 3 -1 2885.44 19.29
-1 3 -1 2890.63 38.75
1 -3 1 2989.34 40
1 3 1 2851.92 19
-1 3 -2 29.72 3.15
1 3 2 29.81 3.59
-1 -3 -2 23.22 1.29
-1 -3 -2 31.19 3.33
1 -3 2 27.46 4.23
-1 3 -2 28.87 4.51
-1 3 -2 25.16 1.58
1 3 2 31.13 2.3
1 -3 2 24.5 3.63
-1 -3 -3 424.09 13.59
-1 3 -3 396.34 16.85
1 -3 3 397.48 13.86
1 3 3 399.45 12.62
1 -3 3 403.11 12.35
1 3 3 416.22 9.25
-1 3 -4 104.93 9.83
1 -3 4 99.53 5.94
1 -3 4 106.58 6.92
-1 -3 -4 96.36 5.36
-1 -3 -4 109.96 8.03
1 3 4 105.39 5.25
1 3 4 96.73 6.5
-1 3 -5 202.87 15.57
1 3 5 179.66 7.7
-1 -3 -5 203.64 12.65
1 -3 5 172.97 8.38
1 3 5 186.91 9.45
1 -3 5 186.92 7.95
1 -3 6 144.87 7.43
-1 -3 -6 166.98 13.39
-1 3 -6 160.38 15.73
1 3 6 142.98 7.73
1 -3 6 139.62 7.03
-1 -3 -7 21.3 5.73
-1 3 -7 23.5 8.1
1 3 7 19.28 3.16
1 -3 7 20.46 2.81
1 -3 7 25.76 3.59
-1 -3 -8 14.83 5.86
-1 3 -8 12.04 7.34
1 3 8 7.31 2.39
-1 -3 -9 127.18 10.13
1 -3 9 134.27 5.9
1 3 9 127.05 6.14
-1 3 -9 126.27 7.64
1 -3 10 122.54 5.91
-1 3 -10 139.92 8.36
1 3 10 132.41 6.67
-1 -3 -10 147.91 11.19
1 3 11 15.14 2.48
1 -3 11 10.9 1.82
-1 -3 -11 14.74 3.9
-1 3 -11 18.02 3.36
-1 -3 -12 7.4 3.12
1 3 12 3.69 1.36
-1 3 -12 5.81 2.43
1 3 13 4.92 1.35
-1 -3 -13 8.21 2.94
1 3 14 12.97 1.72
-1 3 -14 16.27 2.82
-1 -3 -14 14.87 3.21
-1 -4 14 1.58 0.72
-1 4 14 1.76 0.95
-1 4 13 3.27 1.37
-1 -4 13 3.83 1.29
-1 4 12 13.12 2.38
-1 -4 12 11.06 2.11
-1 -4 11 166.04 7.94
-1 4 11 158.14 8.22
-1 4 10 18.92 3.06
-1 -4 10 21.64 3.09
-1 -4 9 21.92 2.57
-1 4 9 23.89 2.71
-1 4 9 24.85 3.33
-1 4 8 23.71 4
1 -4 -8 23.52 5.43
1 4 -8 27.5 9.89
-1 -4 8 24.44 4.35
-1 4 8 24.39 5.48
1 -4 -8 20.13 5.87
-1 4 8 23.5 4.6
1 -4 -7 2.79 2.7
-1 -4 7 3.55 1.7
-1 4 7 5.56 2.86
-1 4 7 6.22 1.99
1 -4 -7 7.76 2.88
1 4 -7 9.64 5.86
-1 4 7 3.3 1.73
1 -4 -6 14.84 4.03
1 4 -6 15.15 5.62
-1 -4 6 17.45 3.88
-1 4 6 18.1 4.09
1 -4 -6 16.15 2.96
-1 4 6 17.98 3.34
-1 -4 6 16.2 2.9
1 -4 -5 94.61 8.87
1 -4 -5 93.28 5.9
-1 -4 5 97.28 8.08
-1 4 5 97.22 8.31
1 4 -5 93.4 10.55
-1 -4 5 101.71 6.52
-1 -4 5 112.16 6.67
-1 -4 5 87.79 6.59
-1 4 5 103.43 7.25
1 -4 -4 194.63 8.41
1 4 -4 197.39 13.24
-1 4 4 201.67 11.13
1 -4 -4 184.66 11.55
-1 4 4 164.01 8.74
-1 -4 4 209.77 8.69
-1 -4 4 204 9.2
-1 -4 4 188.76 9.43
-1 -4 4 196.93 10.66
-1 -4 3 264 10.79
-1 4 3 252.12 10.17
-1 -4 3 239.63 10.84
-1 4 3 249.66 7.8
1 -4 -3 234.05 12.57
-1 -4 3 259.55 9.39
1 4 -3 270.08 13.78
-1 4 3 266.1 11.86
1 -4 -3 237.21 9.12
1 4 -2 34.01 4.89
-1 -4 2 34.09 3.98
1 -4 -2 27.67 3.23
-1 4 2 30.33 2.54
1 -4 -2 29.92 4.6
-1 4 2 33.48 4.03
-1 -4 2 31.61 4.04
-1 -4 2 31.87 3.4
-1 4 2 31.7 3.59
-1 4 1 2529.61 31.71
-1 -4 1 2552.48 38.13
1 4 -1 2584.45 30.63
-1 4 1 2450.96 22.26
1 -4 -1 2375.61 30.27
-1 4 1 2676.75 32.23
1 -4 -1 2434.28 39.29
-1 -4 1 2464.29 29.45
1 -4 0 664.48 21.15
-1 -4 0 675.49 15.12
-1 4 0 646.69 13.08
-1 -4 0 703.88 21.36
-1 4 0 711.32 16.43
-1 4 0 657.11 15.11
1 4 0 669.7 19.85
1 4 0 678.88 11.39
-1 -4 0 643.44 16.27
1 -4 1 13.63 3.53
-1 4 -1 13.32 2.19
1 4 1 19.3 3.46
-1 4 -1 18.26 3.72
1 4 1 14.85 1.77
-1 -4 -1 18.23 2.92
-1 4 -2 70.97 7.32
-1 -4 -2 70.15 5.76
-1 4 -2 70.27 4.78
1 4 2 88.8 4.44
1 -4 2 71.83 7.02
1 4 2 72.64 6.15
-1 -4 -3 302.74 13.91
1 4 3 302.55 12.23
-1 4 -3 301.89 15.95
1 4 3 306.24 9
1 -4 3 330.06 13.7
-1 -4 -3 321.19 13.32
1 -4 3 312.61 12.93
1 -4 4 24.32 3.57
1 4 4 22.17 3.55
1 -4 4 25.25 3.84
-1 -4 -4 19.12 4.41
-1 -4 -4 25.88 4.28
1 4 4 24.32 2.86
-1 4 -4 19.02 4.41
1 4 5 261.54 10.1
-1 4 -5 266 18.11
1 4 5 247.64 11.72
-1 -4 -5 279.77 15.63
1 -4 5 269.35 10.89
-1 -4 -5 275.92 17.07
1 -4 5 273.04 11.13
-1 -4 -6 29.95 5.85
1 4 6 33.82 4.65
1 4 6 30.16 3.83
1 -4 6 34.74 3.73
-1 4 -6 34.39 7.79
1 -4 6 33.08 3.91
-1 -4 -7 60.08 9.72
-1 4 -7 54.2 10.9
1 4 7 47.78 5.31
1 -4 7 61.69 5.66
-1 -4 -8 20.86 6.79
-1 4 -8 15.88 8.02
1 4 9 110.18 5.91
-1 4 -9 110.12 7.03
1 4 9 119.07 5.42
1 -4 9 122.1 5.76
-1 -4 -9 121.07 9.99
-1 -4 -10 98.84 9.67
-1 4 -10 108.22 7.16
1 -4 10 96.54 5.25
1 4 10 91.79 5.61
-1 -4 -11 22.69 5.05
1 4 11 20.47 2.81
1 -4 11 20.58 2.53
-1 4 -11 22.94 3.64
-1 4 -12 9.19 2.52
1 -4 12 4.52 1.31
-1 -4 -12 7.98 3.37
1 4 12 5.53 1.46
1 4 13 6.75 1.45
-1 -4 -13 9.91 3.27
1 4 14 4 1.07
-1 4 -14 4.28 1.62
-1 -4 -14 3.31 1.94
-1 -5 13 4.41 1.32
-1 5 13 4.52 1.39
-1 5 12 4.87 1.75
-1 -5 12 5.18 1.58
-1 5 11 27.7 3.55
-1 -5 11 30.91 3.61
-1 5 10 53.58 4.21
-1 5 10 42.62 4.44
-1 -5 10 58.35 4.89
-1 5 9 11.18 2.07
-1 -5 9 10.74 1.85
-1 5 9 13 2.62
-1 5 8 38.59 5.25
-1 5 8 45.24 7.33
1 -5 -8 43.67 9.12
-1 5 8 43.66 6.28
1 5 -7 101.12 15.64
1 -5 -7 92.5 8.23
-1 5 7 88.36 9.55
1 -5 -7 76.5 10.66
-1 5 7 90.76 8.32
-1 -5 7 90.58 7.61
1 -5 -6 44.11 4.9
1 5 -6 43.64 9.34
1 -5 -6 47.21 7.7
-1 5 6 36.84 5.91
-1 -5 6 54.7 4.98
-1 5 6 44.14 5.33
-1 -5 6 44.33 5.03
-1 -5 5 46.94 4.77
1 5 -5 46.18 8.77
-1 5 5 44.55 5.92
1 -5 -5 39.21 6.29
1 -5 -5 36.59 3.99
-1 5 5 42.69 4.98
-1 -5 5 44.89 4.72
1 5 -4 103.94 11.22
-1 5 4 85.99 5.5
-1 5 4 105.17 8.39
1 -5 -4 80.48 8.51
1 -5 -4 93.36 6.05
-1 5 4 80.7 6.59
-1 -5 4 94.99 6.78
-1 -5 4 89.41 6.33
-1 -5 3 132.06 8.45
-1 5 3 130.04 8.74
1 -5 -3 126.2 10.11
-1 -5 3 129.72 8.12
1 -5 -3 121.77 6.82
-1 5 3 119.37 5.98
1 5 -3 151.01 11.58
-1 5 3 127.04 7.77
-1 -5 3 130.17 7.57
-1 -5 2 161.95 10.1
1 5 -2 156.35 10.03
-1 5 2 152.93 8.77
1 -5 -2 135.66 10.44
1 -5 -2 141.41 7.4
-1 5 2 159.79 8.47
-1 5 2 143.94 6.4
-1 -5 2 157.5 8.43
1 5 -1 219.69 9.89
1 -5 -1 198.88 12.37
1 -5 -1 195.93 8.89
-1 -5 1 211.51 10.2
-1 5 1 213.28 8
-1 5 1 220.89 9.62
-1 -5 1 225.42 9.93
-1 5 1 226.77 9.87
1 5 -1 201.78 12.26
-1 -5 1 219.39 12.51
-1 5 0 646.53 16.04
-1 -5 0 611.35 18.57
-1 -5 0 620.17 17.16
1 5 0 602.77 20.64
-1 5 0 624.61 15.18
1 -5 0 602.66 22
-1 5 -1 61.53 6.79
1 5 1 62.37 6.51
-1 -5 -1 67.22 6.2
-1 5 -1 67.35 5
1 -5 1 63.06 7.39
1 5 2 6.55 2.21
-1 -5 -2 7.16 2.09
1 -5 2 7.87 3.48
-1 5 -2 8.64 3.04
-1 -5 -2 6.92 2.31
1 5 2 7.7 1.45
-1 5 -2 8.03 1.88
-1 -5 -3 319.94 14.74
1 5 3 359.06 14.72
1 5 3 313.07 10.15
-1 5 -3 345.79 18.31
-1 -5 -3 355.09 15.35
1 -5 3 361.67 15.89
1 -5 3 365.14 15.45
-1 5 -4 244.99 16.45
-1 -5 -4 236.64 14.3
1 5 4 243.75 12.26
1 -5 4 271.79 12.73
-1 -5 -4 259.43 14.51
1 5 4 217.48 9.2
1 -5 4 257.72 12.4
-1 -5 -5 120.45 11.06
-1 5 -5 113.9 12.47
1 -5 5 124.44 8.3
1 -5 5 122.07 8.11
-1 -5 -5 133.65 12.24
1 5 5 120.24 8.85
1 5 5 112.3 7.19
-1 5 -6 72.23 11
1 5 6 73.73 7.22
-1 -5 -6 74.96 9.88
1 -5 6 78.4 6.51
-1 5 -7 62.86 11.58
-1 -5 -7 78.22 11.49
1 -5 7 76.9 6.66
1 -5 8 10.28 2.73
-1 -5 -8 12.7 3.35
-1 5 -9 52.95 4.79
-1 -5 -9 57.74 7.1
1 5 9 51.34 4.1
1 -5 9 58.4 4.14
1 5 9 52.81 3.85
-1 5 -10 51.86 5.05
1 5 10 46.58 4.15
1 -5 10 50.75 3.87
-1 -5 -10 55.04 7.39
1 5 10 49.79 3.72
1 5 11 53.96 4.44
1 5 11 57.78 3.93
-1 -5 -11 55.1 7.38
-1 5 -11 63.89 5.51
1 -5 11 52.43 3.94
1 5 12 2.8 1.17
-1 -5 -12 6.68 2.74
1 -5 12 4.33 1.16
-1 5 -12 5.15 1.93
1 5 13 7.73 1.59
-1 -5 -13 7.37 2.72
-1 5 -13 9.94 2.17
-1 -5 -14 4.36 1.86
-1 5 -14 2.14 1.31
1 5 14 2.44 0.94
-1 -6 13 0.41 0.79
-1 6 13 1.73 1.09
-1 6 12 3.99 1.47
-1 -6 12 3.43 1.31
-1 6 11 40.5 3.51
-1 6 11 34.79 3.91
-1 -6 11 37.51 3.8
-1 -6 10 11.64 1.92
-1 6 10 14.46 2.29
-1 6 10 13.61 2.68
-1 6 9 32.1 3.89
-1 -6 9 35.57 3.17
-1 6 9 37.34 3.56
-1 6 8 32.51 3.3
-1 -6 8 32.39 2.67
-1 6 8 25.15 3.29
-1 6 7 73.21 8.97
1 -6 -7 93.06 8.78
1 -6 -7 76.57 11.23
-1 -6 7 92.52 8.1
-1 6 7 86.57 8.65
1 6 -7 94.74 15.27
1 -6 -6 133.38 8.99
1 6 -6 144.45 16.47
-1 6 6 120.45 10.63
1 -6 -6 137.79 13.53
-1 6 6 138.61 10.08
-1 -6 6 129.76 8.86
-1 6 5 22.65 4.37
1 6 -5 30.83 7.26
-1 6 5 21.35 3.93
1 -6 -5 26.15 5.56
1 -6 -5 23.63 3.46
-1 -6 5 29 3.95
-1 -6 5 23.32 3.79
1 6 -4 79.91 9.71
-1 6 4 74.43 5.55
-1 6 4 79.5 7.58
1 -6 -4 73.9 8.82
1 -6 -4 71.55 5.56
-1 -6 4 81.87 6.81
-1 6 4 66.58 6.28
-1 -6 4 75.76 6.5
-1 6 3 40.15 4.77
1 6 -3 41.51 6.3
-1 6 3 40.76 4.99
1 -6 -3 35.61 6.1
-1 -6 3 43.76 5.36
1 -6 -3 39.88 4.08
-1 6 3 40.06 3.94
-1 -6 3 42.06 4.96
-1 -6 2 744.89 23.5
-1 -6 2 672.56 19.48
-1 6 2 662.73 15.53
1 -6 -2 627.55 23.77
-1 6 2 685.42 18.74
1 -6 -2 658.62 16.24
1 6 -2 714 21.88
1 6 -1 5.42 2.44
1 6 -1 12.1 2.75
-1 -6 1 6.8 2.89
1 -6 -1 7.16 1.81
-1 -6 1 6.15 2.29
-1 -6 1 6.96 2.37
-1 6 1 7.11 2.04
-1 6 1 7.07 1.66
1 -6 -1 8.04 3.07
-1 6 0 1135.43 22.81
1 -6 0 1037.19 31.78
-1 -6 0 1097.25 25.97
-1 6 0 1050.52 22.25
1 -6 0 1037.29 21.25
1 6 0 1039.9 29.67
-1 -6 0 1045.66 27.31
-1 6 -1 483.7 14.08
-1 -6 -1 483.33 17.75
-1 6 -1 448.88 15.76
1 -6 1 496.2 22.41
1 6 1 454.73 19.07
-1 6 -2 70.01 8.15
1 6 2 73.55 7.62
-1 -6 -2 68.19 7.27
-1 -6 -2 60.43 6.1
1 -6 2 76.66 9.41
1 6 3 148.93 10.47
-1 6 -3 144 12.35
1 -6 3 160.99 11.92
-1 -6 -3 140.72 10.82
1 -6 3 154.44 10.86
-1 -6 -3 128.3 9.94
-1 6 -4 234.19 17
1 -6 4 253.18 13.21
1 6 4 243.8 13.18
-1 -6 -4 243.55 15.27
-1 -6 -4 216.59 14.4
1 -6 4 252.89 13.73
-1 6 -5 49.54 8.99
1 -6 5 34.2 4.71
1 6 5 36.2 5.32
-1 -6 -5 37.76 6.66
-1 -6 -5 37.28 7.17
1 -6 5 40.41 5.36
-1 6 -6 11.65 4.04
1 6 6 16.54 3.67
1 -6 6 16.92 3.47
-1 -6 -6 16.94 5.14
-1 6 -7 159.13 18.32
1 6 7 167.25 12.12
-1 -6 -7 155.52 16.73
1 -6 7 179.13 10.76
1 6 8 25.77 2.74
1 6 8 25.77 2.92
-1 -6 -8 26.2 4.85
1 -6 8 30.17 3.1
1 6 9 19.4 2.41
-1 6 -9 20.34 3.1
1 -6 9 21.74 2.7
-1 -6 -9 21.71 4.75
1 6 9 17.94 2.56
-1 6 -10 72.95 5.68
1 6 10 65.45 4.33
1 6 10 60.13 4.67
-1 -6 -10 64.42 7.96
1 -6 10 69.65 4.53
-1 -6 -11 16.45 4.38
-1 6 -11 14.12 2.77
1 6 11 12.19 1.9
1 -6 11 8.95 1.75
1 6 11 12.18 2.18
-1 -6 -12 10.85 3.36
1 -6 12 5.51 1.22
1 6 12 6.23 1.44
-1 6 -12 10.07 2.29
-1 6 -13 1.17 1.16
-1 -6 -13 0.26 1.53
1 6 13 -1.48 0.85
-1 7 13 1.22 0.95
-1 -7 13 2.44 0.94
-1 7 12 4.96 1.17
-1 7 12 5.15 1.59
-1 -7 12 4.18 1.31
-1 7 11 18.66 2.4
-1 7 11 17.77 2.8
-1 -7 11 20.03 2.69
-1 7 10 23.03 3.32
-1 -7 10 24.1 2.58
-1 7 10 26.93 3.03
-1 7 9 11.87 2.2
-1 7 9 13.07 2.68
-1 -7 8 14.79 1.93
-1 7 8 15.46 2.82
-1 7 8 16.26 2.62
-1 7 7 46.78 4.5
-1 7 7 55.85 4.27
-1 7 6 19.1 4.05
1 -7 -6 18.98 4.24
1 7 -6 20.95 6.99
1 -7 -6 15.46 5.06
-1 -7 6 19.63 3.95
1 7 -5 98.07 11.8
1 -7 -5 88.81 10.93
1 -7 -5 103.38 7.57
-1 7 5 91.05 8.3
-1 -7 5 95.26 7.79
-1 -7 4 155.53 10.17
1 7 -4 147.07 13.17
1 -7 -4 132.5 12.76
1 -7 -4 138 8.02
-1 7 4 121.35 9.06
-1 -7 4 147.36 9.7
-1 -7 3 46.15 5.65
1 7 -3 48.13 7.01
-1 -7 3 50.06 6.24
1 -7 -3 48.25 4.69
-1 7 3 44.21 5.32
1 -7 -3 35.6 6.24
-1 -7 2 10.01 3.12
-1 7 2 7.12 2.16
1 7 -2 8.28 3.27
1 -7 -2 7.36 3.43
-1 -7 2 7.58 3.02
1 -7 -2 9.2 2.12
-1 -7 1 137.01 12.07
1 -7 -1 119.18 11.32
1 7 -1 116.56 11.14
1 -7 -1 136.17 7.82
-1 -7 1 139.71 10.59
-1 7 1 145.77 9.12
-1 -7 0 627.45 26.78
1 -7 0 591.81 25.87
-1 -7 0 628.7 22.17
1 7 0 598.33 24.14
-1 7 0 584.98 18.25
1 -7 0 590.45 16.08
-1 7 0 644.36 18.55
-1 -7 0 598.32 22.66
-1 7 -1 18.92 3.59
1 7 1 19.82 4.46
1 -7 1 22.61 3.27
-1 7 -1 22.33 3.36
-1 -7 -1 20.25 4.31
1 -7 1 19.3 5.41
-1 7 -2 114.15 9.29
-1 7 -2 113.95 10.88
-1 -7 -2 132.42 10.86
1 7 2 123.69 10.33
1 -7 2 136.74 12.94
1 7 3 208.18 13.31
-1 7 -3 177.12 14.52
1 -7 3 200.49 13.25
-1 -7 -3 186.64 13.66
-1 -7 -3 173.94 12.22
1 -7 3 209.48 14.92
-1 -7 -4 85.75 9.79
-1 7 -4 83.32 10.6
1 7 4 89.07 8.57
-1 -7 -4 84.96 9.95
1 -7 4 98.33 8.84
1 -7 4 97.18 9.46
1 -7 5 8.04 3.06
-1 7 -5 7.21 4.42
-1 -7 -5 3.66 3.31
1 7 5 6.62 2.82
-1 -7 -5 6.99 3.72
-1 7 -6 104.42 14.17
1 7 6 98.28 9.45
-1 -7 -6 96.07 12.57
1 -7 6 107.93 9.14
1 7 7 32.62 2.96
1 -7 7 30.25 3.06
-1 -7 -7 25.45 4.32
-1 -7 -8 96.48 8.79
1 7 8 110.15 5.68
1 7 8 99.81 5.68
1 -7 8 120.37 6.02
-1 7 -9 5.48 1.76
1 7 9 2.57 1.28
1 -7 9 5.12 1.58
-1 -7 -9 4.22 2.69
1 7 9 2.53 1.15
-1 -7 -10 133 10.95
1 7 10 127.51 6.12
1 7 10 118.67 6.46
-1 7 -10 134.96 7.7
1 -7 10 128.85 5.99
1 7 11 1.15 1.11
-1 -7 -11 0.5 1.98
1 7 11 1.06 0.83
-1 7 -11 1.83 1.41
1 -7 11 -1.45 1.23
1 7 12 5.37 1.16
1 -7 12 1.87 0.77
-1 -7 -12 3.56 2.01
1 7 12 2.7 1.12
-1 7 -12 6.55 1.86
1 7 13 0.73 0.7
-1 7 -13 1.38 1.02
-1 -7 -13 1.97 1.88
1 -7 13 0.69 0.75
-1 -8 13 1.05 0.72
-1 -8 12 0.74 0.83
-1 8 12 1.61 0.77
-1 8 11 2.52 1.33
-1 8 11 1.1 0.99
-1 -8 11 1.59 0.96
-1 8 10 13.27 2.5
-1 8 10 12.73 2.11
-1 -8 10 11.49 2.3
-1 8 9 4.26 1.81
-1 8 9 4.15 1.48
-1 -8 8 11.75 1.69
-1 -8 8 14.83 1.96
-1 8 8 12.02 2.52
-1 8 8 12.06 2.18
-1 -8 7 17.55 2.06
-1 -8 7 14.73 1.93
-1 8 7 15.95 2.89
-1 8 7 19.8 2.86
-1 -8 5 24.14 4.38
-1 8 5 24.38 4.64
1 -8 -5 27.27 4.65
1 -8 -5 23.36 6.13
-1 8 4 26.7 4.82
1 -8 -4 27.18 4.09
1 -8 -4 29.65 6.5
-1 -8 4 32.25 5.13
-1 8 3 5.27 2.24
-1 -8 3 5.98 2.61
1 -8 -3 5.46 1.51
1 8 -3 6.37 3.3
-1 -8 3 9.51 3.23
1 -8 -3 6.46 3.41
-1 -8 2 12.4 3.64
-1 8 2 11.18 2.93
1 8 -2 8.56 4.03
1 -8 -2 14.41 2.69
-1 -8 2 14.16 3.91
1 -8 -2 13.54 4.61
-1 -8 1 13.59 4.5
1 8 -1 16.5 4.71
1 -8 -1 17.81 2.88
1 -8 -1 14.68 4.82
-1 -8 1 19.39 4.56
-1 8 1 16.37 3.46
1 8 0 11.64 3.98
-1 -8 0 14.84 5.4
-1 -8 0 10.2 3.93
1 -8 0 12.06 4.55
1 -8 0 10.28 2.24
-1 8 0 12.71 2.88
1 8 1 45.92 7.04
1 -8 1 42.5 8.23
-1 -8 -1 57 8
-1 -8 -1 42.39 6.47
-1 -8 -2 80.29 9.15
1 8 2 73.17 8.64
1 -8 2 83.99 11.02
1 8 3 260.81 16.04
-1 8 -3 244.17 17.75
-1 -8 -3 255.51 17.32
1 -8 3 277.2 16.15
1 -8 3 272.16 18.22
-1 8 -4 210.43 17.57
1 8 4 221.31 14.49
-1 -8 -4 197.14 15.6
-1 -8 -4 236.69 17.91
1 -8 4 245.12 16.13
1 8 5 48.11 6.94
-1 8 -5 41.73 8.52
1 -8 5 39.75 6.3
-1 -8 -5 38.75 7.8
-1 -8 -6 36.19 8.24
1 -8 6 38.04 5.93
1 8 7 72 4.62
1 -8 7 78.12 4.88
-1 -8 -7 68.17 7.02
1 -8 8 3.18 1.6
1 8 8 0.14 0.87
1 8 8 -1.11 1.4
-1 -8 -8 -1.71 2.29
-1 -8 -9 172.61 12.16
1 8 9 149.78 7.23
1 -8 9 187.69 7.36
1 8 9 159.91 6.99
-1 8 -9 167.56 8.41
1 8 10 11.8 2.11
1 8 10 13.11 2.12
-1 -8 -10 12.36 3.63
1 -8 10 13.79 2.08
-1 8 -10 13.71 2.58
1 8 11 9.16 1.57
-1 -8 -11 10.47 3.31
1 -8 11 7.08 1.39
1 8 11 7.08 1.58
-1 8 -11 10.73 2.21
-1 -8 -12 1.78 2.03
1 8 12 1.74 0.76
1 -8 12 0.71 0.65
1 8 12 2.71 1.12
-1 8 -12 2.3 1.24
-1 -8 -13 10.55 2.62
-1 -9 12 0.53 0.73
-1 9 12 0.16 0.56
-1 9 11 1.59 1.13
-1 9 11 1.13 0.9
-1 -9 11 1.13 1
-1 9 10 0.08 1.07
-1 9 10 -0.44 0.91
-1 -9 10 0.53 1
-1 9 9 4.58 1.69
-1 9 9 4.38 1.45
-1 -9 8 71.48 3.97
-1 -9 8 74.93 4.1
-1 9 8 69.63 5.61
-1 9 8 68.79 5.1
-1 9 7 167.61 7.8
-1 -9 7 172.84 6.39
-1 -9 7 169.9 6.33
-1 9 6 12.35 2.21
-1 -9 6 10.54 1.78
-1 9 6 13.96 2.86
-1 -9 6 9.48 1.71
-1 -9 4 5.41 2.54
1 9 -4 5.03 4.08
1 -9 -4 4.38 2.25
-1 9 4 2.83 1.57
1 -9 -4 5.24 4
-1 9 3 7.54 2.78
-1 -9 3 2.51 2.31
-1 -9 3 11.42 3.69
1 9 -3 10.59 4.5
1 -9 -3 7.65 2.1
1 -9 -3 6.47 4.54
-1 -9 2 1.58 2.43
1 9 -2 3.67 2.91
-1 -9 2 4.55 3.07
1 -9 -2 2 0.9
1 -9 -2 0.57 2.1
-1 9 2 4.02 1.88
-1 -9 1 107.9 12.03
1 -9 -1 86.83 11.6
1 9 -1 93.6 11.4
1 -9 -1 115.32 7.29
-1 9 1 106.16 9.07
-1 -9 1 95.31 10.02
-1 -9 0 24.25 6.72
1 9 0 20.74 5.17
1 -9 0 20.61 6.2
-1 -9 0 22.37 5.85
-1 -9 -1 30.04 6.65
1 9 1 30.22 6.18
1 -9 1 43.37 9.23
1 -9 1 28.21 7.41
1 -9 2 26.7 7.38
1 9 2 23.21 5.14
1 -9 3 24.82 6.42
-1 9 -3 15.75 4.63
1 9 3 22.11 5.09
-1 9 -4 45.08 8.44
1 9 4 42.66 6.8
1 -9 4 53.23 8.27
-1 -9 -5 6.24 2.35
1 -9 5 6.04 2.15
-1 -9 -6 29.25 4.75
1 -9 6 31.67 3.35
1 9 6 30.65 2.94
1 9 7 64.74 4.37
-1 -9 -7 56.68 6.57
1 -9 7 72.24 4.78
-1 -9 -8 36.93 5.47
1 9 8 40.6 3.57
1 -9 8 47.52 3.85
1 9 9 11.71 1.98
-1 -9 -9 17.7 4.18
1 -9 9 13.74 2.15
-1 9 -9 13.4 2.64
1 9 10 20.19 2.61
1 9 10 21.7 2.53
1 -9 10 22.24 2.47
-1 9 -10 20.74 3.14
-1 -9 -10 19.17 4.08
-1 -9 -11 5.79 2.59
1 9 11 7.6 1.59
1 -9 11 5.6 1.19
-1 9 -11 5.91 1.69
1 9 11 6.73 1.4
1 9 12 2.35 0.74
-1 -9 -12 2.48 2.02
1 -9 12 0.31 0.68
1 9 12 0.73 0.69
-1 9 -12 2.89 1.23
-1 -10 12 13.44 1.59
-1 10 11 0.97 0.74
-1 -10 11 2.12 1
-1 10 10 1.48 1.23
-1 -10 10 1.8 1.1
-1 10 10 0.35 0.73
-1 10 9 4.08 1.29
-1 10 9 4.91 1.71
-1 -10 8 10.81 1.66
-1 10 8 11.36 2.52
-1 -10 8 13.67 1.85
-1 10 8 10.51 2.13
-1 10 7 44.41 4.16
-1 -10 7 47.63 3.33
-1 -10 7 42.17 3.21
-1 10 7 42.76 4.41
-1 -10 6 111.61 5.35
-1 -10 6 122.62 5.54
-1 10 6 109.75 6.4
-1 -10 5 86.89 4.78
-1 10 5 90.16 5.76
-1 -10 5 98.52 5.12
-1 -10 4 157.45 6.48
-1 10 4 163.07 7.52
-1 10 3 76.09 8.79
-1 -10 3 79.68 8.91
1 -10 -3 101.19 8.14
-1 -10 2 27.66 5.91
-1 -10 2 24.01 5.61
1 10 -2 20.54 6.16
1 -10 -2 16.08 5.3
-1 10 2 22.36 4.78
-1 -10 1 30.45 7.39
1 10 -1 31.74 6.91
1 -10 -1 31.94 7.76
-1 -10 1 23.24 5.37
-1 -10 0 10.3 4.84
1 10 0 6.27 3.23
1 -10 0 4.47 4.35
-1 -10 0 7.8 4
-1 -10 -1 25.04 7.31
1 10 1 16.86 5.15
1 -10 1 15.41 6.24
1 -10 2 55.15 10.11
1 10 2 55.81 8.5
1 -10 3 24.32 6.65
-1 -10 -4 59.78 5.93
-1 10 -4 76.57 4.26
1 10 4 73.13 4.28
1 -10 4 68.4 5.64
1 10 5 45.09 3.5
-1 -10 -5 47.62 5.58
1 -10 5 53.26 4.74
-1 -10 -6 164.71 10.5
1 10 6 178.5 7.13
1 -10 6 188.06 7.87
-1 -10 -7 22.87 4.23
1 10 7 19.85 2.52
1 -10 7 23.37 2.83
1 10 8 0.44 0.86
1 -10 8 2.9 1.49
-1 -10 -8 1.02 1.77
1 10 9 1.37 0.9
1 -10 9 2.93 1.23
-1 -10 -9 0.55 1.72
-1 10 -9 1.97 1.32
-1 10 -10 12.04 2.25
1 -10 10 8.92 1.53
1 10 10 9.26 1.6
-1 -10 -10 10.56 3.35
-1 -10 -11 3.68 1.92
1 -10 11 1.47 0.72
-1 10 -11 2.13 1.1
1 10 11 1.72 0.81
-1 -10 -12 1.47 1.39
-1 10 -12 2.8 1.23
-1 11 11 3.45 0.92
-1 -11 11 2.76 0.92
-1 11 10 4.81 1.25
-1 -11 10 3.3 1.1
-1 11 9 0.43 0.88
-1 -11 9 0.57 0.92
-1 -11 8 28.19 2.4
-1 -11 8 25.78 2.35
-1 11 8 26.04 3.07
-1 -11 7 4.39 1.18
-1 -11 7 2.17 0.78
-1 11 7 5.2 1.6
-1 11 6 7.71 1.82
-1 -11 6 7.68 1.62
-1 -11 6 7.63 1.55
-1 -11 5 67.9 4.33
-1 -11 5 72.17 4.45
-1 11 5 66.31 5.03
-1 11 4 96.83 4.29
-1 -11 4 96.78 5.19
-1 11 4 97.58 5.97
-1 11 3 12.21 1.63
-1 -11 3 6.52 1.51
-1 11 2 43.82 3.03
-1 -11 2 38.86 3.43
-1 11 1 1.21 0.89
-1 -11 1 -0.27 1.02
-1 -11 1 1.46 2.01
-1 11 0 99 4.71
-1 -11 0 88.02 5.17
-1 -11 0 97.87 7.37
-1 11 -1 12.24 1.85
-1 -11 -1 7.49 1.93
-1 -11 -1 8.21 2.66
1 -11 1 9.28 3
-1 -11 -2 69.96 4.68
-1 11 -2 83.65 4.52
1 -11 2 76.03 6.32
-1 -11 -2 77.58 6.71
-1 -11 -3 31.65 4.52
-1 11 -3 43.79 3.32
1 -11 3 38.79 4.02
1 -11 3 40.62 4.54
1 11 4 52.4 3.76
-1 11 -4 58.35 3.84
-1 -11 -4 45.55 5.57
1 -11 4 50.16 4.19
1 -11 4 64.04 5.25
1 -11 5 47.57 4.28
1 11 5 46.52 3.64
-1 -11 -5 40.68 5.19
-1 -11 -6 54.92 6.12
1 11 6 59.68 4.21
1 -11 6 66.27 4.71
1 11 7 6.74 1.52
1 -11 7 7.35 1.68
-1 -11 -7 6.65 2.53
-1 11 -8 55.86 4.64
1 11 8 56.13 4.07
1 -11 8 68 4.18
1 -11 9 16.81 2.06
1 11 9 12.84 1.96
-1 -11 -9 11.27 2.83
-1 11 -9 14.63 2.47
-1 -11 -10 0.61 1.43
-1 11 -10 3.7 1.36
1 -11 10 1.7 0.73
1 11 10 1.12 0.62
-1 -11 -11 4 1.93
1 11 11 2.17 0.73
1 -11 11 1.28 0.64
-1 11 -11 3.22 1.17
-1 12 10 10.92 1.51
1 12 -10 15.91 2.04
-1 -12 10 11.36 1.51
-1 12 9 4.91 1.32
-1 -12 9 6.2 1.34
-1 -12 8 4.65 1.09
-1 -12 8 3.76 1.04
-1 12 8 1.77 0.97
-1 -12 8 3.86 1.36
-1 -12 7 27.69 2.48
-1 -12 7 24.24 2.35
-1 12 7 26.97 3.08
-1 -12 6 4.79 1.24
-1 -12 6 4.69 1.23
-1 12 6 4.7 1.59
-1 -12 5 18.85 2.41
-1 -12 5 18.97 2.33
-1 12 5 14.78 2.34
-1 12 4 53.41 3.28
-1 12 4 52.69 4.39
-1 -12 4 54.18 3.89
-1 -12 3 27.66 3.11
-1 12 3 29.44 2.48
-1 12 2 141.12 5.52
-1 -12 2 137.91 6.43
-1 12 1 86.08 4.45
-1 -12 1 78.95 4.95
-1 12 0 40.82 3.15
-1 -12 0 33.88 3.38
-1 -12 0 42.55 5.02
1 -12 0 35.28 4.56
-1 -12 -1 15.9 2.38
-1 12 -1 19.19 2.22
-1 -12 -1 16.56 3.32
1 -12 1 17.36 3.66
-1 12 -2 5.86 1.36
-1 -12 -2 6.32 1.81
1 -12 2 9.6 2.84
-1 -12 -2 5.83 2.46
1 -12 3 41.19 4.08
-1 12 -3 56.08 3.82
-1 -12 -3 40.89 5.15
1 -12 3 47.96 4.63
-1 12 -4 7.84 1.55
1 -12 4 5.11 1.63
-1 -12 -4 5.09 2.23
1 -12 5 60.65 4.5
1 12 5 55.47 4.02
-1 -12 -5 49.42 5.78
-1 -12 -6 12.93 3.07
1 12 6 14.43 2.16
1 -12 6 15.53 2.31
1 12 7 4.98 1.32
-1 -12 -7 3.94 1.74
1 -12 7 7.08 1.59
-1 -12 -8 -0.37 1.68
1 -12 8 2.79 1.16
1 12 8 0.26 0.72
-1 12 -8 1.37 1.39
-1 -12 -9 1.93 1.67
1 -12 9 1.69 0.8
1 12 9 2.26 0.89
-1 12 -9 2.86 1.16
1 12 10 2.53 0.83
1 -12 10 1.71 0.63
-1 12 -10 5.85 1.51
-1 -12 -10 3.66 1.87
-1 13 9 9.25 1.42
-1 -13 8 1.93 0.73
-1 13 8 1.83 0.9
-1 -13 7 1.74 0.81
-1 -13 7 2.78 0.95
-1 13 7 2.12 0.99
-1 -13 6 5.89 1.32
-1 -13 6 5.17 1.18
-1 13 6 4.35 1.38
-1 -13 5 2.27 1.07
-1 -13 5 2.07 1.03
-1 13 5 1.62 0.91
-1 13 4 7.69 1.28
-1 -13 4 9.45 1.78
-1 13 3 44.64 3.07
1 13 -3 50.31 3.22
-1 -13 3 46.8 3.71
-1 13 2 13.75 1.84
-1 -13 2 15.91 2.33
-1 13 1 46.02 3.27
-1 -13 1 45.41 3.75
1 -13 -1 44.36 5.05
-1 13 0 1.24 1
-1 -13 0 0.25 1.02
-1 -13 0 1.16 1.7
1 -13 0 -0.22 1.96
-1 13 -1 19.39 2.23
-1 -13 -1 12.77 2.05
1 -13 1 16.04 3.3
-1 -13 -1 16.68 3.79
-1 13 -2 2.68 1.02
-1 -13 -2 0.29 1.24
1 -13 2 2.24 1.54
-1 -13 -2 2.37 1.82
1 -13 2 2.23 1.88
-1 13 -3 12.84 1.98
-1 -13 -3 11.88 2.93
1 -13 3 12.58 2.59
1 -13 3 9.07 2.1
-1 13 -4 89.24 4.78
1 -13 4 70.3 4.44
-1 -13 -4 71.3 6.58
1 -13 4 78.3 5.08
1 -13 5 0.61 1.04
1 13 5 2.21 1.04
-1 -13 -5 1.79 1.91
1 -13 6 27.14 2.66
-1 -13 -6 21.3 3.66
1 13 6 22.98 2.51
-1 13 -7 2.41 1.34
1 13 7 1.19 0.84
1 -13 7 3.26 1.22
-1 -13 -7 1.95 1.75
-1 13 -8 9.95 1.84
1 13 8 10.1 1.55
-1 -13 -8 8.68 2.33
1 -13 8 11.77 1.56
-1 13 -9 3.47 1.18
1 13 9 4.18 0.97
-1 -13 -9 2.81 1.54
1 -13 9 2.55 0.72
-1 -14 8 13.97 1.27
-1 14 8 14.05 1.61
-1 -14 7 2.7 0.78
-1 -14 7 2.14 0.76
-1 14 7 2.22 0.94
-1 14 6 1.61 1.01
-1 -14 6 1.88 0.73
-1 -14 6 0.35 0.66
-1 -14 5 0.82 0.75
-1 -14 5 0.35 0.65
-1 14 4 10.74 1.44
-1 -14 4 12.05 1.84
-1 -14 4 11.97 1.83
1 14 -3 34.24 2.68
-1 -14 3 29.58 2.86
-1 14 3 27.32 2.35
1 -14 -3 30.43 4.03
-1 14 2 40.15 2.96
1 14 -2 42.75 3.04
1 -14 -2 42.31 4.71
-1 -14 2 44.43 3.54
-1 14 1 16.86 2.03
1 14 -1 18.58 2.04
-1 -14 1 21.43 2.57
1 -14 -1 15.45 3.03
-1 14 0 12.31 1.82
1 -14 0 13.68 2.75
-1 -14 0 6.74 1.47
1 -14 0 8.15 2.36
1 -14 1 9.25 2.25
-1 -14 -1 3.59 1.04
1 -14 1 6.83 2.11
-1 -14 -1 6.46 2.35
-1 14 -1 5.69 1.35
1 -14 2 2.96 1.71
-1 14 -2 1.84 1.01
1 -14 2 2.1 1.28
-1 -14 -2 -0.45 1.28
-1 -14 -2 2.72 1.89
-1 14 -3 6.08 1.37
1 -14 3 3.6 1.24
1 -14 3 6.97 1.96
-1 -14 -3 6.85 2.32
-1 14 -4 13.29 1.94
1 -14 4 8.05 1.51
1 -14 4 12.26 1.97
-1 -14 -4 12.62 2.84
-1 -14 -5 25.07 3.77
1 -14 5 30.02 2.63
1 14 6 5.66 0.97
1 -14 6 8.41 1.5
1 14 6 6.1 1.26
-1 -14 -6 5.77 2.05
-1 14 -6 7.92 1.58
-1 14 -7 11.09 1.75
1 14 7 8.88 1.42
-1 -14 -7 12.49 2.75
1 -14 7 13.45 1.53
1 14 8 2.33 0.77
1 -14 8 1.41 0.61
-1 -14 -8 3.44 1.68
-1 14 -8 2.64 1
-1 -15 7 0.95 0.47
-1 -15 6 2.96 0.72
-1 -15 6 3.92 0.9
-1 -15 5 8.28 1.21
1 -15 -5 11.45 2.24
-1 -15 4 5.75 1.42
-1 -15 4 2.39 0.87
1 -15 -4 4.61 1.9
-1 15 4 4.47 0.94
-1 15 3 6.48 1.15
-1 -15 3 4.14 1.18
-1 -15 3 5.34 1.19
1 -15 -3 7.94 2.17
-1 15 2 4.32 1.11
1 15 -2 4.26 1.01
-1 -15 2 4.85 1.27
1 -15 -2 8.13 2.2
1 -15 -2 3.16 1.78
-1 15 1 2.2 0.8
1 15 -1 1.54 0.74
-1 -15 1 3.25 1.22
1 -15 -1 3.24 1.51
1 -15 -1 1.86 1.73
1 15 0 6.97 1.22
1 -15 0 8.64 2.06
-1 -15 0 7.85 1.61
-1 15 0 7.05 1.38
1 -15 0 9.03 2.09
-1 15 -1 12.36 1.71
1 -15 1 10.88 1.93
-1 -15 -1 12.96 1.86
1 15 1 10.69 1.46
1 -15 1 16.66 2.43
-1 15 -2 11.72 1.71
1 15 2 8.31 1.29
1 -15 2 12.71 1.9
-1 -15 -2 12.48 1.86
1 -15 2 8.14 1.62
-1 15 -3 28.89 2.57
1 15 3 23.58 1.96
1 -15 3 33.98 2.81
1 -15 3 26.33 2.44
-1 -15 -3 30.99 3.88
1 15 4 16.39 1.58
1 -15 4 14.96 1.75
-1 -15 -4 18.98 3.08
1 -15 4 19.54 1.94
-1 15 -4 19.11 2.05
1 -15 5 15.51 1.65
-1 -15 -5 15.02 2.72
1 15 5 12.61 1.28
1 15 6 25.65 1.53
-1 -15 -6 27.8 3.27
-1 15 -6 28.37 2.32
1 -15 6 34.32 2.1
-1 15 -7 9.28 1.33
-1 -15 -7 8.21 1.71
-1 -16 5 3.31 0.65
-1 -16 5 3.32 0.73
-1 16 4 5.85 0.89
1 -16 -4 5.66 1.41
-1 -16 4 4.55 0.86
-1 -16 4 2.7 0.69
-1 16 3 1.67 0.65
1 -16 -3 3.36 1.21
-1 -16 3 1.91 0.8
-1 -16 3 1.9 0.72
-1 16 2 0.69 0.55
1 16 -2 1.18 0.6
-1 -16 2 2.08 0.88
1 -16 -2 0.77 0.96
-1 -16 2 0.84 0.56
-1 16 1 1.23 0.58
1 16 -1 2.63 0.74
1 -16 -1 2.9 1.22
-1 -16 1 2.43 0.93
1 16 0 0.85 0.6
1 -16 0 1.81 0.94
-1 16 0 1.78 0.86
-1 -16 0 2.35 0.94
-1 16 -1 2.82 0.91
1 16 1 1.88 0.7
-1 -16 -1 2.93 0.89
1 -16 1 1.22 0.84
-1 16 -2 1.94 0.76
1 16 2 1.98 0.71
1 -16 2 1.17 0.72
1 16 3 6.85 1.01
-1 16 -3 7.64 1.2
1 -16 3 8.44 1.26
-1 16 -4 1.62 0.64
1 16 4 1.28 0.54
1 -16 4 2.22 0.65
1 16 5 24.23 1.43
-1 -17 3 2.86 0.63
-1 -17 3 2.48 0.58
1 -17 -3 1.05 0.65
-1 17 2 4.1 0.74
-1 -17 2 4.41 0.83
-1 -17 2 3.56 0.72
1 -17 -2 3.66 0.91
-1 17 1 0.29 0.44
1 17 -1 0.86 0.47
-1 -17 1 0.9 0.61
-1 -17 1 0.59 0.45
1 -17 -1 0.41 0.58
-1 17 0 5.56 0.91
1 17 0 5.81 0.87
-1 -17 0 5.99 0.92
1 -17 0 4.46 0.9
-1 17 -1 1.59 0.6
1 17 1 1.1 0.51
-1 -17 -1 1.05 0.57
1 -17 1 -0.55 0.59
-1 17 -2 5.62 0.93
1 17 2 4.53 0.71
1 -17 2 5.53 0.89
1 17 3 10.06 0.94
-2 0 12 33.74 3.19
-2 0 11 83.78 5.6
-2 0 10 31.8 2.84
-2 0 10 40.35 4.16
-2 0 9 67.95 4.05
-2 0 9 77.45 5.64
-2 0 8 1.63 0.76
-2 0 8 1.52 1.36
-2 0 7 32.7 6.61
-2 0 7 40.94 6.15
-2 0 6 40.64 6.96
-2 0 6 41.14 5.89
-2 0 5 30.99 6.02
2 0 -5 33.53 3.77
-2 0 5 27.21 4.4
-2 0 5 27.34 4.43
-2 0 4 146.92 11.8
2 0 -4 174.43 9.11
-2 0 4 157.78 9.94
-2 0 4 153.02 10.27
-2 0 3 89.23 5.89
-2 0 3 72.64 8.04
-2 0 3 88.57 7.36
-2 0 3 85.37 7.34
-2 0 2 23 2.89
-2 0 2 23.87 4.69
-2 0 2 24.77 3.96
-2 0 2 22.52 3.68
-2 0 1 3.93 1.25
-2 0 1 5.36 1.95
-2 0 1 3.24 1.52
2 0 -1 3.01 1.44
-2 0 0 110.23 5.88
2 0 0 104.5 7.21
-2 0 0 103.43 7.29
-2 0 0 106.09 7.65
-2 0 -1 164.31 7.05
-2 0 -1 158.65 9.56
2 0 1 165.57 8.96
-2 0 -1 169.83 9.66
-2 0 -2 44.66 3.63
2 0 2 40.18 4.57
2 0 3 353.23 12.85
2 0 4 800.89 19.12
2 0 5 92.14 6.35
2 0 6 0.85 1.33
2 0 7 0.58 1.32
2 0 8 1.34 1.28
-2 0 -8 -0.42 1.39
2 0 9 0.57 0.94
-2 0 -9 0.21 1.44
-2 0 -10 14.48 3.18
-2 0 -10 11.46 3.15
2 0 10 11.7 2.05
-2 0 -11 -0.49 1.5
-2 0 -11 -0.16 1.61
2 0 11 -1.2 1.08
-2 0 -12 5.84 2.34
-2 0 -12 9.32 2.51
2 0 12 8.85 1.65
2 0 13 4.93 1.13
-2 0 -13 3.5 1.6
-2 -1 13 2.53 1.09
-2 1 12 0.84 1.1
-2 -1 12 -0.81 1.13
-2 -1 11 53.7 3.36
-2 1 11 60.35 4.67
-2 -1 11 64.27 4.96
-2 1 10 47.52 4.4
-2 -1 10 44.51 3.24
-2 1 10 42.2 3.16
-2 -1 10 54.78 4.74
-2 1 9 1.6 0.94
-2 -1 9 0.42 0.68
-2 1 9 2.16 1.63
-2 1 9 -0.33 1.2
-2 -1 9 1.95 1.24
-2 1 8 27.58 2.5
-2 -1 8 29.39 2.52
-2 1 8 27.79 3.3
-2 -1 8 32.81 3.61
2 1 -7 60.29 8.21
-2 -1 7 55.19 8.46
-2 1 7 50.91 8.27
-2 -1 7 63.39 7.64
-2 1 7 62.25 7.38
-2 1 6 244.11 13.37
-2 -1 6 216.43 15.96
-2 1 6 223.17 16.18
-2 -1 6 246.19 14.06
-2 1 6 240.57 13.54
-2 -1 5 92.11 9.97
-2 1 5 94 10.15
2 -1 -5 109.94 7.2
-2 -1 5 86.79 7.21
-2 1 5 88.91 7.99
-2 -1 5 86.62 8.16
-2 1 5 88.52 7.9
-2 -1 4 237.93 10.26
-2 -1 4 218.95 14.5
-2 1 4 205.67 14.14
-2 -1 4 221.47 11.21
2 -1 -4 241.79 11.49
-2 1 4 221.05 12.15
-2 -1 4 220.95 12.4
-2 1 4 201.95 11.26
-2 -1 3 103.22 6.61
-2 1 3 105.41 8.25
-2 -1 3 94.05 9.14
-2 1 3 98.76 9.37
2 -1 -3 111.22 8.43
-2 -1 3 98.04 7.37
-2 -1 3 100.69 8.14
-2 1 3 101.86 7.55
-2 -1 2 37.56 3.97
-2 -1 2 34.55 5.42
-2 1 2 35.01 5.64
-2 -1 2 35.57 4.41
-2 1 2 40.8 5.07
2 1 -2 30.78 3.54
-2 -1 2 37.13 4.72
-2 1 2 38.78 4.53
-2 1 1 288.79 9.07
-2 -1 1 276.73 10.41
-2 -1 1 254.85 13.88
-2 1 1 260.79 14.04
-2 -1 1 281.22 12.89
-2 -1 1 277.24 12.05
-2 1 1 275.61 12.49
2 1 -1 275.83 9.96
-2 1 1 291.82 11.98
-2 1 0 418.64 10.33
-2 -1 0 391.62 12.32
2 1 0 415.37 12.4
-2 -1 0 398.53 14.7
-2 1 0 392.44 14.62
-2 -1 0 427.95 15.86
2 -1 0 397.12 14.94
-2 1 0 401.9 13.47
-2 1 -1 77.42 4.17
-2 -1 -1 71.52 5.35
2 1 1 75.76 4.03
-2 1 -1 75.46 6.46
-2 1 -1 74.02 5.95
2 1 1 72.92 5.32
2 -1 1 71.87 6.66
-2 -1 -2 285.75 10.93
2 1 2 266.62 7.91
-2 1 -2 295.39 13.13
2 1 2 280.71 10.5
2 -1 2 287.42 13.03
-2 -1 -3 255.57 10.65
-2 1 -3 237.41 11.2
2 1 3 245 8.35
2 1 3 258.11 10.02
2 -1 3 249.31 11.79
2 1 4 209.51 8.81
2 -1 4 201.21 10.51
2 1 5 26.63 3.38
2 -1 5 23.55 3.48
2 -1 6 81.91 6.34
2 1 6 81.33 5.95
2 1 7 48.33 4.97
2 -1 7 46.33 4.87
2 -1 8 77.67 4.62
2 1 8 71.34 4.35
-2 -1 -8 72.78 6.7
-2 1 -8 70.06 6.31
-2 -1 -9 21.58 4.05
2 1 9 23.11 2.7
2 -1 9 27.99 2.89
-2 1 -9 27.96 4.28
-2 -1 -9 21.47 3.98
2 -1 10 25.92 2.82
-2 -1 -10 23.56 4.38
2 1 10 23.9 2.75
-2 -1 -10 22.47 4.05
-2 1 -10 28.01 4.28
2 -1 11 15.76 2.14
2 1 11 17.44 2.34
-2 -1 -11 14.88 3.55
-2 1 -11 17.33 3.41
-2 -1 -11 22.38 3.89
-2 1 -11 20.51 3.69
-2 1 -12 3.41 1.66
-2 -1 -12 2.06 1.99
2 1 12 2.75 1.16
-2 -1 -12 2.6 1.73
2 -1 12 1.55 0.95
-2 1 -12 0.74 1.29
2 -1 13 18.09 1.96
2 1 13 18.27 2.07
-2 -1 -13 16.34 2.88
-2 1 -13 22.53 2.93
-2 1 -13 17.22 2.87
-2 -2 13 1.97 0.99
-2 -2 12 4.91 1.41
-2 -2 11 2.73 1.06
-2 2 11 2.99 1.4
-2 -2 11 3.81 1.39
-2 2 11 3.15 1.5
-2 -2 10 34.68 2.83
-2 2 10 43.67 4.28
-2 2 10 41.8 4
-2 -2 10 41.56 4.22
-2 2 9 23.19 2.42
-2 -2 9 27.46 2.56
-2 2 9 30.4 3.68
-2 -2 9 32.1 3.67
-2 2 9 28.71 3.38
-2 2 8 0.59 0.84
-2 -2 8 0.68 0.76
-2 2 8 0.37 1.27
-2 -2 8 1.44 1.37
-2 2 8 -0.1 1.09
-2 2 7 38.08 5.64
2 2 -7 40.38 7.58
-2 -2 7 35.49 7.06
-2 2 7 37.57 7.08
-2 -2 7 45.42 6.57
-2 2 6 141.04 10.23
2 2 -6 129.88 10.97
-2 -2 6 149.6 13.23
-2 2 6 144.81 13.22
2 -2 -6 160.99 9.03
-2 2 6 146.45 10.61
-2 -2 6 142.3 10.83
-2 2 5 95.08 7.97
2 2 -5 100.22 8.1
-2 -2 5 95.41 10.13
-2 2 5 107.12 10.83
2 -2 -5 112.72 7.68
-2 2 5 89.06 8.13
-2 -2 5 97.45 8.65
-2 2 4 20.98 3.76
-2 -2 4 19.93 3.26
2 -2 -4 20.27 3.57
-2 -2 4 18.23 4.47
-2 2 4 18.9 4.81
-2 -2 4 18.95 3.34
-2 -2 4 20.56 4.41
-2 2 4 16.73 3.5
-2 2 3 82.26 6.8
-2 -2 3 84.57 6.45
-2 -2 3 79.5 8.38
-2 2 3 89.24 9.01
2 -2 -3 90.01 7.87
-2 -2 3 80.89 6.49
-2 2 3 85.7 7.6
-2 -2 3 74.44 7.37
-2 2 2 19.27 3.17
-2 -2 2 17.29 2.88
-2 -2 2 16.1 3.65
2 2 -2 17.19 3.25
-2 -2 2 17.13 3.85
-2 2 2 19.01 4.24
-2 -2 2 19.01 3.35
-2 2 2 18.46 3.59
-2 -2 1 597.3 16.61
2 -2 -1 616.44 16.81
-2 2 1 595.45 21.39
2 2 -1 616.5 16.8
-2 2 1 593.7 18.8
-2 -2 1 618.44 20.29
2 2 -1 571.5 12.38
-2 2 1 636.92 17.3
-2 -2 0 165.93 9.05
2 2 0 170.77 8
-2 2 0 160.32 9.56
2 2 0 170.78 6.81
-2 2 0 166.44 8.47
-2 -2 -1 10.16 2.43
-2 2 -1 11.47 2.33
2 2 1 12.98 2.2
-2 2 -1 9.55 2.48
2 2 1 12.97 2.01
2 -2 1 9.11 3.15
-2 -2 -2 227.97 11.46
2 2 2 220.14 8.61
-2 2 -2 219.2 11.2
2 2 2 219.34 7.99
2 -2 2 236.33 12.9
-2 2 -3 148.96 9.89
2 2 3 161.75 7.52
-2 -2 -3 171.94 10.42
2 -2 3 167.6 10.6
2 2 3 172.48 7.32
-2 2 -4 398.16 17.84
2 2 4 408.14 12.92
2 2 4 412.26 11.86
2 -2 4 435.29 16.5
2 -2 5 74.48 6.75
-2 -2 -5 84.73 9.09
2 2 5 66.89 5.04
-2 -2 -6 34.4 6.86
2 2 6 25.12 3.5
2 -2 6 22.82 3.56
-2 -2 -7 8.64 4.37
2 2 7 8.77 2.31
2 -2 7 7.65 2.42
-2 -2 -8 26.71 4.36
2 2 8 26.19 2.77
-2 -2 -8 22.42 4.26
-2 2 -8 24.51 4.01
2 2 9 76.63 4.68
-2 -2 -9 82.01 7.39
-2 -2 -9 74.54 7.57
2 -2 9 85.93 4.82
-2 2 -9 80.76 6.78
2 -2 10 111.11 5.52
-2 -2 -10 106.98 9.03
2 2 10 100.29 5.47
-2 -2 -10 118.23 9.09
-2 2 -10 116.91 8.29
-2 2 -11 2.78 1.74
-2 -2 -11 2.89 1.94
-2 -2 -11 4.36 2.02
-2 2 -11 2.82 1.79
2 -2 11 0.59 0.98
2 2 11 2.24 1.24
-2 -2 -12 -0.65 1.35
-2 2 -12 2.22 1.51
-2 2 -12 2.1 1.35
2 -2 12 2.1 1.07
2 2 12 2.36 1.18
-2 2 -13 16.84 2.57
2 -2 13 12.83 1.62
2 2 13 11.48 1.63
-2 -2 -13 9.9 2.34
-2 2 -13 12.63 2.41
-2 -3 13 1.5 0.99
-2 -3 12 19.45 1.83
-2 -3 12 20.78 2.65
-2 -3 11 10.2 1.59
-2 3 11 12.69 2.32
-2 -3 11 11.55 2.34
-2 -3 10 40.94 3.03
-2 3 10 41.86 4.28
-2 -3 10 43.11 4.19
-2 -3 9 0.03 0.74
-2 3 9 1.24 1.42
-2 3 9 1.01 1.15
-2 -3 9 0.58 1.17
-2 -3 8 77.75 4.27
-2 -3 8 80.87 4.18
-2 3 8 76.11 5.81
-2 3 8 77.26 5.42
-2 -3 8 77.1 5.45
-2 3 7 64.16 7.28
2 3 -7 58.27 9.92
-2 -3 7 54.57 8.63
-2 3 7 53.33 8.69
-2 3 7 61.8 7.48
2 -3 -7 69.51 6.63
-2 -3 7 62.36 7.72
-2 3 6 39.78 5.46
2 3 -6 34.74 6.65
-2 -3 6 42.67 7.35
-2 3 6 31.44 6.37
-2 -3 6 37.02 5.84
-2 3 6 42.07 6.03
2 -3 -6 42.99 5
-2 -3 5 0.65 0.88
-2 -3 5 -0.11 1.93
-2 3 5 0.78 1.21
2 3 -5 2.7 1.78
-2 -3 5 0.59 1.87
-2 3 5 1.08 2.07
2 -3 -5 2.37 1.72
-2 3 5 0.16 1.44
-2 -3 5 0.34 0.87
-2 3 4 82.41 6.94
-2 -3 4 98.42 7.32
-2 3 4 90.74 9.77
2 -3 -4 94.47 7.8
-2 3 4 84.66 7.91
-2 -3 4 87.38 9.39
-2 -3 4 91.86 8.74
-2 -3 4 79.96 5.9
-2 3 3 80.28 6.65
-2 -3 3 86.11 6.92
-2 -3 3 83.21 8.69
-2 3 3 89.59 9.09
2 -3 -3 75.46 7.02
2 -3 -3 94.26 8.19
-2 3 3 78.41 7.41
-2 -3 3 87.59 8.26
-2 -3 3 73.45 5.07
-2 3 2 106.13 7.26
-2 -3 2 103.48 7.61
-2 -3 2 103.96 9.35
2 -3 -2 95.91 7.8
2 3 -2 101.68 8.18
-2 3 2 102.38 9.43
-2 3 2 100.23 8.27
-2 -3 2 113.98 9.56
-2 3 1 139.42 7.93
-2 -3 1 132.35 8.68
2 -3 -1 137.1 9.26
-2 3 1 135.03 10.37
2 3 -1 130.24 8.98
-2 3 1 127.44 9.02
-2 -3 0 601.35 19.17
2 3 0 610.49 17.86
-2 3 0 565.65 18.4
2 3 0 565.37 10.35
-2 3 0 597.92 15.63
-2 -3 -1 33.69 4.81
2 3 1 36.63 4.31
-2 3 -1 35.45 4.59
2 3 1 35.43 2.82
2 -3 1 33.93 5.18
-2 3 -1 38.07 3.95
2 3 2 297.46 11.54
-2 3 -2 285.85 12.9
-2 -3 -2 322 15.32
2 3 2 307.56 8.75
2 -3 2 313.45 15.91
-2 3 -3 34.33 5.3
2 3 3 32.71 3.99
-2 -3 -3 35.33 5.4
2 -3 3 33.24 5.45
2 3 3 36.43 3.31
-2 -3 -4 78.15 8.41
-2 3 -4 77.74 8.55
2 3 4 72.03 5.94
2 3 4 81.16 5.26
2 -3 4 79.13 7.79
-2 3 -5 97.01 10.56
2 3 5 88.41 7.02
2 3 5 94.06 6.13
2 -3 5 91.69 7.99
2 3 6 57.5 5.2
2 -3 6 57.13 5.85
2 3 7 8.54 2.36
2 -3 7 8.49 2.48
2 -3 8 120.52 5.31
-2 -3 -8 107.86 8.76
-2 -3 -8 123.01 8.77
2 3 8 118.61 5.61
-2 3 -8 112.08 7.45
-2 -3 -9 198.3 12.3
2 3 9 205.9 7.67
-2 -3 -9 220.16 12.32
2 3 9 224.78 7.32
2 -3 9 237.64 7.88
2 -3 9 204.77 7.15
-2 3 -9 213.27 10.84
-2 3 -10 8.28 2.47
2 -3 10 2.72 1.1
-2 -3 -10 6.96 2.89
-2 -3 -10 4.98 2.07
2 3 10 4.84 1.51
2 -3 10 5.11 1.41
-2 -3 -11 8.46 2.75
2 -3 11 5.89 1.36
-2 -3 -11 6.61 2.92
2 3 11 6.29 1.57
2 -3 11 4.15 1.03
-2 3 -11 7.14 2.39
-2 3 -12 1.16 1.23
-2 -3 -12 -0.69 1.58
2 3 12 0.41 0.73
2 -3 12 1.43 0.94
-2 3 -12 1.51 1.58
-2 -3 -13 1.46 1.23
-2 3 -13 1.46 1.03
2 3 13 0.81 0.74
-2 3 -13 2.03 1.16
-2 -4 13 1.96 0.91
-2 -4 12 16.39 1.63
-2 -4 12 18.26 2.44
-2 -4 11 4.36 1.08
-2 4 11 5.73 1.88
-2 -4 11 4.71 1.66
-2 4 10 2.57 1.6
-2 -4 10 0.42 0.65
-2 -4 10 1.08 1.18
-2 -4 9 6.48 1.39
-2 4 9 9.97 1.91
-2 4 9 8.61 2.31
-2 -4 9 9.16 2.22
-2 4 8 3.59 1.91
-2 -4 8 2.17 0.95
-2 -4 8 2.86 1.06
-2 4 8 2.85 1.21
-2 -4 8 4.77 1.87
-2 4 7 41.77 7.92
-2 4 7 51.12 7.1
2 -4 -7 57.19 6.39
-2 -4 6 12.9 3.83
2 -4 -6 10.44 2.64
-2 4 6 12.75 3.38
-2 -4 6 9.82 4.44
-2 4 6 11.9 4.43
-2 4 6 10.48 3.26
-2 -4 6 10.03 2.55
-2 -4 5 44.32 5.29
-2 4 5 39.49 5.12
-2 -4 5 41.88 7.03
-2 4 5 52.09 8.09
2 -4 -5 49.7 5.76
-2 4 5 36.23 5.37
-2 -4 5 43.9 6.36
-2 -4 5 43.74 4.9
-2 -4 4 12.91 2.96
-2 -4 4 13.15 3.74
-2 4 4 10.62 2.6
-2 -4 4 10.39 2.27
-2 -4 4 12.49 4.14
-2 4 4 13.74 4.26
2 -4 -4 11.51 3.01
2 -4 -4 9.84 3
-2 4 4 9.92 2.75
-2 -4 3 0.08 1.31
-2 -4 3 2.3 2.39
-2 4 3 1.11 1.19
-2 -4 3 3.59 2.53
-2 4 3 2.1 2
2 -4 -3 2 1.72
2 -4 -3 1.76 1.58
-2 4 3 1.22 1.54
-2 4 2 144.15 8.42
-2 -4 2 142.63 9.59
2 -4 -2 139.3 10.35
-2 4 2 152.79 11.72
2 4 -2 147.1 10.75
2 -4 -2 153.12 11.37
-2 4 2 145.61 10.16
-2 4 1 804.91 19.07
-2 -4 1 766.61 23.1
2 -4 -1 753.23 24.44
-2 4 1 774.21 24.81
2 4 -1 789.77 24.23
-2 4 1 800.83 23.25
2 -4 0 945.35 27.6
-2 -4 0 934.25 26.24
2 4 0 920.85 24.79
-2 4 0 901.36 24
-2 4 0 936.98 19.67
-2 -4 -1 43.65 6.11
2 4 1 46.5 5.44
-2 4 -1 36.98 4.93
2 4 1 42.88 3.06
-2 -4 -2 220.03 13.87
2 4 2 215 11.15
-2 4 -2 194.33 10.74
2 4 2 236.95 7.77
2 -4 2 217.38 14.16
-2 -4 -3 289.48 16.61
-2 4 -3 264.87 15.47
2 4 3 280.31 12.74
-2 4 -3 298.94 13.42
2 4 3 281.48 9.18
2 -4 3 296.87 16.2
-2 -4 -4 57.3 7.94
2 -4 4 52.07 6.89
-2 4 -4 45.68 7.04
2 4 4 42.31 5.15
2 4 4 46.61 4.13
-2 4 -5 20.8 5.16
2 4 5 17.67 3.56
2 4 5 21.71 3.04
2 -4 5 19.74 4.37
-2 4 -6 33.8 7.21
2 4 6 29.79 4.8
2 4 6 34.84 4.41
2 -4 6 35.41 5.13
2 -4 7 5.38 1.98
-2 -4 -8 76.28 6.92
2 4 8 79.51 4.62
2 -4 8 88.08 4.73
-2 4 -8 83.39 6.51
-2 -4 -8 69.55 7.42
2 4 9 54.16 3.99
2 4 9 63.68 4.06
2 -4 9 73.18 4.38
2 -4 9 56.01 3.9
-2 -4 -9 64.96 6.66
-2 4 -9 58.39 5.54
-2 -4 -9 58.68 7.09
2 -4 10 78.39 4.44
-2 -4 -10 77.83 8.08
2 4 10 70.63 4.7
2 4 10 73.91 4.26
2 -4 10 66.93 4.14
-2 -4 -10 84.51 7.4
-2 4 -10 77.48 6.68
2 -4 11 31.85 2.72
-2 -4 -11 35.28 5.41
2 4 11 35.54 3.3
2 -4 11 31.6 2.83
-2 4 -11 39.39 4.58
-2 -4 -12 7.22 2.29
-2 4 -12 8.81 2.26
2 4 12 10.26 1.74
-2 4 -12 13.41 2.58
-2 -4 -13 4.69 1.74
2 4 13 3.42 0.94
-2 4 -13 3.98 1.41
-2 -5 13 0.52 0.67
-2 -5 12 10.69 1.33
-2 -5 12 10.73 1.88
-2 5 11 6.78 1.89
-2 -5 11 7.04 1.28
-2 -5 11 7.58 1.86
-2 -5 10 6.86 1.35
-2 5 10 8.36 1.78
-2 5 10 7.47 2.02
-2 -5 10 6.06 1.77
-2 5 9 4.33 1.52
-2 -5 9 2.8 0.95
-2 -5 9 3.81 1.06
-2 5 9 3.53 1.83
-2 -5 9 4.06 1.66
-2 -5 8 35.13 3.05
-2 -5 8 33.2 2.82
-2 5 8 32.92 4.23
-2 5 8 32.89 3.5
-2 -5 8 32.01 3.67
-2 -5 7 66.7 3.9
-2 5 7 61.26 4.66
-2 -5 7 66.6 3.84
-2 5 7 54.25 5.06
-2 -5 7 61.83 4.9
-2 -5 6 46.28 5.58
-2 5 6 33.63 5.12
-2 5 6 49.62 8.15
2 -5 -6 39.49 5.16
-2 5 6 41.69 6.27
-2 -5 6 39.84 5.23
-2 -5 5 0.47 1.16
-2 -5 5 1.46 1.3
-2 5 5 2.39 1.61
-2 5 5 1.65 2.99
2 -5 -5 2.59 2.59
2 -5 -5 1.76 1.47
-2 5 5 0.71 1.2
-2 -5 4 5.54 2.18
-2 5 4 5.63 2.06
2 -5 -4 4.25 1.99
-2 5 4 6.17 2.83
2 -5 -4 8.3 3.05
-2 5 4 6.12 2.5
-2 -5 3 29.51 4.62
-2 5 3 27.8 4.06
-2 5 3 32.56 5.84
2 -5 -3 31.79 5.53
2 5 -3 27 5.17
2 -5 -3 27.57 4.67
-2 5 3 27.62 4.77
-2 5 2 735.99 19.02
-2 -5 2 769.98 24.02
2 -5 -2 721.08 25.94
-2 5 2 797.69 26.95
2 5 -2 717.66 25.74
2 -5 -2 774.47 25.04
-2 5 2 778.61 24.23
-2 5 1 1552.49 26.75
-2 -5 1 1609.12 36
2 -5 -1 1528.92 38.04
-2 5 1 1680.37 36.85
2 5 -1 1571.27 37.25
-2 5 1 1582.27 34.23
-2 -5 0 796.64 26.64
2 -5 0 797.91 27.75
2 5 0 788.41 25.3
-2 5 0 752.09 22.8
-2 -5 -1 250.79 15.3
2 5 1 255.65 14.05
-2 5 -1 238.42 12.48
-2 -5 -2 35.56 6.32
2 5 2 35.2 5.19
-2 5 -2 31.49 4.52
2 5 2 29.44 3.01
2 -5 2 31.77 6.09
-2 -5 -3 56.55 8.33
2 5 3 54.79 6.34
2 5 3 52.75 4.37
2 -5 3 52.18 7.58
-2 -5 -4 17.61 5.06
-2 5 -4 16.45 4.29
2 5 4 12.02 3.13
2 5 4 16.29 2.69
2 -5 4 17.34 4.62
-2 -5 -5 35.72 7.9
-2 5 -5 23.07 5.79
2 5 5 26.13 4.53
2 5 5 28.96 3.99
2 -5 5 31.66 5.61
-2 5 -6 72.69 10.98
2 5 6 72.52 7.75
2 5 6 72.18 6.72
2 -5 6 80.85 7.85
-2 -5 -7 28.5 4.64
2 5 7 34.27 2.89
2 -5 7 31.91 2.97
-2 5 -7 31.42 3.86
-2 -5 -7 29.85 4.21
-2 -5 -8 104.47 8.98
-2 5 -8 109.62 7.25
2 5 8 108.39 5.46
2 -5 8 124.68 5.76
-2 -5 -8 118.95 8.58
2 5 9 278.34 8.49
2 5 9 253.25 8.68
2 -5 9 292.98 8.69
-2 5 -9 269.42 11.48
-2 -5 -9 272.51 14.83
-2 -5 -9 284.23 13.26
2 5 10 7.12 1.71
2 -5 10 6.48 1.43
-2 -5 -10 7.69 2.9
2 5 10 7.2 1.44
-2 5 -10 12.44 2.85
2 5 11 22.64 2.63
2 5 11 23.44 2.34
2 -5 11 23.94 2.44
-2 -5 -11 22.69 4.35
-2 5 -11 26.03 3.63
-2 5 -12 0.28 0.95
-2 -5 -12 0.85 1.38
2 5 12 0.18 0.8
-2 5 -12 1.68 1.39
2 5 13 9.2 1.37
-2 -5 -13 7.97 2.01
-2 5 -13 11.08 1.92
-2 -6 13 6.31 1.19
-2 -6 12 15.97 1.47
-2 -6 12 18.26 2.29
-2 -6 11 14.56 1.68
-2 6 11 17.66 2.15
-2 -6 11 16.27 2.44
-2 6 10 12.82 2.15
-2 -6 10 13.39 1.79
-2 6 10 14.03 2.58
-2 -6 10 15.69 2.57
-2 -6 9 18.05 2.05
-2 -6 9 19.85 2.2
-2 6 9 20.57 3.22
-2 6 9 20.23 2.76
-2 -6 9 17.4 2.84
-2 6 8 36.37 3.69
-2 -6 8 38.52 3.11
-2 -6 8 37.05 2.98
-2 6 8 34.61 4.25
-2 -6 8 31.97 3.66
-2 -6 7 83.06 4.38
-2 6 7 77.97 5.37
-2 -6 7 84.18 4.48
-2 6 7 71.23 5.96
-2 -6 7 76.6 5.34
-2 -6 6 201.68 12.19
-2 6 6 190.18 16.24
-2 -6 6 218.61 6.84
-2 -6 6 224.6 6.95
-2 6 6 205.58 9.84
-2 6 6 193.85 8.27
-2 -6 5 37.71 5.4
-2 6 5 35.09 5.01
-2 6 5 33.29 5.69
-2 6 5 42.91 7.4
2 -6 -5 32.68 6.47
2 -6 -5 41.5 5.64
-2 -6 4 0.5 1.24
-2 6 4 0.34 1.26
-2 6 4 -0.4 2.68
2 -6 -4 0.12 1.39
2 -6 -4 1.77 2.08
-2 6 4 1.87 1.6
-2 -6 3 37.17 5.68
-2 6 3 32.16 4.37
2 6 -3 32.96 6.28
2 -6 -3 37.88 5.57
-2 6 3 36.64 5.84
2 -6 -3 28.65 5.57
-2 -6 2 832.55 27
-2 6 2 759.44 19.68
2 -6 -2 729.05 27.92
2 6 -2 749.28 28.28
2 -6 -2 823.8 25.89
-2 6 2 800.25 25.58
-2 6 1 1229.66 24.1
-2 -6 1 1203.07 33.8
2 -6 -1 1154.75 35.91
2 6 -1 1212.67 35.2
2 -6 -1 1221.03 32.73
-2 6 1 1231.87 31.23
-2 -6 0 218.59 15.16
2 -6 0 227.79 16.27
2 6 0 217.57 14.46
-2 6 0 218.77 12.97
-2 -6 -1 303.82 18.06
2 6 1 315.49 17.02
-2 6 -1 281.22 14.04
-2 -6 -2 80.17 9.9
2 6 2 84.51 8.69
2 -6 2 71.52 9.24
-2 -6 -3 52.26 8.34
2 6 3 46.79 6.33
2 6 3 41.01 4.3
2 -6 3 50.85 7.99
-2 -6 -4 8.46 4.84
-2 6 -4 9.07 4.08
2 6 4 9.49 3.11
2 6 4 9.91 2.4
2 -6 4 11.9 4.22
-2 -6 -5 84.99 12.26
-2 6 -5 70.35 10.54
2 6 5 72.75 7.9
2 6 5 66.21 6.35
2 -6 5 75.42 8.72
2 -6 6 116.74 9.76
-2 -6 -7 57.19 6.68
2 -6 7 67.47 4.43
-2 -6 -7 62.68 5.9
-2 6 -7 59.93 5.26
-2 6 -8 25.05 3.71
2 -6 8 36.8 3.36
-2 -6 -8 30.06 5.09
2 6 8 28.11 2.98
2 6 8 32.38 3.08
-2 -6 -8 25.73 4.05
-2 -6 -9 45.54 6.15
2 6 9 43.01 3.66
2 6 9 47.3 3.63
2 -6 9 55.81 3.92
-2 -6 -9 50.78 5.59
-2 6 -9 45.23 4.89
2 6 10 1.5 0.82
2 -6 10 1.71 0.97
-2 -6 -10 2.81 2.57
2 6 10 1.91 1.04
-2 6 -10 0.31 1.31
2 6 11 8.67 1.42
2 6 11 8.99 1.71
2 -6 11 10.7 1.61
-2 -6 -11 12.96 3.4
-2 6 -11 10.47 2.46
2 -6 12 5.29 1.05
-2 -6 -12 9.56 2.51
2 6 12 6.58 1.32
-2 6 -12 9.09 2.09
-2 -7 12 26.02 2.45
-2 -7 11 20.07 1.84
-2 7 11 23.92 2.43
-2 -7 11 21.3 2.62
-2 -7 10 7.09 1.31
-2 7 10 7.43 1.7
-2 -7 10 6.84 1.88
-2 -7 9 18.09 2.19
-2 -7 9 17.81 2.07
-2 7 9 19.75 2.75
-2 7 9 19.73 3.12
-2 -7 9 16.99 2.74
-2 -7 8 104.93 5.07
-2 -7 8 102.89 4.96
-2 7 8 88.78 6.66
-2 7 8 95.02 5.89
-2 -7 8 96.37 6.09
-2 -7 7 45.48 3.33
-2 -7 7 42.78 3.34
-2 7 7 41.87 4.72
-2 7 7 39.7 3.96
-2 -7 7 42.43 4.11
-2 -7 6 242.81 6.54
-2 -7 6 245.32 7.49
-2 -7 6 244.36 7.47
-2 7 6 229.49 10.63
-2 7 6 216.55 9.03
-2 -7 6 218.06 8.7
-2 -7 5 78.3 8.24
-2 7 5 66.26 7.02
2 7 -5 53.67 8.29
2 -7 -5 61.4 9.15
-2 -7 4 2.4 2.04
-2 7 4 1.62 1.08
2 7 -4 4.31 2.88
2 -7 -4 0.6 2.12
2 -7 -4 4.03 2.01
-2 7 4 4.12 2.41
-2 -7 3 7.88 2.93
-2 7 3 6.56 1.98
2 7 -3 6.05 3.32
2 -7 -3 7.58 2.62
2 -7 -3 6.47 3.53
-2 7 3 8.06 3.14
-2 -7 2 24.48 5.1
2 7 -2 20.3 5.12
2 -7 -2 22.55 4.4
-2 7 2 21.04 3.57
2 -7 -2 21.98 5.44
-2 7 2 22.62 4.79
-2 -7 1 289.69 17.76
2 -7 -1 270.06 18.63
2 7 -1 272.46 17.88
2 -7 -1 278.48 15.34
-2 7 1 274.85 15.66
-2 -7 0 152.42 13.5
2 -7 0 160.18 14.74
2 7 0 147.98 12.95
2 -7 0 145.89 11.54
-2 7 0 151.57 11.41
-2 -7 -1 43.64 7.43
2 7 1 42.63 6.92
-2 7 -1 46.73 6.18
2 -7 1 59.45 9.36
-2 -7 -2 35.98 7.21
2 7 2 32.37 5.98
2 -7 2 32.81 6.7
-2 -7 -3 24.91 6.44
2 7 3 22.69 4.75
2 -7 3 27.63 6.55
-2 -7 -4 162.45 16.42
2 7 4 165.31 12.57
2 -7 4 167.47 14.19
-2 -7 -5 80.13 12.13
2 -7 5 72.86 8.86
-2 -7 -6 127.84 9.22
2 -7 6 139.03 6.71
-2 -7 -6 115.41 7.55
-2 7 -6 131.61 7.1
-2 -7 -7 6.77 2.56
2 -7 7 7.54 1.89
-2 -7 -7 7.35 2.22
-2 7 -7 7.79 2.24
2 7 8 16.64 2.34
-2 -7 -8 8.77 2.9
-2 -7 -8 15.09 3.03
2 -7 8 18.93 2.53
-2 7 -8 14.9 2.86
2 7 9 23.27 2.71
2 7 9 26.14 2.71
-2 7 -9 25.4 3.8
2 -7 9 30.55 2.97
-2 -7 -9 24.26 4.7
2 7 10 11.29 1.91
-2 -7 -10 11.51 3.25
2 -7 10 13.47 1.89
-2 7 -10 11.39 2.42
2 7 10 10.24 1.64
2 7 11 6.25 1.45
2 7 11 7.72 1.35
-2 -7 -11 8.44 2.7
2 -7 11 5.65 1.19
-2 7 -11 12.7 2.47
2 7 12 3.6 0.84
-2 -7 -12 2.66 1.7
2 -7 12 -0.76 0.75
2 7 12 1.34 0.8
-2 7 -12 1.67 1.14
-2 -8 12 3.85 0.98
-2 -8 11 6.01 1.01
-2 8 11 7.36 1.38
-2 -8 11 7.38 1.65
-2 -8 10 9.89 1.44
-2 8 10 11.59 1.97
-2 -8 10 8.27 1.89
-2 -8 9 0.47 0.72
-2 -8 9 0.51 0.6
-2 8 9 -0.43 0.93
-2 -8 9 1.77 1.1
-2 -8 8 18.14 2.15
-2 -8 8 14.19 1.96
-2 8 8 16.74 2.66
-2 -8 8 17.08 2.64
-2 -8 7 19.87 2.32
-2 -8 7 18.3 2.23
-2 8 7 19.19 2.8
-2 -8 7 21.14 2.92
-2 -8 6 27.08 2.66
-2 -8 6 27.34 2.66
-2 8 6 24.35 3.19
-2 -8 6 22.12 2.89
-2 -8 5 180.86 5.73
-2 -8 5 179.2 6.54
-2 -8 5 175.8 6.49
-2 8 5 165.31 7.99
-2 8 4 39.73 5.47
-2 -8 4 47.69 3.44
-2 -8 4 47.74 3.34
2 -8 -4 36.27 7.15
-2 -8 3 21.36 4.81
-2 8 3 19.75 3.73
2 8 -3 15.83 4.81
2 -8 -3 24.72 4.62
2 -8 -3 20.22 5.5
-2 8 3 19.02 4.62
-2 -8 2 19.99 5.3
2 8 -2 15.7 4.86
2 -8 -2 20.08 4.09
2 -8 -2 18.46 5.32
-2 8 2 20.24 4.94
-2 -8 1 59.81 8.73
2 -8 -1 61.29 9.89
2 8 -1 49.74 8.2
2 -8 -1 62.64 7.25
-2 8 1 65.78 8.22
2 -8 0 42.71 8.39
-2 -8 0 47.03 8.23
2 8 0 46.47 7.66
2 -8 0 44.55 6.3
-2 8 0 39.44 6.29
2 -8 1 18.39 6.41
-2 -8 -1 18 5.57
2 8 1 16.57 4.55
2 -8 1 18.45 4.03
-2 -8 -2 73.23 10.93
2 8 2 70.07 9
2 -8 2 72.17 10.04
-2 -8 -3 76.06 11.47
2 8 3 76.61 9.28
2 -8 3 82.95 10.87
2 -8 4 83.23 6.3
2 -8 4 76.5 10.1
-2 -8 -5 248.07 12.55
2 -8 5 289.78 10.42
-2 -8 -5 259.35 10.84
-2 8 -5 268.15 9.45
-2 8 -5 282.05 8.8
2 -8 6 23.06 3.12
-2 -8 -6 18.46 3.96
-2 8 -6 15.41 2.72
-2 -8 -6 16.67 3
2 8 7 39.56 3.36
2 -8 7 40.4 3.65
-2 -8 -7 33.86 4.12
-2 8 -7 39.14 4.16
-2 -8 -7 34.64 5.22
-2 -8 -8 48.03 6.21
-2 8 -8 56.78 5.07
2 8 8 57.14 3.98
2 -8 8 64.96 4.35
2 8 9 40.98 3.35
2 -8 9 54.14 3.82
-2 8 -9 44.09 4.52
-2 -8 -9 43.02 5.79
2 8 10 2.95 0.96
-2 -8 -10 3.42 2.24
2 -8 10 3.45 1.08
-2 8 -10 3.11 1.64
2 8 11 12.52 1.62
-2 -8 -11 15.13 3.16
2 -8 11 10.09 1.44
2 8 11 8.58 1.45
-2 8 -11 10.07 2.17
-2 -8 -12 1.64 1.33
-2 8 -12 1.73 0.98
-2 9 11 2.44 0.88
-2 -9 11 3.17 0.65
-2 -9 11 3.52 1.09
-2 -9 10 4.54 0.99
-2 9 10 4.62 1.29
-2 -9 10 3.52 1.33
-2 -9 9 8 1.38
-2 -9 9 6.24 1.2
-2 9 9 8.42 1.77
-2 -9 9 5.55 1.64
-2 -9 8 18.04 2.13
-2 -9 8 16.95 2.06
-2 9 8 14.99 2.47
-2 -9 8 14.26 2.4
-2 -9 7 10.33 1.67
-2 -9 7 12.11 1.8
-2 9 7 9.94 2.24
-2 -9 7 9.41 2.03
-2 -9 6 1.65 0.91
-2 -9 6 1.69 0.93
-2 9 6 1.08 1.19
-2 -9 5 202.9 6.05
-2 -9 5 194.73 7.3
-2 -9 5 198.99 6.88
-2 9 5 187.84 8.75
-2 -9 4 7.33 1.55
-2 -9 4 6 1.5
-2 -9 4 5.13 1.42
-2 9 4 6.04 1.8
-2 -9 3 73.14 3.64
-2 -9 3 79.67 4.32
-2 9 3 81.61 5.74
-2 9 2 115.4 11.33
-2 -9 1 48.27 8.09
2 9 -1 38.88 7.7
2 -9 -1 49.04 6.27
-2 9 1 48.92 7.44
2 -9 -1 41.8 8.44
-2 -9 0 4.57 3.24
2 9 0 0.9 2.04
2 -9 0 3.44 2.29
2 -9 1 17.2 6.36
2 9 1 17.22 4.94
-2 9 -2 41.35 3.35
2 -9 2 34.34 4.82
-2 9 -3 45.67 3.53
-2 -9 -3 34.49 4.65
2 -9 3 42.55 5.03
-2 -9 -4 74.41 6.85
2 -9 4 74.17 6.06
-2 9 -4 83.18 4.91
-2 -9 -5 16.33 3.7
2 -9 5 20.99 3.39
-2 9 -5 16.92 2.66
-2 9 -5 18.24 2.42
2 9 6 48.23 3.68
-2 -9 -6 43.93 5.71
2 -9 6 44.24 3.99
-2 9 -6 40.44 4.01
2 9 7 79.44 4.71
-2 -9 -7 79.13 7.71
2 -9 7 84.93 5.08
-2 9 -7 81.1 5.83
2 9 8 19.55 2.37
-2 -9 -8 14.6 3.83
-2 9 -8 21.88 3.18
-2 -9 -9 6.9 2.81
2 -9 9 9.35 1.82
2 9 9 5.58 1.28
-2 9 -9 6.96 1.92
2 9 10 12.26 1.66
2 -9 10 13.73 1.79
-2 -9 -10 13.89 3.33
-2 9 -10 10.73 2.16
2 9 11 1.74 0.68
-2 -9 -11 1.05 1.32
2 -9 11 1.49 0.66
-2 9 -11 2.48 1.3
-2 10 11 7.06 1.1
-2 -10 10 1.49 0.66
-2 10 10 2.58 0.97
-2 -10 10 1.38 0.79
-2 -10 9 0.01 0.55
-2 -10 9 0.49 0.59
-2 10 9 0.58 1.08
-2 -10 9 0.35 0.74
-2 -10 8 2.42 1
-2 -10 8 1.32 0.76
-2 10 8 1.53 0.97
-2 -10 8 2.08 1.04
-2 -10 7 26.95 2.54
-2 -10 7 27.54 2.58
-2 10 7 24.28 3.11
-2 -10 6 5.99 1.46
-2 -10 6 6.28 1.44
-2 10 6 5.74 1.76
-2 -10 5 0.77 1.06
-2 -10 5 -0.43 0.85
-2 10 5 0.15 1.07
-2 -10 4 4.97 1.38
-2 -10 4 4.13 1.17
-2 10 4 5.62 1.91
-2 10 3 113.84 4.84
-2 -10 3 104.92 4.3
-2 -10 3 110.74 5.28
-2 10 3 117.36 6.85
-2 10 2 88.2 4.44
-2 -10 2 94.04 4.03
-2 -10 2 89.41 4.7
-2 10 1 25.27 2.45
-2 -10 1 26.79 2.21
-2 -10 1 27.66 2.65
-2 -10 1 31.69 4.44
-2 10 0 -0.3 0.87
-2 -10 0 1.25 1.01
-2 -10 0 0.76 0.99
-2 -10 0 0.41 1.92
-2 10 -1 29.83 2.83
-2 -10 -1 28.14 4.05
2 -10 1 19.24 3.87
-2 10 -2 5.42 1.48
-2 -10 -2 5.31 2.14
2 -10 2 5.93 2.83
-2 -10 -3 147.64 9.36
2 10 3 185.89 6.55
2 -10 3 138.72 8.68
-2 10 -3 168.1 6.89
-2 10 -4 8.88 1.87
2 10 4 12.87 1.95
-2 -10 -4 9.11 2.73
2 -10 4 11.59 2.82
-2 -10 -5 83.74 7.56
2 10 5 97.16 5.08
2 -10 5 88.88 5.92
-2 10 -5 84.92 5.45
-2 10 -5 93.46 5.18
2 10 6 24.83 2.68
-2 -10 -6 20.41 4.14
2 -10 6 23.28 2.99
-2 10 -6 21.61 3
2 10 7 39.57 3.35
-2 -10 -7 35.88 5.29
2 -10 7 46.96 3.76
-2 10 -7 43.77 4.23
2 10 8 19.44 2.3
-2 -10 -8 18.29 3.74
2 -10 8 25.98 2.71
-2 10 -8 18.53 2.81
-2 -10 -9 2.83 1.8
2 -10 9 6.45 1.37
2 10 9 1.96 0.82
-2 10 -9 5.09 1.61
2 10 10 10.26 1.52
-2 -10 -10 11.87 2.75
2 -10 10 8.9 1.32
-2 10 -10 11.47 2.15
2 10 11 12.58 1.35
-2 10 -11 13.87 1.96
2 -10 11 10.49 1.19
-2 -10 -11 12.38 2.26
-2 -11 10 4.58 0.76
-2 11 10 6.69 1.18
-2 11 9 4.65 1.24
-2 -11 9 5.02 0.98
-2 -11 9 4.25 0.92
-2 -11 8 4.76 1.07
-2 -11 8 4.57 1.05
-2 11 8 3.57 1.32
-2 -11 7 10.51 1.62
-2 -11 7 11.18 1.65
-2 11 7 9.33 1.94
-2 -11 6 21.03 2.33
-2 -11 6 20.06 2.3
-2 11 6 18.48 2.8
-2 -11 5 1.91 1.12
-2 -11 5 1.08 0.71
-2 11 5 1.86 1.21
-2 -11 4 56.14 3.87
-2 -11 4 53.49 3.73
-2 11 4 58.35 4.83
-2 11 3 98.32 4.58
-2 -11 3 86.38 4.85
-2 -11 3 88.52 4.78
-2 11 3 97.95 6.19
-2 11 2 6.62 1.35
-2 -11 2 6.27 1.34
-2 -11 2 5.68 1.44
-2 11 1 25.19 2.54
-2 -11 1 29.05 2.39
-2 -11 1 27.56 2.7
-2 11 0 41.29 3.34
-2 -11 0 36.79 2.67
2 -11 0 32.5 4.77
-2 -11 0 38.34 3.1
-2 -11 0 43.27 5.26
-2 11 -1 9.16 1.75
-2 -11 -1 8.33 2.43
2 -11 1 5.67 2.82
-2 11 -2 21.46 2.63
-2 -11 -2 20.64 3.77
2 -11 2 22.61 3.99
-2 -11 -3 15.39 3.49
2 -11 3 17.12 3.3
-2 11 -3 15.95 2.24
2 11 4 28.42 2.72
-2 -11 -4 24.69 4.24
2 -11 4 24.89 3.64
-2 11 -4 24.96 2.84
-2 11 -5 9.01 1.79
2 11 5 10.8 1.73
-2 -11 -5 7.68 2.47
2 -11 5 10.34 2.25
2 11 6 0.94 0.82
-2 -11 -6 1.82 1.83
2 -11 6 0.25 1.11
-2 11 -6 0.33 0.84
2 11 7 3.6 1.14
-2 -11 -7 6.68 2.35
2 -11 7 5.02 1.38
-2 11 -7 4.99 1.57
2 11 8 12.6 1.75
-2 -11 -8 16.3 3.36
2 -11 8 17.13 2.07
-2 11 -8 14.28 2.35
2 11 9 28.9 2.45
-2 -11 -9 30.23 4.09
2 -11 9 31.6 2.39
-2 11 -9 32.33 3.26
2 11 10 15.99 1.6
-2 -11 -10 19.13 3.01
2 -11 10 14 1.43
-2 11 -10 17.61 2.25
-2 -12 9 0.89 0.53
-2 -12 9 0.07 0.43
-2 12 9 0.24 0.64
-2 -12 8 5.34 0.98
-2 -12 8 5.31 1.04
-2 12 8 4.05 1.23
-2 -12 7 3.35 0.95
-2 12 7 3.49 1.33
-2 -12 7 4.33 0.99
-2 -12 6 7.64 1.4
-2 -12 6 9.24 1.55
-2 12 6 7.5 1.77
-2 -12 5 9.53 1.6
-2 -12 5 5.32 1.18
-2 12 5 6.38 1.71
-2 -12 4 13.57 2.06
-2 -12 4 9.78 1.64
-2 12 4 12.22 2.26
-2 12 3 22.29 2.27
-2 -12 3 16.35 2.27
-2 -12 3 20.99 2.27
-2 12 2 21.49 2.3
-2 -12 2 22.53 2.4
-2 12 1 10.4 1.85
-2 -12 1 10.63 1.77
2 -12 -1 7.44 2.29
-2 12 0 33.68 3.06
-2 -12 0 33.11 2.86
2 -12 0 27.06 4.22
-2 12 -1 7.73 1.61
-2 -12 -1 7.69 2.37
2 -12 1 6.44 2.52
-2 12 -2 13.28 2.11
-2 -12 -2 14.75 3.44
2 -12 2 12.69 2.98
-2 12 -3 6.55 1.62
-2 -12 -3 5.16 2.29
2 -12 3 4.51 2.02
-2 -12 -4 36.6 4.94
2 -12 4 39.49 3.97
-2 12 -4 37.96 3.3
-2 12 -5 8.75 1.87
-2 -12 -5 9.75 2.91
2 -12 5 8.41 1.89
2 12 5 8.53 1.48
2 12 6 3.89 1.02
-2 -12 -6 2.79 1.93
2 -12 6 3.97 1.3
-2 12 -6 2.58 1.14
2 12 7 4.53 1.12
-2 -12 -7 3.66 1.95
2 -12 7 6 1.4
-2 12 -7 6.79 1.6
2 12 8 6.46 1.28
-2 -12 -8 3.32 1.62
2 -12 8 7.29 1.32
-2 12 -8 4.88 1.4
2 12 9 15.86 1.65
-2 -12 -9 17.93 2.84
2 -12 9 15.71 1.52
-2 12 -9 18.66 2.18
-2 -13 8 2.04 0.64
-2 -13 8 1.57 0.62
-2 13 8 0.69 0.72
-2 -13 7 6.67 1.14
-2 -13 7 6.27 1.09
-2 13 7 3.44 1.05
-2 -13 6 3.49 0.97
-2 -13 6 4.26 1.04
-2 13 6 3.49 1.12
-2 -13 5 1.81 0.89
-2 -13 5 2.18 0.95
-2 13 5 1.41 1.02
-2 -13 4 11.42 1.71
-2 -13 4 8.77 1.47
-2 13 3 3.65 1.06
-2 -13 3 3.96 1.21
-2 -13 3 2.37 0.87
-2 13 2 4.8 1.19
-2 -13 2 2.96 1.04
2 -13 -2 1.7 1.79
-2 13 1 5.23 1.26
-2 -13 1 4.23 1.13
2 -13 -1 5.73 2.15
-2 13 0 5.16 1.32
-2 -13 0 4.65 1.12
-2 13 -1 1.49 1.06
-2 -13 -1 1.81 1.53
2 -13 1 2.1 1.82
-2 13 -2 3.25 1.16
2 -13 2 4.44 1.65
-2 -13 -2 2.46 2.01
2 -13 2 2.93 1.9
-2 13 -3 1.71 0.97
-2 -13 -3 3.83 2.04
2 -13 3 4.63 1.83
-2 13 -4 13.13 1.94
-2 -13 -4 13.87 3.08
2 -13 4 14.55 2.3
-2 13 -5 7.67 1.56
2 13 5 5.89 1.22
-2 -13 -5 8.79 2.51
2 -13 5 7.95 1.62
2 13 6 2.67 0.9
-2 -13 -6 2.03 1.62
2 -13 6 1.07 0.85
2 13 7 1.62 0.71
-2 -13 -7 2.18 1.48
2 -13 7 2.95 0.99
-2 13 -7 0.67 0.8
2 13 8 0.21 0.5
-2 -13 -8 1.73 1.25
2 -13 8 1.17 0.69
-2 13 -8 2.28 0.89
-2 -14 7 5.93 0.88
-2 -14 7 5.32 0.87
-2 14 7 3.84 0.89
2 -14 -7 4.33 1.82
-2 -14 6 3.07 0.79
-2 -14 6 2.44 0.72
-2 14 6 1.95 0.83
-2 -14 5 6.11 1.13
-2 -14 5 6.15 1.08
2 -14 -5 4.41 1.83
-2 -14 4 3.96 1
-2 -14 4 3.9 0.97
2 -14 -4 2.98 1.77
-2 14 3 2.08 0.85
-2 -14 3 1.3 0.81
-2 -14 3 1.46 0.79
2 -14 -3 3 1.77
2 14 -2 12.91 1.47
-2 -14 2 11.42 1.73
-2 -14 2 9.2 1.41
2 -14 -2 6.58 2.07
-2 14 2 11.1 1.61
-2 14 1 3.53 1.03
-2 -14 1 2.21 0.82
2 -14 -1 3.13 1.81
-2 14 0 7.73 1.46
-2 -14 0 7.98 1.3
2 -14 0 6.95 1.97
-2 14 -1 0.46 0.65
2 -14 1 3.08 1.31
2 -14 1 1.96 1.57
2 -14 2 17.65 2.22
-2 -14 -2 24.01 3.61
2 -14 2 23.51 2.87
-2 14 -2 21.07 2.3
-2 -14 -3 23.51 3.6
2 -14 3 21.47 2.5
-2 14 -3 19.69 2.21
-2 14 -4 3.01 1.06
-2 -14 -4 6.04 2.04
2 -14 4 4.04 1.24
-2 14 -5 0.12 0.6
-2 -14 -5 1.24 1.43
2 -14 5 -0.6 0.82
-2 -14 -6 -0.02 1.14
2 -14 6 0.77 0.73
-2 -14 -7 12.81 2.28
2 -14 7 12.37 1.27
-2 -15 6 9.33 0.97
-2 -15 6 7.56 0.89
-2 -15 5 1.14 0.58
-2 -15 5 2.03 0.64
2 -15 -5 1.46 1.17
-2 -15 4 7.92 1.13
-2 -15 4 7.26 1.07
2 -15 -4 7.75 1.79
-2 -15 3 7.86 1.19
-2 -15 3 8.9 1.26
2 -15 -3 6.94 1.84
-2 15 3 7.56 1.07
-2 -15 2 9.64 1.39
-2 -15 2 9.64 1.32
2 -15 -2 9.26 1.94
-2 15 2 10.83 1.38
2 15 -1 12.61 1.32
-2 -15 1 12.3 1.63
-2 -15 1 11.38 1.36
2 -15 -1 12.25 1.99
2 -15 -1 13.58 2.13
-2 15 1 11.94 1.53
-2 15 0 3.44 0.95
-2 -15 0 3.74 1.03
-2 -15 0 2.39 0.71
2 -15 0 3.87 1.29
2 -15 0 3.1 1.31
-2 15 -1 2.94 0.98
2 -15 1 3.29 1.09
2 -15 1 3.22 1.45
-2 15 -2 2.23 0.92
2 -15 2 1.28 0.79
2 -15 2 2.35 1.18
-2 15 -3 3.01 0.95
2 -15 3 2.59 0.98
-2 15 -4 0.58 0.62
2 -15 4 0.21 0.62
2 15 5 3.81 0.65
2 -15 5 3.95 0.88
-2 -16 3 4.22 0.75
-2 -16 3 3.45 0.7
2 -16 -3 3.83 1.04
-2 16 2 0.36 0.41
-2 -16 2 1.4 0.61
-2 -16 2 0.58 0.46
2 -16 -2 1.67 0.89
2 -16 -2 0.43 0.89
-2 16 1 0.6 0.46
2 16 -1 0.91 0.47
2 -16 -1 1.4 0.82
-2 -16 1 1.93 0.71
-2 -16 1 1.36 0.58
2 -16 -1 3.01 1.11
-2 16 0 2.41 0.72
2 16 0 3.43 0.66
2 -16 0 2.27 0.8
-2 -16 0 3.06 0.77
2 -16 0 3.28 1.04
-2 16 -1 2.13 0.75
2 16 1 1.94 0.57
-2 -16 -1 3.15 0.84
2 -16 1 2.3 0.71
2 -16 1 2.95 0.91
-2 16 -2 1.21 0.64
2 16 2 0.62 0.38
-2 -16 -2 1.2 0.62
2 -16 2 1.21 0.69
2 16 3 8.08 0.9
2 -16 3 10.2 1.08
-2 16 -3 7.98 1.1
-3 0 12 12.32 1.74
-3 0 11 1.9 1.12
-3 0 10 5.14 1.64
-3 0 9 7.93 1.47
-3 0 9 7.97 2.06
-3 0 8 9.81 1.68
-3 0 8 11.42 2.48
-3 0 7 3.63 1.08
-3 0 7 4.56 1.96
-3 0 6 36.5 2.87
-3 0 6 40.44 4.39
-3 0 4 34.49 7.57
-3 0 4 33.56 5.83
-3 0 4 31.87 6.26
-3 0 3 1.67 2.35
-3 0 3 3.32 3.26
-3 0 3 2.19 1.88
-3 0 2 21.99 5.03
-3 0 2 26.27 5.34
-3 0 1 507.03 15.76
-3 0 1 463.1 20.17
-3 0 1 484.65 21.05
-3 0 0 3.98 2.68
3 0 0 1.77 1.53
3 0 1 4.27 2.02
3 0 2 197.91 11.25
3 0 3 25.33 4.09
3 0 4 8.34 2.57
-3 0 -6 18.08 3.4
-3 0 -7 1.37 1.84
3 0 8 13.3 2.26
-3 0 -8 6.36 2.43
3 0 9 93.93 5
-3 0 -9 81.07 7.03
-3 0 -10 6.31 2.16
3 0 10 4.55 1.18
-3 0 -11 3.66 1.57
3 0 11 3.18 0.88
3 0 12 8.77 1.31
-3 0 -12 6.67 1.7
-3 1 12 0.94 0.83
-3 -1 12 2.33 1.03
-3 1 11 5.67 1.52
-3 -1 11 4.91 1.46
-3 -1 10 2.17 0.86
-3 1 10 4.17 1.65
-3 -1 10 1.43 1.14
-3 -1 9 3.48 1.05
-3 1 9 6.81 1.98
-3 -1 9 6.36 2.01
-3 1 8 5.06 1.26
-3 -1 8 6.42 1.36
-3 1 8 6.65 1.91
-3 -1 8 7.15 1.9
-3 1 7 1.31 0.84
-3 -1 7 1.07 0.78
-3 1 7 3.2 1.7
-3 -1 7 0.58 1.22
-3 1 6 8.27 2.16
-3 1 6 4.75 1.17
-3 -1 6 5.72 1.27
-3 1 6 7.2 2.2
-3 -1 6 6.32 1.86
-3 1 5 22.03 4.93
-3 -1 4 1.88 1.8
-3 1 4 3.82 2.78
-3 -1 4 2.14 2.49
-3 1 4 1.12 2.55
-3 -1 4 4.32 2.4
-3 1 4 3.58 2.45
-3 1 3 41.98 8.18
3 -1 -3 53.22 8.85
-3 -1 3 40.44 6.33
-3 1 3 39.49 6.52
-3 -1 3 44.52 7.11
-3 1 3 40.49 6.35
-3 -1 2 245.93 11.9
-3 -1 2 240.55 14.55
-3 1 2 243.16 14.82
-3 -1 2 249.28 16.13
-3 1 2 238.81 14.84
-3 -1 1 72.21 6.33
-3 1 1 70.02 8
-3 -1 1 70.89 9.15
-3 1 1 68.56 8.11
3 -1 -1 67.8 6.87
-3 -1 0 26.12 3.77
-3 1 0 21.17 4.34
-3 1 0 22.1 4.97
3 -1 0 23.31 4.41
3 1 1 146.58 8.62
3 -1 1 142.84 10.35
3 1 2 3.92 2.06
3 -1 2 2.99 2.21
3 1 3 89.61 6.81
3 -1 3 93.01 8.38
3 1 4 50.97 5.26
3 -1 4 52.08 6.29
-3 -1 -6 0.43 1.54
-3 1 -6 2.34 1.67
-3 -1 -7 46.4 5.65
-3 1 -7 50 5.62
3 1 8 37.69 3.33
-3 -1 -8 26.64 4.3
-3 1 -8 26.41 4.23
-3 -1 -9 28 4.44
3 1 9 31.53 2.98
3 -1 9 34.34 3.14
-3 1 -9 23.95 4
-3 -1 -10 11.49 2.94
-3 1 -10 10.4 2.73
3 1 10 12.46 1.79
3 -1 10 9.87 1.61
3 1 11 14.95 1.84
-3 -1 -11 17.71 3
-3 1 -11 14.98 2.76
3 -1 11 11.81 1.6
3 1 12 1.26 0.73
-3 -1 -12 0.58 1.02
3 -1 12 0.82 0.67
-3 1 -12 0.48 0.95
-3 2 12 6.96 1.32
-3 -2 12 6.65 1.42
-3 2 11 0.49 0.97
-3 -2 11 1.92 1.19
-3 -2 10 6.19 1.33
-3 2 10 5.57 1.57
-3 -2 10 6.36 1.69
-3 -2 9 5.93 1.28
-3 2 9 8.23 2.26
-3 -2 9 8.49 2.04
-3 -2 8 12 1.78
-3 2 8 17.66 3.04
-3 -2 8 13.08 2.47
-3 2 7 44.2 3.29
-3 -2 7 51.88 3.44
-3 2 7 60.15 4.64
-3 2 7 54.98 5.06
-3 -2 7 59.74 5.16
-3 -2 6 12.54 1.76
-3 2 6 8.32 1.54
-3 2 6 12.24 2.36
-3 -2 6 10.14 2.12
-3 2 5 12.98 2.9
-3 -2 5 9.8 2.28
-3 -2 4 40.47 8.26
-3 2 4 40.89 8.14
3 -2 -4 45.44 7.36
-3 2 4 38.76 6.56
-3 -2 4 43.62 7.81
-3 2 4 41.74 6.69
-3 -2 3 46.82 5.67
-3 2 3 44.88 8.27
3 -2 -3 62.59 9.59
-3 2 3 38.6 6.36
-3 -2 3 57.09 8.4
-3 2 3 47.36 6.85
-3 -2 2 5.26 2.1
-3 -2 2 8.96 3.81
-3 2 2 7.34 3.13
-3 2 2 6.81 3
3 -2 -2 3.52 2.14
-3 -2 1 143.95 9.63
-3 2 1 125.94 10.85
3 -2 -1 110.6 9.37
-3 2 1 135.64 10.73
-3 -2 0 39.14 4.96
-3 2 0 36.32 6.06
3 -2 0 30.34 5.37
-3 -2 -1 3.93 1.89
-3 2 -1 3.75 2.61
3 -2 1 6.86 3.01
3 2 2 166.52 8.27
3 -2 2 162.09 12.01
3 2 3 55.21 4.99
3 -2 3 50.55 6.91
3 2 4 14.6 2.86
3 -2 4 9.16 3.29
-3 2 -5 11.88 2.07
-3 -2 -5 8.26 2.25
-3 -2 -6 44.67 5.3
-3 2 -6 52.31 5.26
-3 -2 -7 38.32 5.07
-3 2 -7 41.81 4.98
3 2 8 41.42 3.41
-3 -2 -8 38.2 5.05
-3 2 -8 33.37 4.7
3 2 9 71.9 4.35
3 -2 9 80.92 4.66
-3 -2 -9 70.87 6.84
-3 2 -9 71.38 6.41
3 -2 10 12.06 1.83
-3 -2 -10 12.67 3.02
-3 2 -10 11.81 2.69
3 2 10 8.48 1.42
-3 -2 -11 1.39 1.44
-3 2 -11 -0.89 1.42
3 2 11 2.24 0.98
3 -2 11 -1.91 1.11
3 2 12 12.05 1.52
3 -2 12 10.91 1.4
-3 -2 -12 9.76 1.77
-3 2 -12 9.2 1.84
-3 -3 12 16.71 1.97
-3 -3 11 21.93 1.97
-3 3 11 29.36 2.72
-3 -3 11 30.53 3.01
-3 -3 10 11.92 1.68
-3 -3 10 15.72 2.46
-3 3 10 15.65 2.36
-3 -3 9 4.82 1.18
-3 3 9 2.79 1.26
-3 -3 9 2.89 1.36
-3 -3 8 20.25 2.27
-3 3 8 23.79 2.97
-3 -3 8 19.71 3.01
-3 3 8 22.22 3.16
-3 -3 7 93.79 4.77
-3 3 7 101.92 6.03
-3 -3 7 91.43 6.39
-3 3 7 101.24 6.68
-3 -3 6 20.68 2.24
-3 3 6 17.78 2.81
-3 3 6 20.18 3.26
-3 -3 6 14.04 2.71
-3 -3 5 19.9 2.14
-3 -3 5 19.9 2.21
-3 3 5 13.76 2.49
-3 3 5 16.42 2.8
-3 -3 5 16.14 2.71
-3 -3 4 8.69 2.76
-3 -3 4 13.08 5.02
-3 3 4 6.63 3.05
-3 3 4 5.94 3.35
3 -3 -4 16.15 4.5
-3 3 4 9.65 3.73
-3 -3 3 4.78 2.04
-3 3 3 5.89 2.96
3 -3 -3 6.94 4.18
-3 3 3 3.3 2.89
-3 3 3 8.36 3.36
-3 -3 2 0.74 1.83
-3 3 2 -1.37 1.76
-3 3 2 2.98 2.29
3 -3 -2 0.71 1.78
-3 -3 1 60.37 6.64
-3 3 1 58.14 7.7
3 -3 -1 50.44 6.77
-3 3 1 60.19 7.16
-3 -3 0 25.07 4.25
-3 3 0 21.01 4.81
3 -3 0 19.45 4.65
-3 -3 -1 19.42 3.81
-3 3 -1 17.71 4.51
3 -3 1 15.98 4.65
3 -3 2 51.24 7.52
3 -3 3 32.92 6.03
3 3 4 111.85 7.21
3 -3 4 120.32 10.83
-3 -3 -5 26.17 3.94
-3 3 -5 24.21 3.31
-3 3 -5 26.51 3.04
-3 -3 -6 53.28 5.89
-3 3 -6 52.58 5.16
-3 3 -6 62.77 4.66
3 3 7 37.47 3.18
-3 -3 -7 29.37 4.64
-3 3 -7 25.75 3.85
-3 -3 -8 12.01 3.22
-3 3 -8 9.54 2.76
3 3 8 12.25 1.93
-3 -3 -9 3.6 1.99
-3 3 -9 1.96 1.62
3 3 9 3.11 1.13
-3 -3 -10 1.27 1.47
-3 3 -10 -1.15 1.31
3 3 10 -1.8 1.2
3 -3 10 0.26 0.77
-3 -3 -11 1.92 1.33
3 3 11 1.03 0.83
-3 3 -11 2.62 1.43
3 -3 11 -1.07 0.9
3 -3 12 9.91 1.23
3 3 12 8.44 1.22
-3 -3 -12 8.33 1.67
-3 3 -12 10.7 1.95
-3 -4 12 1.76 0.88
-3 -4 11 17.86 1.76
-3 -4 11 20.73 2.44
-3 -4 10 2.15 0.86
-3 4 10 3.41 1.41
-3 -4 10 3.38 1.32
-3 -4 9 21.6 2.29
-3 4 9 25.32 2.81
-3 4 9 26.25 3.15
-3 -4 9 20.54 2.86
-3 -4 8 86.87 4.49
-3 4 8 87.77 5.45
-3 4 8 91.51 6.06
-3 -4 8 82.49 5.8
-3 -4 7 81.26 4.4
-3 4 7 77.29 5.34
-3 4 7 74.82 5.64
-3 -4 7 70.23 5.48
-3 -4 6 186.46 6.38
-3 -4 6 174.48 6.54
-3 4 6 156.47 7.69
-3 4 6 176.41 8.78
-3 -4 6 153.69 8
-3 -4 5 4.34 1.17
-3 -4 5 4.98 1.35
-3 -4 5 2.76 1.05
-3 4 5 2.16 1.36
-3 4 5 1.54 1.83
-3 -4 5 2.08 1.35
-3 4 4 1.09 1.27
-3 4 4 2.53 1.55
-3 -4 3 12.85 3.4
-3 4 3 12.3 3.87
-3 4 3 12.52 5.22
3 -4 -3 12.15 4.23
-3 4 3 13.04 3.93
-3 -4 2 18.35 4.11
-3 4 2 14.84 3.97
3 -4 -2 20.77 6.14
-3 4 2 16.46 4.52
-3 -4 1 9.25 3.14
-3 4 1 7.87 3.21
3 -4 -1 5.48 2.85
-3 -4 0 76.53 8.11
-3 4 0 68.09 8.35
3 -4 0 64.26 8.35
-3 -4 -1 13.28 3.64
-3 4 -1 15.57 4.32
3 -4 1 13.46 4.48
-3 -4 -2 3.07 1.91
-3 4 -2 4.46 2.68
3 -4 2 8.62 3.97
3 -4 3 164.74 13.68
-3 -4 -4 47.9 5.05
-3 4 -4 50.91 3.95
-3 4 -5 142.76 6.65
-3 -4 -5 147.91 9.05
-3 4 -6 11.39 2.08
3 4 6 15.66 2.2
-3 -4 -6 7.39 2.71
-3 4 -6 12.43 2.67
3 4 7 97.45 4.95
-3 -4 -7 83 7.46
-3 4 -7 79.1 6.47
-3 -4 -8 12.21 3
-3 4 -8 12.06 2.92
3 4 8 14.08 1.94
3 4 9 26.11 2.57
3 -4 9 38.05 3.14
-3 -4 -9 31.34 4.57
-3 4 -9 26.68 3.93
3 4 10 5.51 1.12
-3 -4 -10 6.21 2.21
3 4 10 5.3 1.3
-3 4 -10 4.71 2.06
3 -4 10 5.32 1.17
3 4 11 1.91 0.83
-3 -4 -11 2.5 1.36
-3 4 -11 2.38 1.37
3 -4 11 0.64 0.71
3 4 12 3.79 0.89
-3 4 -12 4.71 1.26
-3 -5 12 3.34 0.93
-3 -5 11 8.14 1.13
-3 -5 11 8.32 1.57
-3 -5 10 6.82 1.25
-3 5 10 9.96 1.64
-3 -5 10 6.94 1.61
-3 -5 9 21.45 2.18
-3 5 9 21.62 2.6
-3 -5 9 16.87 2.68
-3 -5 8 10.45 1.65
-3 5 8 11.75 2.16
-3 5 8 14.66 2.63
-3 -5 8 8.4 2.07
-3 -5 7 79.89 4.42
-3 -5 7 80.19 4.46
-3 5 7 74.52 5.26
-3 5 7 79.46 5.77
-3 -5 7 73.78 5.55
-3 -5 6 106.58 4.49
-3 -5 6 103.31 4.81
-3 -5 6 88.29 4.64
-3 5 6 77.56 5.59
-3 5 6 94.33 6.5
-3 -5 6 78.8 5.8
-3 -5 5 14.24 1.92
-3 -5 5 11.42 1.73
-3 -5 5 9.52 1.58
-3 5 5 11.78 2.71
-3 5 5 9.22 2.16
-3 -5 5 7.29 1.98
-3 -5 4 2.29 0.99
-3 -5 4 1.3 0.93
-3 -5 4 1.39 0.9
-3 5 4 1.85 1.37
-3 5 4 4.95 2.5
-3 5 3 16.73 4.31
-3 5 3 18.56 2.93
-3 5 3 22.44 3.77
-3 -5 2 11.76 3.52
3 -5 -2 11.8 4.91
-3 5 2 13.05 4.35
-3 -5 1 161.29 12.23
-3 5 1 147.87 12.81
3 -5 -1 122.19 11.51
-3 -5 0 1.35 1.94
-3 5 0 0.46 1.75
3 -5 0 -1.78 3.51
-3 -5 -1 16.95 4.29
-3 5 -1 9.61 3.69
3 -5 1 14.28 5.03
-3 -5 -2 64.37 8.22
-3 5 -2 54.35 7.51
3 -5 2 64.88 9.27
-3 5 -3 8.47 1.76
-3 -5 -3 8.07 2.37
-3 -5 -4 328.83 12.96
-3 5 -4 335.4 10.09
-3 -5 -5 28.02 4.02
-3 5 -5 27.33 3.46
-3 5 -5 30.38 3.16
-3 5 -6 23.65 3.43
-3 -5 -6 23.13 3.92
-3 5 -6 23.29 2.9
3 5 7 26.15 2.58
-3 -5 -7 30.6 4.52
-3 5 -7 24.19 3.78
3 5 8 36.07 2.98
-3 -5 -8 45.81 5.34
-3 5 -8 40.24 4.64
3 5 9 29.79 2.76
3 5 9 31.35 2.71
3 -5 9 38.51 2.98
-3 -5 -9 30.71 4.32
-3 5 -9 32.21 4.1
3 5 10 3.47 1
-3 -5 -10 4.41 1.89
3 5 10 3.2 1.13
-3 5 -10 4.79 1.75
3 -5 10 2.68 0.8
3 5 11 0.24 0.63
-3 -5 -11 0.05 0.92
-3 5 -11 -0.98 1.04
-3 5 -12 1.61 0.94
-3 -6 11 4.16 0.87
-3 -6 11 3.18 1.06
-3 -6 10 2.05 0.82
-3 6 10 3.13 1.06
-3 -6 10 1.47 0.97
-3 6 9 4.36 1.32
-3 -6 9 4.27 1.12
-3 -6 9 4.13 1.27
-3 -6 8 5.39 1.24
-3 6 8 4.48 1.45
-3 -6 8 2.93 1.45
-3 -6 7 19.28 2.04
-3 -6 7 13.91 1.95
-3 -6 7 13.99 1.97
-3 6 7 12.76 2.33
-3 6 7 17.11 3
-3 -6 7 10.82 2.3
-3 -6 6 51.97 3.2
-3 -6 6 48.73 3.41
-3 -6 6 43.92 3.3
-3 6 6 37.19 4.03
-3 6 6 46.44 4.57
-3 -6 6 37.84 3.96
-3 -6 5 34.7 2.67
-3 -6 5 37.13 2.99
-3 -6 5 34.99 2.97
-3 6 5 31.9 3.75
-3 6 5 42.85 4.6
-3 -6 4 25.74 2.44
-3 -6 4 21.84 2.23
-3 -6 4 21.84 2.33
-3 6 4 19.92 3.18
-3 -6 3 9.19 1.56
-3 -6 3 8.74 1.47
-3 -6 3 9.64 1.59
-3 6 3 11.91 2.51
-3 -6 2 102.83 4.59
-3 6 2 101.44 6.52
-3 -6 1 1.12 0.85
-3 6 0 12.17 3.94
-3 6 -1 46.17 6.95
-3 6 -1 61.46 4.1
-3 -6 -2 60.81 3.74
-3 -6 -2 67.96 5.69
-3 6 -2 65.67 4.36
-3 -6 -3 132.79 8.17
-3 6 -3 130.99 6.28
-3 -6 -4 98.52 7.27
-3 6 -4 90.27 5.45
-3 -6 -5 17.31 3.43
-3 6 -5 15.26 2.49
-3 6 -6 23.68 3.42
-3 -6 -6 14.86 3.05
-3 6 -6 23.26 2.73
-3 -6 -7 30.1 4.31
-3 6 -7 32.21 4.08
-3 -6 -8 47.18 5.35
-3 6 -8 45.82 4.84
3 6 9 37.67 2.93
3 6 9 39.37 2.95
3 -6 9 47.95 3.04
-3 -6 -9 39.17 4.61
-3 6 -9 37.14 4.21
3 6 10 12.39 1.63
3 6 10 14.98 1.68
-3 -6 -10 17.4 2.82
-3 6 -10 14.24 2.65
3 6 11 -0.21 0.48
3 6 11 1.06 0.64
-3 6 -11 1.19 1.04
-3 -7 11 2.27 0.6
-3 -7 11 3.52 0.97
-3 -7 10 -0.13 0.52
-3 7 10 0.87 0.72
-3 -7 10 -0.02 0.69
-3 -7 9 1.27 0.72
-3 7 9 0.67 0.86
-3 -7 9 0.4 0.87
-3 -7 8 6.28 1.33
-3 7 8 6.67 1.7
-3 -7 8 5.84 1.65
-3 -7 7 10.82 1.71
-3 -7 7 10.64 1.7
-3 7 7 10.75 2.11
-3 -7 7 8.42 1.89
-3 -7 6 13.75 1.87
-3 -7 6 10.51 1.67
-3 -7 6 9.69 1.68
-3 7 6 8.67 2.04
-3 7 5 14.23 2.61
-3 -7 5 16.79 2.01
-3 -7 5 14.29 1.95
-3 -7 5 14.17 1.95
-3 -7 4 67.32 3.7
-3 -7 4 69.88 4.02
-3 -7 4 68.83 3.98
-3 7 4 66.73 5.44
-3 -7 3 63.4 3.75
-3 -7 3 59.28 3.66
-3 -7 3 61.26 3.75
-3 7 3 56.63 5.12
-3 -7 2 157.83 5.72
-3 -7 2 161.03 5.76
-3 -7 2 158.95 5.86
-3 7 2 160.21 8.24
-3 7 2 165.76 6.21
-3 -7 1 37.04 2.84
-3 7 1 37.35 4.17
-3 7 1 35.1 3.07
-3 -7 0 22.96 2.25
-3 7 0 20.32 2.55
-3 -7 -1 33.86 2.75
3 -7 1 31.28 4.63
-3 7 -1 31.7 3.1
-3 -7 -2 30.25 2.58
3 -7 2 30.92 4.11
-3 7 -2 30.65 3.19
3 -7 3 72.39 5.67
-3 -7 -3 85.93 6.59
-3 7 -3 83.63 5.08
-3 7 -4 7.72 2
3 -7 4 13.22 2.66
-3 -7 -4 9.59 2.68
3 -7 5 74.21 4.82
-3 -7 -5 70.17 6.27
-3 7 -5 67.69 4.62
3 -7 6 32.05 3.08
-3 -7 -6 24.78 3.97
-3 7 -6 27.44 3.53
-3 7 -6 26.1 3.02
3 -7 7 29.47 2.74
-3 -7 -7 23.91 3.77
-3 7 -7 23.05 3.35
3 7 8 63.06 3.86
3 -7 8 70.15 3.79
-3 -7 -8 61.56 5.72
3 7 9 8.44 1.51
-3 -7 -9 9.7 2.28
-3 7 -9 9 2.16
3 7 10 7.9 1.25
-3 7 -10 8.31 1.9
-3 7 -11 7.58 1.5
-3 -8 10 0.57 0.48
-3 8 10 1.12 0.7
-3 -8 10 0.18 0.65
-3 -8 9 1.63 0.71
-3 8 9 0.93 0.77
-3 -8 9 0.37 0.71
-3 -8 8 1.67 0.8
-3 -8 8 1.37 0.77
-3 8 8 0.79 0.92
-3 -8 8 1.41 0.92
-3 -8 7 12.72 1.83
-3 -8 7 12.19 1.71
-3 8 7 9.32 2.02
-3 -8 6 1.92 0.98
-3 -8 6 0.94 0.7
-3 8 6 0.19 0.99
-3 -8 5 16.18 1.96
-3 -8 5 12.97 1.84
-3 -8 5 12.69 1.84
-3 8 5 11.42 2.34
-3 -8 4 102.15 4.63
-3 -8 4 107.55 4.95
-3 -8 4 103.46 4.89
-3 -8 3 87.45 4.34
-3 -8 3 92.88 4.58
-3 -8 3 94.69 4.7
-3 8 3 84.42 6.01
-3 -8 2 330.13 8.28
-3 -8 2 323.51 8.25
-3 -8 2 322.37 8.38
-3 8 2 328.22 11.58
-3 8 2 323.1 8.77
-3 -8 1 77.9 4.12
-3 8 1 75.53 5.65
-3 8 1 72.4 4.34
-3 -8 0 266.18 7.5
3 -8 0 236.89 11.47
-3 8 0 248.2 8.2
-3 -8 -1 53.55 3.43
3 -8 1 49.24 5.46
-3 8 -1 56.2 4.12
-3 -8 -2 20.37 2.21
3 -8 2 18.33 3.52
-3 8 -2 20.89 2.62
-3 8 -3 1.79 1.08
3 -8 3 3.62 2.09
3 -8 4 16.54 2.76
-3 8 -4 15.17 2.35
-3 8 -5 8.84 1.83
3 -8 5 8.66 1.96
3 -8 6 21.01 2.53
-3 8 -6 16.69 2.44
3 8 7 4.09 1.45
3 -8 7 5.04 1.41
-3 8 -7 5.6 1.69
3 8 8 30.31 2.65
3 -8 8 35.19 2.69
-3 8 -8 27.25 3.44
3 8 9 6.33 1.2
3 -8 9 4.94 1.03
-3 8 -9 6.54 1.96
3 8 10 16.82 1.62
-3 8 -10 15.58 2.29
-3 -9 10 4.1 0.75
-3 9 10 3.8 0.87
-3 9 9 5.66 1.3
-3 -9 9 5.54 0.99
-3 -9 8 2.53 0.86
-3 -9 8 3.09 0.9
-3 9 8 2.84 1.13
-3 -9 7 2.11 0.9
-3 -9 7 1.31 0.75
-3 9 7 0.36 0.82
-3 -9 6 3.83 1.11
-3 -9 6 2.77 0.96
-3 9 6 1.27 1.07
-3 -9 5 4.43 1.26
-3 -9 5 2.71 1
-3 -9 5 3.21 1.02
-3 9 5 2.14 1.29
-3 -9 4 35.17 2.76
-3 -9 4 33.29 2.86
-3 -9 4 29.83 2.7
-3 9 4 28.23 3.5
-3 -9 3 82 4.1
-3 -9 3 79.82 4.27
-3 -9 3 77.02 4.18
-3 9 3 77.9 5.84
-3 -9 2 69.77 3.85
-3 -9 2 73.91 4.11
-3 -9 2 75.73 4.13
-3 9 2 74.33 5.69
-3 9 2 75.16 4.4
-3 -9 1 273.78 7.49
-3 9 1 276.74 10.49
-3 9 1 248.07 8.09
-3 -9 0 43.56 3.12
3 -9 0 32.09 4.5
-3 9 0 37.8 3.31
-3 9 -1 2.41 1.17
-3 -9 -1 5.79 1.58
3 -9 1 3.18 2.13
-3 9 -2 6.35 1.72
3 -9 2 5.84 2.22
3 -9 3 14.63 2.81
-3 9 -3 14.38 2.38
3 -9 4 18.48 2.84
-3 9 -4 20.03 2.6
-3 9 -5 8.33 1.82
3 -9 5 11.93 2.12
-3 9 -6 3.85 1.34
3 9 6 6.55 1.49
3 -9 6 4.15 1.29
3 9 7 12.29 1.88
3 -9 7 13.14 1.82
-3 9 -7 10.21 2.15
3 9 8 15.18 1.81
3 -9 8 21.51 2.04
-3 9 -8 15.01 2.4
3 9 9 2.6 0.75
3 -9 9 3.15 0.77
-3 9 -9 4.38 1.44
3 9 10 4.11 0.85
-3 -10 9 0.06 0.44
-3 10 9 0.8 0.65
-3 -10 8 0.41 0.47
-3 10 8 1 0.86
-3 -10 7 9.91 1.41
-3 -10 7 8.59 1.34
-3 10 7 7.78 1.68
-3 -10 6 8.32 1.39
-3 -10 6 7 1.26
-3 10 6 5.89 1.52
-3 -10 5 0.48 0.59
-3 -10 5 1.12 0.74
-3 10 5 0.03 0.91
-3 -10 4 5.28 1.37
-3 -10 4 2.1 0.88
-3 -10 4 1.59 0.83
-3 10 4 2.54 1.42
-3 -10 3 14.71 1.85
-3 -10 3 12.84 1.73
-3 -10 3 11.88 1.73
-3 10 3 13.55 2.58
-3 -10 2 26.7 2.37
-3 -10 2 24.22 2.39
-3 -10 2 26.17 2.4
-3 10 2 28.94 3.55
-3 10 2 24.51 2.53
-3 -10 1 16.82 1.98
-3 -10 1 15.95 1.97
3 -10 -1 11.66 2.9
-3 10 1 14.31 2.11
-3 10 0 2.93 1.23
-3 -10 0 3.72 1.13
3 -10 0 1.9 1.9
-3 -10 -1 14.96 1.79
3 -10 1 11.42 2.83
-3 10 -1 13.83 2.13
-3 10 -2 1.41 1.09
3 -10 2 1.19 1.8
-3 10 -3 3.75 1.49
3 -10 3 4.69 2.06
3 10 4 51.2 3.46
3 -10 4 50.47 4.15
-3 10 -4 39.98 3.49
-3 10 -5 0.03 0.82
3 10 5 1.61 0.87
3 -10 5 0.97 1.16
-3 10 -6 5.17 1.42
3 10 6 6.89 1.49
3 -10 6 7.49 1.5
3 10 7 3.22 0.97
3 -10 7 7.95 1.44
3 10 8 2.98 0.82
-3 10 -8 4.85 1.32
3 10 9 1.93 0.6
3 -10 9 2.36 0.64
-3 -11 8 1.95 0.66
-3 11 8 1.99 0.8
-3 -11 7 12.97 1.44
-3 -11 7 9.49 1.27
-3 11 7 10.25 1.69
-3 -11 6 1.55 0.79
-3 -11 6 0.49 0.6
-3 11 6 1.28 1
-3 -11 5 2.01 0.88
-3 -11 5 1.81 0.83
-3 11 5 2.41 1.21
-3 -11 4 0.63 0.71
-3 -11 4 0.42 0.62
-3 11 4 1.46 1.24
-3 -11 3 16.34 1.89
-3 -11 3 14.87 1.76
-3 -11 3 14.61 1.76
-3 11 3 16.17 2.51
-3 11 3 11.72 1.69
-3 11 2 1.71 0.85
-3 -11 2 3.77 1.13
-3 -11 2 1.85 0.9
-3 -11 2 1.23 0.7
-3 11 1 2.93 1.12
-3 -11 1 6.07 1.38
-3 -11 1 3.8 1.03
3 -11 -1 1.36 1.58
-3 11 0 3.27 1.2
-3 -11 0 6.59 1.37
3 -11 0 2.31 1.8
-3 11 -1 7.24 1.55
-3 -11 -1 10.73 1.58
3 -11 1 7.9 2.33
-3 11 -2 6.64 1.64
3 -11 2 8.57 2.35
3 -11 3 31.99 3.41
-3 11 -3 29.32 2.97
-3 11 -4 0.8 0.92
3 11 4 1.77 0.85
3 -11 4 2.33 1.36
-3 11 -5 5.11 1.35
3 11 5 6.74 1.24
3 -11 5 7.53 1.51
-3 11 -6 7.04 1.38
3 11 6 6.03 1.19
3 -11 6 5.97 1.17
3 11 7 3.33 0.93
3 -11 7 4.28 1.08
3 11 8 0 0.52
3 -11 8 1.54 0.64
-3 -12 7 11.62 1.18
-3 -12 7 9.57 1.13
-3 12 7 10.75 1.45
-3 -12 6 13.37 1.42
-3 -12 6 11.31 1.37
-3 12 6 10.86 1.63
-3 -12 5 4.35 0.97
-3 -12 5 4.75 0.99
-3 12 5 5.32 1.44
-3 -12 4 2.56 0.88
-3 -12 4 1.53 0.73
-3 12 4 2.28 1.15
-3 12 3 3.1 0.86
-3 -12 3 6.04 1.17
-3 -12 3 4.94 1.02
3 -12 -3 2.1 1.46
-3 -12 2 11.84 1.57
-3 -12 2 12.18 1.54
3 -12 -2 8.32 2.14
-3 12 2 9.8 1.58
-3 12 1 0.85 0.75
-3 -12 1 0.55 0.74
3 -12 -1 1.25 1.61
-3 12 0 -0.42 0.79
3 -12 0 -0.53 1.4
-3 12 -1 4.11 1.24
3 -12 1 5.12 2.02
-3 12 -2 2.02 1
3 -12 2 0.88 1.35
-3 12 -3 1.35 0.96
3 -12 3 2.48 1.39
-3 12 -4 5.9 1.41
3 -12 4 5.32 1.34
-3 12 -5 4.63 1.22
3 12 5 3.8 0.88
3 -12 5 4.19 1.13
3 12 6 10.24 1.29
3 -12 6 12.16 1.46
-3 12 -6 11.63 1.52
3 12 7 7.27 1.04
3 -12 7 9.13 1.13
-3 -13 6 3.2 0.68
-3 -13 6 2.54 0.64
-3 -13 5 5.52 0.91
-3 -13 5 4.74 0.85
3 -13 -5 3.89 1.46
-3 -13 4 1.39 0.58
-3 -13 4 1.9 0.69
3 -13 -4 1.13 1.19
-3 -13 3 0.16 0.56
-3 -13 3 0.02 0.45
-3 13 2 -0.14 0.56
-3 -13 2 0.78 0.49
-3 -13 2 0.46 0.57
3 -13 -2 0.66 1.18
-3 13 1 2.07 0.88
-3 -13 1 3.41 0.91
3 -13 -1 4.25 1.71
-3 13 0 1.23 0.86
3 -13 0 3.29 1.33
-3 13 -1 0.68 0.68
3 -13 1 3.11 1.37
-3 13 -2 4.08 1.18
3 -13 2 7.34 1.65
3 -13 3 17.77 2
-3 13 -3 15.13 1.92
-3 13 -4 2.8 0.91
3 -13 4 3.01 0.96
-3 13 -5 3.14 0.9
3 -13 5 3.42 0.84
3 -13 6 4.37 0.82
-3 -14 4 0.01 0.39
-3 -14 4 0.89 0.44
3 -14 -4 1.57 1.06
-3 -14 3 2.03 0.62
-3 -14 3 0.88 0.45
3 -14 -3 1.68 1.15
-3 14 2 2.46 0.71
-3 -14 2 2.05 0.62
3 -14 -2 2.48 1.19
-3 14 1 0.5 0.52
-3 -14 1 1.18 0.44
3 -14 -1 1.63 1.12
-3 14 0 0.98 0.57
3 -14 0 2.79 0.91
3 -14 0 1.03 0.93
-3 14 -1 -0.14 0.57
3 -14 1 1.49 0.95
-3 14 -2 7.13 1.23
3 -14 2 10.74 1.46
-3 14 -3 1.05 0.65
3 -14 3 2.09 0.76
-3 14 -4 1.6 0.66
3 -14 4 1.42 0.61
3 -15 -1 2.87 0.85
-3 15 0 0.61 0.48
3 -15 0 2.02 0.74
-3 15 -1 1.34 0.55
3 -15 1 1.62 0.64
-4 0 10 1.62 0.96
-4 0 9 24.97 2.73
-4 0 8 50.51 4.18
-4 0 7 2.29 1.38
-4 0 6 6.25 1.29
-4 0 6 6.05 2.06
-4 0 5 0.84 1.56
-4 0 4 0.95 1.42
-4 0 3 1.43 0.94
-4 0 3 1.37 1.86
-4 0 2 4.71 1.32
-4 0 2 7.79 2.72
-4 0 1 10.81 1.71
-4 0 0 11.5 1.82
-4 0 -1 1.61 0.78
-4 0 -2 8.24 1.69
-4 0 -3 14.63 2.12
-4 0 -4 24.18 2.73
-4 0 -4 31.84 3.82
-4 0 -5 52.67 4.06
-4 0 -5 62.06 5.45
-4 0 -6 -1 1
-4 0 -6 -0.72 1.21
-4 0 -7 20.09 2.28
-4 0 -7 20.21 3.22
4 0 8 19.47 2.14
-4 0 -8 11.25 2.43
-4 0 -9 0.96 1.13
4 0 9 0.2 0.61
-4 0 -10 0.97 0.92
4 0 10 -2.47 0.89
-4 1 10 9.43 1.58
-4 -1 10 5.48 1.25
-4 1 9 12.91 2.02
-4 -1 9 11.12 1.87
-4 1 8 14.98 2.43
-4 -1 8 11.68 2.13
-4 -1 7 69.99 3.59
-4 1 7 83.55 5.78
-4 -1 7 84.95 5.65
-4 -1 6 2.51 0.85
-4 1 6 2.88 1.63
-4 -1 6 2.02 1.46
-4 1 5 0.66 1.43
-4 -1 5 0.09 1.36
-4 -1 4 7 1.33
-4 1 4 7.34 2.41
-4 -1 4 5.97 2
-4 -1 3 0.93 0.83
-4 1 3 4.93 2.29
-4 -1 3 2.41 1.92
-4 -1 2 19.32 2.38
-4 1 2 19.48 2.24
-4 -1 1 12.39 1.95
-4 1 1 9.62 1.65
-4 -1 0 8.89 1.65
-4 1 0 7.18 1.55
-4 -1 -1 14.36 2.12
-4 1 -1 12.82 1.95
-4 -1 -2 0.39 0.88
-4 -1 -3 52.24 3.98
-4 -1 -4 9.38 1.77
-4 -1 -4 15.58 2.85
-4 -1 -5 4.25 1.3
-4 -1 -5 5.96 2.01
-4 1 -5 3.96 1.68
-4 -1 -6 63.83 4.28
-4 -1 -6 59.68 5.36
-4 1 -6 54.66 5
-4 1 -7 1.17 0.87
-4 -1 -7 1.52 1.33
-4 1 -7 -0.33 1.19
4 1 8 51.37 3.24
4 -1 8 55.88 3.47
-4 -1 -8 38.25 4.3
-4 1 -8 39.11 4.09
-4 -1 -9 1.41 1.12
-4 1 -9 0.54 1.05
4 1 9 1.05 0.62
4 -1 9 2.02 0.76
-4 -1 -10 2.39 1.05
4 1 10 1.87 0.66
4 -1 10 0.64 0.56
-4 2 10 5.7 1.43
-4 -2 10 0.39 0.74
-4 2 9 15.46 2.25
-4 -2 9 8.17 1.6
-4 -2 8 21.61 1.94
-4 2 8 28.76 3.28
-4 -2 8 23.52 2.78
-4 -2 7 17.93 1.95
-4 2 7 24.43 3.21
-4 -2 7 18.19 2.75
-4 -2 6 12.17 1.66
-4 2 6 14.88 2.94
-4 -2 6 13.37 2.48
-4 2 5 3.71 2.03
-4 -2 5 1.34 1.4
-4 -2 4 4.95 1.14
-4 2 4 7.35 2.57
-4 -2 4 5.97 2.05
-4 -2 3 13.24 1.78
-4 2 3 22.79 3.93
-4 -2 2 113.69 5.28
-4 2 2 99.22 4.87
-4 -2 1 6.2 1.55
-4 2 1 3.44 1.17
-4 -2 0 12.26 2
-4 2 0 8.89 1.64
-4 -2 -1 38.43 3.37
-4 -2 -2 37.7 3.39
-4 -2 -3 33.98 3.3
-4 -2 -3 39.67 4.19
-4 -2 -4 45.91 3.77
-4 -2 -4 53.86 4.98
-4 -2 -5 9.19 1.73
-4 -2 -5 10.31 2.44
-4 -2 -6 3.64 1.32
-4 -2 -6 1.94 1.58
-4 2 -6 2.07 1.24
-4 -2 -7 44.97 4.75
-4 2 -7 43.63 4.41
-4 2 -8 1.93 0.98
-4 -2 -8 3.44 1.63
-4 2 -8 4.02 1.59
4 2 8 3.39 1.01
4 -2 9 14.41 1.61
-4 -2 -9 12.94 2.49
-4 2 -9 10.23 2.1
4 2 9 9.55 1.28
-4 -2 -10 0.13 0.92
-4 2 -10 0.14 0.85
4 2 10 2.35 0.75
4 -2 10 -0.6 0.65
-4 -3 10 0.72 0.79
-4 3 9 5.18 1.54
-4 -3 9 0.91 0.83
-4 -3 8 2.15 0.76
-4 -3 8 2.52 1.06
-4 -3 7 13.15 1.59
-4 3 7 15.94 2.68
-4 -3 7 8.98 2.1
-4 -3 6 30.22 2.42
-4 3 6 38.73 4.25
-4 -3 6 32.08 3.52
-4 -3 5 12.38 1.68
-4 -3 5 7.89 2.07
-4 -3 4 2.41 1
-4 3 4 8.26 2.81
-4 -3 3 51.74 3.48
-4 -3 2 -0.37 0.89
-4 -3 1 41.84 3.36
-4 3 1 42.44 3.5
-4 3 0 3.67 1.28
-4 -3 0 4.99 1.48
-4 3 -1 5.55 1.61
-4 -3 -1 5 1.42
-4 -3 -2 108.66 5.65
-4 3 -2 131.22 6.53
-4 -3 -3 38.01 3.42
-4 -3 -3 43.61 4.53
-4 3 -3 48.32 4.09
-4 -3 -4 16.68 2.4
-4 -3 -4 20.18 3.3
-4 -3 -5 2.21 1.08
-4 -3 -5 1.48 1.21
-4 -3 -6 23.69 3.46
-4 3 -6 20.13 2.86
-4 -3 -7 2.83 1.6
-4 3 -7 2.89 1.59
4 3 7 5.39 1.15
-4 -3 -8 8.63 2.23
-4 3 -8 7.88 1.83
4 3 8 6.61 1.12
4 3 9 4.16 0.86
-4 -3 -9 4.14 1.58
-4 3 -9 2.04 1.12
4 3 9 0.02 0.59
4 -3 9 3.88 0.97
-4 -3 -10 6.5 1.47
-4 3 -10 5.99 1.39
4 -3 10 3.7 0.71
-4 -4 9 2.79 0.74
-4 -4 9 3.41 1.01
-4 -4 8 2.96 0.81
-4 -4 8 2.8 1.05
-4 -4 7 2.39 0.8
-4 -4 7 0.89 1.02
-4 -4 6 0.39 0.65
-4 -4 6 -0.19 1
-4 -4 5 8.69 1.49
-4 -4 4 40.29 2.99
-4 -4 3 19.57 2.17
-4 -4 2 11.66 1.81
-4 -4 1 18.83 2.22
-4 4 1 15.46 1.97
-4 4 1 20.53 2.42
-4 -4 0 10.39 1.83
-4 4 0 13.45 2.15
-4 -4 -1 33.28 3.1
-4 4 -1 30.77 3.14
-4 -4 -2 15.46 2.25
-4 4 -2 16.68 2.55
-4 -4 -3 95.46 5.24
-4 -4 -3 99.99 6.71
-4 4 -3 108.57 6
-4 -4 -4 18.05 2.35
-4 -4 -4 17.19 3.16
-4 4 -4 19.7 2.72
-4 -4 -5 10.6 1.81
-4 -4 -5 7.31 2.17
-4 -4 -6 17.51 3.17
-4 -4 -7 0.63 1.16
-4 4 -7 1.85 1.25
-4 -4 -8 4.82 1.62
-4 4 -8 5.24 1.53
4 4 8 2.91 0.66
-4 4 -9 7.86 1.11
4 4 9 11.39 1.26
4 4 9 12.82 1.37
4 -4 9 13.97 1.47
-4 -4 -9 10.72 2.02
-4 4 -9 9.14 1.75
-4 -5 9 1.73 0.6
-4 -5 9 -0.35 0.69
-4 -5 8 1.59 0.65
-4 -5 8 0.72 0.78
-4 -5 7 3.03 0.79
-4 -5 7 1.49 0.94
-4 -5 6 2.63 0.92
-4 -5 6 1.53 0.7
-4 -5 5 25.57 2.14
-4 -5 5 22.34 2.05
-4 -5 4 50.38 3.3
-4 -5 3 28.25 2.58
-4 -5 2 44.64 3.31
-4 5 1 9.18 1.67
-4 -5 1 7.67 1.48
-4 5 0 4.02 1.3
-4 -5 0 2.01 0.83
-4 5 -1 2.61 1.16
-4 -5 -1 1.52 0.87
-4 -5 -2 36.18 3.16
-4 5 -2 37.7 3.44
-4 5 -3 6.21 1.72
-4 -5 -3 4.22 1.25
-4 -5 -4 14.24 1.99
-4 -5 -4 16.97 3.04
-4 5 -4 13.97 2.32
-4 -5 -5 6.92 2.15
-4 -5 -6 3.39 1.5
-4 -5 -7 1.46 1.32
-4 -5 -8 1.35 1.27
-4 5 -8 0.33 0.85
-4 5 -9 1.02 0.6
4 5 9 2.59 0.68
-4 5 -9 1.02 0.92
4 -5 9 1.89 0.66
-4 -6 9 0.51 0.48
-4 -6 8 1.42 0.63
-4 -6 7 5.45 1.01
-4 -6 6 13.36 1.55
-4 -6 6 8.16 1.25
-4 -6 5 28.22 2.24
-4 -6 5 21.45 1.97
-4 -6 4 14.22 1.76
-4 -6 3 12.75 1.91
-4 -6 2 14.7 1.97
-4 -6 1 39.5 3.1
-4 6 1 36.64 3.03
-4 6 0 2.52 1.14
-4 -6 0 1.17 0.76
-4 6 -1 5.44 1.45
-4 -6 -1 5.51 1.19
-4 -6 -2 15.77 2.13
-4 6 -2 16.31 2.32
-4 6 -3 8.96 1.82
-4 -6 -3 7.01 1.46
-4 6 -4 1.85 1.14
-4 -6 -4 2.89 0.99
-4 6 -5 2.75 1.26
4 6 8 3.59 0.91
4 -6 8 5.7 1.08
4 6 9 3.68 0.74
-4 -7 8 1.65 0.51
-4 -7 7 2.65 0.77
-4 -7 6 5.87 1.11
-4 -7 6 1.71 0.61
-4 -7 5 2 0.93
-4 -7 5 1.4 0.75
-4 -7 4 0.36 0.65
-4 -7 3 1.29 0.78
-4 -7 2 9.5 1.64
-4 7 1 0.28 0.84
-4 -7 1 1.79 1.01
-4 7 0 1.62 1.1
-4 -7 0 1.43 0.86
-4 7 -1 3.77 1.24
-4 -7 -1 4.13 1.28
-4 7 -2 9.16 1.84
-4 -7 -2 9.82 1.68
-4 -7 -3 52.03 3.41
-4 7 -3 49.01 3.91
-4 7 -4 16.59 2.37
-4 7 -5 5.95 1.47
4 7 7 11.89 1.51
4 7 8 15.13 1.48
4 -7 8 18.26 1.39
-4 -8 8 11.35 1.06
-4 -8 7 1.34 0.54
-4 -8 6 0.45 0.47
-4 -8 5 2.39 0.96
-4 -8 5 0.23 0.43
-4 -8 4 3.59 1.13
-4 -8 3 10.49 1.45
-4 -8 2 2.19 0.7
-4 8 1 6.7 1.44
-4 -8 1 12.48 1.77
-4 8 0 6.46 1.53
-4 -8 0 7.3 1.47
-4 8 -1 6.38 1.64
-4 -8 -1 10.34 1.64
-4 8 -2 6.07 1.48
-4 -8 -2 6.47 1.33
-4 8 -3 2.45 1.08
-4 -8 -3 4.41 1.13
-4 8 -4 5.65 1.39
-4 8 -5 6.09 1.38
4 8 7 5.78 1.07
4 8 8 20.46 1.55
-4 -9 7 7.76 0.89
-4 -9 6 0.77 0.48
-4 -9 5 -0.13 0.47
-4 -9 4 1.1 0.79
-4 -9 3 3.16 1.02
-4 -9 2 11.5 1.51
-4 9 1 1.9 0.87
-4 -9 1 1.32 0.75
-4 9 0 2.06 1
-4 -9 0 1.25 0.65
-4 9 -1 3.96 1.17
-4 -9 -1 2.75 0.81
-4 9 -2 3.67 1.07
-4 -9 -2 2.13 0.77
-4 9 -3 4.31 1.22
-4 9 -4 5.68 1.34
-4 9 -5 1.1 0.84
4 9 5 2.79 0.93
4 9 6 4.41 0.91
4 9 7 14.88 1.35
-4 -10 5 0.09 0.37
4 -10 -4 1.43 0.86
-4 -10 3 12.93 1.53
4 -10 -3 6.04 1.34
-4 -10 2 10.07 1.36
4 -10 -2 7.13 1.45
-4 -10 1 31.5 2.23
-4 10 1 22.77 2.07
-4 -10 0 15.68 1.74
-4 10 0 9.3 1.43
-4 10 -1 1.95 0.75
-4 -10 -1 2.56 0.88
-4 10 -2 3.78 1.16
-4 10 -3 5.81 1.31
-4 10 -4 2.43 0.93
4 10 4 3.95 0.86
-4 10 -5 4.15 1.12
4 10 5 4.6 0.83
4 10 6 0.93 0.47
4 -11 -3 29.94 2.22
4 -11 -2 35.11 2.43
4 -11 -1 21.21 1.91
-4 11 1 19.96 1.77
4 -11 0 19.67 1.83
-4 11 0 16.16 1.72
-4 -11 -1 12.36 1.34
-4 11 -1 8.07 1.36
-4 11 -2 4.47 1.06
-4 11 -3 1.22 0.79
-4 11 -4 0.75 0.62
-4 12 1 13.09 1.25
-4 12 0 10.47 1.21
-4 12 -1 1.59 0.67
-4 12 -2 4.21 0.92
-4 12 -3 0.94 0.56
-5 0 2 10.38 1.32
-5 0 1 0.16 0.6
-5 0 0 8.05 1.36
-5 0 -1 1.96 0.91
-5 0 -2 46.64 3.01
-5 0 -3 28.79 2.39
-5 0 -4 0.67 0.76
-5 0 -5 21.01 1.86
5 0 5 31.91 2.01
-5 0 -6 2.2 0.68
5 0 6 1.15 0.59
-5 -1 3 5.26 0.91
-5 -1 2 3.57 0.84
-5 1 2 1.97 0.7
-5 -1 1 3.57 0.89
-5 1 1 4.09 0.97
-5 -1 0 0.9 0.63
-5 1 0 3.63 1.01
-5 -1 -1 31.94 2.52
-5 1 -1 32.1 2.52
-5 -1 -2 26.32 2.34
-5 1 -2 24.85 2.26
-5 -1 -3 26.89 2.34
-5 1 -3 26.97 2.3
-5 -1 -4 5.25 1.08
-5 1 -4 4.7 1.07
-5 -1 -5 1.01 0.7
-5 1 -5 0.48 0.56
-5 -1 -6 11.11 1.16
-5 1 -6 11.75 1.27
5 1 6 12.69 1.12
-5 -2 3 12.07 1.32
-5 -2 2 12.11 1.41
-5 -2 1 -0.46 0.72
-5 2 1 1 0.7
-5 -2 0 1.03 0.61
-5 2 0 2.65 0.87
-5 -2 -1 5.99 1.17
-5 2 -1 6.5 1.24
-5 2 -2 8.76 1.39
-5 -2 -2 8.04 1.31
-5 -2 -3 6.56 1.22
-5 2 -3 6.72 1.19
-5 -2 -4 4.8 1.02
-5 2 -4 5.51 1.08
-5 -2 -5 10.94 1.29
-5 2 -5 9.21 1.28
-5 2 -6 5.84 0.93
5 -2 6 11.45 1.23
-5 -3 4 10.57 1.1
-5 -3 3 10.05 1.22
-5 -3 2 13.14 1.47
-5 -3 1 3.01 0.85
-5 3 1 3.89 0.89
-5 -3 0 0.75 0.57
-5 3 0 1.43 0.7
-5 -3 -1 0.48 0.64
-5 3 -1 0.74 0.59
-5 -3 -2 4.52 0.98
-5 3 -2 3.43 0.95
-5 -3 -3 2.15 0.77
-5 3 -3 1.89 0.68
-5 -3 -4 7.09 1.16
-5 3 -4 6.08 1.09
-5 -3 -5 8.74 1.09
-5 3 -5 5.56 0.96
-5 3 -6 1.37 0.58
5 -3 6 5.51 0.93
-5 -4 4 0.38 0.48
-5 -4 3 9.87 1.16
-5 -4 2 5.72 1.06
-5 -4 1 0.89 0.64
-5 -4 0 8.3 1.26
-5 4 0 5.54 1.07
-5 -4 -1 5.43 1.07
-5 4 -1 4.35 0.96
-5 -4 -2 4.61 0.99
-5 4 -2 4.85 1.03
-5 -4 -3 11.43 1.4
-5 4 -3 7.69 1.18
-5 -4 -4 2.73 0.74
-5 4 -4 0.95 0.53
-5 4 -5 1.43 0.61
-5 4 -6 6.59 0.94
5 -4 6 17.4 1.36
-5 -5 4 4.61 0.79
-5 -5 3 4.54 0.8
-5 -5 2 15.79 1.53
-5 -5 1 4.84 0.95
-5 -5 0 0.81 0.65
-5 5 0 1.64 0.66
-5 -5 -1 1.8 0.74
-5 5 -1 1.62 0.68
-5 -5 -2 4.41 0.89
-5 5 -2 3.79 0.87
-5 -5 -3 4.41 0.94
-5 5 -3 1.95 0.7
-5 -5 -4 -0.16 0.43
-5 5 -4 -0.21 0.5
-5 5 -5 0.91 0.56
-5 -6 4 3.64 0.72
-5 -6 3 7.96 0.99
-5 -6 2 0.42 0.49
-5 -6 1 1.39 0.64
-5 -6 0 4.3 0.89
-5 -6 -1 7.25 1.09
-5 6 -1 4.54 0.8
-5 -6 -2 3.81 0.82
-5 6 -2 2.38 0.67
-5 -6 -3 1.95 0.65
-5 6 -3 -0.26 0.5
-5 6 -4 0.11 0.45
-5 -7 3 2.2 0.66
-5 -7 2 1.12 0.57
-5 -7 1 -0.47 0.49
-5 -7 0 1.62 0.56
-5 -7 -1 4.03 0.75
-5 -7 -2 0.88 0.46
-5 7 -2 1.8 0.54
-5 7 -3 0.8 0.46
-5 -8 2 4.9 0.79
-5 -8 1 2.5 0.66
-5 -8 0 1.93 0.64
