#------------------------------------------------------------------------------
#$Date: 2019-11-11 17:39:14 +0200 (Mon, 11 Nov 2019) $
#$Revision: 226755 $
#$URL: file:///home/coder/svn-repositories/cod/cif/4/03/52/4035291.cif $
#------------------------------------------------------------------------------
#
# This file is available in the Crystallography Open Database (COD),
# http://www.crystallography.net/
#
# All data on this site have been placed in the public domain by the
# contributors.
#
data_4035291
loop_
_publ_author_name
'Pathare, Ramdas S.'
'Ansari, Arshad J.'
'Verma, Sarika'
'Maurya, Anand'
'Maurya, Antim K.'
'Agnihotri, Vijai K.'
'Sharon, Ashoke'
'Pardasani, Ram T.'
'Sawant, Devesh M.'
_publ_section_title
;
 Sequential Pd(0)/Fe(III) Catalyzed Azide-Isocyanide Coupling/Cyclization
 Reaction: One-Pot Synthesis of Aminotetrazoles.
;
_journal_issue                   16
_journal_name_full               'The Journal of organic chemistry'
_journal_page_first              9530
_journal_page_last               9537
_journal_paper_doi               10.1021/acs.joc.8b01261
_journal_volume                  83
_journal_year                    2018
_chemical_formula_moiety         'C12 H14 N6'
_chemical_formula_sum            'C12 H14 N6'
_chemical_formula_weight         242.29
_space_group_crystal_system      monoclinic
_space_group_IT_number           11
_space_group_name_Hall           '-P 2yb'
_space_group_name_H-M_alt        'P 1 21/m 1'
_atom_sites_solution_hydrogens   geom
_atom_sites_solution_primary     dual
_audit_creation_date             2016-10-26
_audit_creation_method
;
Olex2 1.2
(compiled 2016.02.19 svn.r3266 for OlexSys, GUI svn.r5155)
;
_cell_angle_alpha                90
_cell_angle_beta                 103.424(6)
_cell_angle_gamma                90
_cell_formula_units_Z            2
_cell_length_a                   8.5723(5)
_cell_length_b                   7.0541(4)
_cell_length_c                   10.5423(5)
_cell_measurement_reflns_used    1344
_cell_measurement_temperature    298.2
_cell_measurement_theta_max      25.0800
_cell_measurement_theta_min      2.7570
_cell_volume                     620.07(6)
_computing_cell_refinement       'CrysAlisPro 1.171.39.7f (Rigaku OD, 2015)'
_computing_data_collection       'CrysAlisPro 1.171.39.7f (Rigaku OD, 2015)'
_computing_data_reduction        'CrysAlisPro 1.171.39.7f (Rigaku OD, 2015)'
_computing_molecular_graphics    'Olex2 (Dolomanov et al., 2009)'
_computing_publication_material  'Olex2 (Dolomanov et al., 2009)'
_computing_structure_refinement  'ShelXL (Sheldrick, 2015)'
_computing_structure_solution    'ShelXT (Sheldrick, 2015)'
_diffrn_ambient_temperature      298.2
_diffrn_detector                 'CCD plate'
_diffrn_measured_fraction_theta_full 0.994
_diffrn_measured_fraction_theta_max 0.931
_diffrn_measurement_details
;
List of Runs (angles in degrees, time in seconds):

  # Type    Start    End  Width  t~exp~   \w     \q     \k     \f   Frames
--------------------------------------------------------------------------
  1  \w    -69.00 118.80   0.30   10.00    --   29.89  54.00 -60.00  626
  2  \w    -69.00 118.80   0.30   10.00    --   29.89  54.00-150.00  626
  3  \w    -69.00  36.00   0.30   10.00    --   29.89  54.00  90.00  350
;
_diffrn_measurement_device       'two-circle diffractometer'
_diffrn_measurement_device_type  'XtaLAB Mini (ROW)'
_diffrn_measurement_method       '\w scans'
_diffrn_orient_matrix_type
'CrysAlisPro convention (1999,Acta A55,543-557)'
_diffrn_orient_matrix_UB_11      0.0636378000
_diffrn_orient_matrix_UB_12      0.0189719000
_diffrn_orient_matrix_UB_13      0.0548511000
_diffrn_orient_matrix_UB_21      -0.0443523000
_diffrn_orient_matrix_UB_22      -0.0428028000
_diffrn_orient_matrix_UB_23      0.0413523000
_diffrn_orient_matrix_UB_31      0.0349197000
_diffrn_orient_matrix_UB_32      -0.0889965000
_diffrn_orient_matrix_UB_33      -0.0081874000
_diffrn_radiation_monochromator  graphite
_diffrn_radiation_probe          x-ray
_diffrn_radiation_type           MoK\a
_diffrn_radiation_wavelength     0.71073
_diffrn_reflns_av_R_equivalents  0.0295
_diffrn_reflns_av_unetI/netI     0.0310
_diffrn_reflns_Laue_measured_fraction_full 0.994
_diffrn_reflns_Laue_measured_fraction_max 0.931
_diffrn_reflns_limit_h_max       9
_diffrn_reflns_limit_h_min       -12
_diffrn_reflns_limit_k_max       10
_diffrn_reflns_limit_k_min       -10
_diffrn_reflns_limit_l_max       15
_diffrn_reflns_limit_l_min       -14
_diffrn_reflns_number            7656
_diffrn_reflns_point_group_measured_fraction_full 0.994
_diffrn_reflns_point_group_measured_fraction_max 0.931
_diffrn_reflns_theta_full        25.242
_diffrn_reflns_theta_max         32.800
_diffrn_reflns_theta_min         2.768
_diffrn_source                   'fine-focus sealed X-ray tube'
_diffrn_source_type              'Enhance (Mo) X-ray Source'
_exptl_absorpt_coefficient_mu    0.085
_exptl_absorpt_correction_T_max  1.00000
_exptl_absorpt_correction_T_min  0.99200
_exptl_absorpt_correction_type   multi-scan
_exptl_absorpt_process_details
;
CrysAlisPro 1.171.39.7f (Rigaku Oxford Diffraction, 2015)
Empirical absorption correction using spherical harmonics,
 implemented in SCALE3 ABSPACK scaling algorithm.
;
_exptl_crystal_colour            'clear light colourless'
_exptl_crystal_colour_lustre     clear
_exptl_crystal_colour_modifier   light
_exptl_crystal_colour_primary    colourless
_exptl_crystal_density_diffrn    1.298
_exptl_crystal_description       needle
_exptl_crystal_F_000             256
_exptl_crystal_size_max          0.3
_exptl_crystal_size_mid          0.2
_exptl_crystal_size_min          0.2
_refine_diff_density_max         0.524
_refine_diff_density_min         -0.309
_refine_diff_density_rms         0.059
_refine_ls_extinction_coef       0.012(11)
_refine_ls_extinction_expression Fc^*^=kFc[1+0.001xFc^2^\l^3^/sin(2\q)]^-1/4^
_refine_ls_extinction_method     'SHELXL-2014/7 (Sheldrick 2014'
_refine_ls_goodness_of_fit_ref   1.044
_refine_ls_hydrogen_treatment    constr
_refine_ls_matrix_type           full
_refine_ls_number_parameters     109
_refine_ls_number_reflns         2287
_refine_ls_number_restraints     0
_refine_ls_restrained_S_all      1.044
_refine_ls_R_factor_all          0.1123
_refine_ls_R_factor_gt           0.0708
_refine_ls_shift/su_max          0.735
_refine_ls_shift/su_mean         0.013
_refine_ls_structure_factor_coef Fsqd
_refine_ls_weighting_details
'w=1/[\s^2^(Fo^2^)+(0.1396P)^2^+0.0423P] where P=(Fo^2^+2Fc^2^)/3'
_refine_ls_weighting_scheme      calc
_refine_ls_wR_factor_gt          0.1991
_refine_ls_wR_factor_ref         0.2566
_reflns_Friedel_coverage         0.000
_reflns_number_gt                1259
_reflns_number_total             2287
_reflns_threshold_expression     'I > 2\s(I)'
_iucr_refine_instructions_details
;

    rmo-107-2.res created by SHELXL-2014/7

TITL rmo-107-2_a.res in P2(1)/m
REM Old TITL RMO-107-2 in P2(1)/m
REM SHELXT solution in P2(1)/m
REM R1 0.217, Rweak 0.007, Alpha 0.034, Orientation as input
REM Formula found by SHELXT: C15 N3
CELL 0.71073 8.572327 7.054134 10.542259 90 103.4245 90
ZERR 2 0.000533 0.000399 0.000519 0 0.0055 0
LATT 1
SYMM -X,0.5+Y,-Z
SFAC C H N
UNIT 24 28 12
 
L.S. 20
PLAN  20
TEMP 25.05
BOND $H
list 4
MORE -1
CONF
fmap 2
ACTA
OMIT 5 0 0
OMIT -5 1 2
OMIT -1 1 1
OMIT 2 0 3
OMIT 0 0 3
REM <olex2.extras>
REM <HklSrc "%.\\RMO-107-2.hkl">
REM </olex2.extras>
 
WGHT    0.139600    0.042300
EXTI    0.012485
FVAR       0.86776
N1    3    0.598790    0.250000    0.315372    10.50000    0.03810    0.07918 =
         0.04247    0.00000    0.01167    0.00000
AFIX  43
H1    2    0.701351    0.250000    0.343376    10.50000   -1.20000
AFIX   0
N2    3    0.641099    0.250000    0.099178    10.50000    0.04959    0.06108 =
         0.03870    0.00000    0.00814    0.00000
N3    3    0.545065    0.250000   -0.023176    10.50000    0.07116    0.07989 =
         0.04151    0.00000    0.00226    0.00000
N4    3    0.399945    0.250000   -0.010835    10.50000    0.06355    0.09523 =
         0.05205    0.00000   -0.00044    0.00000
N5    3    0.391544    0.250000    0.117526    10.50000    0.04641    0.08576 =
         0.05556    0.00000    0.00156    0.00000
N6    3    0.904838    0.250000    0.584210    10.50000    0.05571    0.10483 =
         0.07231    0.00000    0.00639    0.00000
C1    1    0.509787    0.250000    0.410786    10.50000    0.04500    0.04900 =
         0.05078    0.00000    0.01853    0.00000
C2    1    0.597058    0.250000    0.542098    10.50000    0.05406    0.04888 =
         0.04918    0.00000    0.01819    0.00000
C3    1    0.516178    0.250000    0.642638    10.50000    0.07960    0.06187 =
         0.05456    0.00000    0.03168    0.00000
AFIX  43
H3    2    0.574437    0.250000    0.728862    10.50000   -1.20000
AFIX   0
C4    1    0.352576    0.250000    0.616030    10.50000    0.08444    0.06311 =
         0.08523    0.00000    0.05656    0.00000
AFIX  43
H4    2    0.299114    0.250000    0.683360    10.50000   -1.20000
AFIX   0
C5    1    0.267618    0.250000    0.487379    10.50000    0.05712    0.06854 =
         0.10021    0.00000    0.04340    0.00000
AFIX  43
H5    2    0.156132    0.250000    0.468969    10.50000   -1.20000
AFIX   0
C6    1    0.344001    0.250000    0.385244    10.50000    0.04549    0.06687 =
         0.07194    0.00000    0.02075    0.00000
AFIX  43
H6    2    0.283979    0.250000    0.299559    10.50000   -1.20000
AFIX   0
C7    1    0.768111    0.250000    0.569183    10.50000    0.05736    0.06648 =
         0.04321    0.00000    0.00894    0.00000
C8    1    0.543098    0.250000    0.183419    10.50000    0.04645    0.05653 =
         0.04472    0.00000    0.01067    0.00000
C9    1    0.820887    0.250000    0.121950    10.50000    0.05148    0.06446 =
         0.04904    0.00000    0.01882    0.00000
C11   1    0.861816    0.250000   -0.011475    10.50000    0.07605    0.10693 =
         0.06186    0.00000    0.03505    0.00000
PART -1
AFIX 137
H11A  2    0.974827    0.270586   -0.000783    10.50000   -1.50000
H11B  2    0.803477    0.349385   -0.064212    10.50000   -1.50000
H11C  2    0.832880    0.130029   -0.053328    10.50000   -1.50000
AFIX   0
PART 0
C12   1    0.886996    0.428869    0.196088    11.00000    0.05541    0.06679 =
         0.07086   -0.00343    0.01987   -0.00690
AFIX 137
H12A  2    0.837881    0.538150    0.148919    11.00000   -1.50000
H12B  2    1.000961    0.434321    0.205185    11.00000   -1.50000
H12C  2    0.863827    0.426908    0.280904    11.00000   -1.50000
AFIX   0
HKLF 4
 
REM  rmo-107-2_a.res in P2(1)/m
REM R1 =  0.0708 for    1259 Fo > 4sig(Fo)  and  0.1123 for all    2287 data
REM    109 parameters refined using      0 restraints
 
END  
     
WGHT      0.1398      0.0414 

REM Highest difference peak  0.524,  deepest hole -0.309,  1-sigma level  0.059
Q1    1   0.3215  0.2500 -0.1592  10.50000  0.05    0.28
Q2    1   0.2419  0.2500 -0.0516  10.50000  0.05    0.26
Q3    1   0.6382  0.2500 -0.1204  10.50000  0.05    0.25
Q4    1   0.5741  0.2500  0.7647  10.50000  0.05    0.25
Q5    1   0.8435  0.2500  0.4591  10.50000  0.05    0.22
Q6    1   0.2607  0.2500  0.7119  10.50000  0.05    0.22
Q7    1   0.8103  0.2500 -0.1028  10.50000  0.05    0.21
Q8    1   0.3567  0.2500  0.1592  10.50000  0.05    0.20
Q9    1   0.3137  0.2500  0.0679  10.50000  0.05    0.20
Q10   1   0.4904  0.2500 -0.1359  10.50000  0.05    0.18
Q11   1   0.2795  0.2500  0.2652  10.50000  0.05    0.17
Q12   1   0.7824  0.2500  0.3443  10.50000  0.05    0.15
Q13   1   0.9858  0.4261  0.3241  11.00000  0.05    0.14
Q14   1   0.4368  0.2500  0.5178  10.50000  0.05    0.13
Q15   1   0.9008  0.0639 -0.0250  11.00000  0.05    0.13
Q16   1   1.0505  0.4182  0.2175  11.00000  0.05    0.13
Q17   1   0.4068  0.2500  0.7557  10.50000  0.05    0.13
Q18   1   0.8676  0.4370  0.4182  11.00000  0.05    0.12
Q19   1   1.1401  0.4311  0.1261  11.00000  0.05    0.12
Q20   1   0.8598  0.7500  0.1811  10.50000  0.05    0.12

  REM The information below was added by Olex2.
  REM
  REM R1 = 0.0708 for 1259 Fo > 4sig(Fo) and 0.1123 for all 7690 data
  REM n/a parameters refined using n/a restraints
  REM Highest difference peak 0.52, deepest hole -0.31
  REM Mean Shift 0.013, Max Shift -0.735.
  
  REM +++ Tabular Listing of Refinement Information +++
  REM R1_all = 0.1123
  REM R1_gt = 0.0708
  REM wR_ref = 0.2566
  REM GOOF = 1.044
  REM Shift_max = -0.735
  REM Shift_mean = 0.013
  REM Reflections_all = 7690
  REM Reflections_gt = 1259
  REM Parameters = n/a
  REM Hole = -0.31
  REM Peak = 0.52
  REM Flack = n/a
  
  
;
_cod_data_source_file            jo8b01261_si_002.cif
_cod_data_source_block           rmo-107-2
_cod_original_cell_volume        620.08(6)
_cod_database_code               4035291
_shelx_space_group_comment
;
The symmetry employed for this shelxl refinement is uniquely defined
by the following loop, which should always be used as a source of
symmetry information in preference to the above space-group names.
They are only intended as comments.
;
_reflns_odcompleteness_completeness 99.84
_reflns_odcompleteness_iscentric 1
_reflns_odcompleteness_theta     25.30
_olex2_refinement_description
;
1. Fixed Uiso
 At 1.2 times of:
  All C(H) groups, All N(H) groups
 At 1.5 times of:
  All C(H,H,H) groups
2. Others
 Fixed Sof: H11A(0.5) H11B(0.5) H11C(0.5)
3.a Aromatic/amide H refined with riding coordinates:
 N1(H1), C3(H3), C4(H4), C5(H5), C6(H6)
3.b Idealised Me refined as rotating group:
 C11(H11A,H11B,H11C), C12(H12A,H12B,H12C)
;
_shelx_shelxl_version_number     2014/7
_olex2_submission_special_instructions 'No special instructions were received'
_oxdiff_exptl_absorpt_empirical_details
;
Empirical correction (ABSPACK) includes:
- Absorption correction using spherical harmonics
- Frame scaling
;
_oxdiff_exptl_absorpt_empirical_full_max 1.062
_oxdiff_exptl_absorpt_empirical_full_min 0.951
loop_
_space_group_symop_operation_xyz
'x, y, z'
'-x, y+1/2, -z'
'-x, -y, -z'
'x, -y-1/2, z'
loop_
_atom_site_label
_atom_site_type_symbol
_atom_site_fract_x
_atom_site_fract_y
_atom_site_fract_z
_atom_site_U_iso_or_equiv
_atom_site_adp_type
_atom_site_occupancy
_atom_site_site_symmetry_order
_atom_site_calc_flag
_atom_site_refinement_flags_posn
_atom_site_refinement_flags_adp
_atom_site_refinement_flags_occupancy
_atom_site_disorder_assembly
_atom_site_disorder_group
N1 N 0.5988(2) 0.2500 0.31537(17) 0.0529(5) Uani 1 2 d S T P . .
H1 H 0.7014 0.2500 0.3434 0.063 Uiso 1 2 calc RS T P . .
N2 N 0.6411(2) 0.2500 0.09918(16) 0.0501(5) Uani 1 2 d S T P . .
N3 N 0.5451(3) 0.2500 -0.02318(18) 0.0660(6) Uani 1 2 d S T P . .
N4 N 0.3999(3) 0.2500 -0.0108(2) 0.0725(7) Uani 1 2 d S T P . .
N5 N 0.3915(3) 0.2500 0.1175(2) 0.0643(6) Uani 1 2 d S T P . .
N6 N 0.9048(3) 0.2500 0.5842(3) 0.0790(7) Uani 1 2 d S T P . .
C1 C 0.5098(3) 0.2500 0.4108(2) 0.0470(5) Uani 1 2 d S T P . .
C2 C 0.5971(3) 0.2500 0.5421(2) 0.0497(5) Uani 1 2 d S T P . .
C3 C 0.5162(4) 0.2500 0.6426(2) 0.0627(7) Uani 1 2 d S T P . .
H3 H 0.5744 0.2500 0.7289 0.075 Uiso 1 2 calc RS T P . .
C4 C 0.3526(4) 0.2500 0.6160(3) 0.0716(8) Uani 1 2 d S T P . .
H4 H 0.2991 0.2500 0.6834 0.086 Uiso 1 2 calc RS T P . .
C5 C 0.2676(4) 0.2500 0.4874(3) 0.0712(8) Uani 1 2 d S T P . .
H5 H 0.1561 0.2500 0.4690 0.085 Uiso 1 2 calc RS T P . .
C6 C 0.3440(3) 0.2500 0.3852(3) 0.0603(6) Uani 1 2 d S T P . .
H6 H 0.2840 0.2500 0.2996 0.072 Uiso 1 2 calc RS T P . .
C7 C 0.7681(3) 0.2500 0.5692(2) 0.0561(6) Uani 1 2 d S T P . .
C8 C 0.5431(3) 0.2500 0.1834(2) 0.0492(5) Uani 1 2 d S T P . .
C9 C 0.8209(3) 0.2500 0.1219(2) 0.0538(6) Uani 1 2 d S T P . .
C11 C 0.8618(4) 0.2500 -0.0115(3) 0.0785(8) Uani 1 2 d S T P . .
H11A H 0.9748 0.2706 -0.0008 0.118 Uiso 0.5 1 calc GR . . A -1
H11B H 0.8035 0.3494 -0.0642 0.118 Uiso 0.5 1 calc GR . . A -1
H11C H 0.8329 0.1300 -0.0533 0.118 Uiso 0.5 1 calc GR . . A -1
C12 C 0.8870(2) 0.4289(2) 0.19609(19) 0.0635(5) Uani 1 1 d . . . . .
H12A H 0.8379 0.5382 0.1489 0.095 Uiso 1 1 calc GR . . . .
H12B H 1.0010 0.4343 0.2052 0.095 Uiso 1 1 calc GR . . . .
H12C H 0.8638 0.4269 0.2809 0.095 Uiso 1 1 calc GR . . . .
loop_
_atom_site_aniso_label
_atom_site_aniso_U_11
_atom_site_aniso_U_22
_atom_site_aniso_U_33
_atom_site_aniso_U_23
_atom_site_aniso_U_13
_atom_site_aniso_U_12
N1 0.0381(10) 0.0792(12) 0.0425(9) 0.000 0.0117(7) 0.000
N2 0.0496(11) 0.0611(10) 0.0387(8) 0.000 0.0081(7) 0.000
N3 0.0712(16) 0.0799(14) 0.0415(10) 0.000 0.0023(9) 0.000
N4 0.0636(15) 0.0952(16) 0.0521(11) 0.000 -0.0004(10) 0.000
N5 0.0464(12) 0.0858(14) 0.0556(11) 0.000 0.0016(9) 0.000
N6 0.0557(15) 0.1048(18) 0.0723(15) 0.000 0.0064(11) 0.000
C1 0.0450(12) 0.0490(10) 0.0508(11) 0.000 0.0185(9) 0.000
C2 0.0541(13) 0.0489(10) 0.0492(11) 0.000 0.0182(9) 0.000
C3 0.0796(19) 0.0619(13) 0.0546(13) 0.000 0.0317(12) 0.000
C4 0.084(2) 0.0631(14) 0.0852(19) 0.000 0.0566(17) 0.000
C5 0.0571(16) 0.0685(14) 0.100(2) 0.000 0.0434(15) 0.000
C6 0.0455(13) 0.0669(13) 0.0719(16) 0.000 0.0208(11) 0.000
C7 0.0574(15) 0.0665(13) 0.0432(10) 0.000 0.0089(10) 0.000
C8 0.0465(12) 0.0565(11) 0.0447(10) 0.000 0.0107(8) 0.000
C9 0.0515(13) 0.0645(12) 0.0490(11) 0.000 0.0188(9) 0.000
C11 0.076(2) 0.107(2) 0.0619(15) 0.000 0.0350(14) 0.000
C12 0.0554(10) 0.0668(10) 0.0709(11) -0.0034(8) 0.0199(8) -0.0069(7)
loop_
_atom_type_symbol
_atom_type_description
_atom_type_scat_dispersion_real
_atom_type_scat_dispersion_imag
_atom_type_scat_source
C C 0.0033 0.0016 'International Tables Vol C Tables 4.2.6.8 and 6.1.1.4'
H H 0.0000 0.0000 'International Tables Vol C Tables 4.2.6.8 and 6.1.1.4'
N N 0.0061 0.0033 'International Tables Vol C Tables 4.2.6.8 and 6.1.1.4'
loop_
_geom_angle_atom_site_label_1
_geom_angle_atom_site_label_2
_geom_angle_atom_site_label_3
_geom_angle
_geom_angle_site_symmetry_1
_geom_angle_site_symmetry_3
C1 N1 H1 116.0 . .
C8 N1 H1 116.0 . .
C8 N1 C1 128.0(2) . .
N3 N2 C9 121.59(18) . .
C8 N2 N3 106.9(2) . .
C8 N2 C9 131.52(18) . .
N4 N3 N2 107.0(2) . .
N3 N4 N5 112.0(2) . .
C8 N5 N4 104.4(2) . .
N1 C1 C2 116.9(2) . .
C6 C1 N1 124.6(2) . .
C6 C1 C2 118.5(2) . .
C1 C2 C7 118.81(19) . .
C3 C2 C1 120.1(2) . .
C3 C2 C7 121.1(2) . .
C2 C3 H3 119.6 . .
C4 C3 C2 120.8(3) . .
C4 C3 H3 119.6 . .
C3 C4 H4 120.5 . .
C3 C4 C5 118.9(2) . .
C5 C4 H4 120.5 . .
C4 C5 H5 119.1 . .
C4 C5 C6 121.8(3) . .
C6 C5 H5 119.1 . .
C1 C6 C5 119.9(3) . .
C1 C6 H6 120.0 . .
C5 C6 H6 120.0 . .
N6 C7 C2 176.5(2) . .
N2 C8 N1 123.0(2) . .
N5 C8 N1 127.2(2) . .
N5 C8 N2 109.8(2) . .
N2 C9 C11 107.4(2) . .
N2 C9 C12 109.12(12) . .
N2 C9 C12 109.12(12) . 4_565
C12 C9 C11 109.58(13) . .
C12 C9 C11 109.58(13) 4_565 .
C12 C9 C12 111.9(2) . 4_565
C9 C11 H11A 109.7 . .
C9 C11 H11B 109.6 . .
C9 C11 H11C 109.6 . .
H11A C11 H11B 109.3 . .
H11A C11 H11C 109.3 . .
H11B C11 H11C 109.3 . .
C9 C12 H12A 109.5 . .
C9 C12 H12B 109.5 . .
C9 C12 H12C 109.5 . .
H12A C12 H12B 109.5 . .
H12A C12 H12C 109.5 . .
H12B C12 H12C 109.5 . .
loop_
_geom_bond_atom_site_label_1
_geom_bond_atom_site_label_2
_geom_bond_distance
_geom_bond_site_symmetry_2
N1 H1 0.8600 .
N1 C1 1.397(3) .
N1 C8 1.362(3) .
N2 N3 1.360(3) .
N2 C8 1.357(3) .
N2 C9 1.504(3) .
N3 N4 1.280(3) .
N4 N5 1.372(3) .
N5 C8 1.323(3) .
N6 C7 1.146(3) .
C1 C2 1.412(3) .
C1 C6 1.384(3) .
C2 C3 1.395(3) .
C2 C7 1.427(3) .
C3 H3 0.9300 .
C3 C4 1.365(4) .
C4 H4 0.9300 .
C4 C5 1.382(5) .
C5 H5 0.9300 .
C5 C6 1.384(3) .
C6 H6 0.9300 .
C9 C11 1.527(3) .
C9 C12 1.523(2) .
C9 C12 1.523(2) 4_565
C11 H11A 0.9618 .
C11 H11B 0.9618 .
C11 H11C 0.9618 .
C12 H12A 0.9600 .
C12 H12B 0.9600 .
C12 H12C 0.9600 .
loop_
_geom_torsion_atom_site_label_1
_geom_torsion_atom_site_label_2
_geom_torsion_atom_site_label_3
_geom_torsion_atom_site_label_4
_geom_torsion
_geom_torsion_site_symmetry_4
N1 C1 C2 C3 180.000(1) .
N1 C1 C2 C7 0.000(1) .
N1 C1 C6 C5 180.000(1) .
N2 N3 N4 N5 0.000(0) .
N3 N2 C8 N1 180.000(0) .
N3 N2 C8 N5 0.000(0) .
N3 N2 C9 C11 0.000(0) .
N3 N2 C9 C12 118.71(12) .
N3 N2 C9 C12 -118.71(12) 4_565
N3 N4 N5 C8 0.0 .
N4 N5 C8 N1 180.000(0) .
N4 N5 C8 N2 0.000(0) .
C1 N1 C8 N2 180.000(0) .
C1 N1 C8 N5 0.000(0) .
C1 C2 C3 C4 0.000(1) .
C2 C1 C6 C5 0.000(1) .
C2 C3 C4 C5 0.000(1) .
C3 C4 C5 C6 0.000(1) .
C4 C5 C6 C1 0.000(1) .
C6 C1 C2 C3 0.000(1) .
C6 C1 C2 C7 180.000(1) .
C7 C2 C3 C4 180.000(1) .
C8 N1 C1 C2 180.000(0) .
C8 N1 C1 C6 0.000(1) .
C8 N2 N3 N4 0.0 .
C8 N2 C9 C11 180.000(0) .
C8 N2 C9 C12 61.29(12) 4_565
C8 N2 C9 C12 -61.29(12) .
C9 N2 N3 N4 180.0 .
C9 N2 C8 N1 0.000(0) .
C9 N2 C8 N5 180.000(0) .
loop_
_refln_index_h
_refln_index_k
_refln_index_l
_refln_F_squared_meas
_refln_F_squared_sigma
0 0 -2 1034.19 16.39
0 0 2 1007.33 16.69
0 0 -2 1046.77 16.42
0 0 -3 15.12 0.86
0 0 3 15.85 1.01
0 0 -3 14.14 0.85
0 0 4 158.63 4.33
0 0 -4 166.91 3.94
0 0 -4 165.38 3.91
0 0 4 158 3.87
0 0 5 347.06 7.86
0 0 -5 339.5 7.17
0 0 5 329.5 7.07
0 0 -5 358.87 7.18
0 0 -6 38.72 1.9
0 0 6 36.2 2.17
0 0 6 33.26 1.78
0 0 -6 34.8 1.84
0 0 7 78.67 3.62
0 0 -7 81.73 3.17
0 0 7 79.67 3.11
0 0 -8 2.12 0.53
0 0 8 2.29 0.62
0 0 8 2.36 0.57
0 0 9 54.96 2.88
0 0 -9 58.19 3
0 0 9 61.07 3.63
0 0 10 59.61 3.15
0 0 -10 60.11 3.18
0 0 10 61.57 3.9
0 0 11 6.67 1.32
0 0 11 4.49 0.94
0 0 -11 2.5 0.72
0 0 12 -0.02 0.34
0 0 13 3.25 1.17
0 0 14 0.27 0.39
0 0 15 0.17 0.52
0 -1 0 2.89 0.31
0 -1 0 2.34 0.26
0 1 0 3.75 0.31
0 1 0 1.57 0.22
0 -1 0 3.23 0.28
0 -1 1 854.15 13.77
0 -1 1 813.42 13.18
0 -1 -1 844.23 13.77
0 1 -1 777.43 13.14
0 1 1 839.65 13.78
0 1 -1 848.59 13.79
0 -1 2 1424.04 22.65
0 1 -2 1508.89 23.72
0 1 2 1488.07 23.62
0 1 -2 1427.07 22.68
0 -1 -2 1420.31 23.7
0 -1 2 1471.64 23.66
0 -1 -3 83.97 2.63
0 -1 -3 86.8 1.89
0 1 3 82.67 2.68
0 -1 3 88.15 2.74
0 1 -3 86.55 2.71
0 -1 3 84.51 2.01
0 1 -4 3.68 0.56
0 -1 4 3.34 0.37
0 1 4 3.93 0.57
0 -1 4 4.83 0.66
0 -1 -4 3.45 0.35
0 -1 -4 2.65 0.48
0 -1 -5 449.18 8.2
0 -1 5 448.45 8.34
0 -1 -5 453.99 9.43
0 1 -5 430.09 9.37
0 1 5 444.18 9.55
0 -1 5 460.08 9.68
0 -1 -6 149.91 3.83
0 -1 6 150.64 3.92
0 1 -6 148.73 4.68
0 1 6 148.89 4.96
0 -1 6 155.1 4.99
0 -1 -6 150.28 4.64
0 -1 7 62.57 2.44
0 -1 7 59.73 3.18
0 -1 -7 64.54 2.97
0 1 -7 61.26 2.94
0 -1 -7 60.8 2.36
0 1 7 62.49 3.25
0 -1 -8 42.87 2.1
0 1 8 41.43 2.79
0 -1 8 38.72 2.71
0 1 8 41.68 2.51
0 -1 8 42.83 2.12
0 -1 -8 48.27 2.67
0 1 -8 44.14 2.63
0 1 -9 66.12 3.47
0 -1 -9 67.3 2.87
0 1 9 67.71 3.84
0 1 9 63.48 3.38
0 -1 9 65.17 3.79
0 -1 -9 69.88 3.52
0 -1 9 71.58 3
0 1 10 1.38 0.53
0 -1 10 1.08 0.39
0 1 10 1.53 0.57
0 -1 10 2.12 0.79
0 1 -10 1.43 0.53
0 -1 -10 1.58 0.42
0 1 11 5.44 1.04
0 1 11 7.96 1.47
0 1 -11 4.77 1.06
0 -1 11 6.92 1.41
0 -1 12 4.49 1.25
0 1 12 3.89 1.02
0 1 12 4.12 1.1
0 1 -12 4.47 1.05
0 -1 13 0.37 0.52
0 1 13 0.07 0.39
0 -1 14 5.14 1.42
0 1 14 4.39 1.33
0 1 15 5.1 1.53
0 -1 15 5.83 1.58
0 -2 0 9526.96 155.05
0 2 0 9999 154.96
0 -2 1 144.5 3.19
0 2 1 137.72 2.96
0 -2 -1 141.62 3.64
0 2 1 138.4 3.69
0 2 -1 139.37 3.56
0 -2 -1 138.33 3.63
0 -2 1 142.43 3.7
0 -2 2 1817.45 28.51
0 2 2 1800.97 28.05
0 2 2 1831.54 29.72
0 -2 2 1858.51 29.82
0 -2 -2 1833.26 29.76
0 2 -2 1845.74 29.79
0 -2 3 340.9 7.42
0 2 3 349.05 7.41
0 -2 -3 342.97 7.63
0 -2 3 334.18 6.07
0 2 -3 340.77 7.54
0 2 -4 181.28 5.2
0 -2 4 184.49 5.1
0 -2 -4 189.88 5.18
0 -2 4 178.39 3.74
0 2 4 183.96 5.06
0 2 5 18.32 1.52
0 2 -5 20.23 1.61
0 -2 5 18.02 0.94
0 -2 -5 19.98 1.57
0 -2 5 20.28 1.62
0 -2 -6 0.4 0.25
0 -2 -6 0.37 0.15
0 2 -6 0.53 0.29
0 -2 6 0.42 0.35
0 -2 6 0.39 0.18
0 2 6 0.52 0.33
0 2 7 122.75 4.72
0 -2 7 116.69 4.68
0 2 -7 111.3 4.5
0 -2 7 107.51 3.13
0 -2 -7 105.75 2.9
0 -2 -7 119.45 4.62
0 2 8 37.33 2.69
0 -2 8 33.81 2.57
0 -2 -8 34.62 2.49
0 2 -8 32.59 2.43
0 -2 8 30.27 1.6
0 2 -9 40.84 2.9
0 -2 -9 44.8 2.95
0 -2 9 44.39 3.15
0 2 9 39.27 3
0 2 -10 17.25 1.94
0 2 10 19.15 2.25
0 -2 10 18.85 2.17
0 -2 -10 17.7 1.94
0 2 10 16.98 1.87
0 2 -11 1.58 0.63
0 2 11 0.44 0.31
0 2 11 0.81 0.46
0 -2 11 0.93 0.67
0 2 -12 0.09 0.33
0 -2 12 0.5 0.34
0 2 12 0.17 0.4
0 2 12 0.06 0.22
0 2 13 0.37 0.43
0 -2 13 0.55 0.62
0 2 -13 -0.25 0.62
0 -2 14 0.75 0.41
0 2 14 2.52 1.09
0 -2 15 0.89 0.62
0 2 15 0.41 0.58
0 -3 0 0.06 0.17
0 3 0 0.11 0.1
0 -3 0 0.23 0.19
0 -3 -1 2.97 0.58
0 3 -1 2.52 0.47
0 -3 1 2.83 0.45
0 -3 1 3.24 0.54
0 -3 -1 2.36 0.46
0 3 1 3.19 0.41
0 -3 2 283.44 6.81
0 3 -2 273.28 6.67
0 3 2 275.13 5.3
0 3 2 269.28 6.8
0 -3 2 282.39 5.77
0 -3 -2 276.14 6.78
0 -3 3 15.45 1.34
0 3 3 13.82 0.66
0 -3 -3 15.24 1.42
0 3 3 15.34 1.34
0 -3 3 16.53 0.96
0 3 -3 16.82 1.41
0 3 4 92.19 3.69
0 -3 4 101.43 3.92
0 -3 -4 97.89 4.02
0 3 -4 99.71 3.87
0 -3 4 98.5 2.63
0 3 5 146.44 4.92
0 -3 -5 146.3 5.03
0 3 -5 152.55 5.14
0 -3 5 149.58 5.01
0 3 -6 146.47 5.46
0 -3 6 149.07 5.41
0 -3 6 138.29 3.42
0 -3 -6 156.36 5.49
0 3 6 156.07 5.37
0 -3 -7 78.11 3.98
0 3 7 77.95 3.88
0 3 -7 84.83 4.09
0 -3 7 73.05 3.87
0 3 8 7.39 1.22
0 -3 8 6.78 1.24
0 -3 -8 5.9 1.2
0 3 -8 8.22 1.29
0 -3 -9 13.94 1.8
0 -3 9 15.03 1.91
0 3 9 15.34 1.92
0 3 -9 12.11 1.66
0 3 -10 0.42 0.2
0 -3 10 0.32 0.53
0 -3 -10 0.48 0.44
0 3 10 0.09 0.23
0 -3 -11 0.61 0.42
0 3 -11 -0.42 0.29
0 3 11 0.9 0.47
0 3 11 1.44 0.72
0 -3 11 0.12 0.37
0 -3 12 5.32 1.43
0 3 12 4.78 1.29
0 3 -12 5.59 1.34
0 3 12 6.58 1.38
0 -3 -12 5.23 1.22
0 3 -13 0.86 0.73
0 -3 13 1.68 0.93
0 3 13 2.39 1.04
0 -3 14 2.09 1.12
0 3 14 -0.04 0.41
0 -4 0 3030.64 49.94
0 4 0 3041.87 48.98
0 -4 0 3071.1 49.29
0 -4 1 23.12 1.75
0 4 -1 23.28 1.64
0 -4 -1 19.81 1.61
0 -4 1 23.27 1.54
0 -4 -1 22.68 1.66
0 4 1 24.85 1.43
0 -4 2 295.47 7.61
0 4 2 284.82 5.99
0 4 2 270.77 7.48
0 -4 2 282.26 6.44
0 4 -2 286.86 7.32
0 -4 -2 283.15 7.37
0 4 -3 18.34 1.62
0 4 3 18.19 0.96
0 -4 3 21.19 1.29
0 4 3 21.35 1.79
0 -4 -3 21.14 1.78
0 -4 3 18.09 1.67
0 -4 4 67.76 3.4
0 -4 4 55.16 2.18
0 4 4 65.15 3.27
0 4 -4 67.73 3.4
0 -4 -4 63 3.39
0 4 -5 14.43 1.63
0 -4 -5 14.62 1.62
0 -4 5 14.92 1.64
0 4 5 12.82 1.48
0 -4 5 15.04 1
0 4 6 1.44 0.55
0 -4 -6 -0.08 0.18
0 4 -6 0.31 0.22
0 -4 6 1.06 0.52
0 4 7 30.81 2.55
0 -4 -7 30.39 2.61
0 4 -7 30.12 2.63
0 -4 7 31.17 2.6
0 4 -8 6.79 1.32
0 -4 8 7.21 1.3
0 4 8 8.42 1.42
0 -4 -8 7.82 1.48
0 -4 -9 16.35 2.12
0 4 -9 14.2 1.93
0 4 9 15.39 1.95
0 -4 9 15.9 2.03
0 4 10 10.34 1.78
0 -4 -10 11.3 1.86
0 4 -10 10.18 1.68
0 -4 10 9.59 1.65
0 4 11 1.1 0.63
0 4 -11 1.86 0.87
0 -4 -11 0.75 0.59
0 -4 11 0.67 0.47
0 4 12 0.35 0.33
0 -4 12 -0.98 0.82
0 4 -12 0.39 0.33
0 -4 -12 0.45 0.6
0 4 12 -0.67 0.63
0 4 13 -1.46 1.08
0 -4 13 1.23 0.99
0 4 -13 0.09 0.73
0 -4 -13 0.72 0.66
0 -4 14 0.96 0.76
0 4 14 0.7 0.62
0 5 0 0.09 0.28
0 -5 0 -0.08 0.18
0 -5 0 -0.14 0.26
0 -5 1 78.66 3.31
0 -5 -1 76.77 3.7
0 5 -1 72.19 3.36
0 -5 -1 78.15 3.59
0 5 1 79.03 3.05
0 -5 1 78.78 3.77
0 -5 -2 127.75 4.91
0 5 2 124.89 3.78
0 5 2 125.96 5.04
0 -5 2 126.97 5.09
0 -5 -2 123.94 4.94
0 -5 2 124.96 4.18
0 5 -2 125.93 4.77
0 5 3 2.44 0.68
0 -5 3 2.89 0.79
0 5 -3 3.17 0.79
0 -5 -3 2.92 0.77
0 -5 3 2.61 0.53
0 5 3 1.68 0.33
0 5 -4 -0.01 0.34
0 -5 4 0.28 0.13
0 -5 4 0.01 0.18
0 -5 -4 -0.14 0.3
0 5 5 30.23 2.5
0 -5 5 27.77 2.46
0 5 -5 29.89 2.49
0 -5 5 26.54 1.57
0 -5 -5 26.55 2.48
0 5 -6 4.95 1.05
0 5 6 4.39 0.98
0 -5 6 5.77 1.14
0 -5 -6 4.89 1.13
0 5 -7 7.92 1.39
0 -5 7 6.78 1.34
0 -5 -7 5.3 1.22
0 5 7 6.61 1.25
0 -5 8 5.09 1.2
0 -5 -8 5.01 1.22
0 5 -8 3.89 1.12
0 5 8 5.18 1.1
0 -5 9 25.07 2.73
0 -5 -9 24.21 2.73
0 5 9 22.98 2.58
0 5 -9 23.86 2.67
0 -5 10 0.03 0.5
0 5 10 0.78 0.43
0 5 -10 0.21 0.28
0 -5 -10 1.03 0.84
0 -5 11 3.34 1.15
0 5 -11 1.51 0.75
0 -5 -11 4.09 1.32
0 5 11 1.88 1.05
0 5 12 -0.21 0.52
0 5 12 -0.53 0.48
0 5 -12 1.44 0.75
0 -5 12 -0.3 0.49
0 -5 -12 1.15 0.9
0 -5 13 0.6 0.41
0 5 -13 0.89 0.88
0 5 13 0.79 0.38
0 6 0 725.39 15
0 -6 0 734.86 15.51
0 -6 0 731.21 16.36
0 -6 1 2.87 0.64
0 6 1 4.05 1.02
0 6 -1 3.81 0.8
0 -6 1 1.67 0.28
0 -6 -1 3.26 0.78
0 6 1 3.57 0.71
0 -6 -1 1.02 0.35
0 -6 -2 16.96 1.87
0 6 2 14.52 1.28
0 -6 -2 15.87 1.84
0 -6 2 12.03 1.68
0 -6 2 12.78 1.41
0 6 -2 15.53 1.7
0 6 2 15.36 1.86
0 6 3 1.03 0.33
0 6 3 0.19 0.22
0 -6 3 0.03 0.23
0 -6 -3 0.04 0.4
0 -6 3 0.17 0.25
0 6 -3 0.38 0.32
0 -6 -4 12.29 1.75
0 -6 4 10.66 1.15
0 6 -4 12.16 1.63
0 6 4 10.79 1.56
0 -6 4 13.04 1.79
0 6 -5 15.12 1.95
0 -6 -5 11.76 1.83
0 -6 5 14.41 1.94
0 6 5 13.3 1.82
0 -6 6 0.53 0.54
0 6 6 0.04 0.28
0 6 -6 0.15 0.38
0 -6 -6 0.19 0.27
0 -6 -7 0.34 0.25
0 6 -7 0.97 0.56
0 -6 7 0.19 0.24
0 6 7 1 0.61
0 6 8 0.31 0.32
0 -6 8 -0.41 0.58
0 -6 -8 0.61 0.53
0 6 -8 0.36 0.31
0 -6 9 4.35 1.34
0 6 -9 5.81 1.52
0 6 9 2.74 1.02
0 -6 -9 3.8 1.26
0 6 -10 6.71 1.59
0 6 10 6.4 1.56
0 -6 -10 5.39 1.57
0 -6 10 6.76 1.51
0 6 11 0.41 0.43
0 -6 -11 -0.27 0.6
0 6 -11 -0.45 0.5
0 -6 11 0.95 0.57
0 6 12 0.94 0.67
0 -6 -12 -0.19 0.72
0 -6 12 -0.32 0.59
0 6 -12 -0.21 0.47
0 6 12 -0.61 0.76
0 -7 0 0.07 0.18
0 7 0 -0.14 0.21
0 -7 0 0.18 0.33
0 7 -1 4.47 0.98
0 7 1 5.35 0.95
0 -7 1 5.38 1.08
0 -7 -1 4.31 1.02
0 7 1 4.7 1.17
0 -7 -1 5.42 1.11
0 -7 1 3.75 0.97
0 7 -2 15.9 1.83
0 7 2 12.77 1.94
0 -7 -2 14.6 1.98
0 -7 2 13.27 1.86
0 7 2 13.75 1.41
0 -7 2 15.25 1.67
0 -7 3 0.51 0.41
0 -7 3 -0.12 0.29
0 7 3 0.04 0.37
0 7 -3 0.28 0.35
0 -7 -3 0.18 0.33
0 7 4 0.23 0.37
0 -7 4 0.78 0.65
0 -7 -4 0.19 0.22
0 7 -4 0.39 0.39
0 7 -5 2.37 0.79
0 7 5 4.36 1.17
0 -7 5 2.86 0.94
0 -7 -5 4.1 1.14
0 7 6 1.15 0.43
0 7 -6 2 0.75
0 -7 6 2.26 0.9
0 -7 -6 1.6 0.78
0 7 7 2.69 1.06
0 -7 7 4.04 1.19
0 7 -7 4.45 1.29
0 -7 -7 2.58 1.01
0 -7 -8 0.62 0.44
0 7 -8 0.39 0.6
0 -7 8 0.47 0.42
0 7 8 0.22 0.33
0 -7 -9 4.91 1.44
0 -7 9 2.97 1.01
0 7 -9 4.99 1.4
0 7 9 1.92 0.78
0 7 10 -0.25 0.38
0 -7 10 -0.21 0.44
0 -7 -10 -0.16 0.5
0 7 -10 -0.32 0.54
0 -7 -11 0.48 0.86
0 -7 11 1.32 0.93
0 7 -11 -0.02 0.4
0 7 11 0.31 0.38
0 -8 0 70.1 4.27
0 -8 0 66.08 4.53
0 8 0 63.8 3.77
0 -8 -1 1.69 0.7
0 8 1 2.93 0.88
0 -8 -1 2.99 1.01
0 -8 1 3.66 1.14
0 8 -1 2.24 0.69
0 -8 1 2.19 0.7
0 -8 -2 11.16 1.78
0 8 2 9.93 1.75
0 8 -2 10.43 1.59
0 -8 2 10.33 1.92
0 -8 2 8.99 1.41
0 8 3 0.95 0.48
0 -8 3 0.64 0.51
0 8 -3 1.31 0.69
0 -8 -3 0.64 0.56
0 8 -4 4.6 1.2
0 -8 -4 3.63 1.17
0 -8 4 4.64 1.32
0 8 4 5.65 1.36
0 8 -5 0.06 0.33
0 -8 5 -0.44 0.65
0 8 5 -0.08 0.33
0 -8 -5 1.1 0.85
0 -8 6 0.62 0.69
0 8 6 -0.12 0.5
0 8 -6 0.22 0.29
0 -8 -6 0.77 0.67
0 8 7 0.7 0.72
0 8 -7 2.16 0.88
0 -8 -7 0.54 0.82
0 -8 7 0.91 0.76
0 -8 -8 0.02 0.41
0 8 -8 0.02 0.5
0 8 8 1.54 0.83
0 -8 8 1.75 1.02
0 -8 9 0.5 0.51
0 8 -9 0.17 0.41
0 -8 -9 2.09 1.14
0 8 9 -0.02 0.82
0 -8 -10 0.3 0.46
0 -8 10 1.11 1.25
0 8 -10 1.82 0.93
0 8 10 0.28 0.8
0 -9 0 -0.14 0.41
0 9 0 -0.32 0.41
0 -9 0 0.29 0.44
0 -9 -1 0.85 0.79
0 9 1 0.61 0.73
0 -9 1 -0.27 0.42
0 9 2 0.02 0.55
0 -9 -2 0.03 0.45
0 9 -2 0.71 0.61
0 -9 2 1.07 0.58
0 9 -3 -0.64 0.46
0 -9 -3 -0.39 0.32
0 -9 3 0.2 0.43
0 -9 4 0.19 0.51
0 -9 -4 1.61 0.91
0 9 4 0.39 0.45
0 9 -4 0.54 0.31
0 -9 -5 1.31 1
0 9 -5 0.85 0.64
0 9 5 0.31 0.64
0 -9 5 1.38 0.94
0 9 -6 1.81 1.08
0 -9 6 0.46 0.38
0 9 6 0.24 0.36
0 -9 -6 0.31 0.61
0 -9 -7 0.15 0.41
0 -9 7 0.35 0.59
0 9 7 0.39 0.4
0 -9 8 0.19 0.83
0 9 8 -0.49 0.51
0 -9 -8 -0.53 0.92
0 9 -8 -0.17 0.56
0 -10 0 10.59 2.1
0 10 0 12.98 2.39
0 10 -1 -0.37 0.51
0 10 1 0.11 0.83
0 -10 1 0.94 0.63
0 -10 2 0.38 0.57
0 10 2 1.34 0.75
0 10 3 -0.9 0.86
0 -10 3 -0.87 0.79
0 10 4 1.01 0.62
0 -10 4 0.22 0.54
0 -10 5 -0.99 0.95
0 10 5 -0.22 0.47
-1 0 15 0.81 0.39
-1 0 14 6.86 1.57
-1 0 13 1.19 0.69
-1 0 12 0.53 0.31
1 0 -12 0.6 0.49
-1 0 12 -0.19 0.36
-1 0 11 13.56 1.6
-1 0 11 13.68 1.86
1 0 -11 10.56 1.38
1 0 -10 0.28 0.34
-1 0 10 -0.19 0.24
-1 0 10 0.14 0.22
-1 0 9 2.16 0.67
1 0 -9 2.3 0.55
-1 0 9 2.22 0.5
-1 0 8 0.06 0.14
1 0 -8 0.22 0.21
-1 0 8 0.62 0.36
-1 0 7 0.38 0.24
-1 0 7 0.19 0.11
1 0 -7 0.1 0.2
-1 0 6 51.48 2.55
1 0 -6 52.64 2.31
-1 0 6 50.79 2.38
-1 0 5 435.03 8.87
-1 0 5 442.71 9.18
1 0 -5 446.18 8.8
1 0 -4 2.58 0.42
-1 0 4 2.49 0.4
-1 0 4 2.48 0.43
1 0 -3 23.06 1.11
-1 0 3 21.54 1.11
-1 0 3 22.35 1.12
-1 0 2 1793.46 27.64
1 0 -2 1845.46 27.89
1 0 -1 129.28 2.58
-1 0 1 113.03 2.53
1 0 1 505.19 8.38
-1 0 -1 499.32 8.13
1 0 1 490 8.13
-1 0 -2 47.9 1.41
1 0 2 49.12 1.72
-1 0 -2 50.05 1.55
1 0 3 1478.55 24.23
-1 0 -3 1446.36 23.57
-1 0 -3 1379.71 23.36
-1 0 -4 356.59 7.29
-1 0 -4 376.73 7.11
1 0 4 361.9 7.97
1 0 5 112.35 3.94
-1 0 -5 110.12 3.37
-1 0 -5 113.15 3.26
-1 0 -6 6.7 0.81
-1 0 -6 8.79 0.88
1 0 6 7.32 1.01
-1 0 -7 4.25 0.64
-1 0 -7 3.82 0.67
1 0 7 4.01 0.64
1 0 7 4.44 0.89
-1 0 -8 45.63 2.47
-1 0 -8 42.8 2.28
1 0 8 46.2 3
1 0 8 40.76 2.25
-1 0 -9 24.51 1.92
1 0 9 26.44 1.9
1 0 9 25.19 2.35
1 0 10 4.05 1.06
1 0 10 2.52 0.66
-1 0 -10 1.76 0.54
-1 0 -11 0.33 0.26
1 0 11 0.39 0.59
1 0 12 0.42 0.32
1 0 13 -0.68 0.56
1 0 14 1.72 0.91
1 0 15 0.6 0.75
-1 -1 15 0.27 0.65
-1 1 15 0.04 0.46
-1 1 14 -0.04 0.41
-1 -1 14 0.37 0.34
-1 1 13 9.81 1.75
-1 -1 13 11.16 1.86
-1 1 12 3.62 1.01
1 1 -12 1.54 0.59
-1 -1 12 4.3 1.12
-1 1 12 4.57 0.98
-1 1 11 1.3 0.54
-1 -1 11 3.97 1.02
-1 -1 11 2 0.54
1 1 -11 0.52 0.29
-1 1 11 1.98 0.68
1 -1 -10 1.04 0.41
-1 1 10 1.34 0.55
-1 1 10 0.07 0.23
1 1 -10 0.68 0.5
-1 -1 10 0.83 0.48
-1 -1 10 1.33 0.63
-1 -1 9 294.08 8.76
1 1 -9 304.01 8.36
1 -1 -9 306.53 7.44
-1 1 9 294.16 8.71
-1 -1 9 302.33 7.63
-1 1 9 296.22 8.32
1 1 -8 95.16 4
-1 1 8 99.88 4.31
-1 1 8 94.67 3.97
1 -1 -8 87.67 3.29
-1 -1 8 97.93 4.32
-1 -1 8 95.84 3.56
-1 1 7 175.27 5.57
1 1 -7 171.13 5.36
-1 -1 7 172 5.56
-1 -1 7 173.91 4.84
-1 1 7 172.52 5.43
1 -1 -7 170.39 4.6
1 -1 -7 179.34 5.5
-1 1 6 10.61 1.11
1 1 -6 10.54 1.11
1 -1 -6 10.97 1.14
-1 -1 6 10.74 0.96
-1 1 6 9.29 1.06
-1 -1 6 10.91 1.18
1 -1 -6 11.75 0.93
1 -1 -5 13.52 0.91
-1 1 5 13.74 1.17
-1 -1 5 13.1 1.16
1 -1 -5 14.53 1.21
1 1 -5 13.29 1.16
-1 -1 5 13.16 0.99
-1 1 5 12.72 1.17
-1 1 4 6.5 0.71
1 -1 -4 5 0.64
1 -1 -4 5.22 0.5
-1 -1 4 5.48 0.65
1 1 -4 4.52 0.64
-1 -1 4 5.9 0.59
1 -1 -3 192.47 3.93
-1 -1 3 185.98 4.08
-1 -1 3 185.46 4.41
-1 1 3 186.08 4.28
1 1 -3 190.4 4.54
1 -1 -3 195.23 4.61
-1 -1 2 1.27 0.24
-1 -1 2 1.4 0.28
1 1 -2 1.49 0.28
1 -1 -2 1.92 0.33
-1 1 2 1.39 0.23
1 -1 -1 0.11 0.1
-1 -1 1 0.22 0.09
-1 -1 1 0.22 0.14
-1 1 1 0.15 0.04
1 -1 -1 0.14 0.08
1 1 -1 0.15 0.09
1 1 0 562.84 9.19
-1 -1 0 574.16 9.49
-1 1 0 549.52 9.18
1 -1 0 558.65 9.3
1 -1 0 559.61 9.19
-1 -1 0 562.3 9.6
-1 1 0 563.57 9.18
-1 -1 -1 589.91 10.33
1 1 1 595.04 10.27
1 -1 1 606.45 10.14
-1 -1 -1 591.55 9.41
1 1 2 0.14 0.13
1 -1 2 0.16 0.06
-1 -1 -2 -0.01 0.1
-1 1 -2 0.01 0.08
-1 -1 -3 53.59 1.43
-1 -1 -3 55.56 2.18
1 -1 3 58.48 2.28
-1 1 -3 56 2.18
1 -1 3 52.23 1.23
1 1 3 60.81 2.29
1 1 4 34.55 1.89
-1 1 -4 32.96 1.79
1 -1 4 34.08 1.88
-1 -1 -4 33.93 1.76
-1 -1 -4 33.92 1.25
1 -1 4 33.7 1.12
-1 1 -5 34.51 1.96
1 1 5 38.15 2.2
1 -1 5 34.94 1.34
-1 -1 -5 36.25 1.47
1 -1 5 37.93 2.19
-1 -1 -5 34.37 1.92
-1 1 -6 113.42 4.06
-1 -1 -6 114.51 3.24
1 -1 6 116.78 4.38
-1 -1 -6 119.78 4.01
1 1 6 117.76 4.47
1 -1 6 119.12 3.14
-1 1 -7 2.04 0.56
1 -1 7 2.54 0.73
1 1 7 1.61 0.51
-1 -1 -7 1.83 0.5
-1 -1 -7 1.82 0.39
1 -1 7 1.59 0.34
1 -1 8 24.37 2.18
1 -1 8 23.31 1.44
-1 -1 -8 24.62 1.9
-1 1 -8 25.78 2.01
-1 -1 -8 24.37 1.58
1 1 8 26.41 2.25
-1 -1 -9 9.94 1.07
1 1 9 10.37 1.33
-1 1 -9 8.78 1.22
-1 -1 -9 12.13 1.36
1 -1 9 11.67 1.58
1 1 9 11.2 1.56
1 1 10 1.05 0.48
-1 -1 -10 0.98 0.42
1 1 10 1.21 0.76
-1 1 -10 0.24 0.28
1 -1 10 0.68 0.46
1 1 11 0.22 0.43
-1 1 -11 -0.23 0.19
1 1 11 -0.11 0.26
1 -1 11 0.06 0.46
1 1 12 0.36 0.6
1 -1 12 0.13 0.41
1 1 13 0.38 0.36
1 -1 13 0.31 0.34
1 1 14 1.98 0.77
1 -1 14 1.44 0.83
1 1 15 0.31 0.79
1 -1 15 1.83 1.04
-1 2 15 0.29 0.56
-1 -2 15 1.25 0.54
-1 -2 14 3.36 1.25
-1 2 14 -0.07 0.54
-1 2 13 0.03 0.35
-1 -2 13 0.84 0.62
1 2 -13 0.13 0.26
-1 2 13 0.5 0.48
1 2 -12 2.11 0.86
-1 2 12 0.98 0.5
-1 2 12 1.23 0.55
-1 -2 12 1.86 0.78
-1 2 11 11.74 1.74
-1 -2 11 11.12 1.75
-1 2 11 8.49 1.43
1 2 -11 7.24 1.39
-1 2 10 6.85 1.29
1 2 -10 7.37 1.28
-1 2 10 7.78 1.38
-1 -2 10 8.45 1.46
-1 -2 9 0.29 0.22
-1 2 9 -0.21 0.34
-1 2 9 -0.19 0.45
1 2 -9 0.67 0.44
1 -2 -9 0.49 0.27
-1 -2 9 0.2 0.25
-1 2 8 3.21 0.76
1 2 -8 4.25 0.94
-1 -2 8 3.98 0.64
-1 -2 8 4.02 0.86
-1 2 8 4.35 0.88
1 -2 -8 4.45 0.89
1 -2 -8 4.86 0.63
1 2 -7 29 2.15
-1 2 7 29.74 2.16
-1 -2 7 26.78 2.08
1 -2 -7 31.7 2.2
-1 -2 7 30.18 1.68
1 -2 -7 27.31 1.45
1 -2 -6 32.68 2.18
1 2 -6 34.52 2.21
-1 -2 6 32.56 1.65
-1 2 6 31.9 2.07
-1 -2 6 32.79 2.14
1 2 -5 22.3 1.67
1 -2 -5 21.96 1.73
-1 2 5 20.79 1.54
-1 -2 5 23.78 1.67
-1 -2 5 21.89 1.25
-1 2 4 117.7 3.66
-1 -2 4 114.72 3.75
-1 -2 4 110.83 3.07
1 -2 -4 116.42 3.92
1 2 -4 118.35 3.87
-1 -2 3 1.12 0.25
-1 2 3 0.97 0.32
-1 -2 3 1.75 0.4
1 2 -3 1.02 0.31
1 -2 -3 0.91 0.29
-1 2 2 59 2.2
1 -2 -2 62.1 2.34
-1 -2 2 59.58 2.28
1 2 -2 63.93 2.31
-1 -2 2 60.61 2.02
1 -2 -1 1.02 0.26
1 -2 -1 0.83 0.25
1 2 -1 0.84 0.24
-1 -2 1 0.69 0.25
-1 -2 1 0.73 0.21
1 -2 0 3604.62 56.06
1 2 0 3673.34 55.96
-1 -2 0 3524.73 56.51
-1 -2 0 3727.04 56.68
1 -2 0 3685.96 56.55
1 2 1 57.67 1.52
1 -2 1 60.68 2.17
-1 -2 -1 61.89 2.25
1 2 1 59.89 2.27
-1 2 -1 59.3 2.24
1 -2 1 60.4 1.63
-1 -2 -2 130.85 3.68
-1 2 -2 122.59 3.67
1 -2 2 123.21 3.54
1 2 2 119.48 3.61
1 -2 2 117.69 2.31
1 2 3 106.57 3.55
-1 2 -3 104.99 3.57
-1 -2 -3 111.5 3.57
1 -2 3 107.18 3.53
-1 -2 -4 432.5 9.3
1 2 4 425.5 9.4
-1 2 -4 435.51 9.49
1 -2 4 419.44 9.34
-1 2 -5 191.13 5.71
1 2 5 195.07 5.78
1 -2 5 188.66 5.69
-1 -2 -5 187.76 5.64
1 2 6 53.19 2.98
-1 2 -6 57.34 2.98
-1 -2 -6 62.7 3.04
1 -2 6 53.8 2.96
1 -2 7 2.9 0.7
1 2 7 4.22 0.88
-1 2 -7 3.2 0.77
-1 -2 -7 2.97 0.7
1 -2 8 2.22 0.7
-1 -2 -8 3.12 0.73
1 2 8 2.65 0.81
-1 2 -8 1.76 0.59
-1 -2 -9 4.99 1.03
-1 2 -9 4.92 1.03
1 2 9 5.65 1.08
1 -2 9 4.58 0.99
-1 2 -10 6.52 1.2
1 -2 10 9.62 1.61
1 2 10 6.26 1.26
-1 -2 -10 6.81 1.17
-1 2 -11 1.44 0.62
1 2 11 0.94 0.56
1 2 11 1.64 0.86
1 -2 11 0.78 0.51
-1 -2 -11 0.67 0.52
1 2 12 -0.03 0.45
1 2 12 0.18 0.4
1 -2 12 0.02 0.44
-1 2 -12 -0.3 0.41
1 2 13 1.94 1.01
1 -2 13 0.95 0.66
1 2 14 3.78 1.28
1 -2 14 1.22 0.9
1 -2 15 -1.29 0.9
-1 -3 15 0.37 0.66
-1 -3 14 0.98 0.63
-1 3 14 0.62 0.36
-1 -3 13 5.65 1.43
1 3 -13 1.75 0.57
-1 3 13 3.36 1.12
-1 3 13 4 1.09
-1 -3 12 2.65 0.87
-1 3 12 0.68 0.36
-1 3 12 2.56 1.02
1 3 -12 1.76 0.72
1 3 -11 0.31 0.35
-1 3 11 -0.48 0.54
1 -3 -11 0.55 0.56
-1 3 11 0.84 0.51
-1 -3 11 0.1 0.27
-1 3 10 1.72 0.76
-1 -3 10 2.36 0.84
1 -3 -10 3.26 0.93
1 3 -10 1.85 0.66
-1 3 10 1.8 0.7
1 -3 -9 261.74 8.5
1 3 -9 251.83 8.38
-1 3 9 254.63 8.36
-1 -3 9 258.3 8.53
-1 3 9 256.55 8.41
1 -3 -8 13.53 1.74
-1 3 8 14.33 1.64
-1 -3 8 13.34 1.65
-1 -3 8 12.38 1.1
1 3 -8 17.48 1.87
-1 -3 7 84.31 4.03
1 -3 -7 78.58 4.14
1 3 -7 87.12 4.1
-1 -3 7 81.42 2.9
-1 3 7 77.15 3.81
-1 -3 6 7.56 0.79
-1 -3 6 5.22 0.91
1 3 -6 6.52 1.04
1 -3 -6 7.3 1.14
-1 3 6 9.11 1.16
1 -3 -5 1.28 0.4
-1 3 5 1.89 0.47
-1 -3 5 1.74 0.37
-1 -3 5 1.21 0.41
1 3 -5 1.42 0.51
1 -3 -4 31.96 2.15
-1 -3 4 33.63 2.11
-1 3 4 33.19 1.98
-1 -3 4 33.69 1.63
1 3 -4 32.96 2.09
1 3 -3 3.24 0.65
1 -3 -3 2.94 0.59
-1 -3 3 2.93 0.59
-1 3 3 2.97 0.54
-1 -3 3 3.06 0.49
-1 -3 2 0.61 0.31
1 3 -2 0.14 0.21
1 -3 -2 0.24 0.2
-1 -3 2 0.05 0.08
-1 3 2 0.1 0.13
1 -3 -2 0.34 0.27
1 -3 -1 207.82 5.3
-1 -3 1 208.45 5.23
1 -3 -1 217.8 5.38
-1 -3 1 218.18 5.6
-1 3 1 215.12 5.03
1 3 -1 213.25 5.19
-1 -3 0 8.29 0.86
-1 3 0 8.46 0.84
1 -3 0 7.94 0.77
1 3 0 8.81 0.75
1 -3 0 9.72 0.92
-1 -3 0 9.58 0.97
1 -3 1 497.51 10.04
1 3 1 489.85 8.74
-1 3 -1 491.76 9.99
1 -3 1 492.4 9.03
-1 -3 -1 470.36 10.2
1 3 1 483.23 10.27
-1 -3 -1 499.92 10.12
1 3 2 103.54 2.35
1 -3 2 103.38 3.66
1 -3 2 109.57 2.7
-1 -3 -2 114.44 3.85
1 3 2 111.86 3.86
-1 3 -2 112.96 3.81
1 3 3 1.32 0.45
-1 3 -3 1.16 0.32
-1 -3 -3 1 0.34
1 -3 3 1.08 0.34
1 -3 3 0.93 0.19
-1 3 -4 138.63 4.86
1 3 4 141.09 4.82
1 -3 4 144.9 4.84
-1 -3 -4 144.55 4.92
1 -3 5 61.19 3.16
-1 3 -5 63.54 3.26
-1 -3 -5 62.18 3.24
1 3 5 61.03 3.16
1 -3 6 21.03 1.94
-1 -3 -6 16.6 1.7
-1 3 -6 18.15 1.82
1 3 6 18.54 1.82
1 3 7 7.18 1.23
-1 3 -7 6.58 1.14
-1 -3 -7 5.82 1.13
1 -3 7 7.08 1.18
1 3 8 6.96 1.23
1 -3 8 5.29 1.05
-1 -3 -8 5.55 1.14
-1 3 -8 7.06 1.34
-1 3 -9 20.95 2.24
1 -3 9 18.92 2.13
1 3 9 19.39 2.25
-1 -3 -9 22.79 2.35
-1 -3 -10 0.86 0.54
-1 3 -10 0.43 0.47
1 3 10 0.55 0.41
1 -3 10 0.13 0.43
-1 3 -11 0.34 0.66
1 3 11 1.01 0.72
1 -3 11 -0.11 0.37
-1 -3 -11 0.69 0.48
1 3 12 -0.65 0.48
1 3 12 -0.21 0.34
-1 -3 -12 0.29 0.3
1 -3 12 0.14 0.53
-1 3 -12 0.32 0.35
1 -3 13 -0.89 0.71
1 3 13 0.04 0.44
1 3 14 2.45 1.13
1 -3 14 1.18 0.88
-1 -4 14 0.67 0.66
-1 4 14 1.96 1.31
1 4 -13 0.36 0.5
-1 4 13 0.18 0.45
-1 4 13 -0.17 0.51
-1 -4 13 0.38 0.42
-1 4 12 -0.77 0.59
1 4 -12 -1.1 0.7
-1 4 12 -0.99 0.81
-1 -4 12 0.09 0.27
1 -4 -12 0.47 0.3
-1 -4 11 5.02 1.3
-1 4 11 2.63 1.02
-1 4 11 4.4 1.25
1 4 -11 4.2 1.1
1 -4 -11 5.81 1.38
-1 4 10 0.99 0.56
-1 -4 10 2.35 0.83
1 -4 -10 1.11 0.6
-1 4 10 2.02 0.82
1 4 -10 2.04 0.81
-1 4 9 -0.46 0.46
1 4 -9 -0.14 0.35
-1 -4 9 -0.09 0.38
1 -4 -9 0.09 0.24
-1 4 8 0.88 0.58
1 -4 -8 -0.18 0.22
-1 -4 8 1.66 0.62
1 4 -8 0.65 0.46
-1 -4 7 7.03 1.24
1 -4 -7 8.77 1.39
1 4 -7 9.57 1.43
-1 4 7 7.58 1.24
-1 -4 7 5.42 0.76
1 4 -6 5.35 1.07
-1 -4 6 7.63 1.21
-1 -4 6 7.2 0.82
-1 4 6 6.76 1.06
1 -4 -6 5.99 1.17
-1 4 5 7.16 1.06
-1 -4 5 8.17 0.89
1 4 -5 6.78 1.1
-1 -4 5 7.68 1.15
1 -4 -5 7.19 1.16
1 -4 -4 14.56 1.64
1 4 -4 15.08 1.55
-1 4 4 14.49 1.46
-1 4 4 14.5 0.95
-1 -4 4 15.58 1.21
-1 -4 4 15.16 1.56
-1 4 3 1.68 0.49
-1 -4 3 0.93 0.4
1 -4 -3 1.79 0.51
-1 -4 3 1.47 0.38
-1 4 3 1.27 0.31
1 4 -3 1.38 0.4
-1 -4 2 94.49 3.35
-1 4 2 91.72 3.02
1 4 -2 87.16 3.53
1 -4 -2 90.8 3.65
1 -4 -2 87 3.57
-1 4 2 87.2 3.65
-1 -4 2 89.38 3.74
1 4 -1 1.21 0.38
-1 4 1 0.44 0.22
-1 -4 1 0.97 0.31
1 -4 -1 0.92 0.3
-1 -4 1 1.14 0.37
1 -4 -1 0.78 0.27
1 4 0 732 13.54
-1 -4 0 701.22 14.6
1 -4 0 747.56 14.5
-1 -4 0 725.68 14.29
1 -4 0 739.88 13.87
-1 4 0 737.81 14.03
1 -4 1 2.67 0.49
-1 -4 -1 2.74 0.64
-1 -4 -1 1.64 0.51
1 4 1 2.21 0.61
1 -4 1 0.77 0.26
1 4 1 1.66 0.33
-1 4 -1 1.78 0.5
1 4 2 25.15 1.18
1 4 2 22.89 1.85
1 -4 2 24.82 1.89
1 -4 2 26.21 1.4
-1 4 -2 26.2 1.89
-1 -4 -2 25.41 1.92
-1 4 -3 38.9 2.47
1 4 3 43.16 2.62
-1 -4 -3 45.81 2.67
1 -4 3 41.54 2.58
1 -4 3 35.45 1.54
-1 4 -4 108.81 4.59
1 -4 4 108.33 4.44
-1 -4 -4 107.48 4.52
1 4 4 112.47 4.59
-1 4 -5 58.32 3.4
1 -4 5 60.31 3.36
-1 -4 -5 56.87 3.39
1 4 5 55.52 3.28
-1 4 -6 9.48 1.37
1 4 6 8.06 1.31
-1 -4 -6 6.56 1.17
1 -4 6 7.71 1.24
-1 4 -7 0.17 0.37
-1 -4 -7 1.07 0.58
1 -4 7 0.56 0.31
1 4 7 0.12 0.35
-1 4 -8 0.52 0.44
1 4 8 1.01 0.49
1 -4 8 1.16 0.49
-1 -4 -8 0.99 0.52
1 -4 9 3.84 1.1
1 4 9 5.02 1.16
-1 -4 -9 4.67 1.05
-1 4 -9 5.13 1.16
1 4 10 3.34 1.21
1 -4 10 1.91 0.92
-1 -4 -10 1.43 0.54
-1 4 -10 2.03 0.79
-1 4 -11 -0.19 0.27
1 -4 11 0.36 0.35
-1 -4 -11 0.42 0.55
1 4 11 0.03 0.55
1 4 12 -0.6 0.81
1 4 12 -0.34 0.39
1 -4 12 0.94 0.94
-1 -4 -12 -0.48 0.68
-1 4 -12 0.54 0.67
1 -4 13 1.16 0.98
1 4 13 -0.1 0.52
1 4 14 0.24 0.7
1 -4 14 1.51 0.98
-1 5 13 3.64 1.17
1 5 -13 3.11 1.24
-1 -5 13 2.02 0.9
-1 5 13 3.98 1.34
-1 5 12 0.07 0.35
1 5 -12 1.3 0.94
1 -5 -12 0.06 0.32
-1 5 12 0.97 0.63
-1 -5 12 -0.1 0.56
-1 5 11 1.09 0.58
-1 5 11 1.71 0.96
1 5 -11 1.64 0.76
1 -5 -11 -0.4 0.69
-1 -5 11 0.56 0.46
-1 5 10 -0.1 0.38
1 5 -10 -0.16 0.58
-1 -5 10 -0.54 0.35
1 -5 -10 -0.48 0.45
-1 -5 9 66.6 4.44
1 5 -9 69.39 4.54
-1 5 9 65.17 4.25
1 -5 -9 68 4.62
-1 5 8 27.03 2.56
1 -5 -8 23.72 2.61
-1 -5 8 25.93 2.61
1 5 -8 25.12 2.63
1 5 -7 27.77 2.62
-1 5 7 32.88 2.79
-1 -5 7 30.34 2.73
1 -5 -7 28.76 2.81
-1 -5 6 2.19 0.76
1 5 -6 1.81 0.64
-1 5 6 1.02 0.46
1 -5 -6 0.63 0.52
-1 -5 6 1.27 0.41
1 -5 -5 1.38 0.61
-1 5 5 2.27 0.68
-1 -5 5 2.15 0.71
-1 -5 5 1.58 0.42
1 5 -5 2.16 0.66
-1 5 4 0.11 0.12
-1 -5 4 -0.01 0.14
1 5 -4 -0.25 0.35
-1 -5 4 -0.02 0.13
-1 5 4 -0.13 0.29
1 -5 -4 -0.19 0.38
1 -5 -3 24.98 2.14
-1 5 3 24.03 2.14
1 5 -3 24.57 2.02
-1 -5 3 24.33 1.73
-1 -5 3 20.67 1.99
-1 5 3 22.82 1.47
1 5 -2 1.49 0.48
-1 5 2 1.15 0.42
1 -5 -2 1.55 0.54
-1 -5 2 1.62 0.45
-1 -5 2 1.09 0.32
1 -5 -2 1.74 0.57
-1 5 2 1.14 0.35
1 -5 -1 0.77 0.35
1 -5 -1 0.89 0.4
-1 5 1 0.94 0.33
1 5 -1 0.39 0.2
-1 -5 1 0.96 0.44
-1 -5 1 0.61 0.29
-1 5 0 33.66 2.15
1 5 0 34.1 1.99
1 -5 0 36.09 2.44
-1 -5 0 32.89 2.25
-1 -5 0 33.71 2.44
1 -5 0 36.08 2.19
-1 -5 -1 17.15 1.71
1 5 1 21.19 1.43
-1 -5 -1 18.57 1.78
1 -5 1 22.47 1.62
1 5 1 20.5 1.96
1 -5 1 21.59 1.94
-1 5 -1 19.04 1.69
-1 5 -2 0.7 0.26
1 5 2 1.51 0.66
-1 -5 -2 0.54 0.25
1 -5 2 1.14 0.38
1 -5 2 0.56 0.32
1 5 2 0.94 0.25
-1 5 -3 0.23 0.23
1 -5 3 0.57 0.26
1 5 3 -0.19 0.3
1 -5 3 0.28 0.22
-1 -5 -3 0.38 0.15
-1 -5 -4 0.82 0.52
1 5 4 0.98 0.44
-1 5 -4 1.13 0.49
1 -5 4 1.14 0.44
-1 -5 -5 1.83 0.69
1 5 5 2.48 0.8
1 -5 5 1.75 0.54
-1 5 -5 2.49 0.67
-1 -5 -6 12.1 1.78
1 5 6 11.49 1.66
1 -5 6 11.16 1.61
-1 5 -6 10.83 1.63
1 5 7 1.16 0.77
-1 5 -7 1.34 0.62
-1 -5 -7 1.18 0.68
1 -5 7 0.86 0.48
1 -5 8 2.1 0.69
-1 5 -8 1.96 0.6
1 5 8 2.36 0.89
-1 -5 -8 3.84 1.07
-1 5 -9 1.01 0.55
1 -5 9 1.26 0.72
1 5 9 0.72 0.66
-1 -5 -9 0.55 0.52
1 5 10 0.48 0.62
1 -5 10 -0.34 0.35
-1 -5 -10 -0.2 0.38
-1 5 -10 -0.2 0.56
1 5 11 1.26 0.83
-1 5 -11 0.63 0.66
1 -5 11 -0.34 0.51
1 5 12 -0.16 0.52
1 -5 12 0.66 0.34
-1 5 -12 -0.33 0.62
-1 -5 -12 -0.13 0.61
1 5 13 -1.7 1.21
1 -5 13 -0.65 0.82
-1 -6 13 -0.11 0.48
-1 6 12 0.56 0.67
1 6 -12 0.54 0.56
1 -6 -12 0.78 0.68
-1 6 12 -0.1 0.61
-1 -6 12 0.27 0.58
1 6 -11 0.58 0.59
-1 -6 11 2.27 0.74
-1 6 11 1.43 0.69
1 -6 -11 1.12 0.77
-1 6 11 1.52 0.76
-1 6 10 0.02 0.53
1 6 -10 0.68 0.61
1 -6 -10 0.16 0.44
-1 -6 10 -0.39 0.45
1 6 -9 -0.26 0.46
-1 6 9 0.97 0.6
1 -6 -9 0.5 0.53
-1 -6 9 -0.17 0.54
-1 6 8 0.28 0.46
1 6 -8 -0.03 0.5
1 -6 -8 0.36 0.66
-1 -6 8 0.08 0.3
-1 6 7 0.1 0.45
-1 -6 7 0.01 0.38
1 6 -7 0.18 0.21
1 -6 -7 0.01 0.35
-1 6 6 1.5 0.68
-1 -6 6 2.67 0.89
1 6 -6 1.23 0.59
1 -6 -6 1.34 0.55
-1 -6 5 4.4 0.83
1 6 -5 5.81 1.19
-1 6 5 5.65 1.19
-1 -6 5 6.56 1.29
1 -6 -5 5.38 1.21
-1 -6 4 0.51 0.4
1 -6 -4 0.03 0.29
-1 6 4 0.64 0.49
1 6 -4 0.12 0.38
-1 -6 4 0.22 0.17
1 -6 -3 0.85 0.47
-1 -6 3 0.75 0.53
-1 6 3 0.81 0.43
1 6 -3 1.01 0.43
-1 6 3 0.62 0.27
-1 -6 3 0.66 0.41
1 -6 -2 54.78 3.4
1 -6 -2 59.38 3.43
-1 -6 2 58.69 3.17
-1 -6 2 55.23 3.51
-1 6 2 54.89 3.53
-1 6 2 53.91 2.76
1 6 -2 55.51 3.18
1 6 -1 0.24 0.25
-1 -6 1 0.59 0.29
-1 6 1 0.55 0.36
1 -6 -1 0.25 0.25
-1 -6 1 -1.13 0.69
1 -6 -1 0.4 0.36
1 -6 0 84 3.85
-1 6 0 86.34 3.92
-1 -6 0 82.64 4.27
-1 -6 0 80.91 4
1 -6 0 80.81 4.14
1 6 0 81.76 3.55
1 6 1 16.07 1.38
1 6 1 15.48 1.87
1 -6 1 16.91 1.85
1 -6 1 11.54 1.35
-1 -6 -1 16.62 1.82
-1 -6 -1 15.65 1.85
-1 6 -1 16.99 1.76
-1 -6 -2 0.67 0.44
-1 6 -2 0.29 0.26
1 -6 2 0.4 0.28
1 -6 2 0.57 0.42
1 6 2 1.04 0.35
1 6 2 0.55 0.36
1 -6 3 22.85 2.29
1 6 3 22.61 2.3
-1 -6 -3 20.84 2.25
-1 6 -3 26.1 2.35
1 -6 3 21.46 1.61
-1 -6 -4 19.02 2.2
1 6 4 18.54 2.08
-1 6 -4 19.97 2.19
1 -6 4 17.04 2.04
-1 -6 -5 7.49 1.48
1 6 5 5.46 1.27
-1 6 -5 6.55 1.26
1 -6 5 8.31 1.43
-1 -6 -6 -0.25 0.26
-1 6 -6 -0.77 0.5
1 6 6 0.24 0.33
1 -6 6 -0.12 0.3
1 6 7 1.02 0.55
-1 6 -7 1.72 0.9
1 -6 7 0.47 0.45
-1 -6 -7 1.05 0.58
1 6 8 0.25 0.35
-1 -6 -8 1.8 0.84
-1 6 -8 0.93 0.63
1 -6 8 0.9 0.55
-1 6 -9 1.8 0.85
-1 -6 -9 1.38 0.71
1 6 9 0.95 0.41
1 -6 9 2.25 1.02
1 6 10 0.84 0.52
-1 6 -10 0.81 0.89
1 -6 10 1.05 0.83
-1 -6 -10 0.59 0.82
1 -6 11 0.31 0.61
1 6 11 0.45 0.59
-1 -6 -11 0.26 0.72
-1 6 -11 0.83 0.75
-1 6 -12 -0.58 0.97
1 -6 12 -0.99 0.8
1 6 12 1.9 1.09
-1 -7 12 -1.74 1.01
1 7 -12 -0.18 0.58
1 -7 -11 0.49 0.49
-1 7 11 -0.13 0.67
1 7 -11 -0.21 0.64
-1 -7 11 0.11 0.52
-1 7 11 0.04 0.39
1 -7 -10 -0.48 0.73
-1 -7 10 -0.32 0.68
1 7 -10 -0.83 0.72
-1 7 10 0.37 0.49
1 7 -9 19.13 2.76
-1 -7 9 24.93 3.02
-1 7 9 19.64 2.69
1 -7 -9 19.59 2.87
1 7 -8 4.85 1.33
-1 -7 8 2.92 1.06
-1 7 8 3.51 1.09
1 -7 -8 5.12 1.44
-1 -7 7 6.2 1.4
1 7 -7 5.02 1.21
-1 7 7 4.79 1.23
1 -7 -7 4.45 1.3
1 7 -6 -0.12 0.38
-1 7 6 0.42 0.62
-1 -7 6 -0.49 0.65
1 -7 -6 -0.02 0.27
1 -7 -5 0.17 0.37
-1 7 5 -0.36 0.32
-1 -7 5 0.04 0.42
1 7 -5 -0.14 0.29
-1 -7 4 0.13 0.35
-1 -7 4 -0.2 0.6
-1 7 4 0.77 0.53
1 -7 -4 -0.09 0.2
1 7 -4 0.28 0.41
1 7 -3 1.48 0.62
-1 7 3 0.96 0.52
-1 -7 3 0.86 0.59
-1 -7 3 0.59 0.4
1 -7 -3 1.11 0.57
-1 -7 2 -0.22 0.25
1 7 -2 0.51 0.34
-1 -7 2 0.14 0.37
1 -7 -2 -0.16 0.52
1 -7 -2 0.27 0.29
-1 7 2 -0.37 0.55
-1 7 2 -0.5 0.38
-1 -7 1 -0.27 0.37
-1 7 1 -0.04 0.42
1 7 -1 -0.1 0.18
1 -7 -1 0.21 0.31
-1 -7 1 -0.08 0.22
-1 7 1 -0.35 0.37
1 -7 -1 0.02 0.24
1 7 0 2.8 0.67
-1 -7 0 1.83 0.72
-1 -7 0 2.66 0.79
1 -7 0 2.19 0.71
1 -7 0 2.82 0.85
-1 7 0 2.58 0.74
1 -7 1 7.71 1.18
1 -7 1 8.04 1.44
-1 -7 -1 7.29 1.4
-1 -7 -1 8.23 1.47
1 7 1 7.34 1.02
-1 7 -1 7.51 1.25
1 7 1 8.43 1.5
1 -7 2 0.72 0.43
-1 7 -2 0.82 0.56
1 -7 2 0.52 0.31
1 7 2 0.31 0.4
-1 -7 -2 0.59 0.49
-1 -7 -3 -0.07 0.48
1 -7 3 -0.22 0.37
-1 7 -3 0.54 0.48
1 7 3 0.06 0.28
1 7 4 3.38 0.98
-1 7 -4 1.55 0.7
-1 -7 -4 1.82 0.77
1 -7 4 2.77 0.96
1 -7 5 1.93 0.7
-1 7 -5 2.6 0.91
1 7 5 1.54 0.78
-1 -7 -5 1.17 0.77
-1 -7 -6 2.66 1
1 7 6 1.15 0.71
-1 7 -6 1.43 0.78
1 -7 6 1.08 0.53
-1 7 -7 -0.15 0.55
1 7 7 -0.79 0.65
1 -7 7 -0.26 0.29
-1 -7 -7 -0.24 0.36
-1 7 -8 0.62 0.65
1 7 8 -0.02 0.29
1 -7 8 0.53 0.58
-1 -7 -8 0.77 0.7
1 7 9 -0.09 0.45
-1 7 -9 1.96 0.85
1 -7 9 1.14 0.84
-1 -7 -9 -0.28 0.58
-1 7 -10 -0.29 0.37
1 7 10 0.8 0.78
1 -7 10 -0.42 0.84
-1 -7 -10 1.5 0.94
1 7 11 0.19 0.52
-1 -7 -11 -0.16 0.67
-1 7 -11 -0.22 0.73
1 -7 11 -0.18 0.44
1 8 -10 0.31 0.91
1 -8 -10 -0.63 0.75
-1 -8 10 1.58 1.11
1 8 -9 0.74 0.72
-1 8 9 -0.58 0.59
1 -8 -9 -0.47 0.6
-1 -8 9 -0.67 0.48
-1 -8 8 -0.04 0.52
1 8 -8 0.92 0.89
-1 8 8 -0.11 0.6
1 -8 -8 0.32 0.45
-1 -8 7 0.79 0.49
-1 8 7 0.96 0.52
1 -8 -7 0.93 0.56
1 8 -7 2.6 0.95
-1 8 6 -0.33 0.3
1 8 -6 0.22 0.29
-1 -8 6 -0.04 0.3
1 -8 -6 -0.09 0.32
-1 8 5 -0.31 0.32
1 8 -5 -0.59 0.46
1 -8 -5 0.07 0.49
-1 -8 5 0.19 0.49
-1 -8 4 1.22 0.75
-1 8 4 1.32 0.74
1 8 -4 0.34 0.46
1 -8 -4 1.51 0.88
1 8 -3 -0.57 0.59
-1 8 3 0.09 0.39
-1 -8 3 -0.14 0.37
1 -8 -3 0.1 0.37
-1 -8 3 0.02 0.25
1 -8 -2 1.27 0.63
-1 8 2 0.33 0.39
1 8 -2 1.49 0.64
-1 -8 2 2.06 0.84
-1 -8 2 0.2 0.35
-1 -8 1 0.53 0.49
-1 8 1 1.12 0.73
1 8 -1 0.46 0.44
-1 8 1 0.58 0.43
-1 -8 1 0.82 0.64
1 -8 -1 0.72 0.27
1 -8 -1 0.86 0.47
-1 8 0 33.79 2.8
1 8 0 30.51 2.5
1 -8 0 35.35 3.23
1 -8 0 34.34 2.93
-1 -8 0 37.92 3.18
-1 -8 0 32.18 3.17
1 8 0 32.75 3.33
-1 8 -1 -0.25 0.24
-1 -8 -1 -0.36 0.63
1 8 1 0.15 0.3
-1 -8 -1 -0.48 0.54
1 -8 1 -0.03 0.33
1 -8 1 -0.47 0.5
1 -8 2 0.21 0.31
1 8 2 -0.05 0.36
-1 8 -2 0.2 0.41
1 8 3 -0.42 0.55
-1 8 -3 -0.22 0.47
1 -8 3 -0.32 0.41
-1 -8 -3 -0.25 0.46
1 8 4 5.82 1.49
-1 8 -4 5.32 1.37
1 -8 4 6.01 1.46
-1 -8 -4 7.73 1.62
1 8 5 6.48 1.53
-1 8 -5 4.58 1.34
1 -8 5 5.41 1.46
-1 -8 -5 5.01 1.46
-1 8 -6 -0.49 0.59
1 8 6 0.75 0.66
1 -8 6 0.13 0.58
-1 -8 -6 -0.88 0.34
-1 -8 -7 0.72 0.58
-1 8 -7 0.21 0.34
1 8 7 0.96 0.6
1 -8 7 1.04 0.64
-1 -8 -8 -1.07 0.96
1 -8 8 -0.1 0.44
-1 8 -8 -0.49 0.61
1 8 8 0.1 0.37
-1 -8 -9 0.02 0.56
1 8 9 -1.02 0.83
-1 8 -9 0.28 0.63
1 -8 9 0.91 0.59
-1 8 -10 1.04 0.93
-1 -8 -10 -0.45 0.52
1 -8 10 0.45 0.78
1 -9 -8 -0.89 1
1 9 -8 0.51 0.63
-1 -9 8 -0.05 0.59
-1 9 7 0.79 0.66
1 -9 -7 1.39 0.94
1 9 -7 1.02 0.8
-1 -9 7 0.76 0.66
-1 -9 6 -1.12 1.09
1 9 -6 0.09 0.43
-1 9 6 0.85 0.51
1 -9 -6 0.49 0.71
-1 -9 5 -0.67 0.67
1 9 -5 -0.3 0.59
1 -9 -5 0.92 0.79
-1 9 5 0.6 0.45
-1 9 4 0.15 0.59
1 -9 -4 1.47 0.88
1 9 -4 0.76 0.72
-1 -9 4 0.36 0.43
-1 -9 3 1.02 0.65
1 -9 -3 0.64 0.69
1 9 -3 -0.16 0.46
-1 9 3 -0.18 0.58
-1 9 2 -0.44 0.38
-1 -9 2 0.02 0.42
1 -9 -2 0.55 0.47
-1 -9 1 0.98 0.67
-1 -9 1 0.14 0.56
1 -9 -1 -0.02 0.33
1 -9 -1 -0.44 0.41
1 9 -1 0.44 0.46
-1 9 1 0.73 0.28
1 9 0 0.25 0.65
1 -9 0 1.11 0.51
-1 9 0 0.5 0.59
-1 -9 0 0.15 0.58
-1 -9 0 -0.54 0.54
-1 9 -1 2.95 1.03
-1 -9 -1 2.57 1.06
1 9 1 2.56 1.01
1 -9 1 2.74 1.13
-1 9 -2 1.08 0.67
-1 -9 -2 1.11 0.54
1 -9 2 0.76 0.6
1 9 2 0.24 0.53
-1 -9 -3 -0.22 0.66
-1 9 -3 1.13 0.52
1 -9 3 0.63 0.42
1 9 3 -0.23 0.41
-1 9 -4 0.41 0.41
1 -9 4 1.69 0.74
1 9 4 0.69 0.47
-1 -9 -4 1.11 0.68
1 -9 5 0.95 0.61
-1 9 -5 0.15 0.68
1 9 5 0.16 0.52
-1 -9 -5 0.85 0.54
1 9 6 -0.66 0.56
-1 9 -6 -0.54 0.45
-1 -9 -6 -0.56 0.56
1 -9 6 -0.51 0.44
-1 9 -7 -1.08 1.06
1 -9 7 0.04 0.51
1 9 7 -0.55 0.68
-1 -9 -7 -0.22 0.4
1 -9 8 0.87 0.86
-1 -9 -8 0.78 0.98
1 9 8 -0.62 0.49
-1 -10 5 0.02 0.53
-1 10 4 -0.65 0.84
-1 -10 4 -0.22 0.59
-1 10 3 -0.23 0.7
-1 -10 3 0.26 0.5
-1 10 2 0.54 0.49
-1 -10 2 0.08 0.42
1 10 -1 -0.53 0.67
-1 10 1 -0.32 0.54
-1 -10 1 -0.85 0.78
-1 10 0 2.67 0.97
1 10 0 3.36 1.37
1 -10 0 3.09 1.29
1 -10 1 0.19 0.43
-1 10 -1 0.5 0.48
1 10 1 -0.65 0.75
1 -10 2 0.43 0.93
1 10 2 1.25 0.99
1 10 3 -0.28 0.46
1 -10 3 -0.11 0.64
1 10 4 0.44 0.51
1 -10 4 1.36 0.6
1 10 5 1.47 0.86
-2 0 15 0.93 0.88
-2 0 14 1.27 0.58
-2 0 13 8.06 1.58
-2 0 12 -0.25 0.44
2 0 -12 0.18 0.26
-2 0 12 0.12 0.37
2 0 -11 0.2 0.19
-2 0 11 -0.19 0.26
-2 0 11 0.33 0.31
2 0 -10 4.9 0.9
-2 0 10 5.65 1.07
-2 0 10 3.69 0.87
-2 0 9 24.86 2.14
2 0 -9 24.24 1.9
-2 0 9 24.72 2.01
2 0 -8 1.36 0.5
-2 0 8 0.7 0.26
-2 0 8 1.31 0.43
2 0 -7 0.29 0.28
-2 0 7 0.21 0.19
-2 0 7 0.08 0.21
2 0 -6 76.33 2.96
-2 0 6 75.94 3.03
-2 0 6 72.83 3.02
2 0 -5 448.3 9.09
-2 0 5 437.15 9.29
-2 0 5 449.29 9.02
-2 0 4 291.58 6.61
2 0 -4 302.49 6.52
-2 0 4 305.11 6.24
-2 0 3 530 9.77
-2 0 3 509.93 9.02
2 0 -3 520.73 9.65
2 0 -2 899.52 15.44
-2 0 2 925.55 14.4
-2 0 2 929.64 15.49
-2 0 1 6.01 0.53
2 0 0 237.27 4.11
-2 0 0 228.3 4.1
-2 0 0 233.48 4.62
-2 0 -1 289.78 5.49
2 0 1 290.47 5.51
2 0 2 205.87 4.66
-2 0 -2 203.67 4.25
-2 0 -3 12.41 0.93
2 0 3 13.81 1.08
-2 0 -3 11.7 0.84
-2 0 -4 86.66 2.63
-2 0 -4 82.33 2.82
2 0 4 85.12 3.22
-2 0 -5 94.41 2.94
2 0 5 91.21 3.65
-2 0 -5 91.01 3.17
-2 0 -6 15.46 1.3
-2 0 -6 16.82 1.25
2 0 6 16.74 1.6
2 0 7 0.19 0.3
-2 0 -7 -0.06 0.21
-2 0 -7 -0.09 0.1
-2 0 -8 13.17 1.19
-2 0 -8 12.12 1.35
2 0 8 13.61 1.68
2 0 9 8.88 1.11
-2 0 -9 13.07 1.27
-2 0 -9 11.45 1.38
2 0 9 14.24 1.83
-2 0 -10 0.35 0.34
2 0 10 0.01 0.32
2 0 11 4.34 1.15
2 0 12 0.05 0.4
2 0 13 6.92 1.57
2 0 14 3.65 1.31
-2 -1 15 -0.82 1.03
-2 1 15 -0.81 0.69
-2 -1 14 1.94 0.93
-2 1 14 1.52 0.51
-2 1 13 -0.03 0.34
-2 1 13 0.25 0.29
-2 -1 13 0.27 0.35
2 1 -13 -0.44 0.52
-2 1 12 2.58 0.84
2 1 -12 1.55 0.64
-2 -1 12 2.36 0.71
-2 -1 12 1.91 0.78
-2 1 12 3.13 0.89
-2 1 11 12.3 1.68
2 -1 -11 12.37 1.4
2 1 -11 12.6 1.63
-2 -1 11 13.99 1.85
-2 -1 11 14.48 1.62
-2 1 11 12.58 1.7
-2 1 10 14.07 1.7
-2 1 10 12.59 1.55
2 1 -10 10.39 1.42
2 -1 -10 12.01 1.33
-2 -1 10 12.94 1.46
-2 -1 10 12.44 1.6
-2 1 9 104.73 4.6
2 -1 -9 107.47 4.05
-2 -1 9 112.99 4.81
-2 1 9 106.94 4.63
-2 -1 9 107.69 4.22
2 1 -9 110.27 4.57
-2 -1 8 204.68 5.97
2 1 -8 209.12 6.37
-2 -1 8 202.29 6.46
-2 1 8 208.45 6.41
2 -1 -8 206.89 5.75
-2 1 8 204.11 6.46
2 1 -7 31.75 2.13
-2 -1 7 32.3 2.12
-2 1 7 33.21 2.15
-2 -1 7 33.58 2
2 -1 -7 33.65 1.89
-2 1 7 31.72 2.19
-2 -1 6 6.51 0.83
2 1 -6 5.19 0.79
-2 1 6 5.9 0.8
2 -1 -6 6.04 0.75
-2 -1 6 4.2 0.67
-2 1 6 4.68 0.82
-2 -1 5 496.13 10.03
-2 1 5 494.25 9.85
2 1 -5 503.97 10.32
-2 -1 5 493.7 9.92
-2 1 5 510.8 10.46
2 -1 -5 493.26 9.65
2 1 -4 431.61 8.86
-2 1 4 436.62 9.03
-2 1 4 422.54 8.24
-2 -1 4 426.92 8.49
-2 -1 4 426.24 8.58
2 -1 -4 438.16 8.41
-2 1 3 0.33 0.1
-2 1 3 0.49 0.23
2 1 -3 0.3 0.19
-2 -1 3 0.56 0.21
-2 -1 3 0.23 0.11
-2 -1 2 172.21 4.06
2 1 -2 168.47 4.11
-2 1 2 167.94 4.15
-2 1 2 170.54 3.39
-2 -1 2 172.46 3.73
2 -1 -1 114.22 2.29
-2 -1 1 104.84 3.01
-2 -1 1 110.99 2.66
-2 1 1 114.53 2.91
2 1 -1 112.59 2.96
2 -1 0 657.98 10.95
2 1 0 679.16 11.35
2 1 0 662.82 11.39
-2 -1 0 683.79 11.77
-2 1 0 672.87 11.21
-2 1 -1 17.56 0.72
2 -1 1 16.53 0.91
2 1 1 15.96 0.97
-2 -1 -1 16.35 1.04
-2 -1 -2 145.97 3.83
-2 1 -2 141.3 2.77
2 1 2 147.26 3.84
2 -1 2 146.14 3.74
-2 1 -3 43.82 1.22
2 -1 3 52.09 2.19
-2 -1 -3 48.33 2.09
-2 1 -3 51.69 2.23
2 1 3 50.01 2.22
-2 1 -4 20.83 1.49
-2 -1 -4 21.42 1.44
2 1 4 22.23 1.58
2 -1 4 22.88 1.58
-2 1 -4 22.86 0.9
-2 -1 -4 22.95 1.13
-2 1 -5 220.31 4.41
-2 1 -5 219.4 5.93
2 1 5 215.89 6.19
-2 -1 -5 212.45 5.72
2 -1 5 226.01 6.27
-2 -1 -5 211.08 4.9
-2 -1 -6 0.86 0.38
2 -1 6 0.2 0.1
-2 1 -6 0.32 0.23
2 1 6 0.49 0.23
-2 1 -6 0.58 0.17
-2 -1 -6 0.34 0.16
2 -1 6 0.9 0.43
-2 -1 -7 18.69 1.32
-2 1 -7 17.4 1.63
2 1 7 21.09 1.97
2 -1 7 18.17 1.11
-2 -1 -7 21.6 1.69
2 -1 7 22.91 2.04
-2 1 -8 25.28 2.1
-2 -1 -8 29.53 2.11
2 -1 8 26.84 2.41
2 1 8 28 2.42
-2 -1 -8 25.13 1.67
2 1 9 39.87 3.14
2 -1 9 46.2 3.31
-2 1 -9 34.56 2.57
-2 -1 -9 40.75 2.59
2 -1 10 4.31 1
-2 1 -10 4.03 0.86
-2 -1 -10 2.63 0.64
2 1 10 1.75 0.64
2 1 10 3.02 0.99
2 1 11 2.12 0.96
-2 1 -11 1.22 0.46
2 -1 11 1 0.64
2 -1 12 -0.74 0.56
2 1 12 -0.5 0.59
2 1 13 0.64 0.52
2 -1 13 0.98 0.66
2 -1 14 3.97 1.17
2 1 14 3.89 1.42
-2 -2 15 0.18 0.45
-2 -2 14 1.16 0.77
-2 2 14 0.43 0.65
2 2 -13 5.48 1.28
-2 2 13 5.2 1.36
-2 -2 13 5.21 1.27
-2 2 13 3.58 0.91
-2 2 12 2.9 0.89
-2 -2 12 2.15 0.81
-2 2 12 1.94 0.76
2 2 -12 2.55 0.83
-2 2 11 0.24 0.28
2 2 -11 0.91 0.31
-2 2 11 1.36 0.53
-2 -2 11 0.47 0.37
-2 -2 11 1.44 0.6
-2 2 10 -0.08 0.32
2 2 -10 0.19 0.23
-2 2 10 0.02 0.23
-2 -2 10 -0.45 0.36
-2 -2 10 0.21 0.38
-2 2 9 74.23 3.95
2 2 -9 68.55 3.81
-2 -2 9 67.89 3.81
-2 2 9 72.68 3.84
-2 -2 9 70.04 3.21
-2 2 8 0.39 0.41
-2 2 8 0.1 0.17
2 2 -8 0.88 0.5
-2 -2 8 -0.3 0.14
-2 -2 8 0.65 0.4
-2 -2 7 27.76 2.06
2 2 -7 28.75 2.17
2 -2 -7 29.01 2.23
-2 -2 7 28.02 1.8
-2 2 7 29.39 2.04
-2 2 7 28.53 2.19
2 -2 -6 135.36 4.84
-2 -2 6 140.36 4.68
-2 2 6 137.02 4.46
-2 -2 6 137.16 4.16
-2 2 6 136.8 4.87
2 2 -6 134.4 4.77
2 -2 -5 110.26 4.02
-2 -2 5 106.79 3.81
-2 2 5 111.4 3.67
2 2 -5 114.12 4.06
-2 -2 5 109.7 3.51
-2 2 5 107.49 4.02
-2 2 4 0.48 0.25
-2 -2 4 1.1 0.33
2 2 -4 0.55 0.23
-2 -2 4 0.54 0.22
-2 2 4 0.47 0.2
2 -2 -4 0.59 0.3
-2 -2 3 101.72 3.21
-2 -2 3 94.6 3.04
2 2 -3 99.02 3.34
-2 2 3 97.72 2.91
2 -2 -3 95.17 3.36
-2 2 3 92.68 3.32
-2 2 2 36.63 1.76
-2 -2 2 37.3 1.74
2 -2 -2 37.6 1.79
-2 -2 2 34.68 1.7
-2 2 2 36.03 1.57
2 2 -2 35.84 1.77
2 -2 -1 560.22 9.96
2 -2 -1 552.62 10.29
-2 -2 1 552.95 10.54
-2 -2 1 558.07 10.39
2 2 -1 557.8 10.21
-2 2 1 568.31 10.27
2 2 0 75.11 2.25
-2 -2 0 75.11 2.57
-2 -2 0 76.05 2.69
2 -2 0 77.53 2.39
2 2 0 75.53 2.61
-2 2 0 76.23 2.21
2 2 1 63.95 1.84
2 -2 1 62.61 2.26
-2 -2 -1 64.84 2.53
2 2 1 61.57 2.43
-2 2 -1 64.36 1.73
2 2 2 11.37 1.04
2 -2 2 10.87 0.96
-2 -2 -2 12.56 1.08
-2 2 -2 10.49 1.03
-2 2 -3 172.03 5.09
-2 -2 -3 173.38 4.98
2 -2 3 174.97 4.85
2 2 3 172.78 4.98
-2 -2 -4 1.15 0.41
-2 -2 -4 0.4 0.11
-2 2 -4 0.48 0.33
2 2 4 0.95 0.32
2 -2 4 0.64 0.33
2 -2 5 65.81 3.15
-2 -2 -5 60.69 2.94
2 2 5 61.34 3.06
-2 2 -5 59.6 3.03
2 2 6 0.11 0.15
-2 -2 -6 0.68 0.32
-2 2 -6 1.21 0.45
2 -2 6 0.68 0.22
-2 2 -7 3.31 0.79
2 2 7 3.29 0.82
2 -2 7 3.86 0.89
-2 -2 -7 2.61 0.64
2 2 8 3.05 0.81
-2 2 -8 2.24 0.63
2 -2 8 3.76 0.89
-2 -2 -8 2.86 0.69
-2 2 -9 30.79 2.65
2 -2 9 34.37 2.91
2 2 9 31.2 2.8
-2 -2 -9 33.03 2.58
2 2 10 -0.21 0.33
-2 -2 -10 -0.33 0.43
-2 2 -10 0.47 0.45
2 -2 10 -0.38 0.54
2 2 11 0.24 0.38
-2 2 -11 0.45 0.41
-2 -2 -11 0.45 0.48
2 -2 11 0.06 0.27
2 2 12 -0.41 0.48
-2 2 -12 -0.35 0.32
2 -2 12 -0.55 0.67
2 -2 13 2.27 0.96
2 2 13 4.78 1.35
2 -2 14 0.88 0.88
2 2 14 1.54 1.07
-2 3 14 1.51 0.84
-2 -3 14 0.91 0.51
-2 -3 13 -0.02 0.33
-2 3 13 1.16 0.58
2 3 -13 -0.71 0.62
-2 3 13 1.09 0.82
2 3 -12 0.83 0.51
-2 3 12 -0.01 0.43
-2 3 12 1.49 0.76
-2 -3 12 0.63 0.43
2 3 -11 16.27 2.06
-2 -3 11 16.05 2.06
-2 3 11 15.52 2.06
-2 3 11 17.01 2.09
-2 3 10 0.33 0.2
2 3 -10 -0.14 0.43
-2 3 10 0.32 0.47
-2 -3 10 0.26 0.22
2 3 -9 56.99 3.62
-2 3 9 60.34 3.6
-2 -3 9 57.05 3.65
-2 -3 9 53.67 2.76
-2 3 9 52.7 3.58
2 -3 -9 61.95 3.84
2 3 -8 230.69 7.57
-2 -3 8 229.5 7.42
2 -3 -8 229.85 7.67
-2 3 8 226.46 7.12
-2 -3 8 218.25 6.07
-2 3 8 218.44 7.6
-2 3 7 32.92 2.5
-2 -3 7 32.56 1.95
2 -3 -7 32.34 2.49
-2 3 7 30.81 2.25
-2 -3 7 32.26 2.38
2 3 -7 32.84 2.47
-2 3 6 22.16 1.75
2 -3 -6 21.11 1.97
-2 -3 6 22.98 1.9
2 3 -6 22.96 1.96
-2 -3 6 22.95 1.57
2 3 -5 53.1 2.92
-2 -3 5 57.74 2.87
-2 3 5 53.46 2.61
-2 -3 5 54.11 2.43
2 -3 -5 59.54 3.09
-2 -3 4 207.66 5.45
-2 -3 4 216.72 6
-2 3 4 217.47 5.71
2 -3 -4 212.49 6.29
2 3 -4 211.88 6.13
2 3 -3 54.63 2.59
-2 3 3 48.16 2.29
-2 -3 3 51.19 2.49
2 -3 -3 51.02 2.62
-2 -3 3 50.39 2.3
2 3 -2 132.33 4.1
-2 -3 2 138.62 4.18
2 -3 -2 141.01 4.03
-2 -3 2 135 4.3
-2 3 2 140.79 4.1
2 -3 -2 129.86 4.24
-2 -3 1 1.88 0.46
-2 -3 1 2.38 0.5
2 3 -1 2.02 0.41
2 -3 -1 1.92 0.42
2 -3 -1 2.06 0.44
2 3 0 -0.22 0.18
-2 -3 0 0.17 0.21
2 -3 0 0.02 0.09
2 -3 0 -0.08 0.07
-2 -3 0 0.07 0.15
-2 -3 -1 2.9 0.57
-2 3 -1 1.98 0.51
2 3 1 2.17 0.33
2 -3 1 2.22 0.48
2 3 1 1.77 0.48
2 -3 1 2.24 0.37
2 3 2 277.13 5.21
-2 3 -2 277.66 7.23
2 -3 2 271.41 5.23
2 3 2 285.15 7.14
-2 -3 -2 269.72 7.17
-2 3 -2 285.58 5.21
2 -3 2 291.95 6.93
-2 3 -3 76.64 3.42
2 -3 3 78.68 3.27
-2 -3 -3 80.7 3.42
2 3 3 74.36 3.31
2 -3 4 -0.12 0.17
2 3 4 -0.24 0.15
-2 -3 -4 -0.25 0.24
-2 3 -4 0.05 0.21
-2 3 -5 21.1 1.88
2 3 5 19.34 1.8
2 -3 5 19.33 1.78
-2 -3 -5 20.2 1.87
-2 -3 -6 1.44 0.53
2 -3 6 0.94 0.46
-2 3 -6 1.59 0.59
2 3 6 0.73 0.22
-2 3 -7 30.89 2.55
2 3 7 32.37 2.63
2 -3 7 32.99 2.62
-2 -3 -7 32.37 2.53
-2 -3 -8 34.44 2.74
2 -3 8 35.24 2.89
2 3 8 32.39 2.81
-2 3 -8 37.34 2.91
-2 3 -9 19.42 2.22
2 -3 9 18.73 2.2
2 3 9 19.4 2.32
-2 -3 -9 18.93 2.16
-2 3 -10 -0.73 0.38
-2 -3 -10 0.45 0.33
2 3 10 -0.57 0.47
2 -3 10 0.58 0.55
2 3 11 -0.4 0.5
-2 3 -11 -0.12 0.57
-2 -3 -11 0.43 0.31
2 -3 11 -0.3 0.47
2 3 12 -0.37 0.32
-2 3 -12 1.06 0.75
2 -3 12 0.58 0.54
2 3 13 0.98 0.92
2 -3 13 -0.56 0.61
2 3 14 2.63 1.04
2 -3 14 2.47 1.14
-2 -4 14 0.39 0.54
-2 4 13 2.1 0.89
2 4 -13 0.86 0.7
-2 4 13 3.38 1.26
-2 -4 13 2.53 0.92
-2 4 12 0.11 0.27
2 4 -12 0.85 0.75
-2 4 12 1.06 0.69
-2 -4 12 0.76 0.47
-2 4 11 -0.01 0.32
-2 4 11 -0.4 0.59
2 4 -11 0.43 0.56
-2 -4 11 0.35 0.44
2 4 -10 0.11 0.35
2 -4 -10 0.1 0.34
-2 4 10 0.2 0.37
-2 -4 10 0.42 0.54
-2 4 10 1.08 0.59
2 -4 -9 29.43 2.77
-2 4 9 29.72 2.57
-2 -4 9 29.89 2.71
2 4 -9 28.33 2.73
-2 4 9 23.76 2.53
2 4 -8 -0.67 0.45
-2 4 8 -0.4 0.42
2 -4 -8 -0.47 0.41
-2 -4 8 0.23 0.32
-2 -4 8 -0.26 0.31
-2 4 8 -0.22 0.29
2 4 -7 1.97 0.74
-2 4 7 2.33 0.56
2 -4 -7 0.93 0.61
-2 -4 7 2.02 0.68
-2 -4 7 2.05 0.48
2 -4 -6 38.27 2.89
-2 -4 6 41.39 2.81
-2 -4 6 34.83 2.11
-2 4 6 41.36 2.64
2 4 -6 38.97 2.78
2 4 -5 36.21 2.54
-2 -4 5 35.49 2.49
2 -4 -5 30.6 2.51
-2 4 5 34.04 2.29
-2 -4 5 37.05 2.13
-2 -4 4 0.24 0.17
2 4 -4 0.79 0.37
-2 4 4 0.8 0.34
-2 -4 4 1.01 0.39
2 -4 -4 0.2 0.18
-2 -4 3 24.47 1.72
2 -4 -3 22.44 1.92
-2 4 3 23.46 1.78
2 4 -3 23.34 1.81
-2 -4 3 25.18 1.98
2 4 -2 23.24 1.7
-2 -4 2 22.58 1.7
2 -4 -2 23.74 1.82
-2 4 2 24.76 1.77
2 -4 -2 20.05 1.61
-2 -4 2 24.56 1.87
2 4 -1 53.7 2.49
-2 -4 1 56.94 2.78
-2 4 1 53.53 2.6
2 -4 -1 56.37 2.69
-2 -4 1 54.06 2.85
2 -4 -1 55.07 2.6
2 4 0 20.79 1.36
2 -4 0 21.44 1.64
-2 -4 0 18.73 1.68
2 -4 0 21.66 1.47
-2 -4 0 21.99 1.73
-2 4 0 22.73 1.7
-2 -4 -1 0.66 0.33
2 4 1 0.58 0.23
-2 4 -1 0.52 0.3
2 -4 1 0.39 0.15
-2 -4 -1 0.53 0.28
2 4 1 0.16 0.14
2 -4 1 0.58 0.23
-2 4 -2 6.73 1.01
-2 -4 -2 6.06 0.97
2 4 2 4.75 0.86
2 4 2 5.51 0.51
2 -4 2 5.61 0.86
2 -4 2 5.14 0.58
-2 4 -3 47.55 2.84
2 -4 3 46.36 2.71
-2 -4 -3 48.91 2.87
2 4 3 42.31 2.68
-2 4 -3 39.64 1.4
2 4 4 -0.13 0.24
-2 4 -4 0.52 0.23
-2 -4 -4 0.56 0.38
2 -4 4 1.07 0.51
-2 -4 -5 22.64 2.19
2 -4 5 25.05 2.2
2 4 5 23.7 2.16
-2 4 -5 22.66 2.14
-2 -4 -6 0.09 0.24
-2 4 -6 -0.03 0.25
2 4 6 -0.39 0.44
2 -4 6 0.1 0.27
-2 -4 -7 -0.13 0.44
-2 4 -7 -0.12 0.22
2 4 7 0.35 0.29
2 -4 7 0.58 0.41
-2 4 -8 2.22 0.8
2 -4 8 2.24 0.87
-2 -4 -8 3.4 1.01
2 4 8 2.37 0.84
-2 4 -9 10.65 1.72
2 4 9 7.8 1.61
2 -4 9 12.22 1.88
-2 -4 -9 13.39 1.87
2 4 10 -0.05 0.41
2 -4 10 0.23 0.33
-2 -4 -10 -0.73 0.49
-2 4 -10 0.34 0.39
2 4 11 0.39 0.37
-2 -4 -11 -0.35 0.5
-2 4 -11 1.34 0.68
2 -4 11 -0.46 0.61
2 4 12 -0.63 0.69
-2 4 -12 0.25 0.49
2 -4 12 -0.92 0.61
2 4 13 0.69 0.6
2 -4 13 0.67 0.76
-2 5 13 0.3 0.46
2 5 -13 -0.43 0.7
-2 5 13 -0.92 0.76
-2 -5 13 -0.24 0.69
-2 5 12 0.1 0.32
-2 5 12 0.65 0.41
-2 -5 12 1.36 0.77
2 5 -12 1.66 0.94
-2 -5 11 4.03 1.28
2 5 -11 3.5 1.28
2 -5 -11 4.24 1.09
-2 5 11 3.01 0.96
-2 5 11 3.25 1.06
-2 -5 10 3.79 1.18
-2 5 10 5 1.24
2 5 -10 3.87 1.21
2 -5 -10 3.77 1.14
-2 5 10 4.92 1.34
-2 5 9 31.5 2.85
2 5 -9 30.02 2.97
-2 -5 9 30.8 2.93
2 -5 -9 32.87 3.11
-2 5 9 29.92 2.91
-2 -5 8 46.13 3.49
-2 5 8 37.96 3.02
2 5 -8 33.56 3.01
2 5 -7 0.95 0.52
-2 -5 7 0.79 0.45
-2 -5 7 0.95 0.51
2 -5 -7 0.3 0.24
-2 5 7 1.02 0.59
2 -5 -6 0.09 0.24
2 5 -6 0.42 0.37
-2 5 6 -0.26 0.32
-2 -5 6 -0.01 0.23
-2 -5 6 0.22 0.23
2 5 -5 55.02 3.4
-2 -5 5 57.59 3.54
-2 -5 5 43.62 2.64
-2 5 5 61.87 3.42
2 -5 -5 59.94 3.66
-2 5 4 55.3 2.54
2 -5 -4 57.36 3.39
-2 5 4 52.28 3.16
2 5 -4 52 3.15
-2 -5 4 58.47 2.95
-2 -5 4 57.61 3.44
-2 5 3 0.47 0.36
-2 -5 3 0.5 0.32
-2 -5 3 1.06 0.49
2 5 -3 0.3 0.29
-2 5 3 0.15 0.17
2 -5 -3 0.41 0.39
2 5 -2 -0.01 0.25
-2 -5 2 0.08 0.18
-2 5 2 0.27 0.38
-2 5 2 0.23 0.18
2 -5 -2 0.06 0.18
-2 -5 2 -0.14 0.36
2 -5 -2 0.02 0.25
-2 5 1 5.18 0.82
-2 -5 1 6.01 0.98
2 -5 -1 3.86 0.8
-2 -5 1 6.36 1.12
2 5 -1 6.39 0.9
2 -5 -1 6.12 0.97
-2 -5 0 25.47 2.21
2 -5 0 27.73 2.15
2 -5 0 27.86 1.91
-2 5 0 29.42 2.12
-2 -5 0 27.53 2.18
2 5 0 26.89 1.74
2 5 1 0.16 0.14
2 5 1 -0.07 0.1
-2 5 -1 0.21 0.22
-2 -5 -1 0.17 0.23
-2 -5 -1 0.01 0.22
2 -5 1 -0.43 0.36
2 -5 1 0.28 0.18
2 5 2 0.77 0.22
-2 -5 -2 0.81 0.47
2 5 2 1.03 0.43
-2 5 -2 1.14 0.42
2 -5 2 1.61 0.63
2 -5 2 1.23 0.35
-2 -5 -3 1.44 0.53
2 5 3 0.33 0.34
-2 5 -3 1.19 0.53
2 -5 3 1.09 0.43
-2 -5 -4 5.91 1.18
2 5 4 7.44 1.22
-2 5 -4 7.46 1.24
2 -5 4 5.1 1.08
-2 5 -5 29.58 2.63
2 -5 5 27.59 2.52
-2 -5 -5 26.81 2.61
2 5 5 24.96 2.4
-2 -5 -6 0.99 0.61
2 5 6 1.04 0.54
-2 5 -6 -0.2 0.27
2 -5 6 -0.13 0.39
-2 -5 -7 0.52 0.48
2 5 7 0.21 0.25
-2 5 -7 1.27 0.62
2 -5 7 0.33 0.25
-2 5 -8 2.37 1.05
2 -5 8 2.55 0.82
2 5 8 1.07 0.49
-2 -5 -8 0.86 0.59
2 5 9 9.72 1.83
-2 5 -9 11.08 1.91
2 -5 9 9 1.66
-2 -5 -9 6.53 1.4
-2 5 -10 0.49 0.3
2 5 10 1.09 0.52
2 -5 10 0.69 0.59
-2 -5 -10 1.13 0.92
-2 5 -11 1.41 0.9
2 5 11 -0.13 0.37
2 -5 11 0.89 0.57
-2 -5 -11 -0.13 0.52
2 5 12 -0.13 0.36
-2 5 -12 1.24 0.77
2 -5 12 0.59 0.89
2 5 13 -0.66 0.84
2 -5 13 0.67 0.91
2 6 -13 1.07 0.64
-2 -6 13 1.08 0.91
2 6 -12 0.57 0.66
-2 6 12 0.31 0.45
-2 -6 12 0.29 0.47
-2 6 12 0.91 0.78
-2 6 11 -0.55 0.65
2 6 -11 -0.72 0.73
2 -6 -11 0.89 0.73
-2 -6 11 -0.3 0.49
-2 6 11 -0.37 0.79
-2 6 10 -0.02 0.49
2 6 -10 0.11 0.62
2 -6 -10 -0.09 0.5
-2 -6 10 -0.28 0.32
-2 6 10 -0.77 0.57
-2 6 9 1.9 0.77
2 -6 -9 2.21 0.94
2 6 -9 2.11 0.67
-2 -6 9 3.88 1.16
2 -6 -8 0.2 0.4
-2 6 8 -0.4 0.5
2 6 -8 0.32 0.43
-2 -6 8 -0.09 0.37
-2 6 7 -0.1 0.35
2 6 -7 0.46 0.51
-2 -6 7 0.55 0.55
2 -6 -7 0.49 0.26
2 6 -6 2.12 0.76
-2 6 6 2.81 0.87
-2 -6 6 2.54 0.67
-2 -6 6 3.65 0.97
2 -6 -6 2.31 0.8
2 6 -5 10.5 1.52
-2 6 5 7.63 1.34
-2 -6 5 9.11 1.2
-2 -6 5 8.5 1.49
2 -6 -5 9.53 1.57
-2 6 4 5.42 0.85
-2 6 4 4.98 0.99
-2 -6 4 6.91 1.28
-2 -6 4 7.17 1.11
2 6 -4 6.07 1.1
2 -6 -4 6.38 1.34
-2 -6 3 5.54 1
2 6 -3 6.87 1.14
-2 6 3 6.04 0.93
-2 6 3 6.31 1.16
-2 -6 3 6.11 1.23
2 -6 -3 6.61 1.21
-2 6 2 14.38 1.47
2 6 -2 14.97 1.59
2 -6 -2 14.44 1.73
-2 -6 2 11.75 1.66
-2 -6 2 15.76 1.72
-2 6 2 12.43 1.62
2 -6 -2 15.64 1.76
2 6 -1 0.08 0.29
-2 -6 1 0.25 0.28
2 -6 -1 -0.32 0.36
2 -6 -1 0.24 0.3
-2 -6 1 0.3 0.46
-2 6 1 -0.03 0.28
-2 -6 0 6.29 1.17
-2 6 0 6.63 1.07
2 6 0 7.31 1.34
-2 -6 0 6.92 1.24
2 -6 0 6.95 1.2
2 6 0 7.92 1
2 -6 0 7.12 1.08
-2 -6 -1 2.22 0.71
2 6 1 2.63 0.5
-2 6 -1 2.88 0.75
2 6 1 2.12 0.68
2 -6 1 2.23 0.68
-2 -6 -1 2.83 0.82
2 -6 1 2.53 0.66
-2 6 -2 0.33 0.16
-2 -6 -2 0.03 0.18
2 6 2 0.44 0.37
2 -6 2 0.55 0.31
2 -6 2 0.68 0.33
-2 -6 -3 0.77 0.25
2 6 3 0.19 0.29
-2 6 -3 1.66 0.62
2 -6 3 1.71 0.64
2 6 4 5.03 1.1
-2 -6 -4 6.42 1.27
-2 6 -4 5.2 1.19
2 -6 4 6.04 1.18
-2 -6 -5 9.32 1.62
-2 6 -5 9.61 1.59
2 -6 5 9.14 1.51
2 6 5 8.47 1.48
-2 -6 -6 0.35 0.47
2 6 6 1.17 0.59
2 -6 6 0.51 0.44
-2 6 -6 0.32 0.24
-2 -6 -7 0.3 0.59
2 6 7 0.02 0.25
2 -6 7 -0.21 0.33
-2 6 -7 -0.55 0.5
2 6 8 1.72 0.71
-2 6 -8 3.26 1.24
2 -6 8 3.26 1.07
-2 -6 -8 2.64 1.01
2 6 9 0.48 0.44
-2 6 -9 1.62 0.79
2 -6 9 2.41 0.88
-2 -6 -9 1.06 0.67
2 6 10 0.46 0.61
2 -6 10 0.17 0.48
-2 -6 -10 1.25 0.81
-2 6 -11 -0.48 0.72
2 6 11 0.16 0.48
2 -6 11 1.34 1.04
-2 -6 -11 1.25 0.98
2 6 12 -1.14 1.06
2 -6 12 0.05 0.74
-2 7 12 0.46 0.43
2 7 -12 -0.63 0.95
2 -7 -12 -0.83 0.92
2 7 -11 2.31 1.26
2 -7 -11 3.25 1.33
-2 7 11 0.75 0.39
-2 -7 11 1.6 1.03
2 -7 -10 1.69 0.94
2 7 -10 1.45 0.92
-2 -7 10 0.68 0.78
-2 7 10 0.91 0.9
-2 7 10 0.47 0.71
-2 7 9 9.55 1.77
2 7 -9 8.66 1.77
-2 -7 9 9.28 1.94
2 -7 -9 9.58 2.06
-2 7 8 15.83 2.16
2 -7 -8 14.85 2.44
2 7 -8 15.23 2.33
-2 -7 8 13.93 2.25
-2 7 7 -0.58 0.55
2 7 -7 1.19 0.33
-2 -7 7 0.45 0.48
2 -7 -7 0.42 0.49
2 7 -6 0.04 0.62
-2 -7 6 -0.05 0.22
2 -7 -6 0.15 0.23
2 7 -5 4.68 1.22
-2 7 5 3.93 1.03
-2 -7 5 4.25 1.14
-2 -7 5 2.54 0.69
2 -7 -5 3.77 1.19
2 7 -4 11.93 1.71
-2 -7 4 14.27 1.67
-2 -7 4 14.62 2.04
-2 7 4 14.8 1.99
2 -7 -4 13.72 1.97
-2 7 3 -0.23 0.3
2 7 -3 0.38 0.46
-2 -7 3 0.22 0.32
-2 -7 3 0.27 0.29
-2 7 3 0.77 0.56
2 -7 -3 0.5 0.52
2 7 -2 -0.2 0.35
-2 7 2 0.14 0.32
2 -7 -2 -0.17 0.38
-2 -7 2 0.14 0.32
2 -7 -2 -0.23 0.32
-2 -7 2 0.23 0.31
-2 7 2 -0.31 0.25
2 -7 -1 0.3 0.29
-2 -7 1 0.22 0.2
-2 -7 1 0.36 0.4
2 7 -1 0.19 0.17
-2 7 1 -0.06 0.18
2 -7 -1 0.28 0.36
2 7 0 -0.2 0.22
-2 7 0 0.16 0.33
2 7 0 0.17 0.36
-2 -7 0 0.18 0.38
-2 -7 0 0.11 0.45
2 -7 0 0.01 0.3
2 -7 0 -0.26 0.2
-2 7 -1 0.43 0.38
2 7 1 -0.46 0.48
-2 -7 -1 0.01 0.18
2 -7 1 0.5 0.2
2 -7 1 -0.19 0.18
2 7 2 1.18 0.67
-2 -7 -2 1.77 0.76
-2 7 -2 2.01 0.8
2 -7 2 0.99 0.66
2 7 3 1.62 0.69
-2 -7 -3 1.22 0.71
-2 7 -3 0.86 0.57
2 -7 3 1.1 0.48
2 7 4 0.26 0.33
-2 -7 -4 -0.16 0.3
2 -7 4 0.57 0.29
-2 -7 -5 0.84 0.65
-2 7 -5 0.58 0.48
2 7 5 0.34 0.56
2 -7 5 1.11 0.65
-2 -7 -6 -0.17 0.42
-2 7 -6 -0.32 0.59
2 7 6 -0.13 0.29
2 -7 6 0.97 0.66
2 7 7 1.79 0.94
-2 7 -7 0.45 0.57
2 -7 7 0.58 0.63
-2 -7 -7 0.43 0.6
2 7 8 0.31 0.51
2 -7 8 1.22 0.61
-2 7 -8 0.52 0.62
-2 -7 -8 1.29 0.86
-2 -7 -9 2.34 1.11
-2 7 -9 1.63 1.05
2 -7 9 1.79 1
2 7 9 1.37 0.79
-2 7 -10 0.26 0.74
2 7 10 0.02 0.36
2 -7 10 -0.99 0.93
-2 -7 -10 1.15 1.01
2 7 11 -1.3 1.14
2 8 -10 -0.3 0.57
2 -8 -10 -0.09 0.59
-2 -8 10 -0.4 0.66
-2 8 10 0.34 0.77
-2 8 9 1.76 0.85
2 -8 -9 2.95 1.31
2 8 -9 1.93 1.1
-2 8 9 2.73 1.01
-2 -8 9 1.57 0.94
-2 -8 8 -0.38 0.85
2 8 -8 -0.09 0.79
-2 8 8 0.97 0.79
2 -8 -8 -1.14 0.77
2 8 -7 -0.35 0.75
-2 8 7 -0.18 0.65
-2 -8 7 -0.1 0.37
2 -8 -7 0.5 0.59
2 8 -6 2.94 1.02
-2 8 6 3.05 1.1
-2 -8 6 3.32 1.09
2 -8 -6 3.9 1.28
-2 8 5 -0.56 0.65
2 8 -5 0.76 0.49
-2 -8 5 0.34 0.29
2 -8 -5 0.54 0.49
2 8 -4 -0.28 0.28
-2 8 4 0.43 0.32
-2 -8 4 -0.1 0.38
2 -8 -4 0.57 0.33
-2 -8 3 0.45 0.51
2 -8 -3 0.38 0.47
2 8 -3 -0.24 0.41
-2 8 3 -0.12 0.49
-2 -8 3 0.02 0.46
2 -8 -2 0.37 0.47
-2 -8 2 0.3 0.3
-2 -8 2 0.13 0.27
-2 8 2 -0.79 0.49
-2 8 2 -0.08 0.45
2 8 -2 0.4 0.32
-2 8 1 2.24 0.76
2 8 -1 2.72 0.84
-2 -8 1 1.04 0.47
-2 -8 1 1.75 0.78
-2 8 1 1.64 0.73
2 8 -1 1.55 0.77
2 -8 -1 1.77 0.75
2 -8 -1 1.78 0.69
-2 -8 0 0.17 0.49
2 8 0 0.4 0.39
-2 8 0 0.55 0.4
2 -8 0 -0.22 0.29
-2 -8 0 0.07 0.49
2 -8 0 0.32 0.25
-2 -8 -1 1.18 0.75
2 -8 1 1.32 0.61
-2 8 -1 1.82 0.58
2 8 1 1.91 0.79
-2 -8 -2 -0.12 0.4
-2 8 -2 1.34 0.62
2 -8 2 0.28 0.37
2 8 2 0.94 0.56
2 8 3 3.19 1.09
-2 -8 -3 2.08 0.88
-2 8 -3 2.42 0.84
2 -8 3 3.07 1.06
-2 -8 -4 -0.64 0.69
2 -8 4 0.27 0.33
2 8 4 0.02 0.39
-2 8 -4 0.86 0.7
-2 -8 -5 1.61 0.88
2 8 5 1.46 0.75
-2 8 -5 2.4 1.1
2 -8 5 2.55 1.09
-2 -8 -6 0.5 0.32
2 8 6 0.06 0.46
-2 8 -6 1.3 0.94
2 -8 6 0.53 0.67
-2 8 -7 1.17 0.79
2 8 7 0.49 0.63
2 -8 7 -0.8 0.73
-2 -8 -7 -0.83 0.88
-2 8 -8 0.77 0.71
2 8 8 0.29 0.42
2 -8 8 1.68 0.84
-2 -8 -8 0.26 0.48
2 8 9 -0.48 0.64
-2 -8 -9 -0.43 0.54
2 -8 9 2.62 1.08
-2 8 -9 2.33 1.21
2 -9 -8 3.39 1.4
-2 -9 8 3.17 1.43
2 9 -7 1 0.83
2 -9 -7 0.73 0.83
-2 9 7 0.44 0.62
-2 -9 7 -0.56 0.74
2 9 -6 0.4 0.48
-2 9 6 -0.62 0.56
-2 -9 6 0.86 0.57
2 -9 -6 0.43 0.69
2 9 -5 -0.09 0.6
-2 9 5 0.89 0.68
-2 -9 5 -0.02 0.4
2 -9 -5 0.24 0.55
2 9 -4 3.46 1.15
-2 9 4 2.03 1.01
-2 -9 4 1.32 1.02
2 -9 -4 3.75 1.2
-2 9 3 0.32 0.42
-2 -9 3 1.04 0.55
2 -9 -3 -0.46 0.63
-2 9 2 0.14 0.54
2 -9 -2 -0.03 0.28
-2 -9 2 0.98 0.79
-2 -9 1 0.37 0.58
2 -9 -1 0.54 0.49
-2 9 1 1.07 0.76
-2 -9 1 -0.04 0.52
2 9 -1 1.05 0.78
-2 -9 0 0.44 0.51
2 -9 0 1.04 0.76
-2 9 0 0.48 0.3
2 9 0 0.27 0.68
-2 9 -1 -0.75 0.53
-2 -9 -1 -1 0.62
2 -9 1 -0.49 0.7
2 9 1 -0.99 0.73
-2 -9 -2 0.5 0.37
-2 9 -2 0.39 0.77
2 9 2 -0.36 0.31
2 -9 2 0.38 0.53
2 9 3 0.06 0.35
-2 -9 -3 0.19 0.61
2 -9 3 1.69 0.93
-2 9 -3 0.52 0.53
-2 -9 -4 -0.5 0.74
2 9 4 0.71 0.93
-2 9 -4 -0.56 0.64
2 -9 4 -0.19 0.37
-2 -9 -5 0.62 0.81
-2 9 -5 -0.1 0.48
2 -9 5 -0.02 0.58
2 9 5 0.65 0.85
2 9 6 -0.11 0.46
-2 9 -6 0.08 0.48
2 -9 6 -0.77 0.66
-2 -9 -6 -0.89 0.75
-2 9 -7 0.07 0.52
2 -9 7 0.47 0.69
2 9 7 0.4 0.61
-2 -9 -7 -0.48 0.82
-2 -10 5 0.32 0.61
-2 -10 4 0.02 0.84
-2 10 3 -0.58 0.66
-2 -10 3 -0.84 0.75
-2 10 2 0.31 0.56
2 10 -2 0.25 0.6
-2 -10 2 0.5 0.74
2 10 -1 0.45 0.77
-2 10 1 -0.46 0.89
-2 -10 1 -0.6 1.01
2 -10 0 0.59 0.7
2 10 0 0.79 0.64
-2 10 0 1.77 0.92
2 10 1 -0.07 0.52
-2 10 -1 -0.28 0.49
2 -10 1 0.12 0.77
2 10 2 -0.18 0.61
2 -10 2 -0.64 0.67
2 10 3 -0.73 0.93
2 -10 3 0.43 0.67
2 10 4 0.66 0.6
-3 0 15 -0.11 0.69
-3 0 14 1 0.53
-3 0 13 4.91 1.2
-3 0 13 4.49 1.13
-3 0 12 0.19 0.25
3 0 -12 0.63 0.29
-3 0 12 0.29 0.27
-3 0 11 0.44 0.3
3 0 -11 -0.22 0.26
-3 0 11 0.31 0.24
-3 0 10 5.45 1.01
3 0 -10 4.99 0.93
-3 0 10 5.44 1
-3 0 9 51.03 2.99
-3 0 9 51.07 3.07
3 0 -9 50.12 2.9
3 0 -8 22.95 1.84
-3 0 8 21.94 1.77
-3 0 8 22.93 1.91
3 0 -7 140.79 4.78
-3 0 7 145.09 4.65
-3 0 7 146.42 4.99
-3 0 6 98.23 3.41
3 0 -6 101.35 3.73
-3 0 6 98.41 3.77
3 0 -5 107.34 3.7
-3 0 5 109.32 3.22
-3 0 5 106.07 3.79
-3 0 4 7.55 0.63
3 0 -4 7.87 0.87
-3 0 4 7.49 0.89
-3 0 3 370.91 6.44
-3 0 3 344.89 7.8
3 0 -3 374.47 7.82
-3 0 2 6.34 0.68
-3 0 1 558.24 10.32
3 0 0 141.45 2.97
-3 0 0 146.03 3.65
3 0 1 23.45 1.14
-3 0 -1 21.92 1.17
3 0 2 4.12 0.56
-3 0 -2 4.03 0.51
3 0 3 83.94 3.01
-3 0 -3 76.82 2.56
-3 0 -4 37.34 1.97
-3 0 -4 38.18 1.76
3 0 4 37.79 2.18
3 0 5 169.48 5.4
-3 0 -5 163.65 4.84
-3 0 -5 164.3 4.41
3 0 6 0.3 0.31
-3 0 -6 0.45 0.23
-3 0 -6 0.32 0.24
3 0 7 4.03 0.89
-3 0 -7 4.28 0.83
-3 0 -7 6.05 0.82
-3 0 -8 0.8 0.44
-3 0 -8 1.12 0.39
3 0 8 0.66 0.55
-3 0 -9 20.79 1.89
3 0 9 22.62 2.34
3 0 10 -0.39 0.52
3 0 11 0.68 0.47
3 0 12 0.16 0.5
3 0 13 5.2 1.56
3 0 14 1.06 0.82
-3 -1 15 1.83 1.19
-3 -1 14 0.94 0.63
-3 1 14 0.18 0.44
3 1 -13 1.7 0.71
-3 1 13 1.65 0.73
-3 -1 13 1.34 0.8
-3 1 13 1.55 0.59
3 -1 -12 5.28 1.04
3 1 -12 6.65 1.27
-3 1 12 5.42 1.22
-3 -1 12 8.14 1.38
-3 -1 12 7 1.31
-3 1 12 9.22 1.56
3 -1 -11 1.05 0.53
3 1 -11 0.65 0.47
-3 1 11 1.04 0.53
-3 -1 11 0.93 0.43
-3 -1 11 0.92 0.48
-3 1 11 0.87 0.52
3 -1 -10 8.38 1.18
3 1 -10 8.77 1.32
-3 1 10 9.83 1.44
-3 -1 10 11.27 1.43
-3 -1 10 8.88 1.3
-3 1 10 9.27 1.35
-3 1 9 4.39 0.87
3 1 -9 5.55 1
3 -1 -9 5.31 0.86
-3 -1 9 4.42 0.83
-3 1 9 6.22 1.08
-3 -1 9 5.18 0.96
-3 -1 8 94.34 4
-3 1 8 97.39 3.91
3 1 -8 88.94 4.03
-3 -1 8 91.21 3.9
-3 1 8 84.93 4.05
3 -1 -8 93.37 3.73
-3 1 7 5.23 0.77
3 1 -7 4.4 0.83
3 -1 -7 4.68 0.74
-3 1 7 3.5 0.76
-3 -1 7 3.91 0.78
-3 -1 7 5.04 0.78
3 -1 -6 82.17 3.3
3 1 -6 75.81 3.41
-3 -1 6 86.26 3.22
-3 1 6 85.42 3.11
-3 -1 6 85.58 3.42
-3 1 6 89.13 3.72
-3 1 5 0.25 0.09
3 1 -5 0.49 0.24
-3 -1 5 0.64 0.27
-3 1 5 1.02 0.41
-3 -1 5 0.41 0.18
-3 -1 4 737.2 12.99
-3 -1 4 729.87 13.8
3 1 -4 734.87 13.99
-3 1 4 720.38 12.6
-3 1 4 753.88 14.08
3 1 -3 28.11 1.63
-3 -1 3 26.29 1.29
-3 1 3 29.02 1.05
-3 -1 3 28.12 1.6
-3 1 3 29.77 1.72
-3 -1 2 5.93 0.7
3 1 -2 7.49 0.76
-3 1 2 6.05 0.35
-3 1 2 6.31 0.72
-3 -1 2 5.97 0.56
-3 -1 1 106.31 3.13
-3 -1 1 104.02 2.46
-3 1 1 106.71 2.95
3 1 -1 99.67 2.45
3 1 -1 100.77 3
-3 -1 0 715.12 12.55
3 1 0 675.58 11.72
3 -1 0 672.6 11.28
-3 1 0 682.83 11.94
3 -1 1 222 4.82
3 1 1 222.17 5.03
-3 -1 -1 231.58 5.44
-3 1 -1 227.8 4.65
3 1 2 -0.1 0.18
-3 -1 -2 0.08 0.07
-3 1 -2 0.32 0.15
3 -1 2 0.01 0.06
3 1 3 53.92 2.46
3 -1 3 63.31 2.57
-3 -1 -3 54.45 2.4
-3 1 -3 58.29 1.75
3 1 4 25.24 1.76
3 -1 4 24.79 1.73
-3 1 -4 21.26 1.04
-3 -1 -4 23.36 1.59
-3 1 -4 22.21 1.68
-3 1 -5 0.05 0.06
-3 -1 -5 0.33 0.2
-3 -1 -5 0.29 0.23
-3 1 -5 0.78 0.38
3 1 5 0.48 0.34
3 -1 5 -0.06 0.17
-3 -1 -6 10.25 1.15
3 1 6 10.06 1.31
-3 -1 -6 9.72 0.97
-3 1 -6 10.58 1.22
-3 1 -6 9.51 0.74
3 -1 6 10.99 1.34
-3 -1 -7 2.47 0.62
3 1 7 1.15 0.5
-3 -1 -7 1.65 0.51
-3 1 -7 1.84 0.6
3 -1 7 1.25 0.55
-3 -1 -8 8.75 1.04
3 1 8 13.14 1.72
-3 1 -8 9.78 1.37
-3 -1 -8 9.74 1.22
3 -1 8 11.66 1.6
3 1 9 6.71 1.3
-3 1 -9 7.92 1.2
-3 -1 -9 6.21 0.98
3 -1 9 7.45 1.37
3 1 10 -0.47 0.53
-3 1 -10 0.19 0.39
3 -1 10 0.63 0.49
3 -1 11 0.21 0.71
3 1 11 -0.48 0.54
3 -1 12 0.58 0.68
3 1 12 0.31 0.36
3 -1 13 -0.97 0.86
3 1 13 0.45 0.34
3 -1 14 7.49 1.89
3 1 14 4.72 1.42
-3 2 14 1.65 0.93
-3 -2 14 3.35 1.15
-3 2 14 2.34 0.85
3 2 -13 0.09 0.41
-3 2 13 -0.68 0.58
-3 -2 13 0.16 0.4
-3 2 13 0.29 0.49
-3 2 12 -0.35 0.46
3 2 -12 0.76 0.66
-3 2 12 -0.07 0.27
-3 -2 12 -0.35 0.49
-3 2 11 6.54 1.24
-3 -2 11 4.35 0.93
-3 -2 11 5.19 1.13
3 2 -11 6.53 1.29
-3 2 11 4.89 1.12
-3 2 10 6.45 1.16
-3 2 10 6.11 1.21
3 2 -10 5.54 1.09
-3 -2 10 4.79 0.92
-3 -2 10 6.28 1.2
-3 -2 9 4.42 0.83
-3 2 9 5.98 1.07
3 2 -9 6.28 1.12
-3 2 9 7.48 1.23
-3 -2 9 5.76 1.07
-3 2 8 0.01 0.24
3 2 -8 -0.22 0.39
-3 -2 8 0.11 0.12
-3 2 8 0.78 0.5
-3 -2 8 0.09 0.27
-3 2 7 53.83 2.68
-3 -2 7 53.25 2.84
3 2 -7 50.08 2.97
-3 2 7 47.27 2.98
-3 -2 7 53.57 2.74
-3 2 6 1.93 0.42
-3 -2 6 3.56 0.64
-3 2 6 1.93 0.62
-3 -2 6 0.98 0.31
3 2 -6 1.49 0.44
3 2 -5 37.16 2.27
-3 -2 5 37.66 2.06
-3 2 5 38.59 1.9
-3 -2 5 40.55 2.16
-3 2 5 35.58 2.31
-3 -2 4 83.24 3.11
-3 2 4 88.41 2.77
-3 -2 4 85.57 3.2
-3 2 4 90.63 3.59
3 2 -4 89.35 3.44
-3 -2 3 7.3 0.86
3 2 -3 8.57 0.95
-3 2 3 8 0.95
-3 2 3 8 0.7
-3 -2 3 6.52 0.78
-3 2 2 0.08 0.11
3 2 -2 0.02 0.11
-3 2 2 0 0.06
-3 -2 2 0.14 0.14
-3 -2 2 -0.05 0.18
3 2 -1 0.36 0.16
3 -2 -1 0.39 0.12
-3 2 1 0.18 0.11
-3 -2 1 0.15 0.13
-3 -2 1 0.53 0.27
3 2 0 1.21 0.27
3 2 0 1.22 0.35
-3 2 0 1.4 0.27
-3 -2 0 1.49 0.4
3 -2 0 2 0.36
3 2 1 14.07 1.13
3 -2 1 13.28 1
-3 2 -1 13.82 0.81
-3 -2 -1 13.58 1.17
3 -2 2 74.1 2.75
-3 -2 -2 72.92 3.01
3 2 2 68.67 2.86
-3 2 -2 68.02 1.77
3 -2 3 37.8 2.08
-3 -2 -3 39.07 2.21
3 2 3 36.23 2.12
-3 2 -3 38.33 2.29
3 2 4 0.62 0.28
-3 -2 -4 0.72 0.28
-3 2 -4 0.33 0.21
3 -2 4 0.69 0.29
-3 2 -5 56.05 3.06
3 -2 5 56.8 3.04
-3 -2 -5 61 3
-3 -2 -5 52.62 1.87
3 2 5 53.79 3.05
3 2 6 5.15 0.94
-3 -2 -6 5.8 0.93
-3 2 -6 6.76 1.08
3 -2 6 6.63 1.1
-3 -2 -7 0.97 0.44
-3 2 -7 1.07 0.44
3 2 7 1.39 0.64
3 -2 7 0.71 0.4
3 2 8 0.64 0.4
-3 2 -8 0.47 0.42
3 -2 8 -0.07 0.3
-3 -2 -8 0.15 0.24
3 2 9 6.92 1.39
-3 2 -9 5.4 1.11
3 -2 9 5.61 1.25
-3 -2 -9 5.14 1.09
3 2 10 -0.53 0.48
-3 2 -10 0.29 0.41
-3 -2 -10 0.26 0.39
3 -2 10 0.58 0.54
3 2 11 0.25 0.3
-3 2 -11 -0.1 0.27
3 -2 11 -0.43 0.6
3 2 12 0.04 0.52
3 -2 12 1.32 0.81
3 -2 13 2.57 1.2
3 2 13 6.35 1.6
3 -2 14 1.66 1.06
3 2 14 0.61 0.58
-3 3 14 0.05 0.49
3 3 -14 0.6 0.63
-3 -3 14 0.67 0.73
-3 3 14 0.3 0.78
-3 3 13 1.87 0.83
3 3 -13 2.23 1.06
-3 -3 13 1.76 0.89
-3 3 13 2.72 0.92
-3 3 12 8.06 1.52
-3 3 12 10.02 1.69
3 3 -12 11.66 1.84
-3 -3 12 10.47 1.76
-3 3 11 0.04 0.36
-3 3 11 0.77 0.58
3 3 -11 0.86 0.46
-3 -3 11 0.04 0.29
-3 3 10 -0.38 0.32
-3 -3 10 -0.13 0.2
-3 3 10 0.04 0.32
3 3 -10 -0.04 0.2
-3 -3 10 0.62 0.43
3 3 -9 0.09 0.24
-3 -3 9 0.31 0.28
-3 3 9 0.59 0.34
-3 -3 9 0.12 0.36
-3 3 9 -0.09 0.29
-3 3 8 26.96 2.14
-3 -3 8 24.69 2.2
-3 -3 8 24.72 1.93
3 3 -8 22.9 2.2
-3 3 8 22.52 2.2
3 3 -7 1.36 0.6
-3 3 7 1.57 0.53
-3 3 7 1.64 0.61
-3 -3 7 1.44 0.43
-3 -3 7 0.76 0.4
3 3 -6 32.62 2.41
-3 -3 6 33.45 2.26
-3 3 6 35.38 2.11
-3 -3 6 34.17 2.14
-3 3 6 31.03 2.47
3 3 -5 34.69 2.35
3 -3 -5 33.61 2.43
-3 -3 5 34.79 2.22
-3 3 5 37.02 2.02
-3 -3 5 34.73 2.11
-3 3 5 32.4 2.37
3 3 -4 155.64 5.11
-3 3 4 159.4 4.52
3 -3 -4 160.16 5.27
-3 -3 4 159.09 5
-3 -3 4 155.69 4.92
-3 3 4 161.25 5.23
3 -3 -3 20.55 1.7
-3 -3 3 23.4 1.65
-3 -3 3 21.26 1.6
-3 3 3 20.52 1.39
3 3 -3 22.17 1.65
-3 3 3 22.77 1.66
3 3 -2 33.45 1.98
3 -3 -2 38.25 1.82
-3 -3 2 33.98 2.05
-3 -3 2 38.88 2.19
-3 3 2 37.53 1.86
-3 3 2 37.8 2.07
-3 -3 1 24.94 1.72
3 -3 -1 25.75 1.51
3 3 -1 26.85 1.6
-3 -3 1 26.31 1.81
-3 3 1 24.82 1.51
3 3 0 45.38 2
-3 -3 0 48.3 2.43
3 -3 0 45.96 2.14
-3 -3 0 45.61 2.46
3 3 0 48.04 2.42
-3 3 0 48.32 1.99
3 3 1 185.47 4.41
3 -3 1 180.5 5.04
-3 -3 -1 197.2 5.7
3 3 1 177.15 5.37
-3 3 -1 183.36 4.22
-3 -3 -2 23.07 1.8
3 -3 2 23.28 1.63
3 3 2 22.55 1.72
-3 3 -2 21.46 0.95
-3 3 -2 22.93 1.87
-3 -3 -3 3.03 0.66
-3 3 -3 2.52 0.65
3 3 3 1.04 0.42
3 -3 3 2.44 0.63
-3 -3 -4 5.6 0.97
-3 3 -4 6.47 1.04
3 3 4 4.78 0.91
3 -3 4 6.08 0.97
-3 3 -5 10.02 1.37
-3 -3 -5 11.45 1.45
3 3 5 12.1 1.48
3 -3 5 12.01 1.46
-3 -3 -6 -0.14 0.17
-3 3 -6 -0.06 0.24
3 3 6 0.12 0.32
3 -3 6 -0.04 0.13
-3 -3 -7 -0.56 0.39
3 3 7 0.1 0.16
-3 3 -7 0.49 0.31
3 -3 7 0.07 0.21
-3 -3 -8 0.02 0.32
3 3 8 -0.06 0.21
-3 3 -8 -0.4 0.48
3 -3 8 0.15 0.18
3 3 9 1.17 0.7
-3 3 -9 1.02 0.57
3 -3 9 1.66 0.69
-3 -3 -9 1.63 0.56
3 3 10 -0.03 0.42
-3 3 -10 0.42 0.43
3 -3 10 0.25 0.57
-3 -3 -10 0.5 0.47
3 3 11 2.37 0.88
-3 3 -11 1.54 0.83
-3 -3 -11 1.31 0.68
3 -3 11 0.47 0.4
3 3 12 1.21 0.9
3 -3 12 0.82 1.05
3 3 13 0.66 0.59
3 -3 13 0.93 0.75
3 4 -14 0.17 0.61
-3 -4 14 0.74 0.44
-3 4 14 0.78 0.76
-3 4 13 -0.08 0.66
3 4 -13 0.74 0.57
-3 4 13 0.97 0.83
-3 -4 13 0.49 0.5
-3 4 12 0.86 0.61
3 4 -12 0.4 0.4
-3 4 12 -0.64 0.45
-3 -4 12 -0.35 0.26
-3 4 11 1.32 0.58
3 4 -11 2.06 0.86
-3 -4 11 1.77 0.78
-3 4 11 2.71 0.94
-3 4 10 2.74 0.92
3 4 -10 1.5 0.77
-3 -4 10 1.74 0.66
-3 4 10 1.24 0.6
-3 4 9 4.55 0.97
3 4 -9 5.78 1.2
-3 4 9 5.49 1.17
-3 -4 9 4.68 1.1
-3 -4 9 3.44 0.76
-3 4 8 -0.21 0.25
3 4 -8 0.02 0.21
3 -4 -8 -0.22 0.28
-3 4 8 0.34 0.4
-3 -4 8 0.66 0.47
-3 -4 8 0.45 0.3
-3 4 7 22.39 2.24
3 4 -7 26.14 2.38
3 -4 -7 23.21 2.31
-3 -4 7 24.8 2.25
-3 4 7 23.42 1.97
-3 -4 7 21.44 1.81
3 4 -6 4.83 0.99
-3 -4 6 4.5 0.89
-3 4 6 3.77 0.91
-3 4 6 4.62 0.81
3 -4 -6 4.58 1.04
-3 -4 6 4.3 0.77
-3 4 5 13.45 1.56
-3 4 5 13.04 1.31
3 4 -5 15.29 1.63
-3 -4 5 11.43 1.43
3 -4 -5 12.42 1.57
-3 -4 5 15.11 1.45
3 4 -4 6.76 1.03
-3 4 4 7.96 1.01
-3 4 4 7.2 1.07
-3 -4 4 6.3 1.04
-3 -4 4 7.93 1.06
3 -4 -4 6.66 1.11
3 -4 -3 7.81 1.16
3 4 -3 7.42 1.03
-3 4 3 6.74 0.93
-3 -4 3 8.89 1.09
-3 -4 3 6.61 1.03
-3 4 3 9.45 1.2
-3 -4 2 0.52 0.23
-3 4 2 1.1 0.39
3 -4 -2 1.1 0.42
-3 -4 2 1.84 0.6
3 -4 -2 0.84 0.38
3 4 -2 0.93 0.34
3 4 -1 6.03 0.81
-3 -4 1 4.45 0.77
-3 -4 1 5.34 0.89
3 -4 -1 4.37 0.72
3 -4 -1 5.12 0.79
-3 4 1 5.38 0.76
3 4 0 1.02 0.32
3 4 0 0.67 0.35
-3 -4 0 1.15 0.44
-3 -4 0 0.73 0.34
3 -4 0 1.69 0.47
3 -4 0 1.42 0.41
-3 4 0 1.1 0.31
-3 -4 -1 -0.05 0.28
3 4 1 0.27 0.2
3 4 1 0.36 0.2
-3 4 -1 0.28 0.14
3 -4 1 0.26 0.1
-3 4 -1 0.17 0.18
3 4 2 3.38 0.76
-3 -4 -2 3.52 0.82
-3 4 -2 3.82 0.78
3 -4 2 3.88 0.79
-3 4 -2 2.83 0.38
3 4 3 5.02 0.96
-3 -4 -3 5.8 1.09
-3 4 -3 4.1 0.88
3 -4 3 4.85 0.85
3 4 4 0.33 0.14
-3 -4 -4 0.3 0.25
-3 4 -4 0.71 0.36
3 -4 4 0.02 0.13
-3 4 -5 25.47 2.37
3 -4 5 25.72 2.27
-3 -4 -5 27.45 2.39
3 4 5 25.77 2.31
-3 -4 -6 1.61 0.56
-3 4 -6 1.94 0.73
3 -4 6 1.24 0.53
3 4 6 2.06 0.58
-3 -4 -7 -0.38 0.36
-3 4 -7 1 0.59
3 -4 7 -0.29 0.37
3 4 7 -0.06 0.19
-3 -4 -8 0.91 0.59
3 4 8 0.77 0.52
-3 4 -8 0.58 0.44
3 -4 8 0.33 0.22
3 4 9 5.18 1.35
-3 4 -9 5.17 1.17
3 -4 9 3.56 1.05
-3 -4 -9 3.86 1.13
-3 4 -10 -0.15 0.48
3 -4 10 -0.02 0.42
3 4 10 0.43 0.67
-3 -4 -10 1.32 0.67
3 4 11 -0.06 0.37
-3 4 -11 -0.07 0.44
3 -4 11 -0.59 0.67
-3 -4 -11 -1.18 0.69
3 4 12 0.48 0.69
3 -4 12 0.02 0.44
3 4 13 2.5 1.18
3 -4 13 1.49 0.97
3 5 -13 0.26 0.62
-3 5 13 0.84 0.9
-3 -5 13 -0.29 0.37
-3 5 12 1.06 0.52
3 5 -12 -0.18 0.37
-3 5 12 -0.08 0.6
-3 -5 12 0.98 0.6
-3 5 11 1.22 0.56
3 5 -11 0.72 0.68
-3 -5 11 -0.35 0.48
-3 5 11 0.26 0.31
-3 5 10 0.67 0.34
-3 5 10 1.82 0.76
3 5 -10 0.41 0.27
-3 -5 10 1.49 0.7
3 5 -9 2.69 1.02
-3 5 9 3.81 0.95
-3 5 9 2.08 0.83
3 -5 -9 1.72 0.64
-3 -5 9 2.08 0.78
3 5 -8 25.31 2.6
-3 5 8 23.1 2.46
-3 5 8 20.05 2.08
3 -5 -8 24.89 2.61
-3 -5 8 21.26 1.92
-3 -5 8 25 2.54
3 5 -7 4.2 1.06
-3 5 7 2.63 0.73
-3 -5 7 4.63 0.92
3 -5 -7 3.85 1.03
-3 -5 7 3.84 0.96
-3 5 7 3.32 0.99
-3 5 6 10.25 1.61
-3 5 6 9.68 1.33
3 5 -6 10.79 1.57
-3 -5 6 8.53 1.2
-3 -5 6 11.35 1.68
3 -5 -6 9.02 1.43
-3 5 5 0.33 0.33
3 5 -5 0.13 0.31
-3 -5 5 -0.08 0.19
-3 -5 5 0.08 0.13
3 -5 -5 -0.37 0.41
3 5 -4 90.95 4.26
3 -5 -4 87.1 4.28
-3 -5 4 94.06 4.53
-3 -5 4 96.02 4.16
-3 5 4 85.94 3.98
3 5 -3 -0.07 0.21
-3 -5 3 0.29 0.28
-3 -5 3 0.14 0.31
3 -5 -3 0.27 0.29
-3 5 3 0.17 0.23
3 5 -2 1.91 0.49
-3 5 2 1.77 0.58
-3 -5 2 1.53 0.51
3 -5 -2 2.21 0.61
-3 -5 2 1.44 0.55
3 -5 -2 1.59 0.54
3 5 -1 10.62 1.15
-3 5 1 11.54 1.37
-3 -5 1 11.78 1.49
-3 -5 1 8.96 1.31
3 -5 -1 11.21 1.32
3 -5 -1 11.15 1.27
-3 5 0 72.08 3.06
3 5 0 68.95 2.93
-3 -5 0 65.55 3.63
3 -5 0 71.89 3.49
3 -5 0 68.24 3.06
-3 5 0 68.56 3.57
-3 -5 0 70.25 3.69
3 5 0 75.63 3.91
3 5 1 3.25 0.57
3 5 1 3.82 0.86
-3 5 -1 3.9 0.61
-3 5 -1 3.26 0.83
3 -5 1 3.57 0.64
-3 -5 -1 3.98 0.92
3 -5 1 3.16 0.72
-3 5 -2 0.18 0.2
-3 -5 -2 -0.28 0.29
3 5 2 -0.31 0.33
-3 5 -2 0.09 0.21
3 5 2 0.09 0.11
3 -5 2 0.03 0.22
3 5 3 11.93 1.56
-3 5 -3 11.44 1.55
-3 -5 -3 10.25 1.57
3 -5 3 12.07 1.54
-3 5 -4 4.18 1
3 5 4 3.2 0.76
3 -5 4 3.73 0.9
-3 -5 -4 4.47 1.02
-3 -5 -5 -0.02 0.26
-3 5 -5 -0.04 0.22
3 -5 5 -0.15 0.34
-3 -5 -6 7.18 1.37
-3 5 -6 6.42 1.34
3 5 6 6.08 1.33
3 -5 6 5.44 1.23
-3 -5 -7 0.6 0.53
3 5 7 -0.23 0.46
-3 5 -7 0.46 0.4
3 -5 7 0.76 0.42
-3 -5 -8 1.17 0.46
3 5 8 2.97 1.04
3 -5 8 1.57 0.54
-3 5 -8 1.67 0.67
3 5 9 2.41 0.97
-3 5 -9 1.74 0.72
3 -5 9 -0.1 0.46
-3 -5 -9 2.94 1.1
3 5 10 -0.99 0.72
3 -5 10 0.39 0.49
-3 -5 -10 0.38 0.61
-3 5 -10 0.22 0.32
-3 5 -11 0.67 0.69
3 5 11 0.6 0.5
3 -5 11 0.02 0.37
-3 -5 -11 0.43 0.5
3 5 12 -0.46 0.59
3 -5 12 1.23 0.83
-3 6 13 0.04 0.5
3 6 -13 0.22 0.67
3 6 -12 0.47 0.66
-3 -6 12 -0.26 0.64
-3 6 12 0.36 0.65
-3 6 11 -0.53 0.32
-3 6 11 0.21 0.52
3 6 -11 -0.42 0.35
-3 -6 11 -0.49 0.76
3 6 -10 -0.3 0.47
-3 6 10 0.31 0.54
-3 6 10 0.99 0.78
3 -6 -10 0.09 0.41
-3 -6 10 0.03 0.43
-3 6 9 5.28 1.29
-3 6 9 3.4 1.06
3 6 -9 6.25 1.48
3 -6 -9 4.52 1.32
-3 -6 9 5.54 1.31
-3 6 8 0.69 0.45
3 6 -8 0.88 0.62
-3 -6 8 0.84 0.67
3 -6 -8 1.57 0.76
-3 6 8 1.28 0.68
-3 6 7 6.65 1.33
3 6 -7 6.62 1.41
-3 -6 7 6.91 1.17
-3 6 7 6.6 1.5
-3 -6 7 6.78 1.39
3 -6 -7 8.27 1.62
-3 6 6 6.97 1.29
3 6 -6 8.27 1.47
-3 -6 6 6.64 1.16
-3 -6 6 6.24 1.29
3 -6 -6 8.02 1.51
3 6 -5 6.7 1.24
-3 6 5 5.42 1.13
-3 6 5 5.23 0.84
-3 -6 5 5.13 0.96
-3 -6 5 5.98 1.21
3 -6 -5 4.68 1.07
3 6 -4 0.91 0.52
-3 6 4 0.29 0.39
-3 6 4 0.5 0.29
-3 -6 4 0.58 0.34
-3 -6 4 -0.04 0.17
3 -6 -4 0.52 0.54
3 6 -3 8.75 1.25
-3 6 3 6.33 1.23
-3 6 3 7.47 1.11
-3 -6 3 8.54 1.29
-3 -6 3 9.49 1.54
3 -6 -3 9.14 1.4
-3 6 2 -0.41 0.22
3 6 -2 0.32 0.31
-3 6 2 -0.16 0.18
-3 -6 2 -0.03 0.27
3 -6 -2 -0.32 0.25
-3 -6 2 -0.26 0.39
3 -6 -2 -0.21 0.21
-3 6 1 18.32 1.84
3 6 -1 16.21 1.57
-3 -6 1 15.66 1.87
-3 -6 1 11.95 1.7
3 -6 -1 12.29 1.61
3 -6 -1 14.43 1.64
3 -6 0 1.86 0.62
3 6 0 2.4 0.56
-3 -6 0 3.63 0.97
3 6 0 2.44 0.75
-3 -6 0 2.45 0.85
3 -6 0 2.31 0.58
-3 6 0 2.6 0.71
-3 -6 -1 2.8 0.88
3 6 1 2.67 0.79
-3 6 -1 3.23 0.83
3 -6 1 3.23 0.84
-3 6 -1 2.49 0.55
3 -6 1 2.28 0.54
3 6 1 2.16 0.49
-3 -6 -2 0.9 0.53
3 6 2 2.23 0.73
3 -6 2 0.44 0.36
-3 6 -2 1.18 0.53
-3 -6 -3 1.59 0.65
3 6 3 1.51 0.62
-3 6 -3 1.43 0.6
3 -6 3 1.72 0.65
-3 -6 -4 3.05 0.96
3 -6 4 2.72 0.88
3 6 4 2.04 0.71
-3 6 -4 2.5 0.87
-3 -6 -5 10.32 1.78
3 6 5 11.98 1.84
-3 6 -5 11.59 1.77
3 -6 5 10.82 1.67
-3 -6 -6 0.08 0.24
-3 6 -6 0.45 0.39
3 6 6 0.89 0.55
3 -6 6 0.49 0.58
-3 -6 -7 -0.34 0.47
-3 6 -7 0.08 0.42
3 6 7 0.14 0.29
3 -6 7 -0.11 0.43
-3 -6 -8 0.28 0.61
-3 6 -8 -0.31 0.51
3 -6 8 0.22 0.45
3 6 8 0.48 0.63
3 6 9 4.71 1.26
-3 6 -9 3.1 1.03
3 -6 9 4.76 1.4
-3 -6 -9 2.3 1.01
3 6 10 -0.16 0.57
-3 6 -10 -0.14 0.56
3 -6 10 -0.1 0.55
-3 -6 -10 0.9 0.65
3 6 11 0.84 0.98
-3 6 -11 -1.51 0.99
3 -6 11 0.58 0.72
3 7 -12 -0.64 1.02
-3 7 12 0.69 0.62
-3 7 11 1.08 0.88
3 7 -11 -0.4 0.57
-3 -7 11 0.95 0.75
3 7 -10 -0.14 0.42
-3 7 10 -1.31 0.79
3 -7 -10 -0.04 0.51
-3 -7 10 0.44 0.53
-3 7 10 0.84 0.64
-3 7 9 -0.64 0.58
-3 7 9 -0.17 0.68
3 7 -9 0.64 0.62
-3 -7 9 -0.26 0.45
3 -7 -9 -0.02 0.44
-3 7 8 4.12 1.15
3 7 -8 4.86 1.22
-3 -7 8 4.42 1.25
3 -7 -8 3.33 1.11
-3 7 8 1.32 0.75
-3 7 7 -0.39 0.37
3 7 -7 -0.09 0.37
-3 -7 7 0.03 0.38
3 -7 -7 -0.29 0.5
-3 7 7 -0.57 0.66
3 7 -6 2.72 0.82
-3 7 6 2.95 0.97
-3 -7 6 2.29 0.76
-3 -7 6 2.54 0.91
3 -7 -6 2.7 0.96
-3 7 5 -0.46 0.51
3 7 -5 0.93 0.6
-3 -7 5 0.91 0.47
3 -7 -5 1.08 0.56
-3 -7 5 0.03 0.22
3 7 -4 12.16 1.72
-3 -7 4 13.96 1.76
-3 7 4 11.73 1.7
-3 7 4 13.4 1.52
-3 -7 4 12.71 1.95
3 -7 -4 13.54 1.98
3 7 -3 0.42 0.3
-3 -7 3 -0.37 0.42
-3 7 3 0.14 0.21
-3 7 3 -0.29 0.39
-3 -7 3 0.12 0.44
3 -7 -3 0.52 0.51
-3 7 2 0.13 0.24
3 7 -2 -0.26 0.42
-3 -7 2 0.71 0.59
-3 7 2 -0.23 0.21
3 -7 -2 0.13 0.27
-3 -7 2 -0.33 0.54
3 -7 -2 -0.38 0.26
-3 -7 1 1.22 0.69
-3 -7 1 0.88 0.61
3 7 -1 2.15 0.82
3 -7 -1 0.68 0.44
3 7 -1 2.11 0.67
-3 7 1 1.25 0.53
3 -7 -1 0.74 0.4
3 7 0 5.66 0.94
-3 -7 0 5.81 1.29
3 7 0 6.43 1.38
-3 -7 0 5.27 1.26
3 -7 0 6.8 1.31
-3 7 0 4.76 1.01
3 -7 0 5.52 1.11
3 7 1 1.22 0.5
-3 -7 -1 2.14 0.89
-3 7 -1 1.64 0.68
3 -7 1 1.91 0.72
-3 7 -1 1.36 0.42
-3 -7 -2 -0.37 0.49
3 7 2 0.46 0.36
-3 7 -2 0.03 0.32
3 -7 2 -0.29 0.31
3 7 3 0.38 0.54
-3 7 -3 0.13 0.34
3 -7 3 -0.08 0.32
-3 -7 -3 -0.45 0.55
-3 -7 -4 1.48 0.91
3 7 4 0.32 0.55
-3 7 -4 1.49 0.77
3 -7 4 0.43 0.38
-3 7 -5 -0.08 0.28
3 7 5 -0.05 0.32
3 -7 5 0.71 0.7
-3 -7 -5 -0.56 0.52
-3 -7 -6 -0.42 0.57
-3 7 -6 -0.11 0.31
3 7 6 -0.1 0.38
3 -7 6 0.32 0.32
-3 -7 -7 0.71 0.79
3 7 7 -0.16 0.32
-3 7 -7 0.15 0.43
3 -7 7 0.95 0.76
3 7 8 0.04 0.66
3 -7 8 0.77 0.84
-3 7 -8 0.32 0.56
-3 -7 -8 0.34 0.7
-3 7 -9 0.9 0.74
3 -7 9 -0.04 0.69
3 7 9 0.25 0.41
-3 -7 -9 0.04 0.39
3 7 10 0.31 0.57
-3 7 -10 0.73 0.78
3 -7 10 -0.82 1.08
3 8 -10 -0.26 0.6
-3 8 10 -0.49 0.82
-3 -8 10 -0.02 0.54
3 -8 -10 -0.95 0.98
3 8 -9 0.81 0.63
-3 8 9 -0.36 0.59
-3 -8 9 -0.02 0.57
3 -8 -9 0.25 0.54
-3 8 8 0.83 0.76
3 8 -8 0.9 0.73
-3 8 8 0.57 0.65
-3 -8 8 -0.3 0.51
3 -8 -8 0.31 0.67
3 8 -7 1.62 1.03
-3 8 7 0.94 0.55
-3 8 7 0.84 0.71
-3 -8 7 0.21 0.4
3 -8 -7 0.68 0.39
-3 8 6 0.28 0.46
3 8 -6 0.23 0.58
-3 8 6 0.14 0.63
-3 -8 6 -0.13 0.47
3 -8 -6 -0.62 0.3
3 8 -5 0.23 0.37
-3 8 5 -0.17 0.27
-3 -8 5 -0.33 0.49
3 -8 -5 -0.59 0.53
3 8 -4 -0.08 0.32
-3 -8 4 0.21 0.3
-3 8 4 0.39 0.28
-3 -8 4 0.2 0.5
3 -8 -4 0.46 0.53
-3 -8 3 -0.11 0.35
3 8 -3 -0.54 0.49
-3 8 3 0.36 0.26
-3 -8 3 -0.45 0.54
3 -8 -3 0.37 0.49
3 8 -2 -0.19 0.36
-3 -8 2 0.61 0.44
-3 8 2 0.41 0.56
-3 8 2 -0.06 0.36
3 -8 -2 -0.04 0.48
-3 -8 2 0.33 0.68
3 -8 -2 0.67 0.48
-3 8 1 0.46 0.36
3 8 -1 -0.4 0.53
-3 8 1 0.2 0.51
-3 -8 1 0.32 0.31
3 -8 -1 -0.56 0.36
3 -8 -1 0.92 0.5
-3 -8 1 -0.29 0.45
3 8 0 0.03 0.36
-3 8 0 1.01 0.7
-3 -8 0 0.12 0.29
3 -8 0 0.56 0.48
-3 8 -1 0.66 0.44
3 8 1 -0.12 0.38
-3 -8 -1 0.28 0.42
3 -8 1 0.67 0.66
-3 -8 -2 0.34 0.4
3 8 2 0.25 0.38
-3 8 -2 -0.23 0.44
3 -8 2 0.29 0.28
-3 -8 -3 1.03 0.8
3 8 3 0.02 0.4
-3 8 -3 -0.13 0.54
3 -8 3 0.23 0.7
-3 -8 -4 0.23 0.47
3 8 4 1.1 0.75
-3 8 -4 1.1 0.74
3 -8 4 1.12 0.68
-3 -8 -5 -0.55 0.62
3 8 5 1.02 0.7
-3 8 -5 -0.19 0.47
3 -8 5 -0.04 0.34
-3 -8 -6 -0.26 0.4
3 8 6 -0.35 0.55
-3 8 -6 -0.38 0.52
3 -8 6 0.38 0.58
-3 -8 -7 0.3 0.56
-3 8 -7 1.25 0.7
3 8 7 -0.24 0.51
3 -8 7 -1.02 0.95
-3 8 -8 0.02 0.52
3 8 8 -1.78 0.94
3 -8 8 -0.52 0.66
-3 -8 -8 1 0.88
-3 -9 8 0.49 0.71
-3 -9 7 0.15 0.49
3 -9 -7 -0.45 0.5
-3 9 7 -0.31 0.86
3 9 -6 1.63 0.93
-3 9 6 0.21 0.49
-3 -9 6 -0.14 0.52
3 -9 -6 0.41 0.83
-3 9 5 -0.49 0.43
-3 9 5 0.72 0.64
3 9 -5 0.5 0.44
-3 -9 5 0.44 0.5
3 -9 -5 0.18 0.48
-3 9 4 0.92 0.34
-3 -9 4 1.22 0.7
3 -9 -4 1.01 0.85
-3 9 3 0.73 0.76
-3 -9 3 0.86 0.45
-3 -9 2 0.42 0.31
-3 9 2 -0.32 0.37
3 9 -2 -0.44 0.46
-3 -9 2 0.25 0.69
-3 9 1 0.29 0.56
-3 -9 1 -0.5 0.57
3 9 -1 0.45 0.54
-3 -9 1 0.04 0.49
3 -9 -1 0.45 0.38
-3 -9 0 0.95 0.78
3 9 0 0.55 0.55
3 -9 0 1.19 0.81
-3 -9 -1 1.08 0.85
3 9 1 -0.31 0.39
-3 9 -1 0.34 0.32
3 -9 1 0.1 0.33
-3 -9 -2 -0.67 0.71
3 9 2 0.22 0.48
-3 9 -2 0.07 0.86
3 -9 2 -0.66 0.55
3 9 3 -0.46 0.63
-3 9 -3 -0.19 0.57
3 -9 3 -0.22 0.34
-3 -9 -3 0.73 0.63
-3 -9 -4 0.35 0.49
3 9 4 0.25 0.72
-3 9 -4 0.85 0.57
3 -9 4 0.27 0.47
-3 -9 -5 0.35 0.58
3 9 5 1.1 0.81
-3 9 -5 0.9 0.68
3 -9 5 0.02 0.86
-3 -9 -6 -0.52 0.84
3 9 6 -0.42 0.43
-3 9 -6 0.18 0.52
-3 -10 5 -0.68 1.03
-3 -10 4 0.11 0.8
3 10 -3 0.95 0.99
-3 -10 3 0.4 0.4
3 10 -2 -0.92 0.88
-3 -10 2 0.11 0.65
3 10 -1 -0.7 0.78
3 10 0 0.42 0.84
3 10 1 0.67 0.71
3 10 2 -0.13 0.55
3 10 3 -0.36 0.76
-4 0 14 1.04 0.56
4 0 -13 4.05 1.01
-4 0 13 4.44 1.15
-4 0 13 5.72 1.38
4 0 -12 -0.01 0.29
-4 0 12 0.21 0.46
-4 0 12 -0.15 0.45
-4 0 11 5.95 1.17
4 0 -11 4.62 0.98
-4 0 11 5.55 1.12
4 0 -10 27.85 2.33
-4 0 10 27.29 2.23
-4 0 10 26.27 2.39
-4 0 9 61 3.16
4 0 -9 57.49 3.3
-4 0 9 61.83 3.53
-4 0 8 0.71 0.39
4 0 -8 -0.03 0.17
-4 0 8 0.14 0.18
-4 0 7 15.38 1.55
4 0 -7 12.6 1.4
-4 0 7 12.64 1.17
-4 0 6 9.04 1.15
4 0 -6 9.6 1.13
-4 0 6 9 0.88
4 0 -5 44.62 2.46
-4 0 5 45.72 1.79
-4 0 5 43.58 2.45
-4 0 4 3 0.59
-4 0 4 2.07 0.28
-4 0 3 12.01 0.61
-4 0 3 29.44 1.75
-4 0 2 0.32 0.25
4 0 -1 115.14 2.3
-4 0 1 126.55 3.77
4 0 0 721.36 12.1
-4 0 0 733.4 13.32
4 0 1 342.78 6.9
-4 0 -1 351.28 7.37
4 0 2 12.73 1.03
-4 0 -2 12.57 1.02
4 0 3 1.73 0.44
-4 0 -3 1.46 0.35
4 0 4 35.35 2.16
-4 0 -4 31.89 1.75
-4 0 -5 38.92 2
4 0 5 37.39 2.43
-4 0 -5 35.95 2.21
4 0 6 0.01 0.22
-4 0 -6 0.16 0.22
-4 0 -6 0.12 0.18
-4 0 -7 0.11 0.21
-4 0 -7 0.02 0.17
4 0 7 0.13 0.25
-4 0 -8 9.03 1.31
4 0 8 11.89 1.67
-4 0 -9 1.13 0.45
4 0 9 1.38 0.7
4 0 10 8.1 1.63
4 0 11 0.12 0.42
4 0 12 5.42 1.37
4 0 13 1.26 1
-4 1 14 -0.39 0.49
-4 -1 14 -0.27 0.53
-4 1 14 0.84 0.59
-4 1 13 0.18 0.53
4 1 -13 2.49 1
-4 -1 13 1.53 0.77
-4 -1 13 1.39 0.76
-4 1 13 0.78 0.57
-4 1 12 -0.32 0.25
4 1 -12 -0.18 0.4
4 -1 -12 -0.09 0.36
-4 -1 12 -0.23 0.45
-4 -1 12 0.15 0.28
-4 1 12 0.59 0.49
-4 1 11 0.3 0.22
4 1 -11 0.05 0.4
-4 -1 11 0.21 0.25
-4 -1 11 -0.13 0.3
4 -1 -11 -0.45 0.37
-4 1 11 -0.1 0.31
4 1 -10 2.98 0.84
-4 1 10 3.38 0.95
-4 -1 10 3.51 0.82
-4 -1 10 2.84 0.73
4 -1 -10 2.78 0.69
-4 1 10 3.54 0.81
4 1 -9 7.49 1.22
4 -1 -9 6.51 1.03
-4 1 9 5.46 1.17
-4 -1 9 6.87 1.06
-4 -1 9 5.73 0.99
-4 1 9 5.39 0.95
4 -1 -8 35.52 2.38
-4 -1 8 35.23 2.27
4 1 -8 38.59 2.63
-4 1 8 39.85 2.35
-4 -1 8 37.57 2.57
-4 1 8 34.51 2.6
4 1 -7 3.92 0.81
-4 1 7 2.85 0.69
-4 -1 7 3.14 0.68
-4 -1 7 2.89 0.61
-4 1 7 3.32 0.6
-4 1 6 0.63 0.21
4 1 -6 0.27 0.15
-4 1 6 0.72 0.38
-4 -1 6 0.38 0.21
-4 -1 6 0.73 0.24
-4 -1 5 64.61 2.38
-4 1 5 62.01 2.15
-4 -1 5 60.32 2.92
-4 1 5 62.48 3.06
4 1 -5 60.77 3
-4 -1 4 130.31 3.43
4 1 -4 136.95 4.49
-4 1 4 132.89 3
-4 -1 4 130.84 4.37
-4 1 4 126.92 4.42
4 1 -3 7.34 0.93
-4 1 3 7.32 0.92
-4 -1 3 6.05 0.63
-4 1 3 5.49 0.33
-4 -1 3 7.17 0.9
-4 -1 2 136.18 3.16
-4 -1 2 136.85 4.26
-4 1 2 141.42 4.24
-4 -1 1 14.27 1.2
4 1 -1 13.24 0.8
-4 1 1 15.26 1.14
4 -1 0 431.07 7.67
4 1 0 431.51 8.14
-4 -1 0 432.58 9.15
-4 1 0 439.61 8.61
4 -1 1 224.21 5.01
4 1 1 225.75 5.27
-4 -1 -1 233.56 5.9
-4 1 -1 226.75 5.14
4 -1 2 50.68 2.19
4 1 2 49.66 2.26
-4 -1 -2 51.86 2.42
-4 1 -2 50.61 1.91
4 1 3 0.17 0.17
-4 -1 -3 0.7 0.3
-4 1 -3 0.26 0.17
4 -1 3 0.45 0.17
4 -1 4 69.77 3.14
-4 1 -4 67.04 2.23
4 1 4 65.36 3.11
-4 -1 -4 70.08 3
-4 -1 -5 50.42 2.4
-4 1 -5 49.25 2.81
-4 1 -5 40.68 1.71
4 -1 5 44.94 2.69
-4 -1 -5 46.15 2.49
4 1 5 46.7 2.79
-4 -1 -6 39.51 2.18
-4 1 -6 38.86 2.59
-4 -1 -6 40.03 2.42
4 -1 6 42.91 2.82
4 1 6 39.71 2.77
4 1 7 6.84 1.18
-4 -1 -7 6.38 0.98
-4 1 -7 6.24 1
-4 -1 -7 4.47 0.82
4 -1 7 6.37 1.18
4 1 8 3.75 0.98
-4 1 -8 3.69 0.89
4 -1 8 3.58 0.91
-4 -1 -8 4.91 0.88
4 1 9 -0.01 0.23
-4 1 -9 -0.16 0.33
-4 -1 -9 -0.06 0.36
4 -1 9 -0.03 0.38
4 1 10 5.19 1.24
4 -1 10 4.8 1.22
-4 1 -10 1.23 0.55
4 -1 11 0.19 0.37
4 1 11 0.82 0.47
4 -1 12 1.97 1.09
4 1 12 1.59 0.98
4 -1 13 -0.51 0.53
4 1 13 0.85 0.69
4 2 -14 -0.37 0.51
-4 2 14 -0.26 0.63
-4 -2 14 -0.34 0.56
-4 2 13 10.28 1.81
4 2 -13 9.41 1.71
-4 -2 13 11.53 1.83
-4 2 13 9.1 1.53
4 2 -12 -0.47 0.41
-4 -2 12 0.61 0.36
-4 2 12 0.22 0.35
-4 -2 12 -0.26 0.41
-4 2 12 0.24 0.28
-4 2 11 0.98 0.21
-4 -2 11 -0.07 0.22
-4 2 11 0.03 0.42
-4 -2 11 0.37 0.5
4 2 -11 1.33 0.62
-4 2 10 5.02 1.01
4 2 -10 4.16 0.96
-4 -2 10 4.19 0.87
-4 2 10 3.07 0.81
-4 -2 10 5.14 1.04
4 2 -9 58.87 3.65
-4 -2 9 63.56 3.51
-4 2 9 63.92 3.31
-4 -2 9 63.47 3.46
-4 2 9 64.36 3.86
-4 2 8 13.05 1.33
4 2 -8 13.2 1.6
-4 -2 8 12.11 1.43
-4 2 8 12.67 1.62
-4 -2 8 11.66 1.36
4 2 -7 19 1.83
-4 -2 7 18.77 1.59
-4 2 7 17.79 1.45
-4 -2 7 18.48 1.68
-4 2 7 15.91 1.78
4 2 -6 6.01 0.99
-4 -2 6 4.89 0.84
-4 2 6 4.74 0.69
-4 -2 6 4.68 0.74
-4 2 6 5.2 0.96
-4 2 5 1.06 0.31
-4 -2 5 0.28 0.24
4 2 -5 1.35 0.46
-4 -2 5 0.53 0.24
-4 2 5 1.21 0.5
-4 -2 4 1.78 0.52
4 2 -4 2.07 0.53
-4 2 4 1.55 0.29
-4 2 4 1.8 0.53
-4 -2 4 1.64 0.42
4 2 -3 164.49 5.03
-4 -2 3 158.86 4.32
-4 2 3 163.15 3.59
-4 -2 3 155.01 4.94
-4 2 3 160.48 4.99
4 2 -2 41.8 2.21
-4 -2 2 43.54 1.92
-4 -2 2 38.51 2.25
-4 2 2 40.08 1.47
-4 2 2 43.32 2.17
4 -2 -1 11.9 0.81
4 2 -1 11.33 0.97
-4 2 1 11.88 1.03
-4 -2 1 12.75 1.24
4 2 -1 13.23 1.15
4 -2 0 71 2.36
-4 -2 0 79 3.27
4 2 0 76.28 2.76
-4 2 0 75.42 2.62
4 -2 1 173.95 4.44
-4 -2 -1 169.74 5.2
4 2 1 165.42 4.71
-4 2 -1 176.57 4.18
4 -2 2 18.64 1.35
-4 -2 -2 21.44 1.66
4 2 2 19.86 1.51
-4 2 -2 19.11 1.01
-4 -2 -3 12.99 1.33
4 2 3 10.16 1.14
-4 2 -3 9.26 0.63
4 -2 3 11.32 1.14
4 -2 4 48.08 2.68
-4 -2 -4 48.57 2.71
4 2 4 47.09 2.74
-4 2 -4 49.27 2.91
-4 -2 -5 86.84 2.94
4 -2 5 91.93 4.06
-4 -2 -5 92.99 4.02
4 2 5 90.92 4.14
-4 2 -5 90.4 4.25
4 2 6 0.2 0.31
-4 2 -6 0.27 0.34
-4 -2 -6 0.2 0.24
4 -2 6 -0.14 0.32
4 2 7 5.92 1.2
-4 -2 -7 4.68 0.9
-4 2 -7 4.34 0.95
4 -2 7 4.6 0.99
-4 -2 -8 24.03 2.18
4 2 8 24.51 2.49
4 -2 8 21.69 2.31
-4 2 -8 21.25 2.21
4 2 9 0.65 0.45
-4 2 -9 0.27 0.35
4 -2 9 0.03 0.24
-4 -2 -9 0.06 0.39
4 2 10 1.18 0.71
-4 2 -10 0.78 0.44
4 -2 10 0.55 0.58
4 2 11 0.07 0.3
4 -2 11 0.04 0.5
4 2 12 0.1 0.4
4 -2 12 0.08 0.53
4 -2 13 1.76 1.06
4 2 13 2.92 1.13
4 3 -14 -0.65 0.52
-4 3 14 0.42 0.36
-4 -3 14 0.02 0.67
-4 3 13 0.42 0.54
4 3 -13 0.25 0.35
-4 3 13 -0.44 0.82
-4 -3 13 0.37 0.34
-4 3 12 -0.15 0.39
4 3 -12 0.05 0.51
-4 3 12 -0.28 0.36
-4 -3 12 0.41 0.42
-4 3 11 1.27 0.49
4 3 -11 0.91 0.68
-4 -3 11 0.88 0.48
-4 -3 11 0.78 0.42
-4 3 11 2.14 0.8
-4 3 10 4.34 1.11
-4 3 10 5.73 1.08
4 3 -10 8.62 1.46
-4 -3 10 5.77 1.03
-4 -3 10 6.44 1.19
-4 3 9 0.67 0.37
-4 3 9 0.23 0.33
-4 -3 9 0.46 0.33
4 3 -9 0.02 0.28
-4 -3 9 0.02 0.26
4 3 -8 15.28 1.82
-4 3 8 15.83 1.56
-4 -3 8 15.36 1.62
-4 3 8 13.7 1.76
-4 -3 8 14.77 1.68
4 3 -7 17.58 1.89
-4 3 7 18.16 1.98
-4 3 7 19.34 1.6
-4 -3 7 18.97 1.76
-4 -3 7 18.35 1.73
4 3 -6 0.99 0.45
-4 -3 6 1.57 0.53
-4 3 6 0.79 0.26
-4 3 6 1.16 0.39
-4 -3 6 1.46 0.5
-4 -3 5 3.89 0.77
4 3 -5 5.08 0.89
-4 3 5 5.86 0.73
-4 3 5 5.29 0.87
-4 -3 5 4.31 0.79
4 3 -4 160.01 5.38
-4 -3 4 159.32 5.06
-4 3 4 155.1 4.3
-4 -3 4 161.91 5.3
-4 3 4 161.2 5.39
4 3 -3 5.91 0.88
-4 3 3 6.68 0.72
-4 -3 3 6.15 0.85
-4 3 3 6.09 0.96
-4 -3 3 5.86 0.95
4 3 -2 4.03 0.71
-4 3 2 3.68 0.55
4 -3 -2 2.85 0.48
-4 -3 2 2.89 0.6
-4 -3 2 3.93 0.75
-4 3 2 3.01 0.63
-4 -3 1 13.9 1.28
4 -3 -1 13.66 1.07
-4 -3 1 13.49 1.39
4 3 -1 14.68 1.31
4 3 -1 15.27 1.29
-4 3 1 14.71 1.21
4 3 0 262 6.31
4 -3 0 250.65 6.13
-4 -3 0 267.15 7.23
4 3 0 258.69 6.74
-4 3 0 261.38 6.06
4 3 1 11.35 1.2
-4 -3 -1 13.21 1.42
-4 3 -1 10.87 0.86
4 -3 1 12.22 1.13
4 3 2 10.82 1.23
-4 -3 -2 10.59 1.32
-4 3 -2 9.61 0.7
4 -3 2 11.16 1.17
-4 3 -3 18.01 1.82
4 -3 3 16.88 1.54
-4 -3 -3 19.94 1.84
4 3 3 16.35 1.61
-4 3 -4 94.83 4.51
4 -3 4 99.45 4.19
-4 -3 -4 98.38 4.41
4 3 4 97.07 4.31
4 -3 5 41.19 2.77
-4 -3 -5 35.13 2.6
4 3 5 38.81 2.75
-4 3 -5 35.67 2.75
-4 3 -6 55.94 3.58
4 -3 6 57.57 3.49
-4 -3 -6 57 3.49
4 3 6 54.78 3.5
-4 -3 -7 9.07 1.41
4 3 7 9.89 1.47
-4 3 -7 8.39 1.45
4 -3 7 8.86 1.43
-4 -3 -8 0.56 0.48
4 3 8 1.8 0.87
-4 3 -8 0.09 0.34
4 -3 8 0.55 0.52
4 3 9 -0.75 0.51
-4 3 -9 0.39 0.52
4 -3 9 0.22 0.5
-4 -3 -9 0.22 0.42
4 3 10 3.31 1.03
-4 3 -10 2.87 0.98
4 -3 10 2.47 0.98
-4 -3 -10 1.67 0.71
4 3 11 -0.58 0.43
4 -3 11 0.15 0.54
4 3 12 0.45 0.49
4 -3 12 -0.38 0.77
4 3 13 -0.27 0.86
4 4 -14 -0.02 0.46
-4 4 14 -0.72 0.96
-4 -4 13 1.64 0.8
-4 4 13 2.53 1.05
-4 4 12 0.34 0.43
-4 4 12 0.53 0.53
4 4 -12 -1.1 0.84
-4 -4 12 -0.03 0.48
-4 4 11 -0.05 0.24
4 4 -11 0.64 0.51
-4 4 11 0.58 0.41
-4 -4 11 0.68 0.46
-4 -4 10 3.65 0.86
-4 4 10 1.69 0.69
4 4 -10 2.93 0.97
-4 -4 10 2.39 0.99
-4 4 10 2.37 0.83
4 4 -9 28.64 2.75
-4 4 9 23.7 2.2
-4 4 9 25.39 2.69
-4 -4 9 27.11 2.28
-4 -4 9 25.1 2.49
-4 4 8 2.1 0.65
-4 4 8 1.78 0.7
-4 -4 8 1.71 0.59
-4 -4 8 1.4 0.52
4 4 -8 1.9 0.74
4 4 -7 4.62 1.03
-4 4 7 5.26 0.93
-4 -4 7 3.68 0.87
-4 4 7 4.15 0.95
-4 -4 7 5.01 0.94
4 4 -6 0.03 0.32
-4 4 6 0.81 0.38
-4 -4 6 0.68 0.4
-4 -4 6 0.96 0.28
-4 4 6 0.93 0.5
4 4 -5 -0.18 0.23
-4 4 5 -0.41 0.31
-4 -4 5 0.2 0.16
-4 -4 5 -0.55 0.43
-4 4 5 0.34 0.23
4 4 -4 0.8 0.36
-4 4 4 0.73 0.28
-4 -4 4 1.2 0.53
-4 -4 4 1.71 0.5
-4 4 4 0.59 0.42
4 4 -3 31.91 2.21
-4 -4 3 28.53 2.13
-4 -4 3 28.51 2.16
-4 4 3 27.84 1.85
-4 4 3 26.28 2.1
4 4 -2 0.29 0.11
4 -4 -2 0.76 0.36
-4 -4 2 1.16 0.45
-4 4 2 1.01 0.37
-4 -4 2 0.31 0.25
4 4 -1 3.66 0.7
-4 4 1 3.12 0.61
4 4 -1 2.76 0.66
-4 -4 1 3.05 0.71
-4 -4 1 3.19 0.75
4 -4 -1 3.04 0.59
4 -4 0 30.36 1.95
-4 -4 0 26.92 2.19
4 4 0 31.31 1.87
4 4 0 28.46 2.18
-4 4 0 30.55 1.75
4 -4 1 72.75 3.32
-4 -4 -1 81.11 3.96
4 4 1 76.29 3.67
-4 4 -1 76.72 2.72
4 4 2 4.33 0.89
-4 -4 -2 4 0.85
-4 4 -2 3.85 0.84
4 -4 2 2.25 0.57
-4 4 -2 2.76 0.39
4 4 3 0.9 0.42
-4 -4 -3 0.88 0.44
-4 4 -3 0.32 0.34
4 -4 3 0.84 0.45
-4 -4 -4 15 1.78
-4 4 -4 14.15 1.79
4 -4 4 14.04 1.67
4 4 4 14.81 1.73
-4 4 -5 33.93 2.86
4 -4 5 34.17 2.66
-4 -4 -5 36.01 2.92
4 4 5 34.07 2.76
-4 -4 -6 0.11 0.18
-4 4 -6 -0.31 0.45
4 4 6 -0.29 0.41
4 -4 6 0.94 0.57
-4 4 -7 0.42 0.33
-4 -4 -7 0.5 0.38
4 4 7 0.7 0.23
4 -4 7 0.8 0.53
-4 -4 -8 6.92 1.45
4 4 8 7.09 1.41
-4 4 -8 8.89 1.68
4 -4 8 7.13 1.48
4 4 9 -0.1 0.46
-4 4 -9 -0.63 0.6
4 -4 9 -0.22 0.33
-4 -4 -9 -0.12 0.43
4 4 10 -0.24 0.48
-4 4 -10 0.7 0.48
4 -4 10 0.23 0.35
-4 -4 -10 0.28 0.51
4 4 11 -0.72 0.79
-4 4 -11 1.27 1
4 -4 11 0.43 0.56
4 4 12 -1 0.47
4 -4 12 0.09 0.55
-4 5 13 -0.4 0.38
4 5 -13 0.02 0.72
4 5 -12 -0.17 0.47
-4 5 12 0.86 0.78
-4 -5 12 0.21 0.33
-4 5 11 0.82 0.63
-4 5 11 0.34 0.34
4 5 -11 1.05 0.81
-4 -5 11 0.07 0.42
-4 5 10 1.58 0.75
4 5 -10 0.8 0.51
-4 5 10 1.7 0.89
-4 -5 10 0.53 0.31
-4 5 9 2.99 0.91
4 5 -9 0.99 0.59
-4 -5 9 1.3 0.59
-4 -5 9 1.34 0.46
-4 5 9 1.43 0.69
-4 5 8 5.84 1.11
-4 5 8 4.4 1.1
4 5 -8 6.55 1.36
-4 -5 8 5.28 1.22
-4 -5 8 5.33 1.04
-4 5 7 -0.16 0.23
-4 5 7 0.17 0.28
4 5 -7 -0.25 0.36
-4 -5 7 0.21 0.33
-4 -5 7 -0.16 0.39
4 5 -6 2.31 0.72
-4 5 6 1.59 0.6
-4 5 6 2.16 0.69
-4 -5 6 1.5 0.62
-4 -5 6 3.01 0.82
4 5 -5 3.71 0.93
-4 5 5 4.29 0.87
-4 5 5 5.1 1.04
-4 -5 5 3.67 0.88
-4 -5 5 3.94 0.91
4 5 -4 6.19 1.05
-4 5 4 6.3 1.04
-4 5 4 7.19 1.17
-4 -5 4 8.13 1.22
-4 -5 4 5.94 1.12
4 5 -3 0.33 0.27
-4 5 3 0.29 0.26
-4 5 3 0.16 0.32
-4 -5 3 0.08 0.15
-4 -5 3 0.01 0.15
4 5 -2 22.61 1.87
-4 5 2 23.18 1.93
4 -5 -2 19.67 1.76
-4 -5 2 23.15 2.14
-4 -5 2 23 2.15
-4 5 2 24.99 1.99
4 5 -1 0.33 0.17
4 5 -1 0.61 0.33
-4 -5 1 0.75 0.4
-4 -5 1 0.4 0.3
4 -5 -1 1.19 0.53
-4 5 1 1.35 0.5
-4 5 0 46.07 3.05
4 5 0 48.29 2.51
4 -5 0 47.01 2.79
-4 -5 0 47.56 3.22
4 5 0 49.78 3.16
-4 5 0 48.18 2.52
-4 5 -1 45.27 3.11
4 5 1 42.15 2.17
4 -5 1 42.87 2.79
-4 -5 -1 47.08 3.17
4 5 1 45.55 3.08
-4 5 -1 45.28 2.2
4 5 2 4.81 0.96
-4 -5 -2 4.61 1.03
-4 5 -2 5.55 1.14
4 -5 2 5.29 1.01
4 5 3 0.39 0.33
-4 -5 -3 0.02 0.2
-4 5 -3 0.35 0.37
4 -5 3 0.03 0.33
-4 -5 -4 10.29 1.64
4 5 4 8.62 1.39
-4 5 -4 10.57 1.62
4 -5 4 8.39 1.37
4 5 5 8.74 1.51
-4 5 -5 9.67 1.6
-4 -5 -5 7.66 1.45
4 -5 5 7.12 1.33
-4 -5 -6 2.7 0.79
-4 5 -6 3.06 0.95
4 5 6 2.91 1.03
4 -5 6 2.27 0.74
4 5 7 0.33 0.23
-4 5 -7 1.71 0.82
-4 -5 -7 0.75 0.35
4 -5 7 0.89 0.55
-4 -5 -8 0.11 0.27
4 5 8 0.83 0.76
-4 5 -8 0.73 0.76
4 -5 8 0.67 0.34
4 5 9 -0.14 0.28
-4 5 -9 0.57 0.43
4 -5 9 0.4 0.47
-4 -5 -9 -0.19 0.57
4 5 10 1.51 0.82
-4 5 -10 0.57 0.62
4 -5 10 -0.5 0.67
-4 -5 -10 1.49 1.11
4 5 11 -1.45 0.94
4 -5 11 -0.19 0.64
-4 6 13 -0.25 0.46
4 6 -13 1.24 0.78
4 6 -12 0.08 0.72
-4 6 12 -1.44 1.01
-4 -6 12 -0.65 0.63
-4 6 11 0.5 0.39
-4 -6 11 0.59 0.67
-4 6 10 1.52 0.76
4 6 -10 2.45 1
-4 -6 10 0.27 0.56
-4 6 10 1.11 0.73
-4 6 9 5.07 1.33
-4 6 9 5.66 1.29
4 6 -9 4.51 1.26
-4 -6 9 6.75 1.48
-4 6 8 0.33 0.66
-4 6 8 0.53 0.4
-4 -6 8 0.01 0.21
4 6 -8 0.79 0.48
-4 -6 8 0.44 0.31
-4 6 7 0.64 0.49
4 6 -7 -0.35 0.51
-4 6 7 -0.09 0.41
-4 -6 7 0.71 0.53
-4 -6 7 0.03 0.29
4 6 -6 0.05 0.37
-4 6 6 -0.42 0.35
-4 -6 6 0.37 0.41
-4 6 6 -0.16 0.38
-4 -6 6 0.57 0.53
4 -6 -6 0.08 0.36
4 6 -5 1.46 0.6
-4 6 5 0.62 0.3
-4 -6 5 1.58 0.55
-4 -6 5 0.11 0.27
4 -6 -5 1.05 0.6
-4 6 5 0.92 0.43
-4 6 4 0.67 0.49
-4 -6 4 0.22 0.29
-4 -6 4 0.5 0.25
4 -6 -4 0.24 0.38
-4 6 4 1.1 0.48
4 6 -4 0.76 0.4
4 6 -3 -0.08 0.4
-4 6 3 0.26 0.2
-4 6 3 0.07 0.26
-4 -6 3 -0.18 0.28
-4 -6 3 0.53 0.45
4 -6 -3 -0.04 0.25
-4 6 3 0.24 0.22
4 6 -2 0.85 0.42
-4 6 2 0.97 0.44
-4 6 2 0.56 0.18
-4 -6 2 0.88 0.61
-4 6 2 1.42 0.52
4 -6 -2 0.7 0.45
-4 -6 2 1.02 0.53
4 -6 -2 0.71 0.27
-4 6 1 4.53 0.91
-4 -6 1 4.9 1.08
4 6 -1 3.21 0.84
-4 6 1 5.08 1.01
-4 -6 1 4.33 1.06
4 -6 -1 3.79 0.88
4 6 -1 4.15 0.77
4 6 0 15.07 1.44
-4 -6 0 14.74 1.93
4 6 0 13.3 1.77
-4 6 0 15.61 1.91
4 -6 0 12.77 1.61
-4 6 0 15.98 1.51
-4 6 -1 12.27 1.22
-4 -6 -1 14.66 1.96
4 6 1 15.44 1.94
-4 6 -1 16.34 1.97
4 -6 1 15.71 1.85
-4 -6 -2 0.34 0.45
4 6 2 1.27 0.62
-4 6 -2 0.39 0.54
4 -6 2 -0.04 0.25
-4 6 -3 -0.03 0.29
4 6 3 -0.13 0.39
-4 -6 -3 0.37 0.23
4 -6 3 0.61 0.3
4 6 4 -0.58 0.52
-4 6 -4 0.47 0.39
4 -6 4 0.64 0.45
-4 -6 -4 -0.03 0.32
4 6 5 5.1 1.2
-4 -6 -5 7.04 1.57
-4 6 -5 5.31 1.35
4 -6 5 4.35 1.06
-4 -6 -6 0.11 0.28
4 6 6 -0.28 0.4
-4 6 -6 -0.02 0.39
4 -6 6 0.01 0.42
-4 6 -7 -0.11 0.28
4 6 7 -0.12 0.6
4 -6 7 1.22 0.61
-4 -6 -8 0.7 0.64
4 6 8 1.84 0.98
-4 6 -8 1.26 0.8
4 -6 8 0.04 0.38
4 6 9 0.66 0.62
-4 6 -9 -0.04 0.4
4 -6 9 -0.32 0.56
-4 -6 -9 -0.89 0.9
4 6 10 1.32 0.94
-4 6 -10 0.82 0.58
4 -6 10 1.63 1.07
4 7 -12 -0.02 0.52
4 7 -11 0.25 0.56
-4 -7 11 0.75 0.87
-4 7 11 -0.96 0.88
4 7 -10 0.27 0.35
-4 -7 10 0.82 0.57
-4 7 10 0.49 0.66
-4 7 9 1.14 0.89
4 7 -9 0.36 0.49
-4 -7 9 -0.09 0.37
-4 7 8 0.71 0.61
-4 7 8 0.41 0.48
4 7 -8 1.3 0.76
-4 -7 8 0.02 0.39
-4 7 7 -0.01 0.26
4 7 -7 0.02 0.32
-4 7 7 0.02 0.28
-4 -7 7 1.05 0.69
4 -7 -7 -0.6 0.74
4 7 -6 -0.93 0.65
-4 7 6 0.22 0.24
-4 -7 6 0.47 0.53
-4 -7 6 -0.5 0.61
4 -7 -6 -0.57 0.49
-4 7 6 -0.34 0.36
4 7 -5 0.42 0.37
-4 7 5 0.82 0.47
-4 -7 5 1.05 0.62
-4 -7 5 0.19 0.33
4 -7 -5 0.28 0.44
-4 7 5 -0.14 0.29
-4 7 4 4.5 1.12
4 7 -4 3.79 1.08
-4 7 4 3.43 0.93
-4 -7 4 3.47 0.99
-4 7 4 2.8 0.77
-4 -7 4 3.75 1.14
4 -7 -4 2.83 0.91
4 7 -3 -0.36 0.29
-4 7 3 -0.05 0.3
-4 -7 3 0.15 0.37
-4 7 3 0.55 0.46
-4 -7 3 -0.18 0.29
4 -7 -3 0.46 0.45
-4 7 3 -0.16 0.41
4 7 -2 2.83 0.83
-4 -7 2 2.35 0.86
-4 7 2 2.7 0.81
-4 7 2 2.26 0.75
4 -7 -2 1.03 0.71
-4 -7 2 2.3 0.89
4 -7 -2 2.99 0.78
-4 7 2 2.52 0.79
4 7 -1 0.34 0.33
4 7 -1 0.17 0.26
-4 -7 1 0.01 0.37
-4 7 1 -0.09 0.39
-4 7 1 -0.01 0.29
-4 -7 1 0.13 0.24
4 -7 -1 -0.26 0.26
-4 7 0 10.46 1.41
-4 -7 0 15.24 2.06
4 7 0 12.81 1.89
-4 7 0 12.58 1.79
4 -7 0 10.87 1.69
-4 -7 -1 3.25 1
4 7 1 3.53 1.01
-4 7 -1 4.65 1.12
4 -7 1 2.45 0.83
-4 -7 -2 0.27 0.26
4 7 2 0.96 0.72
-4 7 -2 0.16 0.31
4 -7 2 -0.19 0.33
-4 -7 -3 0.22 0.37
4 7 3 0.98 0.62
-4 7 -3 -0.11 0.36
4 -7 3 0.38 0.48
4 7 4 6.72 1.52
-4 7 -4 5.22 1.32
-4 -7 -4 6.5 1.49
4 -7 4 7.14 1.46
-4 -7 -5 3.34 1.14
4 7 5 3.02 1.11
-4 7 -5 1.92 0.84
4 -7 5 2.5 0.95
-4 -7 -6 0.63 0.31
-4 7 -6 1.57 0.93
4 -7 6 1.58 0.86
4 7 6 1.19 0.79
-4 -7 -7 1.18 0.58
4 7 7 0.08 0.59
-4 7 -7 0.62 0.58
4 -7 7 0.68 0.58
-4 -7 -8 0.1 0.41
4 -7 8 0.51 0.52
4 7 8 -0.12 0.54
4 7 9 -0.45 0.44
-4 7 -9 0.09 0.42
-4 -7 -9 -0.61 0.51
4 8 -10 -0.56 0.79
-4 8 10 0.56 0.52
4 8 -9 -0.26 0.67
-4 -8 9 0.31 0.45
4 8 -8 1.01 0.59
-4 8 8 0.14 0.53
-4 -8 8 0.32 0.52
4 8 -7 1.05 0.45
-4 8 7 0.37 0.45
-4 -8 7 0.26 0.5
4 -8 -7 -0.02 0.37
4 8 -6 0.57 0.59
-4 8 6 0.8 0.76
-4 -8 6 0.27 0.41
-4 8 6 0.07 0.42
4 -8 -6 0.96 0.69
4 8 -5 0.1 0.42
-4 8 5 0.31 0.42
-4 -8 5 0.88 0.77
-4 -8 5 0.17 0.49
4 -8 -5 0.48 0.52
-4 8 5 0.43 0.51
4 8 -4 -0.17 0.26
-4 8 4 -1.03 0.76
-4 -8 4 -0.09 0.35
-4 -8 4 -0.02 0.53
4 -8 -4 1 0.4
-4 8 4 0.15 0.36
4 8 -3 3.07 0.85
-4 -8 3 2.47 0.96
-4 8 3 1.88 0.8
-4 -8 3 1.14 0.76
4 -8 -3 2.7 0.87
-4 8 3 2.01 0.75
-4 8 2 -0.08 0.4
-4 8 2 -0.06 0.26
4 8 -2 -0.45 0.37
4 -8 -2 0.1 0.34
-4 -8 2 -0.84 0.67
-4 8 2 -0.6 0.53
4 -8 -2 0.09 0.38
-4 -8 1 -0.59 0.65
-4 8 1 -0.25 0.32
4 8 -1 -0.48 0.53
-4 8 1 -0.76 0.57
-4 -8 1 -0.61 0.47
4 -8 -1 -0.36 0.57
4 8 0 0.48 0.48
-4 -8 0 -0.21 0.42
-4 8 0 -0.16 0.52
4 -8 0 -0.59 0.62
4 8 1 2.15 0.92
-4 8 -1 1.54 0.59
4 -8 1 0.99 0.67
-4 -8 -1 1.09 0.79
-4 -8 -2 1.05 0.8
4 8 2 1.87 0.81
-4 8 -2 0.87 0.7
4 -8 2 1.18 0.71
4 8 3 0.41 0.33
-4 8 -3 0.73 0.71
4 -8 3 0.2 0.45
-4 -8 -3 -0.35 0.55
-4 -8 -4 1.1 0.59
4 8 4 1.84 0.82
-4 8 -4 0.55 0.5
4 -8 4 -0.05 0.45
-4 -8 -5 4.8 1.46
4 8 5 5.42 1.56
-4 8 -5 4.54 1.45
4 -8 5 6.17 1.63
-4 -8 -6 -0.51 0.61
4 8 6 -0.02 0.51
-4 8 -6 -0.17 0.52
4 -8 6 0.04 0.51
-4 -8 -7 0.74 0.63
4 8 7 0.68 0.53
-4 8 -7 -1.23 0.85
4 8 8 -0.27 0.66
-4 8 -8 0.85 0.94
-4 -8 -8 1.25 1.27
-4 -9 7 0.38 0.57
-4 -9 6 -0.18 0.75
-4 -9 5 -0.22 0.87
-4 -9 4 0.76 0.67
4 9 -3 0.53 0.58
-4 -9 3 -0.25 0.42
-4 -9 2 0.78 0.48
-4 9 2 -0.33 0.51
4 9 -2 -0.1 0.37
-4 -9 2 0.79 0.69
-4 -9 1 0.57 0.65
4 9 -1 -0.14 0.34
-4 9 1 -0.32 0.43
4 -9 -1 0.87 0.65
-4 -9 0 4.49 1.51
4 9 0 4.6 1.65
4 -9 0 3.74 1.27
4 9 1 0.82 0.61
-4 9 -1 0.25 0.55
-4 -9 -1 1.12 0.67
4 -9 1 -0.66 0.71
-4 -9 -2 1.31 0.91
4 9 2 -0.2 0.62
-4 9 -2 0.13 0.41
4 -9 2 0.18 0.5
-4 -9 -3 -0.68 0.85
4 9 3 0.88 0.75
-4 9 -3 1.25 0.85
-4 -9 -4 2.66 1.17
4 9 4 1.37 0.78
-4 9 -4 1.05 0.96
-4 -9 -5 1 1.04
4 9 5 -0.37 0.71
-4 9 -5 1.24 0.95
-4 -10 3 0.11 0.42
4 10 -2 -0.32 0.64
4 10 -1 0.93 0.81
4 10 0 0.07 0.58
4 10 1 -0.43 0.81
5 0 -13 1.51 0.67
-5 0 13 2.37 0.85
-5 0 13 1.98 0.8
5 0 -12 0.55 0.54
-5 0 12 -0.26 0.23
-5 0 12 0.32 0.37
5 0 -11 0.04 0.25
-5 0 11 -0.01 0.28
-5 0 11 0.11 0.19
5 0 -10 -0.43 0.33
-5 0 10 -0.06 0.23
-5 0 10 -0.11 0.22
5 0 -9 49.23 3.21
-5 0 9 47.76 2.69
-5 0 9 45.33 3.17
5 0 -8 1.61 0.55
-5 0 8 1.72 0.72
-5 0 8 0.86 0.29
-5 0 7 11.21 1.43
-5 0 7 11.98 1.07
5 0 -7 13.2 1.55
-5 0 6 5.86 1.02
-5 0 6 5.69 0.63
-5 0 5 149.65 3.52
-5 0 5 165.79 5.48
-5 0 4 1.04 0.41
-5 0 4 0.38 0.12
-5 0 3 84.98 3.5
-5 0 2 46.19 2.42
5 0 -1 258.51 4.67
-5 0 1 283.82 6.81
5 0 0 5.82 0.53
-5 0 0 6.42 0.83
5 0 1 23.06 1.32
-5 0 -1 21.59 1.51
5 0 2 2.91 0.55
-5 0 -2 2.02 0.51
5 0 3 7.91 0.98
-5 0 -3 7.7 0.95
5 0 4 1.98 0.57
-5 0 -4 1.77 0.47
-5 0 -5 150.78 5.31
5 0 5 154.53 5.51
-5 0 -5 153.46 4.71
-5 0 -6 13.52 1.25
-5 0 -6 13.2 1.48
5 0 6 13.23 1.59
-5 0 -7 13.38 1.58
5 0 7 16.28 1.91
-5 0 -8 6.55 1.11
5 0 8 10.48 1.64
5 0 9 11.73 1.87
5 0 10 3.25 0.99
5 0 11 0.58 0.52
5 0 12 2.7 0.99
-5 1 14 -0.46 0.51
-5 1 13 0.34 0.29
5 1 -13 -0.87 0.63
-5 -1 13 0.53 0.35
-5 -1 13 -0.45 0.48
-5 1 12 -0.55 0.5
5 1 -12 0.36 0.37
-5 -1 12 -0.35 0.45
-5 -1 12 1.05 0.63
-5 1 12 0.6 0.43
-5 1 11 1 0.51
5 1 -11 0.23 0.27
-5 -1 11 0.44 0.51
-5 -1 11 0.23 0.32
-5 1 11 0.41 0.46
-5 1 10 1.45 0.68
5 1 -10 0.98 0.5
-5 -1 10 2.32 0.74
-5 -1 10 2.25 0.66
-5 1 10 1.61 0.5
-5 1 9 8.39 1.42
5 1 -9 6.1 1.18
-5 -1 9 6.91 1.21
-5 -1 9 7.13 1.04
-5 1 9 6.89 0.94
-5 1 8 12.38 1.63
-5 -1 8 10.59 1.46
-5 -1 8 11.57 1.21
5 1 -8 10.74 1.4
-5 1 8 9.11 1.05
5 1 -7 6.67 1.12
-5 -1 7 6.91 1.12
-5 -1 7 5.84 0.8
-5 1 7 6.41 1.12
-5 1 7 6.33 0.75
5 1 -6 31.91 2.36
-5 -1 6 28.32 1.64
-5 1 6 30.89 1.53
-5 -1 6 32.32 2.31
-5 1 6 34 2.5
5 1 -5 17.35 1.67
-5 -1 5 17.95 1.15
-5 1 5 17.49 0.89
-5 -1 5 18.92 1.71
-5 1 5 17.97 1.69
5 1 -4 29.39 2.09
-5 -1 4 30.1 1.37
-5 -1 4 31.36 2.12
-5 1 4 32.72 2.17
-5 -1 3 63.74 1.91
-5 -1 3 62.31 2.98
-5 1 3 66.8 3.05
-5 -1 2 6.27 0.91
5 1 -2 5.83 0.52
-5 1 2 5.81 0.83
-5 -1 1 12.46 1.26
5 1 -1 12.75 0.83
-5 1 1 14.04 1.22
5 -1 0 55.23 1.79
5 1 0 59.86 2.15
-5 -1 0 57.26 2.76
-5 1 0 59.69 2.5
5 -1 1 140.09 3.81
5 1 1 143.38 4.07
-5 -1 -1 146.35 4.76
-5 1 -1 152.98 4.25
5 1 2 9.33 1.01
-5 -1 -2 10.14 1.14
-5 1 -2 9.92 0.91
5 -1 2 10.21 0.96
-5 -1 -3 3.48 0.66
5 1 3 3.04 0.65
-5 1 -3 2.4 0.46
5 -1 3 2.16 0.53
5 -1 4 91.3 3.8
5 1 4 90.9 3.9
-5 -1 -4 91.81 3.74
-5 1 -4 88.25 2.97
-5 1 -5 194.66 6.56
5 -1 5 192.99 6.33
5 1 5 200.22 6.58
-5 -1 -5 204.95 6.13
5 1 6 14.39 1.66
-5 -1 -6 12.07 1.37
-5 1 -6 14.05 1.63
-5 -1 -6 13.04 1.39
5 -1 6 12.44 1.54
5 1 7 15.39 1.89
-5 -1 -7 13.8 1.45
-5 -1 -7 16.68 1.67
-5 1 -7 16.45 1.85
5 -1 7 18.92 2.03
5 1 8 -0.28 0.31
-5 -1 -8 0.49 0.34
-5 1 -8 0.63 0.3
5 -1 8 0.35 0.24
5 1 9 0.83 0.46
-5 1 -9 0.72 0.51
5 -1 9 1.41 0.68
5 -1 10 4.06 1.13
5 1 10 4.41 1.16
5 -1 11 0.86 0.69
5 1 11 0.31 0.53
5 -1 12 0.26 0.56
5 1 12 0.66 0.69
5 2 -14 1 0.49
-5 2 14 0.68 0.39
-5 2 13 -0.19 0.53
5 2 -13 0.46 0.5
-5 -2 13 0.78 0.54
5 2 -12 2.29 0.91
-5 2 12 1.87 0.64
-5 -2 12 3.7 0.97
-5 -2 12 3.01 0.98
-5 2 12 3.09 0.9
5 2 -11 0.57 0.48
-5 2 11 0.78 0.53
-5 -2 11 1.07 0.5
-5 -2 11 0.67 0.36
-5 2 11 0.5 0.21
5 2 -10 3.38 0.93
-5 -2 10 3.24 0.87
-5 2 10 4 0.99
-5 -2 10 3.86 0.84
-5 2 10 4.08 0.83
5 2 -9 59.96 3.81
-5 -2 9 59.59 3.31
-5 2 9 58.16 3.05
-5 -2 9 57.98 3.57
-5 2 9 62.63 3.98
-5 2 8 13.79 1.29
-5 -2 8 16.3 1.8
5 2 -8 15.23 1.78
-5 2 8 15.43 1.85
-5 -2 8 12.69 1.42
-5 2 7 0.19 0.25
5 2 -7 0.14 0.3
-5 -2 7 0.16 0.29
-5 2 7 0.4 0.31
-5 -2 7 0.19 0.2
-5 2 6 1.19 0.33
-5 -2 6 1.68 0.57
5 2 -6 1.38 0.52
-5 2 6 2.41 0.69
-5 -2 6 1.53 0.42
5 2 -5 18.06 1.77
-5 -2 5 20.39 1.45
-5 2 5 21.94 1.15
-5 -2 5 19.35 1.75
-5 2 5 23.91 1.96
5 2 -4 35.05 2.33
-5 -2 4 31.12 1.72
-5 2 4 26.24 1.1
-5 -2 4 32.31 2.24
-5 2 4 33.5 2.27
5 2 -3 21.11 1.75
-5 -2 3 19.65 1.27
-5 2 3 16.17 0.74
-5 -2 3 20.59 1.74
-5 2 3 20.92 1.68
-5 2 2 6.86 0.92
-5 2 2 3.68 0.38
5 2 -2 5.74 0.68
-5 -2 2 6.42 0.72
-5 -2 2 6.31 0.98
5 -2 -1 86.82 2.46
-5 -2 1 97.24 3.92
5 2 -1 100.93 3.2
-5 2 1 102.18 3.56
5 -2 0 62.94 2.2
-5 -2 0 64 3.14
5 2 0 61.98 2.55
-5 2 0 62.87 2.58
5 -2 1 89.8 3.01
5 2 1 90.74 3.36
-5 -2 -1 92.46 3.9
-5 2 -1 91.06 3.01
5 2 2 0.13 0.17
-5 -2 -2 0.33 0.3
5 -2 2 0.45 0.31
-5 2 -2 0.11 0.12
5 -2 3 65.12 2.99
5 2 3 64.99 3.17
-5 -2 -3 63.77 3.27
-5 2 -3 63.91 2.19
5 2 4 5.36 0.9
-5 -2 -4 6.13 1.01
-5 2 -4 4.28 0.94
5 -2 4 4.78 0.86
-5 2 -5 61.18 3.63
5 -2 5 61.95 3.4
-5 -2 -5 66.97 3.51
5 2 5 62.21 3.51
-5 2 -6 29.54 2.55
5 -2 6 28.97 2.44
-5 -2 -6 30.25 2.39
5 2 6 30.11 2.54
5 2 7 7.72 1.37
-5 -2 -7 7.76 1.25
-5 2 -7 5.94 1.13
5 -2 7 6.7 1.24
5 2 8 0.62 0.53
-5 -2 -8 -0.34 0.31
5 -2 8 -0.39 0.41
5 2 9 7.99 1.53
-5 2 -9 6.6 1.4
5 -2 9 5.88 1.25
5 2 10 0.39 0.52
-5 2 -10 0.49 0.28
5 -2 10 0.55 0.32
5 2 11 0.36 0.5
5 -2 11 1.06 0.77
5 -2 12 1.67 0.96
5 2 12 2.22 1.14
-5 3 14 0.12 0.54
5 3 -14 -0.74 0.76
5 3 -13 -0.11 0.41
-5 3 13 0.97 0.76
-5 -3 13 -0.11 0.56
5 3 -12 -0.07 0.43
-5 3 12 0.85 0.63
-5 -3 12 0.3 0.35
-5 3 11 2.75 0.69
-5 -3 11 3.62 0.96
5 3 -11 4.38 1.14
-5 3 11 3.36 1.12
-5 -3 11 2.66 0.86
-5 3 10 2.68 0.74
5 3 -10 1.91 0.78
-5 -3 10 1.03 0.61
-5 3 10 2.48 1.04
-5 -3 10 2.09 0.76
-5 3 9 18.54 1.73
5 3 -9 18.79 2.14
-5 -3 9 18.99 2.02
-5 3 9 20.55 2.32
-5 -3 9 17.15 1.87
5 3 -8 25.62 2.44
-5 -3 8 24.65 2.15
-5 3 8 21.78 1.75
-5 -3 8 24.27 2.19
-5 3 8 27.16 2.55
-5 3 7 0.67 0.35
-5 -3 7 0.31 0.31
5 3 -7 -0.05 0.3
-5 -3 7 0.33 0.26
-5 3 7 1.2 0.62
-5 -3 6 0.02 0.14
-5 3 6 -0.12 0.13
5 3 -6 0.13 0.17
-5 -3 6 -0.17 0.23
-5 3 6 0.05 0.26
5 3 -5 22.61 2.02
-5 -3 5 19.61 1.68
-5 3 5 18.53 1.25
-5 -3 5 20.36 1.9
-5 3 5 19.87 1.95
5 3 -4 0.59 0.44
-5 3 4 0.87 0.22
-5 3 4 0.27 0.18
-5 -3 4 0.73 0.32
-5 -3 4 1.4 0.55
5 3 -3 1.89 0.52
-5 3 3 1.44 0.26
-5 3 3 2.07 0.59
-5 -3 3 1.81 0.49
-5 -3 3 1.41 0.52
5 3 -2 10.88 1.21
-5 3 2 9.12 1.12
5 3 -2 9.91 1.08
-5 3 2 10.16 0.86
-5 -3 2 11.31 1.15
5 -3 -2 9.65 0.83
-5 -3 2 9.82 1.28
-5 3 1 7.38 0.93
5 3 -1 7.38 0.99
5 3 -1 7.88 0.97
5 -3 -1 6.11 0.71
-5 -3 1 7.6 1.12
-5 -3 0 64.59 3.38
5 3 0 64.8 2.93
-5 3 0 66.8 2.68
5 -3 1 147.53 4.48
-5 -3 -1 150.51 5.48
5 3 1 149.67 4.98
-5 3 -1 144.69 4.11
5 -3 2 45.82 2.47
-5 -3 -2 51.66 3.09
5 3 2 49.28 2.76
-5 3 -2 42.92 1.78
5 3 3 5.44 1.01
-5 -3 -3 6.95 1.13
5 -3 3 5.96 0.9
5 3 4 18.37 1.85
-5 -3 -4 15.12 1.76
-5 3 -4 17.69 1.98
5 -3 4 15.84 1.65
-5 3 -5 154.83 6.38
5 -3 5 158.64 5.97
-5 -3 -5 157.16 6.18
5 3 5 155.76 6.07
5 3 6 1.21 0.64
-5 -3 -6 -0.12 0.4
-5 3 -6 1.68 0.78
5 -3 6 1.72 0.67
5 3 7 1.35 0.72
-5 -3 -7 1.28 0.66
-5 3 -7 1.37 0.66
5 -3 7 2.01 0.76
-5 -3 -8 0.1 0.3
5 3 8 -0.03 0.27
-5 3 -8 0.22 0.24
5 -3 8 0.29 0.38
-5 -3 -9 0.2 0.31
5 3 9 -1.08 0.85
-5 3 -9 -0.97 0.73
5 -3 9 0.25 0.49
5 3 10 0.44 0.37
-5 3 -10 1.43 0.74
5 -3 10 0.21 0.55
5 3 11 -0.53 0.46
5 -3 11 -0.04 0.84
5 3 12 0.24 0.41
-5 4 14 0.96 1.02
5 4 -14 0.53 0.6
5 4 -13 -0.23 0.36
-5 4 13 1.59 1.1
5 4 -12 0.16 0.51
-5 4 12 0.18 0.3
-5 -4 12 1.41 0.84
-5 -4 11 -0.1 0.48
-5 4 11 0.07 0.35
-5 -4 10 1 0.52
-5 4 10 0.08 0.43
5 4 -10 1.48 0.7
-5 -4 10 0.63 0.44
-5 4 10 0.11 0.38
5 4 -9 30.17 2.92
-5 -4 9 28.9 2.65
-5 4 9 27.79 2.27
-5 -4 9 32.18 2.72
-5 4 9 27.35 2.89
-5 4 8 5.62 1.16
-5 4 8 5.86 0.99
5 4 -8 6.65 1.32
-5 -4 8 5.45 1.07
-5 -4 8 4.57 1
-5 4 7 0.33 0.45
-5 4 7 0.65 0.36
-5 -4 7 0.04 0.27
5 4 -7 0.39 0.47
-5 -4 7 -0.45 0.37
-5 4 6 0.69 0.31
-5 4 6 0.74 0.26
5 4 -6 1.12 0.44
-5 -4 6 1.25 0.49
-5 -4 6 0.98 0.49
-5 4 5 12.29 1.59
5 4 -5 13.25 1.61
-5 4 5 13.47 1.25
-5 -4 5 11.49 1.48
-5 -4 5 12.3 1.57
-5 4 4 7.17 0.87
-5 -4 4 6.63 1.07
-5 -4 4 6.98 1.17
5 4 -4 8.24 1.24
-5 4 4 7.72 1.2
-5 4 3 6.18 0.81
5 4 -3 5.74 0.96
-5 -4 3 5.6 0.95
-5 -4 3 6.76 1.21
-5 4 3 6.55 1.04
5 4 -2 0.13 0.13
5 4 -2 0.35 0.12
-5 -4 2 -0.05 0.26
5 -4 -2 -0.08 0.22
-5 -4 2 0.03 0.26
-5 4 2 0.4 0.26
5 4 -1 39.66 2.4
5 -4 -1 36.91 2.07
-5 -4 1 38.6 2.76
5 4 -1 38.41 2.51
-5 4 1 40.6 2.32
-5 4 0 12.43 1.19
5 4 0 14.81 1.59
-5 -4 0 13.69 1.65
5 -4 0 13.51 1.32
5 4 1 13.94 1.51
-5 -4 -1 15.25 1.76
5 -4 1 10.2 1.22
-5 4 -1 13.8 1.11
5 4 2 -0.15 0.22
-5 -4 -2 0.18 0.31
5 -4 2 -0.12 0.15
-5 -4 -3 24.09 2.29
-5 4 -3 23.83 2.37
5 -4 3 21.29 1.92
5 4 3 22.84 2.09
5 4 4 1 0.56
-5 -4 -4 1.12 0.64
-5 4 -4 2.22 0.75
5 -4 4 0.52 0.37
-5 4 -5 30.65 2.86
5 -4 5 30.25 2.57
-5 -4 -5 31.27 2.81
5 4 5 31.03 2.71
5 4 6 8.16 1.44
-5 -4 -6 8.84 1.55
-5 4 -6 8.69 1.55
5 -4 6 7.79 1.35
-5 -4 -7 3.63 1.06
5 4 7 3.16 0.91
-5 4 -7 1.89 0.83
5 -4 7 3.15 0.92
-5 -4 -8 0.87 0.4
5 4 8 1.56 0.79
-5 4 -8 0.95 0.65
5 -4 8 1.92 0.94
-5 -4 -9 3.49 1.21
5 4 9 4.48 1.32
-5 4 -9 4.24 1.14
5 -4 9 4.16 1.13
5 4 10 0.4 0.35
-5 4 -10 1.53 1.04
5 -4 10 0.09 0.45
5 4 11 -0.36 0.65
5 5 -13 -0.39 0.64
-5 5 13 -0.45 0.47
5 5 -12 -0.15 0.51
-5 -5 12 -0.05 0.46
-5 5 12 0.62 0.8
-5 5 11 0.71 0.87
5 5 -11 0.54 0.36
-5 -5 11 0.02 0.4
-5 5 10 -0.61 0.5
5 5 -10 -0.28 0.54
-5 -5 10 0.04 0.39
-5 5 9 2.02 0.85
-5 5 9 0.59 0.34
5 5 -9 0.2 0.23
-5 -5 9 0.92 0.66
-5 -5 9 0.4 0.24
-5 5 8 1.38 0.63
5 5 -8 2.21 0.72
-5 5 8 1.53 0.62
-5 -5 8 1.67 0.77
-5 -5 8 1.46 0.68
5 5 -7 1.78 0.78
-5 5 7 1.96 0.67
-5 5 7 2.16 0.72
-5 -5 7 1.61 0.62
-5 -5 7 1.89 0.64
5 5 -6 4.85 1.08
-5 5 6 5.62 0.99
-5 5 6 6.24 1.18
-5 -5 6 5.12 1.09
-5 -5 6 5.59 1.09
5 5 -5 3.24 0.87
-5 5 5 2.32 0.63
-5 5 5 2.39 0.73
-5 -5 5 2.68 0.79
-5 -5 5 2.61 0.74
5 5 -4 11.48 1.52
-5 5 4 11.46 1.5
-5 5 4 8.08 1.16
-5 -5 4 10.19 1.45
-5 -5 4 10.71 1.55
-5 5 3 10.47 1.26
-5 5 3 11 1.43
-5 -5 3 11.26 1.61
-5 -5 3 8.54 1.35
5 5 -3 10.06 1.38
-5 5 2 1.93 0.58
5 5 -2 1.31 0.5
5 5 -2 1.44 0.54
-5 5 2 1.21 0.41
-5 -5 2 1.29 0.54
-5 -5 2 0.53 0.33
5 -5 -2 0.99 0.38
5 5 -1 5.96 0.93
5 5 -1 6.71 1.18
-5 -5 1 6.37 1.22
5 -5 -1 4.52 0.88
-5 5 1 6.3 0.94
5 5 0 6.56 0.94
5 5 0 7.07 1.17
-5 -5 0 6.15 1.22
-5 5 0 6.86 0.94
5 -5 0 7.07 1.08
5 5 1 14.03 1.71
-5 -5 -1 11.11 1.62
-5 5 -1 12.05 1.72
5 -5 1 10.39 1.38
5 5 2 0.73 0.43
-5 -5 -2 1.28 0.64
-5 5 -2 0.27 0.27
5 -5 2 1.14 0.5
5 5 3 0.86 0.47
-5 -5 -3 2.44 0.84
-5 5 -3 1.46 0.48
5 -5 3 1.5 0.71
-5 5 -4 31.35 2.98
5 -5 4 29.22 2.55
-5 -5 -4 34.07 3.05
5 5 4 29.78 2.7
-5 5 -5 49.32 3.85
5 -5 5 48.06 3.47
-5 -5 -5 45.86 3.71
5 5 5 44.06 3.46
5 5 6 3.23 0.9
-5 5 -6 2.57 0.92
5 -5 6 3.01 0.97
-5 -5 -6 3.26 0.99
-5 -5 -7 5.17 1.36
5 5 7 3.63 1.08
-5 5 -7 5.42 1.33
5 -5 7 5.3 1.35
-5 -5 -8 0.15 0.47
5 5 8 -0.38 0.69
-5 5 -8 -0.17 0.54
5 -5 8 -0.38 0.48
-5 -5 -9 -0.38 0.42
5 5 9 0.21 0.66
-5 5 -9 -0.08 0.46
5 -5 9 0.31 0.4
5 5 10 1.74 1.02
-5 5 -10 1.12 0.78
5 -5 10 2.09 1.02
-5 6 12 -1.05 0.77
5 6 -12 -0.27 0.63
-5 6 11 1.09 0.58
5 6 -11 -1.13 0.78
-5 -6 11 0.78 0.93
-5 6 10 0.57 0.68
-5 -6 10 -0.73 0.67
5 6 -10 -0.6 0.6
-5 6 9 7.57 1.72
-5 -6 9 6.13 1.54
5 6 -9 6.64 1.47
5 6 -8 1.08 0.71
-5 6 8 1.59 0.86
-5 -6 8 0.64 0.46
-5 -6 8 0.71 0.61
-5 6 8 0.76 0.49
-5 6 7 1.25 0.72
5 6 -7 2.39 0.96
-5 6 7 1.03 0.67
-5 -6 7 1.21 0.47
-5 -6 7 1.56 0.74
5 6 -6 0.68 0.41
-5 6 6 -0.4 0.44
-5 -6 6 0.4 0.41
-5 6 6 1.08 0.66
-5 -6 6 0.58 0.34
5 6 -5 15.04 1.91
-5 6 5 9.78 1.49
-5 -6 5 13.77 1.84
-5 6 5 14.08 1.85
-5 -6 5 11.7 1.73
5 6 -4 0.25 0.42
-5 6 4 0.49 0.4
-5 6 4 1.15 0.65
-5 -6 4 -0.09 0.5
-5 -6 4 0.04 0.27
5 6 -3 5.17 1.01
-5 6 3 3.44 0.89
-5 6 3 4.85 0.98
-5 -6 3 6.5 1.25
-5 -6 3 5.01 1.07
5 6 -2 2.1 0.62
-5 6 2 2.04 0.65
5 6 -2 2.13 0.71
-5 6 2 2.02 0.69
-5 -6 2 1.32 0.6
-5 -6 2 0.51 0.44
5 -6 -2 1.24 0.51
-5 6 1 7.2 1.16
5 6 -1 6.05 1.01
5 6 -1 7.07 1.33
-5 -6 1 6.5 1.37
-5 6 1 7.93 1.37
5 -6 -1 4.66 0.99
5 6 0 -0.42 0.32
-5 -6 0 0.25 0.29
-5 6 0 0.58 0.49
5 -6 0 -0.07 0.23
-5 6 0 0.13 0.3
5 6 0 0.07 0.24
5 6 1 1.49 0.66
-5 -6 -1 -0.18 0.25
-5 6 -1 1.58 0.73
5 -6 1 0.41 0.45
5 6 2 1.65 0.75
-5 -6 -2 1.12 0.64
-5 6 -2 0.79 0.57
5 -6 2 1.17 0.54
5 6 3 1.23 0.53
-5 -6 -3 0.86 0.44
-5 6 -3 1.65 0.86
5 -6 3 1.2 0.61
-5 -6 -4 0.19 0.43
5 6 4 1.06 0.63
-5 6 -4 0.43 0.52
5 -6 4 0.17 0.35
-5 -6 -5 16.53 2.35
5 6 5 19.52 2.46
-5 6 -5 16.59 2.31
5 -6 5 19.2 2.35
-5 -6 -6 2.42 0.93
-5 6 -6 0.29 0.52
5 6 6 2.22 0.74
5 -6 6 0.73 0.62
-5 -6 -7 3.04 1.05
5 6 7 2.32 0.95
-5 6 -7 2.74 1.11
5 -6 7 0.35 0.52
-5 -6 -8 0.54 0.69
5 6 8 -0.11 0.42
-5 6 -8 -0.1 0.55
5 -6 8 0.89 0.5
-5 -6 -9 1.85 1.05
5 6 9 -0.57 0.73
-5 6 -9 1.4 1.02
-5 7 11 0.09 0.63
5 7 -11 0.4 0.52
5 7 -10 -0.12 0.43
-5 7 10 -0.93 0.75
-5 -7 10 -0.21 0.43
5 7 -9 0.61 0.89
-5 7 9 1.08 0.9
-5 -7 9 0.67 0.4
5 7 -8 1.94 0.87
-5 7 8 2.81 1.08
-5 -7 8 0.24 0.33
5 7 -7 -0.03 0.55
-5 -7 7 -0.33 0.55
-5 -7 7 -0.16 0.4
-5 7 7 0.84 0.66
5 7 -6 0.54 0.42
-5 7 6 -0.02 0.38
-5 -7 6 0.63 0.63
-5 -7 6 0.11 0.39
-5 7 6 0.2 0.43
5 7 -5 0.37 0.38
-5 7 5 0.86 0.65
-5 7 5 0.43 0.42
-5 -7 5 1.38 0.56
-5 -7 5 0.8 0.5
-5 7 5 0.96 0.71
5 7 -4 1.77 0.75
-5 7 4 2.38 0.83
-5 7 4 1.21 0.62
-5 -7 4 2.24 0.9
-5 -7 4 1.4 0.78
-5 7 4 1.31 0.57
5 7 -3 -0.28 0.3
-5 7 3 -0.58 0.35
-5 -7 3 0.23 0.39
-5 7 3 0.21 0.39
-5 7 3 0.34 0.22
-5 -7 3 0.88 0.46
5 7 -2 0.05 0.34
-5 -7 2 0.39 0.25
-5 7 2 -0.13 0.28
-5 7 2 0.23 0.34
5 7 -2 0.87 0.55
-5 7 2 0.36 0.42
5 -7 -2 1.04 0.52
-5 -7 2 0.62 0.25
-5 7 1 0.23 0.21
5 7 -1 -0.07 0.3
-5 -7 1 0.1 0.45
5 7 -1 -0.13 0.36
-5 7 1 0.65 0.5
5 -7 -1 0.89 0.58
-5 -7 0 2.53 0.88
5 7 0 2.09 0.72
-5 7 0 3.36 0.91
5 -7 0 1.54 0.76
-5 -7 -1 4.61 1.31
5 7 1 3.27 1.03
-5 7 -1 2.7 0.93
5 -7 1 2.69 0.87
-5 -7 -2 2.02 0.72
5 7 2 0.99 0.72
-5 7 -2 3.8 1.07
5 -7 2 2.57 0.95
-5 -7 -3 0.7 0.76
5 7 3 0.66 0.64
-5 7 -3 0.42 0.68
5 -7 3 0.85 0.49
-5 -7 -4 4.49 1.36
5 7 4 5.55 1.47
-5 7 -4 5.04 1.31
5 -7 4 4.61 1.26
-5 -7 -5 16.79 2.6
5 7 5 15.92 2.33
-5 7 -5 14.53 2.38
5 -7 5 17.93 2.4
-5 -7 -6 1.33 0.45
5 7 6 1.39 0.79
-5 7 -6 0.61 0.62
5 -7 6 0.7 0.68
-5 -7 -7 0.64 0.65
-5 7 -7 1.43 0.97
5 7 7 -0.38 0.48
-5 -7 -8 -0.74 0.97
5 7 8 1.07 0.5
-5 7 -8 -0.95 1.2
5 8 -9 4.94 1.58
-5 8 9 2.61 1.37
5 8 -8 1.37 0.75
-5 8 8 0.93 0.72
-5 -8 8 -0.49 0.81
5 8 -7 -0.05 0.51
-5 -8 7 1.17 0.82
-5 8 7 1.73 1.09
5 8 -6 0.31 0.42
-5 -8 6 0.46 0.39
-5 8 6 -0.46 0.42
5 8 -5 1.49 0.93
-5 -8 5 -0.57 0.59
-5 -8 5 -0.3 0.32
-5 8 5 1.2 0.88
5 8 -4 0.95 0.68
-5 -8 4 0.27 0.43
-5 -8 4 0.34 0.52
-5 8 4 0.39 0.51
-5 -8 3 0.11 0.56
-5 8 3 -0.35 0.53
-5 8 3 0.36 0.61
5 8 -3 0.91 0.73
-5 -8 3 -0.02 0.38
-5 8 3 -0.51 0.41
-5 -8 2 0.97 0.58
-5 8 2 0.22 0.31
-5 8 2 -0.1 0.46
5 8 -2 0.14 0.55
-5 -8 2 1.05 0.61
-5 -8 1 1.56 0.74
5 8 -1 0.78 0.49
-5 8 1 0.7 0.61
-5 8 1 0.37 0.45
5 -8 -1 0.28 0.46
-5 -8 0 1.1 0.59
5 8 0 1.11 0.66
-5 8 0 0.87 0.67
5 -8 0 0.53 0.33
-5 -8 -1 1.04 0.74
5 8 1 1.75 1.06
-5 8 -1 0.34 0.38
5 -8 1 0.24 0.48
-5 -8 -2 -0.32 0.62
5 8 2 0.16 0.3
-5 8 -2 -0.72 0.61
5 -8 2 0.83 0.59
-5 -8 -3 5.14 1.49
5 8 3 3.07 1.22
-5 8 -3 3.44 1.17
5 -8 3 2.97 1.04
-5 -8 -4 0.08 0.55
5 8 4 0.54 0.37
-5 8 -4 0.34 0.68
-5 -8 -5 2 1.12
5 8 5 2.12 0.85
-5 8 -5 0.58 0.55
-5 -8 -6 0.69 0.41
5 8 6 1.11 0.79
-5 8 -6 0.16 0.44
-5 -8 -7 0.09 0.85
-5 8 -7 0.9 0.68
-5 -9 5 -0.5 0.89
5 9 -4 -0.52 0.64
-5 -9 4 -0.72 0.86
5 9 -3 -0.5 0.56
-5 -9 3 -0.62 0.48
-5 -9 2 -0.46 0.73
5 9 -2 -0.67 0.68
-5 -9 1 0.45 0.59
5 9 -1 0.14 0.76
-5 -9 0 0.44 0.61
5 9 0 0.71 0.67
-5 -9 -1 1.77 0.95
5 9 1 0.2 0.69
-5 9 -1 0.73 0.8
5 9 2 0.66 0.72
-5 9 -2 1.28 0.86
-5 -9 -2 2.21 1.14
-5 -9 -3 0.31 0.91
5 9 3 -0.55 0.37
-5 9 -3 1.15 0.93
-5 -9 -4 0.82 0.75
-6 0 14 1.87 1.07
-6 0 13 2.69 0.95
-6 0 12 -0.5 0.49
6 0 -11 0.24 0.37
-6 0 11 1.27 0.47
-6 0 10 2.6 0.87
-6 0 10 0.4 0.33
-6 0 9 22.9 1.74
-6 0 9 58.77 3.72
-6 0 8 32.56 1.84
-6 0 8 32.98 2.69
-6 0 7 0.58 0.41
-6 0 6 10.14 1.35
-6 0 5 8.22 1.23
-6 0 4 573.42 12.84
-6 0 3 -0.15 0.25
-6 0 2 4.45 0.79
-6 0 1 39.17 2.37
-6 0 0 10.78 1.18
6 0 0 10.34 0.75
6 0 1 0.98 0.32
-6 0 -1 -0.08 0.19
6 0 2 14.73 1.27
-6 0 -2 16.34 1.45
6 0 3 16.6 1.48
-6 0 -3 14.62 1.35
-6 0 -4 5.37 0.83
6 0 4 5.01 0.89
-6 0 -5 1.24 0.43
6 0 5 1.54 0.48
-6 0 -6 5.92 1.08
6 0 6 5.63 1.09
-6 0 -7 4.13 0.93
6 0 7 6.11 1.25
6 0 8 8.7 1.63
6 0 9 0.14 0.32
6 0 10 0.81 0.61
6 0 11 -0.76 0.57
-6 1 14 1.6 0.91
6 1 -13 1.17 0.79
-6 -1 13 0.92 0.45
-6 1 13 2.1 1
-6 -1 12 0.78 0.64
6 1 -12 0.95 0.67
-6 1 12 0.35 0.38
-6 -1 11 5.43 1.17
6 1 -11 6.02 1.31
-6 1 11 4.87 1.18
6 1 -10 0.49 0.43
-6 -1 10 0.57 0.51
-6 -1 10 0.08 0.25
-6 1 10 -0.23 0.36
-6 1 9 -0.14 0.31
6 1 -9 -0.15 0.24
-6 -1 9 0.49 0.37
-6 -1 9 0.04 0.16
6 1 -8 -0.04 0.28
-6 -1 8 0.12 0.34
-6 -1 8 -0.04 0.23
-6 1 8 -0.16 0.35
6 1 -7 22.11 2.16
-6 -1 7 21.96 1.47
-6 -1 7 18.66 2
-6 1 7 19.2 2.03
6 1 -6 44.51 2.94
-6 -1 6 34.01 1.71
-6 -1 6 38.28 2.73
-6 1 6 38.88 2.79
-6 -1 5 54.77 2.01
-6 -1 5 68.13 3.52
-6 1 5 73.08 3.69
-6 -1 4 48.65 2.89
-6 1 4 47.2 2.86
-6 -1 3 25.71 2.04
-6 1 3 26.52 2.01
-6 -1 2 3.66 0.76
-6 1 2 3.39 0.67
6 1 -1 23.7 1.18
-6 -1 1 25.19 1.95
-6 1 1 21.76 1.69
6 -1 0 49.59 1.76
6 1 0 53.24 2.12
-6 -1 0 57.41 2.97
-6 1 0 55.17 2.64
6 -1 1 37.76 1.8
6 1 1 43.42 2.12
-6 -1 -1 39.79 2.5
-6 1 -1 42.25 2.25
6 1 2 2.25 0.52
-6 -1 -2 2.09 0.54
-6 1 -2 2.73 0.53
6 -1 2 2.21 0.45
6 -1 3 111.77 4.09
6 1 3 105.17 4.13
-6 -1 -3 108.67 4.36
-6 1 -3 112.05 3.77
6 1 4 16.49 1.63
-6 -1 -4 18.06 1.7
-6 1 -4 15.69 1.28
6 -1 4 17.9 1.68
-6 1 -5 141.28 5.78
6 -1 5 140.98 5.41
6 1 5 145.61 5.64
-6 -1 -5 141.5 5.22
6 1 6 5.9 1.15
-6 -1 -6 4.33 0.92
-6 1 -6 5.42 1.12
-6 -1 -6 5.08 0.97
6 -1 6 4.64 0.97
6 1 7 1.11 0.6
-6 -1 -7 1.51 0.57
-6 1 -7 1.57 0.57
6 -1 7 1.59 0.66
6 1 8 8.69 1.58
-6 1 -8 7.85 1.32
6 -1 8 7.95 1.45
6 -1 9 0.96 0.47
6 1 9 0.92 0.49
6 -1 10 1.66 0.88
6 1 10 0.99 0.59
6 -1 11 1 0.52
6 1 11 1.02 0.72
-6 2 14 0.27 0.43
6 2 -14 0.4 0.8
-6 2 13 2.26 0.78
6 2 -13 1.58 0.72
-6 -2 13 2.29 0.9
-6 2 12 1.57 0.67
6 2 -12 2.58 0.93
-6 -2 12 2.18 0.88
6 2 -11 2.78 0.94
-6 2 11 4.67 1.22
-6 -2 11 3.16 1.02
-6 -2 11 1.42 0.5
6 2 -10 0.03 0.32
-6 2 10 0.16 0.35
-6 -2 10 -0.58 0.42
-6 -2 10 -0.12 0.32
6 2 -9 13.92 1.84
-6 2 9 12.23 1.79
-6 -2 9 12.69 1.71
-6 -2 9 10.39 1.32
-6 -2 8 29.72 2.11
6 2 -8 27.52 2.54
-6 -2 8 29.36 2.56
-6 2 8 30.47 2.7
6 2 -7 12.59 1.65
-6 2 7 13.27 1.67
-6 -2 7 13.44 1.71
-6 -2 7 12.02 1.22
6 2 -6 35.25 2.68
-6 -2 6 30.49 1.85
-6 -2 6 34.43 2.61
-6 2 6 37.24 2.76
6 2 -5 25.92 2.25
-6 -2 5 24 1.49
-6 -2 5 27.71 2.29
-6 2 5 26.61 2.26
6 2 -4 230.73 7.29
-6 -2 4 227.49 5.51
-6 -2 4 239.79 7.34
-6 2 4 235.76 7.17
-6 -2 3 3 0.77
6 2 -3 1.92 0.43
-6 2 3 1.91 0.64
6 2 -2 9.99 0.92
-6 2 2 9.79 1.16
-6 -2 2 11.47 1.42
6 2 -1 -0.18 0.24
-6 2 1 0.09 0.15
-6 -2 1 -0.31 0.39
6 2 0 2.21 0.51
-6 2 0 1.88 0.5
-6 -2 0 2.25 0.65
6 -2 0 1.84 0.38
6 -2 1 18.45 1.29
6 2 1 18.89 1.49
-6 -2 -1 20.33 1.89
-6 2 -1 19.32 1.43
6 2 2 3.03 0.64
-6 -2 -2 2.99 0.7
6 -2 2 2.66 0.57
-6 2 -2 2.85 0.55
6 2 3 0.33 0.33
-6 -2 -3 0.46 0.43
-6 2 -3 0.12 0.17
6 -2 3 -0.01 0.15
6 2 4 0.44 0.38
-6 -2 -4 -0.96 0.53
6 -2 4 0.13 0.28
6 2 5 3.12 0.89
-6 -2 -5 3.55 0.85
-6 2 -5 3.24 0.9
6 -2 5 1.64 0.6
6 2 6 0.07 0.36
-6 -2 -6 -0.28 0.38
-6 2 -6 -0.14 0.35
6 -2 6 0.09 0.22
6 2 7 1.16 0.59
-6 -2 -7 1.62 0.64
-6 2 -7 1.81 0.72
6 -2 7 1.76 0.73
6 2 8 1.38 0.65
-6 2 -8 1.92 0.64
6 -2 8 2.64 0.91
6 2 9 0.82 0.65
-6 2 -9 1.25 0.68
6 -2 9 0.57 0.65
6 2 10 1.33 0.76
6 -2 10 0.72 0.59
6 2 11 0.81 0.71
6 3 -14 -0.26 0.39
-6 3 14 0.56 0.94
6 3 -13 -0.3 0.43
-6 3 13 0.19 0.43
6 3 -12 0.24 0.5
-6 3 12 -0.69 0.59
6 3 -11 -0.75 0.58
-6 -3 11 0.23 0.55
-6 3 11 1.19 0.54
-6 -3 11 0.36 0.36
-6 -3 10 3.24 0.99
-6 3 10 1.73 0.65
6 3 -10 3.92 1.13
-6 -3 10 1.53 0.6
-6 -3 9 0.37 0.42
6 3 -9 -0.4 0.38
-6 3 9 0.17 0.36
-6 -3 9 -0.07 0.23
-6 -3 8 4.87 1.06
6 3 -8 6.14 1.26
-6 3 8 3.78 1
-6 -3 8 3.31 0.81
-6 -3 7 16.06 1.88
6 3 -7 17.23 1.99
-6 3 7 17.06 2.05
-6 -3 7 15.26 1.66
-6 -3 6 3.84 0.94
6 3 -6 4.26 1.01
-6 3 6 2.86 0.91
-6 -3 6 3.56 0.76
6 3 -5 6.92 1.16
-6 3 5 7.08 1.15
-6 -3 5 7.6 1.01
-6 -3 5 7.54 1.21
6 3 -4 27.71 2.29
-6 -3 4 28.21 1.88
-6 -3 4 27.61 2.36
-6 3 4 29.01 2.29
-6 3 3 -0.22 0.28
6 3 -3 -0.03 0.11
-6 -3 3 -0.2 0.25
-6 -3 3 -0.37 0.4
6 3 -3 0.15 0.24
6 3 -2 10.5 1.12
-6 -3 2 9.43 1.38
-6 3 2 9.64 1.22
6 3 -1 -0.04 0.14
6 -3 -1 0.07 0.1
-6 3 1 -0.22 0.29
6 3 0 1.01 0.35
-6 3 0 1.06 0.42
-6 -3 0 0.32 0.32
6 -3 0 0.59 0.28
6 -3 1 26.12 1.75
-6 -3 -1 23.98 2.19
6 3 1 23.35 1.86
-6 3 -1 23.21 1.54
-6 3 -2 4.98 0.64
6 3 2 4.14 0.89
-6 -3 -2 5.27 1.02
6 -3 2 3.84 0.68
6 -3 3 94.93 4
-6 -3 -3 92 4.58
6 3 3 94.14 4.29
6 3 4 23.4 2.2
-6 3 -4 25.11 2.47
6 -3 4 23.38 2.04
-6 -3 -4 29.21 2.51
-6 3 -5 44.91 3.52
6 -3 5 44.29 3.06
-6 -3 -5 49.65 3.43
6 3 5 44.32 3.17
6 3 6 3.19 0.9
-6 -3 -6 3.98 0.95
-6 3 -6 2.86 0.87
6 -3 6 1.6 0.65
6 3 7 -0.69 0.47
-6 -3 -7 -0.17 0.36
-6 3 -7 -0.63 0.53
6 -3 7 -0.66 0.48
6 3 8 6.24 1.39
-6 -3 -8 5.52 1.31
-6 3 -8 5.41 1.27
6 -3 8 7.31 1.5
6 3 9 1.82 1.01
-6 3 -9 3.07 1.16
6 -3 9 1.64 0.77
6 3 10 0.54 0.57
6 -3 10 0.69 0.72
-6 4 14 -0.39 0.67
6 4 -13 0.56 0.62
-6 4 13 0.7 0.4
6 4 -12 -0.07 0.36
-6 4 12 0.64 0.7
-6 -4 11 1.37 0.76
6 4 -11 1.56 0.9
-6 4 11 1.09 0.7
-6 -4 11 1.02 0.49
-6 -4 10 0.23 0.25
6 4 -10 -0.31 0.44
-6 4 10 0.08 0.4
-6 -4 10 0.32 0.39
6 4 -9 9.7 1.74
-6 4 9 7.74 1.52
-6 -4 9 8.26 1.39
-6 -4 9 11.13 1.68
6 4 -8 15.59 2.1
-6 4 8 14.35 2.06
-6 -4 8 10.84 1.59
-6 -4 8 19.09 2.17
6 4 -7 2.57 0.85
-6 4 7 0.92 0.42
-6 -4 7 2.17 0.67
-6 -4 7 1.61 0.65
6 4 -6 13.5 1.77
-6 4 6 11.95 1.66
-6 -4 6 10.33 1.48
-6 -4 6 11.26 1.59
6 4 -5 14.34 1.75
-6 4 5 13.39 1.73
-6 -4 5 11.59 1.45
-6 -4 5 12.4 1.71
6 4 -4 147.07 5.82
-6 -4 4 136.19 5.09
-6 -4 4 147.92 6.04
-6 4 4 142.65 5.74
6 4 -3 0.7 0.53
-6 4 3 -0.5 0.29
-6 4 3 0.69 0.39
6 4 -3 0.09 0.21
-6 -4 3 0.18 0.15
-6 -4 3 0.42 0.23
6 4 -2 3.12 0.74
-6 4 2 4.23 0.87
6 4 -2 3.57 0.76
-6 4 2 2.21 0.52
6 -4 -2 2.1 0.49
-6 -4 2 3.27 0.8
-6 4 1 0.48 0.23
6 4 -1 0.64 0.35
-6 -4 1 0.3 0.25
6 -4 -1 0.97 0.38
6 4 0 -0.07 0.3
-6 -4 0 -0.3 0.25
6 -4 0 -0.01 0.17
-6 4 0 0.01 0.19
6 4 1 2.65 0.74
-6 -4 -1 3.23 0.92
-6 4 -1 1.98 0.48
6 -4 1 2.45 0.65
6 4 2 2.57 0.8
-6 -4 -2 3.27 0.87
6 -4 2 2.45 0.63
6 4 3 0.35 0.57
-6 -4 -3 0.26 0.34
-6 4 -3 0.85 0.35
6 -4 3 0.3 0.32
6 4 4 -0.65 0.61
-6 -4 -4 0.17 0.24
-6 4 -4 0.13 0.28
6 -4 4 0.3 0.42
6 4 5 1.61 0.69
-6 -4 -5 0.86 0.51
-6 4 -5 1.68 0.72
6 -4 5 1.7 0.62
6 4 6 -0.13 0.38
-6 -4 -6 0.79 0.6
-6 4 -6 0.82 0.56
6 -4 6 0.78 0.54
6 4 7 3.03 1.12
-6 -4 -7 1.39 0.75
-6 4 -7 0.96 0.77
6 -4 7 0.95 0.6
6 4 8 2.7 1.1
-6 -4 -8 0.83 0.61
-6 4 -8 0.18 0.42
6 -4 8 0.88 0.59
6 4 9 -0.26 0.7
-6 4 -9 0.09 0.68
6 -4 9 0.78 0.45
6 4 10 1.55 1.13
6 5 -13 -1.04 0.99
-6 5 13 -0.45 0.53
6 5 -12 1.09 0.92
-6 5 12 0.65 0.7
6 5 -11 0.3 0.35
-6 5 11 0.72 0.58
6 5 -10 0.54 0.66
-6 -5 10 -0.12 0.36
-6 5 10 -0.38 0.53
-6 -5 10 -0.17 0.37
6 5 -9 -0.16 0.57
-6 -5 9 0.19 0.37
-6 -5 9 0.57 0.28
6 5 -8 -0.15 0.28
-6 -5 8 0.16 0.41
-6 5 8 -0.45 0.34
-6 -5 8 0.12 0.25
6 5 -7 2.82 0.96
-6 -5 7 2.04 0.79
-6 -5 7 2.76 1
-6 5 7 2.54 0.86
6 5 -6 13.08 1.84
-6 -5 6 8.09 1.48
-6 -5 6 11.09 1.71
-6 5 6 12.58 1.86
6 5 -5 14.67 1.88
-6 -5 5 14.11 1.76
-6 -5 5 12.5 1.83
-6 5 5 16.84 2
6 5 -4 4.38 1.01
-6 -5 4 3.74 0.96
-6 -5 4 4.14 1.04
-6 5 4 5.55 1.08
6 5 -3 8.68 1.33
-6 5 3 6.85 1.02
6 5 -3 8.55 1.36
-6 5 3 9.23 1.33
-6 -5 3 9.12 1.38
-6 -5 3 9.12 1.52
6 5 -2 0.77 0.5
-6 5 2 0.52 0.3
-6 5 2 -0.14 0.38
6 5 -2 -0.04 0.18
-6 -5 2 -0.07 0.37
6 -5 -2 0.17 0.27
6 5 -1 3.05 0.73
-6 5 1 2.96 0.63
6 5 -1 1.66 0.65
-6 -5 1 3.16 0.96
6 -5 -1 1.87 0.53
6 5 0 8.81 1.37
-6 -5 0 10.68 1.68
6 -5 0 7.2 1.16
-6 5 0 8.02 1.11
6 5 1 7.79 1.3
-6 -5 -1 7.69 1.45
6 -5 1 4.74 0.97
6 5 2 2.55 0.76
-6 -5 -2 1.95 0.67
-6 5 -2 2.57 0.93
6 -5 2 2.07 0.62
6 5 3 19.04 2.17
-6 -5 -3 17.39 2.26
-6 5 -3 16.9 2.21
6 -5 3 14.56 1.78
6 5 4 2.17 0.75
-6 -5 -4 1.89 0.77
-6 5 -4 3.04 1.01
6 -5 4 1.31 0.61
-6 5 -5 33.61 3.37
6 -5 5 34.87 2.96
-6 -5 -5 40.57 3.57
6 5 5 35.55 3.17
-6 -5 -6 -0.07 0.54
-6 5 -6 -0.44 0.51
6 -5 6 0.25 0.45
-6 -5 -7 0.82 0.74
6 5 7 0.83 0.77
-6 5 -7 1.9 0.91
6 -5 7 1.28 0.69
-6 -5 -8 1.62 0.84
6 5 8 2.17 1.11
-6 5 -8 1.19 0.69
6 5 9 -0.04 0.49
-6 5 -9 0.08 0.44
6 6 -12 -0.11 0.46
-6 6 12 -0.34 0.76
6 6 -11 -0.06 0.55
-6 6 11 0.38 0.7
6 6 -10 -0.17 0.54
-6 6 10 -0.12 0.34
6 6 -9 9.26 1.89
-6 -6 9 5.12 1.46
-6 6 9 7.73 1.63
6 6 -8 5.64 1.28
-6 -6 8 5.42 1.37
-6 -6 8 6.81 1.48
-6 6 8 7.2 1.57
6 6 -7 0.25 0.39
-6 -6 7 0.82 0.63
-6 -6 7 -0.18 0.41
-6 6 7 -0.24 0.51
6 6 -6 1.83 0.85
-6 -6 6 1.34 0.62
-6 -6 6 0.86 0.49
-6 6 6 1.26 0.68
6 6 -5 2.7 0.96
-6 -6 5 1.93 0.62
-6 -6 5 1.27 0.51
-6 6 5 2 0.69
6 6 -4 79.25 4.49
-6 -6 4 65.77 4.19
-6 -6 4 76.69 4.72
-6 6 4 71.47 4.28
6 6 -3 0.29 0.39
-6 6 3 0.28 0.23
6 6 -3 0.31 0.36
-6 -6 3 0.1 0.42
-6 -6 3 -0.58 0.51
-6 6 3 0.03 0.37
6 6 -2 -0.17 0.2
6 6 -2 -0.04 0.34
-6 6 2 0.19 0.24
-6 -6 2 -0.07 0.37
-6 6 2 0.07 0.23
6 6 -1 1.83 0.64
6 6 -1 1.81 0.76
-6 6 1 3.06 0.73
-6 -6 1 2.06 0.79
6 -6 -1 0.7 0.43
6 6 0 0.66 0.55
-6 -6 0 0.3 0.51
-6 6 0 0.04 0.53
6 -6 0 0.05 0.19
6 6 1 0.12 0.35
-6 -6 -1 0.8 0.62
-6 6 -1 -0.14 0.43
6 -6 1 -0.2 0.2
6 6 2 -0.16 0.42
-6 -6 -2 0.38 0.26
-6 6 -2 1.17 0.68
6 -6 2 0.88 0.47
6 6 3 1.59 0.73
-6 -6 -3 1.85 0.8
-6 6 -3 1.97 0.73
6 -6 3 1.3 0.57
6 6 4 0.75 0.73
-6 -6 -4 -0.7 0.81
-6 6 -4 0.97 0.78
6 -6 4 0.53 0.55
6 6 5 0.26 0.29
-6 -6 -5 -0.21 0.28
-6 6 -5 -0.17 0.43
6 -6 5 0.07 0.33
-6 -6 -6 0.96 0.63
6 6 6 0.33 0.35
-6 6 -6 1.86 0.98
6 -6 6 3.05 1.27
-6 -6 -7 0.6 0.79
6 6 7 1.1 0.88
-6 6 -7 -0.68 0.63
-6 -6 -8 0.02 0.55
6 6 8 0.26 0.45
-6 6 -8 0.09 0.55
6 7 -11 0.02 0.67
-6 7 11 0.05 0.69
6 7 -10 0.27 0.37
-6 7 10 1.12 0.52
6 7 -9 0.08 0.52
-6 7 9 0.56 0.58
-6 7 8 0.3 0.6
6 7 -8 -0.25 0.37
-6 -7 8 -0.83 0.82
-6 7 7 -0.32 0.69
6 7 -7 0.93 0.74
-6 -7 7 1.71 0.94
-6 -7 7 0.74 0.73
-6 7 6 2.97 0.94
6 7 -6 2.19 0.81
-6 -7 6 0.94 0.55
-6 -7 6 0.46 0.28
-6 7 5 1.42 0.8
6 7 -5 1.96 0.81
-6 -7 5 2.02 0.85
-6 -7 5 1.22 0.79
6 7 -4 1.32 0.59
6 7 -4 0.98 0.59
-6 -7 4 0.38 0.36
-6 -7 4 1.43 0.55
-6 7 4 1.27 0.64
6 7 -3 0.5 0.27
6 7 -3 2 0.85
-6 7 3 0.54 0.47
-6 -7 3 1.19 0.66
-6 -7 3 -0.1 0.38
-6 7 3 0.45 0.27
6 7 -2 0.03 0.41
6 7 -2 -0.21 0.25
-6 -7 2 -0.23 0.51
-6 7 2 0.7 0.64
6 7 -1 0.38 0.49
-6 -7 1 -0.25 0.29
-6 7 1 -0.55 0.54
6 7 0 0.2 0.3
-6 -7 0 0.52 0.42
-6 7 0 -0.02 0.39
6 7 1 -0.08 0.4
-6 -7 -1 0.76 0.67
-6 7 -1 0.91 0.61
6 7 2 -0.69 0.74
-6 -7 -2 0.04 0.38
-6 7 -2 0.69 0.68
-6 -7 -3 6.36 1.54
6 7 3 5.45 1.36
-6 7 -3 6.83 1.62
-6 -7 -4 -0.21 0.39
6 7 4 0.68 0.47
-6 -7 -5 7.18 1.77
6 7 5 4.09 1.31
-6 7 -5 4.27 1.41
-6 -7 -6 1.02 0.8
6 7 6 -0.25 0.67
-6 7 -6 -1.06 0.65
-6 -7 -7 -0.17 0.68
-6 7 -7 -0.73 0.53
-6 8 7 0.62 0.61
6 8 -7 0.65 0.67
-6 8 6 0.5 0.55
6 8 -6 1.11 0.77
-6 -8 6 1.94 0.92
-6 -8 5 1.85 0.86
-6 -8 5 0.82 0.66
-6 -8 4 6.95 1.58
6 8 -4 4.43 1.38
-6 -8 4 4.18 1.26
-6 -8 3 0.02 0.55
6 8 -3 0.16 0.62
-6 -8 3 0.37 0.42
-6 -8 2 2.06 0.81
6 8 -2 0.91 0.67
-6 8 2 1.51 0.66
-6 -8 1 0.45 0.53
6 8 -1 0.16 0.4
-6 8 1 0.17 0.48
-6 -8 0 0.46 0.45
6 8 0 -1.22 0.88
-6 8 0 0.25 0.57
-6 -8 -1 0.71 0.79
6 8 1 0.14 0.41
-6 8 -1 0.79 0.65
-6 -8 -2 0.02 0.4
6 8 2 0.11 0.49
-6 8 -2 -0.57 0.73
-6 -8 -3 -0.96 0.76
6 8 3 -0.88 0.8
-6 8 -3 1.35 0.8
-6 -8 -4 0.85 0.72
6 8 4 -0.2 0.5
-6 8 -4 0.02 0.46
-6 -8 -5 0.72 0.62
-6 8 -5 0.84 0.76
-6 -9 1 0.42 0.61
-6 -9 0 -0.79 0.6
-6 -9 -1 -0.04 0.64
-6 -9 -2 -0.14 0.72
-7 0 14 1.38 0.91
-7 0 13 -0.44 0.56
-7 0 12 1.15 0.68
-7 0 11 -0.03 0.51
-7 0 10 0.49 0.26
-7 0 9 0.16 0.28
-7 0 8 1.95 0.67
-7 0 7 18.56 2.07
-7 0 6 328.05 9.58
-7 0 5 22.21 2.12
-7 0 4 370.89 9.91
-7 0 3 92.62 4.22
-7 0 2 5.4 0.9
-7 0 1 22.11 1.93
-7 0 0 1.68 0.54
-7 0 -1 13.17 1.43
7 0 1 9.27 0.92
-7 0 -2 0.18 0.17
7 0 2 -0.3 0.28
7 0 3 24.49 1.9
-7 0 -3 27.22 2.05
-7 0 -4 1.25 0.48
7 0 4 0.86 0.38
-7 0 -5 -0.01 0.24
7 0 5 -0.21 0.3
-7 0 -6 -0.17 0.36
7 0 6 0.01 0.3
7 0 7 8.1 1.43
7 0 8 0.69 0.45
7 0 9 0.29 0.69
-7 1 14 -0.33 0.63
7 1 -13 25.67 2.88
-7 -1 13 20.11 2.65
-7 1 13 23.17 2.96
-7 -1 12 -0.73 0.55
7 1 -12 0.54 0.67
-7 1 12 0.85 0.68
7 1 -11 0.77 0.73
-7 -1 11 1.92 0.87
-7 1 11 1.87 0.86
7 1 -10 0.82 0.53
-7 -1 10 0.64 0.69
-7 1 10 1 0.55
-7 -1 9 -0.07 0.33
-7 1 9 0.34 0.49
-7 -1 8 20.53 2.24
-7 1 8 23.79 2.36
-7 -1 7 0.82 0.44
-7 1 7 2.95 0.88
-7 -1 6 10.06 1.44
-7 1 6 11.99 1.57
-7 -1 5 8.66 1.31
-7 1 5 11.75 1.51
-7 -1 4 2.61 0.7
-7 1 4 3.67 0.82
-7 -1 3 18.69 1.85
-7 1 3 18.8 1.81
-7 -1 2 0.46 0.29
-7 1 2 -0.24 0.13
-7 -1 1 105.84 4.59
-7 1 1 99.51 4.16
7 1 0 2.3 0.41
-7 1 0 3.48 0.76
-7 -1 0 3.4 0.77
7 1 1 56.83 2.58
-7 -1 -1 63.29 3.44
-7 1 -1 65.41 3.11
7 1 2 21.36 1.64
-7 -1 -2 22.08 1.96
-7 1 -2 22.03 1.75
7 -1 2 14.5 1.33
7 1 3 1.93 0.54
-7 -1 -3 1.69 0.58
-7 1 -3 1.25 0.38
7 -1 3 1.48 0.49
7 1 4 1.4 0.54
-7 -1 -4 0.31 0.17
7 -1 4 0.95 0.46
7 1 5 0.79 0.49
-7 -1 -5 1.38 0.65
7 -1 5 0.28 0.31
7 1 6 5.43 1.15
-7 1 -6 3.45 0.95
7 -1 6 4.37 1.01
7 1 7 0.51 0.46
-7 1 -7 0.27 0.32
7 -1 7 0.1 0.37
7 -1 8 7.71 1.53
7 1 8 9.21 1.62
7 -1 9 0.16 0.39
7 1 9 1.52 0.98
-7 2 14 1.76 1.16
7 2 -13 0.54 0.6
-7 -2 13 0.94 0.54
-7 2 13 1.4 0.9
7 2 -12 1.68 0.65
-7 -2 12 0.37 0.38
-7 2 12 0.61 0.69
-7 2 11 -0.2 0.43
7 2 -11 -0.45 0.54
-7 -2 11 0.68 0.52
-7 2 10 0.22 0.45
7 2 -10 -0.29 0.38
-7 -2 10 0.04 0.23
-7 2 9 7.3 1.46
7 2 -9 8.08 1.47
-7 -2 9 8.31 1.45
-7 2 8 -0.34 0.32
-7 -2 8 -0.43 0.39
7 2 -8 0.38 0.56
7 2 -7 3.22 0.86
-7 -2 7 2.5 0.83
-7 2 7 3.91 0.95
7 2 -6 135.53 5.88
-7 -2 6 143.95 5.98
-7 2 6 136.96 5.86
-7 -2 5 32.76 2.66
-7 2 5 29.47 2.6
-7 -2 4 432.94 11.37
-7 2 4 424.64 10.99
-7 2 3 20.86 1.95
-7 -2 3 20.55 2.08
-7 2 2 12.45 1.42
-7 -2 2 10.57 1.45
7 2 -1 0.06 0.12
-7 2 1 0.36 0.17
-7 -2 1 0.53 0.24
7 2 0 10.98 1.08
-7 2 0 10.58 1.19
-7 -2 0 10.45 1.46
7 2 1 43.71 2.4
-7 -2 -1 44.11 3
-7 2 -1 43.34 2.42
7 2 2 10.61 1.23
-7 -2 -2 12.71 1.62
7 -2 2 11.77 1.19
-7 2 -2 12.01 1.16
7 2 3 11.4 1.39
-7 -2 -3 12.8 1.65
7 -2 3 8.55 1.11
7 2 4 1.43 0.47
-7 -2 -4 1.4 0.5
7 -2 4 2.11 0.59
7 2 5 -0.14 0.39
-7 -2 -5 0.68 0.47
-7 2 -5 0.33 0.29
7 -2 5 -0.1 0.27
7 2 6 2.16 0.89
-7 -2 -6 2.12 0.82
-7 2 -6 2.63 0.89
7 -2 6 1.46 0.56
7 2 7 1.79 0.84
-7 2 -7 -0.3 0.44
7 -2 7 1.81 0.73
7 2 8 0.44 0.56
-7 2 -8 -0.22 0.46
7 -2 8 -0.27 0.35
7 2 9 1.33 0.82
-7 3 14 1.37 0.91
-7 3 13 17.78 2.77
7 3 -13 19.24 2.78
-7 3 12 0.9 0.63
-7 -3 12 0.2 0.73
7 3 -12 1.44 0.89
-7 3 11 0.41 0.5
-7 -3 11 -0.3 0.31
7 3 -11 0.36 0.53
-7 -3 10 0.19 0.41
7 3 -10 0.27 0.56
-7 3 10 0.74 0.57
-7 -3 9 0.35 0.4
7 3 -9 0.74 0.62
-7 3 9 -0.06 0.39
-7 -3 8 3.31 1.03
7 3 -8 3.18 0.91
-7 3 8 2.83 0.86
-7 -3 7 0.65 0.25
-7 3 7 0.24 0.19
-7 -3 7 0.21 0.36
7 3 -7 0.16 0.35
-7 -3 6 9.69 1.49
-7 3 6 12.29 1.74
7 3 -6 11.77 1.72
-7 -3 6 9.46 1.14
-7 3 5 -0.28 0.21
7 3 -5 0.14 0.33
-7 -3 5 -0.03 0.21
7 3 -4 0.03 0.24
-7 -3 4 0.02 0.27
-7 -3 4 0.07 0.31
-7 3 4 -0.47 0.33
-7 -3 3 44.94 3.2
7 3 -3 32.43 2.08
-7 3 3 44.9 2.89
7 3 -2 10.22 1.14
-7 3 2 11.93 1.45
-7 -3 2 13.82 1.74
-7 -3 1 54.65 3.53
7 3 -1 49.19 2.6
-7 3 1 49.19 2.88
7 3 0 22.93 1.81
-7 3 0 23.06 1.81
-7 -3 0 20.9 2.2
7 3 1 61.94 3.19
-7 -3 -1 57.86 3.7
-7 3 -1 56.89 2.75
7 3 2 2.52 0.7
-7 -3 -2 1.69 0.69
7 -3 2 0.67 0.28
7 3 3 1.41 0.56
-7 -3 -3 1.45 0.61
7 -3 3 0.57 0.28
7 3 4 0.33 0.38
-7 -3 -4 0.55 0.53
-7 3 -4 0.95 0.5
7 -3 4 0.7 0.43
7 3 5 5.84 1.2
-7 -3 -5 4.63 1.13
-7 3 -5 5.45 1.18
7 -3 5 4.01 1
7 3 6 4.53 1.25
-7 -3 -6 4.74 1.13
-7 3 -6 5.71 1.44
7 -3 6 3.45 0.89
7 3 7 2.12 0.83
-7 -3 -7 1.56 0.68
-7 3 -7 1.01 0.76
7 -3 7 0.83 0.63
7 3 8 1.97 1.03
-7 3 -8 2.13 0.91
7 3 9 0.85 0.72
7 4 -13 0.67 0.75
-7 4 13 -1.14 0.55
7 4 -12 0.31 0.43
-7 4 12 -0.2 0.43
7 4 -11 -0.06 0.49
-7 4 11 0.64 0.68
-7 -4 11 0.67 0.46
7 4 -10 0.94 0.56
-7 4 10 -0.47 0.52
-7 -4 10 0.63 0.47
7 4 -9 1.3 0.76
-7 4 9 0.81 0.64
-7 -4 9 2.36 0.91
7 4 -8 -0.16 0.22
-7 4 8 0.17 0.47
-7 -4 8 0.33 0.43
-7 -4 8 0.29 0.53
7 4 -7 1.19 0.68
-7 4 7 1.11 0.63
-7 -4 7 0.75 0.48
-7 -4 7 1.37 0.64
7 4 -6 74.93 4.49
-7 -4 6 70.34 3.68
-7 -4 6 82.47 4.68
-7 4 6 81.52 4.61
7 4 -5 15.4 1.93
-7 4 5 11.54 1.65
-7 -4 5 11.4 1.39
-7 -4 5 12.39 1.76
7 4 -4 191.62 7.07
-7 -4 4 182.68 6.04
-7 -4 4 191.77 7.42
-7 4 4 179.67 6.75
7 4 -4 188.68 6.23
-7 4 3 19.84 1.96
7 4 -3 18.92 1.71
-7 -4 3 19.82 2.28
7 4 -2 6.48 1.02
-7 -4 2 5.74 1.18
-7 4 2 5.55 1.02
7 4 -1 0.15 0.28
-7 -4 1 0.28 0.33
-7 4 1 0.14 0.19
7 4 0 3.29 0.79
-7 4 0 2.68 0.69
-7 -4 0 3.8 1.03
7 4 1 19.18 1.88
-7 -4 -1 17.15 2.07
7 4 2 2.05 0.66
-7 -4 -2 2.28 0.75
7 4 3 4.02 0.97
-7 -4 -3 4.76 1.12
-7 4 -3 5.21 1.16
7 -4 3 2.81 0.79
7 4 4 0.88 0.6
-7 -4 -4 0.19 0.29
-7 4 -4 -0.32 0.46
7 -4 4 0.42 0.47
7 4 5 -0.95 0.71
-7 -4 -5 0.37 0.27
-7 4 -5 0.3 0.5
7 -4 5 0.01 0.29
7 4 6 1.05 0.73
-7 -4 -6 -0.31 0.49
7 4 7 2.04 0.94
-7 -4 -7 1.85 0.92
-7 4 -7 0.02 0.55
7 4 8 -0.34 0.72
-7 4 -8 1.18 0.54
-7 5 13 5.08 1.48
7 5 -12 -0.49 0.54
-7 5 12 1.34 0.92
7 5 -11 0.14 0.56
-7 5 11 0.22 0.61
7 5 -10 1.63 0.9
-7 5 10 0.34 0.49
-7 -5 10 -0.13 0.61
7 5 -9 -0.16 0.35
-7 5 9 -0.35 0.47
-7 -5 9 -0.47 0.49
7 5 -8 7.85 1.58
-7 5 8 6.27 1.49
-7 -5 8 3.72 1.04
-7 -5 8 5.94 1.33
7 5 -7 2.26 0.89
-7 5 7 1.11 0.58
-7 -5 7 0.41 0.38
-7 -5 7 2.38 0.87
7 5 -6 2.98 0.94
-7 5 6 4.6 1.07
-7 -5 6 1.6 0.67
-7 -5 6 4.09 1.11
7 5 -5 4.16 0.96
-7 5 5 4.61 1.17
-7 -5 5 3.49 0.84
-7 -5 5 5.18 1.27
7 5 -4 1.87 0.7
-7 5 4 1.47 0.59
7 5 -4 1.72 0.69
-7 -5 4 1.77 0.6
-7 -5 4 1.29 0.51
7 5 -3 6.22 1.2
-7 5 3 5.42 1
7 5 -3 4.15 0.98
-7 -5 3 4.19 1.1
-7 5 2 0.05 0.24
7 5 -2 0.74 0.39
-7 -5 2 0.94 0.59
7 5 -1 12.47 1.62
-7 -5 1 14.52 2.04
-7 5 1 11.69 1.44
7 5 0 0.21 0.29
-7 -5 0 0.09 0.36
7 5 1 7.63 1.31
-7 -5 -1 8.62 1.64
7 5 2 1.89 0.77
-7 -5 -2 1.48 0.66
-7 5 -2 2.35 0.94
7 5 3 0.42 0.45
-7 -5 -3 1.17 0.66
-7 5 -3 1.18 0.58
7 5 4 0.39 0.35
-7 -5 -4 -0.42 0.41
7 5 5 0.59 0.66
-7 -5 -5 1.08 0.68
-7 5 -5 -0.15 0.49
7 5 6 -0.28 0.52
-7 -5 -6 -0.86 0.62
-7 5 -6 0.15 0.61
7 5 7 -0.23 0.49
-7 -5 -7 0.55 0.79
-7 5 -7 0.76 0.51
-7 5 -8 1.09 0.81
7 6 -11 0.62 0.91
-7 6 11 0.07 0.64
7 6 -10 0.26 0.58
-7 6 10 -0.2 0.43
7 6 -9 1.29 0.94
-7 6 9 0.08 0.39
7 6 -8 0.47 0.53
-7 -6 8 0.25 0.35
7 6 -7 1.98 0.82
-7 6 7 1.83 0.83
-7 -6 7 0.79 0.58
-7 -6 7 -0.1 0.63
7 6 -6 34.33 3.2
-7 6 6 33.31 3.2
-7 -6 6 38.05 3.49
-7 -6 6 30.55 2.94
7 6 -5 2.85 0.91
-7 6 5 3.99 1.08
-7 -6 5 2.92 1.01
-7 -6 5 4.84 1.29
7 6 -4 39.63 3.25
-7 -6 4 30.9 2.89
-7 -6 4 43.38 3.66
7 6 -4 33.94 3.02
-7 6 4 40.02 3.24
7 6 -3 12.16 1.74
-7 6 3 10.38 1.56
7 6 -3 9.12 1.5
-7 -6 3 12.4 2
-7 6 2 -0.14 0.4
7 6 -2 -0.3 0.42
-7 -6 2 1.04 0.6
7 6 -1 2.19 0.81
-7 -6 1 2.64 1.05
7 6 0 1.39 0.72
-7 -6 0 1.55 0.81
-7 6 0 0.88 0.57
7 6 1 0.75 0.6
-7 -6 -1 0.55 0.53
-7 6 -1 0.91 0.79
7 6 2 0.04 0.24
-7 -6 -2 0.79 0.63
-7 6 -2 0.09 0.46
7 6 3 2.74 1.07
-7 -6 -3 1.44 0.65
-7 6 -3 2.12 0.92
7 6 4 -0.18 0.53
-7 -6 -4 -0.17 0.48
-7 6 -4 0.54 0.77
7 6 5 0.07 0.55
-7 -6 -5 -0.65 0.83
-7 6 -5 -0.38 0.42
7 6 6 0.62 0.37
-7 -6 -6 0.44 0.57
-7 6 -6 -0.48 0.54
-7 6 -7 1.42 1.03
7 7 -10 0.67 0.76
7 7 -9 -0.65 0.65
-7 7 9 -0.42 0.63
7 7 -8 0.36 0.65
-7 7 8 -0.12 0.51
7 7 -7 0.52 0.81
-7 -7 7 0.54 0.78
-7 7 7 -0.74 0.59
7 7 -6 0.8 0.54
-7 -7 6 1.48 0.87
-7 7 6 1.1 0.73
7 7 -5 0.8 0.61
-7 -7 5 -0.16 0.42
-7 7 5 0.08 0.47
-7 -7 5 0.79 0.7
7 7 -4 -0.23 0.48
7 7 -4 0.69 0.65
-7 7 4 -0.29 0.3
-7 -7 4 -0.52 0.73
-7 -7 4 -0.03 0.56
7 7 -3 1.14 0.67
-7 -7 3 2.24 0.88
7 7 -2 0.12 0.46
-7 -7 2 -0.28 0.48
-7 7 2 -0.41 0.53
7 7 -1 1.73 0.8
-7 -7 1 1.24 0.64
-7 7 1 1.5 0.68
7 7 0 0.3 0.47
-7 -7 0 -0.26 0.53
-7 7 0 0.27 0.6
7 7 1 4.65 1.28
-7 -7 -1 3.93 1.15
-7 7 -1 4.22 1.36
7 7 2 -0.48 0.78
-7 -7 -2 -0.56 0.72
-7 7 -2 0.67 0.66
7 7 3 -0.23 0.39
-7 -7 -3 1.84 1.06
-7 7 -3 1.04 0.74
7 7 4 -0.15 0.47
-7 -7 -4 -0.79 0.85
-7 7 -4 -0.72 0.91
-7 -7 -5 -0.43 0.38
-7 7 -5 -0.02 0.66
-7 7 -6 -0.81 1.02
-7 -8 5 0.56 0.72
-7 -8 4 12.96 2.35
-7 -8 3 0.78 0.63
-7 -8 2 1.33 0.9
-7 8 2 0.3 0.44
-7 -8 1 0.47 0.67
-7 8 1 0.58 0.71
-7 -8 0 0.1 0.46
-7 8 0 0.94 0.78
-7 -8 -1 0.4 0.54
-7 8 -1 1.37 0.92
-7 -8 -2 0.26 0.76
-7 8 -2 0.41 0.76
-7 -8 -3 -1.37 0.98
-7 8 -3 0.09 0.49
-7 -8 -4 -0.07 0.47
-7 8 -4 -0.16 0.61
-8 0 13 0.92 0.64
-8 0 12 1.52 1.06
-8 0 11 7.62 1.63
-8 0 10 0.48 0.27
-8 0 9 -0.5 0.57
-8 0 8 5.71 1.27
-8 0 7 0.21 0.38
-8 0 6 -0.28 0.29
-8 0 5 12.16 1.66
-8 0 4 18.79 2.01
-8 0 3 0.58 0.22
-8 0 2 56.24 3.42
-8 0 1 1.95 0.61
-8 0 0 39.41 2.71
-8 0 -1 0.89 0.49
-8 0 -2 16.69 1.75
-8 0 -3 -0.16 0.25
-8 0 -4 0.14 0.2
8 0 5 0.01 0.36
-8 0 -6 -0.67 0.57
-8 -1 13 30.74 3.39
-8 1 13 29.17 3.37
-8 -1 12 16.46 2.35
-8 1 12 11.33 2.01
-8 -1 11 -0.56 0.37
-8 1 11 -0.58 0.61
-8 -1 10 0.32 0.32
-8 1 10 0.59 0.4
-8 -1 9 9.11 1.62
-8 1 9 10.73 1.74
-8 -1 8 0.05 0.4
-8 1 8 0.28 0.27
-8 -1 7 -0.77 0.54
-8 1 7 -0.07 0.34
-8 -1 6 -0.5 0.5
-8 1 6 0.28 0.25
-8 -1 5 0.04 0.28
-8 1 5 -0.46 0.33
-8 -1 4 0.37 0.24
-8 1 4 0.01 0.32
-8 -1 3 20.89 2.16
-8 1 3 20.65 2.01
-8 1 2 2.66 0.72
-8 -1 2 2.58 0.79
-8 1 1 2.8 0.71
-8 -1 1 2.22 0.69
-8 -1 0 17.11 1.9
-8 1 0 15.12 1.64
-8 -1 -1 10.1 1.44
-8 1 -1 10.69 1.36
-8 -1 -2 8.47 1.35
-8 1 -2 8.3 1.16
8 1 3 1.23 0.5
-8 -1 -3 0.57 0.39
-8 1 -3 0.24 0.3
8 1 4 0.66 0.22
-8 -1 -4 0.17 0.39
8 1 5 3.91 0.94
-8 -1 -5 -0.59 0.42
-8 1 -6 0.8 0.64
8 1 6 1.11 0.59
-8 2 13 1.81 0.85
8 2 -12 -0.02 0.34
-8 -2 12 1.75 0.9
-8 2 12 2.96 0.92
8 2 -11 2.71 1.11
-8 -2 11 1.4 0.72
-8 2 11 0.32 0.51
-8 -2 10 2.18 0.92
-8 2 10 2.69 0.97
-8 -2 9 0.69 0.37
-8 2 9 0.67 0.5
-8 -2 8 -0.59 0.55
-8 2 8 0.14 0.2
-8 -2 7 0.31 0.4
-8 2 7 -0.24 0.51
-8 -2 6 10.99 1.69
-8 2 6 11.18 1.68
-8 -2 5 0.41 0.3
-8 2 5 0.07 0.29
-8 -2 4 8.48 1.43
-8 2 4 9.97 1.51
-8 2 3 7 1.18
-8 -2 3 6.85 1.26
-8 -2 2 68.19 4.03
-8 2 2 67.37 3.64
-8 2 1 14.63 1.59
-8 -2 1 15.42 1.89
-8 2 0 6.32 1.02
-8 -2 0 5.26 1.14
-8 -2 -1 0.68 0.52
-8 2 -1 0.7 0.44
8 2 2 0.55 0.39
-8 -2 -2 0.69 0.51
8 2 3 0.91 0.36
-8 -2 -3 1.25 0.69
8 2 4 0.36 0.26
-8 -2 -4 0.26 0.32
8 2 5 -0.35 0.29
-8 2 -5 0.03 0.3
8 2 6 0.38 0.45
-8 2 -6 0.45 0.51
-8 2 -7 1.13 0.7
8 3 -13 16.07 2.66
-8 3 13 12.44 2.36
-8 -3 12 12.83 2.03
8 3 -12 17.3 2.59
-8 3 12 16.71 2.58
-8 -3 11 -0.3 0.5
8 3 -11 0.17 0.48
-8 3 11 0.11 0.38
-8 -3 10 0.05 0.44
8 3 -10 0.19 0.39
-8 3 10 0.05 0.33
-8 -3 9 1.69 0.83
8 3 -9 0.64 0.56
-8 3 9 1.52 0.78
-8 -3 8 -0.38 0.31
8 3 -8 -0.37 0.42
-8 3 8 0.4 0.39
-8 -3 7 3.88 0.98
8 3 -7 4.41 1
-8 3 7 4.78 1.29
-8 3 6 1.84 0.68
-8 -3 6 1.73 0.73
-8 3 5 3.43 0.9
-8 -3 5 2.54 0.86
-8 3 4 4.3 1.04
-8 -3 4 3.52 0.98
-8 3 3 11.55 1.55
-8 -3 3 9.88 1.56
-8 3 2 16.54 1.8
-8 -3 2 19.43 2.24
-8 3 1 10.36 1.38
-8 -3 1 12.4 1.74
-8 3 0 1.68 0.5
-8 -3 0 1.54 0.49
8 3 1 -0.12 0.29
-8 -3 -1 0.47 0.44
8 3 2 1.85 0.59
-8 -3 -2 2.1 0.77
8 3 3 0.19 0.33
-8 -3 -3 0.23 0.27
8 3 4 2.41 0.84
-8 -3 -4 2.04 0.8
-8 3 -4 1.49 0.83
8 3 5 0.42 0.4
-8 -3 -5 1.68 0.87
-8 3 -5 2.35 0.99
-8 -3 -6 2.47 1.08
-8 3 -6 3.43 1.13
-8 3 -7 0.22 0.47
-8 4 13 -0.66 0.9
8 4 -13 1.72 0.91
-8 4 12 -1.36 1.06
8 4 -12 1.73 0.77
-8 4 11 1.11 0.85
8 4 -11 0.78 0.64
-8 -4 11 0.85 0.46
-8 4 10 -0.19 0.36
8 4 -10 1.71 0.88
-8 -4 10 0.87 0.76
-8 4 9 0.33 0.71
8 4 -9 -0.12 0.32
-8 -4 9 0.31 0.38
-8 4 8 -0.74 0.47
8 4 -8 -0.03 0.29
-8 -4 8 -0.14 0.27
-8 4 7 0.23 0.43
8 4 -7 0.23 0.39
-8 -4 7 -0.28 0.38
-8 4 6 6.7 1.38
8 4 -6 3.65 1.01
-8 -4 6 5.16 1.26
-8 -4 5 0.22 0.34
-8 4 5 0.16 0.38
-8 -4 4 6.28 1.31
-8 4 4 4.19 1.03
-8 -4 3 1.94 0.77
-8 4 3 3 0.8
-8 4 2 20.98 2.02
-8 -4 2 24.53 2.61
-8 4 1 6.63 1.11
-8 -4 1 7.02 1.47
8 4 0 3.53 0.87
-8 -4 0 6.87 1.41
8 4 1 0.74 0.49
-8 -4 -1 0.04 0.34
8 4 2 0.24 0.31
-8 -4 -2 0.43 0.31
8 4 3 -0.3 0.29
-8 -4 -3 -0.12 0.34
-8 4 -3 -0.24 0.48
8 4 4 -0.3 0.38
-8 -4 -4 -0.14 0.36
-8 4 -4 0.62 0.45
8 4 5 0.42 0.61
-8 -4 -5 -0.29 0.62
-8 4 -5 -0.56 0.41
-8 -4 -6 -0.91 0.6
-8 4 -6 0.91 0.54
-8 4 -7 0.14 0.63
8 5 -12 3.37 1.5
-8 5 12 1.38 0.84
8 5 -11 -0.29 0.47
-8 5 11 -0.7 0.48
-8 5 10 -0.08 0.79
-8 -5 10 -1.08 0.83
8 5 -9 1.89 0.77
-8 5 9 2.66 0.97
-8 -5 9 3.96 1.12
8 5 -8 0.19 0.29
-8 5 8 -0.36 0.59
-8 -5 8 0.61 0.49
8 5 -7 0.18 0.49
-8 5 7 0.41 0.4
-8 -5 7 0.12 0.46
-8 5 6 0.72 0.48
8 5 -6 0.18 0.53
-8 -5 6 0.28 0.38
-8 5 5 -0.07 0.26
8 5 -5 -0.41 0.56
-8 -5 5 -0.24 0.26
-8 -5 4 -0.27 0.24
-8 5 4 0.76 0.35
-8 -5 3 5.36 1.32
-8 5 3 3.4 0.95
-8 -5 2 0.31 0.32
-8 5 2 0.48 0.5
8 5 -1 1.05 0.55
-8 -5 1 0.18 0.49
8 5 0 2.47 0.77
-8 -5 0 2.45 0.97
8 5 1 3.8 0.98
-8 -5 -1 4.11 1.13
8 5 2 1.03 0.67
-8 -5 -2 0.75 0.3
-8 5 -2 1.48 0.64
8 5 3 0.28 0.26
-8 -5 -3 1.78 0.88
-8 5 -3 0.39 0.58
-8 -5 -4 -0.23 0.66
-8 5 -4 0.27 0.7
-8 -5 -5 2.32 0.95
-8 5 -5 0.53 0.5
-8 -5 -6 -0.08 0.46
-8 5 -6 -0.23 0.49
-8 5 -7 -0.59 0.92
8 6 -10 -0.34 0.47
-8 6 10 0.95 0.77
8 6 -9 1.38 0.75
-8 6 9 -0.02 0.46
8 6 -8 0.8 0.57
-8 6 8 0.61 0.52
-8 -6 8 1.31 1.02
8 6 -7 0.05 0.51
-8 6 7 -0.24 0.46
-8 -6 7 0.7 0.68
8 6 -6 0.7 0.49
-8 6 6 -0.42 0.82
-8 -6 6 0.32 0.55
8 6 -5 1.07 0.47
-8 6 5 2.33 0.84
-8 -6 5 1.62 0.82
-8 6 4 4.92 1.15
-8 -6 4 3.74 1.22
-8 -6 3 0.33 0.57
-8 -6 2 5.49 1.28
-8 -6 1 0.02 0.36
-8 -6 0 4.74 1.37
-8 -6 -1 -0.11 0.43
-8 6 -1 1.83 0.7
-8 -6 -2 2.5 0.91
-8 6 -2 1.77 0.93
-8 -6 -3 0.27 0.41
-8 6 -3 -0.23 0.55
-8 -6 -4 2.03 1.02
-8 6 -4 -0.02 0.41
-8 -6 -5 -0.47 0.58
-8 6 -5 -0.07 0.66
-8 6 -6 -1.17 0.73
8 7 -7 -0.64 0.57
-8 -7 6 0.65 0.52
-8 -7 5 0.38 0.43
-8 -7 4 -0.41 0.5
-8 -7 3 0.87 0.44
-8 7 2 1.18 0.73
-8 -7 2 0.35 0.54
-8 -7 1 0.36 0.66
-8 7 1 0.06 0.47
-8 -7 0 1.35 0.81
-8 7 0 0.1 0.51
-8 -7 -1 1.44 0.94
-8 7 -1 0.15 0.58
-8 -7 -2 1.27 0.89
-8 7 -2 -0.13 0.67
-8 -7 -3 -1.13 0.95
-8 7 -3 -0.13 0.4
-8 -7 -4 0.76 0.95
-8 7 -4 0.6 0.66
-8 -8 3 1.18 0.79
-8 -8 2 1.51 0.93
-8 -8 1 1.78 1.09
-8 -8 0 -0.13 0.41
-8 -8 -1 0.55 0.61
-9 0 13 0.59 0.37
-9 0 12 -0.71 0.52
-9 0 11 4.56 1.36
-9 0 10 5.59 1.4
-9 0 9 0.19 0.5
-9 0 8 3.58 1.04
-9 0 7 -0.4 0.67
-9 0 6 0.73 0.52
-9 0 5 36.5 3.1
-9 0 4 11.24 1.63
-9 0 3 3.35 0.88
-9 0 2 11.27 1.57
-9 0 1 0.09 0.19
-9 0 0 0.09 0.26
-9 0 -1 -0.61 0.47
-9 0 -2 0.04 0.38
-9 0 -3 0.36 0.41
-9 -1 13 6.43 1.86
-9 1 13 6.69 1.84
-9 -1 12 8.46 1.7
-9 1 12 8.29 1.85
-9 -1 11 1.84 0.87
-9 1 11 0.37 0.37
-9 -1 10 8.48 1.67
-9 1 10 7.68 1.67
-9 -1 9 5.61 1.33
-9 1 9 3.87 1.07
-9 -1 8 3.21 0.96
-9 1 8 3.26 1.06
-9 -1 7 5.86 1.33
-9 1 7 4.99 1.19
-9 -1 6 13.15 1.95
-9 1 6 14.63 1.99
-9 -1 5 0.91 0.5
-9 1 5 1.89 0.68
-9 -1 4 2.02 0.92
-9 1 4 0.84 0.6
-9 -1 3 5.73 1.16
-9 1 3 5.08 1.03
-9 1 2 1.9 0.65
-9 -1 2 1.25 0.66
-9 1 1 6.07 1.18
-9 -1 1 8.14 1.32
-9 -1 0 0.12 0.49
-9 1 0 0.26 0.33
-9 -1 -1 18.56 2.07
-9 1 -1 20.03 1.99
-9 -1 -2 0.44 0.66
-9 1 -2 0.3 0.21
-9 -1 -3 4.18 1.2
-9 2 13 -1.02 1.02
-9 -2 12 -0.63 0.65
-9 2 12 0.39 0.64
-9 -2 11 1.23 0.84
-9 2 11 1.65 0.87
-9 -2 10 -0.29 0.54
-9 2 10 1.35 0.75
-9 -2 9 -0.16 0.3
-9 2 9 -0.29 0.5
-9 -2 8 -0.36 0.41
-9 2 8 -0.83 0.54
-9 -2 7 4.61 1.29
-9 2 7 3.14 1.04
-9 -2 6 2.39 0.89
-9 2 6 2.66 0.96
-9 -2 5 8.53 1.61
-9 2 5 3.95 1
-9 2 4 2.07 0.66
-9 -2 4 2.51 0.82
-9 2 3 -0.22 0.54
-9 -2 3 -0.19 0.28
-9 2 2 0.29 0.39
-9 -2 2 0.6 0.5
-9 2 1 0.03 0.23
-9 -2 1 0.6 0.37
-9 2 0 8.57 1.27
-9 -2 0 6.69 1.35
-9 -2 -1 0.39 0.59
-9 -2 -2 0.36 0.52
-9 -2 -3 2.35 0.8
-9 -2 -4 -0.42 0.39
-9 2 -5 2.99 1.16
-9 2 -6 0.56 0.58
-9 3 13 2.19 1.27
-9 3 12 3.45 1.37
-9 -3 11 -0.6 0.6
-9 3 11 1.08 0.61
-9 -3 10 4.76 1.31
-9 3 10 5.46 1.51
-9 -3 9 9.35 1.75
-9 3 9 9.67 1.82
-9 -3 8 0.08 0.27
-9 3 8 0.45 0.45
-9 3 7 0.17 0.28
-9 -3 7 0.99 0.48
-9 3 6 0.61 0.5
-9 -3 6 1.82 0.91
-9 3 5 0.83 0.65
-9 -3 5 1.45 0.76
-9 3 4 1.09 0.57
-9 -3 4 1.19 0.6
-9 3 3 0.15 0.34
-9 -3 3 0.93 0.68
-9 3 2 0.09 0.21
-9 -3 2 0.01 0.25
-9 3 1 0.49 0.43
-9 -3 1 -0.22 0.36
-9 -3 0 0.83 0.7
-9 -3 -1 26.37 2.82
-9 -3 -2 0.12 0.41
-9 -3 -3 0.67 0.48
-9 -3 -4 -0.17 0.41
-9 3 -4 0.07 0.54
-9 3 -5 1.12 0.84
-9 3 -6 1.35 0.95
9 4 -12 -0.62 0.69
-9 4 12 0.09 0.63
9 4 -11 0.95 0.79
-9 4 11 2.03 0.99
9 4 -10 0.66 0.36
-9 4 10 0.95 1.02
-9 -4 10 0.65 0.87
-9 4 9 -0.11 0.41
-9 -4 9 -0.73 0.72
-9 4 8 -0.38 0.36
-9 -4 8 0.02 0.33
-9 4 7 1.43 0.92
-9 -4 7 0.1 0.49
-9 4 6 0.29 0.35
-9 -4 6 1.18 0.5
-9 4 5 4.59 1.16
-9 -4 5 4.74 1.21
-9 4 4 1.36 0.57
-9 -4 4 3.32 1.01
-9 4 3 0.02 0.43
-9 -4 3 0.29 0.57
-9 4 2 0.4 0.27
-9 -4 2 1.26 0.61
-9 -4 1 0.7 0.61
-9 -4 0 2.5 0.83
-9 -4 -1 -0.13 0.33
-9 -4 -2 0.15 0.55
-9 -4 -3 0.81 0.6
-9 4 -3 0.75 0.54
-9 -4 -4 0.7 0.63
-9 4 -4 0.73 0.61
-9 4 -5 1.92 1.02
-9 4 -6 1.21 0.84
-9 5 11 0.27 0.6
9 5 -11 -0.33 0.77
-9 5 10 0.75 0.59
9 5 -10 1.37 0.81
-9 5 9 1.02 0.85
9 5 -9 0.12 0.36
-9 -5 9 0.06 0.45
9 5 -8 2.06 0.97
-9 -5 8 1.57 0.88
-9 5 8 2 1.02
-9 -5 7 0.89 0.72
-9 5 7 1.81 0.89
-9 -5 6 3.23 1.03
-9 5 6 3.51 1.17
-9 -5 5 -0.16 0.38
-9 5 5 0.73 0.46
-9 -5 4 0.27 0.26
-9 5 4 0.6 0.43
-9 -5 3 2.58 1.01
-9 -5 2 0.28 0.41
-9 -5 1 2.75 0.93
-9 -5 0 -0.07 0.46
-9 -5 -1 1.51 0.88
-9 -5 -2 0.17 0.56
-9 5 -2 0.6 0.48
-9 -5 -3 1.52 0.93
-9 5 -3 1.1 0.87
-9 -5 -4 0.95 0.7
-9 5 -4 0.56 0.4
-9 5 -5 0.36 0.62
9 6 -9 -0.4 0.87
9 6 -8 0.4 0.57
-9 -6 8 0.61 0.64
-9 6 7 0.77 0.59
9 6 -7 0.28 0.45
-9 -6 7 -0.48 0.49
-9 -6 6 0.59 0.86
-9 -6 5 3.7 1.32
-9 -6 4 0.83 0.68
-9 -6 3 1.3 0.75
-9 -6 2 0.62 0.41
-9 -6 1 -0.39 0.53
-9 -6 0 0.04 0.59
-9 -6 -1 0.78 0.78
-9 6 -1 -0.42 0.81
-9 -6 -2 0.02 0.53
-9 6 -2 0.66 0.66
-9 -6 -3 -0.23 0.6
-9 6 -3 0.41 0.84
-9 6 -4 0.4 0.5
-9 -7 5 0.49 0.52
-9 -7 4 -1.63 0.95
-9 -7 3 -0.49 0.54
-9 -7 2 1.33 0.74
-9 7 2 -1.87 1.12
-9 -7 1 1.1 0.78
-9 7 1 0.81 0.95
-9 -7 0 0.61 0.77
-9 7 0 -0.54 0.67
-9 -7 -1 0.04 0.95
-9 7 -1 0.46 0.97
-9 -7 -2 0.11 0.59
-9 7 -2 -0.5 0.49
-10 0 12 -1.45 0.75
-10 0 11 1.83 0.96
-10 0 10 0.04 0.42
-10 0 9 3.08 1.22
-10 0 8 1.33 0.63
-10 0 7 -0.72 0.59
-10 0 6 0.28 0.3
-10 0 5 0.96 0.68
-10 0 4 0.11 0.44
-10 0 3 4.28 1.06
-10 0 2 0.63 0.53
-10 0 1 0.43 0.34
-10 0 0 3.17 1.06
-10 0 -1 1.45 0.69
-10 -1 12 -0.33 0.38
-10 1 12 -0.78 0.84
-10 -1 11 -0.06 0.48
-10 1 11 0.14 0.36
-10 -1 10 7.46 1.69
-10 1 10 8.1 1.71
-10 -1 9 0.84 0.88
-10 1 9 0.66 0.58
-10 -1 8 1.59 0.83
-10 1 8 0.95 0.64
-10 -1 7 0.74 0.65
-10 1 7 0.58 0.51
-10 -1 6 2.75 0.93
-10 1 6 1.99 0.91
-10 -1 5 1.64 0.78
-10 1 5 2.53 0.83
-10 -1 4 32.64 3.12
-10 1 4 34.06 3.06
-10 1 3 2.76 0.87
-10 -1 3 2.46 0.86
-10 1 2 0.43 0.53
-10 -1 2 1.22 0.69
-10 -1 1 -0.58 0.35
-10 1 1 -0.3 0.35
-10 -1 0 1.42 0.64
-10 1 0 -0.31 0.49
-10 -1 -1 1.4 0.64
-10 -1 -2 0.56 0.53
-10 2 12 -0.37 0.62
-10 -2 11 1.54 1.05
-10 2 11 0.81 0.56
-10 -2 10 0.32 0.49
-10 2 10 0.47 0.76
-10 -2 9 1.47 0.93
-10 2 9 -0.29 0.53
-10 -2 8 0.16 0.56
-10 2 8 0.03 0.31
-10 -2 7 1.67 0.87
-10 2 7 1.74 0.76
-10 -2 6 0.08 0.41
-10 2 6 -0.05 0.39
-10 2 5 4.76 1.27
-10 -2 5 4.33 1.23
-10 2 4 3.57 1.04
-10 -2 4 4 1.11
-10 2 3 5.05 1.09
-10 -2 3 5.35 1.29
-10 2 2 1.4 0.61
-10 -2 2 0.9 0.57
-10 2 1 0.59 0.5
-10 -2 1 0.34 0.54
-10 -2 0 -0.24 0.61
-10 -2 -1 4.33 1.24
-10 -2 -2 0.41 0.37
-10 -3 11 0.49 0.74
-10 3 11 0.21 0.7
-10 -3 10 1.78 0.59
-10 3 10 1.92 0.88
-10 3 9 0.1 0.44
-10 -3 9 1.13 0.84
-10 3 8 3.52 1.13
-10 -3 8 5.81 1.5
-10 3 7 0.89 0.65
-10 -3 7 -0.45 0.5
-10 3 6 -0.14 0.31
-10 -3 6 0.48 0.65
-10 3 5 4.82 1.19
-10 -3 5 3.69 1.14
-10 3 4 29.13 2.86
-10 -3 4 28.11 3.02
-10 3 3 -0.01 0.43
-10 -3 3 -0.18 0.35
-10 3 2 -0.72 0.47
-10 -3 2 -0.45 0.29
-10 -3 1 1.52 0.74
-10 -3 0 1.31 0.71
-10 -3 -1 -0.8 0.59
-10 -3 -2 0.59 0.56
-10 -3 -3 -0.74 0.44
-10 3 -4 0.45 0.47
-10 4 10 0.93 0.79
-10 -4 10 0.94 0.8
-10 4 9 0.1 0.63
-10 -4 9 0.79 0.81
-10 4 8 -0.02 0.51
-10 -4 8 0.49 0.34
-10 4 7 0.77 0.85
-10 -4 7 0.1 0.68
-10 4 6 1.38 0.57
-10 -4 6 0.67 0.6
-10 4 5 1.93 0.85
-10 -4 5 2.67 1.07
-10 4 4 -0.61 0.54
-10 -4 4 0.11 0.62
-10 -4 3 2.43 1.08
-10 -4 2 0.5 0.64
-10 -4 1 1.51 1.13
-10 -4 0 0.54 0.5
-10 -4 -1 2.16 1.19
-10 -4 -2 -0.46 0.71
-10 -4 -3 -0.24 0.49
-10 4 -3 0.34 0.54
-10 4 -4 0.46 0.53
-10 -5 8 0.19 0.43
-10 5 8 0.49 0.6
-10 -5 7 0.83 0.85
-10 5 7 -0.05 0.49
-10 -5 6 2.57 1
-10 -5 5 1.12 0.78
-10 -5 4 5.91 1.69
-10 -5 3 1.49 0.77
-10 -5 2 -0.61 0.46
-10 -5 1 -0.45 0.73
-10 -5 0 -0.28 0.36
-10 -5 -1 1.05 0.75
-10 -5 -2 -1.97 1.23
-10 5 -2 0.04 0.44
-10 5 -3 0.46 0.44
-10 -6 6 -0.37 0.68
-10 -6 5 -0.68 0.6
-10 -6 4 -0.19 0.42
-10 -6 3 0.66 0.42
-10 -6 2 0.13 0.63
-10 -6 1 -0.28 0.48
-10 -6 0 0.44 0.47
-10 -6 -1 0.2 0.63
-10 6 -1 1.06 0.54
-10 6 -2 -0.8 0.77
-11 0 11 -0.06 0.43
-11 0 10 -0.45 0.79
-11 0 9 -0.53 0.56
-11 0 8 1.18 0.75
-11 0 7 7.75 1.61
-11 0 6 2.67 1.01
-11 0 5 0.22 0.58
-11 0 4 0.29 0.44
-11 0 3 0.72 0.48
-11 0 2 1.28 0.71
-11 0 1 0.07 0.32
-11 -1 11 1.4 1.08
-11 1 11 0.65 0.42
-11 -1 10 0.21 0.57
-11 1 10 0.27 0.57
-11 -1 9 0.56 0.91
-11 1 9 -1.56 1.02
-11 -1 8 2.25 0.98
-11 1 8 2.97 1.15
-11 -1 7 0.04 0.47
-11 1 7 -0.05 0.71
-11 -1 6 1.19 0.66
-11 1 6 -0.07 0.52
-11 1 5 4.33 1.38
-11 -1 5 5.01 1.42
-11 1 4 5.56 1.36
-11 -1 4 4.64 1.26
-11 1 3 1.1 0.7
-11 -1 3 1.84 0.97
-11 -1 2 1.32 0.72
-11 1 2 0.89 0.65
-11 -1 1 3.25 1.19
-11 -1 0 1.5 0.5
-11 2 11 1.55 1.16
-11 -2 10 0.42 0.72
-11 2 10 -0.59 0.76
-11 -2 9 0.29 0.36
-11 2 9 0.28 0.54
-11 -2 8 -0.26 0.67
-11 2 8 0.19 0.51
-11 2 7 1.05 0.65
-11 -2 7 3.11 1.11
-11 2 6 0.54 0.4
-11 -2 6 -0.19 0.4
-11 2 5 0.89 0.42
-11 -2 5 1.63 0.91
-11 2 4 0.63 0.45
-11 -2 4 0.3 0.63
-11 2 3 3.15 0.87
-11 -2 3 3.84 1.16
-11 -2 2 2.56 1.1
-11 -2 1 1.29 0.8
-11 -2 0 -0.07 0.77
-11 -2 -1 2.11 1.01
-11 3 10 1.45 1.12
-11 -3 10 0.44 0.4
-11 3 9 -0.49 0.5
-11 -3 9 1.89 1.15
-11 3 8 0.66 0.59
-11 -3 8 0.04 0.49
-11 3 7 1.22 0.73
-11 -3 7 0.55 0.62
-11 3 6 1.09 0.8
-11 -3 6 1.4 0.85
-11 3 5 1.6 0.92
-11 -3 5 1.19 0.89
-11 3 4 3.92 1.03
-11 -3 4 4.22 1.31
-11 -3 3 3.46 1.39
-11 -3 2 4.69 1.32
-11 -3 1 5 1.48
-11 -3 0 0.68 0.54
-11 -3 -1 3.31 1.05
-11 -4 8 0.73 0.77
-11 -4 7 0.28 0.5
-11 -4 6 0.04 0.71
-11 -4 5 0.85 0.6
-11 -4 4 -0.47 0.63
-11 -4 3 2.47 0.89
-11 -4 2 1.04 0.9
-11 -4 1 0.02 0.58
-11 -4 0 0.56 0.49
-11 -5 7 -0.91 0.99
-11 -5 6 0.02 0.61
-11 -5 5 2.43 1.18
-11 -5 4 -0.02 0.39
-11 -5 3 -0.67 0.69
-11 -5 2 0.11 0.67
-11 -5 1 0.33 0.76
-11 -5 0 1.49 1
-12 0 9 0.58 0.8
-12 0 8 3.1 1.23
-12 0 7 2.04 0.87
-12 0 6 1.43 0.95
-12 0 5 0.28 0.46
-12 0 4 -0.65 0.59
-12 0 3 0.16 0.53
-12 -1 9 3.51 1.47
-12 1 9 -0.21 0.57
-12 -1 8 1.33 0.85
-12 1 8 0.1 0.5
-12 -1 7 0.74 0.53
-12 1 7 0.39 0.63
-12 1 6 1.15 0.8
-12 -1 6 -1.04 0.7
-12 1 5 0.66 0.62
-12 -1 5 0.15 0.54
-12 1 4 -0.7 0.75
-12 -1 4 0.92 0.58
-12 -1 3 -1.53 1
-12 -1 2 1.37 0.87
-12 -2 8 1.29 0.79
-12 -2 7 0.68 0.94
-12 -2 6 -0.08 0.53
-12 -2 5 -0.51 0.57
-12 -2 4 -0.88 0.64
-12 -2 3 0.04 0.82
-12 -2 2 2.05 1.06
-12 -3 7 0.33 0.72
-12 -3 6 0.11 0.61
-12 -3 5 1.17 0.78
-12 -3 4 0.49 0.75
-12 -3 3 -0.31 0.7
-12 -3 2 0.83 0.41
-12 -4 5 0.09 0.43
-12 -4 4 3.65 1.41
