#------------------------------------------------------------------------------
#$Date: 2019-11-11 20:48:19 +0200 (Mon, 11 Nov 2019) $
#$Revision: 227316 $
#$URL: file:///home/coder/svn-repositories/cod/cif/4/03/59/4035920.cif $
#------------------------------------------------------------------------------
#
# This file is available in the Crystallography Open Database (COD),
# http://www.crystallography.net/
#
# All data on this site have been placed in the public domain by the
# contributors.
#
data_4035920
loop_
_publ_author_name
'Jing, Kun'
'Wang, Xiang-Nan'
'Wang, Guan-Wu'
_publ_section_title
;
 Diastereoselective Synthesis of Oxazoloisoindolinones via Cascade
 Pd-Catalyzed ortho-Acylation of N-Benzoyl \a-Amino Acid Derivatives and
 Subsequent Double Intramolecular Cyclizations.
;
_journal_issue                   1
_journal_name_full               'The Journal of organic chemistry'
_journal_page_first              161
_journal_page_last               172
_journal_paper_doi               10.1021/acs.joc.8b02509
_journal_volume                  84
_journal_year                    2019
_chemical_formula_sum            'C19 H17 N O3'
_chemical_formula_weight         307.33
_space_group_crystal_system      triclinic
_space_group_IT_number           2
_space_group_name_Hall           '-P 1'
_space_group_name_H-M_alt        'P -1'
_atom_sites_solution_hydrogens   geom
_audit_creation_method           SHELXL-2013
_cell_angle_alpha                66.561(4)
_cell_angle_beta                 85.785(3)
_cell_angle_gamma                69.576(3)
_cell_formula_units_Z            2
_cell_length_a                   8.5464(3)
_cell_length_b                   9.7090(4)
_cell_length_c                   11.3017(4)
_cell_measurement_reflns_used    3460
_cell_measurement_temperature    291(2)
_cell_measurement_theta_max      71.2210
_cell_measurement_theta_min      5.2850
_cell_volume                     803.98(6)
_computing_cell_refinement       'CrysAlisPro (Rigaku OD, 2015)'
_computing_data_collection       'CrysAlisPro (Rigaku OD, 2015)'
_computing_data_reduction        'CrysAlisPro (Rigaku OD, 2015)'
_computing_molecular_graphics    'Ortep-3 (L. J. Farrugia, 2001)'
_computing_publication_material  SHELXL-97
_computing_structure_refinement  'SHELXL-97 (Sheldrick, 1997)'
_computing_structure_solution    'SHELXS-2013 (Sheldrick, 1997)'
_diffrn_ambient_temperature      291(2)
_diffrn_detector_area_resol_mean 5.2169
_diffrn_measured_fraction_theta_full 0.991
_diffrn_measured_fraction_theta_max 0.961
_diffrn_measurement_device_type  'SuperNova, Dual, Cu at zero, AtlasS2'
_diffrn_measurement_method       '\w scans'
_diffrn_radiation_type           CuK\a
_diffrn_radiation_wavelength     1.54184
_diffrn_reflns_av_R_equivalents  0.0114
_diffrn_reflns_av_unetI/netI     0.0133
_diffrn_reflns_Laue_measured_fraction_full 0.991
_diffrn_reflns_Laue_measured_fraction_max 0.961
_diffrn_reflns_limit_h_max       7
_diffrn_reflns_limit_h_min       -10
_diffrn_reflns_limit_k_max       11
_diffrn_reflns_limit_k_min       -11
_diffrn_reflns_limit_l_max       13
_diffrn_reflns_limit_l_min       -10
_diffrn_reflns_number            5082
_diffrn_reflns_point_group_measured_fraction_full 0.991
_diffrn_reflns_point_group_measured_fraction_max 0.961
_diffrn_reflns_theta_full        67.684
_diffrn_reflns_theta_max         71.337
_diffrn_reflns_theta_min         4.276
_diffrn_source                   'micro-focus sealed X-ray tube'
_exptl_absorpt_coefficient_mu    0.698
_exptl_absorpt_correction_T_max  1.00000
_exptl_absorpt_correction_T_min  0.74918
_exptl_absorpt_correction_type   multi-scan
_exptl_absorpt_process_details
;
CrysAlisPro 1.171.38.46 (Rigaku Oxford Diffraction, 2015)
Empirical absorption correction using spherical harmonics,
 implemented in SCALE3 ABSPACK scaling algorithm.
;
_exptl_crystal_density_diffrn    1.270
_exptl_crystal_description       block
_exptl_crystal_F_000             324
_exptl_crystal_size_max          0.320
_exptl_crystal_size_mid          0.240
_exptl_crystal_size_min          0.220
_refine_diff_density_max         0.308
_refine_diff_density_min         -0.414
_refine_diff_density_rms         0.043
_refine_ls_extinction_method     none
_refine_ls_goodness_of_fit_ref   1.056
_refine_ls_hydrogen_treatment    constr
_refine_ls_matrix_type           full
_refine_ls_number_parameters     212
_refine_ls_number_reflns         3011
_refine_ls_number_restraints     0
_refine_ls_restrained_S_all      1.056
_refine_ls_R_factor_all          0.0592
_refine_ls_R_factor_gt           0.0559
_refine_ls_shift/su_max          0.000
_refine_ls_shift/su_mean         0.000
_refine_ls_structure_factor_coef Fsqd
_refine_ls_weighting_details
'w=1/[\s^2^(Fo^2^)+(0.0706P)^2^+0.3171P] where P=(Fo^2^+2Fc^2^)/3'
_refine_ls_weighting_scheme      calc
_refine_ls_wR_factor_gt          0.1474
_refine_ls_wR_factor_ref         0.1506
_reflns_Friedel_coverage         0.000
_reflns_number_gt                2769
_reflns_number_total             3011
_reflns_threshold_expression     'I > 2\s(I)'
_cod_data_source_file            jo8b02509_si_002.cif
_cod_data_source_block           shelxl
_cod_database_code               4035920
_shelx_space_group_comment
;
The symmetry employed for this shelxl refinement is uniquely defined
by the following loop, which should always be used as a source of
symmetry information in preference to the above space-group names.
They are only intended as comments.
;
_shelx_estimated_absorpt_t_min   0.808
_shelx_estimated_absorpt_t_max   0.862
_shelxl_version_number           2013-4
_shelx_res_file
;
TITL jk-3aa-171122_a.res in P-1
CELL  1.54184   8.5464   9.7090  11.3017   66.561   85.785   69.576
ZERR     2.00   0.0003   0.0004   0.0004    0.004    0.003    0.003
LATT   1
SFAC  C    H    N    O
UNIT  38   34   2    6
MERG   2
EADP C17 C17'
eadp c18 c18'
exyz c18 c18'
EADP  C19 C19'
EXYZ C17 C17'
MORE -1
FMAP   2
PLAN    5
SIZE     0.22   0.24   0.32
ACTA
BOND   $H
CONF
L.S.  14
WGHT    0.070600    0.317100
FVAR       1.21958   0.67873
O2    4    0.252225    0.384238    0.444148    11.00000    0.06241    0.04602 =
         0.03728   -0.01166   -0.00101   -0.00349
O1    4   -0.081333    0.765509    0.129129    11.00000    0.05406    0.04628 =
         0.06634   -0.00939   -0.01382    0.00001
O3    4    0.056024    0.299162    0.558913    11.00000    0.09406    0.05106 =
         0.05199   -0.01341    0.02564   -0.01284
N1    3    0.116130    0.516132    0.240494    11.00000    0.04412    0.03448 =
         0.04160   -0.01235    0.00063   -0.00587
C9    1    0.410602    0.327671    0.271363    11.00000    0.04448    0.03417 =
         0.05311   -0.01624    0.00370   -0.00926
C4    1    0.281030    0.454287    0.308393    11.00000    0.04795    0.03532 =
         0.03699   -0.01140   -0.00107   -0.00487
C3    1    0.325766    0.601870    0.274793    11.00000    0.05147    0.04077 =
         0.04697   -0.02098    0.00111   -0.00845
C1    1    0.057963    0.683504    0.179594    11.00000    0.05039    0.03560 =
         0.04068   -0.01108   -0.00063   -0.00352
C2    1    0.198098    0.733580    0.193278    11.00000    0.05632    0.03692 =
         0.04493   -0.01649    0.00295   -0.00937
C16   1    0.101318    0.363886    0.455327    11.00000    0.06429    0.03425 =
         0.04914   -0.01627    0.01272   -0.00636
C15   1    0.009085    0.435231    0.323821    11.00000    0.06018    0.04870 =
         0.05155   -0.01639    0.01011   -0.01988
AFIX  13
H15   2   -0.096062    0.518607    0.324717    11.00000   -1.20000
AFIX   0
C10   1    0.420905    0.352953    0.142643    11.00000    0.06124    0.05292 =
         0.05756   -0.02556    0.00906   -0.00956
AFIX  43
H10   2    0.348532    0.446587    0.080598    11.00000   -1.20000
AFIX   0
C8    1    0.210680    0.884723    0.142029    11.00000    0.07712    0.03877 =
         0.06516   -0.01789    0.00364   -0.01432
AFIX  43
H8    2    0.125183    0.973472    0.086908    11.00000   -1.20000
AFIX   0
C5    1    0.469249    0.616504    0.308689    11.00000    0.06008    0.05872 =
         0.07504   -0.03217   -0.00677   -0.01241
AFIX  43
H5    2    0.555101    0.527764    0.363430    11.00000   -1.20000
AFIX   0
C14   1    0.520053    0.190284    0.361499    11.00000    0.07049    0.04669 =
         0.06611   -0.01305   -0.00070    0.00735
AFIX  43
H14   2    0.516770    0.171254    0.448896    11.00000   -1.20000
AFIX   0
C12   1    0.643841    0.104413    0.193796    11.00000    0.06369    0.05497 =
         0.11662   -0.05095    0.03167   -0.01975
AFIX  43
H12   2    0.721291    0.028590    0.168204    11.00000   -1.20000
AFIX   0
C11   1    0.536887    0.241550    0.104392    11.00000    0.07160    0.07433 =
         0.08543   -0.05090    0.02895   -0.02646
AFIX  43
H11   2    0.541933    0.260337    0.017080    11.00000   -1.20000
AFIX   0
C7    1    0.354671    0.898515    0.175842    11.00000    0.09151    0.05594 =
         0.09607   -0.03640    0.01240   -0.03555
AFIX  43
H7    2    0.366853    0.998262    0.142191    11.00000   -1.20000
AFIX   0
C6    1    0.481281    0.766950    0.258792    11.00000    0.07722    0.07341 =
         0.10210   -0.04591    0.00095   -0.03349
AFIX  43
H6    2    0.576020    0.780119    0.281284    11.00000   -1.20000
AFIX   0
C13   1    0.636633    0.079204    0.320291    11.00000    0.07815    0.04379 =
         0.10714   -0.01659    0.00392    0.01231
AFIX  43
H13   2    0.710885   -0.014121    0.381275    11.00000   -1.20000
AFIX   0
PART    2
C17   1   -0.035959    0.318460    0.288816    21.00000    0.15539    0.09248 =
         0.07660   -0.02956    0.01744   -0.08250
AFIX  13
H17   2   -0.116772    0.285919    0.349753    21.00000   -1.20000
AFIX   0
C18   1   -0.127748    0.400817    0.155482    21.00000    0.22161    0.17640 =
         0.07776   -0.03052   -0.00530   -0.14958
AFIX  33
H18A  2   -0.215609    0.498313    0.148914    21.00000   -1.50000
H18B  2   -0.175028    0.331271    0.142211    21.00000   -1.50000
H18C  2   -0.050672    0.424966    0.090975    21.00000   -1.50000
AFIX   0
C19   1    0.089047    0.179091    0.297092    21.00000    0.09660    0.08946 =
         0.12059   -0.05670    0.01210   -0.04193
AFIX  33
H19A  2    0.043032    0.116313    0.272495    21.00000   -1.50000
H19B  2    0.138176    0.119298    0.384377    21.00000   -1.50000
H19C  2    0.173315    0.204244    0.240189    21.00000   -1.50000
AFIX   0
PART    1
C17'  1   -0.035959    0.318460    0.288816   -21.00000    0.15539    0.09248 =
         0.07660   -0.02956    0.01744   -0.08250
AFIX  13
H17'  2    0.074323    0.264058    0.265844   -21.00000   -1.20000
AFIX   0
C18'  1   -0.127748    0.400817    0.155482   -21.00000    0.22161    0.17640 =
         0.07776   -0.03052   -0.00530   -0.14958
AFIX  33
H18D  2   -0.095336    0.491063    0.104321   -21.00000   -1.50000
H18E  2   -0.246308    0.436759    0.163510   -21.00000   -1.50000
H18F  2   -0.099666    0.326729    0.114269   -21.00000   -1.50000
AFIX   0
C19'  1   -0.061477    0.178188    0.390889   -21.00000    0.09660    0.08946 =
         0.12059   -0.05670    0.01210   -0.04193
AFIX  33
H19D  2   -0.087887    0.116027    0.352475   -21.00000   -1.50000
H19E  2   -0.152127    0.212973    0.439717   -21.00000   -1.50000
H19F  2    0.038891    0.113803    0.447250   -21.00000   -1.50000
AFIX   0
HKLF    4

REM  jk-3aa-171122_a.res in P-1
REM R1 =  0.0559 for    2769 Fo > 4sig(Fo)  and  0.0592 for all    3011 data
REM    212 parameters refined using      0 restraints

END

WGHT      0.0697      0.3178

REM Highest difference peak  0.308,  deepest hole -0.414,  1-sigma level  0.043
Q1    1  -0.1217  0.2438  0.4066  11.00000  0.05    0.31
Q2    1   0.0002  0.3243  0.1644  11.00000  0.05    0.27
Q3    1   0.0001  0.1216  0.3747  11.00000  0.05    0.25
Q4    1   0.7239  0.0580  0.3777  11.00000  0.05    0.15
Q5    1   0.2446  0.6701  0.2547  11.00000  0.05    0.14
;
_shelx_res_checksum              1519
_shelx_hkl_file
;
   0   0   1  422.78    1.99
   0   0  -1  423.00    1.82
   0   0   2 9456.49   13.43
   0   0   3  971.42    5.44
   0   0  -3  972.09    5.01
   0   0  -4  164.55    2.47
   0   0   4  168.44    2.63
   0   0  -5  470.18    4.88
   0   0   5  470.35    5.01
   0   0   6   78.61    2.25
   0   0   6   80.58    2.32
   0   0  -6   78.93    2.25
   0   0   7  823.57    7.87
   0   0   7  793.25    6.44
   0   0   8  143.81    2.95
   0   0   9   19.78    1.12
   0   0  10   34.63    1.46
   0   0  11   21.04    1.10
   0   0  11   18.97    0.98
   0   0  12    8.12    0.57
   0  -1  12    0.84    0.19
   0  -1  11    0.66    0.25
   0  -1  11    0.52    0.19
   0  -1  10    4.67    0.54
   0  -1   9    1.30    0.33
   0   1  -9    1.73    0.31
   0   1  -8   13.98    0.84
   0  -1   8   14.19    0.97
   0  -1   7  132.93    3.61
   0   1  -7  132.66    2.43
   0  -1   6    2.55    0.49
   0  -1   6    2.64    0.45
   0  -1   5  257.68    4.24
   0  -1   4    1.02    0.25
   0  -1   3   22.88    1.00
   0  -1   2  495.16    4.03
   0  -1   1 1565.05    6.14
   0  -1   0 3893.48    7.84
   0  -1  -1  372.66    2.04
   0   1   1  363.74    1.94
   0  -1  -2 3639.71    8.49
   0   1   2 3642.26    6.32
   0  -1  -3  839.82    4.73
   0   1   3  840.31    3.98
   0  -1  -4 2806.93   10.00
   0   1   4 2809.29    8.88
   0   1   4 2817.05    9.37
   0   1   5  361.11    3.71
   0   1   5  356.38    3.89
   0  -1  -6  260.54    4.03
   0   1   6  265.11    3.75
   0   1   6  259.68    3.56
   0  -1  -7  237.09    4.26
   0   1   8  152.36    2.91
   0   1   9   53.93    1.82
   0   1  10   16.97    1.03
   0   1  11    0.67    0.26
   0   1  11    0.56    0.20
   0   1  12    3.73    0.44
   0   1  13    1.17    0.19
   0  -2  11   17.65    0.81
   0  -2  11   17.45    0.76
   0  -2  10    7.02    0.62
   0   2  -9    8.88    0.67
   0  -2   9    8.36    0.76
   0  -2   8   10.70    0.87
   0   2  -8   11.14    0.79
   0   2  -7   68.98    1.91
   0  -2   7   69.07    2.89
   0   2  -6  389.47    4.26
   0  -2   6  384.14    6.31
   0  -2   5    9.43    0.91
   0  -2   4  420.46    5.57
   0  -2   3   18.25    1.06
   0  -2   2 1062.23    7.34
   0  -2   1  169.17    2.61
   0  -2   0 1735.31    7.50
   0  -2  -1    3.49    0.34
   0   2   2  670.79    3.73
   0  -2  -2  682.44    3.99
   0   2   3 2968.33    9.09
   0  -2  -3 2955.43   10.32
   0  -2  -4   43.88    1.37
   0   2   4   46.20    1.00
   0   2   5   21.87    0.79
   0  -2  -5   20.59    1.03
   0  -2  -6  441.65    5.27
   0   2   6  454.74    4.08
   0  -2  -7   24.29    1.38
   0   2   8    3.31    0.38
   0  -2  -8    2.78    0.55
   0   2   8    3.00    0.41
   0   2   9   81.46    2.25
   0   2   9   83.55    1.86
   0   2  10    7.01    0.66
   0   2  10    7.59    0.72
   0   2  11  109.85    2.60
   0   2  12    0.64    0.25
   0   2  13    3.12    0.32
   0  -3  10    4.44    0.45
   0   3  -9   14.45    0.82
   0  -3   9   16.03    0.97
   0   3  -8  134.44    2.72
   0   3  -7  451.81    5.15
   0   3  -6   70.00    2.07
   0  -3   6   72.06    3.03
   0   3  -6   74.98    2.02
   0  -3   5    0.83    0.39
   0   3  -5    0.71    0.21
   0   3  -5    1.12    0.27
   0  -3   4   80.68    2.76
   0  -3   3   22.41    1.35
   0  -3   2   73.23    2.25
   0  -3   1  183.21    3.30
   0  -3   0  284.19    3.81
   0  -3  -1 1754.33    8.80
   0  -3  -2  573.80    4.68
   0   3   2  579.25    3.99
   0   3   3 1370.77    6.61
   0  -3  -4 1343.12    8.40
   0  -3  -5   13.37    0.92
   0  -3  -6   66.67    2.16
   0  -3  -7    0.26    0.25
   0   3   8   63.32    1.84
   0   3   8   62.85    1.56
   0  -3  -8   67.22    2.60
   0   3   9    3.04    0.39
   0   3   9    3.12    0.44
   0   3  10   74.02    2.17
   0   3  10   76.14    1.80
   0   3  11  114.46    2.63
   0   3  12   11.77    0.76
   0   3  13   -0.12    0.17
   0  -4   9   29.99    1.16
   0   4  -8   44.98    1.51
   0  -4   8   46.39    1.70
   0   4  -7  279.48    4.08
   0   4  -6   67.89    2.13
   0   4  -6   72.99    2.12
   0  -4   5   55.36    2.73
   0   4  -5   59.15    1.83
   0   4  -5   57.77    1.95
   0  -4   4   79.64    3.10
   0   4  -4   82.75    2.05
   0   4  -4   79.74    2.21
   0  -4   3  130.17    3.71
   0  -4   2    8.80    0.92
   0  -4   1  159.66    3.60
   0  -4   0  179.73    3.60
   0  -4  -1  482.86    5.56
   0  -4  -2  139.49    2.83
   0  -4  -3 1199.02    7.93
   0   4   3 1220.50    6.89
   0  -4  -4  303.02    4.55
   0   4   4  293.29    3.65
   0  -4  -5  129.18    3.09
   0  -4  -6   72.33    2.46
   0  -4  -7    2.73    0.54
   0   4   8   43.31    1.49
   0   4   8   41.23    1.29
   0  -4  -8   42.57    2.13
   0  -4  -9   18.53    1.52
   0   4   9   18.77    1.03
   0   4   9   19.23    0.95
   0   4  10   67.15    1.98
   0   4  11   22.40    1.13
   0   4  12   12.99    0.78
   0   4  12   13.56    0.92
   0   4  13    0.34    0.14
   0  -5   8    2.57    0.38
   0   5  -7   18.86    0.99
   0   5  -6    0.97    0.29
   0   5  -6    1.05    0.35
   0   5  -5  162.03    3.39
   0   5  -5  171.26    3.22
   0  -5   4   60.24    2.95
   0   5  -4   59.53    2.07
   0   5  -4   62.21    1.90
   0   5  -3   59.95    2.04
   0  -5   3   60.81    2.84
   0   5  -3   58.93    1.77
   0   5  -2   32.90    1.48
   0  -5   2   30.98    1.92
   0   5  -2   30.29    1.18
   0  -5   1  298.16    5.68
   0  -5   0   58.50    2.39
   0  -5  -1    2.31    0.47
   0  -5  -2  427.74    5.85
   0  -5  -3  333.28    4.95
   0   5   3  331.59    3.99
   0   5   4  908.27    6.83
   0  -5  -4  878.96    8.79
   0  -5  -5   12.14    1.07
   0  -5  -6   97.64    3.11
   0  -5  -7    5.14    0.78
   0   5   7    5.12    0.48
   0   5   8   68.09    1.83
   0  -5  -8   67.87    2.81
   0   5   9  198.42    3.25
   0  -5  -9  193.60    4.99
   0   5  10   31.93    1.33
   0   5  11    2.81    0.39
   0   5  11    2.84    0.51
   0   5  12    0.28    0.20
   0   5  12    0.20    0.18
   0   5  13   11.76    0.59
   0   5  13   11.73    0.70
   0  -6   7    1.43    0.26
   0   6  -6    8.60    0.66
   0   6  -5   40.23    1.52
   0   6  -5   36.79    1.57
   0   6  -4  150.83    3.37
   0   6  -4  154.70    3.02
   0   6  -3  166.19    3.07
   0   6  -3  166.07    3.62
   0  -6   2   12.35    1.36
   0   6  -2   13.65    1.04
   0   6  -2   12.59    0.82
   0   6  -1    7.81    0.62
   0  -6   1    8.75    1.11
   0   6  -1    8.32    0.80
   0   6   0   57.18    2.11
   0  -6   0   58.46    2.73
   0   6   1  119.28    3.01
   0   6   1  113.33    2.84
   0  -6  -1  115.42    3.65
   0   6   2    0.45    0.22
   0  -6  -2    0.50    0.29
   0  -6  -3  296.52    5.40
   0  -6  -4 1694.16   13.56
   0   6   5    0.13    0.18
   0  -6  -5    0.29    0.28
   0   6   6   36.81    1.22
   0  -6  -6   38.88    2.13
   0   6   6   41.63    1.71
   0   6   7   30.92    1.16
   0  -6  -7   31.16    1.98
   0   6   7   30.01    1.51
   0  -6  -8   91.74    3.46
   0   6   8   97.09    2.79
   0   6   8   94.28    2.09
   0   6   9  123.44    3.27
   0   6   9  124.16    2.48
   0   6  10   28.22    1.57
   0   6  10   26.65    1.15
   0   6  11   37.60    1.29
   0   6  11   41.59    1.81
   0   6  12   15.67    1.00
   0   6  12   15.18    0.74
   0   6  13   20.10    0.69
   0   6  13   20.94    0.92
   0  -7   6    0.73    0.20
   0   7  -5   14.97    0.79
   0   7  -5   15.00    0.83
   0   7  -4   74.16    1.89
   0   7  -4   70.37    2.11
   0   7  -3   18.86    1.00
   0   7  -3   18.76    1.20
   0   7  -2    0.86    0.25
   0   7  -2    2.13    0.46
   0   7  -1  125.84    3.28
   0   7  -1  124.13    2.47
   0   7   0   63.23    2.37
   0  -7   0   63.79    3.13
   0   7   1  194.93    4.15
   0  -7  -1  190.67    5.21
   0   7   2   15.61    1.20
   0  -7  -2   16.44    1.49
   0   7   3  233.18    4.49
   0  -7  -3  226.85    5.36
   0   7   3  222.35    4.11
   0  -7  -4  338.08    6.57
   0   7   4  335.48    4.88
   0   7   4  352.76    4.68
   0   7   5  202.46    3.75
   0  -7  -5  195.83    5.04
   0  -7  -6  178.08    4.92
   0   7   6  182.01    3.68
   0   7   7    1.45    0.40
   0  -7  -7    1.30    0.51
   0   7   8  417.22    4.30
   0   7   8  416.71    5.95
   0   7   9    7.60    0.85
   0   7   9    7.65    0.61
   0   7  10   79.43    2.54
   0   7  10   75.59    1.79
   0   7  11   13.14    0.70
   0   7  11   12.74    0.97
   0   7  12   14.71    0.91
   0   7  13    0.04    0.11
   0   8  -4    2.72    0.33
   0   8  -3   38.97    1.48
   0   8  -2   53.02    1.46
   0   8  -2   49.05    1.86
   0   8  -1    0.28    0.26
   0   8   0   13.77    1.11
   0   8   1  103.95    3.09
   0   8   2    6.16    0.80
   0   8   3  269.83    5.10
   0   8   4   14.11    1.07
   0   8   4   12.57    1.14
   0   8   5    9.89    1.00
   0   8   5   10.84    0.86
   0   8   6   78.81    2.38
   0   8   6   79.63    2.75
   0   8   7   47.90    1.93
   0   8   8   24.22    1.38
   0   8   9    0.50    0.25
   0   8  10   23.82    1.30
   0   8  11   14.80    0.94
   0   8  12    0.10    0.15
   0   9  -2    5.83    0.51
   0   9  -1    5.80    0.59
   0   9   0   10.49    0.86
   0   9   1   89.79    2.66
   0   9   2   38.95    1.83
   0   9   3  111.29    3.15
   0   9   4    0.50    0.33
   0   9   5   24.73    1.54
   0   9   6  124.61    2.74
   0   9   6  126.29    3.37
   0   9   7    3.61    0.50
   0   9   7    3.14    0.55
   0   9   8    4.29    0.60
   0   9   8    4.45    0.56
   0   9   9    3.25    0.49
   0   9   9    3.61    0.48
   0   9  10    3.46    0.46
   0   9  10    3.72    0.46
   0   9  11    2.47    0.34
   0  10   0    7.86    0.56
   0  10   1    1.27    0.28
   0  10   2    3.49    0.47
   0  10   3   19.65    1.12
   0  10   4    0.80    0.30
   0  10   5    8.43    0.78
   0  10   6   20.40    1.18
   0  10   7    9.85    0.81
   0  10   8    1.22    0.29
   0  10   9   -0.03    0.14
   0  11   4    2.61    0.32
   0  11   5    0.80    0.21
   0  11   6    0.81    0.20
   0  11   7    6.82    0.49
  -1  10   8   44.89    1.26
  -1  10   8   44.08    1.14
  -1  10   7    9.70    0.67
  -1  10   6   78.02    1.98
  -1  10   5    2.64    0.39
  -1  10   4    0.32    0.20
  -1  10   3    1.88    0.34
  -1  10   2    1.28    0.26
  -1  10   1    7.74    0.54
  -1   9  10   10.82    0.71
  -1   9   9    3.29    0.44
  -1   9   8    0.41    0.21
  -1   9   8   -0.10    0.20
  -1   9   7    2.56    0.45
  -1   9   6   29.27    1.50
  -1   9   5  153.01    3.46
  -1   9   5  143.89    2.69
  -1   9   4    1.15    0.38
  -1   9   3    3.66    0.57
  -1   9   2   56.28    2.04
  -1   9   1    5.05    0.60
  -1   9   0   10.97    0.81
  -1   9  -1    0.00    0.14
  -1   9  -2   13.75    0.68
  -1   8  12    5.53    0.45
  -1   8  11   15.40    0.88
  -1   8  11   13.21    0.58
  -1   8  10   32.48    1.02
  -1   8  10   31.73    1.41
  -1   8   9   22.04    0.91
  -1   8   9   21.31    1.23
  -1   8   8    5.11    0.47
  -1   8   8    5.68    0.67
  -1   8   8    4.47    0.61
  -1   8   7    0.96    0.32
  -1   8   7    0.63    0.29
  -1   8   7    0.89    0.24
  -1   8   6    7.14    0.75
  -1   8   6    6.32    0.78
  -1   8   5  196.04    3.74
  -1   8   5  193.77    4.25
  -1   8   4  132.82    3.53
  -1   8   3   18.07    1.32
  -1   8   2    0.51    0.31
  -1   8   1   21.34    1.39
  -1   8   0    2.50    0.48
  -1   8  -1    0.97    0.31
  -1   8  -2   23.83    1.24
  -1   8  -3   21.82    1.04
  -1   7  12    2.53    0.29
  -1   7  12    2.56    0.37
  -1   7  11    1.04    0.29
  -1   7  11    0.95    0.21
  -1   7  10    2.07    0.32
  -1   7  10    1.70    0.39
  -1   7   9   49.59    2.04
  -1   7   9   49.60    1.54
  -1   7   8    4.70    0.63
  -1   7   8    4.83    0.50
  -1   7   7   64.37    1.76
  -1   7   7   60.94    2.25
  -1   7   6  159.93    3.52
  -1   7   6  153.16    2.68
  -1   7   6  157.77    3.73
   1  -7  -6  156.38    4.70
   1  -7  -5   37.08    2.31
  -1   7   5   36.98    1.82
  -1   7   5   36.97    1.31
  -1   7   5   37.12    1.66
   1  -7  -4    0.61    0.44
  -1   7   4    0.04    0.23
  -1   7   3    9.25    0.96
   1  -7  -2  449.76    7.84
  -1   7   2  453.57    6.43
  -1   7   1  108.91    3.13
   1  -7  -1  107.96    4.02
  -1   7   0  228.71    4.52
  -1   7  -1   40.78    1.89
  -1   7  -2   51.27    1.60
  -1   7  -2   53.27    2.10
  -1   7  -3   89.19    2.56
  -1   7  -4   15.54    0.97
  -1   7  -5    0.52    0.20
  -1   6  13    2.96    0.27
  -1   6  13    2.92    0.32
  -1   6  12   17.42    0.79
  -1   6  12   17.47    0.99
  -1   6  11   30.95    1.19
  -1   6  11   32.62    1.53
  -1   6  10    3.57    0.45
  -1   6  10    2.81    0.53
  -1   6   9   94.57    2.23
  -1   6   9   90.13    2.84
  -1   6   8   65.87    1.84
   1  -6  -8   66.52    2.96
  -1   6   8   67.83    2.43
   1  -6  -7   62.14    2.83
  -1   6   7   64.48    2.28
  -1   6   7   59.22    1.71
  -1   6   6    0.58    0.27
  -1   6   6   -0.13    0.21
   1  -6  -5   42.41    2.30
  -1   6   5   41.10    1.71
  -1   6   5   39.34    1.32
  -1   6   4  367.79    4.85
  -1   6   4  375.68    5.45
  -1   6   4  376.97    3.98
  -1   6   4  369.01    5.35
  -1   6   3  227.47    3.13
   1  -6  -3  229.68    4.79
  -1   6   3  237.14    4.32
  -1   6   3  227.07    4.25
  -1   6   3  228.97    3.74
  -1   6   2   22.31    1.33
   1  -6  -2   22.55    1.61
  -1   6   2   22.47    1.36
   1  -6  -1    5.33    0.83
  -1   6   1    4.52    0.63
  -1   6   0  225.57    4.28
   1  -6   0  229.73    5.61
   1  -6   1    5.35    0.90
  -1   6  -1    6.52    0.75
  -1   6  -1    4.99    0.51
  -1   6  -2   19.33    1.03
  -1   6  -2   19.56    1.28
  -1   6  -3  193.75    3.99
  -1   6  -3  187.82    3.28
  -1   6  -4   10.83    0.81
  -1   6  -4   10.15    0.89
  -1   6  -5  160.19    2.90
  -1   6  -5  154.97    3.20
  -1   6  -6    7.03    0.58
   1  -6   7   12.19    0.66
  -1   5  13    2.21    0.27
  -1   5  12   13.26    0.75
  -1   5  12   14.30    0.91
  -1   5  11    5.06    0.53
  -1   5  11    5.08    0.65
  -1   5  10   60.57    2.31
  -1   5  10   62.66    1.88
  -1   5   9   85.98    2.74
  -1   5   9   85.16    2.17
   1  -5  -8   48.26    2.39
  -1   5   8   51.85    1.63
  -1   5   8   53.70    2.11
  -1   5   7    9.32    0.85
  -1   5   7    8.24    0.65
   1  -5  -7    8.94    1.03
  -1   5   6   14.61    1.01
  -1   5   6   12.16    0.73
   1  -5  -6   12.08    1.14
  -1   5   5  110.85    2.91
   1  -5  -5  108.63    3.35
  -1   5   4   36.20    1.59
   1  -5  -3  324.02    4.90
  -1   5   3  328.28    4.70
   1  -5  -2  195.29    4.11
   1  -5  -1  147.60    3.78
   1  -5   0  316.12    5.85
  -1   5   0  310.06    4.57
  -1   5  -1  116.17    2.87
   1  -5   1  116.00    3.74
  -1   5  -1  106.07    2.16
  -1   5  -2  137.60    2.65
   1  -5   2  142.74    4.35
  -1   5  -2  146.92    3.29
   1  -5   3   17.46    1.62
  -1   5  -3   18.29    1.03
  -1   5  -3   18.65    1.21
  -1   5  -4   50.61    1.99
  -1   5  -4   49.60    1.73
  -1   5  -5  219.65    3.67
  -1   5  -5  225.05    4.15
  -1   5  -6  119.15    2.63
  -1   5  -6  112.73    2.73
   1  -5   7   -0.09    0.23
   1  -5   8   16.22    0.81
  -1   4  13   10.81    0.59
  -1   4  12    0.01    0.15
  -1   4  12   -0.09    0.23
  -1   4  11    5.28    0.66
  -1   4  11    5.05    0.57
  -1   4  10   30.34    1.60
  -1   4  10   30.62    1.36
  -1   4  10   31.76    1.26
  -1   4   9  189.68    3.30
  -1   4   9  182.77    3.85
  -1   4   9  185.85    3.00
  -1   4   8   58.80    1.78
   1  -4  -8   57.81    2.46
  -1   4   8   56.81    1.61
  -1   4   7  205.04    3.11
  -1   4   7  202.98    2.84
   1  -4  -7  210.44    4.50
   1  -4  -6   54.04    2.18
   1  -4  -5   20.55    1.31
  -1   4   5   20.09    1.17
  -1   4   4   88.16    2.29
   1  -4  -3 1287.29    8.28
  -1   4   3 1328.18    8.63
   1  -4  -2  113.32    2.66
   1  -4  -1  175.43    3.54
   1  -4   0   29.42    1.57
   1  -4   1   51.32    2.20
   1  -4   2   29.38    1.77
  -1   4  -3  186.02    2.99
   1  -4   3  181.12    4.68
  -1   4  -3  187.37    3.48
   1  -4   4    0.69    0.37
  -1   4  -4    0.40    0.20
  -1   4  -4    0.30    0.22
  -1   4  -5    0.32    0.25
   1  -4   5    0.52    0.36
  -1   4  -5    0.24    0.18
  -1   4  -6  167.21    3.23
  -1   4  -6  166.24    3.50
  -1   4  -7    1.82    0.37
  -1   4  -7    1.56    0.35
   1  -4   8   29.88    1.31
   1  -4   9   26.97    1.04
  -1   3  13    1.80    0.26
  -1   3  12    2.80    0.38
  -1   3  11   81.46    2.18
  -1   3  11   80.51    2.34
  -1   3  11   81.20    1.86
  -1   3  10   10.36    0.89
  -1   3  10   10.65    0.84
  -1   3  10   11.24    0.76
  -1   3   9  111.00    2.60
  -1   3   9  106.58    2.26
  -1   3   8  302.94    3.64
  -1   3   8  299.80    4.10
   1  -3  -7  123.76    3.18
   1  -3  -6   50.63    1.94
   1  -3  -5  998.93    8.02
  -1   3   4   47.31    1.58
   1  -3  -3  450.18    3.88
  -1   3   3  449.66    4.55
   1  -3  -2 1584.37    8.10
   1  -3  -1 2649.99   11.55
   1  -3   0   41.56    1.58
   1  -3   1  138.47    3.14
   1  -3   2 1042.84    9.30
   1  -3   3   16.80    1.28
  -1   3  -4   18.17    1.03
   1  -3   4   16.35    1.37
  -1   3  -4   17.40    0.89
   1  -3   5   14.86    1.38
  -1   3  -5   15.55    0.91
  -1   3  -5   14.73    0.99
  -1   3  -6    6.33    0.63
   1  -3   6    6.31    1.00
  -1   3  -6    5.17    0.63
  -1   3  -7    8.50    0.78
  -1   3  -7    9.18    0.76
   1  -3   8  194.41    3.71
  -1   3  -8  182.30    3.20
   1  -3   9    4.95    0.55
   1  -3  10   16.00    0.78
  -1   2  13    2.94    0.31
  -1   2  12    1.04    0.27
  -1   2  11    1.26    0.34
  -1   2  11    1.19    0.29
  -1   2  10   84.13    2.36
  -1   2  10   82.36    1.97
  -1   2   9   19.60    0.98
  -1   2   9   19.79    1.14
  -1   2   8  215.85    3.10
  -1   2   8  225.69    3.60
  -1   2   7  343.23    4.56
   1  -2  -7  365.40    5.11
  -1   2   6  907.05    6.79
   1  -2  -6  916.95    7.35
  -1   2   5  120.34    2.24
   1  -2  -5  117.72    2.48
  -1   2   4 2470.45   10.84
   1  -2  -4 2477.99   10.65
  -1   2   3 2523.50    9.93
   1  -2  -2 2349.80    7.47
  -1   2   2 2356.88    8.94
   1  -2  -1 1646.84    7.28
   1  -2   0 2030.61    9.21
   1  -2   1    7.06    0.61
   1  -2   2    4.12    0.52
   1  -2   3  406.22    5.55
   1  -2   4   55.54    2.25
   1  -2   5    4.09    0.70
  -1   2  -6   19.75    1.13
  -1   2  -6   19.15    1.01
   1  -2   6   18.52    1.54
  -1   2  -7  131.61    2.95
  -1   2  -7  140.50    2.80
   1  -2   8  228.78    4.07
  -1   2  -8  230.64    3.60
   1  -2   9   51.08    1.86
   1  -2  10    7.66    0.63
   1  -2  11    2.63    0.30
   1  -2  11    2.45    0.30
  -1   1  13   -0.08    0.12
  -1   1  12    1.60    0.31
  -1   1  11    7.53    0.72
  -1   1  10    2.34    0.36
  -1   1  10    1.94    0.41
  -1   1   9   43.79    1.71
  -1   1   9   43.54    1.45
  -1   1   8   23.40    1.04
  -1   1   7   75.78    2.32
  -1   1   6   68.07    2.00
   1  -1  -6   74.28    1.95
   1  -1  -5 3227.55   11.44
  -1   1   5 3235.06   12.39
   1  -1  -4  803.09    5.21
  -1   1   4  807.88    5.56
  -1   1   3 5509.43   12.63
   1  -1  -3 5506.49   12.62
   1  -1  -1 1893.56    5.52
   1  -1   0 2294.63    7.69
   1  -1   1    8.87    0.57
   1  -1   2  505.61    4.87
   1  -1   3  752.04    6.63
   1  -1   4  569.79    6.39
   1  -1   5   86.08    2.77
   1  -1   6  357.50    6.21
  -1   1  -7  257.14    3.53
   1  -1   7  249.63    5.66
  -1   1  -7  258.53    3.98
   1  -1   8    7.20    0.76
  -1   1  -8    6.64    0.60
  -1   1  -9    2.83    0.40
   1  -1   9    2.43    0.44
   1  -1  10    2.08    0.40
   1  -1  11    0.32    0.19
   1  -1  11   -0.02    0.17
  -1   0  12    1.46    0.26
  -1   0  11    1.50    0.35
  -1   0  10   26.56    1.35
  -1   0   9   30.63    1.22
  -1   0   8   28.55    1.25
  -1   0   8   28.86    1.18
  -1   0   7  156.36    3.62
  -1   0   6  151.27    3.26
   1   0  -5  758.83    5.19
  -1   0   5  740.86    6.52
  -1   0   4  159.55    2.67
   1   0  -4  153.26    1.99
  -1   0   4  159.60    1.91
   1   0  -3 2406.08    6.46
  -1   0   3 2409.26    5.85
  -1   0   3 2409.59    9.05
  -1   0   2  371.17    1.56
   1   0  -2  376.74    2.13
  -1   0   2  371.07    3.06
  -1   0   1 1103.52    4.26
  -1   0   0  234.53    1.95
  -1   0  -1 3871.66    9.14
  -1   0  -1 3877.03    6.84
  -1   0  -2  452.64    3.73
  -1   0  -2  458.03    2.03
   1   0   3   99.64    2.11
  -1   0  -3   96.07    1.99
  -1   0  -4   68.72    1.91
   1   0   4   74.60    2.10
  -1   0  -5  131.99    2.97
   1   0   5  133.62    3.17
   1   0   6  153.13    3.73
   1   0   7    5.06    0.76
  -1   0  -7    6.31    0.52
   1   0   7    6.90    0.66
   1   0   8   80.75    2.31
  -1   0  -8   80.93    1.93
   1   0   9   52.88    1.91
   1   0  10    0.77    0.28
   1   0  11    0.11    0.18
   1   0  12    2.06    0.29
   1   0  12    2.15    0.30
  -1  -1  12   10.54    0.55
  -1  -1  11    0.58    0.25
  -1  -1  10   23.37    1.24
  -1  -1  10   25.17    1.15
  -1  -1   9  104.10    2.48
  -1  -1   8   77.39    2.97
   1   1  -8   80.67    1.94
  -1  -1   8   76.23    2.14
   1   1  -7   19.42    0.92
  -1  -1   7   17.87    1.36
  -1  -1   6  197.62    4.14
  -1  -1   5   38.55    1.41
  -1  -1   5   35.08    1.58
  -1  -1   4  143.75    2.80
  -1  -1   4  142.99    2.43
  -1  -1   3  342.44    3.29
  -1  -1   2  637.01    3.85
  -1  -1   2  625.95    3.89
  -1  -1   1   62.72    1.07
  -1  -1   0  689.01    2.27
  -1  -1   0  689.77    2.97
  -1  -1  -1 7263.64   10.61
  -1  -1  -2  432.59    3.22
  -1  -1  -3  875.52    5.44
  -1  -1  -4  700.46    5.63
   1   1   5  106.26    1.85
   1   1   5  109.99    2.62
   1   1   6    2.51    0.46
  -1  -1  -6    3.14    0.51
   1   1   7    6.75    0.80
  -1  -1  -7    7.35    0.86
   1   1   8    2.79    0.46
   1   1   9  121.51    2.85
   1   1  10   98.85    2.60
   1   1  11    2.25    0.37
   1   1  11    0.97    0.29
   1   1  12   14.66    0.78
   1   1  12   15.50    0.82
  -1  -2  11    8.15    0.56
  -1  -2  10   12.18    0.84
  -1  -2  10   14.11    0.82
  -1  -2   9   50.76    1.74
   1   2  -9   53.29    1.59
   1   2  -8   27.61    1.19
  -1  -2   7   79.02    3.11
   1   2  -7   83.38    2.06
  -1  -2   6   63.99    2.64
   1   2  -6   65.08    1.72
  -1  -2   5   71.78    2.28
  -1  -2   4   67.51    2.02
  -1  -2   3   73.44    1.40
  -1  -2   3   70.15    1.88
  -1  -2   2  221.26    3.02
  -1  -2   1  266.89    3.03
  -1  -2   0 1738.73    7.31
  -1  -2  -1    1.90    0.22
  -1  -2  -2  205.45    2.41
  -1  -2  -3   66.89    1.54
  -1  -2  -4  247.28    3.32
   1   2   4  235.20    1.45
  -1  -2  -5  404.59    4.83
   1   2   5  413.88    2.68
   1   2   6    3.01    0.49
  -1  -2  -6    2.69    0.45
  -1  -2  -7  116.02    3.25
   1   2   7  108.58    3.07
   1   2   8    2.04    0.37
  -1  -2  -8    2.54    0.56
   1   2   9   28.32    1.37
   1   2  10  103.88    2.63
   1   2  11    3.11    0.48
   1   2  11    2.80    0.42
   1   2  12    2.74    0.39
   1   2  12    2.76    0.39
   1   2  13    7.75    0.48
  -1  -3  10   11.11    0.65
  -1  -3  10   10.14    0.65
  -1  -3   9   12.97    0.86
   1   3  -9   10.91    0.70
   1   3  -8    6.15    0.62
   1   3  -7   64.93    1.91
  -1  -3   6   11.52    1.27
   1   3  -6   10.12    0.75
  -1  -3   5    2.96    0.56
   1   3  -5    2.30    0.36
  -1  -3   4  351.61    5.35
  -1  -3   3  147.19    3.19
  -1  -3   2   19.13    1.07
  -1  -3   1  569.21    5.46
  -1  -3   0  614.38    5.36
  -1  -3  -1  225.40    3.08
  -1  -3  -2  199.45    2.73
   1   3   2  193.56    1.61
  -1  -3  -3 4185.95   13.53
  -1  -3  -4   24.32    1.12
  -1  -3  -5  348.40    4.58
  -1  -3  -6  633.20    6.85
  -1  -3  -7   96.72    2.96
  -1  -3  -8    4.90    0.76
   1   3   8   22.61    1.13
  -1  -3  -9   19.94    1.62
   1   3   9   17.99    1.09
   1   3   9   19.62    1.07
   1   3  10    0.14    0.27
   1   3  10   -0.04    0.22
   1   3  11   16.35    0.99
   1   3  11   15.74    1.01
   1   3  12   33.72    1.26
   1   3  12   34.92    1.31
   1   3  13   -0.03    0.14
  -1  -4   9    0.15    0.15
  -1  -4   9    0.33    0.15
   1   4  -9    0.16    0.14
   1   4  -8   48.02    1.58
   1   4  -7   18.50    1.06
   1   4  -6  506.58    5.45
  -1  -4   5   26.11    1.79
   1   4  -5   27.29    1.24
   1   4  -4   30.55    1.23
  -1  -4   4   28.52    1.76
  -1  -4   3  270.25    5.05
  -1  -4   2  221.66    4.29
  -1  -4   1  242.11    4.23
  -1  -4   0 1048.93    8.42
  -1  -4  -1 1535.97    9.71
  -1  -4  -2 1544.55    9.45
   1   4   2 1554.52    5.63
  -1  -4  -3  222.24    3.55
   1   4   3  221.58    2.26
  -1  -4  -4  426.08    5.16
  -1  -4  -5   41.20    1.72
  -1  -4  -6  171.02    3.72
  -1  -4  -7  193.71    4.30
  -1  -4  -8    4.55    0.75
   1   4   8    5.13    0.51
   1   4   8    5.36    0.58
  -1  -4  -9    8.50    1.07
   1   4   9    8.22    0.68
   1   4   9    8.89    0.79
   1   4  10   24.79    1.30
   1   4  10   25.33    1.23
   1   4  11   98.50    2.31
   1   4  11   94.35    2.43
   1   4  12   10.93    0.70
   1   4  13    3.33    0.32
   1   4  13    3.67    0.40
  -1  -5   8    0.96    0.25
   1   5  -8    1.20    0.25
   1   5  -7    1.79    0.36
   1   5  -6    4.91    0.58
   1   5  -5   46.32    1.68
  -1  -5   4   12.44    1.31
   1   5  -4   11.69    0.83
   1   5  -3   41.24    1.46
   1   5  -3   41.58    1.59
  -1  -5   3   40.31    2.21
  -1  -5   2  184.86    4.51
  -1  -5   1    3.11    0.58
  -1  -5   0   46.31    2.06
  -1  -5  -1   87.88    2.72
  -1  -5  -2 1239.73    9.81
  -1  -5  -3   42.44    1.75
  -1  -5  -4    6.04    0.70
  -1  -5  -5   46.07    1.99
  -1  -5  -6   29.02    1.65
   1   5   7   77.57    2.07
  -1  -5  -7   83.36    2.94
  -1  -5  -8   16.29    1.41
   1   5   8   15.19    0.82
   1   5   8   14.81    0.97
   1   5   9    3.72    0.45
  -1  -5  -9    5.03    0.85
   1   5   9    4.37    0.57
   1   5  10    0.58    0.20
   1   5  10    0.24    0.19
   1   5  11   36.84    1.47
   1   5  11   36.11    1.33
   1   5  12   15.52    0.80
   1   5  12   17.68    1.08
   1   5  13    1.06    0.24
   1   5  13    1.18    0.19
   1   6  -7    0.69    0.21
   1   6  -6   25.10    1.15
   1   6  -5   18.73    1.06
   1   6  -4   11.04    0.83
   1   6  -4   10.36    0.85
   1   6  -3   63.09    1.89
  -1  -6   3   59.79    2.93
   1   6  -3   61.77    2.10
   1   6  -2   44.98    1.79
  -1  -6   2   44.96    2.46
   1   6  -2   45.66    1.55
   1   6  -1   19.40    1.18
   1   6  -1   16.30    0.87
  -1  -6   1   19.74    1.57
   1   6   0    7.86    0.76
   1   6   0    6.96    0.73
  -1  -6   0    6.70    0.92
  -1  -6  -1  261.06    5.36
  -1  -6  -2   55.17    2.42
  -1  -6  -2   52.66    2.15
  -1  -6  -3  919.35    9.08
  -1  -6  -4  433.36    6.40
  -1  -6  -5  703.48    8.51
  -1  -6  -6    2.12    0.52
   1   6   6    2.92    0.44
   1   6   7    9.93    0.78
  -1  -6  -7   11.44    1.17
   1   6   8   10.23    0.82
  -1  -6  -8   12.93    1.30
   1   6   9   20.02    1.13
   1   6  10   59.21    1.90
   1   6  10   60.85    1.67
   1   6  11   14.84    1.09
   1   6  11   12.81    0.74
   1   6  12    7.47    0.52
   1   6  12    8.45    0.76
   1   6  13    0.81    0.24
   1   7  -6    0.46    0.17
   1   7  -5   27.54    1.13
   1   7  -4    9.43    0.72
   1   7  -3   11.74    0.81
   1   7  -3   11.55    0.91
   1   7  -2  134.93    2.68
   1   7  -2  142.72    3.34
   1   7  -1  101.56    2.25
  -1  -7   1  103.86    3.93
   1   7  -1  108.41    2.97
  -1  -7   0   -0.02    0.25
   1   7   0    0.18    0.19
  -1  -7  -1    5.83    0.94
   1   7   1    4.87    0.66
   1   7   1    5.53    0.71
   1   7   2    1.67    0.41
  -1  -7  -2    1.19    0.39
   1   7   3    0.43    0.28
  -1  -7  -3    0.15    0.23
  -1  -7  -4  221.51    5.01
   1   7   4  213.73    3.88
  -1  -7  -5  259.43    5.63
   1   7   5  267.95    4.09
   1   7   6   18.07    1.14
  -1  -7  -6   18.07    1.55
   1   7   6   16.10    1.05
  -1  -7  -7    0.28    0.32
   1   7   7    0.18    0.20
   1   7   7    0.31    0.22
   1   7   8    3.07    0.53
   1   7   8    3.33    0.51
   1   7   9  170.85    3.78
   1   7   9  162.38    3.21
   1   7  10   80.43    2.58
   1   7  11   64.51    2.22
   1   7  12    9.30    0.77
   1   7  13   -0.03    0.13
   1   8  -4    0.12    0.14
   1   8  -3    2.16    0.37
   1   8  -3    2.02    0.31
   1   8  -2    0.54    0.24
   1   8  -2    0.35    0.14
   1   8  -1   88.47    2.66
   1   8   0    5.98    0.75
   1   8   1  136.12    3.52
   1   8   2    0.66    0.34
  -1  -8  -3    6.41    0.90
   1   8   3    7.53    0.87
   1   8   3    7.08    0.80
  -1  -8  -4   11.05    1.20
   1   8   4   13.21    1.05
   1   8   4   13.65    1.14
   1   8   5    2.46    0.46
  -1  -8  -5    2.24    0.57
   1   8   6   12.35    0.94
   1   8   6   10.46    0.90
   1   8   7   -0.02    0.21
   1   8   7    0.06    0.25
   1   8   8   43.99    1.73
   1   8   8   45.99    1.90
   1   8   9   41.15    1.81
   1   8  10   21.45    1.27
   1   8  11    2.93    0.46
   1   8  12    6.54    0.58
   1   8  13    2.90    0.31
   1   9  -2   10.18    0.69
   1   9  -1    0.17    0.16
   1   9   0   20.66    1.24
   1   9   1    7.27    0.80
   1   9   2   52.21    2.16
   1   9   3    0.86    0.34
   1   9   4    7.53    0.88
   1   9   4    7.62    0.81
   1   9   5    2.69    0.50
   1   9   5    2.62    0.56
   1   9   6    1.07    0.30
   1   9   6    0.98    0.42
   1   9   7   48.34    1.74
   1   9   7   53.95    1.95
   1   9   8    0.85    0.28
   1   9   9    0.23    0.18
   1   9  10   11.83    0.84
   1   9  11    1.29    0.28
   1   9  11    1.31    0.29
   1   9  12    2.45    0.31
   1  10   0    0.40    0.16
   1  10   1    0.18    0.18
   1  10   2   30.16    1.42
   1  10   3    4.69    0.62
   1  10   4    6.76    0.74
   1  10   5    4.79    0.65
   1  10   6   29.27    1.53
   1  10   7  104.71    2.79
   1  10   8   -0.08    0.20
   1  10   9    7.41    0.69
   1  10   9    6.73    0.53
   1  10  10   10.11    0.69
   1  10  10    8.89    0.56
   1  11   2   19.79    0.81
   1  11   3    0.70    0.21
   1  11   4    9.56    0.68
   1  11   5    0.42    0.20
   1  11   6    0.90    0.26
   1  11   7    0.67    0.21
   1  11   8    5.78    0.50
  -2   9  10    1.54    0.23
  -2   9   8    0.28    0.13
  -2   9   7    0.42    0.19
  -2   9   7    0.49    0.19
  -2   9   6    3.02    0.39
  -2   9   6    2.58    0.40
  -2   9   5    1.04    0.29
  -2   9   5    0.79    0.23
  -2   9   4   22.03    1.16
  -2   9   3   20.64    1.12
  -2   9   2    0.28    0.20
  -2   9   1    4.24    0.48
  -2   9   0    0.52    0.17
  -2   9  -1    4.99    0.41
  -2   8  10    2.55    0.39
  -2   8  10    2.47    0.29
  -2   8   9    2.03    0.29
  -2   8   9    2.29    0.40
  -2   8   8   20.80    1.19
  -2   8   8   19.43    0.89
  -2   8   7    7.61    0.73
  -2   8   6  102.05    2.75
  -2   8   5    4.48    0.57
  -2   8   5    4.35    0.64
  -2   8   4    3.94    0.59
  -2   8   4    4.48    0.55
  -2   8   3  137.08    3.33
  -2   8   3  130.28    2.67
  -2   8   2   12.13    1.01
  -2   8   1    0.43    0.28
  -2   8   0   29.76    1.46
  -2   8  -1   10.08    0.81
  -2   8  -2    0.49    0.21
  -2   8  -3    4.19    0.41
  -2   7  12    0.35    0.12
  -2   7  12    0.56    0.17
  -2   7  11    0.32    0.18
  -2   7  11   -0.03    0.12
  -2   7  10    8.21    0.75
  -2   7  10    8.11    0.58
  -2   7   9    4.13    0.47
  -2   7   9    4.27    0.61
  -2   7   8    0.28    0.25
  -2   7   8    0.45    0.24
  -2   7   7    7.63    0.82
  -2   7   7    8.58    0.69
  -2   7   6    6.72    0.76
  -2   7   6    7.05    0.77
  -2   7   6    7.54    0.65
  -2   7   5   48.84    2.06
  -2   7   5   49.55    1.61
  -2   7   5   50.44    1.98
  -2   7   4   19.99    1.33
  -2   7   3   10.97    0.86
  -2   7   3   12.06    1.04
  -2   7   2  887.85    8.88
  -2   7   2  895.04    7.40
  -2   7   1   48.86    2.09
  -2   7   1   51.59    1.69
  -2   7   0  245.52    4.60
  -2   7  -1   17.60    1.23
  -2   7  -2    2.93    0.50
  -2   7  -3   10.07    0.83
  -2   7  -4    0.17    0.16
  -2   6  12   18.90    0.77
  -2   6  12   18.10    0.88
  -2   6  11    5.05    0.58
  -2   6  11    4.53    0.46
  -2   6  10    0.82    0.31
  -2   6  10    0.93    0.25
  -2   6   9    0.73    0.23
  -2   6   9    0.75    0.31
  -2   6   8    0.50    0.21
  -2   6   8    0.17    0.35
  -2   6   7   12.52    1.03
  -2   6   7   13.12    0.85
  -2   6   6    5.60    0.69
   2  -6  -6    7.36    0.98
  -2   6   6    5.35    0.54
  -2   6   6    5.66    0.79
  -2   6   6    5.28    0.66
  -2   6   5    8.04    0.80
  -2   6   5    7.98    0.83
  -2   6   5    9.07    0.70
  -2   6   5    7.77    0.91
  -2   6   4    4.01    0.50
  -2   6   4    3.14    0.53
  -2   6   4    2.79    0.58
  -2   6   4    4.01    0.58
  -2   6   3   16.27    1.29
  -2   6   3   16.93    1.18
  -2   6   2   11.92    1.13
  -2   6   2   11.16    0.97
   2  -6  -2   14.15    1.31
  -2   6   2   11.78    0.88
  -2   6   1    4.03    0.51
   2  -6  -1    3.09    0.66
  -2   6   1    3.12    0.54
  -2   6   0  308.04    5.12
  -2   6   0  304.94    4.10
   2  -6   0  314.05    6.80
  -2   6  -1   25.13    1.48
  -2   6  -2  174.72    3.87
  -2   6  -3    8.31    0.84
  -2   6  -4   40.69    1.73
  -2   6  -5   -0.06    0.17
   2  -6   6    6.70    0.51
  -2   5  13   19.04    0.68
  -2   5  12    1.50    0.30
  -2   5  12    1.38    0.29
  -2   5  11   46.60    1.76
  -2   5  11   45.97    1.51
  -2   5  10    1.07    0.31
  -2   5  10    1.27    0.36
  -2   5   9    7.16    0.81
  -2   5   9    8.17    0.71
  -2   5   8  320.63    4.20
  -2   5   8  308.50    5.10
  -2   5   7    8.50    0.84
   2  -5  -7    8.33    1.00
  -2   5   7    7.92    0.68
  -2   5   6    1.03    0.30
   2  -5  -6    1.26    0.42
  -2   5   6    1.26    0.31
  -2   5   5   36.06    1.59
  -2   5   5   34.52    1.28
  -2   5   5   33.48    1.79
  -2   5   4  248.79    3.98
  -2   5   4  237.97    4.04
  -2   5   4  241.23    3.26
  -2   5   3  108.42    2.57
  -2   5   3  103.56    3.02
  -2   5   3  100.22    2.64
  -2   5   3  106.09    2.13
  -2   5   2  432.38    4.35
  -2   5   2  425.33    5.48
  -2   5   1   72.07    2.27
   2  -5  -1   76.04    2.88
  -2   5   1   69.71    1.97
  -2   5   0   31.17    1.28
   2  -5   0   32.33    1.99
  -2   5   0   31.66    1.54
  -2   5  -1  331.61    4.06
  -2   5  -1  331.07    4.05
  -2   5  -1  329.80    5.05
   2  -5   1  334.76    6.78
  -2   5  -2    3.93    0.60
  -2   5  -2    2.72    0.39
   2  -5   2    3.23    0.71
  -2   5  -3    2.93    0.44
  -2   5  -3    4.52    0.63
  -2   5  -4  208.72    3.60
  -2   5  -4  216.92    4.23
  -2   5  -5   38.42    1.72
  -2   5  -6   95.95    2.44
   2  -5   7    1.82    0.31
  -2   4  13   15.17    0.65
  -2   4  12   15.38    0.81
  -2   4  11    7.67    0.73
  -2   4  11    8.29    0.69
  -2   4  10   88.19    2.09
  -2   4  10   81.26    2.52
  -2   4  10   85.62    2.28
  -2   4   9  135.67    2.84
  -2   4   9  133.21    2.63
  -2   4   8    1.35    0.38
  -2   4   8    1.67    0.36
  -2   4   8    1.04    0.30
  -2   4   7    1.84    0.41
  -2   4   7    1.91    0.36
  -2   4   7    2.18    0.36
  -2   4   7    1.68    0.32
   2  -4  -7    2.39    0.50
  -2   4   6    0.15    0.16
  -2   4   6    0.43    0.20
   2  -4  -6    0.39    0.21
  -2   4   6    0.06    0.16
  -2   4   5   17.13    1.21
  -2   4   4    5.83    0.69
   2  -4  -3  297.37    4.11
  -2   4   3  305.89    4.78
   2  -4  -2  140.28    3.14
   2  -4  -1    0.03    0.16
   2  -4   0  125.36    3.48
   2  -4   1  157.47    4.16
  -2   4  -2  249.91    4.15
   2  -4   2  244.38    5.52
  -2   4  -2  249.91    3.46
  -2   4  -3    0.27    0.18
  -2   4  -3    0.46    0.21
   2  -4   3   -0.21    0.29
  -2   4  -4    0.76    0.27
  -2   4  -4    0.31    0.21
  -2   4  -5   -0.35    0.29
  -2   4  -5   -0.03    0.22
  -2   4  -6  185.10    3.73
   2  -4   7   15.19    0.99
  -2   4  -7   13.96    0.95
   2  -4   8    0.05    0.17
   2  -4   9   19.63    0.78
  -2   3  13    0.05    0.11
  -2   3  12    1.26    0.25
  -2   3  11   92.46    2.01
  -2   3  11   95.18    2.33
  -2   3  10    7.76    0.77
  -2   3  10    8.43    0.75
  -2   3  10    8.74    0.69
  -2   3   9  355.60    5.25
  -2   3   9  365.59    4.75
  -2   3   9  368.68    4.32
  -2   3   8  688.71    7.10
  -2   3   8  704.78    5.73
  -2   3   8  702.43    5.76
  -2   3   8  712.27    6.34
  -2   3   7  308.05    3.65
  -2   3   7  310.38    3.97
  -2   3   7  312.73    3.64
   2  -3  -7  321.89    5.23
  -2   3   7  309.17    4.54
   2  -3  -6  536.54    6.50
  -2   3   5    5.12    0.66
   2  -3  -5    5.01    0.65
  -2   3   4  182.87    3.54
   2  -3  -3  346.23    3.56
  -2   3   3  347.22    4.68
   2  -3  -2  752.52    6.08
   2  -3  -1  628.44    6.19
   2  -3   0  113.65    2.92
   2  -3   1  200.33    4.21
   2  -3   2  138.05    3.75
  -2   3  -3  109.67    2.59
  -2   3  -3  104.35    2.17
   2  -3   3  102.55    3.48
  -2   3  -4  175.52    3.03
  -2   3  -4  178.44    3.51
  -2   3  -5    3.55    0.49
   2  -3   5    3.12    0.74
  -2   3  -5    4.15    0.58
  -2   3  -6    1.39    0.37
  -2   3  -6    1.37    0.34
   2  -3   7   50.35    1.93
  -2   3  -7   47.46    1.87
   2  -3   8   10.53    0.86
   2  -3   9    6.50    0.58
   2  -3  10   18.69    0.76
  -2   2  13    0.07    0.10
  -2   2  12    0.49    0.17
  -2   2  12    1.41    0.24
  -2   2  11   30.32    1.34
  -2   2  11   28.83    1.11
  -2   2  10   39.20    1.58
  -2   2  10   42.02    1.46
  -2   2   9   13.18    0.93
  -2   2   9   12.61    0.84
  -2   2   8    0.54    0.27
  -2   2   8    0.08    0.24
  -2   2   7  958.65    6.38
  -2   2   7  971.00    6.46
  -2   2   7  953.06    7.08
   2  -2  -6  296.02    4.30
   2  -2  -5  570.84    5.69
  -2   2   4  128.01    2.82
  -2   2   3  825.19    6.71
   2  -2  -3  828.57    3.67
   2  -2  -2  438.59    3.67
   2  -2  -1  792.81    5.88
   2  -2   0  255.88    3.77
   2  -2   1  234.69    3.97
   2  -2   2  778.75    7.92
   2  -2   3  113.67    3.27
   2  -2   4  124.43    3.77
  -2   2  -5   20.03    1.00
  -2   2  -5   19.24    1.13
   2  -2   5   17.43    1.54
  -2   2  -6  147.61    3.25
   2  -2   6  139.01    4.63
  -2   2  -6  148.40    2.87
  -2   2  -7   31.11    1.52
  -2   2  -7   29.55    1.34
   2  -2   8    4.95    0.63
   2  -2   9   70.39    2.13
   2  -2  10    0.44    0.23
  -2   1  12    4.93    0.46
  -2   1  12    5.43    0.38
  -2   1  11    1.33    0.26
  -2   1  11    2.22    0.40
  -2   1  10    2.73    0.42
  -2   1  10    2.09    0.43
  -2   1   9    9.86    0.82
  -2   1   9   10.29    0.75
  -2   1   8   10.08    0.72
  -2   1   8   11.08    0.83
  -2   1   7  169.49    3.02
  -2   1   7  174.97    2.70
  -2   1   7  173.27    2.80
  -2   1   7  168.79    3.73
  -2   1   6  937.91    8.18
  -2   1   5    1.00    0.26
   2  -1  -5    5.72    0.50
  -2   1   4   43.93    1.48
  -2   1   4   42.56    1.57
   2  -1  -4   42.55    1.28
  -2   1   3  104.98    2.12
  -2   1   3   97.34    2.17
  -2   1   2  126.19    2.30
   2  -1  -2  123.72    1.37
   2  -1  -1  134.61    1.98
   2  -1   0   95.22    1.98
   2  -1   1 1174.81    7.85
   2  -1   2 1137.14    8.61
   2  -1   3    0.81    0.32
   2  -1   4    0.79    0.36
   2  -1   5   86.51    3.13
  -2   1  -6   30.65    1.40
  -2   1  -6   29.88    1.20
   2  -1   6   28.78    1.97
   2  -1   7   12.35    0.96
  -2   1  -7   11.84    0.80
  -2   1  -7   12.22    0.94
   2  -1   7   11.49    1.36
   2  -1   8   34.58    1.60
   2  -1   9   92.36    2.57
   2  -1  10   13.40    0.93
   2  -1  11    6.07    0.51
  -2   0  12    0.83    0.20
  -2   0  11    0.72    0.27
  -2   0  11    0.73    0.20
  -2   0  10    0.72    0.27
  -2   0  10    0.74    0.24
  -2   0   9    0.25    0.20
  -2   0   9    0.20    0.20
  -2   0   8   67.77    2.67
  -2   0   8   72.10    1.93
  -2   0   8   71.38    2.14
  -2   0   7   25.30    1.56
  -2   0   7   27.86    1.08
  -2   0   6  376.97    5.56
  -2   0   5   80.08    2.34
  -2   0   4  213.21    3.45
   2   0  -4  226.05    2.17
  -2   0   3   76.91    1.88
   2   0  -3   78.38    1.24
  -2   0   2  550.76    4.42
  -2   0   1  156.19    2.18
  -2   0   0 2525.50    9.27
  -2   0  -1    0.99    0.19
   2   0   2   15.39    0.89
  -2   0  -2   33.79    0.91
   2   0   3  920.09    7.60
   2   0   4    0.67    0.29
   2   0   5  377.38    6.14
   2   0   6  316.36    6.09
   2   0   7   17.78    1.57
  -2   0  -7   19.39    0.95
   2   0   7   19.20    1.11
   2   0   8  292.86    4.61
   2   0   9    2.48    0.49
   2   0  10    0.24    0.25
   2   0  11    0.32    0.21
   2   0  12    2.49    0.28
   2   0  12    2.70    0.31
  -2  -1  11   25.54    1.08
  -2  -1  10    1.52    0.34
  -2  -1  10    1.48    0.28
  -2  -1   9   50.40    1.62
  -2  -1   9   51.20    1.87
  -2  -1   8   56.17    2.62
  -2  -1   7   13.42    1.22
   2   1  -7   14.48    0.79
  -2  -1   6   56.70    2.31
  -2  -1   5  236.05    4.33
  -2  -1   4 1623.90   10.21
  -2  -1   3   11.22    0.78
  -2  -1   2   36.12    1.22
  -2  -1   2   38.26    1.27
  -2  -1   1 1865.24    6.66
  -2  -1   0 1415.59    5.28
  -2  -1   0 1414.01    5.69
  -2  -1   0 1418.68    5.11
  -2  -1  -1 1609.72    6.76
  -2  -1  -2    9.08    0.59
  -2  -1  -3   10.97    0.74
  -2  -1  -4  607.39    6.10
  -2  -1  -5 1337.80   10.28
   2   1   5 1301.23   10.56
  -2  -1  -6    0.53    0.33
   2   1   6    0.41    0.28
  -2  -1  -7    1.64    0.48
   2   1   7    1.59    0.35
   2   1   7    1.81    0.51
   2   1   8   70.64    2.18
   2   1   9   19.89    1.22
   2   1  10   27.07    1.41
   2   1  11    2.13    0.40
   2   1  12    0.25    0.18
   2   1  12   -0.13    0.14
  -2  -2  11   16.09    0.72
  -2  -2  10   19.49    1.01
   2   2  -9   67.68    1.72
  -2  -2   9   68.17    1.80
  -2  -2   9   66.55    2.07
   2   2  -8    8.31    0.65
  -2  -2   7   86.29    3.32
   2   2  -7   86.57    2.10
  -2  -2   6  176.70    4.51
  -2  -2   5  192.74    4.31
  -2  -2   4   30.47    1.56
  -2  -2   4   33.02    1.30
  -2  -2   3 1275.25    9.06
  -2  -2   3 1288.21    7.78
  -2  -2   3 1305.06    7.55
  -2  -2   2  558.83    5.24
  -2  -2   2  568.75    4.97
  -2  -2   2  572.87    4.67
  -2  -2   1    5.18    0.49
  -2  -2   0 9999.00   12.57
  -2  -2   0 9994.33   16.74
  -2  -2  -1 2415.53    6.62
  -2  -2  -1 2412.75    7.77
  -2  -2  -2 4895.27   12.88
  -2  -2  -3  108.60    2.19
  -2  -2  -4 1230.37    8.32
  -2  -2  -5    1.26    0.33
  -2  -2  -6   14.03    1.13
   2   2   6   12.66    1.12
   2   2   7  122.24    2.56
   2   2   7  121.02    3.70
  -2  -2  -7  129.11    3.76
   2   2   8    1.44    0.34
  -2  -2  -8    1.87    0.56
   2   2   9    0.04    0.24
   2   2  10   45.25    1.81
   2   2  11    8.88    0.71
   2   2  11    9.67    0.82
   2   2  12    0.36    0.22
   2   2  12   -0.05    0.15
  -2  -3  10    2.28    0.30
  -2  -3   9    1.37    0.30
  -2  -3   9    0.86    0.21
   2   3  -9    1.33    0.28
  -2  -3   8    3.73    0.47
   2   3  -8    3.60    0.46
   2   3  -7  193.79    3.27
  -2  -3   6    0.66    0.38
  -2  -3   5  333.76    6.34
  -2  -3   4  149.29    3.82
  -2  -3   4  153.26    3.38
  -2  -3   3   13.73    0.83
  -2  -3   3   14.10    0.97
  -2  -3   2  328.24    4.31
  -2  -3   1   19.71    0.51
  -2  -3   1   11.98    0.79
  -2  -3   0   33.58    1.29
  -2  -3   0   33.12    0.87
  -2  -3  -1 2957.75    9.46
  -2  -3  -2   32.80    1.11
  -2  -3  -2   31.75    0.68
  -2  -3  -3 1121.99    7.13
  -2  -3  -4   40.05    1.50
  -2  -3  -5   48.03    1.83
  -2  -3  -6   23.95    1.43
   2   3   7  235.01    5.09
  -2  -3  -7  244.12    5.07
  -2  -3  -8   28.11    1.89
   2   3   8   27.48    1.31
  -2  -3  -9    7.71    1.08
   2   3   9    7.24    0.74
   2   3  10    0.05    0.19
   2   3  10    0.14    0.25
   2   3  11   38.67    1.45
   2   3  11   40.94    1.67
   2   3  12    0.23    0.19
   2   3  12    0.86    0.35
   2   3  13    1.35    0.23
   2   3  13    1.48    0.21
   2   4  -9    4.11    0.40
  -2  -4   8   95.95    2.30
   2   4  -8   92.32    2.15
   2   4  -7    0.06    0.20
   2   4  -6   34.10    1.42
  -2  -4   5    1.81    0.58
  -2  -4   4   12.24    1.20
  -2  -4   4   14.02    1.19
  -2  -4   3  860.73    8.66
  -2  -4   2  131.76    3.22
  -2  -4   1  576.23    6.43
  -2  -4   0  413.92    3.75
  -2  -4   0  420.16    5.31
  -2  -4  -1   37.19    1.22
  -2  -4  -2  513.76    4.90
  -2  -4  -3  697.58    6.14
  -2  -4  -4  128.99    2.84
  -2  -4  -5  425.90    5.61
  -2  -4  -6  122.40    3.27
  -2  -4  -7  473.18    7.07
  -2  -4  -8    0.35    0.29
   2   4   8    1.11    0.33
   2   4   9    2.69    0.47
   2   4   9    3.31    0.43
  -2  -4  -9    2.84    0.66
   2   4  10    6.27    0.71
   2   4  10    5.97    0.59
   2   4  11   23.71    1.28
   2   4  11   22.17    1.08
   2   4  12    0.74    0.21
   2   4  12    0.51    0.28
   2   4  13   13.66    0.59
   2   4  13   14.40    0.70
   2   4  13   13.92    0.74
   2   5  -9    3.55    0.31
  -2  -5   8    9.94    0.67
   2   5  -8   10.72    0.67
   2   5  -7    8.58    0.70
   2   5  -6   41.96    1.61
   2   5  -5   42.22    1.61
  -2  -5   4   13.54    1.38
  -2  -5   4   14.66    1.35
  -2  -5   4   15.43    1.00
  -2  -5   3  256.07    5.40
  -2  -5   3  270.32    4.07
  -2  -5   2  205.66    4.65
  -2  -5   1  352.74    5.76
  -2  -5   0   18.21    1.29
  -2  -5   0   20.50    0.97
  -2  -5  -1  597.32    5.56
  -2  -5  -2   39.74    1.54
  -2  -5  -3   80.96    2.32
  -2  -5  -4    0.90    0.27
  -2  -5  -5   15.09    1.13
  -2  -5  -6   29.95    1.70
  -2  -5  -7  664.81    8.57
   2   5   7  646.40    6.23
  -2  -5  -8   68.79    2.97
   2   5   8   65.62    2.09
  -2  -5  -9  148.82    4.68
   2   5   9  149.15    3.22
   2   5  10   18.95    1.19
   2   5  11   25.54    1.31
   2   5  11   25.34    1.06
   2   5  12   19.67    1.03
   2   5  13    5.49    0.51
   2   5  13    5.00    0.41
   2   6  -8    5.48    0.39
   2   6  -7    0.35    0.18
   2   6  -6    7.07    0.63
   2   6  -5   59.15    1.88
   2   6  -4   13.21    0.90
  -2  -6   3   21.79    1.73
   2   6  -3   21.87    1.13
  -2  -6   3   23.55    1.30
  -2  -6   2    8.60    1.08
   2   6  -1   19.53    1.13
  -2  -6   1   18.92    1.55
  -2  -6   0    1.30    0.42
   2   6   0    1.14    0.34
  -2  -6  -1    4.02    0.52
  -2  -6  -2    2.62    0.44
  -2  -6  -3  173.61    3.74
  -2  -6  -4    2.07    0.46
  -2  -6  -5  307.23    5.49
   2   6   6    4.76    0.55
  -2  -6  -6    4.44    0.70
  -2  -6  -7   14.96    1.35
   2   6   7   15.40    1.00
  -2  -6  -8   58.51    2.84
   2   6   8   55.91    1.94
   2   6   9   83.19    2.40
   2   6  10    3.05    0.50
   2   6  11   20.27    1.13
   2   6  12    0.08    0.15
   2   6  13    9.04    0.64
   2   7  -7    0.26    0.12
   2   7  -6    1.79    0.29
   2   7  -5   25.19    1.11
   2   7  -4   44.89    1.57
   2   7  -3    3.06    0.43
  -2  -7   3    4.05    0.55
   2   7  -2   27.19    1.23
  -2  -7   2   29.56    1.51
   2   7  -1    9.57    0.72
  -2  -7   1   10.75    1.25
   2   7  -1   10.54    0.90
   2   7   0  147.79    3.41
   2   7   0  138.83    2.54
   2   7   1    3.10    0.55
   2   7   1    2.67    0.48
   2   7   2   30.12    1.54
   2   7   2   29.47    1.56
   2   7   3    0.29    0.21
  -2  -7  -3    0.35    0.21
   2   7   4    2.09    0.41
  -2  -7  -4    1.68    0.47
   2   7   5   19.75    1.17
  -2  -7  -5   20.04    1.51
   2   7   6    0.47    0.25
   2   7   6    0.00    0.23
  -2  -7  -6   -0.18    0.42
   2   7   7   16.23    1.08
  -2  -7  -7   16.93    1.52
   2   7   8   85.18    2.44
  -2  -7  -8   87.47    3.57
   2   7   9    7.53    0.75
   2   7  10    0.40    0.28
   2   7  11   14.23    0.92
   2   7  11   13.68    1.01
   2   7  12    3.48    0.50
   2   7  13    2.27    0.33
   2   8  -5    9.09    0.53
   2   8  -4    6.46    0.51
   2   8  -3   32.93    1.23
  -2  -8   2    2.90    0.46
   2   8  -2    3.10    0.41
   2   8  -1   75.93    1.91
   2   8  -1   78.22    2.43
   2   8   0   72.88    2.47
   2   8   1   11.43    1.02
   2   8   2   42.66    1.97
   2   8   2   39.29    1.92
   2   8   3   12.46    1.05
   2   8   3   17.04    1.27
   2   8   4   21.16    1.35
  -2  -8  -4   20.84    1.57
   2   8   5  101.43    2.83
  -2  -8  -5   91.00    3.40
   2   8   6   -0.16    0.26
  -2  -8  -6    0.05    0.27
   2   8   7   14.65    1.04
   2   8   7   13.35    1.01
   2   8   8   13.07    1.02
   2   8   8   12.04    0.95
   2   8   9   12.87    1.02
   2   8   9   11.43    0.91
   2   8  10   42.69    1.61
   2   8  10   44.24    1.82
   2   8  11   16.17    1.04
   2   8  11   15.08    0.87
   2   8  12    0.87    0.25
   2   8  13    0.41    0.14
   2   9  -3   11.65    0.55
   2   9  -1   27.65    1.28
  -2  -9   1   26.24    1.29
   2   9   0   43.26    1.77
   2   9   1   26.65    1.48
   2   9   2  131.54    3.42
   2   9   3   63.47    2.45
   2   9   3   60.32    2.41
   2   9   4  165.12    3.86
   2   9   4  172.61    4.06
   2   9   5   14.27    1.21
   2   9   5   14.17    1.11
   2   9   6   44.26    1.90
   2   9   7    3.72    0.54
   2   9   8    7.74    0.71
   2   9   8    8.37    0.79
   2   9   9    4.43    0.55
   2   9   9    4.80    0.56
   2   9  10    2.71    0.40
   2   9  10    2.94    0.44
   2   9  11    3.13    0.41
   2   9  12    0.65    0.20
   2  10   0    1.53    0.28
  -2 -10   0    1.96    0.34
   2  10   1   39.89    1.53
   2  10   2    0.22    0.20
   2  10   3   36.10    1.67
   2  10   4    3.69    0.58
   2  10   5    0.17    0.26
   2  10   5   -0.10    0.28
   2  10   6   45.73    1.98
   2  10   6   47.04    1.87
   2  10   7    8.63    0.86
   2  10   7    8.08    0.77
   2  10   8   45.30    1.85
   2  10   8   41.62    1.57
   2  10   9   11.74    0.77
   2  10   9   13.16    0.95
   2  10  10    7.75    0.68
   2  10  10    6.74    0.51
   2  10  11    3.71    0.40
   2  11   2    9.10    0.59
  -2 -11  -2    9.79    0.61
   2  11   3   15.86    0.85
   2  11   4    9.33    0.71
   2  11   5    7.74    0.67
   2  11   6    0.12    0.18
   2  11   7    0.34    0.21
   2  11   8    4.25    0.49
   2  11   9   -0.18    0.15
  -3   9   8   37.71    1.04
  -3   9   7    2.14    0.28
  -3   9   6   67.18    1.47
  -3   9   5   37.19    1.06
  -3   9   4   26.80    1.00
  -3   9   3    3.81    0.38
  -3   9   2   12.08    0.66
  -3   8  10   21.19    0.86
  -3   8   8    0.52    0.20
  -3   8   7   28.97    1.28
  -3   8   6    6.33    0.63
  -3   8   5   91.79    2.29
  -3   8   5   89.31    2.24
  -3   8   4   43.23    1.64
  -3   8   4   42.30    1.49
  -3   8   3    0.53    0.19
  -3   8   3    0.82    0.28
  -3   8   2   67.84    1.65
  -3   8   2   67.75    2.06
  -3   8   1    2.20    0.40
  -3   8   0   32.34    1.31
  -3   8  -1    8.63    0.63
  -3   8  -2   34.19    1.06
  -3   7  11   16.09    0.65
  -3   7  10    6.80    0.50
  -3   7   9    0.16    0.18
  -3   7   9    0.31    0.25
  -3   7   8    8.22    0.79
  -3   7   8    8.63    0.64
  -3   7   7   42.55    1.46
  -3   7   6    3.08    0.45
  -3   7   5  155.07    3.31
  -3   7   4   21.59    1.25
  -3   7   4   20.17    1.24
  -3   7   3   54.30    2.06
  -3   7   3   55.67    1.91
  -3   7   2   10.60    0.94
  -3   7   2   11.08    0.82
  -3   7   1   73.14    2.39
  -3   7   1   69.12    1.93
  -3   7   0    1.63    0.39
  -3   7  -1   32.00    1.50
  -3   7  -2    4.96    0.58
  -3   7  -3    0.70    0.25
  -3   7  -4   19.43    0.81
  -3   6  12   -0.03    0.11
  -3   6  11    0.33    0.16
  -3   6  11    0.51    0.19
  -3   6  10    8.11    0.61
  -3   6  10    8.43    0.74
  -3   6   9    0.95    0.31
  -3   6   9    0.66    0.24
  -3   6   8    5.25    0.68
  -3   6   8    5.38    0.57
  -3   6   7    0.31    0.29
  -3   6   7    0.14    0.21
  -3   6   6    9.92    0.92
  -3   6   6   10.36    0.80
  -3   6   5    8.75    0.87
  -3   6   5   10.03    0.78
  -3   6   4    8.48    0.81
  -3   6   4   10.57    0.79
  -3   6   3  118.06    3.06
  -3   6   3  117.14    2.91
  -3   6   2   32.57    1.64
  -3   6   2   33.18    1.51
  -3   6   1  801.61    8.13
  -3   6   1  804.50    7.17
  -3   6   0   13.62    1.08
  -3   6   0   14.97    0.95
  -3   6  -1   71.91    2.49
  -3   6  -1   76.52    2.03
  -3   6  -2   35.12    1.68
  -3   6  -3   13.17    0.99
   3  -6   4    0.55    0.20
  -3   6  -4    0.68    0.25
   3  -6   5    1.09    0.21
  -3   6  -5    0.62    0.21
  -3   5  12    0.37    0.18
  -3   5  11    3.35    0.44
  -3   5  11    3.74    0.43
  -3   5  10    6.59    0.69
  -3   5  10    6.42    0.61
  -3   5   9   12.94    1.02
  -3   5   9   15.12    0.94
  -3   5   8   21.16    1.12
  -3   5   8   18.21    1.25
  -3   5   7    4.57    0.64
  -3   5   7    5.83    0.51
  -3   5   7    4.03    0.51
  -3   5   6   50.05    1.99
  -3   5   6   52.96    1.71
  -3   5   6   50.83    2.44
   3  -5  -6   50.97    2.54
  -3   5   5    3.94    0.57
  -3   5   5    3.96    0.49
  -3   5   5    3.58    0.64
  -3   5   4    5.74    0.67
  -3   5   4    5.94    0.58
  -3   5   4    4.73    0.74
  -3   5   3   16.56    0.93
  -3   5   3   15.42    1.06
  -3   5   3   15.30    1.30
  -3   5   2   28.29    1.45
  -3   5   2   31.13    1.88
  -3   5   2   29.59    1.39
  -3   5   1   28.15    1.47
   3  -5  -1   29.36    1.90
  -3   5   1   28.09    1.33
  -3   5   0  129.22    3.19
  -3   5   0  129.25    2.78
   3  -5   1  229.10    5.88
  -3   5  -1  227.35    4.31
  -3   5  -1  220.88    3.60
  -3   5  -2    1.83    0.34
  -3   5  -2    1.69    0.42
  -3   5  -3   79.94    2.59
  -3   5  -4    8.24    0.84
   3  -5   5   12.74    0.84
  -3   5  -5   13.73    0.98
   3  -5   6    0.30    0.16
  -3   5  -6    0.46    0.20
  -3   4  12   18.36    0.83
  -3   4  11   87.65    2.03
  -3   4  10    7.66    0.74
  -3   4  10    7.37    0.67
  -3   4   9   17.21    1.18
  -3   4   9   19.61    1.09
  -3   4   9   18.89    1.01
  -3   4   8    5.89    0.69
  -3   4   8    7.52    0.66
  -3   4   8    7.41    0.65
  -3   4   8    6.80    0.63
  -3   4   7  125.29    2.62
  -3   4   7  119.87    3.05
  -3   4   7  121.42    2.40
  -3   4   7  123.69    2.43
  -3   4   6    1.83    0.36
  -3   4   6    1.35    0.35
  -3   4   6    1.36    0.27
   3  -4  -6    1.06    0.39
  -3   4   6    1.46    0.46
  -3   4   5   30.44    1.44
  -3   4   5   31.75    1.18
  -3   4   5   31.41    1.24
  -3   4   5   30.90    1.82
  -3   4   4   87.04    2.36
  -3   4   4   89.42    2.02
  -3   4   4   86.47    2.91
  -3   4   3    3.38    0.48
  -3   4   3    2.94    0.60
  -3   4   3    4.59    0.47
  -3   4   2   89.99    1.97
   3  -4  -2   93.46    2.72
  -3   4   1  397.27    5.05
   3  -4  -1  410.91    6.35
  -3   4   1  403.71    4.77
  -3   4   0    6.88    0.69
   3  -4   0    7.69    0.96
  -3   4   0    6.89    0.62
  -3   4  -1   25.27    1.36
  -3   4  -1   25.84    1.18
   3  -4   1   25.38    1.83
  -3   4  -2  242.75    4.33
  -3   4  -2  238.13    3.60
   3  -4   2  249.44    6.03
  -3   4  -3   35.21    1.39
   3  -4   3   36.52    2.42
  -3   4  -3   36.07    1.71
  -3   4  -4    4.12    0.60
  -3   4  -4    4.77    0.52
  -3   4  -5  118.71    3.11
  -3   4  -6    8.82    0.80
   3  -4   6    9.75    0.78
   3  -4   7    7.79    0.63
   3  -4   8    0.51    0.18
  -3   3  12    5.93    0.49
  -3   3  11   25.72    1.07
  -3   3  11   26.05    1.17
  -3   3  10  186.02    3.30
  -3   3  10  189.95    3.09
  -3   3   9    0.08    0.22
  -3   3   9    0.33    0.33
  -3   3   9    0.39    0.32
  -3   3   8  592.54    6.61
  -3   3   8  603.81    5.45
  -3   3   8  604.46    5.98
  -3   3   8  601.79    5.55
  -3   3   7   25.52    1.18
  -3   3   7   23.88    1.31
  -3   3   7   23.92    1.08
  -3   3   7   24.62    1.10
  -3   3   6   35.12    1.52
  -3   3   6   33.73    1.30
  -3   3   6   33.53    1.26
   3  -3  -6   32.35    1.69
  -3   3   6   34.37    1.20
  -3   3   5   40.92    2.01
  -3   3   5   39.55    1.32
  -3   3   4   67.57    2.44
  -3   3   3   26.06    1.49
   3  -3  -2  367.85    4.66
   3  -3  -1   28.93    1.49
   3  -3   0   76.38    2.67
   3  -3   1    0.09    0.22
  -3   3  -2  199.01    3.59
  -3   3  -2  194.93    3.04
   3  -3   2  199.68    5.00
  -3   3  -3   35.83    1.61
  -3   3  -3   33.44    1.29
   3  -3   3   35.81    2.27
  -3   3  -4   27.84    1.49
  -3   3  -4   25.98    1.18
   3  -3   4   27.03    2.07
  -3   3  -5   63.88    2.29
   3  -3   6    4.70    0.58
  -3   3  -6    4.85    0.65
   3  -3   7    9.49    0.80
   3  -3   8    0.67    0.25
   3  -3   9   23.88    0.95
  -3   2  12    0.19    0.16
  -3   2  11    0.32    0.22
  -3   2  11    1.21    0.30
  -3   2  10  153.30    2.77
  -3   2  10  148.99    3.00
  -3   2   9    3.19    0.48
  -3   2   9    4.31    0.55
  -3   2   8  188.32    3.05
  -3   2   8  193.19    3.17
  -3   2   7   47.61    1.63
  -3   2   7   47.58    1.54
  -3   2   7   49.98    1.57
  -3   2   6  104.35    2.23
  -3   2   6  105.56    2.12
  -3   2   6  105.88    2.22
   3  -2  -5   95.17    2.55
  -3   2   5   96.77    2.94
  -3   2   4   18.99    1.24
  -3   2   3  517.94    6.17
  -3   2   2  126.57    2.96
   3  -2  -2  120.16    2.24
   3  -2  -1   78.54    2.14
   3  -2   0  367.76    5.19
   3  -2   1   11.95    1.03
   3  -2   2  109.03    3.33
   3  -2   3   10.43    1.16
  -3   2  -4   28.65    1.17
   3  -2   4   29.09    2.01
  -3   2  -4   31.77    1.47
  -3   2  -5    1.09    0.35
   3  -2   5    1.08    0.50
  -3   2  -6    9.46    0.89
   3  -2   6    9.50    0.84
  -3   2  -7   19.14    1.23
   3  -2   7   19.83    1.21
   3  -2   8    0.48    0.27
   3  -2   9    0.26    0.23
   3  -2  10    1.85    0.30
  -3   2 -10    1.87    0.24
  -3   1  12    4.56    0.40
  -3   1  12    4.79    0.36
  -3   1  11    3.87    0.46
  -3   1  11    3.30    0.40
  -3   1  10   42.33    1.60
  -3   1  10   43.11    1.46
  -3   1   9    0.53    0.29
  -3   1   9    0.82    0.32
  -3   1   8   10.29    0.75
  -3   1   8   12.48    0.88
  -3   1   8   11.75    0.79
  -3   1   8   10.21    1.09
  -3   1   8    9.68    0.74
  -3   1   7   49.88    1.68
  -3   1   7   50.70    1.57
  -3   1   7   51.37    2.26
  -3   1   7   51.99    1.63
  -3   1   7   48.95    1.58
  -3   1   6   37.23    1.31
  -3   1   6   38.89    1.86
  -3   1   6   35.18    1.25
  -3   1   5   99.82    2.76
  -3   1   4   52.13    1.96
  -3   1   3   28.71    1.36
   3  -1  -2  246.97    2.63
  -3   1   2  240.08    3.79
   3  -1  -1  133.70    2.44
   3  -1   0  205.83    3.48
   3  -1   1  817.49    7.69
   3  -1   2   67.07    2.42
   3  -1   3 2128.72   14.73
   3  -1   4   12.15    1.20
  -3   1  -5    1.57    0.29
  -3   1  -5    1.92    0.38
   3  -1   5    1.72    0.53
   3  -1   6    0.70    0.25
  -3   1  -6    0.97    0.33
   3  -1   6    0.98    0.46
   3  -1   7    0.94    0.28
   3  -1   8   50.29    1.93
   3  -1   9   13.01    0.94
   3  -1  10    1.53    0.31
   3  -1  11    1.72    0.27
   3  -1  11    1.49    0.22
  -3   0  12    1.83    0.24
  -3   0  11    0.63    0.23
  -3   0  11    0.29    0.17
  -3   0  10    6.98    0.67
  -3   0  10    7.15    0.60
  -3   0   9    4.63    0.57
  -3   0   9    4.78    0.55
  -3   0   8   58.67    2.63
  -3   0   8   58.59    1.81
  -3   0   8   61.89    2.00
  -3   0   8   59.01    1.75
  -3   0   7    4.18    0.71
  -3   0   7    5.41    0.53
  -3   0   7    4.04    0.51
  -3   0   6  242.16    4.79
  -3   0   6  255.64    3.35
  -3   0   5   -0.03    0.22
  -3   0   4  153.06    3.25
  -3   0   3  630.84    6.10
  -3   0   3  642.37    6.10
   3   0  -2    7.01    0.39
  -3   0   2   13.34    0.82
  -3   0   1  264.06    3.54
   3   0  -1  266.92    3.05
   3   0   0   11.31    0.73
   3   0   1   18.52    1.04
   3   0   2  130.28    3.03
   3   0   3 1709.12   11.98
   3   0   4    1.19    0.43
   3   0   5  140.09    4.22
  -3   0  -6   31.15    1.43
   3   0   6   30.12    1.35
   3   0   7   75.84    2.31
   3   0   7   71.81    3.44
   3   0   8   91.87    2.62
   3   0   9   21.76    1.28
   3   0  10   59.64    1.96
   3   0  11    2.89    0.40
  -3  -1  11    6.40    0.50
  -3  -1  11    8.00    0.49
  -3  -1  10   18.34    0.99
  -3  -1  10   17.67    0.89
  -3  -1   9   83.13    2.12
  -3  -1   9   80.67    2.27
  -3  -1   8    0.17    0.20
  -3  -1   8    0.52    0.22
  -3  -1   7   26.02    1.79
  -3  -1   7   25.42    1.07
  -3  -1   7   24.15    1.20
  -3  -1   7   24.37    1.16
  -3  -1   6    1.75    0.49
  -3  -1   6    1.24    0.28
  -3  -1   6    2.50    0.36
  -3  -1   6    2.12    0.35
  -3  -1   5  373.15    5.89
  -3  -1   4  135.08    3.24
  -3  -1   3  198.44    3.57
  -3  -1   2  458.63    4.89
  -3  -1   2  476.27    5.46
  -3  -1   2  469.74    4.51
  -3  -1   1   17.49    0.88
  -3  -1   1   17.29    1.01
  -3  -1   0   50.23    1.36
  -3  -1   0   47.40    1.60
  -3  -1  -1   13.16    0.81
  -3  -1  -2   79.77    2.12
  -3  -1  -2   78.90    1.93
  -3  -1  -3   92.44    2.52
  -3  -1  -3   90.11    2.01
   3   1   4   25.41    1.54
  -3  -1  -4   24.69    0.99
  -3  -1  -4   23.99    1.43
   3   1   5  165.31    4.23
  -3  -1  -5  170.96    4.15
   3   1   6   56.49    2.74
   3   1   6   58.17    1.77
   3   1   7  363.75    4.81
   3   1   7  346.86    7.39
   3   1   8   53.28    1.99
   3   1   8   45.17    2.77
   3   1   9   77.18    2.42
   3   1  10    1.64    0.42
   3   1  11    1.43    0.34
   3   1  12   14.47    0.74
   3   1  12   12.58    0.59
  -3  -2  10    4.94    0.47
  -3  -2  10    5.95    0.49
  -3  -2   9   22.60    1.14
  -3  -2   9   21.49    1.06
   3   2  -8    0.47    0.21
  -3  -2   8    0.26    0.23
  -3  -2   7  137.54    4.37
  -3  -2   7  142.59    2.82
  -3  -2   7  138.05    2.89
  -3  -2   6   -0.25    0.37
  -3  -2   6   -0.12    0.18
  -3  -2   5   23.61    1.60
  -3  -2   4  644.58    7.53
  -3  -2   3  554.13    6.31
  -3  -2   3  522.71    6.02
  -3  -2   2  293.03    4.16
  -3  -2   2  291.09    4.31
  -3  -2   1   63.44    1.75
  -3  -2   1   65.44    1.99
  -3  -2   0  580.94    4.68
  -3  -2   0  584.65    3.59
  -3  -2  -1  173.09    2.26
  -3  -2  -1  170.79    2.57
  -3  -2  -2 1679.01    9.00
  -3  -2  -3   79.34    2.19
  -3  -2  -4  535.94    6.27
  -3  -2  -5   45.03    2.03
   3   2   6   22.53    1.66
  -3  -2  -6   25.70    1.71
  -3  -2  -7   11.96    1.29
   3   2   7   10.90    0.81
   3   2   7   12.92    1.37
   3   2   8   13.19    1.50
   3   2   8   13.53    0.98
   3   2   9   79.91    2.46
   3   2  10    0.75    0.35
   3   2  11   14.92    0.85
   3   2  11   17.34    1.07
   3   2  12    7.72    0.61
   3   2  12    6.55    0.48
  -3  -3  10    0.51    0.15
   3   3  -9    3.09    0.37
  -3  -3   9    2.15    0.31
   3   3  -8    8.22    0.66
  -3  -3   8    8.13    0.68
   3   3  -7   86.08    2.20
  -3  -3   6   78.49    3.34
  -3  -3   6   80.82    2.22
  -3  -3   5  295.73    6.07
  -3  -3   5  305.18    4.23
  -3  -3   4  316.52    5.77
  -3  -3   3   72.84    2.52
  -3  -3   3   67.87    2.24
  -3  -3   2   88.59    2.51
  -3  -3   2   84.14    2.43
  -3  -3   1   51.25    1.71
  -3  -3   0 1704.66    8.70
  -3  -3   0 1708.22    6.43
  -3  -3  -1 1026.67    5.86
  -3  -3  -1 1028.95    6.09
  -3  -3  -2  203.10    2.05
  -3  -3  -2  218.67    3.19
  -3  -3  -3  770.80    6.68
  -3  -3  -4  300.25    4.59
  -3  -3  -5  870.88    8.61
  -3  -3  -6    3.83    0.68
  -3  -3  -7    2.14    0.55
   3   3   7    2.55    0.62
   3   3   7    3.06    0.45
   3   3   8    2.23    0.42
  -3  -3  -8    2.62    0.63
   3   3   8    2.29    0.68
   3   3   9   23.25    1.33
  -3  -3  -9   20.60    1.87
   3   3  10   58.68    2.13
   3   3  11    1.88    0.43
   3   3  11    1.75    0.32
   3   3  12    9.66    0.59
   3   3  12   10.01    0.75
   3   3  13    3.77    0.36
   3   4  -9    2.92    0.33
  -3  -4   9    3.04    0.32
   3   4  -8    1.12    0.26
   3   4  -7   32.65    1.37
  -3  -4   6  194.36    3.46
  -3  -4   5    1.73    0.57
  -3  -4   5    1.32    0.32
  -3  -4   4  108.47    3.71
  -3  -4   4  108.80    2.62
  -3  -4   3   15.48    1.29
  -3  -4   2   51.87    2.14
  -3  -4   2   51.44    2.05
  -3  -4   1    3.83    0.53
  -3  -4   0 1125.53    7.99
  -3  -4  -1   75.23    1.79
  -3  -4  -1   80.44    1.78
  -3  -4  -2  369.70    3.22
  -3  -4  -2  372.71    4.29
  -3  -4  -3  359.93    4.63
  -3  -4  -4  131.58    3.07
  -3  -4  -5  261.27    4.75
  -3  -4  -6   64.85    2.59
   3   4   7   67.18    2.01
  -3  -4  -7   67.95    2.89
   3   4   8   39.31    2.45
  -3  -4  -8   37.99    2.33
   3   4   8   41.40    1.68
   3   4   9   32.57    1.55
  -3  -4  -9   34.13    2.40
   3   4  10   37.17    1.70
   3   4  11    0.91    0.36
   3   4  12    6.65    0.63
   3   4  13   13.83    0.69
   3   5  -8    5.10    0.46
   3   5  -7   57.14    1.73
   3   5  -6   38.88    1.55
  -3  -5   5   55.77    1.95
  -3  -5   4  106.36    3.97
  -3  -5   4  104.14    2.72
  -3  -5   3    5.39    0.84
  -3  -5   3    5.08    0.61
  -3  -5   2  167.18    4.24
  -3  -5   2  163.46    3.24
  -3  -5   1   86.73    2.74
  -3  -5   0   66.61    2.17
  -3  -5  -1   47.71    1.49
  -3  -5  -1   46.60    1.63
  -3  -5  -2  232.42    3.61
  -3  -5  -3  276.26    4.28
  -3  -5  -4   21.94    1.30
  -3  -5  -5  129.19    3.42
   3   5   6  143.09    2.85
  -3  -5  -6  140.25    3.89
  -3  -5  -7   61.78    2.77
   3   5   7   64.79    2.04
   3   5   8  200.49    3.73
  -3  -5  -8  208.70    5.48
   3   5   9   31.20    1.55
   3   5  10   23.41    1.35
   3   5  11   30.38    1.47
   3   5  12    6.95    0.64
   3   5  13    1.39    0.24
   3   6  -8    1.68    0.23
   3   6  -7    1.88    0.30
   3   6  -6   27.13    1.22
   3   6  -5   25.14    1.24
  -3  -6   4   57.23    2.06
  -3  -6   3   10.06    1.25
  -3  -6   3    9.22    0.86
  -3  -6   2  343.73    6.62
  -3  -6   2  334.17    5.07
  -3  -6   1   19.91    1.46
  -3  -6   0    7.83    0.68
  -3  -6   0    9.02    0.90
   3   6   0    9.76    0.86
  -3  -6  -1  131.77    2.67
  -3  -6  -1  138.75    3.12
  -3  -6  -2    0.18    0.13
  -3  -6  -3   62.63    2.18
  -3  -6  -4   23.20    1.42
  -3  -6  -5    2.18    0.50
   3   6   5    8.71    0.72
   3   6   6    0.21    0.20
  -3  -6  -6    0.41    0.30
   3   6   7   22.81    1.24
  -3  -6  -7   20.49    1.66
   3   6   8   19.10    1.19
  -3  -6  -8   16.43    1.56
   3   6   9    0.35    0.28
   3   6  10    1.19    0.39
   3   6  11   22.15    1.22
   3   6  12    3.30    0.44
   3   6  13    6.32    0.52
   3   6  13    5.31    0.43
   3   7  -7    6.67    0.42
   3   7  -6    1.05    0.24
   3   7  -5    7.01    0.61
   3   7  -4   38.08    1.46
  -3  -7   4   37.33    1.56
  -3  -7   3    0.64    0.25
   3   7  -3    0.93    0.28
  -3  -7   2   21.67    1.35
  -3  -7   1   12.12    1.24
   3   7   0   55.22    2.27
  -3  -7   0   53.40    2.36
   3   7   1   35.45    1.63
   3   7   1   35.06    1.73
  -3  -7  -2   55.80    1.86
   3   7   2   60.00    2.18
   3   7   3    2.45    0.48
  -3  -7  -3    2.77    0.42
  -3  -7  -3    3.20    0.55
  -3  -7  -4  154.82    2.90
  -3  -7  -4  150.74    3.83
   3   7   4  152.05    3.28
   3   7   5    2.19    0.47
  -3  -7  -5    1.18    0.37
  -3  -7  -6    9.48    1.10
   3   7   6    8.71    0.80
   3   7   7    9.73    0.85
  -3  -7  -7   10.06    1.22
   3   7   8    8.16    0.80
   3   7   9    7.41    0.76
   3   7  10    0.27    0.24
   3   7  11   19.84    1.11
   3   7  12    0.35    0.16
   3   7  13    0.69    0.20
   3   8  -5    0.75    0.19
   3   8  -4    9.41    0.63
   3   8  -3    0.11    0.19
  -3  -8   3    0.15    0.18
   3   8  -2    6.35    0.59
  -3  -8   2    5.89    0.69
   3   8  -1   11.80    0.78
  -3  -8   1   11.69    1.01
   3   8   0  106.73    2.27
   3   8   1   76.33    2.52
   3   8   1   73.99    2.73
   3   8   2  247.00    4.64
   3   8   2  258.36    4.93
   3   8   3   64.95    2.39
   3   8   4   38.15    1.79
  -3  -8  -5   16.12    1.41
   3   8   5   18.11    1.24
  -3  -8  -6   22.41    1.74
   3   8   6   24.91    1.41
   3   8   7    6.34    0.67
   3   8   7    6.34    0.74
   3   8   8  161.02    3.35
   3   8   8  147.39    3.35
   3   8   9    1.03    0.36
   3   8   9    1.48    0.43
   3   8  10   53.29    1.92
   3   8  10   52.67    1.86
   3   8  11    0.23    0.22
   3   8  11    0.44    0.27
   3   8  12    2.26    0.36
   3   8  12    1.74    0.30
   3   8  13    3.37    0.33
   3   9  -3    6.50    0.44
   3   9  -2   15.82    0.74
  -3  -9   2   14.80    0.91
  -3  -9   1    0.55    0.28
  -3  -9   0    6.29    0.72
   3   9   1   27.89    1.47
   3   9   2   14.48    1.13
   3   9   3   43.08    1.98
   3   9   3   44.31    2.07
   3   9   4  207.65    4.34
   3   9   4  203.90    4.32
   3   9   5   13.58    1.10
   3   9   6   12.26    1.02
   3   9   7   24.00    1.38
   3   9   8  105.04    2.80
   3   9   9    2.12    0.45
   3   9   9    2.55    0.43
   3   9  10   89.17    2.25
   3   9  10   92.34    2.30
   3   9  11    3.91    0.44
   3   9  11    4.16    0.47
   3   9  12    9.76    0.60
  -3 -10   1    2.10    0.31
  -3 -10   0    5.37    0.56
   3  10   1    1.05    0.25
  -3 -10  -1    1.00    0.30
   3  10   2   -0.02    0.18
   3  10   3   13.37    1.01
   3  10   4    7.34    0.79
   3  10   4    6.49    0.78
   3  10   5   43.29    1.90
   3  10   5   46.49    1.95
   3  10   6    0.17    0.24
   3  10   6    0.16    0.23
   3  10   7    0.34    0.28
   3  10   8   30.15    1.40
   3  10   9   14.54    0.91
   3  10  10   15.24    0.83
  -3 -11  -1    9.65    0.59
  -3 -11  -2   43.09    1.37
   3  11   3   23.51    1.01
  -3 -11  -3   25.22    1.11
   3  11   4    7.25    0.63
   3  11   5    1.02    0.28
   3  11   6   14.05    0.92
   3  11   7    3.17    0.44
   3  11   7    3.26    0.46
   3  11   8    0.33    0.20
   3  11   8   -0.06    0.17
   3  11   9    1.11    0.28
   3  11  10   13.66    0.72
  -4   8   8   20.75    0.83
  -4   8   7    5.71    0.48
  -4   8   6    1.72    0.29
  -4   8   5   44.75    1.34
  -4   8   4   13.38    0.72
  -4   8   3    2.62    0.31
  -4   8   2    9.95    0.61
  -4   8   2    9.12    0.50
  -4   8   1   12.65    0.66
  -4   7  10    6.71    0.47
  -4   7   9   13.48    0.78
  -4   7   8    4.35    0.49
  -4   7   7    6.93    0.66
  -4   7   6   18.79    1.10
  -4   7   5    6.59    0.66
  -4   7   4   30.63    1.37
  -4   7   3   43.74    1.59
  -4   7   3   40.98    1.52
  -4   7   2    3.85    0.51
  -4   7   2    4.12    0.47
  -4   7   1   35.56    1.27
  -4   7   1   34.91    1.44
  -4   7   0    4.95    0.43
  -4   7   0    4.96    0.55
  -4   7  -1   12.71    0.80
  -4   7  -2   17.63    0.84
  -4   6  11    7.43    0.44
  -4   6  10   19.33    0.82
  -4   6   9   21.13    0.95
  -4   6   8   11.73    0.78
  -4   6   7    0.27    0.28
  -4   6   6   75.16    2.02
  -4   6   5    1.39    0.37
  -4   6   4   20.32    1.26
  -4   6   3   30.62    1.48
  -4   6   2    2.78    0.46
  -4   6   2    2.81    0.48
  -4   6   1   26.28    1.40
  -4   6   1   27.29    1.30
  -4   6   0    8.93    0.82
  -4   6   0    9.04    0.72
  -4   6  -1    4.00    0.55
  -4   6  -1    4.12    0.46
  -4   6  -2    0.18    0.18
  -4   6  -3    5.40    0.43
  -4   6  -3    5.49    0.57
  -4   6  -4   17.14    0.85
  -4   5  11   -0.06    0.14
  -4   5  10    2.36    0.36
  -4   5   9    1.49    0.34
  -4   5   9    2.06    0.37
  -4   5   8    0.22    0.23
  -4   5   8    1.43    0.36
  -4   5   7    1.03    0.37
  -4   5   7    0.93    0.30
  -4   5   7    1.26    0.27
  -4   5   6    7.32    0.80
  -4   5   6    8.31    0.72
  -4   5   5   54.14    1.74
  -4   5   4   29.76    1.30
  -4   5   3   -0.40    0.37
  -4   5   2  376.30    5.18
  -4   5   2  387.70    5.23
  -4   5   1    2.31    0.43
  -4   5   1    0.75    0.33
  -4   5   0  418.27    5.73
  -4   5   0  421.87    5.24
  -4   5  -1    4.68    0.63
  -4   5  -1    5.89    0.63
  -4   5  -2   11.30    0.96
  -4   5  -2   12.27    0.84
  -4   5  -3    1.73    0.31
  -4   5  -3    1.88    0.42
  -4   5  -4    2.25    0.43
  -4   5  -5   11.53    0.67
  -4   5  -5   12.84    0.83
  -4   5  -6    0.63    0.15
  -4   4  12   15.45    0.63
  -4   4  11   12.00    0.70
  -4   4  10   28.49    1.20
  -4   4   9    2.31    0.44
  -4   4   9    2.40    0.39
  -4   4   8   18.74    1.19
  -4   4   8   20.73    0.99
  -4   4   8   21.09    1.12
  -4   4   7    2.53    0.48
  -4   4   7    3.23    0.42
  -4   4   7    2.93    0.43
  -4   4   6   46.31    1.91
  -4   4   6   47.11    1.53
  -4   4   6   48.46    1.65
  -4   4   5    4.34    0.60
  -4   4   5    3.55    0.46
  -4   4   5    2.93    0.64
  -4   4   5    3.04    0.39
  -4   4   4  198.41    3.19
  -4   4   4  205.49    5.00
  -4   4   3   11.46    0.78
  -4   4   3   10.35    1.12
  -4   4   2    0.28    0.22
  -4   4   2    0.27    0.28
  -4   4   1   93.14    2.50
  -4   4   1   95.55    2.48
   4  -4   0   83.01    3.27
  -4   4   0   77.12    2.36
  -4   4   0   78.99    2.23
  -4   4  -1  172.89    3.27
  -4   4  -1  176.36    3.67
   4  -4   1  175.49    5.06
  -4   4  -2  163.31    3.66
  -4   4  -2  172.99    3.22
  -4   4  -3    2.60    0.48
  -4   4  -3    2.09    0.38
  -4   4  -4   19.38    1.29
   4  -4   5   17.51    0.97
  -4   4  -5   19.08    1.20
   4  -4   6   -0.03    0.14
  -4   4  -7    5.68    0.44
  -4   3  12    3.28    0.32
  -4   3  11    1.27    0.31
  -4   3  10    7.91    0.67
  -4   3  10    7.47    0.68
  -4   3   9    6.04    0.62
  -4   3   9    6.81    0.64
  -4   3   8   46.32    1.80
  -4   3   8   48.38    1.58
  -4   3   8   48.45    1.71
  -4   3   8   47.89    1.59
  -4   3   7    8.45    0.79
  -4   3   7    9.91    0.74
  -4   3   7    8.98    0.73
  -4   3   7    9.97    0.72
  -4   3   6   47.03    1.82
  -4   3   6   45.37    1.56
  -4   3   6   49.13    1.63
  -4   3   6   48.44    1.49
  -4   3   5   74.21    2.24
  -4   3   5   71.56    1.93
  -4   3   5   76.07    1.97
  -4   3   5   77.88    3.08
  -4   3   5   73.69    1.75
  -4   3   4   14.35    0.97
  -4   3   4   13.58    0.81
  -4   3   4   13.56    0.84
  -4   3   4   14.34    1.28
  -4   3   4   14.29    0.73
  -4   3   3  123.96    2.35
  -4   3   3  125.32    2.48
  -4   3   3  124.97    3.70
  -4   3   2  290.26    3.56
  -4   3   2  293.49    4.15
   4  -3  -1  147.02    3.63
  -4   3   1  142.90    2.87
   4  -3   0  170.75    4.38
  -4   3   0  166.68    3.08
  -4   3  -1   17.05    1.08
   4  -3   1   20.23    1.63
  -4   3  -1   18.53    1.03
  -4   3  -2  125.19    3.02
  -4   3  -2  124.38    2.67
   4  -3   2  124.95    4.30
  -4   3  -3   19.97    1.26
  -4   3  -3   18.51    1.05
   4  -3   3   19.68    1.81
  -4   3  -4   62.43    2.29
  -4   3  -4   58.96    1.88
   4  -3   5  101.71    2.53
  -4   3  -5  104.68    2.93
  -4   3  -6   10.11    0.89
   4  -3   6    9.16    0.74
   4  -3   7    0.04    0.16
  -4   3  -8    5.81    0.46
   4  -3   8    5.02    0.43
  -4   2  12    1.77    0.25
  -4   2  11    7.10    0.53
  -4   2  11    6.68    0.56
  -4   2  10   32.73    1.26
  -4   2  10   34.11    1.35
  -4   2   9  123.50    2.49
  -4   2   9  117.03    2.51
  -4   2   9  118.10    2.63
  -4   2   8   38.63    1.44
  -4   2   8   39.13    1.46
  -4   2   8   39.93    1.56
  -4   2   7  202.07    3.30
  -4   2   7  201.98    3.20
  -4   2   7  204.32    3.37
  -4   2   6    8.72    0.74
  -4   2   6    8.72    0.69
  -4   2   6   10.32    0.71
  -4   2   6    8.90    0.69
  -4   2   5    4.92    0.55
  -4   2   5    4.89    0.51
  -4   2   5    4.33    0.73
  -4   2   5    5.18    0.50
  -4   2   5    4.98    0.47
  -4   2   4   88.40    3.01
  -4   2   3   31.92    1.76
  -4   2   2   99.19    3.08
   4  -2  -1  748.61    7.50
   4  -2   0    8.16    0.88
  -4   2  -1   80.33    1.97
   4  -2   1   82.31    3.01
  -4   2  -2    0.03    0.15
   4  -2   2    0.23    0.36
  -4   2  -3    1.97    0.37
  -4   2  -3    1.45    0.36
   4  -2   3    1.11    0.45
   4  -2   4   22.61    1.16
   4  -2   4   20.05    1.82
  -4   2  -4   21.65    1.29
  -4   2  -4   20.61    1.08
   4  -2   5  114.72    2.72
  -4   2  -5  110.87    3.03
  -4   2  -6  123.11    3.16
   4  -2   6  116.92    2.83
   4  -2   7   33.16    1.46
   4  -2   8    1.51    0.34
   4  -2   9    2.35    0.32
  -4   2  -9    2.78    0.32
  -4   1  11    0.19    0.17
  -4   1  11    0.06    0.13
  -4   1  10   34.09    1.35
  -4   1  10   35.36    1.30
  -4   1   9   49.26    1.71
  -4   1   9   51.89    1.69
  -4   1   8  155.81    2.86
  -4   1   8  152.79    3.03
  -4   1   8  150.46    2.90
  -4   1   7    0.13    0.23
  -4   1   7    0.33    0.20
  -4   1   7    0.12    0.19
  -4   1   7    0.32    0.26
  -4   1   6  132.49    2.55
  -4   1   6  131.84    2.67
  -4   1   6  136.10    2.69
  -4   1   6  128.75    2.49
  -4   1   5   16.00    0.83
  -4   1   5   16.97    0.94
  -4   1   5   16.70    0.91
  -4   1   5   14.46    0.79
  -4   1   4   32.14    1.76
  -4   1   3  444.46    6.19
  -4   1   2  182.38    3.87
   4  -1  -1    0.25    0.18
   4  -1   0   54.28    2.06
   4  -1   1   81.64    2.79
   4  -1   2   48.72    2.32
   4  -1   3   12.41    1.29
  -4   1  -3   12.39    0.76
   4  -1   4   10.57    0.74
  -4   1  -4   10.19    0.86
  -4   1  -4   11.44    0.77
   4  -1   4    8.47    1.14
   4  -1   5    1.08    0.31
  -4   1  -5    1.80    0.40
  -4   1  -5    0.94    0.23
   4  -1   5    1.68    0.61
  -4   1  -6   53.30    2.07
   4  -1   6   56.04    1.95
   4  -1   7    4.27    0.57
   4  -1   8   49.69    1.82
   4  -1   9    8.76    0.70
  -4   1 -10    3.95    0.34
   4  -1  10    4.30    0.43
  -4   0  11    0.65    0.20
  -4   0  11    0.26    0.14
  -4   0  10    1.34    0.30
  -4   0  10    1.56    0.35
  -4   0   9    3.70    0.47
  -4   0   9    4.17    0.53
  -4   0   8   86.41    2.25
  -4   0   8   84.77    2.07
  -4   0   8   86.70    2.21
  -4   0   8   84.38    2.22
  -4   0   7    5.84    0.89
  -4   0   7    4.73    0.52
  -4   0   7    4.94    0.54
  -4   0   7    5.81    0.57
  -4   0   7    4.94    0.57
  -4   0   6   51.47    2.43
  -4   0   6   52.95    1.61
  -4   0   6   54.08    1.70
  -4   0   6   53.54    1.74
  -4   0   5   16.43    1.29
  -4   0   5   18.18    0.97
  -4   0   5   17.57    0.97
  -4   0   4   20.26    1.34
  -4   0   3   98.03    2.76
  -4   0   2    9.24    0.81
  -4   0   1  616.80    6.50
   4   0  -1  658.27    5.79
   4   0   0    1.14    0.29
   4   0   1   35.97    1.69
   4   0   2  407.61    6.19
   4   0   3  352.81    6.29
   4   0   4  140.55    4.35
  -4   0  -4  134.21    2.46
   4   0   5   45.97    1.60
  -4   0  -5   48.51    1.80
   4   0   5   44.84    2.65
   4   0   6   11.28    0.86
   4   0   6   10.61    1.37
   4   0   7    3.50    0.52
   4   0   8   27.19    1.42
   4   0   9   30.96    1.44
  -4   0 -10   27.19    0.98
   4   0  10   26.55    1.19
   4   0  11    0.76    0.22
  -4  -1  11    0.69    0.18
  -4  -1  10    1.07    0.28
  -4  -1  10    0.56    0.19
  -4  -1   9  114.83    2.46
  -4  -1   9  114.88    2.29
  -4  -1   9  116.86    2.52
  -4  -1   8  111.66    2.57
  -4  -1   8  111.06    2.49
  -4  -1   8  111.97    2.48
  -4  -1   7   24.89    1.83
  -4  -1   7   28.66    1.25
  -4  -1   7   27.66    1.31
  -4  -1   7   28.25    1.19
  -4  -1   6   43.14    2.31
  -4  -1   6   39.06    1.40
  -4  -1   6   38.68    1.53
  -4  -1   5   19.37    1.46
  -4  -1   5   18.70    0.96
  -4  -1   5   20.10    1.07
  -4  -1   4  230.44    4.61
  -4  -1   3  126.43    3.15
  -4  -1   2  214.94    3.82
  -4  -1   2  196.71    3.46
  -4  -1   1    1.11    0.33
  -4  -1   1    1.06    0.28
  -4  -1   0  847.42    8.08
  -4  -1   0  827.57    6.58
  -4  -1  -1  630.19    6.83
  -4  -1  -2   71.14    2.24
  -4  -1  -3  335.19    4.64
   4   1   3  319.21    5.70
   4   1   4  154.19    4.26
   4   1   5  121.20    4.08
   4   1   6   71.81    2.08
   4   1   6   70.27    3.39
   4   1   7    1.72    0.44
   4   1   7    1.86    0.74
   4   1   8  245.21    4.27
   4   1   9  105.69    2.78
  -4  -1  -9  101.09    2.24
   4   1  10   33.39    1.46
   4   1  11    6.86    0.59
   4   1  11    6.17    0.46
  -4  -2  10    0.21    0.16
  -4  -2   9   63.65    1.79
  -4  -2   8   41.47    1.48
  -4  -2   7    2.06    0.37
  -4  -2   7    1.03    0.25
  -4  -2   6    2.51    0.65
  -4  -2   6    2.49    0.36
  -4  -2   6    2.37    0.44
  -4  -2   5    0.15    0.16
  -4  -2   5    0.52    0.31
  -4  -2   5    0.69    0.24
  -4  -2   4  135.75    3.74
  -4  -2   3   54.51    2.19
  -4  -2   2  887.97    7.97
  -4  -2   2  849.74    8.71
  -4  -2   1   38.84    1.55
  -4  -2   1   38.82    1.81
  -4  -2   1   38.83    1.28
  -4  -2   0  438.64    4.74
  -4  -2   0  443.94    5.97
  -4  -2   0  430.73    4.00
  -4  -2  -1 1063.97    9.03
  -4  -2  -1 1054.80    6.33
  -4  -2  -2  147.00    3.34
  -4  -2  -3   72.24    2.47
  -4  -2  -3   73.54    2.33
  -4  -2  -4    1.91    0.46
  -4  -2  -4    2.55    0.45
  -4  -2  -5    3.87    0.69
   4   2   5    1.44    0.48
   4   2   6  149.53    2.91
   4   2   6  142.80    4.63
   4   2   7    5.06    0.62
   4   2   7    3.03    0.72
  -4  -2  -8  248.06    3.44
   4   2   8  252.54    4.27
   4   2   9   12.22    1.00
   4   2  10   28.04    1.44
   4   2  11   28.18    1.27
   4   2  11   26.24    0.98
   4   2  12    1.10    0.25
  -4  -3  10    0.55    0.16
  -4  -3   9    0.01    0.18
   4   3  -8    1.15    0.26
  -4  -3   8    3.01    0.39
  -4  -3   7    3.42    0.47
  -4  -3   6    5.54    0.64
  -4  -3   5  117.60    4.03
  -4  -3   5  117.97    2.82
  -4  -3   4    4.11    0.73
  -4  -3   4    3.17    0.46
  -4  -3   3  310.34    5.55
  -4  -3   3  299.73    5.43
  -4  -3   2   94.31    2.80
  -4  -3   2   88.56    2.88
  -4  -3   1    6.83    0.71
  -4  -3   1    6.38    0.78
  -4  -3   0  519.93    5.29
  -4  -3  -1  434.73    4.34
  -4  -3  -1  446.96    4.80
  -4  -3  -2   55.87    1.91
  -4  -3  -3  189.82    3.84
  -4  -3  -4  318.76    5.44
  -4  -3  -5    7.97    0.96
   4   3   6  305.46    4.10
  -4  -3  -6  303.13    6.35
   4   3   7    1.26    0.31
   4   3   7    1.37    0.57
  -4  -3  -7    1.31    0.49
   4   3   8   19.25    1.19
   4   3   8   16.44    1.73
  -4  -3  -8   20.43    1.88
   4   3   9   16.12    1.14
   4   3  10    1.88    0.44
   4   3  11   17.59    1.08
   4   3  12    8.36    0.65
   4   4  -9   17.80    0.71
  -4  -4   9   19.86    0.82
   4   4  -8    1.78    0.30
   4   4  -7   11.06    0.79
  -4  -4   7   11.27    0.80
  -4  -4   6  108.15    2.73
  -4  -4   5   58.27    3.00
  -4  -4   5   59.10    2.08
  -4  -4   4    0.92    0.41
  -4  -4   4    0.50    0.24
  -4  -4   3    0.42    0.22
  -4  -4   3    0.42    0.28
  -4  -4   2   85.86    2.86
  -4  -4   2   86.03    3.01
  -4  -4   1    2.82    0.51
  -4  -4   1    2.87    0.61
  -4  -4   0  386.15    4.98
  -4  -4  -1  813.93    6.28
  -4  -4  -1  829.33    6.40
  -4  -4  -2 1398.44    9.37
  -4  -4  -3    4.75    0.63
  -4  -4  -4   80.50    2.70
  -4  -4  -5    0.85    0.33
   4   4   6  158.03    3.02
  -4  -4  -6  154.38    4.39
   4   4   7   39.90    1.62
  -4  -4  -7   38.39    2.39
   4   4   8   50.39    1.92
  -4  -4  -8   56.16    3.09
   4   4   8   49.31    2.92
   4   4   9   81.43    2.53
   4   4  10   17.88    1.21
   4   4  11    9.40    0.84
   4   4  12   15.97    0.90
   4   5  -8    0.23    0.16
   4   5  -7    9.63    0.71
  -4  -5   6  121.88    2.78
  -4  -5   5   57.57    2.06
  -4  -5   4   73.84    3.32
  -4  -5   4   75.44    2.41
  -4  -5   3   45.73    2.45
  -4  -5   3   43.05    1.82
  -4  -5   2    4.11    0.71
  -4  -5   2    3.08    0.44
  -4  -5   2    2.94    0.60
  -4  -5   2    4.57    0.59
  -4  -5   1    7.70    0.86
  -4  -5   1    7.84    0.65
  -4  -5   1    8.10    0.74
  -4  -5   0   18.34    1.20
  -4  -5  -1 1305.23    8.84
  -4  -5  -2   44.47    1.69
  -4  -5  -3  121.36    3.07
  -4  -5  -4    7.81    0.86
   4   5   5   21.62    1.12
  -4  -5  -5   19.26    1.45
  -4  -5  -6  100.49    3.57
   4   5   6  107.42    2.58
  -4  -5  -7  101.26    3.82
   4   5   7  110.25    2.74
   4   5   8   20.59    1.25
  -4  -5  -8   17.36    1.70
   4   5   9   31.44    1.57
   4   5  10   26.41    1.47
   4   5  11    1.64    0.43
   4   5  12    7.12    0.62
   4   5  13    9.46    0.55
   4   6  -7    7.29    0.55
   4   6  -6   55.99    1.71
   4   6  -5    2.22    0.45
  -4  -6   5    1.62    0.39
  -4  -6   4  195.06    3.93
  -4  -6   3   21.33    1.34
  -4  -6   2   93.41    3.46
  -4  -6   2   96.27    2.83
  -4  -6   1   18.92    1.12
  -4  -6   1   18.82    1.44
  -4  -6   1   19.40    1.65
  -4  -6   1   20.72    1.28
  -4  -6   0   14.24    0.93
  -4  -6   0   14.74    1.17
   4   6   0   14.68    1.05
  -4  -6  -1   54.00    1.74
   4   6   1   52.93    1.93
  -4  -6  -2   28.47    1.22
   4   6   2   30.17    1.41
  -4  -6  -3  272.20    3.71
  -4  -6  -3  273.72    4.75
   4   6   3  280.99    4.20
  -4  -6  -4   56.32    1.66
  -4  -6  -4   59.01    2.39
   4   6   4   58.28    1.90
  -4  -6  -5  127.30    2.45
  -4  -6  -5  123.92    3.72
   4   6   5  129.35    2.86
   4   6   6    0.57    0.28
  -4  -6  -6    0.51    0.30
   4   6   7    0.87    0.29
  -4  -6  -7    1.10    0.49
   4   6   8    6.64    0.73
  -4  -6  -8    5.69    0.97
   4   6   9   19.77    1.27
   4   6  10    0.11    0.26
   4   6  11    0.30    0.29
   4   6  12   25.17    1.12
   4   6  13    0.65    0.17
   4   7  -6    4.30    0.42
   4   7  -5   41.08    1.41
  -4  -7   5   38.73    1.42
   4   7  -4   32.44    1.38
  -4  -7   4   30.23    1.47
  -4  -7   3  110.14    3.05
  -4  -7   2   33.92    1.74
  -4  -7   1  127.96    3.35
   4   7   0  284.35    5.10
  -4  -7  -1   19.72    1.17
   4   7   1   20.99    1.36
  -4  -7  -2   65.09    2.04
   4   7   2   69.77    2.36
  -4  -7  -3   15.02    0.96
   4   7   3   16.14    1.13
  -4  -7  -4  177.13    3.17
  -4  -7  -4  182.90    4.34
   4   7   4  183.51    3.69
   4   7   5   30.38    1.50
  -4  -7  -5   30.85    1.28
  -4  -7  -5   31.69    1.94
  -4  -7  -6   12.93    1.34
   4   7   6   11.60    0.94
  -4  -7  -7    6.53    1.02
   4   7   7    5.91    0.69
   4   7   8    6.56    0.74
   4   7   9    0.31    0.28
   4   7  10    6.07    0.69
   4   7  11    3.95    0.53
   4   7  12   33.51    1.25
   4   7  13    0.64    0.17
   4   8  -5   21.14    0.81
   4   8  -4   -0.04    0.14
  -4  -8   4   -0.10    0.15
   4   8  -3    7.25    0.61
  -4  -8   3    6.87    0.69
   4   8  -2    7.60    0.66
  -4  -8   2    8.17    0.85
  -4  -8   1    7.34    0.82
  -4  -8   0   41.15    1.91
   4   8   1   29.73    1.73
   4   8   2  212.69    4.44
   4   8   3    1.76    0.46
  -4  -8  -3    1.44    0.38
   4   8   4    0.20    0.35
  -4  -8  -4    0.75    0.25
  -4  -8  -5  485.06    5.38
   4   8   5  491.49    6.35
   4   8   6   11.67    1.02
   4   8   7  116.91    3.02
   4   8   8   26.10    1.45
   4   8   9   10.01    0.88
   4   8  10   11.12    0.88
   4   8  11    3.63    0.49
   4   8  12   31.03    1.15
   4   8  12   29.24    1.08
   4   9  -3   10.66    0.56
  -4  -9   3    9.32    0.62
   4   9  -2    0.84    0.20
  -4  -9   2    0.44    0.22
   4   9  -1    7.04    0.53
  -4  -9   1    7.25    0.74
  -4  -9   0   22.01    1.33
  -4  -9  -1    0.27    0.27
   4   9   2    0.08    0.31
   4   9   3   33.30    1.67
   4   9   3   31.97    1.79
   4   9   4    5.76    0.74
   4   9   4    5.38    0.77
   4   9   5    3.35    0.55
   4   9   6   54.91    2.15
   4   9   7   20.53    1.31
   4   9   8  107.89    2.83
   4   9   9   71.75    1.96
   4   9   9   71.41    2.21
   4   9  10   41.25    1.44
   4   9  10   41.63    1.57
   4   9  11   38.49    1.27
   4   9  11   41.32    1.37
  -4 -10   1    6.05    0.54
  -4 -10   0    0.08    0.18
  -4 -10  -1   14.12    0.98
  -4 -10  -2    0.26    0.25
   4  10   3    2.67    0.44
   4  10   4    1.28    0.47
   4  10   4    0.71    0.25
   4  10   5   25.16    1.39
   4  10   5   26.44    1.50
   4  10   6    0.47    0.33
   4  10   6    0.43    0.30
   4  10   7    0.67    0.31
   4  10   8   43.96    1.69
   4  10   9    0.00    0.27
   4  10  10    6.34    0.55
  -4 -11  -1    0.06    0.13
  -4 -11  -2    1.45    0.29
  -4 -11  -3   14.90    0.86
   4  11   4    0.66    0.21
  -4 -11  -4    1.10    0.30
   4  11   5   31.40    1.27
   4  11   6    9.01    0.71
   4  11   6   10.97    0.82
   4  11   7   -0.09    0.19
   4  11   7    0.00    0.14
   4  11   8    1.11    0.28
   4  11   8    1.26    0.29
   4  11   9    6.78    0.56
   4  11   9    6.85    0.54
  -5   7   8    9.13    0.53
  -5   7   7    5.45    0.47
  -5   7   6    8.94    0.62
  -5   7   5   46.90    1.43
  -5   7   4   43.06    1.36
  -5   7   3    2.24    0.32
  -5   7   2    0.69    0.18
  -5   7   1    0.57    0.16
  -5   6   9    2.79    0.32
  -5   6   8   12.47    0.77
  -5   6   7   15.49    0.93
  -5   6   6    8.44    0.73
  -5   6   5    1.94    0.39
  -5   6   4   15.60    0.99
  -5   6   3    1.14    0.34
  -5   6   2   21.32    1.10
  -5   6   1    1.11    0.26
  -5   6   0    5.68    0.56
  -5   6   0    6.07    0.54
  -5   6  -1   32.74    1.25
  -5   6  -1   31.34    1.08
  -5   6  -2    0.53    0.18
  -5   5  10    4.59    0.39
  -5   5   9    1.85    0.32
  -5   5   9    2.66    0.36
  -5   5   8    0.06    0.20
  -5   5   8    0.18    0.23
  -5   5   7    5.76    0.57
  -5   5   7    4.90    0.58
  -5   5   6    1.63    0.42
  -5   5   6    0.63    0.27
  -5   5   5   44.94    1.58
  -5   5   5   42.31    1.77
  -5   5   4    2.58    0.47
  -5   5   3   10.55    0.88
  -5   5   2    9.42    0.83
  -5   5   1   11.07    0.86
  -5   5   0   12.00    0.90
  -5   5   0   10.92    0.84
  -5   5  -1   12.33    0.91
  -5   5  -1   10.08    0.76
  -5   5  -2    0.33    0.17
  -5   5  -2    0.09    0.15
  -5   5  -2    0.34    0.22
  -5   5  -3    3.73    0.40
  -5   5  -3    3.55    0.45
  -5   5  -4    5.25    0.41
  -5   4  11   18.37    0.69
  -5   4  10    1.90    0.29
  -5   4   9    8.29    0.63
  -5   4   8   32.56    1.30
  -5   4   8   31.58    1.14
  -5   4   7   20.43    1.09
  -5   4   7   19.26    0.94
  -5   4   6   20.76    1.10
  -5   4   6   19.95    0.98
  -5   4   5   26.40    1.23
  -5   4   5   26.56    1.15
  -5   4   5   24.63    1.36
  -5   4   4   25.27    1.20
  -5   4   4   25.14    1.37
  -5   4   3    8.47    0.81
  -5   4   2   56.44    2.01
  -5   4   1  328.42    4.78
  -5   4   0   20.10    1.19
  -5   4   0   20.05    1.18
  -5   4  -1    0.05    0.25
  -5   4  -1    0.46    0.25
  -5   4  -1    0.16    0.17
  -5   4  -2   14.36    0.90
  -5   4  -2   14.46    1.05
  -5   4  -2   13.87    0.94
  -5   4  -3   61.02    1.82
  -5   4  -3   60.81    2.10
  -5   4  -3   55.34    1.76
  -5   4  -4    0.28    0.20
  -5   4  -4    0.64    0.27
  -5   4  -5    3.49    0.42
  -5   4  -6    4.69    0.39
  -5   3  11    0.52    0.16
  -5   3  10    0.13    0.18
  -5   3   9   14.01    0.84
  -5   3   8   14.60    0.84
  -5   3   8   13.64    0.87
  -5   3   8   15.61    0.87
  -5   3   7    4.78    0.52
  -5   3   7    5.59    0.58
  -5   3   7    5.84    0.56
  -5   3   6   14.75    0.92
  -5   3   6   14.35    0.90
  -5   3   5    9.33    0.74
  -5   3   5    8.07    0.68
  -5   3   4   11.85    0.81
  -5   3   4   11.23    0.81
  -5   3   4    9.96    1.19
  -5   3   4   11.19    0.89
  -5   3   3   70.58    1.91
  -5   3   3   66.99    1.95
  -5   3   3   70.96    2.21
  -5   3   2   78.75    2.10
  -5   3   2   77.92    3.26
  -5   3   2   81.92    2.32
  -5   3   1    7.38    1.03
  -5   3   1    7.84    0.74
  -5   3   0  351.95    4.43
  -5   3   0  353.91    4.77
  -5   3  -1    7.85    0.69
  -5   3  -1    7.75    0.74
  -5   3  -1    9.08    0.79
   5  -3   1    7.61    1.08
  -5   3  -2  299.55    4.29
  -5   3  -2  304.74    4.78
  -5   3  -2  301.47    4.39
  -5   3  -3    4.43    0.64
  -5   3  -3    3.84    0.52
  -5   3  -4   59.39    2.14
  -5   3  -4   58.59    1.87
  -5   3  -5    1.87    0.39
  -5   3  -5    1.66    0.42
  -5   3  -6    2.24    0.37
  -5   3  -7    0.84    0.20
  -5   2  11    0.47    0.14
  -5   2  10   44.69    1.38
  -5   2  10   47.34    1.35
  -5   2   9    1.44    0.33
  -5   2   9    1.53    0.34
  -5   2   9    1.21    0.31
  -5   2   8    1.33    0.30
  -5   2   8    1.12    0.30
  -5   2   8    1.17    0.31
  -5   2   7   36.89    1.46
  -5   2   7   39.62    1.50
  -5   2   7   38.63    1.39
  -5   2   6    0.81    0.26
  -5   2   6    0.67    0.21
  -5   2   6    0.99    0.26
  -5   2   5   56.44    1.70
  -5   2   5   57.23    1.84
  -5   2   5   54.87    2.73
  -5   2   5   55.73    1.54
  -5   2   4    3.84    0.44
  -5   2   4    3.52    0.49
  -5   2   4    3.51    0.68
  -5   2   3   32.20    1.22
  -5   2   3   29.53    1.92
  -5   2   3   32.13    1.38
  -5   2   3   33.04    1.40
  -5   2   2   12.62    0.77
  -5   2   2   11.03    1.19
  -5   2   2   12.45    0.87
  -5   2   2   10.90    0.81
  -5   2   1  428.96    7.28
  -5   2   1  434.22    5.04
  -5   2   0    7.76    0.66
  -5   2   0    8.57    0.73
  -5   2   0    8.81    0.74
  -5   2  -1   25.33    1.21
  -5   2  -1   24.68    1.22
   5  -2   1   24.51    1.81
  -5   2  -2    2.17    0.41
  -5   2  -2    2.54    0.45
  -5   2  -2    2.34    0.39
   5  -2   2    1.74    0.57
  -5   2  -3    9.39    0.87
  -5   2  -3   10.35    0.82
   5  -2   3    8.59    1.21
  -5   2  -4  176.47    3.72
  -5   2  -4  170.50    3.29
  -5   2  -5   13.16    1.04
   5  -2   6  121.38    2.55
  -5   2  -7    1.85    0.36
   5  -2   7    1.87    0.32
  -5   2  -8    2.10    0.32
   5  -2   8    2.80    0.34
  -5   1  11    2.27    0.26
  -5   1  11    3.18    0.33
  -5   1  10   32.56    1.15
  -5   1  10   35.34    1.18
  -5   1   9    8.88    0.67
  -5   1   9    8.22    0.66
  -5   1   9    8.90    0.70
  -5   1   8  111.28    2.45
  -5   1   8  105.02    2.38
  -5   1   8  110.69    2.44
  -5   1   7   59.67    1.88
  -5   1   7   56.80    1.75
  -5   1   7   57.83    1.78
  -5   1   6   22.31    1.16
  -5   1   6   22.84    1.18
  -5   1   6   22.63    1.09
  -5   1   6   22.02    1.06
  -5   1   5   14.17    0.93
  -5   1   5   16.01    0.89
  -5   1   5   15.04    0.94
  -5   1   5   14.53    0.83
  -5   1   4   23.00    1.01
  -5   1   4   23.80    1.69
  -5   1   4   23.21    1.20
  -5   1   4   24.66    1.15
  -5   1   3   68.25    1.86
  -5   1   3   68.29    1.64
  -5   1   3   65.94    2.71
  -5   1   3   66.63    1.98
  -5   1   3   68.94    1.81
  -5   1   2   18.95    1.43
  -5   1   1  213.55    4.83
  -5   1   1  215.82    3.27
  -5   1   1  219.01    3.57
  -5   1   0  282.89    4.05
  -5   1   0  282.81    3.76
  -5   1  -1    1.02    0.26
  -5   1  -1    1.05    0.28
   5  -1   1    0.36    0.22
  -5   1  -1    0.87    0.25
  -5   1  -2    0.84    0.27
  -5   1  -2    1.55    0.32
  -5   1  -2    0.99    0.28
   5  -1   2    1.33    0.46
  -5   1  -2    1.58    0.34
  -5   1  -3   23.69    1.26
   5  -1   3   22.77    1.89
  -5   1  -3   25.13    1.20
  -5   1  -4   49.63    1.92
  -5   1  -4   48.55    1.72
   5  -1   4   46.34    2.85
  -5   1  -5   25.54    1.42
   5  -1   6  124.11    2.77
  -5   1  -7   45.59    1.63
   5  -1   7   43.03    1.60
  -5   1  -8    6.74    0.57
   5  -1   8    6.25    0.57
  -5   1  -9    8.87    0.56
   5  -1   9    8.55    0.57
  -5   0  11    2.25    0.27
  -5   0  10    2.88    0.34
  -5   0  10    3.91    0.44
  -5   0   9   28.58    1.15
  -5   0   9   30.68    1.26
  -5   0   8    0.62    0.27
  -5   0   8    0.73    0.37
  -5   0   8    0.74    0.33
  -5   0   8    0.24    0.18
  -5   0   7   75.94    2.07
  -5   0   7   73.30    2.16
  -5   0   7   72.50    2.05
  -5   0   7   73.26    1.94
  -5   0   6   51.46    1.75
  -5   0   6   51.03    1.78
  -5   0   6   51.17    1.57
  -5   0   6   47.88    1.61
  -5   0   5    0.15    0.16
  -5   0   5    0.31    0.21
  -5   0   4   30.80    1.38
  -5   0   4   29.04    1.27
  -5   0   4   30.48    1.14
  -5   0   3  112.66    3.37
  -5   0   3  108.78    2.51
  -5   0   3  110.42    2.34
  -5   0   2   20.81    1.40
  -5   0   1  153.82    3.76
   5   0   0  220.99    4.44
   5   0   1    1.81    0.46
  -5   0  -2   23.82    1.08
  -5   0  -2   23.49    1.06
   5   0   2   25.13    1.79
  -5   0  -3    2.37    0.38
  -5   0  -3    2.72    0.39
  -5   0  -3    2.42    0.38
   5   0   3    3.03    0.72
  -5   0  -4    2.87    0.48
  -5   0  -4    2.91    0.43
   5   0   4    2.72    0.67
   5   0   5   50.03    1.70
   5   0   5   46.67    2.89
   5   0   6   57.84    1.93
  -5   0  -7  102.06    2.47
   5   0   7   98.28    2.56
  -5   0  -8   12.24    0.83
   5   0   8   10.95    0.82
  -5   0  -9    1.51    0.30
   5   0   9    1.18    0.24
   5   0  10    0.65    0.20
  -5  -1  11    0.79    0.16
  -5  -1  10   10.11    0.62
  -5  -1   9    0.34    0.23
  -5  -1   8   40.34    1.39
  -5  -1   8   41.64    1.55
  -5  -1   8   38.40    1.51
  -5  -1   7  153.37    2.85
  -5  -1   7  153.09    3.08
  -5  -1   6   12.63    1.33
  -5  -1   6   12.82    0.86
  -5  -1   6   12.66    0.93
  -5  -1   5   15.57    1.42
  -5  -1   5   14.94    0.95
  -5  -1   5   13.79    0.95
  -5  -1   4  158.79    3.07
  -5  -1   4  153.18    3.05
  -5  -1   3   96.26    2.34
  -5  -1   3   94.52    2.28
  -5  -1   2   27.50    1.48
  -5  -1   1  101.16    2.73
   5   1   0    0.90    0.31
  -5  -1   0    0.81    0.27
   5   1   1    2.86    0.55
   5   1   2  147.27    4.06
  -5  -1  -3  335.95    3.97
  -5  -1  -3  338.32    3.92
   5   1   3  344.28    6.68
   5   1   4   18.01    1.65
  -5  -1  -4   16.74    0.93
  -5  -1  -5   36.55    1.39
   5   1   5   35.83    1.42
   5   1   5   36.88    2.53
  -5  -1  -6   18.36    1.02
   5   1   6   16.07    1.01
   5   1   6   17.24    1.85
  -5  -1  -7   37.46    1.47
   5   1   7   37.83    1.61
  -5  -1  -8   16.20    0.98
   5   1   8   15.07    1.03
   5   1   9   35.33    1.49
  -5  -1  -9   35.37    1.29
   5   1  10    3.85    0.46
   5   1  11    0.21    0.14
  -5  -2  10    6.77    0.48
  -5  -2   9    2.62    0.37
  -5  -2   8   10.29    0.76
  -5  -2   8   11.00    0.79
  -5  -2   7   96.17    2.11
  -5  -2   7   94.79    2.48
  -5  -2   6   51.23    1.63
  -5  -2   6   51.44    1.90
  -5  -2   5    6.83    0.97
  -5  -2   5    6.67    0.71
  -5  -2   5    6.59    0.61
  -5  -2   4  202.09    3.40
  -5  -2   4  196.90    3.62
  -5  -2   3  292.64    5.47
  -5  -2   3  281.12    3.96
  -5  -2   3  282.70    4.13
  -5  -2   2  247.62    4.74
  -5  -2   1  456.93    7.24
  -5  -2   1  476.76    5.28
  -5  -2   0   28.43    1.78
  -5  -2   0   28.72    1.25
  -5  -2  -1    3.05    0.60
  -5  -2  -1    3.13    0.43
  -5  -2  -2  514.20    7.24
  -5  -2  -3  378.34    6.08
  -5  -2  -4   65.61    1.73
   5   2   4   66.92    3.10
   5   2   5   17.33    0.98
  -5  -2  -5   17.80    0.94
   5   2   5   16.33    1.64
  -5  -2  -6    3.74    0.48
   5   2   6    3.83    0.52
   5   2   6    2.84    0.79
  -5  -2  -7    8.09    0.67
   5   2   7    7.75    0.76
  -5  -2  -8  124.13    2.59
   5   2   8  122.90    2.97
   5   2   9   39.40    1.66
  -5  -2  -9   41.18    1.41
   5   2  10   84.47    2.25
   5   2  11    2.57    0.37
  -5  -3  10    0.98    0.18
  -5  -3   9    1.13    0.24
  -5  -3   8    7.54    0.63
   5   3  -8    7.04    0.55
  -5  -3   8    9.00    0.68
  -5  -3   7   -0.16    0.27
  -5  -3   6   13.11    0.99
  -5  -3   5   43.66    2.51
  -5  -3   5   44.11    1.81
  -5  -3   4    6.04    0.89
  -5  -3   4    5.68    0.66
  -5  -3   3    8.32    0.99
  -5  -3   3    6.44    0.67
  -5  -3   2   24.24    1.52
  -5  -3   2   22.74    1.69
  -5  -3   2   23.19    1.19
  -5  -3   1  125.10    3.19
  -5  -3   1  120.23    3.82
  -5  -3   0   92.62    2.51
  -5  -3   0   89.90    3.24
  -5  -3  -1   76.59    2.94
  -5  -3  -2    1.61    0.48
  -5  -3  -3  159.93    4.19
  -5  -3  -4    3.93    0.46
  -5  -3  -4    2.69    0.51
  -5  -3  -5    1.35    0.27
   5   3   5    1.94    0.36
   5   3   6  176.59    3.29
  -5  -3  -6  176.09    3.07
   5   3   6  172.58    5.47
  -5  -3  -6  182.52    2.94
   5   3   7   14.62    1.03
  -5  -3  -7   14.64    0.90
  -5  -3  -7   15.41    0.89
   5   3   8  114.21    2.88
   5   3   9    7.57    0.79
   5   3  10    3.06    0.52
   5   3  11    6.51    0.62
   5   3  12    4.60    0.41
  -5  -4   9    8.60    0.52
  -5  -4   8    0.45    0.17
   5   4  -8    1.13    0.22
  -5  -4   8    0.95    0.21
  -5  -4   7    3.27    0.46
  -5  -4   6   30.53    1.49
  -5  -4   5    0.20    0.24
  -5  -4   4  162.05    4.82
  -5  -4   4  165.29    3.60
  -5  -4   3   24.45    1.77
  -5  -4   3   23.44    1.15
  -5  -4   3   23.48    1.34
  -5  -4   2   53.25    2.39
  -5  -4   2   47.76    1.60
  -5  -4   2   49.75    2.59
  -5  -4   2   50.93    1.90
  -5  -4   1  140.92    3.54
  -5  -4   1  135.41    2.63
  -5  -4   1  138.54    4.27
  -5  -4   1  141.03    3.01
  -5  -4   0  116.03    2.93
  -5  -4   0  114.05    3.82
  -5  -4  -1    8.47    0.71
  -5  -4  -1    7.35    0.99
  -5  -4  -2  107.22    2.95
  -5  -4  -3  189.71    4.33
  -5  -4  -4    9.33    0.68
  -5  -4  -4    7.03    0.93
   5   4   5    2.05    0.38
  -5  -4  -5    1.62    0.31
  -5  -4  -5    1.42    0.48
   5   4   6    3.21    0.48
  -5  -4  -6    3.14    0.43
  -5  -4  -6    3.20    0.74
   5   4   7    1.79    0.45
  -5  -4  -7    1.95    0.67
   5   4   7    1.15    0.59
   5   4   8  261.74    4.39
   5   4   9    2.05    0.44
   5   4  10  106.39    2.72
   5   4  11    3.57    0.51
   5   4  12    3.16    0.38
   5   5  -8    4.24    0.36
  -5  -5   8    4.28    0.40
   5   5  -7    1.58    0.30
  -5  -5   7    1.30    0.26
  -5  -5   6   71.93    2.16
  -5  -5   5   85.34    2.59
  -5  -5   4    7.16    0.79
  -5  -5   3   15.47    1.47
  -5  -5   3   16.15    1.02
  -5  -5   3   16.61    1.19
  -5  -5   2    1.96    0.38
  -5  -5   2    2.06    0.51
  -5  -5   2    2.24    0.47
  -5  -5   1    3.45    0.48
  -5  -5   1    3.45    0.63
  -5  -5   1    2.83    0.67
  -5  -5   1    3.85    0.59
  -5  -5   0  320.94    5.11
  -5  -5   0  310.86    4.14
  -5  -5   0  310.41    6.73
  -5  -5   0  309.55    4.65
  -5  -5  -1    0.53    0.23
  -5  -5  -1    0.95    0.31
  -5  -5  -2  468.77    4.89
  -5  -5  -3  107.12    2.33
  -5  -5  -3  104.27    3.17
   5   5   4   88.29    2.26
  -5  -5  -4   84.01    2.08
  -5  -5  -4   81.85    3.02
   5   5   5    4.89    0.58
  -5  -5  -5    4.59    0.50
  -5  -5  -5    4.37    0.80
   5   5   6    0.78    0.31
  -5  -5  -6    0.57    0.20
  -5  -5  -6    0.37    0.38
   5   5   7   66.89    2.20
  -5  -5  -7   61.75    3.24
   5   5   8   32.58    1.59
   5   5   9    0.45    0.37
   5   5  10   53.13    1.97
   5   5  11   14.28    0.94
   5   5  12   18.79    0.90
   5   6  -7    1.32    0.24
   5   6  -6   10.17    0.72
  -5  -6   6    9.81    0.72
  -5  -6   5   70.66    2.23
  -5  -6   4    2.06    0.45
  -5  -6   3    7.34    0.86
  -5  -6   2   99.01    3.63
  -5  -6   2   98.06    2.63
  -5  -6   2  100.91    3.02
  -5  -6   1    2.56    0.45
  -5  -6   1    2.30    0.51
  -5  -6   1    1.93    0.61
  -5  -6   1    1.87    0.46
  -5  -6   0   13.35    0.92
  -5  -6   0   12.79    1.49
  -5  -6   0   12.74    1.02
   5   6   0   11.05    0.92
   5   6   1    1.54    0.37
  -5  -6  -1    1.73    0.37
  -5  -6  -1    1.71    0.41
  -5  -6  -2  476.85    5.28
  -5  -6  -2  480.00    5.69
   5   6   2  473.91    5.76
  -5  -6  -3    7.64    0.67
   5   6   3    5.46    0.62
   5   6   4    0.24    0.26
  -5  -6  -4    0.13    0.16
  -5  -6  -4    0.20    0.23
   5   6   5    3.66    0.53
  -5  -6  -5    3.97    0.49
  -5  -6  -5    3.83    0.73
   5   6   6    1.28    0.34
  -5  -6  -6    1.47    0.30
  -5  -6  -6    0.91    0.42
   5   6   7   36.56    1.63
  -5  -6  -7   33.92    2.36
   5   6   8    2.33    0.49
   5   6   9    0.54    0.30
   5   6  10    5.83    0.66
   5   6  11   17.27    1.01
   5   6  12    1.18    0.27
   5   7  -6   13.52    0.68
   5   7  -5    4.38    0.46
  -5  -7   5    3.82    0.47
  -5  -7   4    6.25    0.70
  -5  -7   3   50.25    2.07
  -5  -7   2    8.76    0.92
  -5  -7   1    3.24    0.60
  -5  -7   0  188.48    3.70
  -5  -7   0  181.06    4.01
   5   7   0  178.87    4.00
  -5  -7  -1   11.62    0.92
  -5  -7  -1   11.86    1.04
   5   7   1    9.96    0.94
  -5  -7  -2  210.80    3.71
   5   7   2  207.93    4.14
  -5  -7  -3   78.37    2.21
   5   7   3   83.57    2.57
  -5  -7  -4   45.31    1.65
   5   7   4   44.92    1.85
  -5  -7  -5  132.76    2.77
   5   7   5  137.08    3.19
   5   7   6    2.73    0.49
  -5  -7  -6    2.99    0.42
  -5  -7  -6    2.54    0.64
   5   7   7    0.31    0.23
   5   7   8    3.99    0.58
   5   7   9    5.53    0.68
   5   7  10    2.55    0.46
   5   7  11   35.76    1.39
   5   7  12    0.22    0.17
   5   8  -5   17.62    0.70
  -5  -8   4   12.50    0.80
   5   8  -4   13.48    0.74
   5   8  -3    5.86    0.54
  -5  -8   3    4.85    0.61
  -5  -8   2   57.50    2.15
  -5  -8   1   -0.30    0.32
  -5  -8   0    7.01    0.83
  -5  -8  -1  105.71    3.03
   5   8   1  111.04    3.24
  -5  -8  -2   72.42    2.29
  -5  -8  -2   71.08    2.43
   5   8   2   74.32    2.61
  -5  -8  -3  106.06    2.71
   5   8   3  112.05    3.12
  -5  -8  -4   57.78    1.94
   5   8   4   57.51    2.21
  -5  -8  -5   13.78    0.94
   5   8   5   14.84    1.11
   5   8   6  155.53    3.50
   5   8   7   68.38    2.30
   5   8   8    5.63    0.67
   5   8   9    0.10    0.30
   5   8  10    7.16    0.69
   5   8  11   10.29    0.73
   5   8  12    0.00    0.12
   5   8  12    0.02    0.11
   5   9  -3    0.96    0.18
  -5  -9   3    1.01    0.24
   5   9  -2    0.09    0.11
  -5  -9   2    0.13    0.18
   5   9  -1    0.15    0.12
  -5  -9   1    0.06    0.21
  -5  -9   0   24.38    1.39
  -5  -9  -1    8.57    0.85
  -5  -9  -2   18.50    1.22
   5   9   2   19.80    1.36
   5   9   3   37.22    1.85
   5   9   4    1.62    0.43
   5   9   4    1.40    0.37
   5   9   5   17.47    1.21
   5   9   6   19.88    1.27
   5   9   7  108.12    2.89
   5   9   8    1.96    0.51
   5   9   9   38.58    1.57
   5   9  10    3.22    0.46
   5   9  11    5.78    0.51
  -5 -10   1    1.78    0.32
  -5 -10   0    3.61    0.47
  -5 -10  -1    3.48    0.49
  -5 -10  -2    0.30    0.29
  -5 -10  -3   10.11    0.82
   5  10   4    3.09    0.55
  -5 -10  -4    3.13    0.48
   5  10   5    1.31    0.40
   5  10   5    1.28    0.33
  -5 -10  -5    2.41    0.40
   5  10   6    1.52    0.39
   5  10   6    1.48    0.35
  -5 -10  -6    1.91    0.36
   5  10   7    0.17    0.26
   5  10   8    0.24    0.23
   5  10   9    8.26    0.68
   5  10  10    0.90    0.24
  -5 -11  -1    8.00    0.54
  -5 -11  -2    0.10    0.14
  -5 -11  -3    2.62    0.37
  -5 -11  -4   25.15    1.07
  -5 -11  -5   14.14    0.79
   5  11   6   11.56    0.71
  -5 -11  -6   11.97    0.69
   5  11   6   12.85    0.87
   5  11   7    0.10    0.18
   5  11   7    0.12    0.14
   5  11   8   12.75    0.73
   5  11   8   13.92    0.81
   5  11   9    4.23    0.42
  -6   6   7    3.71    0.34
  -6   6   6    1.82    0.28
  -6   6   5    5.66    0.49
  -6   6   4   60.38    1.59
  -6   6   3    0.02    0.14
  -6   6   2    1.01    0.22
  -6   6   1   20.14    0.83
  -6   6   0    5.64    0.40
  -6   5   8    2.41    0.29
  -6   5   7    0.38    0.18
  -6   5   6    8.36    0.66
  -6   5   5    0.25    0.20
  -6   5   4    6.02    0.62
  -6   5   3    2.18    0.40
  -6   5   2   34.97    1.41
  -6   5   1   10.28    0.75
  -6   5   0    4.45    0.48
  -6   5  -1   20.33    0.92
  -6   4   9    5.66    0.44
  -6   4   8   14.36    0.75
  -6   4   7   27.64    1.10
  -6   4   7   25.88    0.95
  -6   4   6   27.78    1.16
  -6   4   6   25.54    0.99
  -6   4   6   24.84    1.20
  -6   4   5   24.79    1.01
  -6   4   5   24.29    1.24
  -6   4   4   18.30    1.10
  -6   4   3    7.32    0.72
  -6   4   2   75.95    2.25
  -6   4   1    6.20    0.67
  -6   4   0   30.06    1.37
  -6   4  -1   41.23    1.55
  -6   4  -2   53.77    1.66
  -6   4  -2   52.46    1.64
  -6   4  -2   52.17    1.52
  -6   4  -3    2.91    0.37
  -6   4  -4    1.04    0.21
  -6   3  10    6.20    0.39
  -6   3   9    4.84    0.41
  -6   3   8   16.01    0.83
  -6   3   8   15.63    0.79
  -6   3   7   39.45    1.37
  -6   3   7   38.22    1.32
  -6   3   6    8.09    0.65
  -6   3   6    6.76    0.60
  -6   3   6    6.34    0.62
  -6   3   5   13.98    0.89
  -6   3   5   13.42    0.86
  -6   3   5   12.62    0.90
  -6   3   4    0.52    0.26
  -6   3   4    0.51    0.23
  -6   3   4    0.40    0.18
  -6   3   3    9.75    0.76
  -6   3   3    9.80    0.83
  -6   3   2    1.89    0.41
  -6   3   2    1.30    0.29
  -6   3   1   79.07    2.32
  -6   3   0  155.03    3.24
  -6   3   0  153.07    2.95
  -6   3  -1    1.06    0.29
  -6   3  -1    1.53    0.39
  -6   3  -2   34.09    1.47
  -6   3  -2   33.89    1.47
  -6   3  -2   34.15    1.45
  -6   3  -3    4.52    0.54
  -6   3  -3    4.03    0.51
  -6   3  -3    5.09    0.57
  -6   3  -4   25.79    1.17
  -6   3  -5    0.28    0.18
  -6   3  -6    3.96    0.37
  -6   2  10    1.39    0.21
  -6   2   9    2.16    0.31
  -6   2   8    0.47    0.25
  -6   2   8    0.21    0.18
  -6   2   8    0.26    0.22
  -6   2   7   14.33    0.84
  -6   2   7   13.59    0.86
  -6   2   7   13.97    0.80
  -6   2   6   25.34    1.13
  -6   2   6   27.41    1.27
  -6   2   6   24.45    1.03
  -6   2   5   24.66    1.11
  -6   2   5   25.02    1.26
  -6   2   5   23.94    1.17
  -6   2   4    6.64    0.60
  -6   2   4    6.25    0.65
  -6   2   4    6.31    0.64
  -6   2   3    0.37    0.21
  -6   2   3    0.17    0.19
  -6   2   3    0.01    0.17
  -6   2   2   11.99    0.90
  -6   2   2   12.51    0.91
  -6   2   1  209.38    3.72
  -6   2   1  219.14    3.74
  -6   2   0    3.24    0.48
  -6   2   0    3.44    0.49
  -6   2  -1  269.69    4.21
  -6   2  -1  269.36    4.18
  -6   2  -2    0.24    0.26
  -6   2  -2    0.04    0.22
  -6   2  -3   38.90    1.62
  -6   2  -3   42.05    1.68
  -6   2  -3   41.46    1.67
  -6   2  -4    7.14    0.69
  -6   2  -4    5.40    0.60
  -6   2  -5    2.06    0.42
  -6   2  -6    3.79    0.47
  -6   2  -7    6.38    0.49
  -6   1  10   18.50    0.73
  -6   1   9   43.33    1.21
  -6   1   9   47.97    1.35
  -6   1   8   29.07    1.19
  -6   1   8   29.63    1.12
  -6   1   8   30.98    1.18
  -6   1   7    0.99    0.28
  -6   1   7    1.05    0.26
  -6   1   7    0.80    0.29
  -6   1   6  284.15    3.69
  -6   1   6  287.88    4.24
  -6   1   6  283.57    3.63
  -6   1   5   84.90    1.99
  -6   1   5   84.95    2.37
  -6   1   4    2.29    0.34
  -6   1   4    1.46    0.51
  -6   1   4    2.43    0.45
  -6   1   3   43.61    1.38
  -6   1   3   39.50    2.34
  -6   1   3   43.00    1.71
  -6   1   3   42.43    1.52
  -6   1   2    1.61    0.30
  -6   1   2    1.50    0.32
  -6   1   2    0.78    0.48
  -6   1   2    1.08    0.31
  -6   1   1    8.49    1.10
  -6   1   1   10.01    0.77
  -6   1   0   45.08    1.64
  -6   1   0   42.68    2.45
  -6   1   0   45.67    1.83
  -6   1   0   42.49    1.64
  -6   1  -1  183.46    3.34
  -6   1  -1  182.55    3.63
  -6   1  -1  179.77    3.39
  -6   1  -2   99.41    2.50
   6  -1   2   96.43    3.91
  -6   1  -2   97.98    2.67
  -6   1  -2  102.87    2.61
  -6   1  -3   70.70    2.18
  -6   1  -3   72.17    2.18
  -6   1  -3   69.26    2.12
  -6   1  -3   67.84    2.23
  -6   1  -4    0.52    0.29
  -6   1  -4    0.20    0.27
  -6   1  -4    0.16    0.20
  -6   1  -5  116.64    2.74
  -6   1  -6    1.13    0.32
  -6   1  -7    0.43    0.25
  -6   1  -8    0.23    0.14
  -6   0  10    1.46    0.24
  -6   0   9    5.98    0.51
  -6   0   8    0.75    0.30
  -6   0   8    1.03    0.32
  -6   0   7   86.24    2.19
  -6   0   7   86.41    2.11
  -6   0   6   99.65    2.51
  -6   0   6   99.27    2.52
  -6   0   6   96.17    2.24
  -6   0   5   83.47    2.37
  -6   0   5   80.59    2.25
  -6   0   5   78.88    1.95
  -6   0   4    8.06    0.78
  -6   0   4    8.19    0.73
  -6   0   3  232.51    5.34
  -6   0   3  242.38    4.05
  -6   0   3  234.25    3.59
  -6   0   2   24.94    1.72
  -6   0   2   24.89    1.11
  -6   0   1    6.37    0.87
  -6   0   1    7.34    0.61
  -6   0   1    7.63    0.75
  -6   0   0   66.01    1.85
  -6   0   0   61.85    2.71
  -6   0   0   65.08    2.20
  -6   0   0   61.66    1.93
  -6   0  -1   35.94    1.40
   6   0   1   37.47    2.24
  -6   0  -1   33.11    1.59
  -6   0  -1   33.40    1.44
  -6   0  -2  295.98    4.11
   6   0   2  284.04    6.57
  -6   0  -2  294.30    4.74
  -6   0  -2  295.13    4.29
  -6   0  -3   14.01    0.99
  -6   0  -3   14.08    0.94
   6   0   3   14.69    1.60
  -6   0  -3   13.89    1.06
  -6   0  -4   52.52    1.86
  -6   0  -4   54.20    1.88
  -6   0  -5   87.40    2.39
  -6   0  -6   10.03    0.82
  -6   0  -7   39.05    1.51
  -6   0  -7   37.40    1.49
  -6   0  -8    1.39    0.29
   6   0   8    1.30    0.26
  -6   0  -8    1.40    0.25
  -6   0  -9    5.34    0.41
  -6  -1  10    6.27    0.42
  -6  -1   9    1.12    0.26
  -6  -1   8   44.23    1.38
  -6  -1   8   45.54    1.55
  -6  -1   8   45.68    1.51
  -6  -1   7    0.11    0.23
  -6  -1   7    0.26    0.23
  -6  -1   7    0.37    0.29
  -6  -1   6   28.42    1.33
  -6  -1   6   28.83    1.39
  -6  -1   6   28.10    1.26
  -6  -1   5   22.90    1.24
  -6  -1   5   22.20    1.22
  -6  -1   5   20.85    1.05
  -6  -1   4    1.18    0.26
  -6  -1   4    1.44    0.40
  -6  -1   3   91.71    2.51
  -6  -1   3   88.10    2.31
  -6  -1   2   -0.03    0.27
  -6  -1   2    0.29    0.15
  -6  -1   1   14.33    0.89
  -6  -1   1   13.74    1.14
  -6  -1   1   14.93    1.04
  -6  -1   0   79.69    2.09
  -6  -1   0   81.57    2.77
  -6  -1   0   85.10    2.48
  -6  -1  -1   10.72    0.72
  -6  -1  -1   10.91    1.05
   6   1   1   13.08    1.30
  -6  -1  -1   10.86    0.91
  -6  -1  -1   11.31    0.83
  -6  -1  -2   28.14    1.20
   6   1   2   30.62    2.09
  -6  -1  -2   29.69    1.53
  -6  -1  -2   29.81    1.33
  -6  -1  -3  280.05    3.94
  -6  -1  -3  272.38    4.03
  -6  -1  -4    0.55    0.25
   6   1   4    0.44    0.42
  -6  -1  -5  201.71    3.57
  -6  -1  -6   13.76    0.96
  -6  -1  -7    1.38    0.33
   6   1   7    1.23    0.30
   6   1   8    3.84    0.48
  -6  -1  -8    3.47    0.41
  -6  -1  -8    3.86    0.48
  -6  -1  -9    1.16    0.24
   6   1   9    1.19    0.27
  -6  -2  10    4.72    0.34
  -6  -2   9   12.63    0.69
  -6  -2   8    4.76    0.52
  -6  -2   8    4.86    0.51
  -6  -2   7   28.71    1.15
  -6  -2   7   29.45    1.34
  -6  -2   7   30.26    1.32
  -6  -2   6   37.25    1.48
  -6  -2   6   41.61    1.52
  -6  -2   6   40.48    1.68
  -6  -2   5   10.10    0.80
  -6  -2   5   10.74    0.90
  -6  -2   4   51.76    1.87
  -6  -2   4   51.49    1.92
  -6  -2   3    4.20    0.57
  -6  -2   3    4.65    0.58
  -6  -2   2  126.95    2.58
  -6  -2   2  129.00    2.85
  -6  -2   1    6.69    0.61
  -6  -2   1    6.73    0.63
  -6  -2   1    6.97    0.73
  -6  -2   0  192.88    3.23
  -6  -2   0  201.89    3.77
  -6  -2  -1   18.27    1.00
   6   2   1   17.65    1.49
  -6  -2  -1   18.85    1.18
  -6  -2  -2    0.89    0.24
  -6  -2  -2    0.83    0.31
   6   2   2    1.11    0.44
  -6  -2  -3   94.08    2.18
   6   2   3   91.62    3.73
  -6  -2  -3   95.42    2.34
   6   2   4    7.91    1.16
  -6  -2  -4    7.32    0.67
   6   2   5  112.27    4.61
  -6  -2  -5  121.14    2.66
   6   2   6  183.56    3.36
  -6  -2  -6  184.35    3.32
   6   2   7   67.51    2.07
  -6  -2  -7   69.64    2.02
  -6  -2  -7   68.01    1.99
   6   2   8    5.67    0.62
  -6  -2  -8    6.19    0.58
  -6  -2  -8    5.52    0.57
   6   2   9   20.99    1.07
  -6  -2  -9   20.99    0.94
   6   2  10   -0.19    0.18
  -6  -3   9    0.79    0.21
  -6  -3   8    0.10    0.20
  -6  -3   8    0.35    0.22
  -6  -3   7    1.53    0.26
  -6  -3   7    1.83    0.36
  -6  -3   6   86.40    2.45
  -6  -3   5   36.62    1.40
  -6  -3   5   35.49    1.66
  -6  -3   4    0.16    0.22
  -6  -3   4   -0.08    0.28
  -6  -3   3  111.07    2.71
  -6  -3   3  116.02    2.93
  -6  -3   2   15.66    1.35
  -6  -3   2   14.80    0.91
  -6  -3   2   12.98    0.94
  -6  -3   2   15.04    1.04
  -6  -3   1    7.45    0.66
  -6  -3   1    6.75    1.04
  -6  -3   1    6.35    0.65
  -6  -3   0    3.55    0.45
  -6  -3   0    2.71    0.64
  -6  -3   0    2.62    0.46
  -6  -3   0    2.35    0.40
  -6  -3  -1   12.17    0.82
  -6  -3  -1   11.19    1.28
  -6  -3  -1   11.21    0.91
  -6  -3  -2    3.34    0.46
  -6  -3  -2    4.18    0.79
  -6  -3  -3  392.50    4.68
  -6  -3  -3  388.15    7.32
  -6  -3  -4   18.03    1.04
  -6  -3  -4   19.01    1.03
  -6  -3  -5   34.30    1.43
   6   3   5   34.89    2.54
  -6  -3  -5   33.01    1.36
   6   3   6  182.02    3.40
  -6  -3  -6  188.72    3.37
  -6  -3  -6  186.09    3.22
  -6  -3  -7    2.02    0.38
   6   3   7    2.45    0.47
  -6  -3  -7    2.14    0.40
   6   3   8   14.52    1.01
  -6  -3  -8   12.76    0.82
   6   3   9   11.53    0.87
   6   3  10    4.86    0.52
   6   3  11    3.57    0.37
  -6  -4   8    2.00    0.29
   6   4  -8    1.75    0.23
  -6  -4   8    2.16    0.29
  -6  -4   7    4.42    0.50
  -6  -4   6    2.51    0.43
  -6  -4   5   24.48    1.41
  -6  -4   4    1.07    0.38
  -6  -4   3    7.04    1.00
  -6  -4   3    7.57    0.80
  -6  -4   2   27.29    1.82
  -6  -4   2   24.14    1.21
  -6  -4   2   25.42    1.40
  -6  -4   1    8.48    0.96
  -6  -4   1    8.16    0.72
  -6  -4   1    8.39    1.23
  -6  -4   1    8.60    0.81
  -6  -4   0   74.14    2.08
  -6  -4   0   74.89    3.49
  -6  -4   0   70.48    2.16
  -6  -4   0   77.58    2.28
  -6  -4  -1    1.82    0.35
  -6  -4  -1    2.54    0.67
  -6  -4  -1    2.03    0.40
  -6  -4  -2    8.81    0.71
  -6  -4  -2    8.73    1.14
  -6  -4  -2    8.68    0.82
  -6  -4  -3   71.76    2.01
  -6  -4  -3   67.40    3.17
  -6  -4  -4    1.33    0.33
  -6  -4  -4    1.43    0.51
   6   4   5    3.15    0.49
  -6  -4  -5    3.00    0.45
   6   4   6    1.13    0.33
  -6  -4  -6    0.56    0.20
   6   4   6    0.52    0.40
   6   4   7   24.96    1.33
  -6  -4  -7   27.42    1.25
   6   4   8    1.97    0.47
   6   4   9   46.66    1.75
   6   4  10    0.91    0.29
   6   4  11    0.26    0.18
  -6  -5   8    3.31    0.31
   6   5  -7    0.72    0.20
  -6  -5   7    1.26    0.25
  -6  -5   6   13.94    0.93
  -6  -5   5    1.42    0.37
  -6  -5   4   17.59    1.24
  -6  -5   3  136.89    2.98
  -6  -5   3  140.18    3.49
  -6  -5   2   87.18    3.31
  -6  -5   2   85.72    2.37
  -6  -5   2   83.83    3.83
  -6  -5   2   88.47    2.75
  -6  -5   1   16.25    1.03
  -6  -5   1   16.53    1.72
  -6  -5   1   14.96    1.10
  -6  -5   0   16.34    1.02
  -6  -5   0   16.87    1.74
  -6  -5   0   15.78    1.11
  -6  -5  -1  108.02    2.54
  -6  -5  -1  106.27    4.25
  -6  -5  -1  104.14    2.67
  -6  -5  -2   23.31    1.18
  -6  -5  -2   21.48    1.91
  -6  -5  -2   22.73    1.24
  -6  -5  -3   57.62    1.84
  -6  -5  -3   62.34    3.23
  -6  -5  -4   12.90    0.89
  -6  -5  -4   14.26    1.52
   6   5   4   14.01    0.95
   6   5   5   23.01    1.21
  -6  -5  -5   22.20    1.15
  -6  -5  -5   20.44    1.81
   6   5   6   91.68    2.48
  -6  -5  -6   94.30    2.32
   6   5   7    0.79    0.27
  -6  -5  -7    1.14    0.28
   6   5   8    0.05    0.24
   6   5   9   64.45    2.06
   6   5  10    1.00    0.31
   6   5  11    2.54    0.38
   6   6  -7    6.29    0.41
  -6  -6   7    5.89    0.42
   6   6  -6    0.15    0.13
  -6  -6   6    0.19    0.15
  -6  -6   5    4.99    0.59
  -6  -6   4   11.89    0.99
  -6  -6   3    3.62    0.57
  -6  -6   2  216.80    3.92
  -6  -6   2  220.23    4.44
  -6  -6   1  144.72    3.18
  -6  -6   1  141.52    3.56
  -6  -6   0  349.97    4.87
  -6  -6   0  346.98    5.36
  -6  -6  -1   26.10    1.33
  -6  -6  -1   24.60    2.19
  -6  -6  -1   23.31    1.37
  -6  -6  -2  336.62    4.61
  -6  -6  -2  327.56    7.81
  -6  -6  -2  324.40    4.84
   6   6   3    3.60    0.51
  -6  -6  -3    4.03    0.53
  -6  -6  -4   68.44    2.03
   6   6   4   70.10    2.18
  -6  -6  -5   75.36    2.11
   6   6   5   74.68    2.27
  -6  -6  -6  125.30    2.70
   6   6   6  128.87    2.96
   6   6   7    8.78    0.81
  -6  -6  -7    9.24    0.72
   6   6   8   15.38    1.05
   6   6   9   55.24    1.91
   6   6  10    5.22    0.57
   6   6  11   11.97    0.75
   6   7  -6    3.44    0.31
   6   7  -5    9.75    0.64
  -6  -7   5    8.58    0.64
  -6  -7   4   16.68    1.05
  -6  -7   3    0.64    0.32
  -6  -7   2    4.63    0.65
  -6  -7   1   25.51    1.36
  -6  -7   1   27.68    1.59
  -6  -7   0   34.48    1.59
  -6  -7   0   34.83    1.76
  -6  -7  -1   54.55    1.97
  -6  -7  -1   57.36    2.21
   6   7   2    0.46    0.25
  -6  -7  -2    0.98    0.32
  -6  -7  -2    0.43    0.24
  -6  -7  -3   70.25    2.14
  -6  -7  -3   67.78    2.23
   6   7   3   70.27    2.35
  -6  -7  -4   10.88    0.85
   6   7   4   11.13    0.95
  -6  -7  -5  173.95    3.25
   6   7   5  175.47    3.58
   6   7   6    0.81    0.39
  -6  -7  -6    0.64    0.27
   6   7   7    9.17    0.84
   6   7   8   -0.08    0.31
   6   7   9    1.07    0.30
   6   7  10    4.16    0.51
   6   7  11    2.30    0.35
   6   8  -4   12.22    0.65
  -6  -8   4   12.09    0.74
  -6  -8   3    6.31    0.64
  -6  -8   2    6.15    0.71
  -6  -8   1    4.75    0.67
  -6  -8   0   12.08    1.03
   6   8   1    4.29    0.62
  -6  -8  -1    5.21    0.64
  -6  -8  -1    5.06    0.68
  -6  -8  -2   36.38    1.63
  -6  -8  -2   37.10    1.74
   6   8   2   37.00    1.81
   6   8   3    1.50    0.42
  -6  -8  -3    1.32    0.38
  -6  -8  -3    1.16    0.37
  -6  -8  -4   44.79    1.71
  -6  -8  -4   45.65    1.77
   6   8   4   45.69    1.93
  -6  -8  -5   20.08    1.11
   6   8   5   19.27    1.24
  -6  -8  -6   16.21    0.96
   6   8   6   16.99    1.16
   6   8   7   15.20    1.05
   6   8   8    1.86    0.40
   6   8   9    7.22    0.68
   6   8  10    7.93    0.67
   6   8  11    2.33    0.33
   6   9  -3    0.39    0.13
  -6  -9   3    0.30    0.16
   6   9  -2   28.31    0.94
  -6  -9   2   29.20    1.24
  -6  -9   1   15.18    0.99
  -6  -9   0    1.00    0.32
  -6  -9  -1   16.17    1.13
  -6  -9  -2   12.54    0.97
   6   9   2   12.54    1.01
   6   9   3    1.39    0.38
  -6  -9  -3    2.52    0.50
  -6  -9  -4    8.91    0.74
  -6  -9  -4    8.43    0.76
   6   9   4    8.89    0.87
  -6  -9  -5   11.60    0.83
   6   9   5   10.62    0.91
  -6  -9  -6   11.58    0.77
   6   9   6   11.15    0.91
   6   9   7    5.82    0.66
   6   9   8   21.28    1.16
   6   9   9    4.31    0.50
   6   9  10    5.44    0.51
   6   9  11    0.07    0.12
  -6 -10   1    8.49    0.57
  -6 -10   0    9.04    0.66
  -6 -10  -1    0.13    0.16
  -6 -10  -2   24.98    1.20
  -6 -10  -3   29.66    1.30
   6  10   4    3.31    0.50
  -6 -10  -4    4.14    0.51
  -6 -10  -5   18.02    0.95
   6  10   5   18.63    1.12
   6  10   6   24.24    1.25
   6  10   7    8.01    0.70
   6  10   8    0.28    0.20
   6  10   9    1.96    0.33
   6  10  10    0.79    0.20
  -6 -11  -2    2.01    0.28
  -6 -11  -3    0.03    0.13
  -6 -11  -4    5.03    0.44
  -6 -11  -5   -0.07    0.11
   6  11   6    0.19    0.17
   6  11   7    2.55    0.37
   6  11   8    0.68    0.21
  -7   5   5   24.41    0.87
  -7   5   4    4.93    0.42
  -7   5   3   49.07    1.32
  -7   5   2    0.09    0.13
  -7   5   1    3.09    0.32
  -7   5   0   17.82    0.70
  -7   4   6    2.89    0.32
  -7   4   5    4.09    0.42
  -7   4   4   -0.23    0.22
  -7   4   3   37.06    1.35
  -7   4   2    6.45    0.58
  -7   4   1   13.28    0.81
  -7   4   0    1.45    0.29
  -7   4  -1    5.94    0.51
  -7   3   7   21.76    0.84
  -7   3   6   43.65    1.27
  -7   3   5    0.39    0.18
  -7   3   5   -0.05    0.20
  -7   3   4   41.23    1.36
  -7   3   4   44.19    1.51
  -7   3   3   33.48    1.23
  -7   3   3   35.31    1.41
  -7   3   2    2.93    0.43
  -7   3   1   94.80    2.34
  -7   3   0    0.57    0.28
  -7   3  -1    4.65    0.54
  -7   3  -2   14.98    0.87
  -7   2   8   19.71    0.81
  -7   2   7   66.23    1.63
  -7   2   6   10.19    0.64
  -7   2   6    9.71    0.70
  -7   2   5   20.75    1.08
  -7   2   4   44.88    1.63
  -7   2   4   46.76    1.55
  -7   2   3    0.06    0.19
  -7   2   3    0.03    0.21
  -7   2   2   91.69    2.41
  -7   2   2   92.50    2.34
  -7   2   1    4.29    0.52
  -7   2   1    5.75    0.63
  -7   2   0  214.68    3.64
  -7   2   0  214.37    3.59
  -7   2  -1   58.26    1.91
  -7   2  -2    2.60    0.45
  -7   2  -2    2.49    0.41
  -7   2  -3    6.25    0.61
  -7   2  -3    6.62    0.64
  -7   2  -4   10.38    0.72
  -7   2  -5    0.86    0.25
  -7   2  -6    6.73    0.44
  -7   1   8    7.42    0.54
  -7   1   7   22.74    1.03
  -7   1   6    2.03    0.43
  -7   1   5  112.56    2.67
  -7   1   4    0.73    0.31
  -7   1   3    3.36    0.44
  -7   1   3    3.20    0.49
  -7   1   2   15.83    0.94
  -7   1   2   15.87    1.10
  -7   1   1   41.26    1.61
  -7   1   1   42.71    1.59
  -7   1   1   41.00    1.76
  -7   1   0  478.59    5.39
  -7   1  -1   41.30    1.62
  -7   1  -1   41.11    1.70
  -7   1  -2  217.94    3.72
  -7   1  -2  208.56    3.88
  -7   1  -2  214.41    3.80
  -7   1  -3    0.61    0.26
  -7   1  -3    0.66    0.31
  -7   1  -3    0.88    0.31
  -7   1  -4    5.93    0.64
  -7   1  -5    3.21    0.46
  -7   1  -6   17.41    0.88
  -7   1  -7    3.45    0.34
  -7   0   9    4.32    0.34
  -7   0   8   26.51    1.00
  -7   0   8   25.68    0.92
  -7   0   7    4.45    0.50
  -7   0   7    4.88    0.45
  -7   0   6    4.23    0.53
  -7   0   5  139.99    3.07
  -7   0   4   38.20    1.67
  -7   0   3    2.26    0.46
  -7   0   2   19.85    1.27
  -7   0   1    8.46    0.74
  -7   0   1    8.29    0.66
  -7   0   0   66.33    2.09
  -7   0   0   68.33    1.94
  -7   0  -1    3.76    0.50
  -7   0  -1    2.79    0.55
  -7   0  -2    3.67    0.49
  -7   0  -2    4.62    0.67
  -7   0  -2    4.25    0.62
  -7   0  -3  131.86    2.89
  -7   0  -3  127.54    2.95
  -7   0  -4    0.74    0.33
  -7   0  -4    0.85    0.32
  -7   0  -5    5.36    0.63
  -7   0  -5    5.16    0.62
  -7   0  -6    6.97    0.63
  -7   0  -6    6.18    0.61
  -7   0  -7    2.22    0.35
  -7   0  -7    1.93    0.29
  -7  -1   9    0.70    0.17
  -7  -1   8    1.81    0.28
  -7  -1   8    2.35    0.32
  -7  -1   7    4.18    0.47
  -7  -1   7    4.33    0.46
  -7  -1   6   84.74    2.22
  -7  -1   6   89.96    2.34
  -7  -1   6   86.19    1.97
  -7  -1   5    3.41    0.51
  -7  -1   5    2.96    0.46
  -7  -1   4   49.75    1.92
  -7  -1   4   46.01    1.72
  -7  -1   3    0.55    0.28
  -7  -1   3    1.25    0.35
  -7  -1   2   73.89    2.44
  -7  -1   2   71.65    1.99
  -7  -1   1   89.78    2.34
  -7  -1   0   17.80    1.07
  -7  -1   0   18.97    1.31
  -7  -1  -1  111.65    2.70
  -7  -1  -1  112.23    2.43
  -7  -1  -1  110.03    3.11
  -7  -1  -2   38.03    1.48
  -7  -1  -2   34.08    1.77
  -7  -1  -2   33.97    1.54
  -7  -1  -3   18.80    1.08
  -7  -1  -3   17.58    1.27
  -7  -1  -3   17.47    1.11
  -7  -1  -4   99.95    2.97
  -7  -1  -4  105.16    2.68
  -7  -1  -5    2.31    0.47
  -7  -1  -5    1.94    0.44
  -7  -1  -6    2.22    0.40
  -7  -1  -6    2.49    0.41
  -7  -1  -6    2.30    0.44
  -7  -1  -7    1.26    0.30
  -7  -1  -7    1.19    0.26
  -7  -1  -7    1.26    0.31
  -7  -1  -8    0.72    0.20
  -7  -1  -8    0.74    0.19
  -7  -1  -8    0.88    0.23
  -7  -2   8    0.53    0.20
  -7  -2   7   34.48    1.16
  -7  -2   7   35.64    1.38
  -7  -2   7   37.09    1.27
  -7  -2   6    0.40    0.20
  -7  -2   6    0.80    0.26
  -7  -2   6    0.78    0.34
  -7  -2   5    7.76    0.70
  -7  -2   5    8.20    0.76
  -7  -2   5    8.23    0.65
  -7  -2   4    2.38    0.48
  -7  -2   4    2.09    0.41
  -7  -2   3   47.38    1.92
  -7  -2   3   43.82    1.72
  -7  -2   2    5.35    0.59
  -7  -2   2    3.53    0.55
  -7  -2   1   46.77    1.70
  -7  -2   1   48.04    1.64
  -7  -2   0    4.42    0.55
  -7  -2   0    3.90    0.59
  -7  -2  -1  178.24    3.35
  -7  -2  -1  176.95    3.95
  -7  -2  -2    3.19    0.51
  -7  -2  -2    3.62    0.45
  -7  -2  -2    3.23    0.57
  -7  -2  -3   49.38    1.80
   7   2   3   46.60    2.91
  -7  -2  -3   47.70    2.09
  -7  -2  -4   53.42    1.88
  -7  -2  -4   53.02    2.24
  -7  -2  -4   54.17    1.88
  -7  -2  -5    2.43    0.48
  -7  -2  -5    2.78    0.49
  -7  -2  -6   12.66    0.89
  -7  -2  -6   13.14    0.93
  -7  -2  -7    1.95    0.37
  -7  -2  -7    1.90    0.37
  -7  -2  -8    5.17    0.46
  -7  -2  -8    5.98    0.62
  -7  -2  -9    0.35    0.18
  -7  -3   8    4.07    0.37
  -7  -3   7   11.56    0.77
  -7  -3   7   12.05    0.72
  -7  -3   6    3.06    0.41
  -7  -3   6    3.78    0.41
  -7  -3   6    3.20    0.49
  -7  -3   5   47.13    1.59
  -7  -3   5   47.48    1.85
  -7  -3   5   48.30    1.61
  -7  -3   4   36.78    1.54
  -7  -3   4   34.42    1.61
  -7  -3   3   17.79    1.15
  -7  -3   3   16.42    1.11
  -7  -3   2    1.34    0.34
  -7  -3   2    1.28    0.35
  -7  -3   1    6.70    0.66
  -7  -3   1    4.67    0.57
  -7  -3   0    0.54    0.24
  -7  -3   0    0.76    0.31
  -7  -3  -1   22.96    1.21
  -7  -3  -1   22.18    1.41
  -7  -3  -2   27.09    1.32
   7   3   2   24.91    2.01
  -7  -3  -2   26.56    1.56
  -7  -3  -3   18.53    1.10
   7   3   3   17.60    1.78
  -7  -3  -3   19.58    1.35
  -7  -3  -4   39.58    1.59
  -7  -3  -5   11.28    0.87
  -7  -3  -6   19.45    1.10
  -7  -3  -7   12.41    0.84
  -7  -3  -8    0.60    0.20
   7   3   9    0.52    0.22
  -7  -3 -10   10.70    0.62
  -7  -4   7    0.13    0.14
   7   4  -7    0.08    0.12
  -7  -4   7    0.39    0.19
  -7  -4   6    2.37    0.34
  -7  -4   6    2.82    0.43
  -7  -4   5   10.40    0.85
  -7  -4   4   51.49    2.01
  -7  -4   3   14.09    0.93
  -7  -4   3   12.61    1.01
  -7  -4   2   13.87    0.94
  -7  -4   2   12.28    0.93
  -7  -4   2   12.35    0.99
  -7  -4   1    0.15    0.18
  -7  -4   1   -0.08    0.21
  -7  -4   1    0.01    0.21
  -7  -4   0    1.09    0.30
  -7  -4   0    1.20    0.31
  -7  -4  -1    4.25    0.54
  -7  -4  -1    3.99    0.60
  -7  -4  -2   34.96    1.50
  -7  -4  -2   34.16    2.49
  -7  -4  -2   35.55    1.74
  -7  -4  -3   25.53    1.29
  -7  -4  -3   21.76    1.97
  -7  -4  -3   25.74    1.52
  -7  -4  -4  234.78    3.85
  -7  -4  -5    0.25    0.21
  -7  -4  -6    0.04    0.22
   7   4   7    7.58    0.68
  -7  -4  -7    8.90    0.71
   7   4   8    7.88    0.68
  -7  -4  -8    8.00    0.61
   7   4   9    7.33    0.59
   7   4  10   11.98    0.63
  -7  -5   7    0.66    0.16
  -7  -5   7    1.25    0.22
  -7  -5   6    1.09    0.23
  -7  -5   6    1.42    0.29
  -7  -5   5   22.38    1.21
  -7  -5   4    0.97    0.39
  -7  -5   3  149.41    3.00
  -7  -5   3  157.29    3.58
  -7  -5   2   11.40    0.88
  -7  -5   2   12.61    1.08
  -7  -5   1  200.72    3.66
  -7  -5   1  192.33    3.93
  -7  -5   0    0.15    0.24
  -7  -5   0    0.27    0.24
  -7  -5  -1    1.13    0.32
  -7  -5  -1    2.23    0.44
  -7  -5  -1    1.42    0.34
  -7  -5  -2   15.75    1.01
  -7  -5  -2   17.18    1.16
  -7  -5  -3    0.32    0.25
  -7  -5  -3    1.01    0.36
  -7  -5  -4  175.08    3.31
  -7  -5  -4  172.20    3.81
  -7  -5  -5    9.78    0.82
  -7  -5  -6   85.44    2.27
   7   5   6   83.16    2.25
   7   5   7    0.36    0.22
  -7  -5  -7    0.29    0.18
   7   5   8   13.28    0.87
   7   5   9   -0.01    0.15
   7   5  10    0.25    0.16
  -7  -6   6   -0.10    0.16
   7   6  -6   -0.03    0.12
  -7  -6   6   -0.02    0.12
  -7  -6   5    2.40    0.37
  -7  -6   4    0.60    0.30
  -7  -6   3    1.19    0.39
  -7  -6   2    6.63    0.68
  -7  -6   2    6.31    0.74
  -7  -6   1  126.70    2.97
  -7  -6   1  130.49    3.32
  -7  -6   0  131.17    3.00
  -7  -6   0  125.45    3.21
  -7  -6  -1  116.11    2.85
  -7  -6  -1  113.54    2.92
  -7  -6  -2   89.10    2.44
  -7  -6  -3   95.23    2.51
  -7  -6  -4   46.40    1.73
  -7  -6  -4   47.13    1.87
   7   6   5    2.88    0.48
  -7  -6  -5    2.66    0.47
  -7  -6  -5    3.23    0.55
  -7  -6  -6   75.39    2.10
   7   6   6   74.55    2.18
  -7  -6  -7   44.09    1.52
   7   6   7   40.48    1.58
   7   6   8   23.91    1.18
   7   6   9    1.14    0.29
   7   6  10   12.79    0.73
   7   7  -5   -0.13    0.15
  -7  -7   5   -0.02    0.12
  -7  -7   4    1.01    0.27
  -7  -7   3    8.89    0.80
  -7  -7   2   16.58    1.15
  -7  -7   1    0.80    0.28
  -7  -7   1    0.52    0.31
  -7  -7   0    6.91    0.74
  -7  -7   0    6.66    0.75
  -7  -7  -1    3.04    0.50
  -7  -7  -1    2.61    0.49
  -7  -7  -2    1.87    0.41
  -7  -7  -2    0.71    0.27
  -7  -7  -3   48.58    1.81
   7   7   4    2.91    0.47
  -7  -7  -4    2.94    0.48
  -7  -7  -5   22.38    1.17
   7   7   5   22.41    1.24
  -7  -7  -6   17.81    1.01
  -7  -7  -6   18.70    1.08
   7   7   6   16.08    1.04
  -7  -7  -7    6.98    0.59
   7   7   7    7.08    0.68
   7   7   8    1.02    0.30
   7   7   9    0.71    0.25
   7   7  10    3.32    0.40
   7   8  -4    3.64    0.31
  -7  -8   4    3.26    0.34
  -7  -8   3    4.67    0.50
  -7  -8   2    0.72    0.28
  -7  -8   1    0.55    0.28
  -7  -8   0   19.75    1.24
  -7  -8  -1    7.25    0.73
  -7  -8  -1    6.85    0.73
  -7  -8  -2   26.53    1.32
  -7  -8  -2   26.35    1.37
  -7  -8  -3   29.84    1.39
  -7  -8  -3   30.77    1.41
   7   8   3   27.32    1.41
   7   8   4    0.20    0.22
  -7  -8  -4   -0.01    0.19
  -7  -8  -5    8.27    0.72
   7   8   5    8.83    0.78
  -7  -8  -6   12.65    0.82
   7   8   6   13.78    0.95
  -7  -8  -7   12.96    0.76
   7   8   7   12.14    0.86
   7   8   8    3.90    0.49
   7   8   9    3.30    0.41
   7   8  10    3.42    0.37
   7   9  -2    5.53    0.38
  -7  -9   2    5.29    0.47
  -7  -9   1   17.50    0.96
  -7  -9   0   -0.02    0.19
  -7  -9  -1    6.76    0.65
  -7  -9  -2    7.20    0.67
   7   9   3    2.09    0.41
  -7  -9  -3    2.19    0.36
  -7  -9  -3    2.44    0.41
   7   9   4    2.05    0.41
  -7  -9  -4    1.84    0.36
  -7  -9  -5   16.17    0.93
   7   9   5   15.22    0.99
   7   9   6    0.15    0.19
  -7  -9  -6    0.35    0.18
   7   9   7    4.36    0.52
   7   9   8    1.28    0.28
   7   9   9    0.58    0.20
  -7 -10   0    6.89    0.51
  -7 -10  -1    3.52    0.40
  -7 -10  -2    2.50    0.35
  -7 -10  -3   -0.04    0.18
  -7 -10  -4    0.42    0.15
   7  10   5    1.00    0.27
   7  10   6    1.88    0.34
   7  10   7    0.09    0.17
   7  10   8    9.22    0.61
  -8   3   4   14.14    0.64
  -8   3   3    0.15    0.12
  -8   3   2   37.57    1.17
  -8   3   1    0.44    0.18
  -8   3   0    0.22    0.15
  -8   2   7   10.82    0.51
  -8   2   6    1.85    0.26
  -8   2   5   54.67    1.41
  -8   2   4   15.88    0.82
  -8   2   3   40.84    1.25
  -8   2   3   38.77    1.31
  -8   2   2   18.55    0.90
  -8   2   2   18.31    0.91
  -8   2   1    0.35    0.21
  -8   2   1    0.38    0.18
  -8   2   0   18.66    0.90
  -8   2   0   19.81    0.96
  -8   2  -1    4.52    0.46
  -8   2  -1    4.80    0.49
  -8   2  -2   15.14    0.79
  -8   2  -3   20.91    0.86
  -8   1   7    6.88    0.47
  -8   1   6    5.85    0.49
  -8   1   5    1.35    0.27
  -8   1   4    3.29    0.45
  -8   1   3    1.63    0.37
  -8   1   2   40.13    1.33
  -8   1   2   41.66    1.61
  -8   1   1    3.19    0.41
  -8   1   1    3.14    0.47
  -8   1   0   36.48    1.41
  -8   1   0   39.49    1.42
  -8   1   0   36.20    1.49
  -8   1  -1   17.19    0.97
  -8   1  -1   17.79    0.98
  -8   1  -1   15.65    0.95
  -8   1  -2   23.47    1.12
  -8   1  -2   20.18    1.01
  -8   1  -3   20.65    1.01
  -8   1  -4    3.17    0.39
  -8   1  -5    9.24    0.55
  -8   0   7   13.25    0.67
  -8   0   6    0.72    0.23
  -8   0   5   11.73    0.81
  -8   0   4   29.68    1.39
  -8   0   3   25.48    1.33
  -8   0   2    3.35    0.53
  -8   0   1    4.13    0.50
  -8   0   1    4.08    0.59
  -8   0   0    0.27    0.16
  -8   0   0    0.41    0.24
  -8   0  -1   36.68    1.49
  -8   0  -1   36.62    1.39
  -8   0  -2    0.26    0.18
  -8   0  -2    0.40    0.26
  -8   0  -3    1.80    0.38
  -8   0  -4    0.37    0.21
  -8   0  -5   10.99    0.70
  -8   0  -6    0.21    0.14
  -8  -1   7    9.00    0.54
  -8  -1   6    9.87    0.67
  -8  -1   5   12.96    0.85
  -8  -1   4   55.85    1.93
  -8  -1   3   -0.03    0.22
  -8  -1   2   11.00    0.95
  -8  -1   1   26.26    1.25
  -8  -1   1   26.64    1.51
  -8  -1   0   54.43    1.85
  -8  -1  -1    2.49    0.37
  -8  -1  -1    2.36    0.43
  -8  -1  -2   13.84    0.96
  -8  -1  -2   13.34    1.09
  -8  -1  -3   17.05    1.06
  -8  -1  -3   16.54    1.19
  -8  -1  -4    6.27    0.64
  -8  -1  -4    5.61    0.70
  -8  -1  -5    0.06    0.21
  -8  -1  -5    0.00    0.20
  -8  -1  -6    1.22    0.26
  -8  -1  -6    1.00    0.27
  -8  -1  -7    2.69    0.30
  -8  -2   7    9.94    0.52
  -8  -2   6    1.36    0.27
  -8  -2   5   19.70    1.03
  -8  -2   5   21.93    1.10
  -8  -2   4   19.15    1.14
  -8  -2   4   20.71    1.09
  -8  -2   3    2.61    0.48
  -8  -2   3    2.45    0.43
  -8  -2   2   61.61    2.23
  -8  -2   2   56.95    1.73
  -8  -2   1    6.08    0.64
  -8  -2   1    6.86    0.79
  -8  -2   0   92.15    2.42
  -8  -2  -1    7.07    0.71
  -8  -2  -1    9.38    0.99
  -8  -2  -2   21.77    1.21
  -8  -2  -2   22.46    1.45
  -8  -2  -3   19.68    1.15
  -8  -2  -3   19.24    1.35
  -8  -2  -4    2.41    0.45
  -8  -2  -4    2.33    0.53
  -8  -2  -5    4.04    0.52
  -8  -2  -5    3.58    0.59
  -8  -2  -6    3.04    0.42
  -8  -2  -6    2.89    0.48
  -8  -2  -7    2.67    0.34
  -8  -2  -7    2.63    0.40
  -8  -3   6   21.16    0.99
  -8  -3   5    3.25    0.40
  -8  -3   5    3.71    0.49
  -8  -3   4    1.05    0.26
  -8  -3   4    1.64    0.34
  -8  -3   3    8.19    0.76
  -8  -3   3    8.21    0.73
  -8  -3   2   68.37    2.31
  -8  -3   2   66.67    1.97
  -8  -3   1    0.58    0.27
  -8  -3   1    0.35    0.22
  -8  -3   0   99.70    2.54
  -8  -3  -1   16.56    1.06
  -8  -3  -1   15.19    1.22
  -8  -3  -2  107.92    2.63
  -8  -3  -2  106.42    3.15
  -8  -3  -3    9.13    0.80
  -8  -3  -3    9.40    0.97
  -8  -3  -4    3.44    0.53
  -8  -3  -4    3.51    0.64
  -8  -3  -5    3.29    0.47
  -8  -3  -5    3.68    0.64
  -8  -3  -6    0.95    0.27
  -8  -3  -6    0.90    0.35
  -8  -3  -7   -0.02    0.13
  -8  -3  -7    0.26    0.22
  -8  -3  -8    2.10    0.26
  -8  -3  -8    2.93    0.39
  -8  -4   6    5.65    0.51
  -8  -4   6    4.88    0.38
  -8  -4   5    5.92    0.57
  -8  -4   4   -0.11    0.19
  -8  -4   3   77.63    2.05
  -8  -4   3   83.28    2.31
  -8  -4   2    2.67    0.41
  -8  -4   2    2.76    0.45
  -8  -4   2    2.11    0.40
  -8  -4   1   -0.11    0.21
  -8  -4   1    0.15    0.27
  -8  -4   1    0.09    0.19
  -8  -4   0    1.80    0.36
  -8  -4  -1    9.08    0.79
  -8  -4  -1    7.73    0.85
  -8  -4  -2   32.68    1.46
  -8  -4  -2   30.52    1.66
  -8  -4  -3   15.06    1.02
  -8  -4  -3   15.88    1.22
  -8  -4  -4   19.80    1.13
  -8  -4  -4   20.59    1.37
  -8  -4  -5    1.15    0.32
  -8  -4  -5    1.39    0.45
  -8  -4  -6    0.10    0.17
  -8  -4  -6    0.51    0.33
  -8  -4  -7   10.12    0.69
  -8  -4  -7   11.29    0.90
  -8  -4  -8    3.15    0.33
  -8  -4  -8    4.24    0.52
  -8  -4  -9    0.73    0.22
  -8  -5   6    1.48    0.24
  -8  -5   5    5.41    0.52
  -8  -5   5    4.58    0.38
  -8  -5   4    5.61    0.58
  -8  -5   3   -0.39    0.32
  -8  -5   2   22.03    1.13
  -8  -5   2   23.19    1.28
  -8  -5   1    0.21    0.24
  -8  -5   1    0.11    0.21
  -8  -5   0    0.37    0.19
  -8  -5   0    0.16    0.26
  -8  -5   0    0.72    0.26
  -8  -5  -1   -0.02    0.22
  -8  -5  -2    0.80    0.30
  -8  -5  -2    0.96    0.34
  -8  -5  -3   60.47    1.95
  -8  -5  -3   57.60    2.20
  -8  -5  -4   13.33    0.94
  -8  -5  -4   12.15    1.04
  -8  -5  -5   48.31    1.70
  -8  -5  -5   52.01    2.03
  -8  -5  -6    2.39    0.40
  -8  -5  -6    2.24    0.47
  -8  -5  -7    4.86    0.49
  -8  -5  -7    4.51    0.60
  -8  -5  -8    0.55    0.24
  -8  -5  -9    0.51    0.22
  -8  -6   5    2.73    0.32
  -8  -6   4    0.12    0.12
  -8  -6   4    0.28    0.18
  -8  -6   3   16.65    1.01
  -8  -6   2    0.39    0.23
  -8  -6   2    0.34    0.20
  -8  -6   1    1.49    0.33
  -8  -6   1    1.04    0.32
  -8  -6   0    1.17    0.33
  -8  -6   0    1.22    0.31
  -8  -6  -1    0.24    0.23
  -8  -6  -2    1.47    0.35
  -8  -6  -3   -0.01    0.24
  -8  -6  -3    0.01    0.19
  -8  -6  -4    3.41    0.49
  -8  -6  -4    3.57    0.53
  -8  -6  -5    6.02    0.61
  -8  -6  -5    6.43    0.69
  -8  -6  -6    0.56    0.21
  -8  -6  -6    0.58    0.26
  -8  -6  -7   -0.01    0.14
  -8  -6  -7    0.46    0.25
  -8  -6  -8    0.94    0.27
  -8  -6  -9    0.23    0.17
  -8  -7   4    1.05    0.22
  -8  -7   3   -0.35    0.22
  -8  -7   2   11.46    0.82
  -8  -7   1    0.21    0.23
  -8  -7   1    0.32    0.25
  -8  -7   0    1.60    0.36
  -8  -7   0    1.38    0.36
  -8  -7  -1   31.91    1.39
  -8  -7  -1   28.31    1.31
  -8  -7  -2    2.44    0.42
  -8  -7  -3    1.93    0.41
  -8  -7  -4   28.81    1.31
  -8  -7  -5    4.51    0.52
  -8  -7  -6    1.57    0.32
  -8  -7  -6    1.30    0.29
  -8  -7  -7    1.18    0.25
  -8  -7  -7    1.26    0.27
  -8  -7  -8    0.26    0.18
  -8  -7  -9    0.17    0.11
  -8  -8   2    0.25    0.15
  -8  -8   1    0.15    0.17
  -8  -8   0   16.08    0.93
  -8  -8  -1    0.52    0.26
  -8  -8  -1    0.12    0.16
  -8  -8  -2   24.02    1.18
  -8  -8  -2   22.11    1.05
  -8  -8  -3   10.13    0.77
  -8  -8  -4   19.14    1.00
  -8  -8  -5    1.35    0.29
  -8  -8  -6    2.71    0.36
  -8  -8  -7    8.19    0.54
  -8  -9   1    0.27    0.13
  -8  -9   0    0.39    0.17
  -8  -9  -1    6.81    0.54
  -8  -9  -2    3.03    0.36
  -8  -9  -3    1.21    0.27
  -8  -9  -4    1.11    0.24
  -8  -9  -5    2.27    0.33
  -8  -9  -6    4.10    0.40
  -9   1   5    5.29    0.37
  -9   1   4    3.05    0.31
  -9   1   3    7.34    0.50
  -9   1   2    7.68    0.53
  -9   1   1    1.16    0.23
  -9   1   0   16.75    0.73
  -9   1  -1    0.00    0.10
  -9   0   6    1.84    0.22
  -9   0   5    0.56    0.17
  -9   0   4    0.95    0.21
  -9   0   3    0.22    0.16
  -9   0   2    3.97    0.47
  -9   0   1    3.79    0.48
  -9   0   0    0.59    0.18
  -9   0   0    0.09    0.16
  -9   0  -1    7.59    0.56
  -9   0  -1    7.24    0.61
  -9   0  -2    0.14    0.14
  -9   0  -2    0.11    0.14
  -9   0  -3    3.90    0.38
  -9   0  -3    3.09    0.33
  -9   0  -4    0.54    0.15
  -9  -1   6    0.93    0.18
  -9  -1   5    4.30    0.40
  -9  -1   4   28.24    1.13
  -9  -1   3    1.76    0.35
  -9  -1   2    2.01    0.39
  -9  -1   1    0.55    0.25
  -9  -1   0   14.99    0.84
  -9  -1   0   15.47    1.02
  -9  -1  -1   10.44    0.72
  -9  -1  -1   10.39    0.85
  -9  -1  -2   18.37    0.94
  -9  -1  -3    1.54    0.29
  -9  -1  -4    0.13    0.14
  -9  -1  -5    6.30    0.46
  -9  -2   5   16.50    0.74
  -9  -2   4   15.22    0.83
  -9  -2   3   15.44    0.93
  -9  -2   2   10.04    0.82
  -9  -2   1    1.09    0.26
  -9  -2   1    0.79    0.26
  -9  -2   0   19.46    1.01
  -9  -2   0   18.47    1.17
  -9  -2  -1   13.54    0.85
  -9  -2  -2    0.36    0.22
  -9  -2  -3    5.56    0.55
  -9  -2  -4   -0.02    0.18
  -9  -2  -4   -0.08    0.17
  -9  -2  -5    0.14    0.14
  -9  -2  -5   -0.02    0.14
  -9  -2  -6    4.13    0.36
  -9  -3   5    0.23    0.13
  -9  -3   4   -0.04    0.16
  -9  -3   3    3.76    0.46
  -9  -3   2    3.55    0.49
  -9  -3   1   22.59    1.05
  -9  -3   1   21.02    1.21
  -9  -3   0   10.36    0.76
  -9  -3   0    8.92    0.82
  -9  -3  -1   14.31    0.90
  -9  -3  -2   10.23    0.77
  -9  -3  -3    1.28    0.31
  -9  -3  -3    1.33    0.36
  -9  -3  -4    1.24    0.28
  -9  -3  -4    0.47    0.25
  -9  -3  -5    4.17    0.44
  -9  -3  -5    4.36    0.54
  -9  -3  -6    0.76    0.20
  -9  -3  -6    1.15    0.27
  -9  -3  -7    8.64    0.56
  -9  -4   4    0.80    0.23
  -9  -4   3    0.04    0.15
  -9  -4   3    0.39    0.19
  -9  -4   2    0.56    0.22
  -9  -4   2    0.87    0.23
  -9  -4   1   10.77    0.73
  -9  -4   1    9.97    0.79
  -9  -4   0    0.30    0.18
  -9  -4   0   -0.15    0.24
  -9  -4  -1   10.00    0.75
  -9  -4  -2   10.01    0.76
  -9  -4  -3    1.67    0.36
  -9  -4  -3    1.64    0.39
  -9  -4  -4    9.09    0.70
  -9  -4  -4    9.54    0.86
  -9  -4  -5    2.95    0.40
  -9  -4  -5    2.34    0.41
  -9  -4  -6    0.07    0.13
  -9  -4  -6    0.12    0.17
  -9  -4  -7    0.26    0.13
  -9  -4  -7    0.64    0.21
  -9  -5   4    0.32    0.16
  -9  -5   3    0.17    0.14
  -9  -5   2    0.71    0.20
  -9  -5   1    2.08    0.34
  -9  -5   0   -0.01    0.17
  -9  -5   0    0.04    0.14
  -9  -5  -1    4.91    0.53
  -9  -5  -1    3.85    0.51
  -9  -5  -2    5.86    0.59
  -9  -5  -3   -0.01    0.20
  -9  -5  -4    4.20    0.50
  -9  -5  -4    3.38    0.50
  -9  -5  -5    6.30    0.56
  -9  -5  -5    6.74    0.66
  -9  -5  -6    1.79    0.30
  -9  -5  -6    1.80    0.34
  -9  -5  -7    4.23    0.37
  -9  -5  -7    5.08    0.48
  -9  -6   3    0.33    0.16
  -9  -6   2    5.39    0.46
  -9  -6   1   -0.09    0.14
  -9  -6   1   -0.08    0.15
  -9  -6   0    0.58    0.24
  -9  -6  -1    1.86    0.34
  -9  -6  -2    4.01    0.49
  -9  -6  -3    0.03    0.19
  -9  -6  -4    0.46    0.21
  -9  -6  -5    2.32    0.35
  -9  -6  -5    2.00    0.36
  -9  -6  -6    3.90    0.41
  -9  -6  -6    3.41    0.43
  -9  -6  -7    0.11    0.12
  -9  -6  -7    0.01    0.14
  -9  -7   2    0.52    0.15
  -9  -7   1    4.77    0.41
  -9  -7   0    0.42    0.20
  -9  -7  -1    0.14    0.16
  -9  -7  -2    2.00    0.33
  -9  -7  -3    0.77    0.23
  -9  -7  -4    4.62    0.46
  -9  -7  -5    0.59    0.20
  -9  -7  -6    0.78    0.22
  -9  -8  -1    4.75    0.45
  -9  -8  -2    8.36    0.60
  -9  -8  -3    4.47    0.44
  -9  -8  -4    7.34    0.55
  -9  -8  -5    1.09    0.23
  -9  -8  -6    8.10    0.49
 -10  -1   2    0.20    0.10
 -10  -1   1    0.73    0.18
 -10  -1   0    8.28    0.52
 -10  -2   2    0.03    0.14
 -10  -2   1    2.51    0.33
 -10  -2   0    0.72    0.20
 -10  -2  -1    3.93    0.35
 -10  -2  -1    5.11    0.47
 -10  -2  -2    0.20    0.12
 -10  -2  -2    0.36    0.16
 -10  -2  -3    2.24    0.28
 -10  -3   2   -0.08    0.14
 -10  -3   1    1.32    0.25
 -10  -3   0    0.37    0.19
 -10  -3  -1    1.32    0.24
 -10  -3  -1    1.22    0.27
 -10  -3  -2    0.10    0.13
 -10  -3  -2   -0.14    0.17
 -10  -3  -3    2.90    0.32
 -10  -3  -3    2.66    0.35
 -10  -3  -4    0.50    0.16
 -10  -3  -4   -0.01    0.12
 -10  -4   1   -0.07    0.10
 -10  -4   0    0.16    0.12
 -10  -4   0    0.21    0.14
 -10  -4  -1    0.69    0.18
 -10  -4  -1    0.38    0.18
 -10  -4  -2    2.39    0.31
 -10  -4  -2    2.18    0.34
 -10  -4  -3    3.37    0.36
 -10  -4  -3    3.47    0.41
 -10  -4  -4    4.09    0.37
 -10  -5   0    3.70    0.35
 -10  -5  -1    6.58    0.48
 -10  -5  -1    6.40    0.48
 -10  -5  -2   -0.11    0.13
 -10  -5  -2    0.09    0.13
 -10  -5  -3    5.47    0.45
 -10  -5  -3    4.73    0.44
 -10  -5  -4    3.01    0.32
 -10  -5  -4    3.08    0.35
 -10  -5  -5    1.47    0.22
 -10  -6  -1   -0.01    0.10
 -10  -6  -2    0.40    0.15
 -10  -6  -3    0.45    0.15
 -10  -6  -4    0.97    0.20
 -10  -7  -2    0.73    0.17
 -10  -7  -3    4.26    0.36
 -10  -7  -4    0.44    0.14
   0   0   0    0.00    0.00


TITL jk-3aa-171122 in P-1
REM P-1 (#2 in standard setting)
CELL 1.54184   8.546412   9.708968  11.301738  66.5607  85.7852  69.5764
ZERR    3.00   0.000307   0.000379   0.000432   0.0037   0.0030   0.0034
LATT  1
SFAC C H N O
UNIT 42.00 36.00 3.00 9.00
TREF
HKLF 4
END
_computing_structure_solution     'SHELXT 2014/5 (Sheldrick, 2014)'
;
_shelx_hkl_checksum              45489
loop_
_space_group_symop_operation_xyz
'x, y, z'
'-x, -y, -z'
loop_
_atom_site_label
_atom_site_type_symbol
_atom_site_fract_x
_atom_site_fract_y
_atom_site_fract_z
_atom_site_U_iso_or_equiv
_atom_site_adp_type
_atom_site_occupancy
_atom_site_site_symmetry_order
_atom_site_calc_flag
_atom_site_refinement_flags_posn
_atom_site_refinement_flags_adp
_atom_site_refinement_flags_occupancy
_atom_site_disorder_assembly
_atom_site_disorder_group
O2 O 0.25222(17) 0.38424(15) 0.44415(11) 0.0544(4) Uani 1 1 d . . . . .
O1 O -0.08133(17) 0.76551(16) 0.12913(14) 0.0640(4) Uani 1 1 d . . . . .
O3 O 0.0560(2) 0.29916(17) 0.55891(14) 0.0729(5) Uani 1 1 d . . . . .
N1 N 0.11613(17) 0.51613(16) 0.24049(13) 0.0431(3) Uani 1 1 d . . . . .
C9 C 0.4106(2) 0.3277(2) 0.27136(18) 0.0456(4) Uani 1 1 d . . . . .
C4 C 0.2810(2) 0.45429(19) 0.30839(16) 0.0437(4) Uani 1 1 d . . . . .
C3 C 0.3258(2) 0.6019(2) 0.27479(17) 0.0473(4) Uani 1 1 d . . . . .
C1 C 0.0580(2) 0.6835(2) 0.17959(16) 0.0467(4) Uani 1 1 d . . . . .
C2 C 0.1981(2) 0.7336(2) 0.19328(17) 0.0479(4) Uani 1 1 d . . . . .
C16 C 0.1013(3) 0.3639(2) 0.45533(18) 0.0530(5) Uani 1 1 d . . . . .
C15 C 0.0091(3) 0.4352(2) 0.32382(19) 0.0548(5) Uani 1 1 d . . . . .
H15 H -0.0961 0.5186 0.3247 0.066 Uiso 1 1 calc R U . A 1
C10 C 0.4209(3) 0.3530(3) 0.1426(2) 0.0593(5) Uani 1 1 d . . . . .
H10 H 0.3485 0.4466 0.0806 0.071 Uiso 1 1 calc R U . . .
C8 C 0.2107(3) 0.8847(2) 0.1420(2) 0.0629(5) Uani 1 1 d . . . . .
H8 H 0.1252 0.9735 0.0869 0.075 Uiso 1 1 calc R U . . .
C5 C 0.4692(3) 0.6165(3) 0.3087(2) 0.0645(6) Uani 1 1 d . . . . .
H5 H 0.5551 0.5278 0.3634 0.077 Uiso 1 1 calc R U . . .
C14 C 0.5201(3) 0.1903(3) 0.3615(2) 0.0720(6) Uani 1 1 d . . . . .
H14 H 0.5168 0.1713 0.4489 0.086 Uiso 1 1 calc R U . . .
C12 C 0.6438(3) 0.1044(3) 0.1938(3) 0.0745(7) Uani 1 1 d . . . . .
H12 H 0.7213 0.0286 0.1682 0.089 Uiso 1 1 calc R U . . .
C11 C 0.5369(3) 0.2416(3) 0.1044(3) 0.0717(6) Uani 1 1 d . . . . .
H11 H 0.5419 0.2603 0.0171 0.086 Uiso 1 1 calc R U . . .
C7 C 0.3547(3) 0.8985(3) 0.1758(3) 0.0766(7) Uani 1 1 d . . . . .
H7 H 0.3669 0.9983 0.1422 0.092 Uiso 1 1 calc R U . . .
C6 C 0.4813(3) 0.7670(3) 0.2588(3) 0.0781(7) Uani 1 1 d . . . . .
H6 H 0.5760 0.7801 0.2813 0.094 Uiso 1 1 calc R U . . .
C13 C 0.6366(3) 0.0792(3) 0.3203(3) 0.0905(9) Uani 1 1 d . . . . .
H13 H 0.7109 -0.0141 0.3813 0.109 Uiso 1 1 calc R U . . .
C17 C -0.0360(5) 0.3185(4) 0.2888(3) 0.0987(10) Uani 0.679(5) 1 d . . P B 2
H17 H -0.1168 0.2859 0.3498 0.118 Uiso 0.679(5) 1 calc R U P B 2
C18 C -0.1277(7) 0.4008(6) 0.1555(3) 0.1412(18) Uani 0.679(5) 1 d . . P B 2
H18A H -0.2156 0.4983 0.1489 0.212 Uiso 0.679(5) 1 calc R U P B 2
H18B H -0.1750 0.3313 0.1422 0.212 Uiso 0.679(5) 1 calc R U P B 2
H18C H -0.0507 0.4250 0.0910 0.212 Uiso 0.679(5) 1 calc R U P B 2
C19 C 0.0890(6) 0.1791(6) 0.2971(5) 0.0947(12) Uani 0.679(5) 1 d . . P B 2
H19A H 0.0430 0.1163 0.2725 0.142 Uiso 0.679(5) 1 calc R U P B 2
H19B H 0.1382 0.1193 0.3844 0.142 Uiso 0.679(5) 1 calc R U P B 2
H19C H 0.1733 0.2042 0.2402 0.142 Uiso 0.679(5) 1 calc R U P B 2
C17' C -0.0360(5) 0.3185(4) 0.2888(3) 0.0987(10) Uani 0.321(5) 1 d . . P B 1
H17' H 0.0743 0.2641 0.2658 0.118 Uiso 0.321(5) 1 calc R U P B 1
C18' C -0.1277(7) 0.4008(6) 0.1555(3) 0.1412(18) Uani 0.321(5) 1 d . . P B 1
H18D H -0.0953 0.4911 0.1043 0.212 Uiso 0.321(5) 1 calc R U P B 1
H18E H -0.2463 0.4368 0.1635 0.212 Uiso 0.321(5) 1 calc R U P B 1
H18F H -0.0997 0.3267 0.1143 0.212 Uiso 0.321(5) 1 calc R U P B 1
C19' C -0.0615(13) 0.1782(11) 0.3909(10) 0.0947(12) Uani 0.321(5) 1 d . . P B 1
H19D H -0.0879 0.1160 0.3525 0.142 Uiso 0.321(5) 1 calc R U P B 1
H19E H -0.1521 0.2130 0.4397 0.142 Uiso 0.321(5) 1 calc R U P B 1
H19F H 0.0389 0.1138 0.4472 0.142 Uiso 0.321(5) 1 calc R U P B 1
loop_
_atom_site_aniso_label
_atom_site_aniso_U_11
_atom_site_aniso_U_22
_atom_site_aniso_U_33
_atom_site_aniso_U_23
_atom_site_aniso_U_13
_atom_site_aniso_U_12
O2 0.0624(8) 0.0460(7) 0.0373(6) -0.0117(5) -0.0010(5) -0.0035(6)
O1 0.0541(8) 0.0463(7) 0.0663(9) -0.0094(6) -0.0138(7) 0.0000(6)
O3 0.0941(11) 0.0511(8) 0.0520(8) -0.0134(7) 0.0256(8) -0.0128(8)
N1 0.0441(8) 0.0345(7) 0.0416(7) -0.0124(6) 0.0006(6) -0.0059(6)
C9 0.0445(9) 0.0342(8) 0.0531(10) -0.0162(7) 0.0037(7) -0.0093(7)
C4 0.0480(9) 0.0353(8) 0.0370(8) -0.0114(7) -0.0011(7) -0.0049(7)
C3 0.0515(10) 0.0408(9) 0.0470(9) -0.0210(7) 0.0011(7) -0.0085(7)
C1 0.0504(10) 0.0356(8) 0.0407(9) -0.0111(7) -0.0006(7) -0.0035(7)
C2 0.0563(10) 0.0369(9) 0.0449(9) -0.0165(7) 0.0029(7) -0.0094(8)
C16 0.0643(12) 0.0343(9) 0.0491(10) -0.0163(8) 0.0127(8) -0.0064(8)
C15 0.0602(11) 0.0487(10) 0.0516(10) -0.0164(8) 0.0101(8) -0.0199(9)
C10 0.0612(12) 0.0529(11) 0.0576(11) -0.0256(9) 0.0091(9) -0.0096(9)
C8 0.0771(14) 0.0388(10) 0.0652(13) -0.0179(9) 0.0036(10) -0.0143(9)
C5 0.0601(12) 0.0587(12) 0.0750(14) -0.0322(11) -0.0068(10) -0.0124(10)
C14 0.0705(14) 0.0467(11) 0.0661(13) -0.0131(10) -0.0007(11) 0.0074(10)
C12 0.0637(13) 0.0550(13) 0.117(2) -0.0510(14) 0.0317(13) -0.0198(11)
C11 0.0716(14) 0.0743(15) 0.0854(16) -0.0509(13) 0.0289(12) -0.0265(12)
C7 0.0915(17) 0.0559(13) 0.0961(18) -0.0364(13) 0.0124(14) -0.0356(13)
C6 0.0772(15) 0.0734(15) 0.1021(19) -0.0459(14) 0.0009(14) -0.0335(13)
C13 0.0781(17) 0.0438(12) 0.107(2) -0.0166(13) 0.0039(15) 0.0123(11)
C17 0.155(3) 0.092(2) 0.0766(17) -0.0296(15) 0.0174(18) -0.083(2)
C18 0.222(5) 0.176(4) 0.078(2) -0.031(2) -0.005(2) -0.150(4)
C19 0.097(3) 0.089(3) 0.121(3) -0.057(2) 0.012(2) -0.042(2)
C17' 0.155(3) 0.092(2) 0.0766(17) -0.0296(15) 0.0174(18) -0.083(2)
C18' 0.222(5) 0.176(4) 0.078(2) -0.031(2) -0.005(2) -0.150(4)
C19' 0.097(3) 0.089(3) 0.121(3) -0.057(2) 0.012(2) -0.042(2)
loop_
_atom_type_symbol
_atom_type_description
_atom_type_scat_dispersion_real
_atom_type_scat_dispersion_imag
_atom_type_scat_source
C C 0.0181 0.0091 'International Tables Vol C Tables 4.2.6.8 and 6.1.1.4'
H H 0.0000 0.0000 'International Tables Vol C Tables 4.2.6.8 and 6.1.1.4'
N N 0.0311 0.0180 'International Tables Vol C Tables 4.2.6.8 and 6.1.1.4'
O O 0.0492 0.0322 'International Tables Vol C Tables 4.2.6.8 and 6.1.1.4'
loop_
_geom_angle_atom_site_label_1
_geom_angle_atom_site_label_2
_geom_angle_atom_site_label_3
_geom_angle
C16 O2 C4 109.70(14)
C1 N1 C15 119.88(14)
C1 N1 C4 111.21(14)
C15 N1 C4 109.40(14)
C14 C9 C10 118.81(18)
C14 C9 C4 122.25(18)
C10 C9 C4 118.93(16)
O2 C4 N1 104.37(13)
O2 C4 C3 112.51(14)
N1 C4 C3 103.70(13)
O2 C4 C9 109.63(13)
N1 C4 C9 113.50(14)
C3 C4 C9 112.76(15)
C5 C3 C2 121.15(18)
C5 C3 C4 129.84(17)
C2 C3 C4 108.94(16)
O1 C1 N1 124.66(18)
O1 C1 C2 128.95(17)
N1 C1 C2 106.38(14)
C3 C2 C8 121.03(19)
C3 C2 C1 109.16(15)
C8 C2 C1 129.76(18)
O3 C16 O2 121.1(2)
O3 C16 C15 128.4(2)
O2 C16 C15 110.49(15)
N1 C15 C17 118.12(19)
N1 C15 C16 102.01(16)
C17 C15 C16 114.68(19)
N1 C15 H15 107.1
C16 C15 H15 107.1
C9 C10 C11 121.0(2)
C9 C10 H10 119.5
C11 C10 H10 119.5
C7 C8 C2 117.6(2)
C7 C8 H8 121.2
C2 C8 H8 121.2
C6 C5 C3 117.9(2)
C6 C5 H5 121.1
C3 C5 H5 121.1
C9 C14 C13 119.1(2)
C9 C14 H14 120.4
C13 C14 H14 120.4
C13 C12 C11 119.4(2)
C13 C12 H12 120.3
C11 C12 H12 120.3
C12 C11 C10 120.2(2)
C12 C11 H11 119.9
C10 C11 H11 119.9
C8 C7 C6 121.3(2)
C8 C7 H7 119.3
C6 C7 H7 119.3
C5 C6 C7 121.0(2)
C5 C6 H6 119.5
C7 C6 H6 119.5
C12 C13 C14 121.5(2)
C12 C13 H13 119.3
C14 C13 H13 119.3
C19 C17 C15 118.3(3)
C19 C17 C18 108.9(4)
C15 C17 C18 110.8(2)
C19 C17 H17 106.0
C15 C17 H17 106.0
C18 C17 H17 106.0
C17 C18 H18A 109.5
C17 C18 H18B 109.5
H18A C18 H18B 109.5
C17 C18 H18C 109.5
H18A C18 H18C 109.5
H18B C18 H18C 109.5
C17 C19 H19A 109.5
C17 C19 H19B 109.5
H19A C19 H19B 109.5
C17 C19 H19C 109.5
H19A C19 H19C 109.5
H19B C19 H19C 109.5
H19D C19' H19E 109.5
H19D C19' H19F 109.5
H19E C19' H19F 109.5
loop_
_geom_bond_atom_site_label_1
_geom_bond_atom_site_label_2
_geom_bond_distance
O2 C16 1.361(3)
O2 C4 1.452(2)
O1 C1 1.206(2)
O3 C16 1.197(2)
N1 C1 1.399(2)
N1 C15 1.458(2)
N1 C4 1.462(2)
C9 C14 1.371(3)
C9 C10 1.377(3)
C9 C4 1.518(2)
C4 C3 1.507(3)
C3 C5 1.380(3)
C3 C2 1.382(2)
C1 C2 1.479(3)
C2 C8 1.388(3)
C16 C15 1.511(3)
C15 C17 1.508(3)
C15 H15 0.9800
C10 C11 1.378(3)
C10 H10 0.9300
C8 C7 1.380(3)
C8 H8 0.9300
C5 C6 1.380(3)
C5 H5 0.9300
C14 C13 1.398(3)
C14 H14 0.9300
C12 C13 1.352(4)
C12 C11 1.358(4)
C12 H12 0.9300
C11 H11 0.9300
C7 C6 1.383(4)
C7 H7 0.9300
C6 H6 0.9300
C13 H13 0.9300
C17 C19 1.373(6)
C17 C18 1.518(5)
C17 H17 0.9800
C18 H18A 0.9600
C18 H18B 0.9600
C18 H18C 0.9600
C19 H19A 0.9600
C19 H19B 0.9600
C19 H19C 0.9600
C19' H19D 0.9600
C19' H19E 0.9600
C19' H19F 0.9600
loop_
_geom_torsion_atom_site_label_1
_geom_torsion_atom_site_label_2
_geom_torsion_atom_site_label_3
_geom_torsion_atom_site_label_4
_geom_torsion
C16 O2 C4 N1 15.86(17)
C16 O2 C4 C3 127.63(15)
C16 O2 C4 C9 -106.04(16)
C1 N1 C4 O2 113.91(14)
C15 N1 C4 O2 -20.77(17)
C1 N1 C4 C3 -4.08(17)
C15 N1 C4 C3 -138.76(14)
C1 N1 C4 C9 -126.78(15)
C15 N1 C4 C9 98.54(17)
C14 C9 C4 O2 -20.4(3)
C10 C9 C4 O2 160.94(17)
C14 C9 C4 N1 -136.6(2)
C10 C9 C4 N1 44.7(2)
C14 C9 C4 C3 105.8(2)
C10 C9 C4 C3 -72.9(2)
O2 C4 C3 C5 69.8(2)
N1 C4 C3 C5 -178.06(19)
C9 C4 C3 C5 -54.9(3)
O2 C4 C3 C2 -113.26(16)
N1 C4 C3 C2 -1.08(18)
C9 C4 C3 C2 122.11(16)
C15 N1 C1 O1 -42.2(3)
C4 N1 C1 O1 -171.52(17)
C15 N1 C1 C2 136.69(16)
C4 N1 C1 C2 7.36(18)
C5 C3 C2 C8 0.5(3)
C4 C3 C2 C8 -176.78(17)
C5 C3 C2 C1 -177.18(18)
C4 C3 C2 C1 5.5(2)
O1 C1 C2 C3 170.83(19)
N1 C1 C2 C3 -7.99(19)
O1 C1 C2 C8 -6.6(3)
N1 C1 C2 C8 174.58(19)
C4 O2 C16 O3 175.62(16)
C4 O2 C16 C15 -5.40(19)
C1 N1 C15 C17 120.4(2)
C4 N1 C15 C17 -109.5(2)
C1 N1 C15 C16 -112.91(17)
C4 N1 C15 C16 17.23(18)
O3 C16 C15 N1 171.59(18)
O2 C16 C15 N1 -7.30(19)
O3 C16 C15 C17 -59.5(3)
O2 C16 C15 C17 121.6(2)
C14 C9 C10 C11 1.1(3)
C4 C9 C10 C11 179.83(19)
C3 C2 C8 C7 -0.2(3)
C1 C2 C8 C7 176.9(2)
C2 C3 C5 C6 0.1(3)
C4 C3 C5 C6 176.8(2)
C10 C9 C14 C13 -1.0(4)
C4 C9 C14 C13 -179.7(2)
C13 C12 C11 C10 -0.7(4)
C9 C10 C11 C12 -0.2(4)
C2 C8 C7 C6 -0.6(4)
C3 C5 C6 C7 -1.0(4)
C8 C7 C6 C5 1.3(4)
C11 C12 C13 C14 0.8(4)
C9 C14 C13 C12 0.1(4)
N1 C15 C17 C19 67.2(4)
C16 C15 C17 C19 -53.2(4)
N1 C15 C17 C18 -59.6(4)
C16 C15 C17 C18 -179.9(3)
