#------------------------------------------------------------------------------
#$Date: 2019-11-11 17:25:04 +0200 (Mon, 11 Nov 2019) $
#$Revision: 226710 $
#$URL: file:///home/coder/svn-repositories/cod/cif/4/03/52/4035244.cif $
#------------------------------------------------------------------------------
#
# This file is available in the Crystallography Open Database (COD),
# http://www.crystallography.net/
#
# All data on this site have been placed in the public domain by the
# contributors.
#
data_4035244
loop_
_publ_author_name
'Potopnyk, Mykhaylo A.'
'Volyniuk, Dmytro'
'Ceborska, Magdalena'
'Cmoch, Piotr'
'Hladka, Iryna'
'Danyliv, Yan'
'Gra\<zulevi\<cius, Juozas Vidas'
_publ_section_title
;
 Benzo[4,5]thiazolo[3,2- c][1,3,5,2]oxadiazaborinines: Synthesis,
 Structural, and Photophysical Properties.
;
_journal_issue                   19
_journal_name_full               'The Journal of organic chemistry'
_journal_page_first              12129
_journal_page_last               12142
_journal_paper_doi               10.1021/acs.joc.8b02098
_journal_volume                  83
_journal_year                    2018
_chemical_formula_sum            'C16 H10 B F6 N3 O S'
_chemical_formula_weight         417.14
_space_group_crystal_system      triclinic
_space_group_IT_number           2
_space_group_name_Hall           '-P 1'
_space_group_name_H-M_alt        'P -1'
_atom_sites_solution_hydrogens   geom
_audit_creation_method           SHELXL-2018/1
_cell_angle_alpha                103.762(7)
_cell_angle_beta                 94.853(7)
_cell_angle_gamma                97.745(7)
_cell_formula_units_Z            2
_cell_length_a                   6.7366(6)
_cell_length_b                   10.6037(9)
_cell_length_c                   11.8737(9)
_cell_measurement_reflns_used    2288
_cell_measurement_temperature    100(2)
_cell_measurement_theta_max      70.6000
_cell_measurement_theta_min      5.0390
_cell_volume                     810.29(12)
_computing_structure_refinement  'SHELXL-2018/1 (Sheldrick, 2018)'
_diffrn_ambient_temperature      100(2)
_diffrn_measured_fraction_theta_full 0.988
_diffrn_measured_fraction_theta_max 0.956
_diffrn_measurement_device_type  'SuperNova (Cu) X-ray Source'
_diffrn_radiation_type           CuK\a
_diffrn_radiation_wavelength     1.54184
_diffrn_reflns_av_R_equivalents  0.0446
_diffrn_reflns_av_unetI/netI     0.0541
_diffrn_reflns_Laue_measured_fraction_full 0.988
_diffrn_reflns_Laue_measured_fraction_max 0.956
_diffrn_reflns_limit_h_max       7
_diffrn_reflns_limit_h_min       -8
_diffrn_reflns_limit_k_max       12
_diffrn_reflns_limit_k_min       -12
_diffrn_reflns_limit_l_max       14
_diffrn_reflns_limit_l_min       -9
_diffrn_reflns_number            5229
_diffrn_reflns_point_group_measured_fraction_full 0.988
_diffrn_reflns_point_group_measured_fraction_max 0.956
_diffrn_reflns_theta_full        67.684
_diffrn_reflns_theta_max         70.913
_diffrn_reflns_theta_min         5.036
_diffrn_source                   'micro-focus sealed X-ray tube'
_exptl_absorpt_coefficient_mu    2.534
_exptl_absorpt_correction_T_max  1.00000
_exptl_absorpt_correction_T_min  0.70645
_exptl_absorpt_correction_type   multi-scan
_exptl_absorpt_process_details
;
CrysAlisPro 1.171.38.46 (Rigaku Oxford Diffraction, 2015)
Empirical absorption correction using spherical harmonics,
 implemented in SCALE3 ABSPACK scaling algorithm.
;
_exptl_crystal_colour            yellow
_exptl_crystal_density_diffrn    1.710
_exptl_crystal_description       needle
_exptl_crystal_F_000             420
_exptl_crystal_size_max          0.300
_exptl_crystal_size_mid          0.030
_exptl_crystal_size_min          0.020
_refine_diff_density_max         1.207
_refine_diff_density_min         -0.913
_refine_diff_density_rms         0.159
_refine_ls_extinction_method     none
_refine_ls_goodness_of_fit_ref   1.110
_refine_ls_hydrogen_treatment    constr
_refine_ls_matrix_type           full
_refine_ls_number_parameters     255
_refine_ls_number_reflns         2991
_refine_ls_number_restraints     0
_refine_ls_restrained_S_all      1.110
_refine_ls_R_factor_all          0.0958
_refine_ls_R_factor_gt           0.0867
_refine_ls_shift/su_max          0.000
_refine_ls_shift/su_mean         0.000
_refine_ls_structure_factor_coef Fsqd
_refine_ls_weighting_details
'w=1/[\s^2^(Fo^2^)+(0.1768P)^2^+1.7721P] where P=(Fo^2^+2Fc^2^)/3'
_refine_ls_weighting_scheme      calc
_refine_ls_wR_factor_gt          0.2662
_refine_ls_wR_factor_ref         0.2762
_reflns_Friedel_coverage         0.000
_reflns_number_gt                2530
_reflns_number_total             2991
_reflns_threshold_expression     'I > 2\s(I)'
_cod_data_source_file            jo8b02098_si_007.cif
_cod_data_source_block           shelxl
_cod_database_code               4035244
_shelx_shelxl_version_number     2018/1
_shelx_space_group_comment
;
The symmetry employed for this shelxl refinement is uniquely defined
by the following loop, which should always be used as a source of
symmetry information in preference to the above space-group names.
They are only intended as comments.
;
_shelx_estimated_absorpt_t_min   0.517
_shelx_estimated_absorpt_t_max   0.951
_shelx_res_file
;
TITL exp_5263 in P-1
    shelxl.res
    created by SHELXL-2018/1 at 10:01:48 on 04-Apr-2018
CELL  1.54184   6.7366  10.6037  11.8737  103.762   94.853   97.745
ZERR     2.00   0.0006   0.0009   0.0009    0.007    0.007    0.007
LATT   1
SFAC  C    H    B    N    O    F    S
UNIT  32   20   2    6    2    12   2
MERG   2
FMAP   2
PLAN   20
SIZE     0.02   0.03   0.30
ACTA
BOND
L.S.  15
TEMP  -173.00
WGHT    0.176800    1.772100
FVAR       4.61202
MOLE    1
C1    1    0.164236   -0.041384    0.820007    11.00000    0.04323    0.01894 =
         0.03156    0.00984    0.00222   -0.00767
AFIX 137
H1A   2    0.031780   -0.071937    0.773425    11.00000   -1.50000
H1B   2    0.166502   -0.074921    0.890141    11.00000   -1.50000
H1C   2    0.268974   -0.073670    0.773552    11.00000   -1.50000
AFIX   0
C2    1    0.232474    0.168742    0.977962    11.00000    0.03318    0.02639 =
         0.02317    0.01161    0.00148   -0.00310
AFIX 137
H2A   2    0.361423    0.228794    0.996468    11.00000   -1.50000
H2B   2    0.233979    0.103163    1.023769    11.00000   -1.50000
H2C   2    0.122369    0.218767    0.997100    11.00000   -1.50000
AFIX   0
C3    1    0.204224    0.171631    0.772003    11.00000    0.01546    0.01890 =
         0.02601    0.00794    0.00011   -0.00430
C4    1    0.175006    0.107577    0.650077    11.00000    0.02107    0.01515 =
         0.02456    0.00236    0.00305   -0.00343
AFIX  43
H4    2    0.152769    0.014213    0.625892    11.00000   -1.20000
AFIX   0
C5    1    0.178492    0.178017    0.568041    11.00000    0.01625    0.01817 =
         0.02134    0.00229   -0.00175   -0.00522
AFIX  43
H5    2    0.157028    0.132308    0.487758    11.00000   -1.20000
AFIX   0
C6    1    0.213009    0.316900    0.598526    11.00000    0.01443    0.01689 =
         0.02417    0.00354   -0.00048   -0.00581
C7    1    0.241087    0.381087    0.718484    11.00000    0.01369    0.01533 =
         0.02584    0.00448    0.00211   -0.00528
AFIX  43
H7    2    0.263899    0.474494    0.741664    11.00000   -1.20000
AFIX   0
C8    1    0.236304    0.312136    0.802491    11.00000    0.01674    0.01770 =
         0.02091    0.00245    0.00075   -0.00361
AFIX  43
H8    2    0.254668    0.358636    0.882539    11.00000   -1.20000
AFIX   0
C9    1    0.219282    0.388631    0.510293    11.00000    0.01461    0.01689 =
         0.02146    0.00225    0.00167   -0.00310
C10   1    0.267141    0.581185    0.457198    11.00000    0.01635    0.01669 =
         0.02188    0.00319    0.00235   -0.00370
C11   1    0.296962    0.749169    0.345446    11.00000    0.01687    0.02388 =
         0.02188    0.00622    0.00022   -0.00322
C12   1    0.256217    0.619557    0.276009    11.00000    0.01416    0.01615 =
         0.02738    0.00582    0.00170   -0.00284
C13   1    0.235624    0.597982    0.155277    11.00000    0.02033    0.01546 =
         0.02765    0.00313   -0.00055   -0.00428
C14   1    0.257114    0.703979    0.105745    11.00000    0.01927    0.03062 =
         0.02294    0.01084   -0.00030   -0.00437
C15   1    0.298272    0.831910    0.176046    11.00000    0.01805    0.02395 =
         0.03546    0.01675    0.00319   -0.00257
C16   1    0.318551    0.854626    0.296121    11.00000    0.01603    0.01519 =
         0.03369    0.00683    0.00242   -0.00364
B1    3    0.192832    0.370727    0.295043    11.00000    0.02029    0.01785 =
         0.02451    0.00546   -0.00102   -0.00492
N1    4    0.202309    0.102785    0.854264    11.00000    0.03120    0.01771 =
         0.02456    0.00664    0.00249   -0.00346
N2    4    0.260923    0.519637    0.541869    11.00000    0.01817    0.01560 =
         0.02486    0.00498    0.00088   -0.00368
N3    4    0.239107    0.526578    0.341048    11.00000    0.01436    0.01910 =
         0.02250    0.00455   -0.00080   -0.00441
O1    5    0.186062    0.319771    0.401337    11.00000    0.03276    0.01669 =
         0.01886    0.00223   -0.00096   -0.00403
F1    6    0.344266    0.326425    0.235358    11.00000    0.03745    0.02294 =
         0.02391    0.00149    0.00638    0.00408
F2    6    0.008523    0.334746    0.229231    11.00000    0.03069    0.02059 =
         0.02504    0.00447   -0.00719   -0.01106
F3    6    0.198184    0.476673    0.084162    11.00000    0.03949    0.02161 =
         0.02096    0.00253   -0.00012   -0.00775
F4    6    0.239260    0.683652   -0.010159    11.00000    0.03210    0.03320 =
         0.02446    0.01217   -0.00057   -0.00454
F5    6    0.316804    0.933002    0.125621    11.00000    0.03677    0.02408 =
         0.03609    0.01619    0.00223   -0.00287
F6    6    0.359365    0.978290    0.362596    11.00000    0.03461    0.01469 =
         0.03581    0.00506    0.00346   -0.00429
S1    7    0.317696    0.752247    0.493262    11.00000    0.02043    0.01445 =
         0.02269    0.00347    0.00029   -0.00529
HKLF    4




REM  exp_5263 in P-1
REM R1 =  0.0867 for    2530 Fo > 4sig(Fo)  and  0.0958 for all    2991 data
REM    255 parameters refined using      0 restraints

END

WGHT      0.1768      1.7721

REM Highest difference peak  1.207,  deepest hole -0.913,  1-sigma level  0.159
Q1    1   0.1675  0.7555  0.4979  11.00000  0.05    1.21
Q2    1   0.4656  0.7524  0.5022  11.00000  0.05    1.13
Q3    1   0.3121  0.7748  0.4198  11.00000  0.05    0.96
Q4    1   0.1002  0.2471  0.4993  11.00000  0.05    0.92
Q5    1   0.1689  0.3383  0.2372  11.00000  0.05    0.90
Q6    1   0.2590  0.2485  0.4988  11.00000  0.05    0.83
Q7    1   0.5410  0.3190  0.2255  11.00000  0.05    0.72
Q8    1  -0.1554  0.3363  0.2303  11.00000  0.05    0.70
Q9    1   0.6216  0.3361  0.2366  11.00000  0.05    0.69
Q10   1   0.5067  0.3349  0.2417  11.00000  0.05    0.68
Q11   1   0.3143  0.6986  0.5543  11.00000  0.05    0.67
Q12   1   0.1674  0.9205  0.1212  11.00000  0.05    0.64
Q13   1   0.4730  0.9239  0.1369  11.00000  0.05    0.59
Q14   1   0.2414  0.6757  0.1762  11.00000  0.05    0.58
Q15   1   0.3671  0.4773  0.0942  11.00000  0.05    0.56
Q16   1   0.0627  0.0971  0.8492  11.00000  0.05    0.55
Q17   1   0.1584  0.1414  0.7030  11.00000  0.05    0.54
Q18   1   0.1115  0.5139  0.3257  11.00000  0.05    0.53
Q19   1   0.3356  0.0965  0.8615  11.00000  0.05    0.53
Q20   1   0.1855  0.3055  1.0043  11.00000  0.05    0.53
;
_shelx_res_checksum              93833
_shelx_hkl_file
;
   0   0  -2 1834.44 86.7866  32
   0   0  -3 28495.7 420.780  32
   0   0  -3 28197.8 429.271   4
   0   0  -4 11927.9 330.072   4
   0   0  -4 11940.2 307.959  32
   0   0  -5 106.637 45.8866   4
   0   0  -6 14938.7 489.466   4
   0   0   7 3446.93 643.346  19
   0   0   8 27840.6 1956.39  19
   0   0   9 700.099 173.370  28
   0   0   9 458.611 193.491  26
   0   0  10 3583.81 485.750  26
   0   0  10 4419.73 407.465  28
   0   0  11 406.506 144.441  28
   0   0  11 376.172 184.088  26
   0   0  11 454.808 289.404  27
   0   0  12 2651.04 484.827  27
   0   0  12 4137.95 331.341  28
   0   0  13 181.019 73.4040  28
   0  -1  14 6295.83 301.093  28
   0  -1  13 2224.56 230.812  28
   0  -1  12 4707.65 520.766  26
   0  -1  12 5610.47 414.971  28
   0  -1  11 1575.58 335.417  26
   0  -1  11 2312.79 289.447  28
   0  -1  10 315.463 135.322  28
   0  -1  10 187.647 149.688  26
   0  -1   9 2040.46 281.869  28
   0  -1   9 1358.84 298.939  26
   0   1  -7 8700.53 442.851   4
   0  -1   6 80115.1 2776.27  22
   0   1  -6 89063.6 1226.03   4
   0  -1   5 53121.3 2036.72  22
   0   1  -5 65167.9 931.177   4
   0  -1   4 45140.7 1601.19  22
   0   1  -2 7867.43 179.946  30
   0  -1   1 24221.1 440.625  33
   0   1   1 197340. 613.294   1
   0  -1  -2 5963.24 137.828   4
   0  -1  -3 24724.6 358.777   4
   0   1   4 42693.1 1588.94  19
   0  -1  -4 51959.0 628.390   4
   0   1   5 1525.77 367.092  19
   0  -1  -5 1924.81 152.863  32
   0   1   6 18.3786 160.267  19
   0   1   7 13762.9 1258.67  19
   0   1   8 558.409 295.792  19
   0   1   9 152.239 177.923  26
   0   1   9 280.958 107.277  28
   0   1  10 4290.92 657.151  27
   0   1  10 5609.19 631.610  26
   0   1  11 146.566 85.9637  28
   0   1  11 167.637 159.167  26
   0   1  11 111.218 239.644  27
   0   1  12 288.001 276.775  27
   0  -2  14 12717.5 460.506  28
   0  -2  13 2732.37 272.892  28
   0  -2  13 1781.73 173.651  29
   0  -2  12 1441.67 228.145  28
   0  -2  12 1263.21 275.413  26
   0  -2  11 15600.0 947.120  26
   0  -2  11 20183.1 859.237  28
   0  -2  10 73980.1 1661.48  28
   0  -2  10 64782.4 1899.55  26
   0  -2   9 380.671 126.798  28
   0   2  -8 9944.07 535.545   4
   0  -2   7 4700.96 788.047  22
   0   2  -7 5541.46 358.626   4
   0   2  -6 15286.5 414.369  30
   0   2  -6 14448.8 522.100   4
   0   2  -5 26514.5 504.772  30
   0  -2   5 20764.0 1261.14  22
   0   2  -4 114337. 959.967  30
   0   2  -3 1544.65 107.343  30
   0   2  -2 10614.1 256.357  30
   0  -2   1 30287.0 451.619  33
   0  -2   0 23095.8 358.820   6
   0  -2   0 22225.4 323.419   3
   0  -2  -1 98045.1 833.964   6
   0   2   1 99624.7 630.727   1
   0   2   1 96801.1 978.326  20
   0  -2  -1 96660.0 864.968   5
   0   2   2 3516.89 219.319  20
   0   2   2 3941.38 119.034   1
   0   2   2 3520.03 305.953  21
   0   2   3 2404.73 353.719  19
   0   2   3 2914.99 337.583  21
   0   2   4 75533.2 2141.24  19
   0   2   4 83147.0 1978.60  21
   0   2   5 5919.90 679.671  19
   0   2   6 3096.56 556.824  19
   0   2   7 904.292 317.804  19
   0   2   8 10662.8 768.937  26
   0   2   8 10312.9 721.704  31
   0   2   9 4541.64 544.202  26
   0   2   9 2537.90 502.688  27
   0   2  10 80.7257 208.276  27
   0   2  11 7627.71 841.484  27
   0   2  12 5719.94 435.796  18
   0   2  13 1301.88 165.644  18
   0  -3  14 267.459 77.8433  28
   0  -3  13 2341.31 356.812  26
   0  -3  13 3903.14 315.106  28
   0  -3  12 496.123 155.458  28
   0  -3  12 500.837 198.743  26
   0  -3  11 228.468 117.779  28
   0  -3  11 7.43626 103.676  26
   0  -3  10 3057.80 359.315  28
   0  -3  10 1893.31 331.584  26
   0  -3   9 14430.4 704.059  28
   0   3  -9 14302.2 728.859   4
   0   3  -8 4873.30 389.818   4
   0  -3   7 341.190 236.156  22
   0   3  -7 550.324 121.233   4
   0   3  -6 574.931 88.9695  30
   0   3  -6 516.097 108.889   4
   0  -3   6 410.031 316.328  22
   0   3  -5 86309.8 1014.00  30
   0   3  -4 210.056 53.4837  30
   0  -3   3 112.918 58.8363   6
   0   3  -3 106.973 38.3000  30
   0   3  -2 29185.2 512.368  30
   0  -3   1 21930.8 442.610   6
   0  -3   1 16740.5 347.454  33
   0  -3   0 43170.5 544.449   3
   0  -3   0 43358.2 619.520   6
   0  -3  -1 17962.8 411.274   6
   0   3   1 18503.8 517.844  20
   0   3   1 17938.9 347.689   1
   0  -3  -2 31950.0 657.489   5
   0  -3  -2 33437.2 622.543   6
   0   3   2 31305.3 750.276  20
   0   3   2 30538.2 1097.70  19
   0   3   2 31434.0 427.135   1
   0   3   3 624.913 189.336  19
   0  -3  -3 504.338 91.2244   5
   0   3   3 690.690 176.318  21
   0   3   4 1807.25 329.957  21
   0   3   4 1925.24 348.469  19
   0  -3  -4 1726.21 197.893   5
   0   3   5 3419.59 518.157  19
   0   3   6 11754.9 1031.94  19
   0   3   7 483.253 250.336  19
   0   3   8 35700.0 1427.50  26
   0   3   8 32919.4 1332.67  31
   0   3   9 849.040 310.670  27
   0   3   9 2026.23 345.432  31
   0   3  10 3914.59 648.732  27
   0   3  11 2399.05 301.728  18
   0   3  11 2744.43 520.819  27
   0   3  12 58.8001 61.9728  18
   0  -4  14 2147.74 157.985  29
   0  -4  14 4428.78 278.580  28
   0  -4  13 224.371 105.371  28
   0  -4  12 2898.64 310.810  28
   0  -4  11 67.3374 79.9305  28
   0  -4  11 60.3950 41.6672   7
   0  -4  10 7009.36 536.530  28
   0  -4  10 8571.48 430.391   7
   0  -4   9 1796.09 260.833  28
   0  -4   9 1987.52 210.375   7
   0   4  -8 5911.80 446.056   4
   0   4  -7 24691.8 664.196  30
   0   4  -7 23906.5 816.471   4
   0   4  -6 37584.9 947.779   4
   0   4  -6 40107.0 808.490  30
   0   4  -5 18829.1 526.244  30
   0   4  -4 49405.4 818.825  30
   0  -4   4 47701.7 935.305   6
   0  -4   3 47330.7 859.119   6
   0   4  -3 47091.8 778.823  30
   0  -4   2 35918.4 704.342   6
   0  -4   1 341.737 76.9619   6
   0  -4   0 2705.72 184.925   6
   0  -4  -1 76639.2 988.306   6
   0   4   1 76381.2 873.342   1
   0   4   1 76963.6 1257.05  20
   0  -4  -2 106107. 1229.96   6
   0   4   2 105169. 1591.44  20
   0   4   3 24732.5 1147.83  21
   0  -4  -3 25721.6 661.777   6
   0  -4  -4 675.107 127.544   6
   0   4   4 839.881 256.537  21
   0   4   5 42122.1 1855.99  21
   0   4   5 47128.6 1976.76  19
   0   4   6 39.7065 141.740  19
   0   4   7 32538.3 1661.28  27
   0   4   7 46539.9 1690.18  31
   0   4   8-21.8202 100.482  31
   0   4   8-36.0422 46.3852  13
   0   4   9 314.603 101.114  18
   0   4   9 464.557 88.4736  13
   0   4   9 310.206 229.166  27
   0   4   9 611.823 208.938  31
   0   4  10 411.901 294.569  27
   0   4  10 440.149 132.209  18
   0   4  11 706.553 153.586  18
   0   4  12 7268.40 340.592  18
   0  -5  14 6142.53 305.909  28
   0  -5  13 1153.28 168.271  28
   0  -5  12 797.687 166.718  28
   0  -5  12 823.718 127.132   7
   0  -5  11 672.431 124.435   7
   0  -5  11 508.439 141.885  28
   0  -5  10 11984.1 519.471   7
   0  -5  10 10421.9 603.463  28
   0  -5   9 75544.3 1305.17   7
   0  -5   9 66397.9 1491.34  28
   0   5  -8 1743.11 255.348   4
   0   5  -7 8104.69 502.191   4
   0   5  -7 8245.64 422.593  30
   0   5  -6 1456.63 176.879  30
   0   5  -6 1510.78 212.956   4
   0   5  -5 51.4742 41.7470  30
   0  -5   4 7398.01 412.741   6
   0  -5   3 372.354 102.165   6
   0  -5   2 5564.56 315.003   6
   0  -5   1 25568.4 657.144   6
   0  -5   0 25114.8 639.789   6
   0  -5  -1 6120.24 323.335   6
   0   5   1 6054.58 406.483  20
   0  -5  -2 11688.0 464.921   6
   0   5   2 11235.4 596.595  20
   0   5   3-27.0490 68.0730  21
   0  -5  -3 11.3986 55.7988   6
   0   5   4 6614.21 761.639  21
   0   5   5 6577.13 794.942  21
   0   5   6 5397.07 622.600  31
   0   5   6 4732.89 423.443  18
   0   5   6 3754.35 544.424  27
   0   5   7 6.98656 104.759  31
   0   5   7-15.7000 105.791  18
   0   5   7-271.051 239.571  27
   0   5   8 8983.69 605.175  18
   0   5   8 8461.20 423.224  13
   0   5   8 8738.35 710.972  31
   0   5   8 7165.75 803.569  27
   0   5   9 112.786 77.2534  18
   0   5   9 214.258 58.8765  13
   0   5  10 255.114 107.124  18
   0   5  11 774.957 124.009  18
   0  -6  13 10676.9 443.679  28
   0  -6  13 10551.0 360.114   7
   0  -6  12 1.10359 60.3688  28
   0  -6  12 52.3957 48.6034   7
   0  -6  11 2374.83 226.188   7
   0  -6  11 2279.90 256.841  28
   0  -6  10 1891.68 210.039   7
   0  -6   9 3139.00 275.366   7
   0  -6   8 6618.33 384.722   7
   0  -6   8 6814.38 429.148   8
   0   6  -7 2877.51 325.008   4
   0   6  -6 21998.2 836.192   4
   0  -6   5 25191.9 866.902   6
   0  -6   4 1725.91 230.639   6
   0  -6   3 10050.9 507.628   6
   0  -6   2 14542.4 580.596   6
   0  -6   1 4312.83 307.445   6
   0  -6   0 24368.2 715.329   6
   0   6   1 7499.37 516.361  20
   0  -6  -1 7615.81 405.071   6
   0  -6  -2 15786.7 601.780   6
   0   6   2 14725.0 1023.32  21
   0   6   2 15420.9 789.795  20
   0   6   3 37483.9 1747.89  21
   0   6   4 444.884 153.732  18
   0   6   4 364.099 200.652  21
   0   6   4 511.242 219.761  31
   0   6   5 75550.8 1649.95  18
   0   6   5 72677.6 2407.56  31
   0   6   6 27960.6 1039.31  18
   0   6   6 26624.5 1419.34  31
   0   6   6 30598.8 851.274  15
   0   6   7 367.511 157.253  31
   0   6   7 437.465 228.392  27
   0   6   7 545.424 155.882  18
   0   6   8 2161.25 207.328  13
   0   6   8 1665.02 388.451  27
   0   6   8 2511.83 301.580  18
   0   6   8 2349.94 354.688  31
   0   6   9 14566.7 802.091  31
   0   6   9 15453.4 645.428  18
   0   6  10 306.105 79.7537  18
   0  -7  13 2744.54 176.642   7
   0  -7  12 5027.71 282.665   7
   0  -7  11 717.302 129.521   7
   0  -7  10 1942.69 214.466   7
   0  -7   9 3751.51 298.676   7
   0  -7   9 3678.08 331.727   8
   0  -7   8 3853.43 336.649   8
   0  -7   8 3373.96 292.957   7
   0  -7   7 52.7802 50.4958   7
   0   7  -7 27.1779 50.2514  17
   0  -7   7 27.5995 65.8455   8
   0  -7   6 794.082 157.337   8
   0   7  -6 543.158 140.160   4
   0  -7   5 21495.2 867.434   6
   0   7  -5 21508.9 830.499   4
   0  -7   4 1869.10 253.091   6
   0   7  -4 1630.14 219.425   4
   0  -7   3 1496.35 222.431   6
   0  -7   2 6114.19 438.177   6
   0  -7   1 4001.77 334.409   6
   0   7   0 2120.81 301.985  20
   0  -7   0 1988.45 236.140   6
   0   7   1 12203.6 746.030  20
   0  -7  -1 13005.0 593.196   6
   0   7   2 275.467 119.458  20
   0   7   2 304.636 180.563  31
   0   7   2 292.421 182.399  21
   0   7   3 1875.96 236.709  18
   0   7   3 1701.14 377.494  31
   0   7   3 1911.65 207.927  15
   0   7   4 14.8576 55.8824  15
   0   7   4-33.1940 73.4389  18
   0   7   4-109.660 167.174  31
   0   7   5-93.5726 98.5415  31
   0   7   5 91.0422 69.6786  15
   0   7   5-9.79594 73.6185  18
   0   7   6 5646.59 377.184  15
   0   7   6 4799.55 587.818  31
   0   7   6 4918.51 401.260  18
   0   7   7-55.1498 69.5818  18
   0   7   7-9.92085 95.4192  31
   0   7   8 142.163 101.761  31
   0   7   8 46.2098 25.0450  13
   0   7   8 113.105 109.826  18
   0   7   9 2622.66 141.561  13
   0  -8  13 4444.60 205.680   7
   0  -8  12 1030.47 124.762   7
   0  -8  11 450.693 94.6659   7
   0  -8  10 44.6919 44.6413   7
   0  -8   9 23139.3 827.825   8
   0  -8   9 23360.6 724.682   7
   0   8  -8 3197.07 290.634  17
   0  -8   8 3465.05 289.701   7
   0  -8   8 3511.34 331.558   8
   0  -8   7 5566.20 408.299   8
   0   8  -7 5395.82 365.866  17
   0  -8   7 5247.85 347.795   7
   0  -8   6 17038.0 709.323   8
   0   8  -6 18176.0 676.440  17
   0  -8   5 220514. 2426.27   8
   0   8  -5 220514. 2426.68  17
   0   8  -4 13425.2 693.316  17
   0   8  -3 237.900 85.7291  17
   0   8  -2 1746.82 184.001  17
   0  -8   2 1055.36 194.077   6
   0  -8   1 69763.9 1602.12   6
   0   8  -1 80214.6 2576.24  31
   0   8   0-68.9172 149.387  31
   0   8   1 889.523 147.107  15
   0   8   1 1005.27 286.947  31
   0   8   2 1346.11 377.985  31
   0   8   2 1810.58 211.579  15
   0   8   3 125.027 65.9726  15
   0   8   3 136.531 130.951  31
   0   8   4 1019.16 294.431  31
   0   8   4 1366.68 190.860  15
   0   8   5 8007.36 799.711  31
   0   8   5 9741.89 507.069  15
   0   8   6 9253.91 740.947  31
   0   8   6 11176.6 508.662  15
   0   8   7 5310.26 304.779  13
   0   8   7 5586.81 494.461  31
   0   8   8 259.117 103.965  31
   0   8   8 145.358 40.6736  13
   0  -9  12 1193.88 114.711   7
   0  -9  11 3967.58 243.109   7
   0  -9  10 121.053 53.3220   7
   0   9  -9 593.771 128.216  17
   0  -9   9 850.418 133.494   7
   0   9  -8 2903.44 285.012  17
   0  -9   8 3212.23 257.186   7
   0  -9   8 3255.10 317.103   8
   0   9  -7 5335.61 376.678  17
   0  -9   7 5600.42 338.766   7
   0  -9   7 5454.19 410.750   8
   0  -9   6 9103.09 523.855   8
   0   9  -6 8788.85 478.221  17
   0   9  -5 19967.0 727.856  17
   0  -9   5 19516.9 767.846   8
   0   9  -4 9277.57 525.023  17
   0  -9   4 8824.93 510.054   8
   0  -9   3 15310.9 637.222   8
   0   9  -3 17873.0 750.340  17
   0   9  -2 17932.2 627.923  15
   0   9  -2 28645.6 933.561  17
   0   9  -2 16827.2 1277.13  31
   0  -9   2 25329.5 781.413   8
   0   9  -1 593.679 266.389  31
   0   9  -1 775.118 137.044  15
   0   9   0 482.334 116.029  15
   0   9   0 562.632 246.973  31
   0   9   1 1214.16 180.182  15
   0   9   1 903.362 317.905  31
   0   9   2 15558.7 638.779  15
   0   9   2 11659.2 1039.66  31
   0   9   3 152.838 71.4489  15
   0   9   3 234.768 170.530  31
   0   9   4 2004.32 230.071  15
   0   9   4 1687.85 355.359  31
   0   9   5 1594.93 197.697  15
   0   9   5 1187.80 269.184  31
   0   9   6 634.465 116.750  15
   0   9   6 500.304 148.248  31
   0   9   7 2583.76 270.562  31
   0   9   7 2270.06 154.586  13
   0 -10  11 2412.45 158.814   7
   0 -10  10 2287.28 177.183   7
   0  10  -9 3308.97 281.725  17
   0 -10   9 4512.47 261.090   7
   0  10  -8 410.433 116.037  17
   0 -10   8 511.070 95.1720   7
   0 -10   8 417.569 109.188   8
   0  10  -7 1375.49 196.866  17
   0 -10   7 1513.92 210.236   8
   0  10  -6 436.431 115.388  17
   0 -10   6 590.908 143.135   8
   0 -10   5 10325.7 547.621   8
   0  10  -5 9591.25 496.869  17
   0  10  -4 12978.0 1106.43  31
   0 -10   4 15463.3 657.329   8
   0  10  -4 14131.5 614.387  17
   0  10  -3 930.767 301.766  31
   0 -10   3 1197.50 186.281   8
   0  10  -3 1021.73 170.737  17
   0  10  -2 696.289 122.807  15
   0  10  -2 775.349 148.967  17
   0  10  -2 570.985 259.870  31
   0  10  -1 13541.4 574.247  15
   0  10  -1 15254.8 598.732  17
   0  10   0 555.622 123.522  15
   0  10   0 422.306 213.544  31
   0  10   1 0.11005 107.727  31
   0  10   1 70.8195 64.6288  15
   0  10   2 1446.72 342.537  31
   0  10   2 1949.35 227.985  15
   0  10   3 10022.7 480.790  15
   0  10   3 7558.70 735.674  31
   0  10   4 3517.45 277.557  15
   0  10   4 2816.73 389.162  31
   0  10   5 302.605 114.417  31
   0  10   5 409.454 89.8539  15
   0  11  -9-45.0161 53.6408  17
   0  11  -8 562.193 120.827  17
   0  11  -7 3575.88 295.680  17
   0 -11   7 3966.78 315.998   8
   0  11  -6 2672.06 451.771  31
   0 -11   6 3363.78 291.431   8
   0  11  -6 2667.05 264.745  17
   0 -11   5 0.97947 53.3873   8
   0  11  -5 132.707 143.004  31
   0  11  -5-40.3023 75.2015  17
   0  11  -4 1639.96 207.125  17
   0  11  -4 1637.64 364.117  31
   0 -11   4 2140.86 229.652   8
   0  11  -3 9065.08 459.717  17
   0  11  -3 7023.97 755.526  31
   0  11  -2 280.960 81.1742  17
   0  11  -2 369.106 188.579  31
   0  11  -1 829.421 137.092  15
   0  11  -1 524.402 198.430  31
   0  11   0 3369.71 274.042  15
   0  11   0 2785.33 449.435  31
   0  11   1 2011.83 362.179  31
   0  11   1 2532.83 231.047  15
   0  11   2 1725.43 192.414  15
   0  11   2 1412.96 290.925  31
   0  11   3 255.954 74.4627  15
   0  11   3 206.212 100.209  31
   0  11   4 20.4441 47.4200  31
   0  11   4 88.5292 41.2219  15
   0  12  -8 5570.17 311.059  17
   0  12  -8 5030.41 424.499  31
   0  12  -7 1859.71 284.983  31
   0  12  -7 1947.71 189.841  17
   0  12  -6 50.6064 71.2139  31
   0  12  -6 128.997 68.6999  17
   0  12  -5 235.334 123.581  31
   0  12  -5 301.476 85.2598  17
   0  12  -4 4750.87 308.834  17
   0  12  -4 4587.26 501.779  31
   0  12  -3 13517.7 499.918  17
   0  12  -3 12704.4 829.019  31
   0  12  -2 5192.13 298.881  17
   0  12  -2 5776.41 552.796  31
   0  12  -1 2242.28 181.854  15
   0  12  -1 1701.93 302.013  31
   0  12   0 7172.69 568.397  31
   0  12   0 9314.13 371.096  15
   0  12   1 2409.35 302.798  31
   0  12   1 3033.94 203.559  15
  -1  12   2 62.6451 63.7205  31
  -1  12   1 1661.92 279.633  31
  -1  12   0 79.4464 32.7830  16
  -1  12   0 125.224 53.7325  15
  -1  12   0 130.911 98.0281  31
  -1  12  -1 150.284 50.7748  16
  -1  12  -1 87.7498 84.8354  31
  -1  12  -2 788.281 232.439  31
  -1  12  -3 115.668 112.006  31
  -1  12  -3-31.9289 54.3517  17
  -1  12  -4 1015.75 154.783  17
  -1  12  -4 1151.45 276.825  31
  -1  12  -5 168.325 77.5124  17
  -1  12  -5 61.2776 109.939  31
  -1  12  -6 1239.76 172.744  17
  -1  12  -6 1486.05 296.200  31
  -1  12  -7 1310.76 257.454  31
  -1  12  -7 1152.40 164.337  17
  -1  12  -8 77.9754 47.2871  17
  -1  12  -8 205.144 108.553  31
  -1  11   4 1125.46 198.570  31
  -1  11   4 937.951 105.210  13
  -1  11   3 5204.30 502.667  31
  -1  11   3 4455.47 295.246  15
  -1  11   2 2697.96 433.528  31
  -1  11   2 2663.03 240.201  15
  -1  11   1 1572.81 191.573  15
  -1  11   1 1353.55 329.895  31
  -1  11   0 3903.44 300.831  15
  -1  11   0 3819.88 552.915  31
  -1  11  -1 905.375 300.214  31
  -1  11  -1 1002.39 154.871  15
  -1  11  -2 739.678 146.122  17
  -1  11  -2 701.156 258.872  31
  -1  11  -3 1837.37 409.192  31
  -1  11  -3 1706.65 215.470  17
  -1  11  -4 1031.26 171.964  17
  -1  11  -4 1113.10 316.586  31
   1 -11   4 686.235 132.213   8
  -1  11  -5 6858.06 442.385  17
  -1  11  -5 8897.43 853.146  31
  -1  11  -6 1726.67 226.829  17
  -1  11  -7 1990.33 244.679  17
  -1  11  -8 626.328 139.297  17
  -1  11  -9 682.401 130.032  17
  -1  10   6 172.065 45.9345  13
  -1  10   6 174.294 76.5015  31
  -1  10   5 1.35643 38.0215  15
  -1  10   5 17.0994 73.8574  31
  -1  10   5-25.8817 29.9327  13
  -1  10   4 814.445 140.569  15
  -1  10   4 772.198 221.333  31
  -1  10   3 1038.31 170.573  15
  -1  10   3 1124.45 308.089  31
  -1  10   2 1305.00 192.418  15
  -1  10   2 1191.42 323.009  31
  -1  10   1 6622.92 417.007  15
  -1  10   1 6324.63 761.095  31
  -1  10   0 339.413 205.834  31
  -1  10   0 339.356 107.861  15
  -1  10  -1 35.0237 132.346  31
  -1  10  -1 54.7017 56.3161  15
  -1  10  -2 7309.18 835.208  31
  -1  10  -2 6586.66 417.824  17
   1 -10   3 2232.17 244.123   8
  -1  10  -3 1928.77 229.372  17
  -1  10  -3 2235.90 474.344  31
  -1  10  -4 5054.59 380.289  17
   1 -10   4 5426.61 388.011   8
  -1  10  -5 146.752 90.0536  17
   1 -10   5-11.3914 73.6731   8
   1 -10   6 103.061 66.5700   8
  -1  10  -6 189.481 93.7779  17
  -1  10  -7 736.218 162.908  17
  -1  10  -8 25.2401 76.9870  17
   1 -10   8 43.0483 46.7706   7
  -1  10  -9 177.257 76.4584  17
   1 -10   9 400.744 82.1561   7
   1 -10  10 54.2848 31.0537   7
   1 -10  11 606.927 78.7548   7
  -1   9   7 2199.87 163.572  13
  -1   9   7 2495.09 284.528  31
  -1   9   6 1248.01 152.657  13
  -1   9   6 1512.45 271.848  31
  -1   9   6 1395.72 173.243  15
  -1   9   5 3865.51 510.941  31
  -1   9   5 4049.16 319.363  15
  -1   9   4 4192.05 343.227  15
  -1   9   4 4515.21 624.852  31
  -1   9   3 32.4937 112.439  31
  -1   9   3 17.1212 55.4910  15
  -1   9   2 2279.33 254.363  15
  -1   9   2 2344.65 477.390  31
  -1   9   1 10209.8 967.950  31
  -1   9   1 9561.47 510.031  15
  -1   9   0 6438.72 399.237  15
  -1   9   0 6380.40 785.634  31
  -1   9  -1 51343.4 1077.54  17
  -1   9  -1 50777.1 2154.12  31
  -1   9  -2 730.236 141.738  17
  -1   9  -2 659.403 280.774  31
   1  -9   3 1703.43 211.604   8
  -1   9  -3 1934.09 220.958  17
  -1   9  -4-48.6189 65.2491  17
   1  -9   4-24.6461 59.6708   8
   1  -9   5 11526.2 586.245   8
  -1   9  -5 12964.1 578.683  17
   1  -9   6 10677.7 563.420   8
  -1   9  -6 10792.7 554.293  17
   1  -9   7 10885.5 456.850   7
   1  -9   7 10406.5 570.546   8
  -1   9  -7 10525.9 548.461  17
   1  -9   8 1.96102 42.1341   7
  -1   9  -8 13.0906 66.3020  17
  -1   9  -9 2545.61 284.884  17
   1  -9   9 3769.52 266.872   7
   1  -9  10 1458.76 158.764   7
   1  -9  11 667.037 96.5826   7
   1  -9  12 373.831 64.6361   7
  -1   8   8 19.0048 27.1378  13
  -1   8   8 137.707 86.9508  31
  -1   8   7 1156.20 149.053  13
  -1   8   7 1288.11 251.322  31
  -1   8   6 767.009 214.232  31
  -1   8   6 773.479 144.641  15
  -1   8   5 1279.59 189.664  15
  -1   8   5 1334.94 336.302  31
  -1   8   4 3537.33 583.527  31
  -1   8   4 3716.58 319.668  15
  -1   8   3 61.8629 73.6180  15
  -1   8   3-37.3372 139.506  31
  -1   8   2 447.110 113.353  15
  -1   8   2 342.383 137.908  31
  -1   8   1 212.915 75.0234  15
  -1   8   1 206.070 173.736  31
  -1   8   0 15497.6 583.561  15
  -1   8   0 18096.2 1216.21  31
  -1   8  -1-15.8436 148.268  31
  -1   8  -2 2435.84 291.045   1
   1  -8   3 2640.21 294.470   6
  -1   8  -3 3157.06 340.754   1
  -1   8  -4 1182.60 168.397  17
   1  -8   4 998.724 165.673   8
   1  -8   5 9324.72 504.822   8
  -1   8  -5 9679.35 486.985  17
   1  -8   6 2275.89 266.928   8
  -1   8  -6 2188.08 248.898  17
   1  -8   6 2384.14 217.881   7
   1  -8   7-17.9953 82.3267   8
   1  -8   7 1.30704 45.7803   7
  -1   8  -7 151.008 89.3731  17
  -1   8  -8 121.821 72.4929  17
   1  -8   8 147.133 75.8005   7
   1  -8   9 7508.23 392.870   7
   1  -8  10 492.845 97.9049   7
   1  -8  11 1644.96 164.408   7
   1  -8  12 708.930 98.4409   7
  -1   7   9 779.777 93.1868  13
  -1   7   8 587.163 128.222  18
  -1   7   8 431.666 88.9901  13
  -1   7   8 607.046 170.905  31
  -1   7   7 76.5528 74.0721  31
  -1   7   7 110.750 86.9512  18
  -1   7   7 53.2632 38.3293  13
  -1   7   6 13102.8 968.181  31
  -1   7   6 13903.9 652.740  18
  -1   7   6 12513.0 574.606  15
  -1   7   5 1027.30 172.627  15
  -1   7   5 1016.78 302.897  31
  -1   7   5 1176.46 191.674  18
  -1   7   4 560.291 141.082  18
  -1   7   4 546.079 199.158  31
  -1   7   4 552.804 121.011  15
  -1   7   3 8700.67 446.135  15
  -1   7   3 9000.56 863.899  31
  -1   7   3 8706.93 476.234  18
  -1   7   2 66.6515 53.3348  20
  -1   7   1 8846.79 655.034  20
  -1   7   0 1248.87 243.573  20
  -1   7  -1 213.054 90.8226   1
   1  -7   1 231.840 85.3648   6
  -1   7  -2 11951.2 575.937   1
   1  -7   2 11086.9 539.978   6
   1  -7   3 7685.95 468.333   6
  -1   7  -3 7271.04 471.423   1
  -1   7  -4 7859.74 474.872   4
  -1   7  -5 1875.75 253.865   4
  -1   7  -6 2394.53 307.455   4
   1  -7   6 2939.56 280.935   8
  -1   7  -7 11480.5 538.356  17
   1  -7   7 11450.5 479.594   7
   1  -7   7 10650.9 574.387   8
  -1   7  -8 1476.67 213.094  17
   1  -7   8 1758.61 196.753   7
   1  -7   9 2065.76 215.662   7
   1  -7  10 6871.39 371.156   7
   1  -7  11 9960.23 426.762   7
   1  -7  12 2157.94 177.711   7
   1  -7  13 390.453 64.9001   7
  -1   6  10 508.205 237.069  27
  -1   6  10 510.577 110.336  18
  -1   6   9 536.153 171.417  31
  -1   6   9 251.076 234.540  27
  -1   6   9 391.457 79.6469  13
  -1   6   9 521.059 132.506  18
  -1   6   8 463.533 141.490  18
  -1   6   8 242.699 184.525  27
  -1   6   8 321.288 80.6167  13
  -1   6   8 384.964 153.425  31
  -1   6   7 1580.77 336.624  27
  -1   6   7 2384.72 393.425  31
  -1   6   7 2809.54 329.597  18
  -1   6   6 1192.64 201.061  18
  -1   6   6 755.301 320.547  27
  -1   6   6 1327.68 186.606  15
  -1   6   6 1207.30 302.258  31
  -1   6   5 6526.63 731.081  31
  -1   6   5 7120.62 498.069  18
  -1   6   5 6750.91 399.357  15
  -1   6   4 42092.5 2092.52  21
  -1   6   3 760.334 256.948  21
  -1   6   2 7195.71 564.480  20
  -1   6   1 4913.58 435.860  20
  -1   6   0 149.258 87.9571  20
  -1   6   0 192.330 76.8179   1
   1  -6   0 178.238 54.4388   6
  -1   6  -1 2740.05 247.064   1
   1  -6   1 2677.15 237.308   6
  -1   6  -2 6524.33 391.758   1
   1  -6   2 9195.20 439.856   6
   1  -6   3 5134.08 344.108   6
  -1   6  -3 4867.15 323.988   4
  -1   6  -4 4801.16 349.092   4
  -1   6  -5 1401.04 207.873   4
  -1   6  -6 634.865 150.318   4
  -1   6  -7 7625.29 540.122   4
   1  -6   8 51.6265 62.4884   7
   1  -6   9 20708.7 666.461   7
   1  -6  10 8572.03 423.000   7
   1  -6  10 8295.81 489.502  28
   1  -6  11 261.537 84.9391   7
   1  -6  11 236.884 101.597  28
   1  -6  12 398.881 107.012  28
   1  -6  12 541.514 97.6990   7
   1  -6  13 20.6548 27.4656   7
  -1   5  11 2036.49 375.280  27
  -1   5  11 2904.16 238.376  18
  -1   5  10 791.588 172.096  18
  -1   5  10 456.830 250.639  27
  -1   5   9 770.677 219.027  31
  -1   5   9 431.348 83.6402  13
  -1   5   9 568.372 144.872  18
  -1   5   8 526.202 105.512  13
  -1   5   8 613.880 199.394  31
  -1   5   8 597.949 169.091  18
  -1   5   7 25635.9 1007.54  18
  -1   5   7 27286.4 1341.52  31
  -1   5   6 4113.80 382.877  18
  -1   5   6 4786.04 562.695  31
  -1   5   5 1341.66 374.699  21
  -1   5   4 2312.33 439.688  21
  -1   5   3 29.3819 94.8674  21
  -1   5   2 5971.69 457.148  20
   1  -5  -1 38561.3 701.441   6
  -1   5   1 38076.8 805.658   1
  -1   5   1 40540.2 1094.42  20
  -1   5   0 125935. 1474.83   1
   1  -5   0 129342. 1318.87   6
  -1   5  -1 38145.3 699.874   4
  -1   5  -1 39065.8 806.910   1
  -1   5  -2 2.14147 34.2899   4
   1  -5   2 3.33987 40.0284   6
   1  -5   3 19691.4 612.557   6
  -1   5  -3 17775.1 571.512   4
  -1   5  -4 10888.5 480.921   4
  -1   5  -5 1209.42 176.049   4
  -1   5  -6 5718.01 408.602   4
  -1   5  -7 354.686 121.214   4
   1  -5   8 33283.4 798.289   7
   1  -5   9 516.823 118.239   7
   1  -5   9 576.728 153.002  28
   1  -5  10 1252.76 161.886   7
   1  -5  10 1072.90 191.169  28
   1  -5  11 4516.34 291.170   7
   1  -5  11 4369.60 370.280  28
   1  -5  12 268.692 108.118  28
   1  -5  12 144.363 54.7656   7
   1  -5  13 8203.54 414.073  28
   1  -5  14 1734.74 136.594  29
  -1   4  12 112.324 72.6416  18
  -1   4  11 415.007 124.212  18
  -1   4  11 315.324 205.387  27
  -1   4  10 1968.52 282.101  18
  -1   4  10 1256.30 359.230  27
  -1   4   9-67.0917 121.603  18
  -1   4   9-21.4250 32.4068  13
  -1   4   9-263.559 293.790  27
  -1   4   9-37.6050 86.0363  31
  -1   4   8 17690.3 1321.24  27
  -1   4   8 17660.9 1059.85  26
  -1   4   7 614.955 125.598  13
  -1   4   7 792.720 244.879  26
  -1   4   7 1105.70 255.805  31
  -1   4   6 308.596 210.295  19
  -1   4   5 200.146 161.304  21
  -1   4   5 173.095 151.406  19
  -1   4   4 6952.91 693.418  21
  -1   4   4 7152.35 713.784  19
  -1   4   3 2632.40 385.423  21
  -1   4   2 26247.6 593.699   1
  -1   4   2 27666.2 868.026  20
   1  -4  -2 26533.0 493.629   6
  -1   4   1 14979.0 584.828  20
   1  -4  -1 14305.9 357.054   6
  -1   4   1 14443.4 444.775   1
  -1   4   0 9466.89 352.480   1
   1  -4   0 9992.29 308.136   6
  -1   4  -1 12483.5 362.106   4
   1  -4   1 13343.8 385.135   6
   1  -4   2 14201.1 434.239   6
  -1   4  -2 12449.7 402.390   4
  -1   4  -3 17013.8 508.708   4
  -1   4  -4 27570.5 702.527   4
  -1   4  -5 19447.2 647.873   4
  -1   4  -6 8216.64 465.002   4
  -1   4  -7 351.677 114.193   4
  -1   4  -8 907.203 187.057   4
   1  -4   9 11816.7 614.161  28
   1  -4   9 12591.7 482.779   7
   1  -4  10 127.914 58.6508   7
   1  -4  10 23.3121 77.1269  28
   1  -4  11 258.563 124.543  28
   1  -4  11 381.873 90.9997   7
   1  -4  12 441.498 131.107  28
   1  -4  13 17.6971 57.7574  28
   1  -4  14 71.4921 29.1208  29
  -1   3  12 652.429 135.678  18
  -1   3  12 752.136 288.827  27
  -1   3  11 2361.18 475.804  27
  -1   3  11 2878.16 332.964  18
  -1   3  10 12013.7 880.362  26
  -1   3  10 11343.9 1046.15  27
  -1   3   9 389.153 84.2941  13
  -1   3   9 504.496 175.227  31
  -1   3   9 263.036 246.440  27
  -1   3   9 236.490 198.295  26
  -1   3   8 1213.43 150.201  13
  -1   3   8 1329.59 266.122  31
  -1   3   7 16190.0 1341.43  19
   1  -3  -6 4805.09 344.987  32
  -1   3   6 4785.17 691.239  19
  -1   3   5 3145.27 478.855  21
  -1   3   5 3332.52 515.781  19
  -1   3   4 4455.29 515.453  21
  -1   3   4 4217.09 519.716  19
  -1   3   3 305.032 125.166  21
  -1   3   3 247.662 56.3608   1
   1  -3  -3 283.483 49.5562   6
  -1   3   3 324.014 154.581  19
   1  -3  -2 1602.32 91.0555   6
  -1   3   2 2039.98 291.217  19
  -1   3   2 1661.42 140.645   1
  -1   3   2 1817.88 199.926  20
  -1   3   1 1316.43 154.694  20
   1  -3  -1 1299.87 91.7060   6
  -1   3   1 1374.87 123.719   1
   1  -3   0 2488.58 135.992   6
  -1   3   0 2273.48 124.028   4
  -1   3   0 2492.16 166.139   1
  -1   3  -1 9723.74 291.629   4
   1  -3   1 9314.80 281.104   6
  -1   3  -2 47837.2 719.931   4
  -1   3  -3 2601.67 186.716   4
  -1   3  -4 42841.1 826.383   4
  -1   3  -5 24470.9 689.050   4
  -1   3  -6 12824.8 555.372   4
  -1   3  -7 426.041 118.182   4
  -1   3  -8 4613.63 394.945   4
   1  -3   9 33895.9 758.164   7
   1  -3   9 32820.2 1016.81  28
   1  -3  10 2315.77 277.373  28
   1  -3  11 2329.26 280.384  28
   1  -3  12 10144.4 552.546  28
   1  -3  13 135.651 60.5185  28
   1  -3  13 67.9361 50.5128  29
  -1   2  13 1029.35 148.150  18
  -1   2  12 3067.39 498.622  27
  -1   2  11 30.0134 144.371  26
  -1   2  11-97.5498 214.878  27
  -1   2  10 155.071 208.050  27
  -1   2  10 85.4208 130.061  26
  -1   2   9 260.640 250.257  27
  -1   2   9 539.978 212.238  26
  -1   2   8 9.95056 73.3532  31
  -1   2   8 22.1167 129.695  26
  -1   2   8 79.6127 38.9385  13
  -1   2   7 140.858 219.541  19
  -1   2   6 45437.9 2147.25  19
   1  -2  -6 46069.6 995.295  32
  -1   2   5 560.482 228.479  19
  -1   2   5 530.716 190.951  21
  -1   2   4 27282.9 1187.36  21
  -1   2   4 23413.4 1225.18  19
  -1   2   3 7487.24 525.600  21
  -1   2   3 7096.59 610.929  19
  -1   2   3 6639.61 246.781   1
   1  -2  -2 34533.9 350.995   6
  -1   2   2 33490.7 551.948   1
  -1   2   2 35037.4 1071.90  33
  -1   2   2 35066.2 1095.34  19
  -1   2   1 18830.1 276.309   2
  -1   2   1 20908.9 671.632  19
  -1   2   1 20054.3 405.937   1
   1  -2  -1 19514.9 236.491   6
  -1   2   1 21866.9 600.009  33
   1  -2   0 1058.83 72.4733   6
  -1   2   0 780.314 74.6744   4
  -1   2   0 835.404 90.6572  33
  -1   2  -1 3956.21 176.029   4
   1  -2   2 32856.4 565.483  22
   1  -2   3 6022.59 363.881  22
  -1   2  -3 6346.54 272.660   4
  -1   2  -4 52.0949 40.4708   4
  -1   2  -5 1341.86 161.771   4
  -1   2  -6 1870.45 208.032   4
  -1   2  -7 4028.34 327.249   4
  -1   2  -8 386.191 113.525   4
   1  -2   9 4080.00 375.842  28
   1  -2   9 4097.77 451.330  26
   1  -2  10 16035.2 927.361  26
   1  -2  10 17760.5 759.783  28
   1  -2  11 2822.77 416.056  26
   1  -2  11 3157.52 336.927  28
   1  -2  12 392.659 119.922  28
   1  -2  12 246.843 79.6432  29
   1  -2  13 877.944 123.740  29
   1  -2  13 1186.96 166.852  28
  -1   1  12 12.1621 62.4903  28
  -1   1  12 98.1487 161.566  26
  -1   1  12-69.8002 155.194  27
  -1   1  11 14.3005 193.337  27
  -1   1  11-6.24418 141.243  26
  -1   1  11 116.015 101.457  28
  -1   1  10 739.169 283.017  26
  -1   1  10 1004.69 391.701  27
  -1   1  10 988.402 191.945  28
  -1   1   9 1785.43 357.252  26
  -1   1   9 2455.35 304.329  28
  -1   1   8 1978.92 527.978  19
   1  -1  -7 1621.71 191.219  32
  -1   1   7 1603.94 466.110  19
  -1   1   6 38118.1 1940.07  19
   1  -1  -6 44616.0 938.401  32
  -1   1   5 46620.4 2210.27  22
   1  -1  -5 46737.5 869.349  32
  -1   1   4 294.683 267.852  22
  -1   1   4 89.2933 156.528  19
   1  -1  -4 155.013 38.0891  32
  -1   1   4 157.662 100.215  21
  -1   1   3 332.241 170.971  33
  -1   1   3 299.139 227.788  22
  -1   1   3 495.797 145.343  21
  -1   1   2 41034.3 1007.99  33
  -1   1   2 38639.3 1105.13  19
  -1   1   2 40880.9 919.752  21
  -1   1   2 38576.6 552.410   1
  -1   1   1 54986.1 1255.82  22
  -1   1   1 55096.6 512.254   2
  -1   1   1 58129.4 994.752  19
  -1   1   1 56351.6 703.374  20
  -1   1   1 56041.8 885.403  33
  -1   1   0 7415.20 309.762  22
  -1   1  -1 41315.1 478.798   1
  -1   1  -2 2767.08 137.649   1
  -1   1  -3 715.089 94.5196   4
  -1   1  -4 1927.87 170.633   4
  -1   1  -4 1343.53 64.3397  30
  -1   1  -5 40410.1 828.278   4
  -1   1  -6 17963.0 610.298   4
  -1   1  -7 907.924 157.067   4
   1  -1   7 849.182 342.446  19
   1  -1   8 11537.1 1203.69  19
   1  -1   9 215.814 114.005  28
   1  -1   9 387.063 311.332  27
   1  -1   9 167.238 139.868  26
   1  -1  10 806.072 355.187  27
   1  -1  10 1514.41 227.142  28
   1  -1  10 1294.10 296.023  26
   1  -1  11 5013.79 384.588  28
   1  -1  11 3938.88 321.901  29
   1  -1  12 2015.12 208.878  29
   1  -1  12 2572.05 265.076  28
   1  -1  13 2570.78 184.977  29
   1  -1  13 3568.81 264.292  28
  -1   0  14 95.3769 53.6236  18
  -1   0  13 1692.34 198.092  28
  -1   0  12 925.823 251.655  26
  -1   0  12 906.462 176.673  28
  -1   0  12 352.522 191.726  27
  -1   0  11 222.458 122.101  28
  -1   0  11 192.670 143.717  26
  -1   0  11-205.690 255.447  27
  -1   0  10 1090.71 416.762  27
  -1   0  10 1957.02 277.241  28
  -1   0  10 1699.35 341.684  26
  -1   0   9 578.081 169.674  28
  -1   0   8 16978.2 1569.06  19
  -1   0   6 23178.9 1702.01  22
  -1   0   5 198.236 305.649  22
   1   0  -5 223.756 68.1686  32
  -1   0   4 28490.5 1504.69  22
  -1   0   4 29284.6 1220.85  33
   1   0  -3 5472.16 238.804  32
  -1   0   2 4772.14 293.508  21
  -1   0   1 79069.4 781.731  21
  -1   0   1 75944.3 430.470   6
   1   0   0 5131.53 135.359  32
  -1   0  -1 25250.7 319.378   1
   1   0   1 23752.0 480.580  19
   1   0   2 1378.81 195.185  19
  -1   0  -2 1682.51 82.2673   1
  -1   0  -2 1617.24 120.412   4
  -1   0  -3 5883.16 252.470   4
  -1   0  -3 5952.34 155.354   1
   1   0   3 5280.99 452.240  19
  -1   0  -4 23577.0 550.698   4
   1   0   4 23439.9 1096.58  19
   1   0   5 31291.0 1459.19  19
  -1   0  -5 32930.2 725.466   4
  -1   0  -6 38.4868 39.7006   4
   1   0   6-89.2003 192.369  19
   1   0   7 9230.14 972.957  19
   1   0   8 1120.68 374.991  19
   1   0   9 343.755 261.563  27
   1   0   9 808.038 165.840  28
   1   0   9 950.082 253.092  26
   1   0  10 2469.53 390.450  26
   1   0  10 1861.81 456.612  27
   1   0  10 2221.13 263.859  28
   1   0  10 1953.81 232.341  29
   1   0  11 63.4561 61.8267  29
   1   0  11 74.1831 86.5780  28
   1   0  12 1083.84 139.876  29
   1   0  12 1351.24 185.490  28
  -1  -1  14 470.827 94.8297  28
  -1  -1  13 2871.35 359.638  26
  -1  -1  13 3399.64 301.831  28
  -1  -1  12 1247.05 215.834  28
  -1  -1  12 919.828 261.925  26
  -1  -1  11 11484.0 898.469  26
  -1  -1  11 15807.1 799.398  28
  -1  -1  10 17.3187 99.6149  28
  -1  -1  10-0.25032 109.456  26
  -1  -1   9 271.096 143.137  28
  -1  -1   8 1714.25 629.930  22
  -1  -1   7 286.835 339.340  22
  -1  -1   6 32895.5 1967.39  22
  -1  -1   5 26332.7 1612.11  22
  -1  -1   4 1460.36 292.836  33
  -1  -1   3 18344.8 798.346  33
  -1  -1   3 16629.2 394.136   6
  -1  -1   2 7713.28 220.620   6
  -1  -1   1 3456.92 135.776   6
   1   1   0 6354.07 168.226  21
  -1  -1   0 6909.12 211.898   2
   1   1   0 6721.41 158.979  30
  -1  -1  -1 13551.5 318.343   2
   1   1   1 12918.2 391.160  21
  -1  -1  -2 44237.4 807.614   5
   1   1   2 40795.6 1010.26  19
   1   1   3 4964.10 449.281  19
   1   1   4 7281.61 631.969  19
   1   1   5 24733.3 1305.96  19
   1   1   6 48273.6 2012.61  19
   1   1   7-76.1120 138.609  19
   1   1   8 827.813 327.608  19
   1   1   8 386.193 212.362  27
   1   1   8 907.844 237.760  26
   1   1   8 611.822 122.799  29
   1   1   9 2189.85 254.056  28
   1   1   9 1815.09 217.853  29
   1   1  10 408.347 101.148  29
   1   1  10 559.672 345.300  27
   1   1  11 2181.80 204.125  29
   1   1  13 913.099 137.702  18
  -1  -2  14 83.2562 46.5513  28
  -1  -2  13 2687.39 356.717  26
  -1  -2  13 3245.52 303.036  28
  -1  -2  12 5462.37 448.586  28
  -1  -2  12 5093.17 546.006  26
  -1  -2  11 1982.42 369.932  26
  -1  -2  11 2243.08 320.935  28
  -1  -2  10 17477.0 852.931  28
  -1  -2   9 17909.9 1917.23  22
  -1  -2   9 17095.1 817.727  28
   1   2  -8 65.9998 40.3133  30
  -1  -2   8 145.575 407.854  22
   1   2  -8 24.8167 42.5537   4
   1   2  -7 11836.9 465.933  30
  -1  -2   7 11724.8 1310.48  22
  -1  -2   6-113.717 310.399  22
   1   2  -6 50.1609 48.2320  30
  -1  -2   5 36098.4 1503.93  33
  -1  -2   4 18616.4 924.605  33
  -1  -2   4 18790.1 516.417   6
  -1  -2   3 2425.01 298.828  33
  -1  -2   3 2099.75 168.361   6
   1   2  -3 2432.76 160.303  30
  -1  -2   2 6347.59 240.521   6
  -1  -2   2 6290.49 384.159  33
  -1  -2   1 6698.44 310.014   3
   1   2   0 2287.89 120.582  30
   1   2   1 6658.94 222.544  20
   1   2   1 6596.45 331.750  21
  -1  -2  -1 6594.83 350.621   5
  -1  -2  -1 6476.46 227.874   2
  -1  -2  -2 32840.5 812.651   5
   1   2   2 31979.9 989.152  19
  -1  -2  -2 31239.7 530.911   2
   1   2   2 31326.6 917.959  21
  -1  -2  -3 35702.6 892.149   5
  -1  -2  -3 37316.8 600.951   2
   1   2   3 37048.3 1213.84  19
   1   2   4 5193.18 532.491  19
  -1  -2  -4 4739.73 359.712   5
  -1  -2  -5 2550.63 294.732   5
   1   2   5 3147.99 466.594  19
  -1  -2  -6 3826.72 395.610   5
   1   2   6 4858.38 621.820  19
   1   2   7 4218.88 635.775  19
  -1  -2  -7 3277.80 410.161   5
   1   2   8 610.988 283.974  27
   1   2   8 1078.02 239.746  31
   1   2   8 1100.00 163.017  29
   1   2   9 4652.70 691.096  27
   1   2   9 6245.93 369.783  29
   1   2  10 6459.08 361.402  29
   1   2  10 4538.48 755.620  27
   1   2  12 316.549 95.0998  18
  -1  -3  14 913.306 139.060  28
  -1  -3  13-21.2501 116.950  26
  -1  -3  13 57.7834 66.5429  28
  -1  -3  12 5980.73 581.802  26
  -1  -3  12 8072.00 554.715  28
  -1  -3  11 190.754 116.800  28
  -1  -3  11 293.114 142.203  26
  -1  -3  10 1731.43 205.201   7
  -1  -3  10 1194.65 243.361  28
  -1  -3   9 13752.0 554.992   7
  -1  -3   9 11779.6 689.096  28
  -1  -3   9 11656.6 1512.04  22
   1   3  -9 10595.5 616.823   4
  -1  -3   8 9888.40 1336.63  22
   1   3  -8 8921.14 453.792  30
   1   3  -7 149.182 61.1627  30
  -1  -3   7 230.446 366.223  22
   1   3  -6 18402.7 564.834  30
  -1  -3   5 72809.5 1177.64   6
   1   3  -5 73174.5 1056.72  30
  -1  -3   4 17859.1 538.251   6
   1   3  -4 17204.2 484.367  30
  -1  -3   4 16330.2 892.548  33
  -1  -3   3 702.136 107.062   6
   1   3  -3 767.123 101.376  30
  -1  -3   3 761.357 201.521  33
  -1  -3   2 51944.1 1095.22  33
   1   3  -2 53723.0 772.488  30
  -1  -3   2 51791.7 785.479   6
  -1  -3   1 23260.0 616.968   3
  -1  -3   1 23473.1 525.912   6
   1   3  -1 22872.1 483.103  30
  -1  -3   0 953.143 134.941   3
  -1  -3   0 969.295 112.714   6
   1   3   1 1178.44 118.577  20
  -1  -3  -1 1148.19 135.520   6
   1   3   2 12044.9 616.986  21
  -1  -3  -2 11133.7 530.030   5
   1   3   3 1750.13 278.207  21
  -1  -3  -3 1555.27 234.041   5
   1   3   4 564.375 200.424  19
  -1  -3  -4 374.753 135.636   5
   1   3   5 9224.41 813.265  19
  -1  -3  -5 7849.09 565.633   5
   1   3   6 4308.34 608.207  19
   1   3   7 31363.0 780.266  29
   1   3   7 30787.2 1257.84  31
   1   3   8 5573.23 335.046  29
   1   3   8 5762.30 562.968  31
   1   3   9 606.719 369.622  27
   1   3   9 212.895 67.7335  29
   1   3  10 5382.95 462.574  18
   1   3  11 381.905 119.137  18
   1   3  12 3062.80 244.134  18
  -1  -4  14 1594.04 172.024  28
  -1  -4  13 406.139 166.500  26
  -1  -4  13 384.236 121.265  28
  -1  -4  12 33.5243 109.302  26
  -1  -4  12-77.4036 78.4787  28
  -1  -4  11 3005.07 358.449  28
  -1  -4  11 3262.26 269.352   7
  -1  -4  10 4577.54 346.514   7
  -1  -4  10 3865.85 394.288  28
  -1  -4   9 20612.2 885.535  28
  -1  -4   9 25206.1 792.325   7
   1   4  -8 9201.35 480.743  30
  -1  -4   8 8211.00 1240.14  22
   1   4  -7 1669.08 197.228  30
   1   4  -6 2021.84 205.477  30
  -1  -4   5 21710.1 699.597   6
   1   4  -5 21390.2 623.709  30
   1   4  -4 6651.18 341.568  30
  -1  -4   4 6680.51 365.281   6
  -1  -4   4 5561.87 543.312  33
   1   4  -3 42587.9 818.760  30
  -1  -4   3 42532.4 861.528   6
  -1  -4   3 43318.2 1214.23  33
  -1  -4   2 4940.57 278.858   6
   1   4  -2 5140.68 271.867  30
  -1  -4   2 4933.20 346.619  33
  -1  -4   1 158424. 1578.83   6
  -1  -4   1 157029. 1784.19   3
  -1  -4   0 13119.3 464.829   6
  -1  -4   0 12611.7 490.794   3
   1   4   1 29025.4 717.695  20
  -1  -4  -1 29419.0 719.208   6
  -1  -4  -1 28503.9 806.674   3
   1   4   2 16454.1 579.573  20
  -1  -4  -2 16938.9 583.552   6
   1   4   2 15574.0 807.368  21
   1   4   3 2568.44 366.685  21
  -1  -4  -3 2591.33 257.002   6
  -1  -4  -4 2604.50 280.191   6
  -1  -4  -5 547.469 136.456   6
   1   4   6 5839.87 669.391  27
   1   4   6 6238.29 478.883  18
   1   4   6 8016.13 380.010  29
   1   4   6 7903.27 675.832  31
   1   4   7 5918.49 344.641  29
   1   4   7 4457.07 426.460  18
   1   4   7 5401.78 564.856  31
   1   4   7 4133.06 620.201  27
   1   4   8 4986.93 454.919  18
   1   4   8 4370.61 649.101  27
   1   4   8 5998.28 574.256  31
   1   4   9 16.1518 76.8254  18
   1   4  10 42.4689 84.3438  18
   1   4  11 3136.31 266.960  18
  -1  -5  14 51.0765 49.5945  28
  -1  -5  13 6408.75 388.015  28
  -1  -5  13 7317.72 305.890   7
  -1  -5  12 851.284 132.285   7
  -1  -5  12 725.062 164.357  28
  -1  -5  11 8554.46 446.565   7
  -1  -5  11 7761.32 531.244  28
  -1  -5  10 3470.60 356.915  28
  -1  -5  10 4029.63 328.097   7
  -1  -5   9 8750.48 476.658   7
  -1  -5   9 7394.47 520.910  28
  -1  -5   8 12883.7 567.900   7
   1   5  -8 11141.3 556.438  30
   1   5  -7 3413.86 302.027  30
   1   5  -6 3318.27 283.712  30
   1   5  -5 21377.3 684.472  30
  -1  -5   5 19908.4 756.916   6
   1   5  -4 534.864 110.343  30
  -1  -5   4 537.997 123.877   6
   1   5  -3 6973.71 368.094  30
  -1  -5   3 6602.08 385.984   6
  -1  -5   2 369.298 88.9651   6
  -1  -5   1 18299.7 608.946   6
  -1  -5   0 58254.5 1101.80   6
   1   5   1 36939.9 945.572  20
  -1  -5  -1 36687.3 900.137   6
   1   5   2 4837.22 506.797  21
  -1  -5  -2 4946.02 347.104   6
  -1  -5  -3 18859.1 719.588   6
   1   5   3 18627.2 1116.64  21
  -1  -5  -4 12585.4 629.408   6
   1   5   5 999.712 141.986  29
   1   5   5 944.865 264.704  31
   1   5   5 1049.63 183.827  18
   1   5   6 4041.20 389.828  18
   1   5   6 3133.50 508.715  27
   1   5   6 4271.81 523.115  31
   1   5   7 13917.3 732.168  18
   1   5   7 12588.8 849.433  31
   1   5   8 1734.63 258.313  18
   1   5   8 1616.27 298.862  31
   1   5   9 2860.80 307.595  18
   1   5  10 3180.40 266.809  18
  -1  -6  13 652.125 113.267  28
  -1  -6  13 891.903 107.612   7
  -1  -6  12 843.787 131.311   7
  -1  -6  12 678.503 134.362  28
  -1  -6  11 11485.3 507.881   7
  -1  -6  10 979.407 181.535   7
  -1  -6   9 6636.66 444.813   7
  -1  -6   8 1300.56 199.638   7
  -1  -6   8 1516.54 205.598   8
   1   6  -7 16908.1 716.630  30
   1   6  -6 402.637 110.176  30
  -1  -6   6 350.872 140.039   6
  -1  -6   5 2932.23 332.008   6
   1   6  -5 3380.51 303.533  30
  -1  -6   4 74.3469 60.7887   6
  -1  -6   3 28865.4 900.175   6
  -1  -6   2 827.382 152.579   6
  -1  -6   1 6819.09 413.192   6
  -1  -6   0 12933.9 585.182   6
  -1  -6  -1 2280.12 253.318   6
  -1  -6  -2 37.9765 64.5072   6
  -1  -6  -3 2333.60 275.012   6
   1   6   4 11434.0 605.303  18
   1   6   4 10444.6 888.345  31
   1   6   4 11467.0 482.493  29
   1   6   5 15280.1 732.440  18
   1   6   5 13783.1 999.480  31
   1   6   6 4619.25 545.890  31
   1   6   6 5542.74 450.202  18
   1   6   7 109.928 100.324  18
   1   6   7 60.4580 77.6842  31
   1   6   8 577.554 173.640  31
   1   6   8 496.646 128.850  18
   1   6   9-6.65264 48.4685  18
  -1  -7  13 243.851 57.6632   7
  -1  -7  12 1300.73 149.645   7
  -1  -7  11 4494.97 321.783   7
  -1  -7  10 10187.5 502.494   7
  -1  -7   9 2044.37 242.303   7
  -1  -7   9 1937.79 241.842   8
  -1  -7   8 424.603 117.228   8
  -1  -7   8 351.028 109.999   7
  -1  -7   7 14497.1 610.646   7
  -1  -7   7 18189.5 705.206   8
  -1  -7   6 17226.0 645.823   7
   1   7  -6 22039.7 626.731  17
  -1  -7   5 1483.29 246.894   6
  -1  -7   4 12943.2 684.811   6
  -1  -7   3 6167.85 463.088   6
  -1  -7   2 693.023 148.263   6
  -1  -7   1 11730.9 618.432   6
  -1  -7   0 8043.26 500.705   6
  -1  -7  -1 806.718 165.126   6
   1   7   2 187.254 76.8565  24
   1   7   2 91.3304 106.579  31
   1   7   3 1772.79 376.067  31
   1   7   3 1787.35 230.487  18
   1   7   4 1267.42 209.108  18
   1   7   4 1259.47 318.470  31
   1   7   5 482.387 170.925  18
   1   7   5 426.310 176.732  31
   1   7   5 475.058 105.981  15
   1   7   6 3788.61 461.092  31
   1   7   6 4887.38 330.947  15
   1   7   6 4548.24 356.832  18
   1   7   7 1954.57 300.803  31
   1   7   7 2152.99 232.926  18
   1   7   8 282.875 113.212  31
  -1  -8  13 3166.66 172.178   7
  -1  -8  12 1066.15 129.596   7
  -1  -8  11 4167.56 282.269   7
  -1  -8  10 5596.14 351.323   7
  -1  -8   9 580.799 135.179   8
  -1  -8   9 727.348 141.138   7
  -1  -8   8 98.2579 68.0576   7
  -1  -8   8 188.247 78.3491   8
   1   8  -8 79.3520 49.8145  17
  -1  -8   7 12687.8 562.362   7
  -1  -8   7 16043.7 691.524   8
  -1  -8   6 582.900 123.027   7
   1   8  -6 1671.77 275.291  17
   1   8  -5 1798.72 186.859  17
   1   8  -4 5786.16 325.446  17
   1   8  -3 612.841 101.786  17
   1   8  -2 25417.8 636.390  17
   1   8  -2 22584.6 916.073  24
   1   8  -2 23390.6 1371.75  31
   1   8  -1 14248.2 468.524  17
   1   8  -1 12259.5 978.151  31
   1   8  -1 13853.0 682.887  24
   1   8   0 2056.73 255.347  24
   1   8   0 1986.19 174.557  17
   1   8   0 1558.43 364.958  31
   1   8   1 3273.21 513.562  31
   1   8   1 4372.81 367.945  24
   1   8   2 504.010 236.178  31
   1   8   2 666.825 145.607  24
   1   8   3 23.6902 129.876  31
   1   8   3-4.56529 55.0044  15
   1   8   4 12562.7 574.282  15
   1   8   4 11618.0 919.647  31
   1   8   5 197.951 72.8618  15
   1   8   5 180.304 118.071  31
   1   8   6 2125.27 315.052  31
   1   8   6 2740.04 235.529  15
   1   8   7 312.087 65.4406  13
   1   8   7 482.459 134.788  31
  -1  -9  12 42.2682 36.1279   7
  -1  -9  11 3192.15 213.589   7
  -1  -9  10 45.8026 44.1883   7
  -1  -9   9 863.665 140.683   7
  -1  -9   9 768.774 152.881   8
  -1  -9   8 50.1440 48.7496   7
   1   9  -8 100.112 52.5979  17
  -1  -9   8 143.502 91.6681   8
   1   9  -7 7643.70 440.063  17
  -1  -9   7 6905.58 451.995   8
   1   9  -6 19120.0 742.044  17
  -1  -9   6 16424.3 707.923   8
   1   9  -5 30550.0 1104.88  17
   1   9  -4 250.120 85.1342  17
   1   9  -3 2559.00 225.064  17
   1   9  -3 2144.41 439.922  31
   1   9  -2 7028.33 778.125  31
   1   9  -2 8336.63 402.603  17
   1   9  -1 13736.8 737.429  24
   1   9  -1 13395.0 1053.07  31
   1   9   0 11568.3 659.678  24
   1   9   0 10338.4 921.306  31
   1   9   1 17690.7 1192.70  31
   1   9   1 19742.5 719.982  15
   1   9   2 1785.00 378.659  31
   1   9   2 1918.92 229.066  15
   1   9   3 106.653 72.2186  15
   1   9   3 2.32353 94.6562  31
   1   9   4 876.975 223.824  31
   1   9   4 1165.36 165.193  15
   1   9   5 1443.62 248.291  31
   1   9   5 1938.40 196.031  15
   1   9   6 504.726 124.205  31
   1   9   6 651.582 100.971  15
   1   9   6 506.591 76.5467  13
  -1 -10  11 48.5602 29.4532   7
  -1 -10  10 1966.38 153.000   7
  -1 -10   9 2026.36 167.080   7
   1  10  -9 1669.37 189.636  17
  -1 -10   9 1724.88 198.289   8
   1  10  -8 549.885 119.772  17
  -1 -10   8 518.530 123.575   8
   1  10  -7 1267.10 177.868  17
  -1 -10   7 1226.95 191.605   8
   1  10  -6 10662.9 522.273  17
  -1 -10   6 10292.7 538.767   8
   1  10  -5 2442.55 267.947  17
  -1 -10   5 2476.47 271.417   8
   1  10  -4 2311.75 278.799  17
  -1 -10   4 2145.26 248.785   8
  -1 -10   3 487.673 126.829   8
   1  10  -3 165.940 160.358  31
   1  10  -3 472.756 143.391  17
   1  10  -2 6130.89 704.315  31
   1  10  -2 7320.39 399.310  15
   1  10  -1 883.134 273.832  31
   1  10  -1 1115.02 162.088  15
   1  10   0 1916.58 216.691  15
   1  10   0 1781.10 373.286  31
   1  10   1 56.7554 51.8481  15
   1  10   1 105.657 110.720  31
   1  10   2 4354.04 316.700  15
   1  10   2 3528.82 471.002  31
   1  10   3 63.1932 49.9483  15
   1  10   3-68.0633 103.495  31
   1  10   4 4624.66 284.934  15
   1  10   4 3388.44 342.880  31
   1  10   5 2493.76 163.965  13
   1  10   5 3229.20 269.453  31
   1  11  -9 506.421 99.1809  17
   1  11  -8 122.447 59.7886  17
   1  11  -8 47.6319 74.1591  31
  -1 -11   8 102.977 56.6025   8
  -1 -11   7 2205.10 224.046   8
   1  11  -7 1724.66 305.794  31
   1  11  -7 2075.35 218.240  17
  -1 -11   6 330.432 89.9917   8
   1  11  -6 269.893 93.9509  17
   1  11  -6 362.251 156.248  31
   1  11  -5 1461.28 305.894  31
  -1 -11   5 1863.42 218.473   8
   1  11  -5 1676.32 201.703  17
  -1 -11   4 275.886 92.4575   8
   1  11  -4 340.266 99.2233  17
   1  11  -4 176.585 125.973  31
   1  11  -3 5186.42 335.703  17
  -1 -11   3 5100.64 333.717   8
   1  11  -2 1904.00 203.187  17
   1  11  -2 1944.84 185.800  15
   1  11  -1-1.81965 42.2970  17
   1  11  -1-33.2860 95.7991  31
   1  11  -1 10.8963 46.3454  15
   1  11   0 2405.92 364.481  31
   1  11   0 3022.77 245.169  15
   1  11   1 2638.51 353.872  31
   1  11   1 3186.17 244.282  15
   1  11   2 1432.78 229.666  31
   1  11   2 1736.20 171.951  15
   1  11   3 3970.73 234.458  15
   1  12  -7 93.0567 47.8595  17
  -1 -12   6 5071.72 285.269   8
   1  12  -6 4990.65 283.623  17
   1  12  -5 1706.76 177.756  17
  -1 -12   5 1737.02 168.833   8
   1  12  -4 3310.30 241.469  17
  -1 -12   4 3104.29 218.334   8
   1  12  -3 309.721 76.1731  17
   1  12  -3 114.454 84.1718  31
   1  12  -2 799.121 110.051  17
   1  12  -2 586.874 157.338  31
   1  12  -1 105.854 84.3487  31
  -2  12   1 244.478 123.125  31
  -2  12   0 826.130 215.512  31
  -2  12   0 695.836 87.1927  16
  -2  12  -1 512.158 82.0525  16
  -2  12  -1 761.424 213.493  31
  -2  12  -2 6717.26 614.476  31
  -2  12  -2 6592.27 288.243  16
  -2  12  -3 6068.23 278.417  16
  -2  12  -3 6433.21 611.982  31
  -2  12  -4 977.070 246.160  31
  -2  12  -4 1067.48 116.333  16
  -2  12  -4 569.140 130.160  17
  -2  12  -5 2258.70 157.602  16
  -2  12  -5 2296.07 358.874  31
  -2  12  -6 252.950 92.4270  17
  -2  12  -6 450.286 66.9537  16
  -2  12  -6 425.195 163.020  31
  -2  12  -7 187.705 86.7522  17
  -2  12  -7 108.426 78.2886  31
  -2  11   4 2038.19 139.943  13
  -2  11   4 2268.08 254.763  31
  -2  11   3 359.373 71.0886  13
  -2  11   3 489.970 150.865  31
  -2  11   2 140.797 106.024  31
  -2  11   1 334.565 72.7870  16
  -2  11   1 477.679 193.679  31
  -2  11   0 66.8078 42.5678  16
  -2  11   0 160.522 133.778  31
  -2  11  -1-36.6134 118.669  31
  -2  11  -1-43.0963 47.9650  16
  -2  11  -2 391.954 113.998  17
  -2  11  -2 532.294 228.090  31
  -2  11  -3 2043.23 415.303  31
  -2  11  -3 1809.38 231.876  17
  -2  11  -4 394.022 128.180  17
  -2  11  -4 468.918 232.686  31
  -2  11  -5 106.270 106.620  31
  -2  11  -5-42.5658 55.2336  17
  -2  11  -6 71.8695 77.3146  17
  -2  11  -7 529.172 141.303  17
  -2  11  -8 384.663 131.566  17
  -2  11  -9 43.1951 51.9416  17
  -2  10   6 1500.93 114.069  13
  -2  10   6 1318.37 160.823  12
  -2  10   5 282.226 106.173  31
  -2  10   5 272.219 61.8601  13
  -2  10   4-28.6694 82.3066  31
  -2  10   4-31.7645 39.4178  13
  -2  10   3 121.099 61.7757  15
  -2  10   3 57.4450 108.906  31
  -2  10   2 1872.11 222.638  15
  -2  10   2 2206.22 421.521  31
  -2  10   2 1591.07 161.048  16
  -2  10   1 2060.71 239.193  15
  -2  10   1 2154.90 435.587  31
  -2  10   1 1768.70 184.701  16
  -2  10   0 1841.91 420.737  31
  -2  10   0 1932.28 227.017  15
  -2  10  -1 13148.2 1073.19  31
  -2  10  -1 11823.9 536.115  15
  -2  10  -2 790.165 289.212  31
  -2  10  -2 619.187 149.012  17
  -2  10  -3 3023.32 320.081  17
  -2  10  -3 4386.42 650.488  31
  -2  10  -4 406.315 126.059  17
  -2  10  -5 223.710 110.544  17
  -2  10  -6 3314.57 352.485  17
  -2  10  -7 3262.93 328.688  17
  -2  10  -8 268.744 105.154  17
   2 -10   8 628.993 100.205   7
  -2  10  -9 2600.02 293.547  17
   2 -10   9 4055.15 232.766   7
   2 -10  10-3.39852 28.0853   7
   2 -10  11 924.638 108.151  10
  -2   9   7 732.591 87.3092  13
  -2   9   7 979.332 171.639  31
  -2   9   6 35.9226 38.7857  13
  -2   9   6-18.6132 63.3560  31
  -2   9   5 3698.12 269.366  13
  -2   9   5 3939.87 510.046  31
  -2   9   4 250.240 94.5320  15
  -2   9   4 395.552 210.561  31
  -2   9   3 753.540 155.594  15
  -2   9   3 778.339 267.159  31
  -2   9   2 3863.59 340.672  15
  -2   9   2 3655.74 598.948  31
  -2   9   2 3422.49 248.009  16
  -2   9   1 377.547 115.497  15
  -2   9   1 368.545 189.247  31
  -2   9   0 16452.3 655.521  15
  -2   9   0 18816.4 1282.03  31
  -2   9  -1 1469.33 193.961  15
  -2   9  -1 1521.36 392.921  31
  -2   9  -2 11369.3 559.943  17
  -2   9  -2 13743.3 1136.81  31
  -2   9  -3 7082.34 454.074  17
  -2   9  -4 30128.7 939.266  17
  -2   9  -5 16465.0 709.960  17
   2  -9   6 5850.44 325.076   7
  -2   9  -6 5829.45 430.238  17
  -2   9  -7 2949.06 320.941  17
   2  -9   7 3362.02 254.834   7
   2  -9   8 298.563 79.6432   7
  -2   9  -8 242.590 112.119  17
  -2   9  -9 172.877 90.8276  17
   2  -9   9 524.453 100.354   7
   2  -9  10 342.937 74.8778   7
   2  -9  11 106.968 43.5623   7
  -2   8   8 56.7265 63.5321  31
  -2   8   8 450.591 73.8639  13
  -2   8   7 42.6628 30.3992  13
  -2   8   7 15.6858 58.1840  31
  -2   8   6 558.005 112.564  13
  -2   8   6 713.376 208.139  31
  -2   8   5 10791.8 545.577  15
  -2   8   5 12132.9 948.243  31
  -2   8   4 1350.99 204.661  15
  -2   8   4 1313.32 355.336  31
  -2   8   3 392.580 206.530  31
  -2   8   3 255.835 92.0696  15
  -2   8   2 1010.22 170.335  15
  -2   8   2 843.030 128.447  16
  -2   8   2 1095.05 321.188  31
  -2   8   1 2824.39 492.269  31
  -2   8   1 2720.13 261.237  15
  -2   8   0-51.0338 105.825  31
  -2   8   0 65.2705 48.3688  15
  -2   8  -1 3712.34 575.997  31
  -2   8  -1 3101.16 264.475  15
  -2   8  -1 3635.11 296.279  17
  -2   8  -2 4048.95 323.880  17
  -2   8  -3 11315.4 533.746  17
   2  -8   3 10371.6 500.408   8
   2  -8   4 184.394 152.519   8
  -2   8  -4 259.755 170.238  17
  -2   8  -5 39100.6 1050.92  17
   2  -8   5 35811.0 806.618   7
  -2   8  -6 5323.95 415.158  17
   2  -8   6 5672.76 336.348   7
  -2   8  -7 7119.97 495.706  17
   2  -8   7 7171.16 384.553   7
   2  -8   8-33.3125 42.9951   7
  -2   8  -8-29.2563 65.8091  17
  -2   8  -9 6061.03 482.070  17
   2  -8   9 8370.00 404.289   7
   2  -8  10 4366.42 273.880   7
   2  -8  11 1955.73 168.452   7
   2  -8  12 383.021 68.4605   7
  -2   7   9 4627.00 191.890  13
  -2   7   9 1651.10 332.794  27
  -2   7   8 738.106 127.286  18
  -2   7   8 522.648 91.8279  13
  -2   7   8 684.198 179.274  31
  -2   7   8 430.219 242.094  27
  -2   7   7 2353.59 217.729  13
  -2   7   7 3065.72 268.066  18
  -2   7   7 2469.08 375.001  31
  -2   7   6 16393.6 632.299  13
  -2   7   6 23150.7 771.909  18
  -2   7   6 18668.1 710.059  15
  -2   7   6 20597.8 1200.40  31
  -2   7   5 288.522 90.5349  18
  -2   7   5 307.295 101.607  15
  -2   7   5 228.690 160.724  31
  -2   7   4 12968.2 563.309  18
  -2   7   4 12831.5 1026.71  31
  -2   7   4 11328.1 553.158  15
  -2   7   3 9874.55 492.670  15
  -2   7   3 10157.9 914.437  31
  -2   7   2 1865.61 207.735  15
  -2   7   1 140.926 93.1757  20
  -2   7   0 924.474 215.284  20
  -2   7   0 838.763 161.445   1
  -2   7  -1 1025.20 225.244  20
  -2   7  -1 872.981 171.017   1
  -2   7  -2 1505.72 225.448   1
  -2   7  -3 57.5235 51.5074   1
  -2   7  -4 10485.5 601.687   1
  -2   7  -5 80.2952 81.0965   4
  -2   7  -5 52.2616 60.6949  17
   2  -7   6 107.698 63.7599   7
  -2   7  -6 131.205 83.8027  17
  -2   7  -7 2252.63 278.593  17
   2  -7   7 2644.95 229.419   7
   2  -7   8 4329.95 299.251   7
  -2   7  -8 2670.71 335.177  17
   2  -7   9 3433.09 267.935   7
   2  -7  10 892.844 132.426   7
   2  -7  11 1227.82 143.028   7
   2  -7  12 120.788 43.2269   7
  -2   6  10 837.350 112.866  18
  -2   6  10 639.896 245.937  27
  -2   6   9 1989.76 186.864  13
  -2   6   9 1349.20 176.395  18
  -2   6   8 1768.43 181.207  13
  -2   6   8 2755.24 279.863  18
  -2   6   8 2297.67 333.941  31
  -2   6   8 1804.40 434.637  27
  -2   6   7 34.1499 41.0556  13
  -2   6   7 128.183 77.1231  18
  -2   6   7 27.3406 203.310  27
  -2   6   7 73.3214 81.6845  31
  -2   6   6 1809.99 225.934  15
  -2   6   6 2047.64 247.447  18
  -2   6   6 1907.69 354.583  31
  -2   6   5 42898.2 1134.12  18
  -2   6   5 40790.4 1714.86  31
  -2   6   4 2922.22 265.342  15
  -2   6   3 1229.87 353.855  21
  -2   6   2 64.8310 55.8253  20
  -2   6   1 11315.6 538.454   1
  -2   6   1 13353.1 751.770  20
  -2   6   0 642.511 162.125  20
  -2   6   0 690.586 137.855   1
  -2   6  -1 2420.12 250.191   1
  -2   6  -2 438.926 113.386   1
  -2   6  -3 18894.0 683.488   4
  -2   6  -3 21283.9 758.229   1
  -2   6  -4 37.7204 64.2123   1
  -2   6  -4 8.34604 46.0116   4
  -2   6  -5 304.426 103.793   1
  -2   6  -5 308.742 113.323   4
  -2   6  -6 7218.28 515.752   4
  -2   6  -6 7283.53 475.112   1
  -2   6  -7 4311.35 374.847  17
   2  -6   7 5287.57 313.280   7
   2  -6   8 19543.5 624.256   7
   2  -6   9-23.6571 52.0027   7
   2  -6   9 67.4087 76.4275  28
   2  -6  10 2687.01 229.607   7
   2  -6  10 2081.78 254.269  28
   2  -6  11 5768.59 309.738   7
   2  -6  12 15.1025 29.1458   7
   2  -6  13 1649.86 148.180  29
  -2   5  11 327.828 74.8454  18
  -2   5  11 375.588 189.560  27
  -2   5  10 1397.17 193.648  18
  -2   5  10 792.210 247.120  27
  -2   5   9 596.361 146.068  18
  -2   5   9 560.511 179.040  31
  -2   5   9 557.638 299.998  27
  -2   5   8 13182.6 829.028  31
  -2   5   8 14648.1 719.668  18
  -2   5   7 11467.0 795.932  31
  -2   5   7 9905.55 478.363  13
  -2   5   7 11612.8 638.433  18
  -2   5   6-19.9761 177.991  27
  -2   5   6 123.708 89.2286  31
  -2   5   6 269.367 92.3969  15
  -2   5   6 33.7074 126.881  18
  -2   5   5 61.3447 148.231  21
  -2   5   4 9658.66 927.404  21
  -2   5   3 13777.0 1029.23  21
  -2   5   2 59687.8 1503.69  20
  -2   5   2 56004.0 1129.68   1
  -2   5   1 9546.26 565.003  20
  -2   5   1 8772.30 438.265   1
  -2   5   0 16543.3 704.875  20
  -2   5   0 14199.0 557.174   1
  -2   5  -1 789.862 139.901   1
  -2   5  -2 358.606 98.4636   1
  -2   5  -2 327.301 93.1907   4
  -2   5  -3 11544.8 516.362   4
  -2   5  -3 12783.0 524.790   1
  -2   5  -4 3906.30 312.727   4
  -2   5  -4 4420.97 316.196   1
  -2   5  -5 7521.30 464.590   4
  -2   5  -5 8702.27 460.620   1
  -2   5  -6 715.899 159.513   4
  -2   5  -6 619.440 141.612   1
  -2   5  -7 5485.36 459.614   4
   2  -5   8 6719.25 451.518  28
   2  -5   8 7280.37 374.291   7
   2  -5   9 7624.14 490.813  28
   2  -5   9 8731.89 409.048   7
   2  -5  10-29.6499 50.9049   7
   2  -5  10 48.1228 73.4337  28
   2  -5  11 212.550 73.0671   7
   2  -5  11 171.237 101.802  28
   2  -5  13 26.7237 42.9712  29
  -2   4  12 1509.09 296.130  27
  -2   4  11 899.691 149.456  18
  -2   4  11 236.250 182.692  27
  -2   4  10 675.360 155.791  18
  -2   4  10 604.342 292.589  27
  -2   4   9 2347.72 300.782  18
  -2   4   9 2722.49 207.630  13
  -2   4   8 4212.89 287.189  13
  -2   4   8 4024.40 390.435  18
  -2   4   8 5079.31 510.770  31
  -2   4   7 28892.2 779.824  13
  -2   4   7 32714.0 1323.76  31
   2  -4  -6 42.6304 45.5059  32
  -2   4   6-41.8816 133.049  21
  -2   4   6-1.07689 146.989  19
  -2   4   5 9152.78 932.976  21
  -2   4   5 8484.01 833.934  19
  -2   4   4 12957.8 973.135  21
  -2   4   4 13390.0 946.632  19
  -2   4   3 1083.70 146.137   1
  -2   4   3 1148.89 277.274  21
  -2   4   2 6693.57 448.887  20
  -2   4   2 6608.63 358.947   1
  -2   4   1 1989.56 230.349  20
  -2   4   1 1690.91 176.151   1
  -2   4   0 31.4076 39.8468  20
  -2   4   0 46.1460 57.7276   1
  -2   4  -1 119.077 58.0326   1
  -2   4  -1 67.6316 44.9356   4
  -2   4  -2 2377.33 206.795   4
  -2   4  -2 2213.96 202.086   1
  -2   4  -3 11040.6 443.837   1
  -2   4  -3 11619.9 476.941   4
  -2   4  -4 14113.0 569.120   4
  -2   4  -4 14553.9 519.434   1
  -2   4  -5 3122.11 287.492   4
  -2   4  -5 2742.25 243.746   1
  -2   4  -6 165.105 75.0564   1
  -2   4  -6 184.215 84.3419   4
  -2   4  -7 7668.65 523.899   4
   2  -4   8 2053.82 254.689  28
   2  -4   8 2091.93 194.397   7
   2  -4   9 4956.88 392.755  28
   2  -4   9 5228.82 317.496   7
   2  -4  10 672.624 116.723   7
   2  -4  10 701.871 155.275  28
   2  -4  11 691.071 157.777  28
   2  -4  12 8481.78 460.136  28
   2  -4  13 206.386 58.1486  29
  -2   3  12 1602.42 187.898  18
  -2   3  12 999.214 277.152  27
  -2   3  11 2168.65 264.677  18
  -2   3  11 1317.63 344.029  27
  -2   3  10 6028.67 604.543  26
  -2   3  10 6275.58 791.681  27
  -2   3   9 16.6162 116.458  26
  -2   3   9 305.352 281.930  27
  -2   3   8 1763.52 175.797  13
  -2   3   8 898.355 297.018  26
  -2   3   8 1129.14 374.449  27
  -2   3   7 75.2735 177.346  19
   2  -3  -7 235.158 96.3774  32
  -2   3   7 194.384 63.1771  13
  -2   3   7 43.9920 177.060  27
   2  -3  -6 1226.93 193.168  32
  -2   3   6 1557.19 401.085  19
  -2   3   5 173.491 151.425  21
  -2   3   5 58.2818 118.500  19
  -2   3   4 6571.69 632.228  21
  -2   3   4 5593.34 601.317  19
  -2   3   4 5673.75 305.581   1
  -2   3   3 1218.42 282.474  33
  -2   3   3 1207.11 146.414   1
  -2   3   3 1259.09 253.148  21
  -2   3   3 1233.23 250.873  19
  -2   3   2 17749.4 863.659  33
  -2   3   2 19175.7 825.835  19
  -2   3   2 17205.3 641.203  20
  -2   3   2 17052.7 532.254   1
  -2   3   1 4275.74 351.854  33
  -2   3   1 3632.26 195.171   2
  -2   3   1 3832.71 243.929   1
  -2   3   1 3808.13 280.000  20
  -2   3   0 2328.44 232.903  33
  -2   3   0 2678.44 219.695  20
  -2   3   0 2696.32 200.930   1
  -2   3  -1 39998.9 742.158   4
  -2   3  -1 37891.8 769.847   5
  -2   3  -1 39091.4 755.275   1
  -2   3  -2 1578.06 161.450   4
  -2   3  -2 1575.70 168.062   5
  -2   3  -2 1446.29 158.241   1
  -2   3  -3 199.757 74.4279   4
  -2   3  -3 263.134 69.3419   1
  -2   3  -4 1013.87 135.166   1
  -2   3  -4 940.514 144.754   4
  -2   3  -5 7610.09 433.426   4
  -2   3  -5 7748.35 367.942   1
  -2   3  -6 4121.52 349.756   4
  -2   3  -7 3076.59 323.575   4
   2  -3   8 3612.24 323.512  28
   2  -3   9 39159.2 1090.57  28
   2  -3  10 20750.0 794.883  28
   2  -3  11 56.5232 63.5927  28
   2  -3  12 857.355 140.818  29
   2  -3  12 1091.23 180.199  28
   2  -3  13 1148.23 133.030  29
  -2   2  13 511.550 206.367  27
  -2   2  12 204.098 162.594  26
  -2   2  12 148.618 85.4611  18
  -2   2  11 2034.02 461.329  27
  -2   2  11 1563.56 333.476  26
  -2   2  10 175.278 216.856  27
  -2   2  10-25.5310 121.030  26
  -2   2   9 8177.82 325.977  13
  -2   2   9 95.0075 132.151  26
  -2   2   8 81.0731 191.630  27
  -2   2   8 74.1579 118.176  26
   2  -2  -7 50.6904 50.2375  32
  -2   2   7 55.1367 182.815  19
   2  -2  -6 595.969 134.960  32
  -2   2   6 566.080 259.244  19
  -2   2   5 49036.4 1761.91  21
   2  -2  -5 47002.6 1036.99  32
  -2   2   5 47590.9 1994.33  19
  -2   2   4 3409.65 505.408  33
  -2   2   4 4385.26 741.385  22
  -2   2   4 4315.91 490.041  21
  -2   2   4 4231.77 530.168  19
  -2   2   3 13518.9 1086.66  22
  -2   2   3 12442.4 810.146  33
  -2   2   3 11917.4 422.015   1
  -2   2   3 12812.7 783.336  19
  -2   2   3 13258.9 717.940  21
  -2   2   2 81.7455 50.2501   1
  -2   2   2 111.616 229.847  22
  -2   2   2 40.7452 101.740  19
  -2   2   2 17.0985 92.7222  33
  -2   2   1 2163.69 154.725   2
  -2   2   1 2208.75 268.456  33
  -2   2   1 2380.11 351.290  22
  -2   2   1 2097.49 192.943  20
  -2   2   1 2160.41 173.878   3
  -2   2   1 2160.09 180.059   1
  -2   2   0 31536.5 622.893   1
  -2   2   0 30207.9 611.231  20
  -2   2  -1 78.3790 61.6215   5
  -2   2  -1 16.1343 33.8541   4
  -2   2  -1 47.0642 38.7427   1
  -2   2  -2 113.949 52.3239   4
  -2   2  -2 131.345 56.4995   1
  -2   2  -2 141.616 51.1016   5
  -2   2  -3 16381.7 459.281   1
  -2   2  -3 15935.5 521.590   4
  -2   2  -4 11384.5 391.787   1
  -2   2  -4 11045.5 472.136   4
  -2   2  -5 5200.03 349.426   4
  -2   2  -6 13433.8 609.795   4
  -2   2  -7-28.0039 60.6823   4
  -2   2  -8 23626.9 941.164   4
   2  -2   8 27984.3 869.302  28
   2  -2   9 1034.17 180.208  28
   2  -2  10 7294.27 475.385  28
   2  -2  11 1730.92 212.570  29
   2  -2  11 2180.87 256.300  28
   2  -2  12 2855.52 239.259  29
   2  -2  12 3297.37 293.665  28
   2  -2  13 3417.92 208.475  29
  -2   1  13 43.4672 65.2888  18
  -2   1  13 361.303 195.382  27
  -2   1  12 73.4940 123.379  26
  -2   1  12 69.9624 83.2657  28
  -2   1  12 132.145 153.946  27
  -2   1  11 54.0635 74.9481  28
  -2   1  11 4.63892 120.587  26
  -2   1  11 283.744 276.384  27
  -2   1  10 8609.41 602.970  28
  -2   1  10 6770.44 682.869  26
  -2   1   9 8437.00 607.982  28
  -2   1   9 3306.31 612.039  27
  -2   1   8 2212.27 579.747  19
   2  -1  -7 1412.19 198.887  32
  -2   1   7 1439.92 436.495  19
   2  -1  -6 6648.24 396.874  32
  -2   1   6 7040.88 1042.07  22
  -2   1   6 6329.65 806.339  19
  -2   1   5 630.942 268.360  33
  -2   1   5 979.039 438.685  22
  -2   1   5 819.297 299.790  19
   2  -1  -5 804.853 133.189  32
  -2   1   4 3376.99 638.029  22
  -2   1   4 3536.67 484.013  33
  -2   1   4 3430.75 392.326  21
   2  -1  -4 3619.97 254.140  32
  -2   1   4 3364.02 470.115  19
  -2   1   3 11019.6 992.724  22
  -2   1   3 13038.1 664.919  21
   2  -1  -3 12230.5 430.470  32
  -2   1   3 12982.1 768.965  33
  -2   1   2 18684.7 799.910  33
  -2   1   2 19264.3 667.484  21
  -2   1   2 20033.0 497.465   1
  -2   1   2 18889.1 754.179  19
  -2   1   1 662793. 2655.99   2
  -2   1   1 626438. 3025.46  19
  -2   1   1 652172. 3067.75   3
  -2   1   0 231881. 1605.49   1
  -2   1   0 228717. 1365.38  20
  -2   1  -1 45429.6 689.349   1
  -2   1  -1 48685.6 949.010   5
   2  -1   2 53779.1 810.260  19
   2  -1   2 53285.4 383.061  32
  -2   1  -3 7281.42 350.521   4
  -2   1  -3 6782.05 393.577   5
  -2   1  -3 7045.84 269.425   1
   2  -1   3 6675.61 422.674  19
   2  -1   4 23.8136 105.580  19
  -2   1  -4 26.7406 54.9238   4
  -2   1  -4 37.2205 32.1665   1
  -2   1  -5 51224.7 1081.29   4
   2  -1   5 52009.7 1704.46  19
  -2   1  -6 71.0309 67.5825   4
  -2   1  -7-40.5017 64.9386   4
   2  -1   8 2269.17 248.511  28
   2  -1   9 872.622 175.108  28
   2  -1  10 2365.20 258.635  29
   2  -1  10 2814.18 291.895  28
   2  -1  11 323.400 96.9892  29
   2  -1  11 385.061 121.479  28
   2  -1  12 1920.98 184.184  29
   2  -1  13 724.011 119.634  18
   2  -1  13 1253.82 116.667  29
  -2   0  13 743.943 201.059  26
  -2   0  13 918.476 158.044  28
  -2   0  12 1861.03 256.416  28
  -2   0  12 1523.54 297.544  26
  -2   0  11 414.717 244.806  26
  -2   0  11 679.560 191.406  28
  -2   0  11 485.515 262.459  27
  -2   0  10 2220.70 467.030  27
  -2   0  10 4526.29 451.663  28
  -2   0   9 1471.99 402.722  27
  -2   0   9 4681.20 453.884  28
  -2   0   8 411.857 422.933  22
  -2   0   8 453.686 312.595  19
  -2   0   7 5176.70 991.009  22
  -2   0   6 20481.4 1743.60  22
   2   0  -5 21015.4 634.079  32
  -2   0   5 18168.8 1172.61  33
  -2   0   5 18601.5 1513.26  22
   2   0  -4 5220.73 294.071  32
  -2   0   4 4620.26 541.750  33
  -2   0   3 4516.35 435.704  33
   2   0  -3 5001.91 273.636  32
  -2   0   2 10228.8 578.929  33
  -2   0   2 10078.5 221.190   6
  -2   0   2 10369.7 446.481   3
   2   0  -2 11479.9 370.960  32
  -2   0   1 44843.8 713.165   2
   2   0  -1 45556.6 632.969  32
  -2   0   1 45265.6 863.695   3
  -2   0   1 44455.7 510.315   6
   2   0   0 999999. 2578.56  32
  -2   0   0 984083. 3026.17   1
  -2   0  -1 131262. 1338.26   2
  -2   0  -1 131529. 1066.24   1
  -2   0  -1 130949. 1677.41   5
  -2   0  -2 24598.4 762.033   5
  -2   0  -2 25016.2 453.452   1
  -2   0  -3 1323.16 182.790   5
   2   0   3 1219.00 180.376  19
  -2   0  -3 1429.72 104.711   1
  -2   0  -4 3667.22 327.342   5
   2   0   4 4229.98 414.693  19
  -2   0  -5 438.924 133.783   5
   2   0   5 727.397 223.479  19
  -2   0  -6 9751.88 635.168   5
  -2   0  -7 355.420 152.145   5
   2   0   8 8029.25 444.240  29
   2   0   8 8292.85 468.579  28
   2   0   9 10688.2 535.270  29
   2   0   9 11198.2 563.094  28
   2   0  10 1741.67 214.860  29
   2   0  10 2079.61 244.008  28
   2   0  11 716.004 126.546  29
   2   0  11 921.367 159.378  28
   2   0  12 437.355 85.8808  29
  -2  -1  14 4938.43 281.936  28
  -2  -1  13 3421.68 415.781  26
  -2  -1  13 5225.71 379.112  28
  -2  -1  12 715.456 223.217  26
  -2  -1  12 856.421 196.391  28
  -2  -1  11 7484.66 736.393  26
  -2  -1  11 9865.71 678.548  28
  -2  -1  10 244.611 143.506  28
  -2  -1   9 4333.37 445.283  28
  -2  -1   8 10111.6 1463.83  22
  -2  -1   7 1820.65 618.420  22
  -2  -1   6 17867.7 1656.68  22
  -2  -1   6 17605.1 1305.69  33
  -2  -1   5 6533.64 706.752  33
  -2  -1   4 114.626 170.539  33
  -2  -1   4 22.5690 39.5564   6
  -2  -1   3 2933.02 351.496  33
  -2  -1   3 2723.82 166.679   6
  -2  -1   2 1160.38 104.941   6
  -2  -1   2 1227.91 167.231   3
  -2  -1   1 21654.0 443.517   6
  -2  -1   1 22990.4 670.133   3
  -2  -1   0 15542.1 449.245   2
   2   1   0 14941.4 315.388  30
   2   1   1 1057.01 73.2239  30
  -2  -1  -1 1263.00 136.690   2
  -2  -1  -1 1270.83 180.511   5
  -2  -1  -2 1846.96 167.696   2
  -2  -1  -2 1472.66 213.714   5
  -2  -1  -3 43760.4 873.572   2
   2   1   3 42944.6 1128.94  19
  -2  -1  -3 41535.7 1141.02   5
  -2  -1  -4 21101.7 637.983   2
   2   1   4 20827.4 917.114  19
  -2  -1  -4 20623.4 836.475   5
   2   1   5 9425.35 711.550  19
  -2  -1  -5 8559.04 578.355   5
  -2  -1  -5 8892.66 442.904   2
  -2  -1  -6 1619.06 280.074   5
  -2  -1  -7-30.0089 72.7921   5
   2   1   8 228.795 79.5301  29
   2   1   9 15.7413 51.0515  29
   2   1  10 1874.34 205.977  29
   2   1  11 3265.56 239.565  29
   2   1  12 10.0371 27.6586  29
   2   1  12-75.6317 70.6787  18
  -2  -2  14 983.753 187.379  26
  -2  -2  14 963.966 136.013  28
  -2  -2  13 16.3515 102.495  26
  -2  -2  13 200.989 108.205  28
  -2  -2  12 108.506 115.205  26
  -2  -2  12 202.410 110.379  28
  -2  -2  11 1502.34 278.451  28
  -2  -2  10 38306.0 1325.04  28
  -2  -2   9 7515.19 580.930  28
  -2  -2   8 92.2954 299.124  22
   2   2  -8 311.931 95.8827  30
  -2  -2   7 689.732 333.652  22
  -2  -2   6 530.354 244.256  33
  -2  -2   5 21061.2 1231.79  33
  -2  -2   4 20764.4 1055.46  33
  -2  -2   4 21038.1 563.012   6
  -2  -2   3 7118.64 554.197  33
  -2  -2   3 7056.86 302.101   6
  -2  -2   2 36591.3 659.365   6
  -2  -2   2 35689.0 948.046   3
   2   2  -2 38245.5 668.184  30
  -2  -2   1 7188.46 407.091   3
  -2  -2   1 6886.48 292.866   6
   2   2  -1 7066.07 264.970  30
   2   2   0 7420.74 257.869  30
  -2  -2   0 7645.73 328.228   6
  -2  -2   0 7803.51 440.367   3
  -2  -2  -1 1858.35 166.939   2
  -2  -2  -2 9100.56 381.485   2
  -2  -2  -2 9215.61 548.710   5
  -2  -2  -3 507.421 150.007   5
  -2  -2  -3 655.637 112.308   2
  -2  -2  -4 1974.23 298.678   5
  -2  -2  -5 74.8039 82.7693   5
  -2  -2  -6 471.297 170.623   5
   2   2   7 931.614 205.064  31
   2   2   7 967.599 153.000  29
   2   2   8 745.588 137.055  29
   2   2   9 4140.66 302.455  29
   2   2  10 6181.35 345.642  29
   2   2  10 4857.14 412.938  18
   2   2  11 753.437 138.868  18
   2   2  11 721.688 107.835  29
  -2  -3  14-16.0171 70.5857  26
  -2  -3  14-23.9707 53.4856  28
  -2  -3  13 1928.90 246.694  28
  -2  -3  13 1344.31 259.928  26
  -2  -3  12 1536.49 305.115  26
  -2  -3  12 2295.59 303.454  28
  -2  -3  11 1719.73 287.890  28
  -2  -3  10 232.184 95.6103   7
  -2  -3  10 189.210 131.671  28
  -2  -3   9 845.964 162.835   7
  -2  -3   9 741.142 208.744  28
   2   3  -8 5529.11 393.899  30
  -2  -3   8 5858.03 1162.96  22
   2   3  -7 10312.4 500.932  30
  -2  -3   6 5808.31 779.116  33
   2   3  -6 7404.72 408.756  30
  -2  -3   5 3110.49 258.802   6
   2   3  -5 3036.87 248.172  30
  -2  -3   5 2582.53 458.848  33
  -2  -3   4 8647.73 701.949  33
  -2  -3   4 9489.88 420.885   6
   2   3  -4 8542.29 385.105  30
   2   3  -3 18354.2 532.590  30
  -2  -3   3 17653.7 887.339  33
  -2  -3   3 17850.9 540.900   6
   2   3  -2 271.644 61.6656  30
  -2  -3   2 257.732 71.5143   6
  -2  -3   2 236.295 94.5407   3
   2   3  -1 2392.98 175.700  30
  -2  -3   1 2144.49 187.889   6
  -2  -3   1 2083.17 243.628   3
  -2  -3   0 0.40524 45.7775   3
   2   3   0 44.7588 33.3898  30
  -2  -3   0 2.25167 47.5824   6
  -2  -3  -1 16540.3 581.194   6
  -2  -3  -3 4640.08 447.840   5
  -2  -3  -4 14499.1 847.362   5
  -2  -3  -5-4.23887 67.1286   5
   2   3   6 11124.2 464.573  29
   2   3   6 9001.60 643.862  31
  -2  -3  -6 9045.42 759.492   5
   2   3   7 14976.7 846.364  31
   2   3   7 15527.1 566.633  29
   2   3   8 14633.5 557.640  29
   2   3   8 10945.0 637.180  18
   2   3   9-25.5554 54.6635  29
   2   3   9-12.4419 81.8944  18
   2   3  10 2517.18 266.537  18
   2   3  10 2592.40 212.988  29
   2   3  11 570.518 85.0462  29
   2   3  11 635.251 116.226  18
  -2  -4  14-45.6364 54.3349  28
  -2  -4  13 80.8514 120.363  26
  -2  -4  13 67.9578 79.9520  28
  -2  -4  12 1420.16 172.837   7
  -2  -4  12 1136.91 213.567  28
  -2  -4  11 275.919 98.9105   7
  -2  -4  11 223.240 122.651  28
  -2  -4  10 264.572 117.635   7
  -2  -4  10 209.340 144.826  28
  -2  -4   9 7095.04 446.065   7
  -2  -4   9 5712.90 503.266  28
  -2  -4   8 14733.3 612.819   7
   2   4  -7 1077.72 174.210  30
  -2  -4   6 5671.19 755.727  33
  -2  -4   6 6482.18 434.888   6
   2   4  -6 7051.15 418.015  30
  -2  -4   5 743.779 145.966   6
   2   4  -5 775.162 133.070  30
  -2  -4   5 781.291 274.605  33
   2   4  -4 33551.6 831.659  30
  -2  -4   4 33108.1 1408.05  33
  -2  -4   4 33361.8 865.209   6
  -2  -4   3 89.1035 108.934  33
  -2  -4   3 66.7916 62.0407   6
   2   4  -3 53.8775 41.0430  30
  -2  -4   2 725.949 181.650  33
  -2  -4   2 721.872 126.191   6
   2   4  -2 744.576 113.115  30
  -2  -4   2 600.932 158.553   3
   2   4  -1 12850.5 457.294  30
  -2  -4   1 13243.5 643.445   3
  -2  -4   1 13309.9 521.005   6
  -2  -4   0 1021.34 147.173   6
  -2  -4   0 890.115 167.994   3
  -2  -4  -1 3716.30 364.309   3
  -2  -4  -1 3710.59 292.241   6
  -2  -4  -2 58744.8 1248.71   6
  -2  -4  -3 313.183 100.883   6
  -2  -4  -4 8530.78 563.926   6
   2   4   5 391.916 88.3020  29
   2   4   5 349.498 79.9164  18
   2   4   5 372.070 124.118  31
   2   4   6-12.0345 64.8383  29
   2   4   6-69.2797 109.882  18
   2   4   6 79.1351 88.3634  31
   2   4   7 28924.9 1191.69  31
   2   4   7 30036.4 1030.47  18
   2   4   8 30.8522 43.4617  29
   2   4   8-33.0560 88.2599  18
   2   4   9 377.633 117.053  18
   2   4   9 285.422 74.8013  29
   2   4  10 790.023 128.782  18
   2   4  10 757.627 106.627  29
  -2  -5  13 319.081 130.718  26
  -2  -5  13 597.397 125.206  28
  -2  -5  13 705.452 99.1383   7
  -2  -5  12 1154.91 151.488   7
  -2  -5  12 1085.37 194.936  28
  -2  -5  11 1681.79 214.958   7
  -2  -5  11 1144.88 221.862  28
  -2  -5  10 6318.50 493.930  28
  -2  -5  10 8158.29 480.408   7
  -2  -5   9 18287.8 721.903   7
  -2  -5   8 8218.09 466.989   7
   2   5  -7 6834.76 468.860  30
   2   5  -6 8902.31 510.158  30
  -2  -5   6 7423.62 520.183   6
  -2  -5   5 67.9740 70.5760   6
   2   5  -5 94.1682 62.8214  30
   2   5  -4 5695.51 375.411  30
  -2  -5   4 5433.62 396.953   6
   2   5  -3 8640.25 441.231  30
  -2  -5   3 8188.22 467.624   6
   2   5  -2 56.0891 31.2041  30
  -2  -5   2 71.5473 63.2599   6
  -2  -5   1 916.191 158.423   6
  -2  -5   1 967.848 195.966   3
  -2  -5   0 113.474 76.3464   6
  -2  -5   0 56.0879 68.9796   3
  -2  -5  -1 18570.8 721.170   6
  -2  -5  -2 19.9368 66.0198   6
  -2  -5  -3 4505.13 405.412   6
   2   5   4 19026.7 745.010  18
   2   5   4 20738.9 652.227  29
   2   5   5 26581.2 910.838  18
   2   5   5 27145.0 770.974  29
   2   5   6 18.0071 75.1603  18
   2   5   6-56.9440 120.471  31
   2   5   6-13.2594 63.5742  29
   2   5   7 2328.61 280.232  18
   2   5   7 1823.36 298.356  31
   2   5   7 2358.59 230.627  29
   2   5   8 3227.06 293.451  18
   2   5   8 3232.24 250.625  29
   2   5   9 65.0403 58.3400  18
   2   5  10-370.191 181.972  25
  -2  -6  13 38.7869 40.7182   7
  -2  -6  12 9.53498 47.2354   7
  -2  -6  11 431.552 111.405   7
  -2  -6  10 4027.64 341.747   7
  -2  -6   9 134.158 89.6511   7
  -2  -6   8 722.244 156.116   7
  -2  -6   7 2721.04 269.889   7
  -2  -6   6 1134.93 246.160   6
  -2  -6   5 2783.98 344.613   6
   2   6  -5 3515.30 325.628  30
  -2  -6   4 127.890 78.1811   6
   2   6  -4 54.2658 43.0536  30
  -2  -6   3 1686.15 242.906   6
  -2  -6   2 474.427 124.107   6
  -2  -6   1 2458.16 278.793   6
  -2  -6   0 127.280 79.7862   6
  -2  -6  -1 120.828 79.2651   6
   2   6   2 1148.96 274.901  25
   2   6   3 30410.5 865.553  18
   2   6   3 26408.5 1301.30  31
   2   6   4 82.9769 72.7974  18
   2   6   4 71.0614 85.7389  31
   2   6   5 12662.0 580.294  18
   2   6   5 10964.7 787.623  31
   2   6   6 8522.24 638.024  31
   2   6   6 10289.5 514.230  18
   2   6   7 975.437 152.691  18
   2   6   7 918.500 197.474  31
   2   6   8 56.7106 190.060  25
   2   6   8 914.174 136.083  18
   2   6   9 3465.98 376.149  25
  -2  -7  13 3333.03 183.055   7
  -2  -7  12 1322.68 146.275   7
  -2  -7  11 1460.07 179.377   7
  -2  -7  10 9698.00 501.055   7
  -2  -7   9 4626.28 358.126   7
  -2  -7   8 1714.95 231.111   7
  -2  -7   8 2115.80 255.189   8
  -2  -7   7 5288.58 387.471   7
   2   7  -7 6878.57 359.431  17
  -2  -7   6 22343.4 771.385   7
   2   7  -6 26061.4 643.080  17
   2   7  -5 27026.5 649.355  17
   2   7  -4 1009.92 127.913  17
   2   7  -3 12207.1 674.575  24
   2   7  -3 12994.9 435.443  17
   2   7  -2 3968.61 369.395  24
   2   7  -2 3973.69 237.536  17
   2   7  -1 5852.62 424.683  24
   2   7  -1 5164.90 271.553  17
   2   7   0 429.147 127.073  24
   2   7   0 516.591 85.8634  17
   2   7   1 172.361 73.5465  24
   2   7   1 152.209 53.6942  17
   2   7   2 858.461 172.196  24
   2   7   2 1947.24 497.013  25
   2   7   3 1102.08 418.602  25
   2   7   3 70.8911 84.9294  31
   2   7   4 10922.7 867.650  25
   2   7   4 7408.59 657.189  31
   2   7   5 9557.03 814.307  25
   2   7   5 7963.31 627.444  31
   2   7   5 9554.26 476.329  15
   2   7   6 467.494 247.780  25
   2   7   6 594.242 129.476  24
   2   7   6 338.761 132.275  31
   2   7   7 626.715 244.179  25
   2   7   7 58.5079 67.7935  31
   2   7   8 1716.09 281.634  25
  -2  -8  12 1194.41 126.039   7
  -2  -8  11 769.991 123.184   7
  -2  -8  10 952.198 145.439   7
  -2  -8   9 555.012 131.216   8
  -2  -8   9 542.435 131.783   7
  -2  -8   8 60.3345 74.0711   8
  -2  -8   8 2.36857 59.0257   7
   2   8  -7 7595.42 450.464  17
  -2  -8   7 4728.91 351.025   7
   2   8  -6 10266.7 441.681  17
   2   8  -5 48671.0 917.217  17
   2   8  -4 13180.9 474.207  17
   2   8  -3 54.4081 43.8564  17
   2   8  -2 15854.2 506.665  17
   2   8  -2 13427.0 737.263  24
   2   8  -1 25505.1 643.698  17
   2   8  -1 26138.0 974.450  24
   2   8   0 1118.77 210.059  24
   2   8   0 1117.52 139.388  17
   2   8   1 5945.91 450.030  24
   2   8   2 1364.27 218.204  24
   2   8   2 888.727 248.490  31
   2   8   3 1548.73 225.603  24
   2   8   3 892.137 243.817  31
   2   8   4 2413.17 239.394  15
   2   8   4 1728.07 288.466  31
   2   8   5 1450.20 186.854  24
   2   8   5 1110.14 150.081  15
   2   8   6 154.582 89.7560  31
  -2  -9  11 751.639 102.502   7
  -2  -9  10 134.245 49.0081   7
  -2  -9  10 156.397 60.6191   8
  -2  -9   9 1552.73 175.139   7
  -2  -9   9 1478.30 193.833   8
  -2  -9   8 180.744 73.8972   7
   2   9  -8 139.512 70.1122  17
  -2  -9   8 173.851 84.5440   8
   2   9  -7 11228.9 551.974  17
  -2  -9   7 9334.87 523.707   8
   2   9  -6 2262.74 255.277  17
   2   9  -5 588.111 120.978  17
   2   9  -4 480.497 101.784  17
   2   9  -3 6334.02 346.618  17
   2   9  -2 14254.2 502.521  17
   2   9  -1 2236.81 200.676  17
   2   9  -1 2201.54 304.541  24
   2   9   0 199.153 105.620  24
   2   9   0 212.108 68.6530  17
   2   9   1 5923.66 449.460  24
   2   9   2 319.769 113.363  24
   2   9   3 19.5842 41.4970  24
   2   9   3-38.1554 54.9472  15
   2   9   4 456.925 95.2930  15
   2   9   5 1472.05 149.171  15
  -2 -10   9 568.908 105.646   8
   2  10  -8 3499.46 258.696  17
  -2 -10   8 3720.65 284.442   8
  -2 -10   7 102.430 78.3752   8
   2  10  -7 67.9043 59.3917  17
  -2 -10   6 162.902 88.6222   8
   2  10  -6 127.073 79.5124  17
  -2 -10   5 1402.34 201.321   8
   2  10  -5 1984.50 289.504  17
   2  10  -4 1164.40 194.056  17
   2  10  -3 851.035 164.437  17
   2  10  -2 227.891 73.5025  17
   2  10  -2 172.081 63.1726  15
   2  10  -1 132.712 75.1425  17
   2  10  -1 7.11036 41.6311  15
   2  10   0-19.3820 51.2810  15
   2  10   1 174.753 61.5735  15
   2  10   2 3.35925 36.9484  15
   2  10   3 1702.68 166.922  15
   2  10   4 5722.78 263.290  15
   2  11  -8 2041.31 166.862  17
  -2 -11   8 2028.15 183.372   8
  -2 -11   7 22.5320 43.1718   8
   2  11  -7 20.9095 33.9234  17
   2  11  -6 1607.07 176.065  17
  -2 -11   6 1660.25 182.013   8
   2  11  -5 1437.69 175.799  17
  -2 -11   5 1391.78 170.744   8
   2  11  -4 7507.82 393.157  17
  -2 -11   4 7154.31 380.862   8
   2  11  -3 17278.9 578.348  17
  -2 -11   3 15843.7 547.381   8
  -2 -11   2 3407.94 243.342   8
   2  11  -2 3784.47 266.662  17
   2  11  -2 3100.95 215.629  15
   2  11  -1 726.264 112.415  17
   2  11  -1 638.880 102.492  15
   2  11   0 1646.86 158.532  15
   2  11   1 1498.57 144.682  15
  -3  12   0 1384.72 120.566  16
  -3  12  -1 532.157 144.219  31
  -3  12  -1 641.133 89.6608  16
  -3  12  -2 112.464 77.8773  31
  -3  12  -2 51.6381 35.2532  16
  -3  12  -3 659.478 180.124  31
  -3  12  -3 720.638 92.6925  16
  -3  12  -4 1176.44 225.741  31
  -3  12  -4 1328.05 114.805  16
  -3  12  -5 1891.07 268.922  31
  -3  12  -5 2235.70 140.605  16
  -3  12  -6 255.488 90.6937  17
  -3  11   4 1401.91 172.277  12
  -3  11   3 189.574 89.2430  12
  -3  11   2 455.184 118.747  12
  -3  11   2 492.961 77.7916  16
  -3  11   1 545.288 166.151  31
  -3  11   1 608.185 97.3996  16
  -3  11   0 2443.56 377.791  31
  -3  11   0 2543.22 192.849  16
  -3  11  -1 814.904 157.409  12
  -3  11  -1 576.476 192.638  31
  -3  11  -1 632.854 99.5871  16
  -3  11  -2-8.37248 82.5868  31
  -3  11  -2 23.7242 33.3719  16
  -3  11  -3 858.865 176.020  17
  -3  11  -3 1013.43 265.018  31
  -3  11  -3 1190.92 134.422  16
  -3  11  -4 1136.55 202.457  17
  -3  11  -4 1497.65 318.823  31
  -3  11  -4 1736.19 155.832  16
  -3  11  -5 483.702 194.594  31
  -3  11  -5 268.690 116.965  17
  -3  11  -5 268.250 61.6023  16
  -3  11  -6 1097.11 106.020  16
  -3  11  -6 714.925 168.288  17
  -3  11  -6 1326.35 274.688  31
  -3  11  -7 1864.72 258.788  17
  -3  11  -7 3935.70 436.497  31
  -3  11  -8 80.5233 60.4870  17
  -3  11  -8 104.771 89.9901  31
   3 -11   9 40.0885 28.4114  10
  -3  10   5 261.326 48.7698  13
  -3  10   5 479.532 120.280  12
  -3  10   4 3.78018 18.9609  13
  -3  10   3 3233.81 402.110  31
  -3  10   3 3076.23 206.547  16
  -3  10   2 5053.23 555.256  31
  -3  10   2 4898.67 278.765  16
  -3  10   1 4544.64 546.267  31
  -3  10   1 3830.26 257.592  16
  -3  10   0 8664.82 787.060  31
  -3  10   0 7905.40 377.822  16
  -3  10  -1 7675.04 760.728  31
  -3  10  -1 7430.87 363.220  16
  -3  10  -2 5925.97 671.131  31
  -3  10  -2 5218.54 305.368  16
  -3  10  -3 411.269 88.2535  16
  -3  10  -3 213.949 107.520  17
  -3  10  -3 312.159 182.482  31
  -3  10  -4 3606.33 239.355  16
  -3  10  -4 4421.38 603.160  31
  -3  10  -5 1708.25 158.817  16
  -3  10  -5 1176.63 211.411  17
  -3  10  -6 2493.75 327.198  17
  -3  10  -7 6.07102 66.3200  17
  -3  10  -8 1093.46 214.386  17
  -3  10  -9 162.748 81.7751  17
   3 -10  10 43.8977 33.9285  10
  -3   9   7 4667.81 165.102  13
  -3   9   6 66.4756 33.3238  13
  -3   9   6 137.073 89.0225  12
  -3   9   5 339.322 69.7466  13
  -3   9   4 5447.29 306.839  13
  -3   9   3 550.884 95.7282  13
  -3   9   3 586.731 215.121  31
  -3   9   3 529.365 105.257  16
  -3   9   2 258.698 77.7489  16
  -3   9   2 288.929 185.159  31
  -3   9   1 764.039 248.316  31
  -3   9   1 389.799 92.3333  16
  -3   9   0 957.916 288.091  31
  -3   9   0 930.898 137.926  16
  -3   9  -1 23357.2 653.591  16
  -3   9  -1 26862.0 1442.75  31
  -3   9  -2 1262.13 227.954  17
  -3   9  -2 1931.73 422.055  31
  -3   9  -3 335.591 125.680  17
  -3   9  -4 5888.91 469.702  17
  -3   9  -5 2603.52 318.024  17
   3  -9   6 231.940 70.1495   7
  -3   9  -6 27.3202 86.2859  17
  -3   9  -7 5728.16 485.317  17
   3  -9   7 6985.29 344.158   7
   3  -9   8-22.0426 34.3589   7
  -3   9  -8-17.8533 71.5552  17
   3  -9   9 87.8020 46.8381   7
  -3   9  -9 74.2128 74.7680  17
   3  -9  10 774.537 119.933  10
   3  -9  10 1013.23 113.661   7
   3  -9  11 537.294 84.6944  10
  -3   8   8 6521.52 192.564  13
  -3   8   7 356.463 71.4299  13
  -3   8   7 254.394 117.509  12
  -3   8   6-7.47243 30.1488  13
  -3   8   5 1554.48 174.735  13
  -3   8   4 1036.79 138.687  13
  -3   8   3 3086.64 236.463  16
  -3   8   2 2054.07 207.122  16
  -3   8   2 2371.40 264.629  15
  -3   8   1 284.056 100.794  15
  -3   8   1 215.543 66.6126  16
  -3   8   0 1041.52 144.148  16
  -3   8  -1 8499.76 518.154  17
  -3   8  -2 5347.36 432.081  17
  -3   8  -3 692.358 167.609  17
  -3   8  -4 442.382 137.087  17
  -3   8  -5 1456.32 231.657  17
   3  -8   5 1516.16 167.594   7
  -3   8  -6 1126.77 213.680  17
   3  -8   6 1322.95 162.592   7
   3  -8   7 70.4779 55.6920   7
  -3   8  -7 225.803 127.560  17
   3  -8   8 384.657 89.7555   7
  -3   8  -8 179.543 116.486  17
  -3   8  -9 7178.52 523.898  17
   3  -8   9 10988.1 429.096   7
   3  -8  10 4004.76 289.132  10
   3  -8  10 4946.78 269.235   7
   3  -8  11 55.0208 35.7164   7
   3  -8  11 58.2977 36.0085  10
  -3   7   9 159.731 144.172  27
  -3   7   8 3774.80 202.146  13
  -3   7   8 127.479 159.420  27
  -3   7   7 225.470 206.547  27
  -3   7   7 277.530 68.5801  13
  -3   7   7 566.096 157.696  12
  -3   7   6 4475.47 297.848  13
  -3   7   5 17070.0 599.162  13
  -3   7   4 3361.91 252.176  16
  -3   7   3 9697.99 409.943  16
  -3   7   3 9296.19 505.127  15
  -3   7   2 349.922 77.2737  16
  -3   7   2 390.058 109.959  15
  -3   7   1-42.2010 51.0309  16
  -3   7   1 41.8111 53.2442  15
  -3   7   0 242.760 59.9478  16
  -3   7   0 236.431 102.344   1
  -3   7  -1 50.5533 64.6191  20
  -3   7  -1 5.87916 47.2500   1
  -3   7  -2 472.367 153.721  20
  -3   7  -3 30.3627 71.4547  17
  -3   7  -4 2434.66 288.019  17
   3  -7   4 2558.78 213.067   7
  -3   7  -5 6311.59 492.365  17
   3  -7   5 5831.47 326.898   7
   3  -7   6 44.2391 54.0050   7
  -3   7  -6-41.5835 106.812  17
  -3   7  -7 1287.08 236.379  17
   3  -7   7 1721.42 182.428   7
  -3   7  -8 6447.90 536.999  17
   3  -7   8 8912.98 411.741   7
  -3   7  -9 332.263 127.044  17
   3  -7   9 771.894 127.045   7
   3  -7  10 1008.85 162.047  10
   3  -7  10 1211.12 142.581   7
   3  -7  11 3352.33 242.384  10
   3  -7  11 3597.59 216.504   7
   3  -7  12 880.579 99.6247  29
  -3   6  10 991.799 260.608  27
  -3   6   9 12820.0 317.204  13
  -3   6   9 3154.78 510.516  27
  -3   6   8 1325.57 361.089  27
  -3   6   8 3143.54 215.353  13
  -3   6   7 2417.67 213.526  13
  -3   6   6 418.003 259.039  27
  -3   6   6 538.913 109.573  13
  -3   6   5 3493.22 265.273  13
  -3   6   4 6176.71 321.257  16
  -3   6   3 45.6178 47.2344  16
  -3   6   3 66.5024 60.6440  15
  -3   6   2 38704.6 1116.74   1
  -3   6   1 33076.4 1044.08   1
  -3   6   1 36953.1 1314.11  20
  -3   6   0 8396.96 521.584   1
  -3   6   0 9696.69 637.810  20
  -3   6  -1 135.623 72.4778  20
  -3   6  -1 89.2203 51.3026   1
  -3   6  -2 28495.3 1024.79  20
  -3   6  -2 24153.1 865.052   1
  -3   6  -3 94.6575 47.1542   1
  -3   6  -3 129.148 82.1053   4
  -3   6  -4 656.728 156.875   4
  -3   6  -4 868.832 171.764   1
  -3   6  -5 10101.7 584.893  17
   3  -6   5 9126.81 394.091   7
  -3   6  -6 3993.93 404.044  17
   3  -6   6 4552.36 296.129   7
   3  -6   7 563.439 106.191   7
  -3   6  -7 521.104 172.971  17
  -3   6  -8 547.390 166.216  17
   3  -6   8 833.497 133.896   7
   3  -6   9 7405.15 372.685   7
   3  -6  10 7842.12 431.709  10
   3  -6  10 8820.77 378.380   7
   3  -6  11 31.0422 35.1189   7
   3  -6  11 67.0269 52.3002  10
   3  -6  12 1387.22 135.757  29
  -3   5  11-61.6929 149.367  27
  -3   5  10 546.134 252.024  27
  -3   5   9 11301.8 333.551  13
  -3   5   8 7068.13 329.911  13
  -3   5   7 6338.14 339.995  13
  -3   5   7 4702.73 682.919  27
  -3   5   6 7427.75 378.904  13
  -3   5   5 119.116 191.833  27
  -3   5   5-34.1328 46.1124  13
  -3   5   4 2341.76 476.772  21
  -3   5   3 5391.72 672.305  21
  -3   5   3 4992.64 380.873   1
  -3   5   2 11384.1 569.812   1
  -3   5   1 86.1529 80.3748   1
  -3   5   1 103.008 73.2050  20
  -3   5   0 10105.6 530.720   1
  -3   5   0 11000.2 607.569  20
  -3   5  -1 34179.4 1015.21  20
  -3   5  -1 28907.7 856.407   1
  -3   5  -2 3619.27 311.845   1
  -3   5  -3 130.481 75.7430   1
  -3   5  -3 83.8516 76.9823   4
  -3   5  -4 17368.5 741.275   4
  -3   5  -4 18434.1 732.894   1
  -3   5  -5 191.537 94.2567   1
  -3   5  -5 262.404 115.150   4
   3  -5   6 269.484 75.6401   7
  -3   5  -7 1527.35 280.950  17
   3  -5   7 1919.77 192.380   7
   3  -5   8 17839.0 577.096   7
   3  -5   9 4277.04 348.214  10
   3  -5   9 4516.11 291.219   7
   3  -5  10 787.133 156.572  10
   3  -5  10 1008.79 130.833   7
   3  -5  11 139.668 48.9412   7
   3  -5  12 152.255 55.5850  29
  -3   4  12 2113.83 302.404  27
  -3   4  11-173.857 197.994  27
  -3   4  10 422.759 269.483  27
  -3   4   9 12986.9 397.463  13
  -3   4   8 19622.1 517.537  13
  -3   4   8 17465.3 1305.95  27
  -3   4   7 732.502 118.819  13
  -3   4   6 772.791 301.323  27
  -3   4   6 1728.25 171.474  13
  -3   4   5 12245.7 1082.58  21
   3  -4  -5 10619.0 600.609  32
  -3   4   4 466.751 117.264   1
  -3   4   4 535.934 203.185  21
  -3   4   3 13070.7 922.816  21
  -3   4   3 12619.9 568.568   1
  -3   4   2 8509.05 455.479   1
  -3   4   1 5457.52 368.936   1
  -3   4   1 5840.99 416.229  20
  -3   4   0 8016.88 436.898   1
  -3   4   0 7463.95 388.115   2
  -3   4   0 8703.21 476.075  20
  -3   4  -1 408.359 103.182  20
  -3   4  -1 438.660 107.888   1
  -3   4  -2 35049.6 878.391   1
  -3   4  -3 2722.46 284.343   4
  -3   4  -3 3085.26 270.503   1
  -3   4  -4 18510.3 741.401   4
  -3   4  -4 19709.7 687.313   1
  -3   4  -5 1681.33 242.079   4
  -3   4  -5 1837.59 220.733   1
  -3   4  -6 19428.3 851.639   4
   3  -4   7 2479.03 282.072  28
   3  -4   7 2586.65 215.355   7
   3  -4   8 3432.71 312.856  10
   3  -4   8 4052.72 362.433  28
   3  -4   8 3612.78 258.343   7
   3  -4   9 22.7964 53.3963   7
   3  -4   9 117.349 97.4430  10
   3  -4  10 2210.89 235.889  10
   3  -4  10 2377.21 199.804   7
   3  -4  11 2847.87 240.621  29
   3  -4  12 63.3901 44.8232  29
  -3   3  12-14.1972 144.848  27
  -3   3  11 98.4008 220.484  27
  -3   3  10 6152.94 775.824  27
  -3   3   9 722.329 339.372  27
  -3   3   8 156.845 281.884  27
  -3   3   8 5151.13 280.965  13
  -3   3   7 2001.14 459.535  27
  -3   3   7 3457.94 221.187  13
   3  -3  -6 2631.44 313.043  32
  -3   3   5 748.755 258.538  21
   3  -3  -5 754.562 170.807  32
  -3   3   4 1603.13 338.363  21
  -3   3   4 1237.40 355.593  33
   3  -3  -4 1420.39 196.860  32
  -3   3   3 1726.57 219.000   1
  -3   3   3 1845.21 319.498  21
  -3   3   3 1764.91 387.134  33
  -3   3   2 2862.18 405.791  33
  -3   3   2 2964.96 269.745   1
  -3   3   1 9379.89 406.470   2
  -3   3   1 10198.2 668.364  33
  -3   3   1 9599.20 456.890   1
  -3   3   0 4389.28 306.352   1
  -3   3   0 4502.58 301.629   2
  -3   3   0 4110.47 297.934  20
  -3   3  -1 1692.55 189.890   1
  -3   3  -1 1569.11 170.900  20
  -3   3  -2 17922.3 593.207   1
  -3   3  -2 18896.1 773.333   5
  -3   3  -3 297.614 124.297   5
  -3   3  -3 385.237 98.4233   1
  -3   3  -4 1021.49 177.110   4
  -3   3  -4 995.595 156.126   1
  -3   3  -4 952.820 196.076   5
  -3   3  -5 4110.95 368.938   4
  -3   3  -5 3110.52 357.512   5
  -3   3  -6 14498.6 815.226   5
  -3   3  -6 18953.6 822.775   4
   3  -3   7 695.118 145.720  10
   3  -3   7 746.612 115.152   7
   3  -3   7 635.697 148.979  28
   3  -3   8-11.6353 66.4952   7
   3  -3   8 31.5390 106.225  10
   3  -3   8 178.078 128.686  28
   3  -3   9 29864.2 877.141  10
   3  -3   9 31912.5 984.796  28
   3  -3  10 10208.7 488.918  29
   3  -3  11 86.5538 67.7794  29
   3  -3  12 1865.70 171.261  29
  -3   2  12 4024.04 421.106  26
  -3   2  12 4763.42 572.997  27
  -3   2  11 454.972 262.053  27
  -3   2  11 385.843 188.205  26
  -3   2  10 554.443 274.808  26
  -3   2  10 623.888 243.348  28
  -3   2   9 61.3648 216.211  27
  -3   2   9 77.3013 139.063  26
  -3   2   9 213.482 121.568  28
  -3   2   8 14193.5 381.135  13
  -3   2   8 6805.01 552.065  28
  -3   2   7 4884.31 233.760  13
   3  -2  -6 17838.4 770.075  32
  -3   2   5 4278.15 862.472  22
  -3   2   5 3471.27 639.267  33
   3  -2  -5 4176.62 351.044  32
  -3   2   4 34991.8 1694.97  33
  -3   2   4 38663.5 2245.04  22
  -3   2   4 38092.9 1437.55  21
   3  -2  -4 36253.3 930.781  32
   3  -2  -3-29.9565 43.7834  32
  -3   2   3 231.330 309.131  22
  -3   2   3 41.8517 68.5680  21
  -3   2   3 82.5109 184.361  33
  -3   2   3 10.5905 36.0372   1
  -3   2   2 34.9098 105.562  33
  -3   2   2 188.631 278.009  22
  -3   2   2 86.5670 67.7078  21
  -3   2   2 37.8249 46.4432   2
   3  -2  -2 32.2419 40.6851  32
  -3   2   2 95.8530 90.8589   1
  -3   2   1 1103.72 145.713   2
  -3   2   1 1100.82 157.203   3
  -3   2   1 1024.33 226.547  33
  -3   2   1 1008.75 140.092   1
  -3   2   0 29850.6 740.630   1
  -3   2   0 31282.4 772.569   2
  -3   2   0 31771.8 850.623   3
  -3   2  -1 13649.8 494.419   1
  -3   2  -1 13856.8 539.385   2
  -3   2  -2 4498.91 287.317   1
  -3   2  -2 4632.58 392.043   5
  -3   2  -3 22026.8 622.865   1
  -3   2  -3 21691.8 860.645   5
  -3   2  -4 8471.48 568.190   5
  -3   2  -5 4244.90 434.479   5
  -3   2  -6 2750.04 373.953   5
   3  -2   7 7863.29 440.943  10
   3  -2   7 6829.44 434.426  28
   3  -2   8 211.780 94.0864  10
   3  -2   8 326.292 113.712  28
   3  -2   9 2981.01 299.337  29
   3  -2   9 2720.60 309.710  28
   3  -2  10 3602.54 297.668  29
   3  -2  11 248.686 82.6358  29
   3  -2  12 1770.90 156.709  29
  -3   1  13 195.705 119.159  26
  -3   1  12 931.204 260.504  26
  -3   1  12 1073.97 224.680  28
  -3   1  12 506.518 227.574  27
  -3   1  11 1403.13 395.067  27
  -3   1  11 1536.67 340.457  26
  -3   1  11 2547.28 330.413  28
  -3   1  10 338.771 239.707  26
  -3   1  10 226.565 224.645  27
  -3   1  10 822.741 213.145  28
  -3   1   9 50.7034 180.142  27
  -3   1   9 371.673 222.091  28
  -3   1   8 1786.56 446.660  27
  -3   1   7 3450.21 905.264  22
  -3   1   7 2870.44 558.637  19
   3  -1  -6 153.181 168.634  32
  -3   1   6 836.288 567.253  22
  -3   1   6 915.477 540.620  19
  -3   1   6 1026.36 481.766  33
  -3   1   5 60289.4 2440.41  33
  -3   1   5 62835.3 3097.80  22
   3  -1  -5 64097.4 1267.09  32
  -3   1   4 2114.99 437.114  33
  -3   1   4 1808.23 571.997  22
   3  -1  -4 2501.27 242.455  32
  -3   1   3 43004.1 1568.33  33
   3  -1  -3 42077.6 906.435  32
  -3   1   3 40513.6 2018.45  22
  -3   1   2 2087.17 352.895  33
  -3   1   2 2259.63 253.732   3
  -3   1   2 2020.42 196.404   1
   3  -1  -2 2071.65 186.570  32
  -3   1   1 5712.41 327.684   2
   3  -1  -1 5898.75 286.700  32
  -3   1   1 5757.23 311.388   1
  -3   1   1 5834.97 375.643   3
  -3   1   0 13145.7 496.263   2
   3  -1   0 13565.7 400.946  32
  -3   1   0 13459.9 463.999   1
  -3   1   0 13902.8 602.954   3
  -3   1  -1 969.131 147.361   2
  -3   1  -1 969.625 129.467   1
  -3   1  -2 17090.3 626.371   2
  -3   1  -2 18477.5 526.479   1
  -3   1  -2 17172.6 782.276   5
  -3   1  -3 5348.99 367.020   2
  -3   1  -3 5995.45 300.370   1
  -3   1  -3 5598.99 449.615   5
  -3   1  -4 29303.9 1088.50   5
  -3   1  -5 269.929 156.881   5
  -3   1  -6 9156.26 711.989   5
   3  -1   7 1351.52 210.705  10
   3  -1   7 1603.97 277.904  28
   3  -1   8 850.852 169.123  28
   3  -1   8 1056.58 176.098  29
   3  -1   9 6.46851 52.1035  29
   3  -1  10 8374.51 427.606  29
   3  -1  11 444.070 94.7058  29
   3  -1  12 154.719 51.1303  29
  -3   0  13 534.246 158.991  26
  -3   0  13 852.819 147.733  28
  -3   0  12 1.61867 111.074  26
  -3   0  12 67.9650 83.1000  28
  -3   0  11 609.688 277.540  26
  -3   0  11 605.846 265.995  28
  -3   0  10 68.1540 156.012  27
  -3   0  10 386.770 156.814  28
  -3   0   9 296.068 195.825  27
  -3   0   9 1648.56 301.857  28
  -3   0   8 7723.24 790.929  27
  -3   0   7 7696.02 1334.52  22
  -3   0   7 7084.86 963.808  19
  -3   0   6 19100.3 1867.11  22
  -3   0   6 18172.6 1437.11  33
  -3   0   5 900.164 594.258  22
  -3   0   5 1039.31 458.328  33
  -3   0   4 3107.25 483.482  33
   3   0  -4 3387.90 269.369  32
   3   0  -3 20145.2 593.928  32
  -3   0   3 20387.9 1070.26  33
  -3   0   2 8995.39 680.638  33
  -3   0   2 9309.62 524.460   3
   3   0  -2 8819.46 367.332  32
  -3   0   1 7247.12 448.308   3
  -3   0   1 7271.26 275.199   6
  -3   0   1 7578.02 382.592   2
  -3   0   0 3802.77 280.248   2
  -3   0   0 3723.21 228.976   1
  -3   0   0 3980.27 337.887   3
  -3   0  -1 1688.56 189.110   2
  -3   0  -1 1718.72 152.987   1
  -3   0  -2 1163.45 166.932   2
  -3   0  -2 1280.50 133.763   1
  -3   0  -2 1482.25 245.395   5
  -3   0  -3 1374.76 191.829   2
  -3   0  -3 1536.67 252.037   5
  -3   0  -4 34146.7 973.723   2
  -3   0  -4 34133.9 1239.92   5
  -3   0  -5 21542.4 807.271   2
  -3   0  -5 22128.8 1064.44   5
  -3   0  -6 185.659 135.284   5
  -3   0  -6 143.605 91.3729   2
   3   0   7 11108.7 502.218  29
   3   0   8 4776.63 346.885  29
   3   0   9 525.864 119.775  29
   3   0  10 1464.95 178.831  29
   3   0  11 4583.53 265.965  29
   3   0  12 41.6540 30.4152  29
  -3  -1  13 1033.22 231.697  26
  -3  -1  13 1154.71 186.600  28
  -3  -1  12 508.398 198.782  26
  -3  -1  12 1044.90 219.702  28
  -3  -1  11 10016.8 680.297  28
  -3  -1  10 13482.1 835.473  28
  -3  -1   9 686.925 218.536  28
  -3  -1   7 4080.85 959.172  22
  -3  -1   7 4195.93 755.001  33
  -3  -1   6 619.576 314.075  33
  -3  -1   6 824.636 476.996  22
  -3  -1   5 482.200 283.829  33
  -3  -1   4 19770.8 1180.51  33
  -3  -1   3 237.569 178.360  33
  -3  -1   2 1051.15 114.269   6
  -3  -1   2 965.050 179.824   3
  -3  -1   1 5664.71 278.349   6
  -3  -1   1 5883.61 421.995   3
  -3  -1   0 126.870 63.9104   2
   3   1   0 84.9280 35.6979  30
  -3  -1   0 80.4504 58.4986   6
  -3  -1   0 80.5313 57.6823   3
  -3  -1  -1 17625.6 616.021   2
  -3  -1  -2 282.507 76.0530   2
  -3  -1  -3 9617.61 485.507   2
  -3  -1  -3 9828.29 684.465   5
  -3  -1  -4 9498.38 501.195   2
  -3  -1  -4 9245.77 689.005   5
  -3  -1  -5 1199.50 269.254   5
   3   1   6 13957.9 533.199  29
   3   1   7 3202.05 280.255  29
   3   1   8 215.774 80.0706  29
   3   1   9 5803.05 348.276  29
   3   1  10 142.997 64.4921  29
   3   1  11 5324.16 272.732  29
  -3  -2  13 764.704 201.222  26
  -3  -2  13 1065.62 181.758  28
  -3  -2  12 2433.16 326.242  28
  -3  -2  11 1529.95 307.805  28
  -3  -2  10 14186.9 865.020  28
  -3  -2   9 12499.4 567.920   7
  -3  -2   9 9637.56 700.064  28
  -3  -2   8 659.308 180.635  11
  -3  -2   8 630.009 146.522   7
  -3  -2   7 26116.7 2384.40  22
  -3  -2   7 23130.6 1778.30  33
   3   2  -7 26719.8 878.156  30
  -3  -2   6 9432.17 1019.90  33
  -3  -2   5 15192.7 1194.11  33
  -3  -2   4 5600.45 629.935  33
  -3  -2   3 59836.0 972.527   6
  -3  -2   3 61937.2 1914.38  33
   3   2  -3 58940.4 1030.58  30
  -3  -2   2 6812.80 331.318   6
  -3  -2   2 6753.42 494.963   3
   3   2  -2 6902.26 325.565  30
  -3  -2   1 1081.52 134.615   6
  -3  -2   1 1030.12 185.681   3
   3   2  -1 1003.33 114.295  30
  -3  -2   0 447.877 96.3186   6
  -3  -2   0 417.355 132.636   3
  -3  -2  -1 25173.1 753.293   6
  -3  -2  -1 25576.2 775.328   2
  -3  -2  -2 18038.3 656.753   2
  -3  -2  -3 451.243 110.644   2
  -3  -2  -4 7852.15 677.780   5
  -3  -2  -5 21238.4 1179.56   5
   3   2   6 281.266 98.8089  29
   3   2   7 11927.6 506.012  29
   3   2   8 207.227 82.4272  29
   3   2   9 7902.70 395.928  29
   3   2  10 2414.69 199.455  29
   3   2  11 1580.29 136.251  29
  -3  -3  13 974.781 213.708  26
  -3  -3  13 1157.08 187.137  28
  -3  -3  12 447.239 161.185  28
  -3  -3  11 2690.67 258.247   7
  -3  -3  11 2032.10 310.283  28
  -3  -3  10 5110.86 375.682   7
  -3  -3  10 3771.57 449.491  28
  -3  -3   9 13113.0 591.215   7
  -3  -3   9 9848.63 688.744  28
  -3  -3   8 4872.42 366.927   7
  -3  -3   8 3384.90 409.868  28
  -3  -3   7 5219.90 864.461  33
   3   3  -7 6060.61 432.447  30
  -3  -3   6 1892.75 497.745  33
   3   3  -6 2048.65 241.322  30
  -3  -3   5 11760.5 1061.27  33
   3   3  -5 12415.7 549.318  30
  -3  -3   4 4467.07 590.580  33
  -3  -3   4 4685.49 321.330   6
   3   3  -4 4429.93 309.239  30
  -3  -3   3 218.105 169.850  33
   3   3  -3 50.3862 47.3984  30
  -3  -3   3 74.0163 74.1088   6
  -3  -3   2 8200.55 585.125   3
  -3  -3   2 7802.98 398.168   6
   3   3  -2 7739.62 370.691  30
  -3  -3   1 6549.58 511.162   3
  -3  -3   1 6543.20 371.071   6
   3   3  -1 6981.64 334.685  30
  -3  -3   0 12657.7 537.510   6
  -3  -3   0 13377.1 721.360   3
  -3  -3  -1 1045.94 171.369   6
  -3  -3  -1 1024.74 217.226   3
  -3  -3  -2 2391.61 273.398   6
  -3  -3  -3 502.772 131.611   6
  -3  -3  -4 830.932 207.068   6
   3   3   5 48.9903 42.0016  29
   3   3   6 8577.54 426.890  29
   3   3   7 22023.6 700.197  29
   3   3   8 11932.6 498.079  29
   3   3   9 1485.30 165.732  29
   3   3  10 38.2443 35.0260  29
  -3  -4  13 3655.40 378.091  26
  -3  -4  13 4589.82 333.735  28
  -3  -4  12 373.450 86.9856   7
  -3  -4  12 360.988 138.179  28
  -3  -4  11 2835.69 269.463   7
  -3  -4  11 1891.75 290.706  28
  -3  -4  10 3051.63 383.469  28
  -3  -4  10 4311.34 362.842   7
  -3  -4   9 13667.2 617.948   7
  -3  -4   9 9688.43 675.917  28
  -3  -4   8 550.588 137.173   7
  -3  -4   8 346.267 127.063  28
  -3  -4   7 2589.83 268.458   7
  -3  -4   7 1901.73 284.012  11
  -3  -4   6 20459.1 1564.50  33
   3   4  -6 23791.7 839.198  30
  -3  -4   5 1108.04 373.582  33
   3   4  -5 1205.19 183.371  30
  -3  -4   4 10515.6 536.586   6
  -3  -4   4 11031.4 946.795  33
   3   4  -4 10930.7 526.033  30
  -3  -4   3 33932.6 1503.31  33
  -3  -4   3 32448.0 908.780   6
   3   4  -3 33736.5 890.356  30
  -3  -4   2 3636.04 478.470  33
  -3  -4   2 3461.35 297.452   6
  -3  -4   2 3423.32 412.885   3
   3   4  -2 3497.96 271.122  30
  -3  -4   1 59677.2 1628.05   3
  -3  -4   1 58483.7 1235.76   6
  -3  -4   0 12117.4 578.258   6
  -3  -4   0 12577.2 740.598   3
  -3  -4  -1 58379.3 1320.37   6
  -3  -4  -1 59557.4 1676.09   3
  -3  -4  -2 1681.63 237.014   6
  -3  -4  -2 1446.14 282.325   3
   3   4   3 1017.90 147.862  29
  -3  -4  -3 643.753 220.212   3
   3   4   4 6.02155 45.8071  29
   3   4   5 6995.84 394.888  29
   3   4   6 15180.1 584.830  29
   3   4   7 3413.90 278.778  29
   3   4   8 501.577 103.222  29
   3   4   9 4936.04 278.598  29
   3   4  10 454.734 171.719  25
  -3  -5  13 25.7742 86.7336  26
  -3  -5  13 171.637 53.3442   7
  -3  -5  13 155.809 63.6151  28
  -3  -5  12 3230.58 245.036   7
  -3  -5  12 2408.56 255.411  28
  -3  -5  11 6204.41 386.662   7
  -3  -5  11 4526.58 387.236  28
  -3  -5  10 34.9665 61.4339   7
  -3  -5  10 30.0838 81.5298  28
  -3  -5   9 17775.4 713.133   7
  -3  -5   8 1305.47 204.628   7
  -3  -5   7 957.930 189.962   7
  -3  -5   6 122.897 107.094  11
  -3  -5   6 294.288 117.015   7
  -3  -5   5-19.5366 59.3962   6
   3   5  -5 30.6029 54.4158  30
   3   5  -4 600.981 134.144  30
  -3  -5   4 591.580 138.054   6
  -3  -5   3 5574.66 422.499   6
   3   5  -3 5737.80 390.548  30
  -3  -5   2 1659.18 233.549   6
  -3  -5   1 3763.04 348.867   6
  -3  -5   1 3805.71 459.590   3
  -3  -5   0 2313.79 345.511   3
  -3  -5   0 2421.86 287.601   6
  -3  -5  -1 22929.8 1076.87   3
  -3  -5  -1 23791.1 912.399   6
   3   5   2 3800.02 572.023  25
   3   5   2 2652.97 246.667  29
   3   5   3 5519.88 631.200  25
   3   5   3 4492.01 322.033  29
   3   5   4 37467.4 937.553  29
   3   5   5 4662.98 332.804  29
   3   5   6 94.1485 64.1531  29
   3   5   7 419.261 98.5586  29
   3   5   8 1954.29 334.570  25
   3   5   9 785.147 217.871  25
  -3  -6  12 2264.01 190.691   7
  -3  -6  11 7584.90 417.749   7
  -3  -6  10 2138.45 251.803   7
  -3  -6   9 7332.80 464.672   7
  -3  -6   8 527.275 128.539   7
  -3  -6   7 332.489 109.833   7
  -3  -6   6 201.120 103.801   7
   3   6  -6 264.782 67.1701  17
  -3  -6   5 20327.7 726.048   7
   3   6  -5 24287.7 587.093  17
   3   6  -4 42.3969 55.2642  24
   3   6  -4 13.9431 46.3478  23
   3   6  -3 12163.2 648.117  24
   3   6  -3 11739.3 548.443  23
   3   6  -2 20302.9 808.207  24
   3   6  -2 19075.9 667.624  23
   3   6  -1 1042.80 177.843  24
   3   6  -1 879.166 143.316  23
   3   6   0 802.553 155.780  24
   3   6   0 695.472 126.881  23
   3   6   1 1191.77 378.723  25
   3   6   2 13651.1 1030.10  25
   3   6   3 3714.24 635.771  25
   3   6   4 3606.18 556.392  25
   3   6   5 3922.34 577.741  25
   3   6   6 828.594 347.713  25
   3   6   7 763.428 288.741  25
   3   6   8 541.989 193.380  25
   3   6   8-1.14124 28.6238  24
  -3  -7  12 829.514 106.192   7
  -3  -7  11 1801.36 190.176   7
  -3  -7  10 7187.12 417.527   7
  -3  -7   9 2007.54 248.056   7
  -3  -7   8 7240.75 461.184   7
  -3  -7   8 10047.3 508.781   8
  -3  -7   7 2497.58 269.731   7
   3   7  -7 3171.59 229.131  17
  -3  -7   6 220.095 95.9929   7
   3   7  -6 221.413 75.2509  17
   3   7  -5 8023.39 367.985  17
   3   7  -4 907.492 121.989  17
   3   7  -3 2605.49 339.718  24
   3   7  -3 1912.86 244.447  23
   3   7  -3 2548.18 207.388  17
   3   7  -2 2466.42 305.627  24
   3   7  -2 1762.18 234.775  23
   3   7  -2 2250.78 190.100  17
   3   7  -1 903.616 164.224  23
   3   7  -1 1087.14 197.181  24
   3   7   0-452.606 423.950  25
   3   7   0 687.585 152.408  24
   3   7   1 1722.72 238.964  24
   3   7   1 1362.23 144.546  17
   3   7   2 345.412 162.414  25
   3   7   2 679.124 159.503  24
   3   7   3 6529.36 758.216  25
   3   7   3 8750.40 536.635  24
   3   7   4 1096.00 390.079  25
   3   7   4 894.885 166.341  24
   3   7   5 3274.62 500.415  25
   3   7   5 5013.15 361.682  24
   3   7   6 1097.68 279.214  25
   3   7   6 1282.58 164.076  24
   3   7   7-188.479 143.160  25
   3   7   7-51.9080 40.6094  24
  -3  -8  11 565.438 92.8571   7
  -3  -8  10 938.633 136.133   7
  -3  -8   9 2230.45 228.278   7
  -3  -8   8 1265.92 181.818   7
  -3  -8   8 1923.26 228.482   8
  -3  -8   7 9420.51 484.612   7
   3   8  -7 11647.6 458.285  17
   3   8  -6 140.502 59.6348  17
   3   8  -5 2516.22 208.548  17
   3   8  -4 7881.32 362.507  17
   3   8  -3 9763.32 415.825  17
   3   8  -2 13204.4 735.078  24
   3   8  -2 14215.7 481.355  17
   3   8  -1 48146.2 1347.12  24
   3   8  -1 45988.2 862.818  17
   3   8   0 2879.61 329.597  24
   3   8   0 2945.63 210.365  17
   3   8   1 2266.70 282.226  24
   3   8   1 2185.38 176.367  17
   3   8   2 4413.63 380.362  24
   3   8   3 214.705 202.762  25
   3   8   3 2222.45 251.835  24
   3   8   4 4100.07 315.904  24
   3   8   4 2808.92 229.574  15
   3   8   5 16.9603 33.2963  24
   3   8   5 9.37117 32.8874  15
  -3  -9  10 1045.96 116.476   7
  -3  -9   9 659.940 100.229   7
  -3  -9   9 603.308 109.295   8
  -3  -9   8 2180.84 187.029   7
  -3  -9   8 2461.80 233.006   8
  -3  -9   7 2609.84 265.173   8
   3   9  -7 3393.39 294.755  17
   3   9  -6 3464.31 250.732  17
   3   9  -5 1659.61 168.412  17
   3   9  -4 3051.30 227.445  17
   3   9  -3 27.2570 35.6902  17
   3   9  -2 1729.22 167.901  17
   3   9  -1 344.329 124.941  24
   3   9  -1 591.955 101.683  17
   3   9   0 263.317 107.642  24
   3   9   0 140.004 54.7570  17
   3   9   1 4890.12 392.870  24
   3   9   2 2497.28 257.995  24
   3   9   3 87.8201 57.5662  24
   3   9   3 65.3160 40.8756  15
   3   9   4 4220.70 273.879  24
   3   9   4 3904.72 220.303  15
   3  10  -8 6208.39 281.573  17
  -3 -10   8 6083.59 314.587   8
   3  10  -7 395.012 89.2163  17
  -3 -10   7 415.869 106.271   8
   3  10  -6 3995.55 309.094  17
  -3 -10   6 3309.88 263.117   8
   3  10  -5 4984.00 397.572  17
   3  10  -4 5517.97 308.109  17
   3  10  -3 113.007 64.7794  17
   3  10  -2 524.198 98.1482  17
   3  10  -1 3761.05 229.998  17
   3  10   0 8246.49 372.118  15
   3  10   1 36.7092 31.7659  15
   3  10   2 5518.68 264.812  15
   3  11  -6 1400.23 130.256  17
  -3 -11   6 1294.33 136.757   8
   3  11  -5 406.078 81.7248  17
  -3 -11   5 414.022 83.7082   8
   3  11  -4 2324.07 189.575  17
  -3 -11   4 2430.65 189.521   8
   3  11  -3 109.352 55.9332  17
  -3 -11   3 153.058 58.5986   8
   3  11  -2 456.202 80.9497  17
  -4  12  -1 74.3327 31.5544  16
  -4  12  -2 205.986 48.6357  16
  -4  11   1 112.116 42.9877  16
  -4  11   0 389.826 74.1858  16
  -4  11  -1 1372.93 133.703  16
  -4  11  -2 190.515 60.7301  16
  -4  11  -3 174.411 81.2611  17
  -4  11  -3 685.823 94.4888  16
  -4  11  -4 516.928 139.713  17
  -4  11  -4 1456.07 126.655  16
  -4  11  -5 302.233 111.679  17
  -4  11  -6 670.475 153.757  17
  -4  11  -7 29.6173 48.4988  17
  -4  10   5 196.395 75.9924  12
  -4  10   3 1446.95 209.354  12
  -4  10   2 77.1596 48.7789  16
  -4  10   2 364.957 141.789  12
  -4  10   1 243.408 138.469  12
  -4  10   1 66.2490 42.9800  16
  -4  10   0 6479.32 453.178  12
  -4  10   0 6073.36 314.315  16
  -4  10  -1 6955.40 452.066  12
  -4  10  -1 7038.49 336.467  16
  -4  10  -2 225.924 111.331  17
  -4  10  -2 421.061 89.1184  16
  -4  10  -3 4006.49 377.624  17
  -4  10  -3 6924.98 318.333  16
  -4  10  -4 3173.11 356.099  17
  -4  10  -4 5641.98 274.527  16
  -4  10  -5 980.876 212.754  17
   4 -10   6 123.255 56.2615  10
  -4  10  -6 95.6153 98.7918  17
   4 -10   7 1097.92 138.430  10
  -4  10  -7 632.458 152.296  17
   4 -10   8-24.9695 36.6968  10
  -4  10  -8-58.2758 71.7050  17
   4 -10   9 758.042 95.9809  10
  -4   9   6 882.011 147.224  12
  -4   9   5 5705.96 406.038  12
  -4   9   4 729.929 187.661  12
  -4   9   3 1448.28 235.022  12
  -4   9   3 1149.87 142.912  16
  -4   9   2 1256.80 215.370  12
  -4   9   2 1028.14 138.632  16
  -4   9   1 705.891 177.493  12
  -4   9   1 315.300 77.7032  16
  -4   9   0 7525.15 524.895  12
  -4   9   0 6125.76 334.356  16
  -4   9  -1 5456.77 433.685  12
  -4   9  -1 4514.66 285.388  16
  -4   9  -2 44.2856 73.9469  17
  -4   9  -2-2.07603 32.6066  16
  -4   9  -3 437.249 181.721  17
  -4   9  -3 1060.42 130.483  16
  -4   9  -4 10710.2 676.626  17
  -4   9  -4 15734.8 473.858  16
  -4   9  -5 10365.5 669.994  17
  -4   9  -6 2420.25 328.524  17
   4  -9   7 1856.80 198.611  10
  -4   9  -7 1017.02 225.249  17
   4  -9   8 1396.92 165.581  10
  -4   9  -8 651.282 152.531  17
   4  -9   9 1422.08 151.496  10
   4  -9  10 858.533 102.214  10
  -4   8   7 1922.26 209.065  12
  -4   8   6 5782.61 201.486  13
  -4   8   5 1869.03 138.402  13
  -4   8   5 1926.57 277.537  12
  -4   8   4 1616.26 253.493  12
  -4   8   3 22.7135 95.0811  12
  -4   8   3 50.4216 56.3152  16
  -4   8   2 382.341 142.393  12
  -4   8   2 285.746 78.6555  16
  -4   8   1 200.469 129.079  12
  -4   8   1 108.877 61.7483  16
  -4   8   0 479.387 166.822  12
  -4   8   0 249.888 72.5437  16
  -4   8  -1 313.583 164.179  12
  -4   8  -1 17.7444 34.2111  16
  -4   8  -2-52.1485 91.5632  17
  -4   8  -2 12.5167 31.9730  16
  -4   8  -3 453.049 162.607  17
  -4   8  -3 622.219 103.154  16
  -4   8  -4 622.480 194.249  17
  -4   8  -4 987.117 124.136  16
  -4   8  -5 4854.60 498.004  17
  -4   8  -6-46.1698 89.3247  17
  -4   8  -7-7.47434 72.3461  17
   4  -8   8-36.3637 47.0342  10
  -4   8  -8-79.2756 80.9905  17
   4  -8   9 4257.32 285.117  10
   4  -8  10 108.403 49.2727  10
  -4   7   8 735.139 246.935  27
  -4   7   7 9421.32 260.471  13
  -4   7   6 11296.3 338.525  13
  -4   7   6 19359.8 810.820  12
  -4   7   5 2466.81 178.427  13
  -4   7   5 4123.26 398.062  12
  -4   7   4 6130.76 489.809  12
  -4   7   4 6422.98 356.713  16
  -4   7   3 5253.23 450.846  12
  -4   7   3 5668.98 338.290  16
  -4   7   2 609.777 120.526  16
  -4   7   1 427.817 156.381  12
  -4   7   1 129.186 56.1242  16
  -4   7   0 993.032 215.514  12
  -4   7   0 734.378 113.618  16
  -4   7  -1 205.082 116.324  17
  -4   7  -1 409.493 85.0017  16
  -4   7  -2 1854.70 303.102  17
  -4   7  -2 2747.43 207.402  16
  -4   7  -3 978.155 229.169  17
  -4   7  -3 1350.96 144.695  16
  -4   7  -4 1995.33 311.930  17
  -4   7  -5 3067.84 399.289  17
  -4   7  -6 2697.36 372.315  17
   4  -7   6 3314.59 256.316   7
  -4   7  -7 2512.96 350.857  17
   4  -7   7 3485.64 255.084   7
   4  -7   8 4571.27 333.855  10
  -4   7  -8 2466.98 350.578  17
   4  -7   9 1875.08 209.196  10
   4  -7  10 110.169 55.3926  10
   4  -7  11 792.833 101.220  10
  -4   6   9 23.7543 178.574  27
  -4   6   8 972.055 318.790  27
  -4   6   7-83.0751 165.342  27
  -4   6   7 8184.54 271.932  13
  -4   6   6 173.141 196.642  27
  -4   6   6 295.358 151.520  12
  -4   6   5 7621.04 326.248  13
  -4   6   5 6172.85 761.003  27
  -4   6   4 980.071 221.952  12
  -4   6   4 960.672 138.725  16
  -4   6   3 7801.66 530.989  12
  -4   6   3 7725.27 380.438  16
  -4   6   2 1503.48 245.050  12
  -4   6   2 1455.81 161.065  16
  -4   6   1 3836.42 369.065  12
  -4   6   1 3425.24 245.186  16
  -4   6   0 2534.08 304.096  12
  -4   6   0 2062.40 178.616  16
  -4   6  -1 1682.53 272.104  17
  -4   6  -1 1976.46 171.000  16
  -4   6  -2 18.2106 60.4154  17
  -4   6  -2 50.8930 41.9642  16
  -4   6  -3 10130.0 650.920  17
  -4   6  -4 589.969 181.001  17
   4  -6   5 495.473 99.6581   7
  -4   6  -5 506.607 164.662  17
   4  -6   6 214.748 71.9847   7
  -4   6  -6 151.580 134.665  17
   4  -6   7 1218.50 187.401  10
  -4   6  -7 786.239 207.561  17
   4  -6   7 971.086 141.654   7
   4  -6   8 6952.77 424.836  10
  -4   6  -8 4454.89 437.898  17
   4  -6   9 1692.19 212.793  10
   4  -6  10 1010.88 149.233  10
  -4   5  10 228.642 158.835  27
  -4   5   9 2069.06 422.865  27
  -4   5   8 5500.67 731.807  27
  -4   5   7 14841.2 376.206  13
  -4   5   6 217.456 173.831  27
  -4   5   6 1141.66 250.311  12
  -4   5   5 1617.95 433.349  27
  -4   5   5 2325.22 170.832  13
  -4   5   4-92.1149 150.890  27
  -4   5   4 54.6209 47.0690  16
  -4   5   3 4507.16 403.745  12
  -4   5   3 3616.99 258.235  16
  -4   5   2 19715.0 833.275   1
  -4   5   1 885.388 178.766   1
  -4   5   0 5873.33 451.019   1
  -4   5  -1 1105.01 200.969   1
  -4   5  -2 5795.38 450.258   1
  -4   5  -2 4140.64 386.833   2
  -4   5  -3 59.7609 57.4204   1
  -4   5  -3 46.6403 43.3437   2
  -4   5  -4 734.007 201.701  17
   4  -5   5 31.4837 36.4790   7
  -4   5  -5 108.164 108.277  17
   4  -5   6 3624.17 307.539  10
  -4   5  -6 2456.98 335.625  17
   4  -5   6 3477.65 324.858   9
   4  -5   6 2741.25 232.951   7
   4  -5   7 7189.47 437.928  10
   4  -5   7 6094.27 339.763   7
   4  -5   8 2170.88 244.678  10
   4  -5   9 782.560 151.040  10
   4  -5   9 619.682 105.885  29
   4  -5  10 314.290 86.6624  10
   4  -5  10 283.084 67.9594  29
   4  -5  11 912.456 104.799  29
  -4   4  11 1283.57 286.099  27
  -4   4   9 644.180 319.966  27
  -4   4   8 2208.75 488.043  27
  -4   4   7 11363.8 329.255  13
  -4   4   7 1589.46 464.556  27
  -4   4   6 296.387 236.145  27
  -4   4   6 1326.79 181.539  14
  -4   4   5 193.575 205.037  27
  -4   4   5 376.268 179.157  12
  -4   4   4 1829.29 286.018  12
   4  -4  -3 39.7083 39.1629  32
  -4   4   3 7.14571 52.5164   1
  -4   4   2 9.26833 48.3148   1
  -4   4   1 1995.84 246.586   1
  -4   4   0 2751.02 292.295   1
  -4   4  -1 5183.09 395.723   1
  -4   4  -1 4280.92 363.562   2
  -4   4  -2 723.885 149.271   1
  -4   4  -2 569.700 144.975   2
  -4   4  -3 261.924 93.8433   1
  -4   4  -3 139.149 89.5207   2
  -4   4  -4 9914.44 568.266   1
   4  -4   5 197.871 70.5050   7
   4  -4   5 285.351 92.1655  10
  -4   4  -5 71.3305 100.515  17
   4  -4   5 279.550 98.8846   9
   4  -4   6 58.0462 42.2228   7
   4  -4   6 57.4491 58.6249  10
  -4   4  -6 19.9822 83.3071  17
   4  -4   7 993.690 170.947  10
   4  -4   8 3827.17 321.650  10
   4  -4   8 3204.10 256.008  29
   4  -4   9 12520.0 549.236  10
   4  -4   9 11229.2 460.001  29
   4  -4  10 82.2352 45.0947  29
   4  -4  11-31.2326 34.2134  23
   4  -4  11-15.7996 29.8482  29
  -4   3  11 1063.32 309.692  27
  -4   3   9 119.740 188.828  27
  -4   3   6 17.4924 168.355  27
  -4   3   6 61.5396 54.5066  14
  -4   3   5 863.578 140.640  14
   4  -3  -4 12743.0 642.932  32
  -4   3   3 4066.29 349.888   1
   4  -3  -3 3813.88 326.467  32
  -4   3   2 11829.0 572.272   1
   4  -3  -2 10082.0 498.450  32
   4  -3  -1 363.439 90.0907  32
  -4   3   1 360.634 105.872   2
  -4   3   1 339.190 99.1318   1
  -4   3   0 18.2267 55.8008   1
  -4   3   0 59.5362 54.6070   2
  -4   3  -1 3040.51 309.253   2
  -4   3  -1 3948.46 320.762   1
  -4   3  -2 22.6193 48.7887   1
  -4   3  -2-18.4142 42.1418   2
  -4   3  -3 1104.64 207.241   2
  -4   3  -3 1438.82 201.041   1
  -4   3  -4 8275.34 562.851   2
   4  -3   5 192.432 77.6014  10
  -4   3  -5 110.137 84.5500  17
   4  -3   6 2551.57 267.045  10
   4  -3   7 1031.12 172.863  10
   4  -3   7 663.024 116.524  29
   4  -3   8 2075.30 237.271  10
   4  -3   8 1909.88 204.012  29
   4  -3   9 5668.39 390.371  10
   4  -3   9 5606.59 335.317  29
   4  -3  10 14000.5 532.730  23
   4  -3  10 13632.2 470.079  29
   4  -3  11 723.542 109.940  23
   4  -3  11 795.976 102.197  29
  -4   2  12-323.672 180.271  27
  -4   2  11 208.181 103.056  28
  -4   2  10 1557.29 388.931  27
  -4   2  10 3670.57 374.574  28
  -4   2   9 630.899 349.000  27
  -4   2   9 1717.65 296.089  28
  -4   2   8 12.1295 243.839  27
  -4   2   7-90.9569 177.131  27
  -4   2   6 103.888 183.447  27
  -4   2   6 8.03974 46.5966  14
  -4   2   5 17226.1 1521.09  33
   4  -2  -5 18533.0 773.118  32
  -4   2   4 565.166 304.121  33
   4  -2  -4 629.579 143.067  32
   4  -2  -3 378.998 105.822  32
  -4   2   3 175.429 134.596  33
  -4   2   2 20076.6 715.549   1
  -4   2   2 20874.4 1221.13  33
   4  -2  -2 19750.8 678.099  32
  -4   2   1 65847.2 1308.62   2
   4  -2  -1 63010.6 1138.98  32
  -4   2   1 69956.7 2133.16  33
  -4   2   1 67446.3 1283.44   1
  -4   2   0 14040.4 635.692   2
  -4   2   0 14710.8 708.669   3
  -4   2   0 14735.6 598.447   1
  -4   2  -1 227.093 91.4382   2
  -4   2  -1 158.010 66.0440   3
  -4   2  -1 170.155 61.2586   1
  -4   2  -2 1350.80 214.754   2
  -4   2  -2 1520.23 191.553   1
  -4   2  -3 160.530 85.8413   2
  -4   2  -4 1930.98 273.398   2
  -4   2  -4 2019.77 341.621   5
  -4   2  -5 818.039 251.653   5
   4  -2   5 1080.79 167.012  10
   4  -2   6 7520.72 442.451  10
   4  -2   6 6650.16 365.222  29
   4  -2   7 15.9012 44.9573  10
   4  -2   7 26.3417 39.7921  29
   4  -2   8 8615.39 421.315  29
   4  -2   9 3547.34 293.583  23
   4  -2   9 3398.32 255.461  29
   4  -2  10 910.082 130.624  23
   4  -2  10 805.264 118.121  29
   4  -2  11 15.8258 26.9669  29
  -4   1  12 31.0426 95.6706  26
  -4   1  12 105.452 80.1304  28
  -4   1  12-11.0845 132.031  27
  -4   1  11-39.1079 177.998  27
  -4   1  11 78.2727 97.7977  26
  -4   1  11 198.320 134.703  28
  -4   1  10 1831.76 408.401  27
  -4   1  10 3166.70 375.951  28
  -4   1   9 1270.22 261.913  28
  -4   1   7 956.186 204.733  11
  -4   1   7 1362.53 176.190  14
  -4   1   6 21494.6 2100.67  22
  -4   1   6 17414.7 1601.48  33
  -4   1   5 428.430 358.310  22
  -4   1   5 124.791 245.306  33
  -4   1   4 636.928 394.672  22
  -4   1   4 660.073 280.976  33
   4  -1  -4 656.241 136.441  32
  -4   1   3 16699.6 1151.52  33
   4  -1  -3 13803.0 569.210  32
   4  -1  -2 69.0163 49.9586  32
  -4   1   2 102.950 173.332  33
  -4   1   2-43.7504 75.5558   3
  -4   1   1 191923. 2665.46   3
  -4   1   1 188350. 2265.24   2
  -4   1   0 227225. 2502.22   2
  -4   1   0 232222. 2219.64   1
  -4   1   0 226678. 2939.02   3
  -4   1  -1 107.845 75.7102   2
  -4   1  -1 139.884 61.0813   1
  -4   1  -1 44.1428 66.9006   3
  -4   1  -2 16718.1 722.992   2
  -4   1  -3 755.485 167.503   2
  -4   1  -4 52.7736 102.806   5
  -4   1  -4 0.14668 43.0786   2
   4  -1   5 21892.5 751.720  10
   4  -1   6 1855.34 227.457  10
   4  -1   6 1689.33 185.541  29
   4  -1   7 1296.75 191.883  23
   4  -1   7 1381.49 173.497  29
   4  -1   8 2693.28 267.818  23
   4  -1   8 2612.22 229.750  29
   4  -1   9 2984.14 269.692  23
   4  -1   9 3302.90 246.547  29
   4  -1  10 205.176 62.1674  29
   4  -1  11 12.8237 27.0846  29
  -4   0  12-20.7194 104.065  26
  -4   0  12 7.71221 75.0593  28
  -4   0  11 1362.81 244.980  28
  -4   0  10 544.290 283.036  27
  -4   0  10 1187.90 242.182  28
  -4   0   9 10542.3 734.664  28
  -4   0   8 793.646 193.138  11
  -4   0   7 6972.45 535.891  11
  -4   0   7 3511.25 547.011  27
  -4   0   6 215.079 339.506  22
  -4   0   6 69.9024 193.769  33
  -4   0   5 1188.05 519.869  22
  -4   0   5 628.831 331.469  33
  -4   0   4-193.415 233.244  33
  -4   0   3 1928.83 401.673  33
  -4   0   2 586.231 228.536  33
  -4   0   2 286.382 112.633   3
  -4   0   1 47851.1 1382.36   3
  -4   0   1 49004.6 1163.91   2
  -4   0   0 57797.7 1280.29   2
  -4   0   0 58056.0 1535.22   3
  -4   0  -1 13873.2 642.222   2
  -4   0  -1 13585.1 768.208   3
  -4   0  -2 9.09873 48.5065   2
  -4   0  -3-1.71248 49.7706   2
  -4   0  -4 16631.2 763.310   2
   4   0   5 311.546 100.181  23
   4   0   5 345.484 85.1944  29
   4   0   6 465.236 117.492  23
   4   0   6 443.349 100.830  29
   4   0   7 66.0323 63.9394  23
   4   0   7-3.82733 43.7423  29
   4   0   8 771.717 145.174  23
   4   0   8 769.565 133.972  29
   4   0   9 1335.11 163.531  29
   4   0  10 54.1861 37.5390  29
   4   0  11 102.290 40.4013  29
  -4  -1  13 1488.33 224.353  26
  -4  -1  13 2785.77 244.719  28
  -4  -1  12 635.560 201.054  26
  -4  -1  12 1217.31 210.871  28
  -4  -1  11 11601.2 688.535  28
  -4  -1  10 6496.66 553.301  28
  -4  -1   9 3454.55 444.316  28
  -4  -1   8 342.819 134.074  11
  -4  -1   7 120.752 90.0070  11
  -4  -1   6 957.195 463.129  22
  -4  -1   6 970.944 212.034  11
  -4  -1   5 10330.1 1085.39  33
  -4  -1   4 2055.63 451.187  33
  -4  -1   3 53.3074 146.285  33
  -4  -1   2 7669.21 603.712   3
  -4  -1   2 7817.77 768.317  33
  -4  -1   1 526.893 160.124   3
  -4  -1   0 1503.50 265.416   3
  -4  -1   0 1794.47 230.403   2
  -4  -1  -1 11179.1 529.588   6
  -4  -1  -1 10698.0 711.471   3
  -4  -1  -1 11315.2 588.588   2
  -4  -1  -2 2887.13 302.713   2
  -4  -1  -3 16375.1 750.218   2
   4   1   4 451.355 110.111  23
  -4  -1  -4 368.744 111.073   2
   4   1   5 45.1521 52.8929  23
   4   1   5 95.3568 50.6518  29
   4   1   6 687.689 146.332  23
   4   1   6 644.563 118.886  29
   4   1   7 487.988 119.046  23
   4   1   7 448.809 96.4906  29
   4   1   8 1293.00 157.778  29
   4   1   9 3192.65 236.537  29
   4   1  10 2707.49 330.144  25
   4   1  10 2499.70 184.167  29
  -4  -2  13 359.964 132.194  26
  -4  -2  13 618.902 121.028  28
  -4  -2  12 734.154 177.373  28
  -4  -2  11 555.637 174.935  28
  -4  -2  10 17271.0 650.933   7
  -4  -2  10 12840.7 784.349  28
  -4  -2   9 2004.50 246.809   7
  -4  -2   9 1599.90 302.092  28
  -4  -2   8 2117.85 317.144  11
  -4  -2   7 253.414 127.942  11
  -4  -2   6 1703.83 260.534  11
  -4  -2   5 18369.2 1443.33  33
   4   2  -5 17510.7 696.442  30
  -4  -2   4 300.305 181.690  33
   4   2  -4 538.569 127.507  30
  -4  -2   3 4382.43 621.676  33
   4   2  -3 3762.49 290.184  30
  -4  -2   2 6134.29 693.423  33
  -4  -2   2 6232.22 569.146   3
  -4  -2   1 410.170 150.578   3
  -4  -2   0 2019.24 219.535   6
  -4  -2   0 2263.73 332.475   3
  -4  -2  -1 591.094 129.633   6
  -4  -2  -1 527.968 166.154   3
  -4  -2  -2 46.1360 56.0992   6
  -4  -2  -2-10.6259 67.4034   3
   4   2   3 4584.10 320.293  23
  -4  -2  -3 3416.11 357.660   6
  -4  -2  -3 3666.72 356.561   2
   4   2   4 464.463 115.794  23
   4   2   4 339.885 84.1626  29
   4   2   5 303.157 98.7518  23
   4   2   5 307.619 86.4133  29
   4   2   6 5990.80 385.731  23
   4   2   6 5233.49 327.468  29
   4   2   7 1958.49 209.258  29
   4   2   8 3018.52 238.301  29
   4   2   9 1779.26 316.442  25
   4   2   9 1493.55 156.152  29
   4   2  10 2119.99 279.182  25
   4   2  10 2091.17 158.769  29
  -4  -3  13 863.055 183.356  26
  -4  -3  13 1233.48 157.312  28
  -4  -3  12 1813.97 239.164  28
  -4  -3  11 820.942 133.269   7
  -4  -3  11 444.025 159.352  28
  -4  -3  10 1147.19 179.776   7
  -4  -3  10 844.760 211.701  28
  -4  -3   9 1173.40 194.661   7
  -4  -3   9 958.457 240.901  28
  -4  -3   8 10947.0 571.881   7
  -4  -3   8 9309.06 625.113  11
  -4  -3   7 2522.67 336.624  11
   4   3  -6-76.3343 78.0926  23
  -4  -3   6-5.80466 82.7633  11
  -4  -3   5 460.706 295.443  33
   4   3  -5 189.773 78.0248  30
  -4  -3   4 260.384 203.219  33
   4   3  -4 446.071 110.985  30
  -4  -3   3 4587.60 643.596  33
   4   3  -3 3604.93 295.564  30
  -4  -3   2 837.305 293.644  33
  -4  -3   2 748.353 201.859   3
  -4  -3   1 11592.1 802.250   3
  -4  -3   1 10980.2 542.247   6
  -4  -3   0 336.115 98.2128   6
  -4  -3   0 272.278 136.439   3
  -4  -3  -1 18208.0 754.824   6
  -4  -3  -1 18956.1 1032.66   3
   4   3   2 13067.6 540.588  23
   4   3   2 10788.6 447.511  29
   4   3   3-30.7928 58.3846  23
   4   3   3 0.70705 48.4289  29
   4   3   4 1963.04 218.511  23
   4   3   4 1719.68 191.250  29
   4   3   5 290.287 199.044  25
   4   3   5 61.7654 34.8619  23
   4   3   5 152.409 64.6790  29
   4   3   6 19067.7 1138.66  25
   4   3   6 14711.8 560.035  29
   4   3   7 23021.8 1197.42  25
   4   3   7 19445.1 620.718  29
   4   3   8 4139.55 499.397  25
   4   3   8 3997.21 266.543  29
   4   3   9 1830.05 305.362  25
   4   3   9 1045.29 120.503  29
  -4  -4  12 248.091 70.5022   7
  -4  -4  12 182.974 99.2134  28
  -4  -4  11 204.008 81.6384   7
  -4  -4  11 54.1307 85.6225  28
  -4  -4  10 1.94014 61.6778   7
  -4  -4  10 113.805 131.180  28
  -4  -4   9 11946.7 585.737   7
  -4  -4   9 9264.76 633.446  28
  -4  -4   8 50.9992 75.2592   7
  -4  -4   8-73.0725 131.374  28
  -4  -4   7 2300.63 330.075  11
  -4  -4   6 320.328 133.522  11
   4   4  -5 1041.14 171.779  23
  -4  -4   5 909.996 208.333  11
   4   4  -4 24950.8 765.837  23
  -4  -4   4 22131.2 899.535  11
   4   4  -3 754.878 137.921  23
  -4  -4   3 619.884 230.533  33
  -4  -4   2 782.239 264.275  33
  -4  -4   2 533.966 195.802   3
   4   4  -1 1730.50 194.953  23
  -4  -4   1 1174.50 194.316   6
   4   4   0 10935.0 936.223  25
   4   4   0 11969.5 501.189  23
   4   4   1-48.2566 201.700  25
   4   4   1-1.26696 44.5471  23
   4   4   2 10162.4 927.186  25
   4   4   2 11040.5 487.983  23
   4   4   2 8918.06 437.304  29
   4   4   3 3600.75 281.035  23
   4   4   3 3045.61 265.817  29
   4   4   4 24240.9 1339.27  25
   4   4   4 19320.0 655.116  29
   4   4   5 866.153 337.657  25
   4   4   5 67.0778 45.7561  29
   4   4   6 1274.42 379.809  25
   4   4   6 644.244 119.041  29
   4   4   7 2187.78 409.662  25
   4   4   7 1591.12 177.453  29
   4   4   8 482.980 208.418  25
  -4  -5  12 1627.45 151.450   7
  -4  -5  11 1003.89 149.338   7
  -4  -5  10 5369.04 370.425   7
  -4  -5   9 3945.51 335.128   7
  -4  -5   8 7006.49 457.683   7
  -4  -5   7 3728.89 341.777   7
  -4  -5   7 2452.80 345.075  11
  -4  -5   6 583.222 189.235  11
   4   5  -5 3891.94 345.624  23
   4   5  -4 3871.55 337.559  23
   4   5  -3 2997.90 320.880  24
   4   5  -3 3081.26 282.443  23
   4   5  -2 676.966 148.222  24
   4   5  -2 699.202 138.710  23
   4   5  -1 2269.75 259.227  24
   4   5  -1 2302.51 234.715  23
   4   5   0-8.76171 46.6948  24
   4   5   0 63.6177 64.1137  23
   4   5   1 971.161 232.968  25
   4   5   1 2224.56 223.509  23
   4   5   2 6515.35 775.737  25
   4   5   2 7533.11 401.773  23
   4   5   3 14924.4 1099.67  25
   4   5   4 6431.07 767.255  25
   4   5   5 28562.4 1440.38  25
   4   5   6 1711.00 377.332  25
   4   5   7 1841.57 335.743  25
   4   5   8 2441.87 312.508  25
   4   5   8 3548.27 221.593  24
  -4  -6  12 70.5815 39.3087   7
  -4  -6  11 1763.70 178.987   7
  -4  -6  10 9010.02 451.590   7
  -4  -6   9-22.7082 62.5471   7
  -4  -6   8 738.295 155.849   7
  -4  -6   7 1184.79 189.518   7
  -4  -6   6 12711.2 598.474   7
   4   6  -6 15566.9 468.724  17
  -4  -6   5-8.96033 67.6954   7
   4   6  -5 28.4361 34.2642  17
   4   6  -4 2504.03 283.405  23
   4   6  -3 1316.76 234.029  24
   4   6  -3 1178.92 194.886  23
   4   6  -2 343.260 119.746  24
   4   6  -2 342.801 108.601  23
   4   6  -1 1180.51 201.482  24
   4   6  -1 1128.49 176.515  23
   4   6   0 419.557 123.564  24
   4   6   0 440.982 107.898  23
   4   6   1-31.3367 64.0474  24
   4   6   1 2.55804 43.5541  23
   4   6   2-192.983 295.831  25
   4   6   2 503.456 129.683  24
   4   6   3 1876.09 381.803  25
   4   6   3 2503.52 293.742  24
   4   6   4 8240.00 776.545  25
   4   6   5 162.843 145.897  25
   4   6   5 399.572 107.598  24
   4   6   6 1854.66 314.115  25
   4   6   6 3223.18 249.641  24
   4   6   7-347.514 178.580  25
   4   6   7 117.301 47.0914  24
  -4  -7  11 1022.56 121.939   7
  -4  -7  10 1344.65 161.656   7
  -4  -7   9 1892.45 212.712   7
  -4  -7   8 2926.60 273.863   7
  -4  -7   7 8287.09 454.760   7
  -4  -7   6 19282.7 684.511   7
   4   7  -6 22542.2 578.485  17
   4   7  -5 22147.1 584.975  17
   4   7  -4 3443.32 242.073  17
   4   7  -3 98.9752 83.7639  24
   4   7  -3 0.50436 54.7896  23
   4   7  -3 142.003 62.6684  17
   4   7  -2 1141.11 225.254  24
   4   7  -2 924.086 170.120  23
   4   7  -1 16074.4 749.900  24
   4   7  -1 14704.0 617.799  23
   4   7   0 2450.20 300.006  24
   4   7   0 2374.20 235.667  23
   4   7   1 2473.57 287.360  24
   4   7   1 2156.10 177.214  17
   4   7   2 1946.77 242.657  24
   4   7   2 1721.65 143.033  17
   4   7   3 172.399 75.0812  24
   4   7   4 4654.65 504.144  25
   4   7   4 10386.0 487.026  24
   4   7   5 2943.59 232.844  24
  -4  -8  10 3238.84 199.167   7
  -4  -8   9 65.1765 51.8793   7
  -4  -8   8 644.647 113.463   7
  -4  -8   8 906.115 135.069   8
  -4  -8   7 344.827 94.8224   7
   4   8  -7 458.667 90.8655  17
   4   8  -6-23.1256 41.0748  17
   4   8  -5 11121.4 397.751  17
   4   8  -4 10002.8 394.901  17
   4   8  -3 289.100 74.2678  17
   4   8  -2 18958.6 835.837  24
   4   8  -2 21295.6 558.569  17
   4   8  -1 7232.59 505.450  24
   4   8  -1 7303.27 325.351  17
   4   8   0 312.570 104.514  24
   4   8   0 324.537 71.5209  17
   4   8   1 69.8311 55.2226  24
   4   8   1 82.1772 43.2466  17
   4   8   2 1186.39 175.161  24
   4   8   3 33.4518 47.4974  24
   4   8   4 21.4316 32.8701  24
   4   8   4 2.03075 24.5402  15
  -4  -9   8 469.064 85.5081   8
   4   9  -7 6455.48 329.032  17
  -4  -9   7 4968.72 291.712   8
   4   9  -6 1898.09 162.560  17
   4   9  -5 2277.04 175.192  17
   4   9  -4 1363.73 139.106  17
   4   9  -3 98.0101 40.1847  17
   4   9  -2 1187.14 121.840  17
   4   9  -1 69.6136 39.0520  17
   4   9   0 124.491 40.6589  17
   4   9   1 1169.52 166.379  24
   4   9   2 690.943 117.253  24
   4   9   2 699.759 91.4965  15
   4  10  -6 4263.00 225.329  17
  -4 -10   6 3529.62 220.517   8
   4  10  -5 698.817 110.930  17
  -4 -10   5 594.313 104.077   8
   4  10  -4 1535.30 149.872  17
   4  10  -3 1296.41 137.863  17
   4  10  -2 241.300 62.8560  17
   5 -11   2 16.5846 30.6113   9
   5 -11   3 12.8822 35.1636   9
   5 -11   4 559.221 94.9286   9
  -5  10   3-31.0537 69.5171  12
  -5  10   3 93.7629 39.9264  14
  -5  10   2 1800.63 207.442  12
  -5  10   1 2687.65 257.172  12
  -5  10   0 5643.75 372.894  12
   5 -10   0 4295.40 279.627   9
  -5  10  -1 5939.75 279.993  16
  -5  10  -2 252.131 66.8325  16
  -5  10  -3 679.134 154.542  17
  -5  10  -3 2356.12 166.842  16
  -5  10  -4 1061.57 195.320  17
  -5  10  -5-35.5791 60.1268  17
   5 -10   5-29.3648 43.4566   9
   5 -10   6 5653.67 299.106   9
  -5   9   5-206.884 98.4503  12
  -5   9   4-56.3899 77.8882  12
  -5   9   4 40.6167 33.0171  14
  -5   9   3 141.234 86.0542  12
  -5   9   2 76.2029 84.4259  12
  -5   9   1 2784.45 302.860  12
  -5   9   0 4921.59 395.248  12
  -5   9   0 4185.55 268.079  16
  -5   9  -1 2089.63 251.996  12
  -5   9  -1 2024.14 181.266  16
  -5   9  -2 64.4064 71.5333  17
  -5   9  -2 130.496 52.6942  16
  -5   9  -3 189.709 98.8477  17
  -5   9  -3 548.625 91.7118  16
  -5   9  -4 380.341 156.016  17
  -5   9  -5 75.9716 91.1721  17
   5  -9   5 126.404 67.3549   9
   5  -9   6 602.364 102.423  10
   5  -9   6 507.624 110.998   9
   5  -9   7 30.4131 36.1760  10
   5  -9   7 25.3050 33.3282   9
   5  -9   8 1262.07 126.161  10
  -5   8   6 3358.78 271.536  12
  -5   8   5-108.428 91.6153  12
  -5   8   5 98.1467 52.4071  14
  -5   8   4 436.689 89.8372  14
  -5   8   4 473.795 142.835  12
  -5   8   3 1104.80 214.131  12
  -5   8   1 3122.08 349.426  12
  -5   8   1 2907.19 235.526  16
  -5   8   0 31.5442 93.0848  12
  -5   8   0 119.490 58.4940  16
  -5   8  -1 255.767 88.5394  12
  -5   8  -1 385.660 86.9419  16
  -5   8  -2 1584.99 280.849  17
  -5   8  -2 4014.65 256.274  16
  -5   8  -3 1750.96 281.841  17
  -5   8  -3 3769.13 239.032  16
  -5   8  -4 720.109 194.846  17
   5  -8   5 1024.77 148.914  10
   5  -8   5 1034.99 176.983   9
   5  -8   6 1685.25 184.835  10
   5  -8   6 1529.70 198.154   9
   5  -8   7 2392.53 211.067  10
   5  -8   7 2454.19 223.708   9
   5  -8   8 189.791 55.2640  23
   5  -8   8 245.843 70.8288  10
   5  -8   9 126.656 38.5194  23
   5  -8   9 206.811 58.8507  10
  -5   7   7 278.019 166.190  27
  -5   7   7 264.401 86.7486  12
  -5   7   6 517.139 134.392  12
  -5   7   5 7749.16 519.089  12
  -5   7   5 9593.86 413.022  14
  -5   7   4 6928.20 504.832  12
  -5   7   4 7678.50 394.444  14
  -5   7   1 757.179 196.982  12
  -5   7   1 782.571 132.240  16
  -5   7   0 1734.38 259.442  12
  -5   7   0 1666.37 181.435  16
  -5   7  -1 2116.41 283.674  12
  -5   7  -1 2114.07 195.676  16
  -5   7  -2-90.9227 70.9018  17
  -5   7  -2 5.16964 45.4113  16
  -5   7  -3 4.10567 86.7304  17
   5  -7   4 1832.99 207.981  10
  -5   7  -4 937.351 217.575  17
   5  -7   5 126.134 70.3224  10
  -5   7  -5 17.5390 79.9039  17
   5  -7   5 88.8473 67.8324   9
   5  -7   6 1565.83 194.263  10
   5  -7   6 1784.69 224.898   9
   5  -7   7 20.3302 52.0521  10
   5  -7   7 111.107 72.2494   9
   5  -7   8 1095.43 147.033  10
   5  -7   9 274.759 67.5691  23
   5  -7   9 434.750 84.9845  10
  -5   6   7 7162.05 444.668  12
  -5   6   7 3239.96 491.225  27
  -5   6   6-62.8510 142.697  12
  -5   6   6 76.7159 60.0729  14
  -5   6   5-153.429 203.340  27
  -5   6   5-87.5448 99.0752  12
  -5   6   5 51.5329 59.8157  14
  -5   6   4 493.413 259.382  27
  -5   6   4 1449.25 258.428  12
  -5   6   3-88.8397 166.080  27
  -5   6   3 194.571 138.518  12
  -5   6   2 7166.69 535.193  12
  -5   6   1 14577.3 762.768  12
  -5   6   1 14381.1 524.795  16
  -5   6   0 32756.0 1103.83  12
  -5   6   0 29236.3 733.160  16
  -5   6  -1-38.9644 119.886  12
  -5   6  -1 134.588 104.155  17
  -5   6  -1 79.2621 47.7394  16
  -5   6  -2 2218.85 348.486  17
  -5   6  -2 3489.91 240.827  16
   5  -6   3 106.195 58.0134  10
  -5   6  -3-1.16262 73.8536  17
   5  -6   4-37.0988 73.7816  10
  -5   6  -4 15.5481 86.5155  17
   5  -6   4-14.7410 75.2789   9
   5  -6   5 423.745 107.919  10
  -5   6  -5 222.017 142.636  17
   5  -6   5 521.177 137.412   9
   5  -6   6 740.940 144.392  10
   5  -6   6 729.897 149.433   9
   5  -6   7 2765.28 254.820  10
   5  -6   8 6809.37 381.494  10
   5  -6   9 3702.25 250.468  23
   5  -6   9 4282.05 274.601  10
   5  -6  10 1115.99 115.209  23
  -5   5   8 3962.86 539.932  27
  -5   5   7-5.66677 75.7085  12
  -5   5   6 100.146 165.848  27
  -5   5   6-109.150 136.278  12
  -5   5   6 33.0138 47.6216  14
  -5   5   5-33.8020 177.644  27
  -5   5   5-85.6737 120.307  12
  -5   5   5 36.8272 60.0181  14
  -5   5   4 219.808 89.1306  14
  -5   5   4 18.4034 161.535  27
  -5   5   4 110.280 90.8158  12
  -5   5   3 8125.63 569.846  12
  -5   5   2 20.6821 80.2142  12
  -5   5   1 158.312 88.2070  12
   5  -5  -1 152.804 77.7143   9
  -5   5   0 25.7352 84.7629  12
  -5   5  -1 1105.11 211.412  12
  -5   5  -1 711.231 203.410  17
  -5   5  -2 32.7011 76.2630  17
   5  -5   2-81.2076 77.5028   9
   5  -5   3 137.287 69.6250  10
  -5   5  -3 59.3850 89.5078  17
   5  -5   3 187.896 103.892   9
   5  -5   4 12014.4 547.513  10
   5  -5   4 12380.5 634.884   9
   5  -5   5 5267.57 372.711  10
   5  -5   5 5737.31 426.330   9
   5  -5   6 507.891 124.039  10
   5  -5   6 480.935 134.018   9
   5  -5   7 454.670 109.684  10
   5  -5   8 362.833 102.514  10
   5  -5   9 233.037 72.1906  23
   5  -5  10 90.2034 39.5815  23
  -5   4   9 443.960 256.392  27
  -5   4   7 657.531 305.862  27
  -5   4   7 1343.15 161.585  14
  -5   4   6 1406.75 219.723  12
  -5   4   6 1864.17 209.522  14
  -5   4   5-29.7112 200.635  27
  -5   4   5 122.993 69.4742  14
  -5   4   4 4324.72 412.608  12
  -5   4   4 4546.37 337.757  14
  -5   4   3 649.893 128.381  14
  -5   4   3 511.488 132.565  12
  -5   4   2 779.135 177.344  12
  -5   4   1 11.3006 95.7809  12
   5  -4  -1 110.869 71.3352   9
  -5   4   0 6848.91 498.288  12
   5  -4   0 6115.75 436.932   9
  -5   4  -1 3308.62 341.581  12
   5  -4   1 2688.79 296.818   9
  -5   4  -2 4701.98 434.483  12
   5  -4   2 4804.90 327.975  10
   5  -4   2 4881.61 409.352   9
   5  -4   3 345.770 109.795  23
   5  -4   3 564.157 124.057  10
   5  -4   3 536.892 144.052   9
   5  -4   4 25061.9 792.222  10
   5  -4   4 25515.7 901.525   9
   5  -4   5 3708.66 318.588  10
   5  -4   5 3980.34 352.951   9
   5  -4   6 2510.96 266.205  10
   5  -4   6 2422.69 279.477   9
   5  -4   7 228.185 87.0378  10
   5  -4   8 13036.6 530.857  23
   5  -4   9 3190.13 243.942  23
   5  -4  10 242.522 63.1322  23
  -5   3  11 22.9216 104.452  27
  -5   3   9 97.4416 177.243  27
  -5   3   8-2.43923 186.038  27
  -5   3   8-80.6824 118.658  28
  -5   3   7 2364.30 506.288  27
  -5   3   7 8715.59 420.097  14
  -5   3   6 2701.05 329.894  12
  -5   3   6 3104.85 270.896  14
  -5   3   5 2012.81 302.432  12
  -5   3   5 1808.78 210.463  14
  -5   3   4-121.803 164.302  12
  -5   3   4 230.376 82.3163  14
  -5   3   3 1823.04 240.401  12
  -5   3   3 1993.95 214.591  14
  -5   3   2 596.482 141.567  12
  -5   3   2 807.276 193.613  11
   5  -3  -2 722.528 153.651   9
  -5   3   2 878.809 136.416  14
  -5   3   1 1253.95 213.976  12
   5  -3  -1 1038.10 177.076   9
  -5   3   1 945.439 135.136  14
  -5   3   0 483.799 146.220  12
  -5   3   0 345.672 129.054   2
   5  -3   0 334.055 101.809   9
  -5   3  -1 3956.80 392.290  12
   5  -3   1 4210.68 357.938   9
   5  -3   2 4983.79 338.668  23
   5  -3   2 5091.05 339.644  10
   5  -3   2 4989.12 402.778   9
   5  -3   3 709.304 139.462  23
   5  -3   3 876.455 148.856  10
   5  -3   3 733.209 160.759   9
   5  -3   4 86.9206 48.8531  23
   5  -3   4 128.203 72.8112  10
   5  -3   4 88.5075 74.3839   9
   5  -3   5 4149.76 327.934  23
   5  -3   5 4386.44 341.900  10
   5  -3   5 4210.59 356.955   9
   5  -3   6 493.599 117.136  23
   5  -3   6 528.371 130.766  10
   5  -3   7-4.05653 48.5558  23
   5  -3   8 128.549 60.6310  23
   5  -3   9 3196.14 242.304  23
   5  -3  10 5285.77 261.443  23
  -5   2  11 32.4885 64.0183  28
  -5   2  10 417.451 221.874  27
  -5   2  10 987.916 194.753  28
  -5   2   9 123.529 113.055  28
  -5   2   8 354.000 262.375  27
  -5   2   7 200.224 258.609  27
  -5   2   7 813.839 144.431  14
  -5   2   6 18900.0 864.129  12
  -5   2   6 18013.6 832.918  11
  -5   2   5 2322.04 315.222  12
  -5   2   5 2314.89 310.509  11
  -5   2   5 2078.54 223.332  14
  -5   2   4 338.597 125.409  12
  -5   2   4 214.391 133.956  11
  -5   2   4 133.573 69.2019  14
  -5   2   3 2588.66 315.962  12
  -5   2   3 2820.92 344.765  11
  -5   2   3 2574.20 237.962  14
  -5   2   2 572.932 139.525  12
  -5   2   2 438.611 221.873  33
  -5   2   2 466.926 102.501  14
  -5   2   1 3821.75 587.361  33
  -5   2   0 15464.5 760.326   2
  -5   2  -1 971.406 174.714   1
   5  -2   1 1398.42 202.229   9
   5  -2   2 4411.36 320.255  23
   5  -2   2 4850.43 376.433   9
   5  -2   3 580.774 125.909  23
   5  -2   3 721.688 155.710   9
   5  -2   4 897.481 156.639  23
   5  -2   4 799.454 178.656   9
   5  -2   5 17127.3 660.393  23
   5  -2   5 16748.2 706.856   9
   5  -2   6 904.063 155.849  23
   5  -2   7 2063.36 231.078  23
   5  -2   8 2013.17 212.892  23
   5  -2   8 1782.55 156.483  29
   5  -2   9 1514.28 159.835  23
   5  -2   9 1284.57 123.477  29
   5  -2  10 633.726 89.5696  23
   5  -2  10 551.169 75.0074  29
  -5   1  11 738.399 163.322  28
  -5   1  10-85.5286 171.662  27
  -5   1  10 134.517 96.6200  28
  -5   1   9 2581.36 357.310  28
  -5   1   8 328.545 123.827  11
  -5   1   7 421.459 286.796  27
  -5   1   7 1525.70 264.310  11
  -5   1   6 8040.80 579.627  11
  -5   1   6 8308.10 431.196  14
  -5   1   5 2960.89 347.842  12
  -5   1   5 3669.57 395.563  11
  -5   1   5 3417.28 269.572  14
  -5   1   4 469.007 131.014  12
  -5   1   4 837.379 196.998  11
  -5   1   4 694.486 130.221  14
  -5   1   3 4644.79 408.876  12
  -5   1   3 4554.22 454.061  11
  -5   1   3 3916.00 286.960  14
  -5   1   2 1051.32 331.075  33
  -5   1   1 14859.5 1157.88  33
  -5   1   0 5326.44 524.589   3
  -5   1   0 5354.76 450.534   2
   5  -1   1 257.875 104.590   9
  -5   1  -1 112.604 97.4321   3
   5  -1   2 24.6779 37.2451  23
   5  -1   2 123.263 80.9250   9
   5  -1   3 1190.56 174.250  23
   5  -1   3 1163.00 202.649   9
   5  -1   4 8797.17 473.896  23
   5  -1   4 9615.17 529.306   9
   5  -1   5 2042.51 244.141  23
   5  -1   5 2077.38 268.579   9
   5  -1   6 738.280 151.165  23
   5  -1   7 1030.17 164.118  23
   5  -1   7 927.745 119.803  29
   5  -1   8 357.560 93.1547  23
   5  -1   8 298.830 67.7670  29
   5  -1   9 40.7205 35.1760  23
   5  -1   9 41.5014 33.9855  29
   5  -1  10 263.338 50.0418  29
  -5   0  12 769.233 124.658  28
  -5   0  11 2277.81 298.371  26
  -5   0  11 3977.17 358.884  28
  -5   0  10-103.414 194.262  27
  -5   0  10 1.39879 107.749  28
  -5   0   9-481.528 228.582  27
  -5   0   9-41.9150 113.616  28
  -5   0   8 207.695 216.810  27
  -5   0   8 512.999 160.139  11
  -5   0   7 91.0601 191.825  27
  -5   0   7 519.212 182.595  11
  -5   0   6 12462.5 726.835  11
  -5   0   5 2359.10 348.481  11
  -5   0   4 1241.55 237.197  11
  -5   0   4 1207.02 161.637  14
  -5   0   3 6419.82 519.259  11
  -5   0   3 6327.77 344.404  14
  -5   0   2 1444.70 252.835  11
  -5   0   2 758.404 307.604  33
  -5   0   2 874.189 240.102   3
  -5   0   1 228.622 117.066   3
   5   0   0 7724.97 460.645   9
  -5   0   0 5215.91 537.168   3
   5   0   1 5921.02 359.846  23
   5   0   1 6312.89 432.781   9
   5   0   2 5239.11 350.756  23
   5   0   2 5890.77 409.288   9
   5   0   3 2453.32 242.488  23
   5   0   3 2428.74 289.619   9
   5   0   4 1521.38 212.192  23
   5   0   4 1821.88 235.936   9
   5   0   5 20748.9 731.618  23
   5   0   5 17536.9 543.289  29
   5   0   6 2588.56 255.529  23
   5   0   6 2425.42 205.355  29
   5   0   7 89.2807 50.8593  23
   5   0   7 92.4880 47.6472  29
   5   0   8 100.205 52.3457  23
   5   0   8 47.7467 39.1135  29
   5   0   9 1429.92 130.156  29
  -5  -1  12 217.663 93.1135  28
  -5  -1  11 4363.42 370.068  28
  -5  -1  10 12085.5 704.620  28
  -5  -1   9 2424.72 251.195   7
  -5  -1   8 98.0659 76.8390  11
  -5  -1   7 3987.03 433.719  11
  -5  -1   6 1959.28 296.200  11
  -5  -1   5 18385.6 880.255  11
  -5  -1   4 1462.56 257.315  11
   5   1  -3 1140.54 157.285  23
  -5  -1   3 984.359 217.791  11
   5   1  -3 915.617 156.500   9
   5   1  -2-30.6463 50.4661  23
  -5  -1   2 54.9531 72.4866  11
   5   1  -2-1.99492 59.9255   9
   5   1  -1 662.823 118.370  23
   5   1  -1 579.477 130.971   9
   5   1   0 2109.16 217.146  23
   5   1   0 2520.20 263.841   9
   5   1   1 29.2621 49.8352  23
   5   1   1 72.7527 78.2606   9
   5   1   2 30.1621 55.1895  23
   5   1   2 24.1810 59.8856   9
   5   1   3 4540.94 604.888  25
   5   1   3 5318.63 364.962  23
   5   1   3 5976.15 419.668   9
   5   1   4 279.348 182.913  25
   5   1   4 109.311 59.1977  23
   5   1   4 162.007 84.0778   9
   5   1   4 69.7695 42.0959  29
   5   1   5 418.674 207.023  25
   5   1   5 368.271 102.589  23
   5   1   5 429.194 99.7382  29
   5   1   6 174.848 144.696  25
   5   1   6 44.4779 38.2106  23
   5   1   6 81.7413 48.5891  29
   5   1   7 510.242 178.796  25
   5   1   7 699.073 118.428  23
   5   1   7 653.805 103.404  29
   5   1   8 11.0951 31.3119  29
   5   1   9 5272.39 235.624  29
  -5  -2  12 692.129 168.465  26
  -5  -2  12 1333.63 174.009  28
  -5  -2  11 199.213 110.818  28
  -5  -2  10-6.91165 50.2556   7
  -5  -2  10 115.393 106.132  28
  -5  -2   9 6674.98 422.101   7
  -5  -2   9 4953.33 491.259  28
  -5  -2   8 470.579 157.812  11
  -5  -2   7 3854.88 413.437  11
  -5  -2   6 6949.81 570.282  11
  -5  -2   5 18820.3 900.005  11
   5   2  -4 268.343 94.5734  23
  -5  -2   4 228.614 133.825  11
   5   2  -3 7274.88 396.798  23
  -5  -2   3 7544.07 561.738  11
   5   2  -2 4131.37 297.766  23
  -5  -2   2 4183.58 421.384  11
   5   2  -1 7984.43 420.361  23
  -5  -2   1 8308.58 581.312  11
   5   2  -1 8761.49 493.690   9
   5   2   0 994.290 151.601  23
   5   2   0 1198.82 191.671   9
   5   2   1 4349.10 314.588  23
   5   2   1 4979.10 380.277   9
   5   2   2-115.336 274.237  25
   5   2   2 102.704 58.7510  23
   5   2   3-119.572 188.799  25
   5   2   3 12.8118 42.2760  23
   5   2   3 54.9894 43.9716  29
   5   2   4 219.307 176.236  25
   5   2   4 136.306 55.6999  23
   5   2   4 175.311 69.6729  29
   5   2   5 3207.25 484.181  25
   5   2   5 3506.02 287.954  23
   5   2   5 2888.32 237.104  29
   5   2   6 2648.14 427.242  25
   5   2   6 3408.22 258.899  23
   5   2   6 3085.30 238.557  29
   5   2   7 15646.6 921.922  25
   5   2   7 19487.3 547.905  29
   5   2   8 335.628 132.783  25
   5   2   8 601.781 90.9765  29
  -5  -3  11 272.221 77.4056   7
  -5  -3  11 170.311 95.4805  28
  -5  -3  10 540.132 121.715   7
  -5  -3  10 446.893 152.249  28
  -5  -3   9 14713.7 620.223   7
  -5  -3   9 11318.3 696.244  28
  -5  -3   8 435.623 155.230  11
  -5  -3   8 523.589 118.105   7
  -5  -3   7 403.734 147.706  11
  -5  -3   6 72.0562 92.7876  11
   5   3  -5 6378.13 421.476  23
  -5  -3   5 6706.22 527.008  11
   5   3  -4 3742.56 316.160  23
  -5  -3   4 4034.75 412.460  11
   5   3  -3 2803.50 267.348  23
  -5  -3   3 2415.40 323.843  11
   5   3  -2 8229.21 436.789  23
  -5  -3   2 7941.64 561.815  11
   5   3  -1 29873.0 824.268  23
  -5  -3   1 28985.2 1073.99  11
   5   3   0 6784.45 395.071  23
  -5  -3   0 6664.21 508.062  11
   5   3   1 3082.78 512.302  25
   5   3   1 4020.20 302.664  23
   5   3   2 6060.20 719.691  25
   5   3   2 7845.41 424.443  23
   5   3   3 146.066 181.502  25
   5   3   3 582.858 119.350  23
   5   3   4 1154.89 308.241  25
   5   3   4 1718.07 193.713  23
   5   3   4 1503.12 182.179  29
   5   3   5 893.508 259.927  25
   5   3   5 1274.88 157.169  23
   5   3   5 1102.38 148.710  29
   5   3   6 7435.62 670.697  25
   5   3   6 8669.55 379.780  29
   5   3   7-193.150 139.335  25
  -5  -4  11 3157.80 224.972   7
  -5  -4  11 2112.09 222.619  28
  -5  -4  10 9660.68 449.494   7
  -5  -4  10 6926.97 448.240  28
  -5  -4   9 554.976 128.624   7
  -5  -4   9 352.112 121.828  28
  -5  -4   8-1.88959 58.0970   7
  -5  -4   8-102.137 131.886  28
  -5  -4   7-61.1214 72.1245  11
  -5  -4   6 4451.47 425.421  11
   5   4  -5 2981.48 296.973  23
  -5  -4   5 2165.65 322.313  11
   5   4  -4 185.089 83.2963  23
  -5  -4   4 134.644 115.225  11
   5   4  -3 6161.09 391.097  23
  -5  -4   3 5043.02 464.333  11
   5   4  -2 25.3304 59.3523  23
   5   4  -1 23760.4 762.674  23
   5   4   0 16085.5 662.454  24
   5   4   0 14791.9 590.168  23
   5   4   1 12775.1 594.794  24
   5   4   1 11896.1 521.784  23
   5   4   2 1479.44 325.698  25
   5   4   2 2028.97 211.426  23
   5   4   3 12921.3 1031.17  25
   5   4   3 18162.6 609.858  23
   5   4   4 266.506 152.638  25
   5   4   4 874.996 129.091  23
   5   4   5-279.673 212.694  25
   5   4   6 4143.10 473.737  25
   5   4   7 2208.88 293.496  25
  -5  -5  11 130.895 55.6751   7
  -5  -5  10 233.174 77.3388   7
  -5  -5   9 3508.33 278.344   7
  -5  -5   8 2341.62 244.849   7
  -5  -5   7 2066.48 249.893   7
  -5  -5   7 1385.76 228.251  11
  -5  -5   6 1035.97 196.125  11
   5   5  -5 286.987 100.003  23
   5   5  -4 3374.03 317.482  23
   5   5  -3 5935.41 394.590  23
   5   5  -2 505.151 139.926  24
   5   5  -2 564.999 125.597  23
   5   5  -1 464.526 122.978  24
   5   5  -1 521.231 119.478  23
   5   5   0 4181.52 347.226  24
   5   5   0 4329.08 318.621  23
   5   5   1 96.6262 63.2188  24
   5   5   1 62.1145 47.5036  23
   5   5   2 3279.65 300.966  24
   5   5   2 3037.02 252.869  23
   5   5   3 791.880 149.978  24
   5   5   3 894.778 133.381  23
   5   5   4 4073.42 528.542  25
   5   5   4 8535.62 442.676  24
   5   5   5 2078.42 321.035  25
   5   5   5 4204.85 281.593  24
   5   5   6 189.621 56.4670  24
  -5  -6  10 2551.68 202.150   7
  -5  -6   9 258.122 85.3969   7
  -5  -6   8 426.218 108.704   7
  -5  -6   7 925.524 156.446   7
  -5  -6   6 4653.39 333.143   7
  -5  -6   5 1256.27 173.099   7
   5   6  -5 1494.35 141.196  17
   5   6  -4 2011.99 253.620  23
   5   6  -3 1909.93 233.047  23
   5   6  -2 1464.82 224.663  24
   5   6  -2 1556.60 209.981  23
   5   6  -1 4737.25 383.500  24
   5   6  -1 5032.36 347.802  23
   5   6   0 2978.38 295.574  24
   5   6   0 3178.38 260.286  23
   5   6   1 348.179 104.071  24
   5   6   1 416.894 93.5310  23
   5   6   2 121.437 59.6378  24
   5   6   2 195.268 63.7985  23
   5   6   3 164.146 69.3244  24
   5   6   4 2251.63 204.700  24
   5   6   5 1439.02 145.943  24
  -5  -7   9 217.241 60.8970   7
  -5  -7   8 4387.99 267.828   7
  -5  -7   7 487.124 99.6293   7
   5   7  -6 1129.71 115.205  17
   5   7  -5 1643.77 141.255  17
   5   7  -4 476.458 79.4620  17
   5   7  -3 19.1232 35.2383  17
   5   7  -2 21289.5 698.889  23
   5   7  -2 23156.5 559.207  17
   5   7  -1 627.016 142.255  24
   5   7  -1 597.147 119.395  23
   5   7  -1 686.565 95.9843  17
   5   7   0 63.5378 64.5171  24
   5   7   0-27.2046 47.3660  23
   5   7   0 64.9944 38.7343  17
   5   7   1 1899.52 216.649  24
   5   7   1 1671.78 134.336  17
   5   7   2 62.0059 51.5674  24
   5   7   2 18.6492 25.7114  17
   5   7   3 2079.23 190.189  24
   5   8  -6 90.3921 36.4868  17
   5   8  -5 6503.47 264.250  17
   5   8  -4 2524.09 165.453  17
   5   8  -3 2037.11 148.682  17
   5   8  -2 523.517 82.7036  17
   5   8  -1 6279.05 250.855  17
   5   8   0 6244.70 231.573  17
   5   9  -4 722.291 79.2176  17
   5   9  -3 58.2034 25.1943  17
   5   9  -2 3179.25 156.313  17
  -6   9   3-67.6678 68.9676  12
  -6   9   3 32.5702 34.0762  14
  -6   9   2-43.6466 71.5836  12
  -6   9   2 73.9581 39.9209  14
  -6   9   1-92.7705 87.3565  12
  -6   9   1 9.49932 35.0808  14
  -6   9   0 1817.99 203.129  12
   6  -9   0 1483.53 154.444   9
   6  -9   1 1419.37 161.407   9
  -6   9  -1 1942.22 154.536  14
   6  -9   2-10.3478 34.8661   9
  -6   9  -2 8.21112 33.6944  14
   6  -9   3 10.7532 45.5640   9
   6  -9   4 6092.21 321.404   9
   6  -9   5 4932.99 269.553   9
  -6   8   5-7.34733 54.7709  12
  -6   8   4 2126.73 228.451  12
  -6   8   4 1719.84 146.333  14
  -6   8   3 209.316 85.6594  12
  -6   8   3 198.187 69.4880  14
  -6   8   2 1639.03 220.502  12
  -6   8   2 1734.14 160.087  14
  -6   8   1-27.4938 74.4027  12
  -6   8   1-90.0751 59.4531  14
  -6   8   0-23.0213 44.1355  14
  -6   8   0-59.7344 79.2474  12
   6  -8   0 27.2803 40.1034   9
  -6   8  -1 987.187 167.778  12
   6  -8   1 912.985 149.300   9
  -6   8  -1 1348.31 139.769  14
   6  -8   2 2211.18 229.726   9
  -6   8  -2 3122.06 205.019  14
   6  -8   3-25.0265 46.9582   9
   6  -8   4 1842.94 203.010   9
   6  -8   5 455.549 102.345   9
   6  -8   6 981.292 125.702   9
  -6   7   6 8801.01 413.339  12
  -6   7   5 1717.31 212.756  12
  -6   7   5 1879.18 156.782  14
  -6   7   4-23.4732 92.8175  12
  -6   7   4 13.2294 42.5537  14
  -6   7   3 810.785 173.155  12
  -6   7   3 1016.32 140.466  14
  -6   7   2 1736.57 245.488  12
  -6   7   2 2145.72 201.997  14
  -6   7   1 375.134 96.0186  14
  -6   7   1 459.359 135.147  12
   6  -7  -1 391.727 102.532   9
  -6   7   0 519.694 103.309  14
  -6   7   0 535.032 145.423  12
   6  -7   0 497.575 117.251   9
  -6   7  -1 2480.62 288.054  12
   6  -7   1 2026.11 235.200   9
  -6   7  -1 2311.79 196.969  14
   6  -7   2 1013.66 170.877   9
  -6   7  -2 1284.41 140.325  14
   6  -7   3 75.1525 66.6367   9
   6  -7   4 112.655 66.1438   9
   6  -7   5 3222.76 266.629   9
   6  -7   6 210.361 74.3925   9
   6  -7   7 676.421 84.4382  23
  -6   6   7-71.7187 131.598  27
  -6   6   6 1862.44 228.316  12
  -6   6   6 1890.45 156.367  14
  -6   6   5 78.9309 152.984  27
  -6   6   5-215.304 125.508  12
  -6   6   5 31.6494 48.4934  14
  -6   6   4 620.688 153.555  12
  -6   6   4 622.547 122.020  14
  -6   6   3 4392.69 412.990  12
  -6   6   3 5150.97 323.533  14
  -6   6   2 5437.38 460.318  12
  -6   6   2 5828.61 351.169  14
  -6   6   1 59.5496 76.8467  12
   6  -6  -1 3.84606 50.3211   9
  -6   6   1-39.7631 66.9165  14
  -6   6   0 486.993 156.290  12
   6  -6   0 447.908 122.512   9
  -6   6   0 546.997 120.345  14
  -6   6  -1-179.563 140.156  12
   6  -6   1 4.45877 51.7230   9
  -6   6  -1-38.7020 50.3514  14
   6  -6   2 3481.15 326.145   9
   6  -6   3 2528.54 274.635   9
   6  -6   4 336.705 106.474   9
   6  -6   5 1371.21 189.126   9
   6  -6   6 2709.76 202.362  23
   6  -6   6 2899.62 247.788   9
   6  -6   7 2862.16 195.467  23
   6  -6   8 1575.14 131.296  23
  -6   5   8 5.08482 123.209  27
  -6   5   6 1541.56 211.569  12
  -6   5   6 1810.26 172.862  14
  -6   5   5 2580.69 304.138  12
  -6   5   5 2614.09 232.508  14
  -6   5   4 79.0973 170.399  27
  -6   5   4 26.5926 74.6252  12
  -6   5   4 100.127 63.2508  14
  -6   5   3 790.678 179.921  12
  -6   5   3 948.899 156.181  14
  -6   5   2 10431.2 646.165  12
  -6   5   2 10249.6 472.494  14
  -6   5   1 664.776 173.645  12
   6  -5  -1 560.497 137.091   9
  -6   5   1 684.328 130.927  14
  -6   5   0 1016.61 205.414  12
   6  -5   0 916.414 192.448   9
  -6   5   0 879.864 145.310  14
   6  -5   1 1313.03 218.411   9
  -6   5  -1 1245.73 162.163  14
   6  -5   2 7086.18 471.887   9
   6  -5   3 230.086 102.232   9
   6  -5   4-26.8065 39.5591  23
   6  -5   4-46.5632 54.5016   9
   6  -5   5 34.3427 39.0786  23
   6  -5   5 91.5679 74.1121   9
   6  -5   6 963.192 141.833  23
   6  -5   6 1274.87 172.002   9
   6  -5   7 29.6593 33.5697  23
   6  -5   8 212.631 57.3669  23
  -6   4   9 439.560 173.755  27
  -6   4   8 937.637 252.153  27
  -6   4   7 307.754 200.816  27
  -6   4   6 1.27547 160.356  27
  -6   4   6-258.133 137.531  12
  -6   4   6 59.9466 53.8760  14
  -6   4   5 4062.95 391.829  12
  -6   4   5 4117.60 295.902  14
  -6   4   4 2911.66 346.249  12
  -6   4   4 3191.40 271.007  14
  -6   4   3-176.932 119.012  12
  -6   4   3 46.8681 59.5757  14
  -6   4   2 1012.82 210.173  12
   6  -4  -2 1072.25 183.054   9
  -6   4   2 1215.10 169.564  14
  -6   4   1 728.940 169.694  12
  -6   4   1 799.053 200.735  11
   6  -4  -1 785.351 164.657   9
  -6   4   1 692.186 133.009  14
   6  -4   0 786.207 170.988   9
  -6   4   0 678.748 120.004  14
   6  -4   1 314.618 122.213   9
   6  -4   2 351.325 128.227   9
   6  -4   3 7858.39 423.423  23
   6  -4   3 8915.01 529.170   9
   6  -4   4 1737.38 198.018  23
   6  -4   4 1890.24 242.912   9
   6  -4   5 14.3254 45.6554  23
   6  -4   5-5.56618 48.9886   9
   6  -4   6 1185.89 153.029  23
   6  -4   6 1225.71 168.142   9
   6  -4   7 437.428 96.0199  23
   6  -4   8 842.419 109.653  23
   6  -4   9 9771.19 303.581  23
  -6   3   9 360.757 166.421  27
  -6   3   8-60.1113 87.9931  28
  -6   3   6 84.2095 211.756  27
  -6   3   6 270.656 91.3450  14
  -6   3   5 636.166 127.856  14
  -6   3   4 203.766 95.5907  12
  -6   3   4 445.139 149.543  11
  -6   3   4 262.733 86.4825  14
  -6   3   3 295.711 119.882  12
  -6   3   3 624.891 177.473  11
  -6   3   3 507.008 119.857  14
  -6   3   2 626.414 154.419  12
  -6   3   2 714.518 200.089  11
   6  -3  -2 729.370 157.276   9
  -6   3   2 717.075 130.686  14
  -6   3   1 1692.34 308.360  11
   6  -3  -1 1763.89 239.755   9
  -6   3   1 1502.06 177.225  14
   6  -3   0 69.2276 83.9983   9
  -6   3   0-65.7411 71.6174  14
   6  -3   1 273.503 105.127   9
   6  -3   2 1181.63 173.652  23
   6  -3   2 1353.30 223.252   9
   6  -3   3-37.9310 51.0537  23
   6  -3   3 151.351 90.2124   9
   6  -3   4 23.8827 35.2961  23
   6  -3   4 18.2839 61.5541   9
   6  -3   5 2263.46 224.877  23
   6  -3   5 2462.47 261.769   9
   6  -3   6 4148.87 287.213  23
   6  -3   6 4449.00 305.020   9
   6  -3   7 988.841 131.412  23
   6  -3   8 31.4115 32.9137  23
  -6   2   9 421.395 189.988  27
  -6   2   9 817.379 175.632  28
  -6   2   8 552.303 264.084  27
  -6   2   7 747.612 280.738  27
  -6   2   7 1963.37 248.996  11
  -6   2   6-199.598 198.249  27
  -6   2   6 24.5925 65.1273  11
  -6   2   5 3609.29 382.211  11
  -6   2   5 3564.32 283.722  14
  -6   2   4 9018.91 618.018  11
  -6   2   4 9054.38 438.493  14
  -6   2   3 2575.21 344.329  11
  -6   2   3 2521.64 233.802  14
  -6   2   2 9089.16 649.572  11
   6  -2  -2 8434.32 485.932   9
  -6   2   2 8082.36 414.462  14
   6  -2  -1 140085. 2038.87   9
  -6   2   1 139295. 1631.41  14
   6  -2   0 3888.67 347.983   9
   6  -2   1-3.80250 60.5742   9
   6  -2   2 15.3483 42.4136  23
   6  -2   2 27.9426 54.3442   9
   6  -2   3 713.601 136.743  23
   6  -2   3 736.372 151.638   9
   6  -2   4 7248.61 404.936  23
   6  -2   4 7707.95 466.028   9
   6  -2   5 2552.12 238.564  23
   6  -2   5 2374.57 264.272   9
   6  -2   6 658.013 115.085  23
   6  -2   7 2553.64 208.820  23
   6  -2   8 386.408 73.9093  23
  -6   1  10 243.143 92.8354  28
  -6   1   9 20.2526 74.7888  28
  -6   1   8-11.2423 142.201  27
  -6   1   7 217.526 200.262  27
  -6   1   7 919.248 189.130  11
  -6   1   6 3933.97 399.680  11
  -6   1   5 3734.55 412.197  11
  -6   1   4-23.0552 77.7991  11
  -6   1   3 236.137 103.336  11
  -6   1   2 7428.35 615.412  11
   6  -1  -2 7275.45 461.140   9
   6  -1  -1 42242.4 1122.95   9
   6  -1   0 86288.4 1358.90  23
   6  -1   0 85151.1 1614.34   9
   6  -1   1-4.12818 49.2612  23
   6  -1   1 7.53811 53.5105   9
   6  -1   2 6429.97 379.001  23
   6  -1   2 6202.46 428.946   9
   6  -1   3 7526.52 414.153  23
   6  -1   3 7231.92 464.945   9
   6  -1   4 33.4565 44.5085  23
   6  -1   4-48.5930 63.2332   9
   6  -1   5 447.354 103.399  23
   6  -1   5 386.288 104.200   9
   6  -1   6 3284.04 249.935  23
   6  -1   7 1163.80 139.695  23
   6  -1   8 464.031 74.5289  23
  -6   0  10 98.1554 85.8559  28
  -6   0   9 1412.57 235.353  28
  -6   0   8 495.490 137.496  11
  -6   0   7 8244.55 554.502  11
  -6   0   7 3224.97 513.583  27
  -6   0   6 435.690 162.768  11
  -6   0   5 194.596 106.740  11
  -6   0   4 1110.96 237.795  11
  -6   0   3 3235.78 382.540  11
   6   0  -3 2895.65 273.478   9
  -6   0   2 948.294 215.169  11
   6   0  -2 798.874 135.951   9
   6   0  -1 11011.6 477.848  23
  -6   0   1 11462.3 734.294  11
   6   0  -1 11309.2 577.659   9
   6   0   0 3031.64 263.415  23
   6   0   0 3003.37 302.088   9
   6   0   1 941.535 153.377  23
   6   0   1 956.473 178.899   9
   6   0   2-9.98283 44.6330  23
   6   0   2-52.1874 66.5832   9
   6   0   3 1895.86 213.366  23
   6   0   3 1941.03 242.595   9
   6   0   4 1308.35 175.320  23
   6   0   4 1292.60 186.976   9
   6   0   5 108.684 55.2486  23
   6   0   6 402.767 95.0744  23
   6   0   7 1117.38 126.449  23
  -6  -1  10 3023.81 292.595  28
  -6  -1   9 206.771 77.9931   7
  -6  -1   9 175.274 93.7929  28
  -6  -1   8 299.261 119.271  11
  -6  -1   7 228.073 114.475  11
  -6  -1   6 4682.90 441.944  11
  -6  -1   5 332.956 142.247  11
  -6  -1   4 4260.69 449.120  11
   6   1  -3 98.6639 67.0759  23
  -6  -1   3-23.3448 89.2508  11
   6   1  -2 577.952 115.910  23
  -6  -1   2 490.276 172.743  11
   6   1  -1 1491.91 178.962  23
  -6  -1   1 1307.34 245.604  11
   6   1  -1 1394.15 202.913   9
   6   1   0 1862.66 200.514  23
   6   1   0 1911.49 242.084   9
   6   1   1 135.078 64.6148  23
   6   1   1 205.840 95.2430   9
   6   1   2 249.630 78.0793  23
   6   1   3 5735.99 357.735  23
   6   1   4 817.750 132.005  23
   6   1   5 961.874 136.866  23
   6   1   6-6.94172 29.6628  23
   6   1   7 5042.48 231.203  23
  -6  -2  10 676.218 100.411   7
  -6  -2  10 480.989 131.729  28
  -6  -2   9 3.67331 41.7058   7
  -6  -2   9-73.6195 85.4124  28
  -6  -2   8 1294.84 184.026   7
  -6  -2   8 1039.33 194.550  11
  -6  -2   7 1812.09 267.376  11
  -6  -2   6 70.9141 81.5211  11
  -6  -2   5 191.659 121.003  11
   6   2  -4 969.493 159.212  23
  -6  -2   4 1189.40 232.449  11
   6   2  -3 14218.4 568.605  23
  -6  -2   3 14284.0 781.798  11
   6   2  -2 474.084 116.758  23
  -6  -2   2 498.160 160.527  11
   6   2  -1 492.000 106.999  23
  -6  -2   1 426.714 149.032  11
   6   2   0 2577.85 245.458  23
  -6  -2   0 2654.63 323.582  11
   6   2   1 19907.5 655.903  23
  -6  -2  -1 18389.9 853.658  11
   6   2   2 229.611 79.2004  23
   6   2   3 57.1785 52.2288  23
   6   2   4 3587.98 264.699  23
   6   2   5 1442.01 153.820  23
   6   2   6 8407.80 310.794  23
  -6  -3  10 2596.91 190.783   7
  -6  -3  10 1822.73 198.065  28
  -6  -3   9 1007.63 141.465   7
  -6  -3   9 606.862 143.160  28
  -6  -3   8 2730.56 262.916   7
  -6  -3   8 1975.08 263.450  28
  -6  -3   7 1263.91 219.696  11
  -6  -3   6 206.057 113.367  11
   6   3  -5 4201.94 320.907  23
  -6  -3   5 4192.24 411.326  11
   6   3  -4 1062.66 159.358  23
  -6  -3   4 998.280 213.335  11
   6   3  -3 3182.29 274.401  23
  -6  -3   3 3150.58 356.007  11
   6   3  -2 1107.51 164.540  23
  -6  -3   2 1014.02 201.068  11
   6   3  -1 207.946 81.9328  23
  -6  -3   1 143.756 65.5120  11
   6   3   0 15.4869 36.7568  23
  -6  -3   0 83.9867 69.8909  11
   6   3   1 12853.0 522.347  23
   6   3   2 423.354 93.8839  23
   6   3   3 2048.95 194.459  23
   6   3   4 532.682 94.4911  24
   6   3   4 550.828 98.9213  23
   6   3   5 83.0202 33.7301  24
   6   3   5 214.464 54.4993  23
  -6  -4   9 10247.8 398.701   7
  -6  -4   8 233.184 83.8343   7
  -6  -4   7 2656.54 246.831   7
  -6  -4   7 1872.56 239.056  11
  -6  -4   6 3077.40 314.200  11
  -6  -4   5 90.2990 87.4456  11
   6   4  -4 1646.24 199.444  23
  -6  -4   4 1356.01 233.164  11
   6   4  -3 2838.74 260.799  23
  -6  -4   3 2275.75 280.334  11
   6   4  -2 7016.22 401.876  23
   6   4  -1 1235.25 170.977  23
   6   4   0 2079.95 207.023  23
   6   4   1 6069.49 349.925  23
   6   4   2 3225.11 239.609  23
   6   4   3 1049.05 135.224  24
   6   4   3 1145.88 135.393  23
   6   4   4 14479.9 457.123  24
   6   4   4 14706.0 415.433  23
  -6  -5   9-12.6856 37.0982   7
  -6  -5   8-24.9203 39.9623   7
  -6  -5   7 678.048 115.376   7
  -6  -5   6 8.16201 47.6352  11
  -6  -5   6 18.3222 62.3872   7
  -6  -5   5 101.016 73.1718   7
   6   5  -5 90.1418 37.4918  17
   6   5  -4-27.6493 59.5320  23
   6   5  -3 2772.93 254.125  23
   6   5  -2 594.386 117.804  23
   6   5  -1 105.155 64.5809  23
   6   5   0 35.8234 45.3370  23
   6   5   1 1031.92 129.103  23
   6   5   2 789.489 116.824  24
   6   5   2 849.357 110.780  23
   6   5   3 43.4725 36.8133  24
   6   5   3 63.5021 28.1228  23
  -6  -6   7 1756.18 158.507   7
  -6  -6   6 16633.3 482.219   7
   6   6  -5 3468.52 180.594  17
   6   6  -4 737.055 85.1698  17
   6   6  -3 28.6648 32.2980  17
   6   6  -2 8446.83 397.639  23
   6   6  -2 8214.48 303.851  17
   6   6  -1 1594.52 166.701  23
   6   6   0-19.9132 38.6660  23
   6   6   0-13.2390 21.3293  17
   6   6   1 3.94055 32.4602  24
   6   6   1 5.10821 35.6210  23
   6   6   1 26.4749 19.7571  17
   6   7  -4 434.267 57.9619  17
   6   7  -3 1814.64 119.296  17
   6   7  -2 622.823 71.8970  17
   6   7  -1 3601.80 162.180  17
   7  -8   2 1401.57 133.857   9
  -7   7   3 1641.80 126.880  14
  -7   7   2 5940.97 246.931  14
  -7   7   1 5117.86 232.754  14
   7  -7   0 1885.97 172.097   9
  -7   7   0 2264.73 150.401  14
   7  -7   1 812.135 117.817   9
   7  -7   2 1284.84 148.366   9
   7  -7   3 122.836 54.8254   9
   7  -7   4 785.420 106.190   9
  -7   6   4-75.5864 96.0284  27
  -7   6   4 171.429 52.9658  14
  -7   6   3 213.303 141.360  27
  -7   6   3 2160.19 169.591  14
  -7   6   2 278.685 153.872  27
  -7   6   2 2571.37 192.124  14
   7  -6  -1 5157.85 292.897   9
  -7   6   1 6032.90 287.403  14
   7  -6   0 5971.95 331.962   9
  -7   6   0 6122.96 271.209  14
   7  -6   1 26.4130 57.6120   9
   7  -6   2 1686.37 184.875   9
   7  -6   3 352.418 87.9113   9
   7  -6   4 1419.29 156.367   9
   7  -6   5 391.964 77.4092   9
  -7   5   5 81.8414 116.759  27
  -7   5   4 56.4450 139.557  27
  -7   5   4 104.577 50.4687  14
  -7   5   3 192.532 160.430  27
  -7   5   3 1937.72 173.776  14
  -7   5   2 1587.37 154.439  14
   7  -5  -1 1075.60 150.382   9
  -7   5   1 1262.12 134.157  14
   7  -5   0 1991.25 210.260   9
  -7   5   0 2378.42 177.176  14
   7  -5   1 3217.08 266.950   9
  -7   5  -2 1601.90 233.133  11
   7  -5   2 1448.81 192.220   9
   7  -5   3 2263.35 220.286   9
   7  -5   4 7278.63 360.470   9
   7  -5   5 2285.80 183.790   9
  -7   4   6-37.5282 134.041  27
  -7   4   5 77.3030 148.408  27
  -7   4   4 189.013 190.721  27
  -7   4   3 1146.29 137.386  14
  -7   4   2 349.600 82.9879  14
  -7   4   1 243.009 109.292  11
   7  -4  -1 196.483 73.9113   9
  -7   4   1 406.193 83.9976  14
  -7   4   0 1084.88 209.304  11
   7  -4   0 1157.25 177.028   9
  -7   4  -1 1441.56 244.038  11
   7  -4   1 1419.44 191.492   9
   7  -4   2 455.886 113.629   9
   7  -4   3 1568.51 211.628   9
   7  -4   4 2203.21 170.029  23
   7  -4   4 2618.05 230.719   9
   7  -4   5 1097.96 114.721  23
   7  -4   5 1421.75 151.645   9
   7  -4   6 1224.38 110.153  23
  -7   3   7 1389.48 277.736  27
  -7   3   7 2514.75 271.585  28
  -7   3   6 1023.66 272.524  27
  -7   3   5 162.572 152.964  27
  -7   3   4 842.125 157.719  11
  -7   3   3 3087.22 315.801  11
  -7   3   2 706.605 179.160  11
   7  -3  -2 560.170 130.215   9
  -7   3   1 829.918 186.302  11
   7  -3  -1 862.611 143.343   9
  -7   3   0 1136.01 215.833  11
   7  -3   0 1322.38 185.072   9
  -7   3  -1 1527.07 250.957  11
   7  -3   1 1772.78 210.300   9
   7  -3   2 2950.25 263.326   9
   7  -3   3 360.596 85.2181  23
   7  -3   3 496.754 112.082   9
   7  -3   4 2819.42 200.669  23
   7  -3   4 3240.13 246.846   9
   7  -3   5 3987.74 225.494  23
   7  -3   5 4799.36 265.833   9
   7  -3   6 170.159 44.9085  23
  -7   2   8 107.868 74.8763  28
  -7   2   7 197.346 131.054  27
  -7   2   6 647.816 247.754  27
  -7   2   6 3235.10 285.896  11
  -7   2   5 2412.03 265.479  11
  -7   2   4 435.898 134.087  11
  -7   2   3 1039.09 224.441  11
  -7   2   2 847.233 178.511  11
   7  -2  -2 860.945 141.182   9
  -7   2   1 2764.05 332.147  11
   7  -2  -1 2518.25 243.220   9
  -7   2   0 6389.86 518.651  11
   7  -2   0 6182.23 386.735   9
   7  -2   1 535.038 100.798  23
  -7   2  -1 767.497 193.841  11
   7  -2   1 613.535 151.296   9
   7  -2   2 405.735 86.1365  23
   7  -2   2 467.989 106.622   9
   7  -2   3 1080.03 133.154  23
   7  -2   3 1190.56 164.132   9
   7  -2   4 2713.23 210.835  23
   7  -2   4 3319.28 263.849   9
   7  -2   5 1789.45 156.810  23
   7  -2   6 187.842 47.9358  23
  -7   1   8 422.981 123.448  28
  -7   1   7 2100.91 231.308  11
  -7   1   6 1700.86 355.817  27
  -7   1   6 6376.58 431.488  11
  -7   1   5 334.265 123.052  11
  -7   1   4 174.003 94.7446  11
  -7   1   3 2553.15 309.929  11
  -7   1   2 2927.55 374.549  11
   7  -1  -2 3004.18 263.702   9
  -7   1   1 2154.18 298.182  11
   7  -1  -1 2085.80 228.341   9
   7  -1   0 360.228 87.8923  23
  -7   1   0 608.382 180.039  11
   7  -1   0 437.802 116.151   9
   7  -1   1 3546.53 249.173  23
  -7   1  -1 3364.56 367.502  11
   7  -1   1 3787.74 295.466   9
   7  -1   2 954.806 135.171  23
   7  -1   2 1046.52 157.315   9
   7  -1   3 1664.91 169.192  23
   7  -1   4 7372.26 328.962  23
   7  -1   5 4651.59 238.798  23
   7  -1   6 227.314 50.4178  23
  -7   0   8 205.649 101.540  28
  -7   0   7 825.784 167.140  11
  -7   0   6 222.781 165.393  27
  -7   0   6 567.472 157.526  11
  -7   0   5 455.087 137.332  11
  -7   0   4 864.450 196.365  11
  -7   0   3 1767.18 270.635  11
  -7   0   2 518.067 165.251  11
   7   0  -1 184.265 66.8135  23
  -7   0   1 331.970 148.756  11
   7   0   0 2348.38 204.249  23
  -7   0   0 2362.05 292.037  11
   7   0   1 1506.63 165.129  23
  -7   0  -1 1918.84 275.625  11
   7   0   2 212.656 64.9894  23
  -7   0  -2 336.604 119.574  11
   7   0   3 402.351 86.8294  23
  -7   0  -3 356.147 118.127  11
   7   0   4 1193.34 134.342  23
  -7   0  -4 1375.48 195.187  11
   7   0   5 3422.01 193.841  23
  -7   0  -5 2313.03 210.095  11
  -7  -1   8 857.930 112.943   7
  -7  -1   8 442.453 109.573  28
  -7  -1   7 2452.49 260.700  11
  -7  -1   6 4292.48 346.042  11
  -7  -1   5 5732.52 434.592  11
  -7  -1   4 1496.73 229.740  11
  -7  -1   3 4663.04 396.333  11
   7   1  -2 2597.26 213.516  23
  -7  -1   2 2708.53 307.868  11
   7   1  -1 756.329 119.139  23
  -7  -1   1 706.090 163.698  11
   7   1   0 413.489 93.8660  23
  -7  -1   0 508.480 141.203  11
   7   1   1 993.864 133.165  23
  -7  -1  -1 1014.16 183.309  11
   7   1   2 218.498 70.1119  23
  -7  -1  -2 292.973 96.5483  11
   7   1   3 1536.44 148.040  23
  -7  -1  -3 1206.12 169.590  11
   7   1   4 2094.59 157.272  23
  -7  -1  -4 1216.95 145.998  11
   7   1   5 1911.53 136.428  23
  -7  -2   8 217.726 60.8298   7
  -7  -2   7 821.592 139.031   7
  -7  -2   7 582.179 140.991  11
  -7  -2   6 3785.08 320.963  11
  -7  -2   5 3138.32 301.491  11
  -7  -2   4 3560.15 325.499  11
   7   2  -3 583.490 112.358  23
  -7  -2   3 1377.04 225.332  11
   7   2  -2 1702.84 173.130  23
  -7  -2   2 2201.22 263.194  11
   7   2  -1 275.848 83.0085  23
  -7  -2   1 671.718 160.811  11
   7   2   0 2178.09 188.860  23
  -7  -2   0 2170.89 247.364  11
   7   2   1 3254.51 227.180  23
  -7  -2  -1 3304.46 282.873  11
   7   2   2 578.598 91.4732  23
  -7  -2  -2 424.515 104.126  11
   7   2   3 751.669 101.689  23
   7   2   4 321.773 60.7874  23
  -7  -3   7 1246.47 137.663   7
  -7  -3   6 1896.76 185.941   7
  -7  -3   6 1665.52 194.736  11
  -7  -3   5 171.823 74.7852  11
  -7  -3   4 1892.42 229.832  11
   7   3  -3 589.050 102.315  23
  -7  -3   3 596.869 133.257  11
   7   3  -2 6329.28 323.349  23
  -7  -3   2 7420.42 429.655  11
   7   3  -1 19394.7 551.048  23
  -7  -3   1 18638.9 635.905  11
   7   3   0 7523.73 334.193  23
   7   3   1 4383.25 243.155  23
   7   3   2 400.616 72.2487  23
   7   3   3 1010.29 100.087  23
  -7  -4   6 405.016 81.0782   7
  -7  -4   5 372.467 88.2594  11
  -7  -4   5 531.444 90.6466   7
  -7  -4   4 1689.70 161.338   7
  -7  -4   4 1360.74 170.300  11
   7   4  -3 331.334 75.1445  23
   7   4  -2 258.368 73.7009  23
   7   4  -1 1338.78 150.222  23
   7   4   0 2096.53 169.778  23
   7   4   1 1654.41 139.995  23
   7   5  -2 500.766 57.4274  17
   7   5  -1 1387.69 123.947  23
   7   5  -1 1645.66 99.7425  17
  -8   4   2 83.8523 108.439  27
  -8   3   4 50.3573 105.374  27
  -8   3   3 54.6726 110.938  27
  -8   3   2 11442.8 428.891  11
  -8   3   1 3019.48 233.966  11
  -8   3   0 1279.97 160.191  11
  -8   3  -1 414.329 90.5549  11
  -8   2   4 111.810 101.860  27
  -8   2   3 941.410 135.334  11
  -8   2   2 2333.80 215.894  11
  -8   2   1 56507.9 1050.42  11
  -8   2   0 6187.32 353.627  11
  -8   2  -1 1189.92 156.527  11
  -8   2  -2 654.426 113.889  11
  -8   1   4 173.882 124.086  27
  -8   1   4-0.22672 35.7627  11
  -8   1   3 327.038 88.5554  11
  -8   1   2 6450.91 361.402  11
  -8   1   1 251.909 90.7114  11
  -8   1   0 9422.69 428.150  11
  -8   1  -1 196.548 70.9447  11
  -8   0   4-8.61457 44.5541  11
  -8   0   3 1082.73 147.337  11
  -8   0   2 588.563 115.554  11
  -8   0   1 2798.32 226.388  11
  -8   0   0 856.510 126.788  11
  -8  -1   3 128.283 56.0001  11
  -8  -1   2 106.904 52.5428  11
   0   0   0    0.00    0.00   0

TITL exp_5263 in P-1
REM P-1 (#2 in standard setting)
CELL 1.54184   6.736620  10.603723  11.873663 103.7620  94.8527  97.7455
ZERR    2.00   0.000615   0.000888   0.000897   0.0070   0.0070   0.0072
LATT  1
SFAC C H B N O F S
UNIT 32.00 32.00 2.00 6.00 2.00 12.00 2.00
TREF
HKLF 4
END
;
_shelx_hkl_checksum              54456
loop_
_space_group_symop_operation_xyz
'x, y, z'
'-x, -y, -z'
loop_
_atom_site_label
_atom_site_type_symbol
_atom_site_fract_x
_atom_site_fract_y
_atom_site_fract_z
_atom_site_U_iso_or_equiv
_atom_site_adp_type
_atom_site_occupancy
_atom_site_site_symmetry_order
_atom_site_calc_flag
_atom_site_refinement_flags_posn
_atom_site_refinement_flags_adp
C1 C 0.1642(9) -0.0414(5) 0.8200(5) 0.0320(12) Uani 1 1 d . .
H1A H 0.031780 -0.071937 0.773425 0.048 Uiso 1 1 calc R U
H1B H 0.166502 -0.074921 0.890141 0.048 Uiso 1 1 calc R U
H1C H 0.268974 -0.073670 0.773552 0.048 Uiso 1 1 calc R U
C2 C 0.2325(8) 0.1687(5) 0.9780(4) 0.0275(11) Uani 1 1 d . .
H2A H 0.361423 0.228794 0.996468 0.041 Uiso 1 1 calc R U
H2B H 0.233979 0.103163 1.023769 0.041 Uiso 1 1 calc R U
H2C H 0.122369 0.218767 0.997100 0.041 Uiso 1 1 calc R U
C3 C 0.2042(6) 0.1716(4) 0.7720(4) 0.0205(10) Uani 1 1 d . .
C4 C 0.1750(7) 0.1076(4) 0.6501(4) 0.0213(10) Uani 1 1 d . .
H4 H 0.152769 0.014213 0.625892 0.026 Uiso 1 1 calc R U
C5 C 0.1785(6) 0.1780(4) 0.5680(4) 0.0200(9) Uani 1 1 d . .
H5 H 0.157028 0.132308 0.487758 0.024 Uiso 1 1 calc R U
C6 C 0.2130(6) 0.3169(4) 0.5985(4) 0.0197(9) Uani 1 1 d . .
C7 C 0.2411(6) 0.3811(4) 0.7185(4) 0.0191(9) Uani 1 1 d . .
H7 H 0.263899 0.474494 0.741664 0.023 Uiso 1 1 calc R U
C8 C 0.2363(6) 0.3121(4) 0.8025(4) 0.0196(9) Uani 1 1 d . .
H8 H 0.254668 0.358636 0.882539 0.023 Uiso 1 1 calc R U
C9 C 0.2193(6) 0.3886(4) 0.5103(4) 0.0187(9) Uani 1 1 d . .
C10 C 0.2671(6) 0.5812(4) 0.4572(4) 0.0192(9) Uani 1 1 d . .
C11 C 0.2970(7) 0.7492(5) 0.3454(4) 0.0215(10) Uani 1 1 d . .
C12 C 0.2562(6) 0.6196(4) 0.2760(4) 0.0197(9) Uani 1 1 d . .
C13 C 0.2356(7) 0.5980(4) 0.1553(4) 0.0224(10) Uani 1 1 d . .
C14 C 0.2571(7) 0.7040(5) 0.1057(4) 0.0245(10) Uani 1 1 d . .
C15 C 0.2983(7) 0.8319(5) 0.1760(5) 0.0248(10) Uani 1 1 d . .
C16 C 0.3186(6) 0.8546(4) 0.2961(5) 0.0221(10) Uani 1 1 d . .
B1 B 0.1928(8) 0.3707(5) 0.2950(5) 0.0218(11) Uani 1 1 d . .
N1 N 0.2023(6) 0.1028(4) 0.8543(4) 0.0250(9) Uani 1 1 d . .
N2 N 0.2609(6) 0.5196(4) 0.5419(3) 0.0203(8) Uani 1 1 d . .
N3 N 0.2391(5) 0.5266(4) 0.3410(4) 0.0196(8) Uani 1 1 d . .
O1 O 0.1861(5) 0.3198(3) 0.4013(3) 0.0242(8) Uani 1 1 d . .
F1 F 0.3443(4) 0.3264(3) 0.2354(2) 0.0288(7) Uani 1 1 d . .
F2 F 0.0085(4) 0.3347(3) 0.2292(2) 0.0277(7) Uani 1 1 d . .
F3 F 0.1982(4) 0.4767(3) 0.0842(2) 0.0293(7) Uani 1 1 d . .
F4 F 0.2393(4) 0.6837(3) -0.0102(3) 0.0302(7) Uani 1 1 d . .
F5 F 0.3168(4) 0.9330(3) 0.1256(3) 0.0317(7) Uani 1 1 d . .
F6 F 0.3594(4) 0.9783(3) 0.3626(3) 0.0294(7) Uani 1 1 d . .
S1 S 0.31770(16) 0.75225(10) 0.49326(10) 0.0203(4) Uani 1 1 d . .
loop_
_atom_site_aniso_label
_atom_site_aniso_U_11
_atom_site_aniso_U_22
_atom_site_aniso_U_33
_atom_site_aniso_U_23
_atom_site_aniso_U_13
_atom_site_aniso_U_12
C1 0.043(3) 0.019(2) 0.032(3) 0.010(2) 0.002(2) -0.008(2)
C2 0.033(3) 0.026(2) 0.023(2) 0.012(2) 0.001(2) -0.0031(19)
C3 0.015(2) 0.019(2) 0.026(2) 0.0079(18) 0.0001(17) -0.0043(16)
C4 0.021(2) 0.015(2) 0.025(2) 0.0024(18) 0.0031(18) -0.0034(16)
C5 0.016(2) 0.018(2) 0.021(2) 0.0023(18) -0.0017(17) -0.0052(16)
C6 0.014(2) 0.017(2) 0.024(2) 0.0035(18) -0.0005(17) -0.0058(16)
C7 0.014(2) 0.015(2) 0.026(2) 0.0045(18) 0.0021(17) -0.0053(15)
C8 0.017(2) 0.018(2) 0.021(2) 0.0024(17) 0.0008(17) -0.0036(16)
C9 0.0146(19) 0.017(2) 0.021(2) 0.0023(17) 0.0017(16) -0.0031(15)
C10 0.016(2) 0.017(2) 0.022(2) 0.0032(17) 0.0023(17) -0.0037(16)
C11 0.017(2) 0.024(2) 0.022(2) 0.0062(19) 0.0002(17) -0.0032(17)
C12 0.014(2) 0.016(2) 0.027(2) 0.0058(18) 0.0017(17) -0.0028(16)
C13 0.020(2) 0.015(2) 0.028(3) 0.0031(18) -0.0005(18) -0.0043(16)
C14 0.019(2) 0.031(3) 0.023(2) 0.011(2) -0.0003(18) -0.0044(18)
C15 0.018(2) 0.024(2) 0.035(3) 0.017(2) 0.0032(19) -0.0026(17)
C16 0.016(2) 0.015(2) 0.034(3) 0.0068(19) 0.0024(18) -0.0036(16)
B1 0.020(2) 0.018(2) 0.025(3) 0.005(2) -0.001(2) -0.0049(19)
N1 0.031(2) 0.0177(19) 0.025(2) 0.0066(16) 0.0025(17) -0.0035(16)
N2 0.0182(18) 0.0156(18) 0.025(2) 0.0050(15) 0.0009(15) -0.0037(14)
N3 0.0144(18) 0.0191(19) 0.023(2) 0.0045(15) -0.0008(14) -0.0044(14)
O1 0.0328(18) 0.0167(15) 0.0189(17) 0.0022(13) -0.0010(13) -0.0040(13)
F1 0.0374(16) 0.0229(14) 0.0239(15) 0.0015(11) 0.0064(12) 0.0041(12)
F2 0.0307(15) 0.0206(13) 0.0250(15) 0.0045(11) -0.0072(12) -0.0111(11)
F3 0.0395(16) 0.0216(14) 0.0210(14) 0.0025(11) -0.0001(12) -0.0078(11)
F4 0.0321(15) 0.0332(16) 0.0245(15) 0.0122(12) -0.0006(12) -0.0045(12)
F5 0.0368(16) 0.0241(15) 0.0361(17) 0.0162(13) 0.0022(13) -0.0029(12)
F6 0.0346(16) 0.0147(13) 0.0358(17) 0.0051(12) 0.0035(13) -0.0043(11)
S1 0.0204(6) 0.0144(6) 0.0227(6) 0.0035(4) 0.0003(4) -0.0053(4)
loop_
_atom_type_symbol
_atom_type_description
_atom_type_scat_dispersion_real
_atom_type_scat_dispersion_imag
_atom_type_scat_source
C C 0.0181 0.0091 'International Tables Vol C Tables 4.2.6.8 and 6.1.1.4'
H H 0.0000 0.0000 'International Tables Vol C Tables 4.2.6.8 and 6.1.1.4'
B B 0.0090 0.0039 'International Tables Vol C Tables 4.2.6.8 and 6.1.1.4'
N N 0.0311 0.0180 'International Tables Vol C Tables 4.2.6.8 and 6.1.1.4'
O O 0.0492 0.0322 'International Tables Vol C Tables 4.2.6.8 and 6.1.1.4'
F F 0.0727 0.0534 'International Tables Vol C Tables 4.2.6.8 and 6.1.1.4'
S S 0.3331 0.5567 'International Tables Vol C Tables 4.2.6.8 and 6.1.1.4'
loop_
_geom_angle_atom_site_label_1
_geom_angle_atom_site_label_2
_geom_angle_atom_site_label_3
_geom_angle
N1 C3 C8 121.7(4)
N1 C3 C4 121.7(4)
C8 C3 C4 116.6(4)
C5 C4 C3 121.2(4)
C4 C5 C6 122.1(4)
C7 C6 C5 117.3(4)
C7 C6 C9 121.8(4)
C5 C6 C9 120.9(4)
C8 C7 C6 121.6(4)
C7 C8 C3 121.2(4)
O1 C9 N2 123.4(4)
O1 C9 C6 117.1(4)
N2 C9 C6 119.5(4)
N2 C10 N3 127.4(4)
N2 C10 S1 119.2(3)
N3 C10 S1 113.4(3)
C16 C11 C12 121.2(5)
C16 C11 S1 127.8(4)
C12 C11 S1 110.9(3)
C13 C12 N3 128.0(4)
C13 C12 C11 119.0(4)
N3 C12 C11 113.0(4)
F3 C13 C14 118.3(4)
F3 C13 C12 121.9(4)
C14 C13 C12 119.7(4)
F4 C14 C13 119.9(4)
F4 C14 C15 119.6(4)
C13 C14 C15 120.5(4)
F5 C15 C16 120.4(4)
F5 C15 C14 119.2(4)
C16 C15 C14 120.3(4)
F6 C16 C11 121.1(5)
F6 C16 C15 119.6(4)
C11 C16 C15 119.2(4)
F1 B1 F2 112.7(4)
F1 B1 O1 109.5(4)
F2 B1 O1 109.3(4)
F1 B1 N3 110.0(4)
F2 B1 N3 109.3(4)
O1 B1 N3 105.7(4)
C3 N1 C2 121.3(4)
C3 N1 C1 120.3(4)
C2 N1 C1 118.4(4)
C10 N2 C9 117.2(4)
C10 N3 C12 112.8(4)
C10 N3 B1 119.0(4)
C12 N3 B1 128.2(4)
C9 O1 B1 127.2(4)
C10 S1 C11 89.9(2)
loop_
_geom_bond_atom_site_label_1
_geom_bond_atom_site_label_2
_geom_bond_distance
C1 N1 1.466(6)
C2 N1 1.453(6)
C3 N1 1.351(6)
C3 C8 1.429(6)
C3 C4 1.430(7)
C4 C5 1.361(6)
C5 C6 1.412(6)
C6 C7 1.409(7)
C6 C9 1.434(6)
C7 C8 1.370(6)
C9 O1 1.309(6)
C9 N2 1.334(6)
C10 N2 1.323(6)
C10 N3 1.349(6)
C10 S1 1.740(4)
C11 C16 1.377(6)
C11 C12 1.402(6)
C11 S1 1.741(5)
C12 C13 1.389(7)
C12 N3 1.389(6)
C13 F3 1.338(5)
C13 C14 1.384(6)
C14 F4 1.334(6)
C14 C15 1.391(7)
C15 F5 1.344(5)
C15 C16 1.380(7)
C16 F6 1.339(5)
B1 F1 1.363(6)
B1 F2 1.365(6)
B1 O1 1.488(6)
B1 N3 1.590(6)
