#------------------------------------------------------------------------------
#$Date: 2019-11-11 17:18:36 +0200 (Mon, 11 Nov 2019) $
#$Revision: 226693 $
#$URL: file:///home/coder/svn-repositories/cod/cif/4/03/52/4035218.cif $
#------------------------------------------------------------------------------
#
# This file is available in the Crystallography Open Database (COD),
# http://www.crystallography.net/
#
# All data on this site have been placed in the public domain by the
# contributors.
#
data_4035218
loop_
_publ_author_name
'Xu, Wan'
'Wang, Mengjie'
'Ma, Zhiying'
'Shan, Zhen'
'Li, Chunli'
'Wang, Hua'
_publ_section_title
;
 Selenophene-Based Heteroacenes: Synthesis, Structures, and
 Physicochemical Behaviors.
;
_journal_issue                   19
_journal_name_full               'The Journal of organic chemistry'
_journal_page_first              12154
_journal_page_last               12163
_journal_paper_doi               10.1021/acs.joc.8b02107
_journal_volume                  83
_journal_year                    2018
_chemical_formula_moiety         'C12 H20 Se2 Si2'
_chemical_formula_sum            'C12 H20 Se2 Si2'
_chemical_formula_weight         378.38
_space_group_crystal_system      monoclinic
_space_group_IT_number           14
_space_group_name_Hall           '-P 2yn'
_space_group_name_H-M_alt        'P 1 21/n 1'
_atom_sites_solution_hydrogens   geom
_atom_sites_solution_primary     dual
_audit_creation_date             2018-08-17
_audit_creation_method
;
Olex2 1.2
(compiled 2018.05.29 svn.r3508 for OlexSys, GUI svn.r5506)
;
_cell_angle_alpha                90
_cell_angle_beta                 97.251(3)
_cell_angle_gamma                90
_cell_formula_units_Z            2
_cell_length_a                   6.6546(12)
_cell_length_b                   12.875(2)
_cell_length_c                   10.2719(17)
_cell_measurement_reflns_used    1797
_cell_measurement_temperature    296(2)
_cell_measurement_theta_max      25.907
_cell_measurement_theta_min      3.164
_cell_volume                     873.0(3)
_computing_cell_refinement       'SAINT v8.37A (Bruker, 2015)'
_computing_data_reduction        'SAINT v8.37A (Bruker, 2015)'
_computing_molecular_graphics    'Olex2 (Dolomanov et al., 2009)'
_computing_publication_material  'Olex2 (Dolomanov et al., 2009)'
_computing_structure_refinement  'ShelXL (Sheldrick, 2015)'
_computing_structure_solution    'ShelXT (Sheldrick, 2015)'
_diffrn_ambient_temperature      296.15
_diffrn_measured_fraction_theta_full 0.997
_diffrn_measured_fraction_theta_max 0.997
_diffrn_measurement_device_type  'Bruker P4'
_diffrn_measurement_method       '\w scans'
_diffrn_radiation_monochromator  graphite
_diffrn_radiation_type           MoK\a
_diffrn_radiation_wavelength     0.71073
_diffrn_reflns_av_R_equivalents  0.0271
_diffrn_reflns_av_unetI/netI     0.0304
_diffrn_reflns_Laue_measured_fraction_full 0.997
_diffrn_reflns_Laue_measured_fraction_max 0.997
_diffrn_reflns_limit_h_max       5
_diffrn_reflns_limit_h_min       -7
_diffrn_reflns_limit_k_max       14
_diffrn_reflns_limit_k_min       -15
_diffrn_reflns_limit_l_max       9
_diffrn_reflns_limit_l_min       -12
_diffrn_reflns_number            4394
_diffrn_reflns_point_group_measured_fraction_full 0.997
_diffrn_reflns_point_group_measured_fraction_max 0.997
_diffrn_reflns_theta_full        25.090
_diffrn_reflns_theta_max         25.090
_diffrn_reflns_theta_min         2.549
_exptl_absorpt_coefficient_mu    4.351
_exptl_absorpt_correction_T_max  0.7457
_exptl_absorpt_correction_T_min  0.4254
_exptl_absorpt_correction_type   multi-scan
_exptl_absorpt_process_details
'SADABS-2016/2 (Bruker,2016/2) was used for absorption correction. wR2(int) was 0.0916 before and 0.0412 after correction. The Ratio of minimum to maximum transmission is 0.5705. The \l/2 correction factor is Not present.'
_exptl_crystal_colour            yellow
_exptl_crystal_colour_primary    yellow
_exptl_crystal_density_diffrn    1.439
_exptl_crystal_description       block
_exptl_crystal_F_000             376
_exptl_crystal_size_max          0.39
_exptl_crystal_size_mid          0.25
_exptl_crystal_size_min          0.22
_refine_diff_density_max         0.667
_refine_diff_density_min         -0.706
_refine_diff_density_rms         0.070
_refine_ls_extinction_method     none
_refine_ls_goodness_of_fit_ref   1.054
_refine_ls_hydrogen_treatment    constr
_refine_ls_matrix_type           full
_refine_ls_number_parameters     76
_refine_ls_number_reflns         1547
_refine_ls_number_restraints     24
_refine_ls_restrained_S_all      1.119
_refine_ls_R_factor_all          0.0478
_refine_ls_R_factor_gt           0.0367
_refine_ls_shift/su_max          0.000
_refine_ls_shift/su_mean         0.000
_refine_ls_structure_factor_coef Fsqd
_refine_ls_weighting_details
'w=1/[\s^2^(Fo^2^)+(0.0456P)^2^+0.9364P] where P=(Fo^2^+2Fc^2^)/3'
_refine_ls_weighting_scheme      calc
_refine_ls_wR_factor_gt          0.0921
_refine_ls_wR_factor_ref         0.0982
_reflns_Friedel_coverage         0.000
_reflns_number_gt                1257
_reflns_number_total             1547
_reflns_threshold_expression     'I > 2\s(I)'
_cod_data_source_file            jo8b02107_si_005.cif
_cod_data_source_block           a
_cod_database_code               4035218
_shelx_shelxl_version_number     2018/1
_shelx_space_group_comment
;
The symmetry employed for this shelxl refinement is uniquely defined
by the following loop, which should always be used as a source of
symmetry information in preference to the above space-group names.
They are only intended as comments.
;
_shelx_estimated_absorpt_t_max   0.448
_shelx_estimated_absorpt_t_min   0.282
_olex2_refinement_description
;
1. Fixed Uiso
 At 1.2 times of:
  All C(H) groups
 At 1.5 times of:
  All C(H,H,H) groups
2. Uiso/Uaniso restraints and constraints
Si02 \\sim C006 \\sim C007 \\sim C008: within 1.9A with sigma of 0.01 and sigma
for terminal atoms of 0.02
Uanis(C006) \\sim Ueq: with sigma of 0.005 and sigma for terminal atoms of 0.01
3.a Aromatic/amide H refined with riding coordinates:
 C004(H004)
3.b Idealised Me refined as rotating group:
 C006(H00A,H00B,H00C), C007(H00D,H00E,H00F), C008(H00G,H00H,H00I)
;
_shelx_res_file
;
TITL a_a.res in P2(1)/n
    a.res
    created by SHELXL-2018/1 at 16:09:22 on 17-Aug-2018
REM Old TITL a_a.res in P2(1)/n
REM SHELXT solution in P2(1)/n
REM R1 0.188, Rweak 0.039, Alpha 0.053, Orientation as input
REM Formula found by SHELXT: C6 Si Se
CELL 0.71073 6.6546 12.8746 10.2719 90 97.251 90
ZERR 2 0.0012 0.0022 0.0017 0 0.003 0
LATT 1
SYMM 0.5-X,0.5+Y,0.5-Z
SFAC C H Se Si
UNIT 24 40 4 4
SIMU 0.01 0.02 1.9 Si02 C006 C007 C008
ISOR 0.005 0.01 C006

L.S. 10
PLAN  5
SIZE 0.39 0.25 0.22
TEMP 23
BOND $H
list 4
fmap 2
acta
OMIT -3 50.2
OMIT -1 0 1
OMIT 1 5 2
REM <olex2.extras>
REM <HklSrc "%.\\a.hkl">
REM </olex2.extras>

WGHT    0.045600    0.936400
FVAR       0.82361
SE01  3    0.159141    0.455107    0.334017    11.00000    0.05159    0.07582 =
         0.05639   -0.02816    0.01154   -0.01552
SI02  4    0.177248    0.700292    0.824431    11.00000    0.05643    0.06225 =
         0.05110   -0.02390   -0.00556   -0.00800
C003  1    0.094213    0.515099    0.489174    11.00000    0.03898    0.03601 =
         0.03890   -0.00420   -0.00152    0.00139
C004  1    0.202205    0.583302    0.583164    11.00000    0.04684    0.03982 =
         0.04611   -0.01071   -0.00748   -0.00595
AFIX  43
H004  2    0.331917    0.607569    0.575801    11.00000   -1.20000
AFIX   0
C005  1    0.098113    0.609680    0.684719    11.00000    0.04739    0.04033 =
         0.04609   -0.00720   -0.01001   -0.00152
C006  1    0.452315    0.707460    0.849143    11.00000    0.07342    0.14505 =
         0.10988   -0.06514   -0.00593   -0.01535
AFIX 137
H00A  2    0.494871    0.754627    0.919642    11.00000   -1.50000
H00B  2    0.500065    0.731775    0.770198    11.00000   -1.50000
H00C  2    0.507235    0.639762    0.870636    11.00000   -1.50000
AFIX   0
C007  1    0.070538    0.656924    0.971406    11.00000    0.13926    0.16437 =
         0.07232   -0.04172    0.02370   -0.04941
AFIX 137
H00D  2    0.114064    0.587166    0.992498    11.00000   -1.50000
H00E  2   -0.074666    0.658957    0.955057    11.00000   -1.50000
H00F  2    0.116377    0.701958    1.043571    11.00000   -1.50000
AFIX   0
C008  1    0.065315    0.830509    0.781594    11.00000    0.17554    0.07720 =
         0.14629   -0.05541   -0.05173    0.02529
AFIX 137
H00G  2   -0.078890    0.824082    0.760807    11.00000   -1.50000
H00H  2    0.121516    0.857827    0.707084    11.00000   -1.50000
H00I  2    0.095688    0.876667    0.854835    11.00000   -1.50000
AFIX   0
HKLF 4




REM  a_a.res in P2(1)/n
REM R1 =  0.0367 for    1257 Fo > 4sig(Fo)  and  0.0478 for all    1547 data
REM     76 parameters refined using     24 restraints

END

WGHT      0.0456      0.9364

REM Highest difference peak  0.667,  deepest hole -0.706,  1-sigma level  0.070
Q1    1   0.0704  0.4967  0.3091  11.00000  0.05    0.67
Q2    1   0.1299  0.4109  0.3883  11.00000  0.05    0.48
Q3    1   0.2549  0.6380  0.8477  11.00000  0.05    0.39
Q4    1   0.2493  0.4582  0.2872  11.00000  0.05    0.30
Q5    1   0.3842  0.5976  0.9203  11.00000  0.05    0.28
;
_shelx_res_checksum              46369
_shelx_hkl_file
;
  -1   0   0    3.30    0.80
  -2   0   0  738.53   22.30
  -3   0   0   -2.10    2.50
  -4   0   0 2106.69   64.09
  -4   0   0 2191.18   64.19
  -5   0   0   13.60    5.00
  -5   0   0   -7.20    4.40
  -6   0   0  835.92   29.00
  -6   0   0  835.52   29.20
  -7   0   0    1.90    8.60
  -7   0   0   -4.40    7.90
  -8   0   0   62.49   11.00
  -8   0   0   50.59   12.40
   0  -1   0    7.70    0.70
  -1  -1   0 6414.46  188.78
  -1   1   0 6686.53  188.88
  -2  -1   0  505.95   15.60
  -2   1   0  496.65   15.60
  -3  -1   0 7310.77  202.48
  -3  -1   0 6966.80  202.68
  -3   1   0 6703.53  202.58
  -4  -1   0   20.00    3.60
  -4  -1   0   12.60    3.80
  -4   1   0   12.60    3.40
  -5  -1   0   60.89    5.90
  -5  -1   0   72.89    6.60
  -5   1   0   53.99    5.80
  -5   1   0   70.29    6.70
  -6  -1   0    4.70    6.00
  -6  -1   0    6.20    6.40
  -6   1   0    4.20    5.60
  -6   1   0    6.20    6.80
  -7  -1   0   87.99   10.00
  -7  -1   0   89.69   10.50
  -7   1   0  106.19   11.80
  -7   1   0   91.39   10.30
  -8  -1   0   12.10    9.90
  -8  -1   0   12.70   11.20
  -8   1   0    2.80   11.70
  -8   1   0    8.70    9.90
   0  -2   0 2348.76   68.19
   1  -2   0   48.70    2.60
  -1  -2   0   43.90    2.30
  -2  -2   0 1015.40   30.10
  -2  -2   0 1017.10   29.70
  -2   2   0  980.60   30.10
  -3  -2   0    2.60    0.90
  -3  -2   0    1.10    2.60
  -3   2   0    5.10    2.50
  -4  -2   0  968.80   30.70
  -4  -2   0 1013.80   31.20
  -4   2   0 1010.00   31.40
  -5  -2   0  262.87   11.30
  -5  -2   0  248.48   11.90
  -5   2   0  248.58   12.10
  -6  -2   0  117.69    9.20
  -6  -2   0  139.99   11.10
  -6   2   0  142.69   11.30
  -6   2   0  112.99    9.40
  -7  -2   0   18.00    7.30
  -7  -2   0   27.10    8.50
  -7   2   0   21.00    8.70
  -7   2   0   18.00    9.80
  -8  -2   0   -2.70    9.30
  -8   2   0    7.60    9.60
  -8   2   0  -14.80   11.70
   0  -3   0    0.30    1.30
   1  -3   0 1740.43   49.90
  -1  -3   0 1652.03   49.60
   1   3   0 1679.03   49.60
  -2  -3   0 1570.04   46.70
  -2  -3   0 1619.14   47.30
  -2   3   0 1599.14   47.40
  -3  -3   0  389.26   12.60
  -3  -3   0  391.76   13.40
  -3   3   0  389.76   13.50
  -4  -3   0 1520.05   46.50
  -4  -3   0 1599.74   47.20
  -4   3   0 1530.85   47.20
  -5  -3   0   29.80    5.70
  -5   3   0   23.00    5.60
  -6  -3   0    7.40    5.70
  -6  -3   0    9.50    4.70
  -6   3   0    6.00    5.70
  -6   3   0   13.80    7.30
  -7  -3   0   71.09    9.90
  -7   3   0   67.99   11.30
  -7   3   0   83.19   10.40
  -8  -3   0   95.79   12.10
  -8   3   0  107.79   12.10
  -8   3   0  130.89   14.10
   0  -4   0  734.83   21.20
   0  -4   0  692.83   21.60
   0   4   0  680.93   20.90
  -1  -4   0 4041.70  128.69
   1  -4   0 4586.94  129.19
  -1  -4   0 4523.95  128.89
   1   4   0 4601.54  128.69
  -2  -4   0   65.29    3.30
  -2  -4   0   62.19    4.00
  -2   4   0   68.19    4.40
  -3  -4   0    6.60    2.10
  -3  -4   0   18.70    3.40
  -3   4   0    9.30    3.20
  -4  -4   0  256.77   11.00
  -4  -4   0  247.58    9.60
  -4   4   0  242.88   11.00
  -5  -4   0 1059.99   32.80
  -5  -4   0 1026.70   33.60
  -5   4   0 1035.00   34.00
  -6  -4   0   87.79    8.80
  -6   4   0   94.29    9.10
  -7  -4   0  280.07   17.30
  -7   4   0  280.87   17.30
  -7   4   0  295.57   19.40
  -8  -4   0   -5.50   10.00
  -8   4   0  -16.70   11.40
  -8   4   0   16.30   10.60
   0  -5   0    3.00    1.40
   0  -5   0    0.20    1.90
   0   5   0    2.10    1.40
  -1  -5   0   71.49    4.20
   1  -5   0   75.19    5.00
  -1  -5   0   77.09    3.60
   1   5   0   70.59    3.90
  -2  -5   0 3611.04  102.59
   2  -5   0 3429.06  103.59
  -2  -5   0 3540.95  103.29
  -3  -5   0  548.95   18.20
  -3  -5   0  534.55   17.00
  -3   5   0  535.45   18.40
  -4  -5   0  614.14   19.80
  -4  -5   0  640.04   21.20
  -4   5   0  598.64   21.00
  -5  -5   0   -2.20    4.70
  -5   5   0    3.20    5.20
  -6  -5   0   23.90    7.50
  -6   5   0   26.70    7.70
  -7  -5   0   19.70    8.10
  -7   5   0   11.20    8.50
  -7   5   0   22.60    9.10
  -8  -5   0   70.79   12.20
  -8   5   0   88.89   12.40
  -8   5   0   63.89   12.30
   0  -6   0   25.00    3.50
   0   6   0   34.40    2.50
   1  -6   0  970.50   31.10
  -1  -6   0  991.10   30.70
  -1  -6   0  979.70   29.90
   1   6   0  985.00   30.10
  -1   6   0 1058.09   30.00
   2  -6   0  224.18    9.70
  -2  -6   0  212.98    8.90
  -2  -6   0  220.48    8.20
  -3  -6   0   74.89    6.00
  -3  -6   0   86.49    5.20
  -3   6   0   85.09    6.40
  -4  -6   0    7.20    4.20
  -4   6   0   10.20    4.90
  -5  -6   0  386.36   15.80
  -5   6   0  382.56   16.60
  -6  -6   0   28.70    7.80
  -6   6   0   43.80    8.50
  -7  -6   0   17.60    9.00
  -7   6   0    1.30    9.50
  -7   6   0   12.50    9.30
  -8   6   0   14.50   10.90
  -8   6   0   14.80   12.60
   0  -7   0    5.30    3.30
   0   7   0    0.00    1.90
  -1  -7   0   87.09    4.60
  -1  -7   0   80.39    6.20
   1  -7   0   79.69    6.50
   1   7   0   89.19    4.70
  -1   7   0   86.09    4.60
  -2  -7   0  985.50   30.10
   2  -7   0  966.90   30.70
  -2  -7   0  906.81   28.80
  -3  -7   0  948.11   30.30
  -3   7   0  953.10   31.10
  -4  -7   0  300.17   12.50
  -4   7   0  259.47   13.20
  -5  -7   0  322.27   15.40
  -5   7   0  316.77   15.50
  -6  -7   0   35.20    8.50
  -6   7   0   33.20    8.30
  -7  -7   0   -7.20    8.80
  -7   7   0    1.30    9.10
  -8   7   0   37.20   12.60
   0  -8   0 1352.56   41.70
   0   8   0 1342.47   40.10
  -1  -8   0 1687.43   49.70
  -1  -8   0 1600.54   48.30
   1  -8   0 1646.14   49.90
   1   8   0 1584.84   48.40
  -1   8   0 1614.64   48.20
   2  -8   0  520.95   18.80
  -2  -8   0  518.55   18.40
  -3  -8   0   23.90    4.80
  -3   8   0   12.30    5.70
  -4  -8   0   15.60    5.80
  -4   8   0   15.00    6.20
  -5  -8   0  315.37   16.10
  -5   8   0  311.67   16.10
  -6  -8   0  271.47   16.80
  -6   8   0  304.17   17.20
  -7  -8   0   48.80   10.50
  -7   8   0   41.20   10.70
   0  -9   0   -0.50    3.70
   0   9   0   -3.40    2.50
   1  -9   0   22.40    5.00
  -1  -9   0   13.40    4.30
  -1   9   0   19.40    3.00
   1   9   0   18.60    3.30
  -2  -9   0  559.74   19.80
   2  -9   0  560.64   20.40
   3  -9   0  296.87   13.70
  -3  -9   0  283.17   13.40
  -3   9   0  274.37   13.70
  -4  -9   0  329.47   14.60
  -4   9   0  298.17   14.70
  -5  -9   0   92.39    9.00
  -5   9   0  104.09   10.20
  -6  -9   0   -2.90    8.10
  -6   9   0    2.60    8.80
  -7  -9   0    2.70    9.70
  -7   9   0   18.40   10.50
   0 -10   0   65.59    6.80
   1 -10   0   23.60    5.80
  -1 -10   0   16.60    5.40
   1  10   0   27.10    3.90
  -2 -10   0   29.60    5.70
   2 -10   0   40.80    6.80
  -3 -10   0    7.20    5.90
   3 -10   0   13.50    6.80
  -4 -10   0   30.80    7.10
  -4  10   0   26.70    8.10
  -5 -10   0   12.50    7.20
  -5  10   0   20.00    8.60
  -6 -10   0   50.39   10.40
  -6  10   0   64.99   10.90
  -7  10   0    8.10   10.90
   0 -11   0   -3.20    5.10
   1 -11   0   62.59    7.60
  -1 -11   0   66.29    7.60
  -2 -11   0   59.49    7.90
   2 -11   0   64.79    8.40
  -3 -11   0  174.08   12.80
   3 -11   0  169.58   12.40
  -4 -11   0   26.30    8.10
  -4  11   0   27.60    8.80
  -5 -11   0   20.80    9.00
  -5  11   0   12.70    9.00
  -6 -11   0    4.00    8.70
  -6  11   0    8.70    9.30
   0 -12   0  312.37   14.80
   1 -12   0  116.59   10.10
  -1 -12   0  127.29   10.50
  -2 -12   0   58.79    8.60
   2 -12   0   72.29    9.30
  -3 -12   0   -7.20    7.40
   3 -12   0   -9.00    7.60
  -4 -12   0   91.09   10.20
  -4  12   0   57.19   10.20
  -5 -12   0   14.40    9.00
  -5  12   0   11.20    8.60
  -6  12   0   60.89   12.30
   0 -13   0   -1.60    6.80
  -1 -13   0   69.99    8.50
   1 -13   0   83.49    9.80
   2 -13   0   43.90    8.90
  -2 -13   0   45.20    8.10
  -3 -13   0  128.09   11.70
   3 -13   0  109.49   10.80
  -4 -13   0   -5.00    8.90
  -4  13   0    1.10    9.50
  -5 -13   0    2.80   11.40
  -5  13   0    6.00   10.60
   0 -14   0   32.00    7.60
  -1 -14   0   23.70    8.50
   1 -14   0   18.10    8.10
   2 -14   0   -2.10    8.40
  -2 -14   0    4.00    8.40
   3 -14   0   -9.90    8.60
  -3 -14   0   -4.70    8.80
  -4 -14   0    5.30    9.50
  -4  14   0    6.70    9.90
   0 -15   0   -1.00    8.30
  -1 -15   0    2.60    8.30
   1 -15   0    7.00    8.70
  -2 -15   0   43.50   10.20
   2 -15   0   28.60    9.80
   3 -15   0   -6.80    9.40
  -3 -15   0   11.20   10.00
   0 -16   0    4.70    8.10
   1 -16   0   68.69   10.20
  -1 -16   0   66.89   10.20
   2 -16   0   -9.30   16.40
  -8   0   1    2.10   10.40
  -8   0   1    3.00    9.60
  -7   0   1    2.90    8.00
  -7   0   1    6.30    8.30
  -6   0   1   -1.50    6.30
  -6   0   1   -5.70    5.80
  -5   0   1  817.82   27.30
  -4   0   1    8.40    3.40
  -3   0   1  860.11   26.70
  -2   0   1   14.80    2.10
   1   0  -1  641.04   19.60
  -1   0   1  652.23   19.30
  -1   0  -1 1965.40   58.49
  -1   0  -1 2063.29   58.29
  -2   0  -1    3.50    1.40
  -2   0  -1   14.40    1.80
  -3   0  -1  872.61   27.10
  -3   0  -1  885.61   26.90
  -4   0  -1   -8.30    3.20
  -4   0  -1    3.00    3.40
  -5   0  -1  717.13   24.10
  -5   0  -1  708.23   24.20
  -6   0  -1    3.50    6.20
  -6   0  -1   -3.70    6.00
  -7   0  -1   53.39    8.70
  -7   0  -1   60.99   10.90
  -8   0  -1   -3.40    9.30
  -8   0  -1    3.30   11.70
  -8  -1   1  115.99   12.50
  -8  -1   1  117.39   18.00
  -8   1   1  122.89   13.30
  -8   1   1  117.59   12.60
  -7  -1   1   70.89   10.00
  -7  -1   1   77.69    9.70
  -7   1   1   69.09   10.00
  -7   1   1   77.69   10.70
  -6  -1   1  282.77   13.70
  -6  -1   1  271.77   14.50
  -6   1   1  264.67   14.40
  -5  -1   1   14.20    4.40
  -5  -1   1   13.60    5.30
  -5   1   1   21.10    5.50
  -4  -1   1   23.60    3.90
  -4   1   1   32.90    4.50
  -3  -1   1 1283.77   38.30
  -3   1   1 1252.37   38.40
  -2  -1   1 5528.35  161.28
  -2   1   1 5613.94  161.38
  -1  -1   1 3979.40  117.49
   1  -1  -1 4200.48  117.69
  -1   1   1 4065.59  117.59
   1   1  -1 4021.00  117.69
   0  -1  -1 4287.67  124.59
   0  -1   1 4351.46  124.49
  -1  -1  -1  107.49    3.60
  -1  -1  -1  100.69    3.80
  -1   1  -1  100.09    3.70
  -1   1  -1  105.29    3.60
  -2  -1  -1  945.31   28.20
  -2  -1  -1  929.51   28.10
  -2   1  -1  952.40   28.10
  -3  -1  -1 2412.96   70.49
  -3  -1  -1 2383.66   70.49
  -3   1  -1 2343.17   70.49
  -3   1  -1 2445.46   70.79
  -4  -1  -1 2014.90   60.09
  -4  -1  -1 2029.40   60.19
  -4   1  -1 2069.99   60.59
  -4   1  -1 1926.61   59.99
  -5  -1  -1  239.08   11.40
  -5  -1  -1  215.58   10.90
  -5   1  -1  210.58   11.70
  -5   1  -1  220.38   11.00
  -6  -1  -1    1.00    6.00
  -6  -1  -1    3.00    6.40
  -6   1  -1    7.00    7.00
  -6   1  -1    1.00    5.80
  -7  -1  -1    6.70    9.00
  -7  -1  -1    9.10    7.40
  -7   1  -1   11.20    9.40
  -7   1  -1    3.70    8.20
  -8  -1  -1   49.80   10.50
  -8  -1  -1   71.89   13.70
  -8   1  -1   72.79   11.40
  -8   1  -1   62.69   14.10
  -8  -2   1   -2.60    9.90
  -8   2   1    5.30   11.20
  -8   2   1   15.90   10.50
  -7  -2   1   51.39    9.30
  -7  -2   1   44.40    8.70
  -7   2   1   68.89    9.10
  -7   2   1   75.39   10.60
  -6  -2   1  167.08   10.70
  -6  -2   1  174.28   12.20
  -6   2   1  171.48   11.40
  -5  -2   1 1126.99   35.30
  -5   2   1 1065.99   35.10
  -4  -2   1  894.91   30.40
  -4  -2   1 1036.10   31.40
  -4   2   1 1063.39   31.70
  -3  -2   1 2958.30   86.49
  -3  -2   1 2984.50   85.79
  -3   2   1 2891.61   86.59
  -2  -2   1   45.90    3.30
  -2   2   1   46.90    3.50
   1  -2  -1 1611.34   46.90
   1  -2  -1 1594.44   46.90
  -1  -2   1 1577.04   46.70
  -1   2   1 1634.34   47.00
   1   2  -1 1566.94   46.90
   0  -2  -1 6046.29  182.88
   0  -2  -1 6447.46  182.78
   0   2  -1 6504.05  182.78
  -2  -2  -1 2229.88   64.19
  -2  -2  -1 2131.09   64.09
  -2   2  -1 2222.08   64.19
  -3  -2  -1  774.82   24.00
  -3  -2  -1  766.82   23.90
  -3   2  -1  781.42   24.10
  -4  -2  -1    7.50    3.70
  -4  -2  -1    4.00    3.10
  -4   2  -1    8.30    4.00
  -4   2  -1    4.90    3.60
  -5  -2  -1  616.24   21.30
  -5  -2  -1  605.84   21.10
  -5   2  -1  601.74   22.00
  -5   2  -1  580.04   21.00
  -6  -2  -1  248.98   13.60
  -6  -2  -1  229.08   12.30
  -6   2  -1  235.78   14.70
  -6   2  -1  227.08   13.20
  -7  -2  -1  267.17   16.10
  -7  -2  -1  263.47   17.30
  -7   2  -1  249.18   18.70
  -7   2  -1  251.07   16.20
  -8  -2  -1   68.49   11.50
  -8  -2  -1   73.59   12.60
  -8   2  -1   56.09   11.30
  -8   2  -1   79.59   14.40
  -8  -3   1   35.90   10.70
  -8   3   1   48.30   12.70
  -8   3   1   42.60   11.00
  -7  -3   1   59.49    8.90
  -7   3   1   79.89   10.50
  -6  -3   1  148.09   11.80
  -6  -3   1  135.59   10.10
  -6   3   1  139.79   10.80
  -5  -3   1   85.49    7.00
  -5  -3   1   70.89    6.70
  -5   3   1   91.39    7.60
  -4  -3   1  269.97    9.80
  -4  -3   1  266.97   10.90
  -4   3   1  243.78   11.20
  -3  -3   1  907.21   27.70
  -3  -3   1  877.11   26.60
  -3   3   1  879.11   27.70
  -2  -3   1 3408.46   97.89
  -2  -3   1 3156.18   97.09
   2   3  -1 3380.16   98.19
  -2   3   1 3478.65   98.09
   1  -3  -1 2242.88   64.09
  -1  -3   1 2137.09   63.89
   1   3  -1 2181.28   63.99
   0  -3   1 5267.97  147.79
   0  -3  -1 5272.17  147.99
   0  -3  -1 4677.93  147.79
   0   3  -1 5210.98  147.69
  -1  -3  -1 1182.68   33.50
   1  -3   1 1075.29   33.60
  -2  -3  -1 2387.96   70.79
  -2   3  -1 2447.96   70.89
  -3  -3  -1  950.50   29.10
  -3   3  -1  938.21   29.10
  -4  -3  -1 1980.60   58.89
  -4  -3  -1 1935.51   58.59
  -4   3  -1 1972.20   58.99
  -5  -3  -1  186.68   10.60
  -5  -3  -1  199.18   10.00
  -5   3  -1  176.08   11.30
  -5   3  -1  175.78   10.30
  -6  -3  -1   -5.50    5.80
  -6  -3  -1    5.00    6.30
  -6   3  -1   12.70    6.70
  -6   3  -1   11.80    7.40
  -7  -3  -1   -8.50    8.00
  -7  -3  -1    4.70    8.10
  -7   3  -1    2.10    8.70
  -7   3  -1   14.10    8.40
  -8  -3  -1   22.70   10.40
  -8   3  -1   17.20   10.10
  -8   3  -1   12.80   13.00
  -8  -4   1   17.90    9.50
  -8   4   1   26.70   11.20
  -8   4   1   23.90   12.00
  -7  -4   1   11.70    8.70
  -7   4   1    3.30    7.60
  -6  -4   1   77.19    8.90
  -6   4   1   75.79    8.60
  -5  -4   1   36.10    6.30
  -5  -4   1   32.60    4.40
  -5   4   1   23.30    5.70
  -4  -4   1  773.62   24.60
  -4  -4   1  826.92   26.20
  -4   4   1  795.42   26.30
  -3  -4   1  362.96   11.90
  -3  -4   1  394.06   13.50
  -3   4   1  373.46   13.40
  -2  -4   1    6.00    2.10
   2   4  -1    7.30    2.50
  -2   4   1    7.90    2.60
   1  -4  -1   95.79    4.50
   1  -4  -1   94.99    4.80
  -1  -4   1   96.49    4.50
   1   4  -1   89.29    4.40
   0  -4   1 2695.33   79.39
   0  -4  -1 2700.43   79.49
   0   4  -1 2750.62   79.19
  -1  -4  -1 2330.27   70.59
   1  -4   1 2513.15   70.79
  -1  -4  -1 2377.36   70.49
  -2  -4  -1  620.54   20.00
  -2  -4  -1  629.44   19.80
  -2   4  -1  671.53   20.40
  -3  -4  -1   46.30    4.00
  -3  -4  -1   50.79    4.30
  -3   4  -1   40.30    4.00
  -4  -4  -1  115.19    7.00
  -4  -4  -1   96.99    6.10
  -4   4  -1  116.19    7.50
  -5  -4  -1  195.48   10.40
  -5   4  -1  194.48   10.80
  -5   4  -1  202.88   11.90
  -6  -4  -1  209.88   12.10
  -6   4  -1  198.98   13.10
  -6   4  -1  215.28   14.80
  -7  -4  -1   -7.90    8.20
  -7   4  -1   -3.70   10.00
  -7   4  -1   12.20    8.40
  -8  -4  -1   13.50   10.60
  -8   4  -1   33.20   12.80
  -8  -5   1    6.10   11.00
  -8   5   1   21.00   12.00
  -8   5   1   39.80   11.70
  -7  -5   1  217.68   14.90
  -7   5   1  211.18   16.50
  -6  -5   1    8.20    7.00
  -6   5   1    0.30    6.30
  -5  -5   1   22.80    6.20
  -5   5   1   31.00    5.70
  -4  -5   1  371.46   14.30
  -4  -5   1  342.27   12.60
  -4   5   1  352.86   14.40
  -3  -5   1 1846.62   55.49
  -3  -5   1 1942.01   56.99
  -3   5   1 1903.61   57.19
   2  -5  -1   22.20    3.40
  -2  -5   1   21.00    3.00
   2   5  -1   22.70    3.40
   1  -5  -1 1565.04   45.60
  -1  -5   1 1535.65   45.50
   1  -5  -1 1501.65   45.90
   1   5  -1 1491.75   45.20
   0  -5  -1  256.37    9.70
   0  -5   1  266.27    9.50
   0   5   1  266.97    8.30
   0   5  -1  261.77    9.10
   1  -5   1    5.20    2.50
  -1  -5  -1    7.20    2.20
  -1  -5  -1    0.70    2.20
   2  -5   1  314.17   11.30
  -2  -5  -1  306.97   10.70
  -2  -5  -1  295.67   11.00
  -3  -5  -1 1977.10   57.89
  -3  -5  -1 1985.40   58.49
  -3   5  -1 1895.71   58.49
  -4  -5  -1   87.09    6.30
  -4  -5  -1   82.39    6.70
  -4   5  -1   96.29    7.40
  -5  -5  -1  625.84   22.30
  -5  -5  -1  614.24   21.30
  -5   5  -1  619.64   22.20
  -6  -5  -1  121.29    9.90
  -6   5  -1   99.39   10.40
  -6   5  -1   88.09    8.60
  -7  -5  -1    9.50    8.60
  -7   5  -1   15.70    8.80
  -7   5  -1   11.30   10.30
  -8  -5  -1  -10.10    9.60
  -8   5  -1   -7.80   12.10
  -8   6   1   13.20   10.90
  -8   6   1   -5.30   11.10
  -7  -6   1   36.30    9.80
  -7   6   1   26.20    9.00
  -6  -6   1  374.36   18.20
  -6   6   1  381.46   17.70
  -5  -6   1  116.49    8.90
  -5   6   1  122.99    9.40
  -4  -6   1 1583.84   48.10
  -4   6   1 1532.25   48.40
  -3  -6   1   20.60    3.90
  -3   6   1   18.60    4.20
   2  -6  -1    4.30    3.50
  -2  -6   1    5.00    2.90
   2   6  -1    6.50    3.20
   1  -6  -1    3.80    3.10
  -1  -6   1   -0.50    2.30
   1   6  -1    1.00    2.20
   0  -6  -1 4487.65  131.59
   0  -6   1 4570.64  131.59
   0   6   1 4529.85  130.19
   0   6  -1 4426.76  130.79
   1  -6   1  122.89    6.70
  -1  -6  -1  112.39    5.70
  -1  -6  -1  125.89    6.10
  -1   6  -1  122.69    5.80
  -2  -6  -1 2868.31   84.09
  -2  -6  -1 2854.31   83.99
   2  -6   1 2833.32   84.49
  -3  -6  -1  210.88    8.90
  -3  -6  -1  205.38    9.20
  -3   6  -1  209.28    9.80
  -4  -6  -1   -0.40    3.40
  -4  -6  -1    5.00    4.50
  -4   6  -1    4.40    4.60
  -5  -6  -1   53.19    7.00
  -5   6  -1   40.90    6.10
  -6  -6  -1  521.25   21.10
  -6   6  -1  473.65   21.70
  -6   6  -1  500.55   20.90
  -7  -6  -1   23.80    8.00
  -7   6  -1    5.30    9.40
  -7   6  -1   21.80    8.90
  -8  -6  -1   65.89   13.80
  -8   6  -1   57.69   13.10
  -8   7   1   -4.10   10.70
  -7  -7   1  133.49   12.70
  -7   7   1  153.38   13.50
  -6  -7   1   22.60    8.30
  -6   7   1   16.00    7.40
  -5  -7   1    8.30    6.30
  -5   7   1    4.60    5.80
  -4  -7   1    3.40    5.20
  -4   7   1    3.20    5.40
  -3  -7   1 1084.59   33.80
  -3   7   1 1047.30   34.50
   2  -7  -1   75.49    6.30
  -2  -7   1   88.79    6.10
   2   7  -1   78.29    5.90
   1  -7  -1 2593.34   76.89
  -1  -7   1 2593.04   76.49
   1   7  -1 2520.85   75.79
  -1   7   1 2596.54   74.89
   0  -7  -1   37.50    3.70
   0  -7  -1   31.70    3.90
   0  -7   1   28.60    4.10
   0   7  -1   33.40    3.20
   0   7   1   36.60    2.50
  -1  -7  -1    3.60    3.40
   1  -7   1   22.10    3.70
  -1  -7  -1    1.70    2.50
  -1   7  -1    0.80    2.50
  -2  -7  -1   91.39    6.00
  -2  -7  -1   89.89    6.20
   2  -7   1   93.29    7.20
  -3  -7  -1 1236.58   36.80
  -3  -7  -1 1195.08   37.40
  -3   7  -1 1144.79   37.60
  -4  -7  -1    5.50    5.20
  -4   7  -1    6.50    4.40
  -5  -7  -1  338.67   15.60
  -5   7  -1  327.57   15.50
  -6  -7  -1   30.50    8.00
  -6   7  -1   17.90    8.30
  -6   7  -1   30.30    7.90
  -7  -7  -1    7.80    8.10
  -7   7  -1  -14.00    9.60
  -7   7  -1    4.20    8.70
  -7  -8   1    2.00    9.60
  -7   8   1   -5.30   10.00
  -6  -8   1   21.60    7.80
  -6   8   1   27.00    9.10
  -5  -8   1  165.88   12.70
  -5   8   1  163.58   13.20
  -4  -8   1  269.17   13.20
  -4   8   1  238.28   12.80
  -3  -8   1  117.09    8.00
  -3   8   1  122.39    9.10
  -2  -8   1   20.80    4.20
   2  -8  -1   14.80    4.40
   2   8  -1   13.20    3.80
  -1  -8   1   74.69    6.00
   1  -8  -1   80.59    6.40
  -1   8   1   69.19    4.10
   1   8  -1   74.39    5.30
   0  -8  -1   84.59    6.00
   0  -8  -1   82.39    6.80
   0   8   1   76.99    4.10
   0   8  -1   72.49    5.00
   1  -8   1   69.69    5.90
  -1  -8  -1   65.09    5.70
  -1  -8  -1   74.89    5.60
  -1   8  -1   76.69    5.00
   2  -8   1  269.97   12.20
  -2  -8  -1  281.67   10.80
  -2  -8  -1  270.47   11.40
  -3  -8  -1   31.40    5.50
  -3   8  -1   33.10    6.10
  -4  -8  -1   17.80    5.80
  -4   8  -1    9.20    5.30
  -5  -8  -1   -3.80    6.60
  -5   8  -1    7.10    6.60
  -6  -8  -1   39.00    9.20
  -6   8  -1   33.10    8.20
  -7  -8  -1   24.70    9.90
  -7   8  -1   -2.80    8.80
  -7   8  -1   21.70   10.00
  -7  -9   1   23.00   11.40
  -7   9   1   11.00   10.20
  -6  -9   1   65.19    9.40
  -6   9   1   77.59    9.90
  -5  -9   1   71.19    9.20
  -5   9   1   72.69    9.50
  -4  -9   1  121.39    9.80
  -4   9   1  118.29    9.80
  -3  -9   1   23.50    5.90
   3  -9  -1   26.20    6.70
  -3   9   1   31.40    6.90
   2  -9  -1 1169.78   38.10
  -2  -9   1 1188.98   37.20
   2   9  -1 1165.78   36.50
  -1  -9   1   59.29    5.70
   1  -9  -1   59.79    6.30
   1   9  -1   53.09    4.70
   0  -9   1  120.39    7.70
   0  -9  -1  117.39    7.20
   0  -9  -1  104.39    7.40
   0   9  -1  112.99    6.10
  -1  -9  -1    3.10    3.30
   1  -9   1    0.20    4.40
  -1  -9  -1   -1.10    4.30
  -1   9  -1    4.30    3.20
  -2  -9  -1  272.87   12.10
   2  -9   1  266.17   12.40
  -2   9  -1  272.97   11.20
   3  -9   1    8.30    5.60
  -3  -9  -1    7.80    5.30
  -3   9  -1    1.30    5.80
  -4  -9  -1  282.87   13.80
  -4   9  -1  300.87   14.80
  -5  -9  -1    2.50    7.00
  -5   9  -1    2.80    7.20
  -6  -9  -1   48.60    9.40
  -6   9  -1   52.69    9.20
  -7  -9  -1   12.60    9.60
  -7   9  -1    3.20    9.70
  -6 -10   1    8.20    8.10
  -6  10   1   10.60    8.30
  -5 -10   1  377.06   18.60
  -5  10   1  345.07   17.90
  -4 -10   1  122.99   10.40
  -4  10   1  121.29   11.00
   3 -10  -1  173.78   11.80
  -3 -10   1  177.08   11.80
   2 -10  -1   10.10    5.90
  -2 -10   1    2.00    5.40
   2  10  -1   17.70    4.80
  -1 -10   1  587.14   21.20
   1 -10  -1  588.84   21.20
   1  10  -1  586.54   19.80
   0 -10   1  129.49    9.70
   0 -10  -1  143.49    8.70
   0  10  -1  135.39    7.40
  -1 -10  -1 1136.29   36.30
   1 -10   1 1159.38   36.80
  -1  10  -1 1076.39   34.50
  -2 -10  -1    6.50    5.50
   2 -10   1    3.90    5.10
  -3 -10  -1  163.28   10.40
   3 -10   1  148.89   12.20
  -4 -10  -1   15.60    7.20
  -4  10  -1   24.30    7.70
  -5 -10  -1   47.10    9.20
  -5  10  -1   47.50    9.20
  -6 -10  -1    3.50    8.60
  -6  10  -1   -0.60    8.60
  -7  10  -1   72.29   12.10
  -6 -11   1   24.80   10.20
  -6  11   1   21.00   10.30
  -5 -11   1    6.60    7.70
  -5  11   1   19.40    9.10
  -4 -11   1   52.69    8.90
  -4  11   1   60.09    9.70
  -3 -11   1   96.19    8.70
   3 -11  -1   91.29    9.90
  -2 -11   1  476.35   19.30
   2 -11  -1  443.76   18.80
   2  11  -1  463.35   17.40
  -1 -11   1   40.50    7.00
   1 -11  -1   40.30    6.70
   1  11  -1   37.70    5.10
   0 -11  -1   48.30    6.20
   0 -11   1   45.00    7.00
  -1 -11  -1   25.90    5.70
   1 -11   1   19.70    5.90
  -2 -11  -1  171.68   11.70
   2 -11   1  150.38   12.40
   3 -11   1   19.40    7.80
  -3 -11  -1   23.90    6.80
  -4 -11  -1  216.88   13.30
  -4  11  -1  201.08   15.10
  -5 -11  -1   -0.10    8.30
  -5  11  -1   14.80    7.70
  -6 -11  -1   16.70    8.90
  -6  11  -1   21.10    9.90
  -5 -12   1   16.70    9.70
  -5  12   1   29.40   10.40
  -4 -12   1   13.60    8.30
  -4  12   1    0.90    8.40
   3 -12  -1   19.60    8.20
  -3 -12   1   14.10    7.10
   2 -12  -1    0.40    6.30
  -2 -12   1    0.10    7.00
   1 -12  -1   33.30    7.40
  -1 -12   1   37.80    7.60
   0 -12  -1    7.30    5.50
   0 -12   1    9.70    5.90
  -1 -12  -1  122.69    9.90
   1 -12   1   98.59    9.10
  -2 -12  -1   46.10    7.40
   2 -12   1   31.40    7.90
   3 -12   1    2.60    7.90
  -3 -12  -1    3.50    6.80
  -4 -12  -1    2.00    8.20
  -4  12  -1    0.00    8.50
  -5 -12  -1   24.20    9.40
  -5  12  -1   27.90    9.90
  -6  12  -1    0.80    9.90
  -5 -13   1   20.30   16.30
  -5  13   1    1.10   10.20
  -4 -13   1    0.70    9.00
  -4  13   1   -7.30    9.30
   3 -13  -1   33.80    9.00
  -3 -13   1   40.30    9.20
   2 -13  -1    5.10    7.80
  -2 -13   1   12.50    8.10
  -1 -13   1   91.59    9.90
   1 -13  -1   89.89    9.70
   0 -13   1    0.30    7.20
   0 -13  -1    2.00    6.10
   1 -13   1   41.50    8.40
  -1 -13  -1   41.40    7.70
  -2 -13  -1   33.60    8.50
   2 -13   1   23.20    8.50
   3 -13   1   49.70    9.50
  -3 -13  -1   68.49    9.80
  -4 -13  -1   36.20    9.10
  -4  13  -1   25.70   10.00
  -5 -13  -1   34.60   16.80
  -5  13  -1   39.90   11.10
  -4 -14   1   39.00    9.90
  -4  14   1   13.90    9.40
   3 -14  -1    0.30    8.00
  -3 -14   1    9.00    8.20
  -2 -14   1    1.80    7.30
   2 -14  -1    3.50    8.40
   1 -14  -1   15.70    8.10
  -1 -14   1   17.60    8.20
   0 -14  -1  108.89   10.70
   0 -14   1  112.29   10.70
  -1 -14  -1   55.79    8.60
   1 -14   1   57.79    9.70
  -2 -14  -1  147.69   12.40
   2 -14   1  130.39   12.00
   3 -14   1   -0.30    9.10
  -3 -14  -1    0.10    7.80
  -4 -14  -1   -3.00    9.70
  -4  14  -1   -4.90   10.10
   3 -15  -1    5.80   10.20
  -3 -15   1    6.30    9.00
  -2 -15   1   24.10   10.00
   2 -15  -1   28.40    9.00
  -1 -15   1   71.09   10.10
   1 -15  -1   58.79    9.30
   0 -15  -1    3.30    8.30
   0 -15   1   17.90    8.00
   1 -15   1   17.20    9.00
  -1 -15  -1    1.50    8.70
  -2 -15  -1   28.80    9.80
   2 -15   1   30.50   10.00
   3 -15   1   -6.90    9.40
  -3 -15  -1    9.50   11.40
  -1 -16   1    6.30    9.50
   1 -16  -1    4.00    9.50
   0 -16   1   -1.20    9.30
   0 -16  -1   -4.10    7.80
  -1 -16  -1    9.10   10.60
   1 -16   1   -2.50    8.30
   2 -16   1    6.30   10.10
  -8   0   2  104.59   12.80
  -8   0   2  111.89   12.90
  -7   0   2    9.40    7.80
  -7   0   2   -0.70    7.70
  -6   0   2  112.29    8.90
  -5   0   2   -1.70    4.90
  -4   0   2 4173.28  122.59
  -3   0   2    1.40    2.50
  -2   0   2 2592.44   74.59
   2   0  -2 2500.75   74.69
   1   0  -2   29.20    2.10
   1   0  -2   36.90    2.20
  -1   0   2   28.40    2.00
   0   0   2 3494.35  100.19
   0   0  -2 3462.05  100.79
  -1   0  -2    2.60    0.70
  -1   0  -2    4.90    1.30
  -2   0  -2 7784.42  217.38
  -2   0  -2 7280.07  217.78
  -3   0  -2    1.90    2.30
  -3   0  -2    1.20    2.50
  -4   0  -2  768.92   25.20
  -4   0  -2  767.42   24.60
  -5   0  -2   -3.90    5.20
  -5   0  -2   -2.80    4.40
  -6   0  -2  498.45   21.00
  -6   0  -2  477.65   19.10
  -7   0  -2   21.40   10.20
  -7   0  -2    1.70    7.80
  -8   0  -2  178.38   17.40
  -8  -1   2   -4.60    8.60
  -8   1   2   -2.20   10.10
  -8   1   2    4.80   10.30
  -7  -1   2  359.66   18.00
  -7  -1   2  354.56   19.10
  -7   1   2  355.96   19.00
  -6  -1   2    4.60    6.60
  -6  -1   2   16.40    5.80
  -6   1   2    3.10    5.90
  -5  -1   2  592.04   21.10
  -5   1   2  571.54   20.70
  -4  -1   2  145.49    8.00
  -4   1   2  147.39    8.00
  -3  -1   2  573.04   18.90
  -3   1   2  586.04   19.00
  -2  -1   2  125.49    5.40
   2   1  -2  126.19    5.60
  -2   1   2  123.09    5.30
  -1  -1   2 3762.62  116.49
   1  -1  -2 3994.10  116.89
  -1   1   2 4224.48  116.69
   1   1  -2 4130.09  116.89
   0  -1   2  338.57   10.30
   0  -1  -2  349.47   10.60
   0   1  -2  356.56   10.70
  -1  -1  -2 2701.03   79.09
  -1  -1  -2 2729.23   79.69
  -1   1  -2 2721.23   79.59
  -1   1  -2 2794.52   78.99
  -2  -1  -2  322.77   10.80
  -2  -1  -2  320.17   10.30
  -2   1  -2  316.47   10.20
  -2   1  -2  317.67   10.80
  -3  -1  -2 1536.35   44.70
  -3  -1  -2 1473.55   45.10
  -3   1  -2 1513.95   44.70
  -3   1  -2 1485.35   45.30
  -4  -1  -2    5.20    3.40
  -4  -1  -2   10.00    3.80
  -4   1  -2   11.50    3.90
  -4   1  -2   14.30    3.70
  -5  -1  -2 1226.18   38.40
  -5  -1  -2 1159.68   37.50
  -5   1  -2 1202.28   37.80
  -5   1  -2 1191.08   38.60
  -6  -1  -2    2.10    5.80
  -6  -1  -2   -4.50    7.00
  -6   1  -2   -3.70    5.90
  -6   1  -2    1.00    7.50
  -7  -1  -2    9.10    7.60
  -7  -1  -2   17.10   10.10
  -7   1  -2   24.30    8.50
  -7   1  -2   17.50   10.80
  -8  -1  -2   -7.10   12.40
  -8   1  -2   16.60   13.20
  -8  -2   2   74.19   11.80
  -8   2   2   64.39   12.10
  -8   2   2   57.29   11.80
  -7  -2   2   -4.50    8.30
  -7   2   2   15.30    8.40
  -6  -2   2    6.50    3.80
  -6  -2   2    8.60    6.60
  -6   2   2    1.40    6.00
  -5  -2   2   61.69    6.30
  -5   2   2   58.49    6.20
  -4  -2   2  496.45   17.40
  -4   2   2  493.85   17.40
  -3  -2   2  738.83   23.70
  -3   2   2  761.92   23.90
  -2  -2   2  999.70   30.30
  -2   2   2 1012.50   30.50
   2   2  -2  996.30   30.60
   1  -2  -2  134.39    5.50
  -1  -2   2  132.19    4.90
  -1   2   2  129.09    5.10
   1   2  -2  133.99    5.30
   0  -2  -2   15.00    1.50
   0  -2   2   15.30    1.30
   0  -2  -2   11.60    1.90
   0   2  -2   12.50    1.80
   0   2  -2   16.00    1.40
  -1  -2  -2 3004.40   88.99
  -1  -2  -2 3051.09   89.39
   1  -2   2 3137.89   88.89
  -1   2  -2 3090.99   89.19
  -2  -2  -2 1907.01   56.59
  -2  -2  -2 1899.91   56.19
  -2   2  -2 1928.81   56.59
  -2   2  -2 1937.41   56.09
  -3  -2  -2  273.77   10.50
  -3  -2  -2  293.17   10.30
  -3   2  -2  285.47   10.20
  -3   2  -2  289.47   10.70
  -4  -2  -2   -2.30    3.70
  -4  -2  -2    7.40    3.60
  -4   2  -2    0.40    3.50
  -4   2  -2    1.90    3.70
  -5  -2  -2   10.90    5.20
  -5  -2  -2    8.10    4.60
  -5   2  -2    0.10    5.50
  -5   2  -2    7.80    4.80
  -6  -2  -2  190.48   12.40
  -6  -2  -2  193.08   13.40
  -6   2  -2  201.28   14.60
  -6   2  -2  189.58   12.40
  -7  -2  -2   36.10    8.50
  -7  -2  -2   23.60    9.30
  -7   2  -2   27.40   11.20
  -7   2  -2   25.60    9.00
  -8  -2  -2   17.90   11.30
  -8   2  -2   18.60   13.40
  -8  -3   2   67.89   11.90
  -8   3   2   65.79   12.10
  -8   3   2   76.09   12.30
  -7  -3   2   28.40    8.30
  -7   3   2   43.00    9.70
  -6  -3   2  387.56   17.70
  -6   3   2  373.66   17.00
  -5  -3   2  206.08    9.60
  -5  -3   2  228.28   11.20
  -5   3   2  220.98   11.30
  -4  -3   2    4.20    3.70
  -4  -3   2    5.40    2.50
  -4   3   2   -2.10    3.80
  -3  -3   2   37.00    4.00
  -3   3   2   25.70    3.50
  -2  -3   2 3108.69   91.19
  -2   3   2 3138.49   91.49
   2   3  -2 3112.89   91.59
  -1  -3   2 1663.83   49.20
   1  -3  -2 1700.43   49.80
   1  -3  -2 1722.73   49.70
   1   3  -2 1612.64   49.50
   0  -3   2 8793.42  270.67
   0  -3  -2 9871.31  270.97
   0  -3  -2 8651.83  271.37
   0   3  -2 9999.00  271.17
   0   3  -2 9618.14  270.27
  -1  -3  -2    9.60    2.00
   1  -3   2   11.10    1.70
  -1  -3  -2   11.00    1.70
  -1   3  -2    9.30    1.60
  -2  -3  -2    4.40    2.00
  -2  -3  -2    4.90    2.00
  -2   3  -2    2.30    1.90
  -2   3  -2    4.20    1.90
  -3  -3  -2  290.47   10.60
  -3  -3  -2  278.17   10.30
  -3   3  -2  274.97   10.20
  -3   3  -2  283.67   11.10
  -4  -3  -2 1668.93   50.09
  -4  -3  -2 1671.03   49.90
  -4   3  -2 1630.84   50.59
  -4   3  -2 1623.64   49.80
  -5  -3  -2  215.28   11.30
  -5  -3  -2  222.88   11.50
  -5   3  -2  242.18   12.80
  -5   3  -2  237.88   11.30
  -6  -3  -2  346.77   16.80
  -6  -3  -2  347.87   15.80
  -6   3  -2  330.57   17.90
  -6   3  -2  311.87   15.60
  -7  -3  -2   33.30    8.80
  -7  -3  -2   31.80    9.30
  -7   3  -2   34.20   11.50
  -8   3  -2    2.80   12.60
  -8  -4   2    7.50    9.20
  -8   4   2    1.50   10.50
  -7  -4   2   -1.30    8.70
  -7   4   2   -7.10    7.40
  -6  -4   2   12.40    7.50
  -6   4   2   22.00    6.80
  -5  -4   2 1194.48   38.00
  -5   4   2 1159.18   38.20
  -4  -4   2  288.37   12.30
  -4  -4   2  270.97    9.80
  -4   4   2  287.27   11.90
  -3  -4   2 3605.84  105.29
  -3  -4   2 3556.34  103.79
  -3   4   2 3627.54  105.59
   3   4  -2 3555.34  105.89
  -2  -4   2  314.07   11.10
   2   4  -2  323.47   11.40
  -2   4   2  305.67   11.40
   1  -4  -2   31.50    3.30
  -1  -4   2   19.30    2.20
   1  -4  -2   22.40    2.70
   1   4  -2   27.60    2.90
   0  -4  -2  281.27   10.40
   0  -4  -2  292.57   10.20
   0   4  -2  300.27   10.20
   0   4  -2  291.87    9.10
  -1  -4  -2 5615.74  157.88
  -1  -4  -2 5596.84  158.38
   1  -4   2 4913.21  157.88
  -1   4  -2 5657.63  157.68
  -2  -4  -2 1753.82   54.39
  -2  -4  -2 1822.92   54.29
  -2   4  -2 1896.91   54.39
  -2   4  -2 1874.61   54.49
  -3  -4  -2 4306.67  126.19
  -3  -4  -2 4310.27  126.09
  -3   4  -2 4344.17  126.09
  -3   4  -2 4325.17  126.59
  -4  -4  -2   51.09    5.10
  -4  -4  -2   60.19    5.20
  -4   4  -2   48.50    5.00
  -4   4  -2   61.99    6.10
  -5  -4  -2    2.50    4.90
  -5  -4  -2    5.40    4.50
  -5   4  -2    4.60    5.00
  -5   4  -2   -0.20    4.80
  -6  -4  -2  191.78   12.80
  -6  -4  -2  186.08   12.60
  -6   4  -2  180.98   12.50
  -6   4  -2  185.48   14.60
  -7  -4  -2  180.48   15.00
  -7  -4  -2  176.88   17.50
  -7   4  -2  159.88   13.90
  -8   4  -2   23.20   13.90
  -8  -5   2   19.70   12.40
  -8   5   2   21.60   11.40
  -7  -5   2   32.10    8.70
  -7   5   2   38.80   10.00
  -6  -5   2  409.06   18.30
  -6   5   2  436.16   19.60
  -5  -5   2    0.30    5.00
  -5   5   2   11.20    5.90
  -4  -5   2   39.30    5.10
  -4   5   2   44.30    5.80
  -3  -5   2  150.78    7.80
  -3  -5   2  132.29    5.50
   3   5  -2  141.49    7.90
  -3   5   2  148.09    8.20
  -2  -5   2 3131.19   92.79
   2  -5  -2 3183.78   93.39
  -2   5   2 3158.08   93.39
   2   5  -2 3174.08   93.09
   1  -5  -2  877.41   27.70
   1  -5  -2  908.61   27.90
  -1  -5   2  895.91   27.20
   1   5  -2  850.81   27.20
   0  -5  -2 3729.83  114.99
   0  -5  -2 3943.11  114.79
   0  -5   2 4057.39  114.79
   0   5  -2 3989.10  114.69
  -1  -5  -2  961.90   29.80
  -2  -5  -2   31.30    3.50
  -3  -5  -2  597.84   19.70
  -3   5  -2  591.04   19.60
  -4  -5  -2  764.12   24.70
  -4   5  -2  754.82   25.40
  -4   5  -2  715.73   24.40
  -5  -5  -2  249.28   12.40
  -5   5  -2  228.28   13.50
  -5   5  -2  253.67   12.30
  -6  -5  -2  212.58   13.00
  -6  -5  -2  145.99   10.70
  -6   5  -2  193.78   12.70
  -6   5  -2  194.08   14.90
  -7  -5  -2    7.80    8.30
  -7   5  -2   -0.90    9.00
  -8   5  -2    1.50   13.20
  -7  -6   2   59.89   10.70
  -7   6   2   62.69   11.00
  -6  -6   2   14.40    8.00
  -6   6   2    5.60    7.00
  -5  -6   2  155.78   11.50
  -5   6   2  152.78   10.70
  -4  -6   2   37.20    5.80
  -4   6   2   34.50    5.90
  -3  -6   2 1070.09   32.90
   3   6  -2 1054.09   33.40
  -3   6   2 1009.30   33.30
   2  -6  -2    1.00    3.40
  -2  -6   2    0.90    2.80
   2   6  -2    0.70    3.30
   1  -6  -2   12.80    3.10
  -1  -6   2   14.20    3.20
   1  -6  -2   17.50    3.60
   1   6  -2   14.10    2.80
   0  -6   2    4.70    2.60
   0   6  -2    1.80    2.60
   1  -6   2 1064.09   34.20
  -1  -6  -2 1134.19   34.20
  -1   6  -2 1130.39   34.20
   2  -6   2  137.89    7.40
  -2  -6  -2  139.99    7.30
  -2  -6  -2  134.79    7.20
  -3  -6  -2  131.59    7.80
  -3  -6  -2  134.19    7.70
  -3   6  -2  144.09    7.80
  -4  -6  -2    6.30    4.10
  -4  -6  -2    1.40    4.10
  -4   6  -2    6.20    5.00
  -4   6  -2    4.70    4.50
  -5  -6  -2   10.40    5.20
  -5  -6  -2   14.50    5.40
  -5   6  -2   10.00    6.60
  -5   6  -2   14.60    5.70
  -6  -6  -2   11.20    7.30
  -6   6  -2    8.40    6.60
  -6   6  -2    9.60    7.30
  -7  -6  -2   33.00    9.30
  -7   6  -2   26.20   11.10
  -8   6  -2    4.50   13.40
  -7  -7   2   67.49   10.90
  -7   7   2   65.89   10.40
  -6  -7   2  242.18   15.50
  -6   7   2  216.38   14.60
  -5  -7   2   68.39    8.30
  -5   7   2   81.59    9.00
  -4  -7   2   80.09    6.90
  -4   7   2   74.99    7.20
  -3  -7   2  128.39    8.30
   3   7  -2  104.59    8.40
  -3   7   2  109.39    8.20
  -2  -7   2  904.51   28.70
   2  -7  -2  901.31   29.40
   2   7  -2  901.81   28.70
   1  -7  -2 1087.89   34.60
  -1  -7   2 1139.59   34.40
   1  -7  -2 1147.99   35.00
   1   7  -2 1051.49   33.90
   0  -7  -2  259.87   10.90
   0  -7  -2  256.87   10.60
   0  -7   2  266.97   10.80
   0   7  -2  260.27   10.00
   1  -7   2   92.89    6.60
  -1  -7  -2   95.49    6.30
  -1  -7  -2   99.39    6.10
  -1   7  -2  102.99    6.30
  -2  -7  -2  121.89    7.40
  -2  -7  -2  122.39    7.50
   2  -7   2  124.59    7.60
  -3  -7  -2  142.19    8.30
  -3  -7  -2  139.09    8.00
  -3   7  -2  133.09    8.50
  -4  -7  -2  239.18   12.00
  -4  -7  -2  253.47   11.50
  -4   7  -2  244.18   11.90
  -5  -7  -2  151.68   10.60
  -5   7  -2  145.59   12.30
  -5   7  -2  148.39   11.20
  -6  -7  -2   15.20    6.90
  -6   7  -2   36.60    7.90
  -6   7  -2    3.20    7.90
  -7  -7  -2   59.99   10.30
  -7   7  -2   49.60   11.20
  -7  -8   2   26.00   10.30
  -7   8   2   30.40   10.00
  -6  -8   2   39.50    8.30
  -6   8   2   28.70    9.10
  -5  -8   2  156.68   12.60
  -5   8   2  135.09   10.70
  -4  -8   2  472.35   18.40
  -4   8   2  477.35   19.50
  -3  -8   2 1088.49   33.90
   3   8  -2 1036.40   33.80
  -3   8   2 1008.70   34.30
  -2  -8   2  415.06   15.40
   2  -8  -2  372.86   15.20
   2   8  -2  399.86   14.80
   1  -8  -2  139.39    8.70
  -1  -8   2  131.79    8.20
   1  -8  -2  125.99    7.80
   1   8  -2  126.49    7.00
   0  -8  -2  321.47   12.30
   0  -8   2  316.97   12.50
   0   8  -2  297.87   11.70
  -1  -8  -2 1240.48   37.60
   1  -8   2 1172.08   37.80
  -1  -8  -2 1163.38   37.30
  -1   8  -2 1217.58   37.10
  -2  -8  -2 1078.89   33.90
  -2  -8  -2 1072.59   33.60
   2  -8   2 1043.10   34.20
  -3  -8  -2   97.79    7.40
  -3  -8  -2  117.69    8.20
  -3   8  -2   97.59    7.50
  -4  -8  -2  196.28   10.70
  -4   8  -2  177.18   11.30
  -5  -8  -2   40.50    7.60
  -5   8  -2   27.60    7.30
  -5   8  -2   39.90    7.30
  -6  -8  -2   22.70    7.40
  -6   8  -2    3.50    8.70
  -7  -8  -2   59.59   10.10
  -7   8  -2   55.29   11.30
  -7   9   2   34.70   11.30
  -6  -9   2  104.69   11.20
  -6   9   2   95.49   11.70
  -5  -9   2   64.49    9.40
  -5   9   2   65.39    9.60
  -4  -9   2   23.00    6.10
  -4   9   2   17.70    7.50
  -3  -9   2   38.00    6.50
  -3   9   2   38.30    7.40
   3   9  -2   28.80    5.50
   2  -9  -2  515.15   19.80
  -2  -9   2  530.45   18.80
   2   9  -2  518.35   18.50
   1  -9  -2  424.76   17.00
   1  -9  -2  458.95   17.30
  -1  -9   2  466.95   17.20
   1   9  -2  446.96   16.10
   0  -9  -2  437.16   16.40
   0  -9   2  464.55   16.80
   0   9  -2  436.16   15.50
   1  -9   2  379.06   15.20
  -1  -9  -2  352.46   14.20
  -1  -9  -2  384.46   14.50
  -1   9  -2  368.36   14.10
  -2  -9  -2  180.58    9.70
  -2  -9  -2  174.08    9.00
   2  -9   2  179.18   10.50
  -2   9  -2  158.38    9.40
   3  -9   2   38.90    6.70
  -3  -9  -2   61.29    6.90
  -3   9  -2   62.19    7.40
  -4  -9  -2  205.38   12.70
  -4   9  -2  206.38   12.50
  -5  -9  -2  125.39   10.60
  -5   9  -2  145.19   10.50
  -5   9  -2   98.99    9.40
  -6  -9  -2   14.20    8.60
  -6   9  -2    0.40    9.30
  -7  -9  -2   17.30    9.90
  -7   9  -2    1.40   10.20
  -6 -10   2   10.50    9.20
  -6  10   2   10.80    9.90
  -5 -10   2   11.10    8.00
  -5  10   2   -4.20    7.30
  -4 -10   2  100.19    9.50
  -4  10   2   75.29    9.00
  -3 -10   2   35.40    6.40
   3 -10  -2   27.10    7.50
   3  10  -2   37.00    6.30
  -2 -10   2  127.89    9.50
   2 -10  -2  149.88   10.20
   2  10  -2  128.09    8.90
   1 -10  -2    1.00    5.00
  -1 -10   2    2.30    5.10
   1  10  -2   -2.30    4.00
   0 -10   2   33.40    5.60
   0 -10  -2   45.40    6.00
   0 -10  -2   34.50    5.50
   0  10  -2   36.30    4.80
   1 -10   2   52.59    6.70
  -1 -10  -2   45.60    5.50
  -1 -10  -2   45.40    6.30
  -1  10  -2   52.49    5.60
  -2 -10  -2  279.87   12.40
   2 -10   2  254.27   13.30
  -2  10  -2  227.88   11.80
   3 -10   2   11.80    6.60
  -3 -10  -2    3.20    6.20
  -4 -10  -2   14.40    6.20
  -4  10  -2    1.80    6.80
  -5 -10  -2   62.09    9.50
  -5  10  -2   61.79    9.20
  -5  10  -2   54.69    9.10
  -6 -10  -2    7.30    8.80
  -6  10  -2    3.30    8.20
  -6 -11   2   -6.30    8.40
  -6  11   2    3.20   10.40
  -5 -11   2   42.80    9.60
  -5  11   2   27.10    8.60
  -4 -11   2   39.50    8.70
  -4  11   2   36.10    9.20
  -3 -11   2   61.29    8.30
   3 -11  -2   41.00    7.90
   3  11  -2   45.60    7.30
  -2 -11   2   34.60    6.80
   2 -11  -2   49.20    8.00
   2  11  -2   50.49    6.40
  -1 -11   2  516.45   20.40
   1 -11  -2  513.25   20.10
   1  11  -2  493.75   18.20
   0 -11   2   55.79    7.00
   0 -11  -2   51.59    6.30
   0 -11  -2   52.39    6.50
   0  11  -2   67.29    5.90
   1 -11   2   69.69    8.20
  -1 -11  -2   70.89    7.50
  -1  11  -2   76.89    6.40
   2 -11   2   65.69    8.30
  -2 -11  -2   74.09    8.30
  -3 -11  -2   92.69    8.80
   3 -11   2   94.99    9.80
  -4 -11  -2    2.30    6.80
  -4  11  -2   -3.80    7.50
  -5 -11  -2  103.39   10.80
  -5  11  -2  103.09   10.90
  -5  11  -2   65.59    9.80
  -6 -11  -2   42.00   10.50
  -6  11  -2   30.70   10.10
  -5 -12   2   32.20    9.20
  -5  12   2   36.80   10.50
  -4 -12   2  259.07   15.10
  -4  12   2  234.68   17.40
  -3 -12   2   20.60    7.40
   3 -12  -2   18.70    8.10
   3  12  -2   21.00    6.80
   2 -12  -2   63.79    9.20
  -2 -12   2   73.49    9.30
   2  12  -2   66.59    7.20
  -1 -12   2   -1.10    6.50
   1 -12  -2   -2.80    5.80
   1  12  -2    7.70    6.00
   0 -12   2  178.68   13.10
   0 -12  -2  214.88   12.80
   1 -12   2    0.10    6.80
  -1 -12  -2   10.30    6.60
   2 -12   2  380.16   18.60
  -2 -12  -2  416.66   18.30
   3 -12   2   95.69   10.60
  -3 -12  -2   84.19    9.30
  -4 -12  -2   49.70    9.60
  -4  12  -2   30.80    9.10
  -5 -12  -2   31.80   10.10
  -5  12  -2   21.50    8.90
  -6  12  -2    9.30   10.50
  -5  13   2   10.90    9.50
  -4 -13   2    1.50    8.80
  -4  13   2   -9.80    9.30
  -3 -13   2   82.79   10.70
   3 -13  -2   77.89   10.80
   2 -13  -2   -4.80    6.80
  -2 -13   2    2.80    7.80
   1 -13  -2  337.17   16.90
  -1 -13   2  301.77   16.10
   0 -13   2   14.50    7.60
   0 -13  -2    5.90    7.10
  -1 -13  -2    9.20    7.40
   1 -13   2   14.40    7.70
   2 -13   2   16.80    7.90
  -2 -13  -2   25.80    8.30
   3 -13   2   54.19    9.40
  -3 -13  -2   34.80    9.30
  -4 -13  -2   -0.30    9.00
  -4  13  -2   -4.20    8.50
  -5  13  -2   20.00    9.40
  -4 -14   2   19.80    9.40
  -4  14   2   19.60   10.10
  -3 -14   2   -6.80    7.80
   3 -14  -2   -4.70    9.00
  -2 -14   2    8.80    8.50
   2 -14  -2   10.70    8.50
   1 -14  -2   13.00    7.90
  -1 -14   2   20.50    8.20
   0 -14  -2   39.90    8.60
   0 -14   2   18.60    8.20
   1 -14   2    5.60    8.20
  -1 -14  -2    4.90    7.70
   2 -14   2   13.10    8.40
  -2 -14  -2    1.30    8.30
  -3 -14  -2   22.10    8.40
   3 -14   2   23.80    9.50
  -4 -14  -2   15.10   11.70
  -4  14  -2   -3.50    9.90
  -3 -15   2   -0.50    8.80
   3 -15  -2    5.60    9.80
   2 -15  -2    5.10    8.40
  -2 -15   2    4.40    8.50
   1 -15  -2   -5.90    8.40
  -1 -15   2    5.70    8.90
   0 -15   2   25.70    8.30
   0 -15  -2   36.00    9.20
   1 -15   2   11.20    8.80
  -1 -15  -2    8.70    8.40
   2 -15   2   -2.20    9.70
  -2 -15  -2   10.80    8.10
   3 -15   2   -2.80   10.00
  -1 -16   2   -4.40    9.20
   0 -16   2   -0.50    8.90
   0 -16  -2    9.90   10.60
   1 -16   2   30.40   10.50
   2 -16   2   13.50   10.70
  -8   0   3    0.10   10.00
  -7   0   3  161.38   13.20
  -6   0   3   -5.60    6.00
  -5   0   3   -2.90    4.60
  -4   0   3   -2.20    3.70
  -3   0   3 1148.69   35.30
   2   0  -3    8.40    2.40
   2   0  -3    4.90    1.90
  -2   0   3    0.40    1.90
  -1   0   3 1841.62   58.79
   1   0  -3 2102.89   59.19
   1   0  -3 2108.19   59.39
   0   0  -3   17.70    2.00
  -1   0  -3 2456.35   71.09
  -1   0  -3 2477.25   72.19
  -2   0  -3   16.00    1.70
  -2   0  -3    1.90    2.40
  -3   0  -3 1562.24   46.00
  -3   0  -3 1538.15   46.90
  -4   0  -3    0.70    3.20
  -4   0  -3    5.10    4.00
  -5   0  -3   14.50    6.30
  -5   0  -3   12.50    4.80
  -6   0  -3    7.50    7.00
  -6   0  -3    1.30    7.20
  -7   0  -3  101.29   13.00
  -8   0  -3  -11.40   12.60
  -8  -1   3   10.40    9.20
  -8   1   3   -5.40    9.40
  -8   1   3   23.40   11.00
  -7  -1   3   90.79   10.30
  -7  -1   3   99.69   12.30
  -7   1   3  111.69   11.60
  -6  -1   3  413.96   18.00
  -6   1   3  412.26   17.90
  -5  -1   3  236.48   12.60
  -5   1   3  250.87   12.10
  -4  -1   3  773.52   25.70
  -4   1   3  796.92   26.00
  -3  -1   3   14.50    3.10
  -3   1   3    9.90    3.40
   3   1  -3    9.90    3.40
  -2  -1   3  573.44   17.80
   2  -1  -3  537.75   17.80
  -2   1   3  560.34   17.90
   2   1  -3  567.64   17.40
   2   1  -3  560.04   18.20
   1  -1  -3 2392.06   69.19
   1  -1  -3 2326.77   69.79
  -1  -1   3 2382.06   69.09
   1   1  -3 2338.57   69.39
   1   1  -3 2420.36   69.59
   0  -1  -3 6433.16  176.68
   0  -1  -3 5931.91  177.58
   0  -1   3 5998.30  176.28
   0   1  -3 6136.59  177.08
  -1  -1  -3 1134.09   33.90
  -1  -1  -3 1135.79   34.70
  -1   1  -3 1174.08   33.60
  -1   1  -3 1196.98   34.70
  -2  -1  -3  463.25   15.30
  -2  -1  -3  459.15   14.30
  -2   1  -3  462.45   15.30
  -2   1  -3  468.45   14.20
  -3  -1  -3   23.80    3.80
  -3  -1  -3   21.30    2.80
  -3   1  -3   19.90    3.70
  -3   1  -3   20.00    2.80
  -4  -1  -3  887.81   28.40
  -4  -1  -3  863.71   27.30
  -4   1  -3  830.82   28.20
  -4   1  -3  882.71   27.30
  -5  -1  -3  150.68   10.90
  -5  -1  -3  130.99    9.20
  -5   1  -3  143.79    9.60
  -5   1  -3  153.88   11.30
  -6  -1  -3  379.96   16.50
  -6  -1  -3  412.66   19.40
  -6   1  -3  381.06   19.60
  -7  -1  -3   83.39   11.60
  -7   1  -3  107.69   13.80
  -8  -1  -3   23.70   12.70
  -8   1  -3    8.80   14.20
  -8  -2   3   66.39   11.90
  -8   2   3   82.49   12.50
  -7  -2   3  164.38   13.00
  -7   2   3  151.58   12.90
  -6  -2   3   16.60    7.30
  -6   2   3    0.30    6.70
  -5  -2   3  368.56   15.20
  -5   2   3  361.36   15.80
  -4  -2   3 1338.87   41.80
  -4   2   3 1354.56   42.00
  -3  -2   3 3972.70  115.89
   3   2  -3 3971.90  116.49
  -3   2   3 3918.61  115.99
   2  -2  -3 1119.19   34.60
  -2  -2   3 1130.49   34.10
   2   2  -3 1104.69   34.50
   2   2  -3 1160.88   33.50
  -2   2   3 1141.39   34.40
   1  -2  -3  444.06   13.20
   1  -2  -3  430.86   14.30
   1   2  -3  427.36   14.00
  -1   2   3  420.66   13.70
   1   2  -3  422.86   13.50
   0  -2  -3  855.71   26.20
   0  -2   3  874.71   25.80
   0   2  -3  865.91   26.10
   0   2  -3  908.91   26.90
  -1  -2  -3 1716.73   51.89
  -1  -2  -3 1728.03   51.19
  -1   2  -3 1803.22   50.89
  -1   2  -3 1759.32   51.59
  -2  -2  -3  672.03   21.10
  -2  -2  -3  666.03   20.30
  -2   2  -3  648.64   21.00
  -2   2  -3  679.03   20.10
  -3  -2  -3 4231.78  125.09
  -3  -2  -3 4328.77  124.39
  -3   2  -3 4228.38  125.19
  -3   2  -3 4304.17  124.29
  -4  -2  -3  940.21   30.50
  -4  -2  -3  928.01   29.50
  -4   2  -3  957.10   30.90
  -4   2  -3  957.60   29.60
  -5  -2  -3  197.68   11.70
  -5  -2  -3  199.38   10.30
  -5   2  -3  197.48   12.50
  -5   2  -3  196.98   10.80
  -6  -2  -3   -3.00    6.00
  -6  -2  -3    0.90    7.30
  -6   2  -3    2.70    7.20
  -7  -2  -3  133.69   13.00
  -7   2  -3  134.29   14.50
  -8  -2  -3   20.50   12.40
  -8   2  -3   21.70   14.60
  -8  -3   3   -9.50   10.10
  -8   3   3    7.30    9.60
  -7  -3   3   63.99    9.40
  -7   3   3   46.90    9.30
  -6  -3   3  489.25   21.10
  -6   3   3  512.35   21.30
  -5  -3   3  762.92   26.50
  -5   3   3  752.12   26.60
  -4  -3   3  199.08    9.70
  -4   3   3  199.48    9.80
  -3  -3   3   88.09    6.30
   3   3  -3   87.69    7.10
  -3   3   3   83.89    6.40
   2  -3  -3 1431.76   43.20
  -2  -3   3 1416.26   42.50
   2   3  -3 1382.56   42.90
  -2   3   3 1442.36   42.80
   1  -3  -3  600.54   19.50
   1  -3  -3  597.34   18.90
   1   3  -3  598.44   19.10
   0  -3   3 2622.84   74.19
   0  -3  -3 2548.05   74.49
   0  -3  -3 2491.35   75.29
   0   3  -3 2514.35   73.99
   0   3  -3 2554.14   74.99
  -1  -3  -3  744.93   23.00
  -1  -3  -3  748.73   23.70
   1  -3   3  775.52   22.70
  -1   3  -3  757.52   23.10
  -2  -3  -3 1013.70   30.50
  -2  -3  -3 1004.90   31.10
  -2   3  -3  988.80   31.00
  -2   3  -3 1052.19   30.30
  -3  -3  -3  129.59    6.30
  -3  -3  -3  130.29    7.20
  -3   3  -3  131.89    7.60
  -3   3  -3  127.69    6.20
  -4  -3  -3  347.57   13.70
  -4  -3  -3  328.47   12.80
  -4   3  -3  334.87   12.70
  -4   3  -3  325.07   14.10
  -5  -3  -3   94.99    7.90
  -5  -3  -3  114.49    8.70
  -5   3  -3  118.39    9.30
  -5   3  -3  107.39    9.10
  -6  -3  -3  405.06   17.60
  -6  -3  -3  433.86   19.20
  -6   3  -3  393.16   20.40
  -7  -3  -3   28.00    9.60
  -7   3  -3   20.00   10.40
  -8  -3  -3   -1.00   11.20
  -8   3  -3   16.70   14.50
  -8  -4   3   68.29   11.20
  -8   4   3   77.69   11.70
  -7  -4   3   49.90   10.40
  -7   4   3   45.60    9.10
  -6  -4   3   73.49    9.40
  -6   4   3   62.89    9.20
  -5  -4   3   26.70    6.00
  -5   4   3   33.40    6.80
  -4  -4   3  173.28    9.40
  -4   4   3  171.78   10.00
  -3  -4   3  263.17   10.90
  -3   4   3  270.77   11.10
   3   4  -3  263.97   11.30
   2  -4  -3 3015.50   87.49
  -2  -4   3 2880.11   86.49
   2   4  -3 2929.31   86.99
  -2   4   3 2965.10   86.99
   1  -4  -3    5.10    2.50
   1  -4  -3    6.20    3.00
  -1  -4   3    4.30    1.90
   1   4  -3    3.00    2.30
   0  -4  -3    9.00    2.20
   0  -4  -3    5.80    2.80
   0  -4   3    6.80    2.00
   0   4  -3    6.70    2.60
   1  -4   3   20.60    2.40
  -1  -4  -3   19.70    3.30
  -1  -4  -3   21.50    2.60
  -1   4  -3   14.30    2.30
  -2  -4  -3  412.36   14.10
  -2  -4  -3  421.26   14.70
  -2   4  -3  455.35   14.60
  -2   4  -3  422.56   13.90
  -3  -4  -3   41.80    4.20
  -3  -4  -3   48.20    4.70
  -3   4  -3   45.70    4.00
  -3   4  -3   37.80    4.60
  -4  -4  -3   87.39    6.60
  -4  -4  -3   89.09    7.30
  -4   4  -3   82.89    6.60
  -4   4  -3   77.79    7.00
  -5  -4  -3    0.60    4.90
  -5  -4  -3    6.20    5.40
  -5   4  -3    8.00    5.10
  -5   4  -3   11.00    6.40
  -6  -4  -3    2.20    7.00
  -6  -4  -3    8.40    6.40
  -6   4  -3   -7.60    8.20
  -7  -4  -3   16.70    9.00
  -7   4  -3   10.50   11.60
  -8   4  -3   20.50   14.40
  -8   5   3    6.80   12.60
  -7  -5   3   69.99    9.90
  -7   5   3   81.29   11.20
  -6  -5   3    2.80    6.70
  -6   5   3   13.00    7.10
  -5  -5   3  776.22   26.90
  -5   5   3  738.83   26.90
  -4  -5   3    4.70    4.70
  -4   5   3    1.10    4.70
  -3  -5   3  227.48   10.10
   3   5  -3  211.48   10.10
  -3   5   3  215.88   10.30
  -2  -5   3   20.70    3.40
   2  -5  -3   13.80    3.60
  -2   5   3   16.70    4.00
   2   5  -3   17.30    3.90
   1  -5  -3 2431.46   71.59
   1  -5  -3 2406.76   72.09
  -1  -5   3 2410.16   71.09
   1   5  -3 2396.36   71.39
   0  -5  -3  806.72   26.50
   0  -5  -3  833.62   25.90
   0   5  -3  844.72   24.80
   0   5  -3  837.52   26.20
   1  -5   3 3120.59   90.89
  -1  -5  -3 3133.49   90.89
  -1  -5  -3 3105.99   91.69
  -1   5  -3 3033.80   90.39
   2  -5   3   61.89    4.70
  -2  -5  -3   59.69    4.90
  -2  -5  -3   60.39    4.90
  -2   5  -3   64.69    5.00
  -2   5  -3   59.49    4.90
  -3  -5  -3  117.99    7.40
  -3  -5  -3  117.99    6.90
  -3   5  -3  102.69    6.20
  -3   5  -3  109.39    7.50
  -4  -5  -3   33.00    5.00
  -4  -5  -3   32.70    5.10
  -4   5  -3   26.50    4.60
  -4   5  -3   22.20    5.30
  -5  -5  -3  417.86   16.70
  -5  -5  -3  411.66   16.80
  -5   5  -3  414.26   16.60
  -5   5  -3  400.36   18.20
  -6  -5  -3   15.20    6.70
  -6  -5  -3   19.00    7.60
  -6   5  -3   26.10    8.90
  -7   5  -3   52.69   12.30
  -7  -6   3   -9.00    9.20
  -7   6   3    6.00    9.40
  -6  -6   3   23.40    7.60
  -6   6   3   28.00    8.60
  -5  -6   3    1.90    5.80
  -5   6   3   16.70    6.80
  -4  -6   3 1075.09   34.70
  -4   6   3 1068.69   35.00
   4   6  -3 1087.39   35.50
  -3  -6   3   78.99    6.00
  -3   6   3   53.39    5.90
   3   6  -3   56.19    6.20
  -2  -6   3 3415.56   98.79
   2  -6  -3 3321.17   99.79
   2  -6  -3 3349.96   99.39
   2   6  -3 3331.47   98.99
  -1  -6   3  125.09    6.50
   1  -6  -3  112.29    7.70
   1  -6  -3  120.09    7.10
   1   6  -3  124.29    6.80
   0  -6  -3    9.40    3.10
   0  -6   3    6.70    2.40
   0  -6  -3   18.00    3.70
   0   6  -3   14.60    3.70
   0   6  -3   15.50    2.00
  -1  -6  -3  126.79    6.70
   1  -6   3  116.79    6.50
  -1  -6  -3  121.79    7.20
  -1   6  -3  128.29    5.70
  -1   6  -3  115.79    7.40
   2  -6   3 3780.62  113.09
  -2  -6  -3 3892.51  113.19
  -2  -6  -3 3879.81  113.79
  -2   6  -3 3895.71  113.19
  -3  -6  -3  228.28    9.80
  -3  -6  -3  223.08   10.60
  -3   6  -3  229.78   10.70
  -3   6  -3  229.48   10.00
  -4  -6  -3  846.42   26.90
  -4  -6  -3  799.22   26.90
  -4   6  -3  802.82   26.70
  -4   6  -3  803.52   27.70
  -5  -6  -3   48.00    6.80
  -5  -6  -3   37.20    6.70
  -5   6  -3   35.70    7.50
  -6  -6  -3   23.70    7.60
  -6   6  -3   29.20    9.50
  -7   6  -3    0.10    9.30
  -7  -7   3   48.30   10.70
  -7   7   3   38.80   11.00
  -6  -7   3    6.90    7.40
  -6   7   3   -2.00    7.30
  -5  -7   3  365.46   16.60
  -5   7   3  382.66   17.10
  -4  -7   3   21.40    5.50
   4   7  -3   13.50    6.10
  -4   7   3   22.50    6.50
  -3  -7   3   74.49    6.40
   3   7  -3   73.39    6.90
  -3   7   3   78.09    7.20
   2  -7  -3   16.50    4.60
   2  -7  -3   15.50    5.10
  -2  -7   3   39.20    4.80
   2   7  -3   13.90    4.10
   1  -7  -3 2598.84   78.19
   1  -7  -3 2586.14   77.49
  -1  -7   3 2626.44   77.19
   1   7  -3 2573.84   77.09
   0  -7  -3   25.10    4.30
   0  -7   3   21.60    3.90
   0  -7  -3   15.40    3.60
   0   7  -3   12.00    3.50
   0   7  -3   21.20    2.30
  -1  -7  -3 1864.91   55.69
  -1  -7  -3 1833.62   55.09
  -1   7  -3 1787.82   55.39
  -1   7  -3 1823.72   54.29
   2  -7   3   91.49    6.00
  -2  -7  -3   78.39    5.80
  -3  -7  -3  150.48    8.90
  -3   7  -3  144.39    8.40
  -3   7  -3  141.59    9.10
  -4  -7  -3    0.70    3.80
  -4  -7  -3   -1.00    5.00
  -4   7  -3    3.10    5.30
  -4   7  -3   -5.60    4.70
  -5  -7  -3  387.56   16.90
  -5   7  -3  387.36   18.20
  -6  -7  -3   16.30    7.70
  -6   7  -3   16.40    9.10
  -7   7  -3   11.70    9.70
  -7  -8   3   13.40   10.30
  -7   8   3   20.50   11.20
  -6  -8   3   24.70    8.20
  -6   8   3   23.70    8.50
  -5  -8   3    9.10    7.20
  -5   8   3    2.00    6.60
  -4  -8   3   35.70    6.70
   4   8  -3   33.90    7.60
  -4   8   3   36.10    6.70
  -3  -8   3  112.69    8.30
   3   8  -3  115.19    9.20
  -3   8   3  108.69    8.80
   2  -8  -3  361.26   14.80
   2  -8  -3  368.06   15.50
  -2  -8   3  382.66   14.80
   2   8  -3  379.46   14.70
  -1  -8   3   67.79    6.00
   1  -8  -3   72.89    7.10
   1  -8  -3   57.29    5.60
   1   8  -3   71.39    5.90
   0  -8  -3    3.60    3.80
   0  -8   3    4.90    3.80
   0  -8  -3    6.30    4.30
   0   8  -3    6.70    3.90
  -1  -8  -3    6.50    3.70
  -1  -8  -3    5.70    3.80
   1  -8   3    7.00    4.00
  -1   8  -3    8.00    3.00
  -1   8  -3   16.60    4.60
  -2  -8  -3  704.63   24.20
  -2   8  -3  736.73   23.90
  -3  -8  -3  110.69    7.90
  -3  -8  -3   95.19    7.20
  -3   8  -3   78.59    7.00
  -3   8  -3   78.49    7.10
  -4  -8  -3   16.20    5.90
  -4   8  -3    7.10    5.20
  -4   8  -3    2.20    6.00
  -5  -8  -3   48.00    8.00
  -5   8  -3   31.10    8.00
  -6  -8  -3   46.50    9.00
  -6   8  -3   37.40    9.60
  -7   8  -3   -8.50   10.60
  -6  -9   3  116.39   11.20
  -6   9   3  111.49   12.30
  -5  -9   3   23.50    8.00
  -5   9   3    9.20    8.50
  -4  -9   3  101.49    8.80
   4   9  -3  126.69   10.30
  -4   9   3   78.29    8.70
  -3  -9   3    5.60    5.70
   3   9  -3    6.40    5.80
  -3   9   3    0.60    5.70
  -2  -9   3  173.38   10.20
   2  -9  -3  156.58    9.80
   2   9  -3  163.88    9.60
   1  -9  -3   64.39    7.10
   1  -9  -3   60.29    6.00
  -1  -9   3   67.79    6.40
   1   9  -3   65.69    6.20
   0  -9  -3  878.71   30.10
   0  -9  -3  898.41   29.40
   0  -9   3  931.71   30.10
   0   9  -3  912.01   29.20
   1  -9   3    0.30    4.40
  -1  -9  -3    4.00    4.30
  -1  -9  -3   -0.10    1.30
  -1   9  -3    1.00    4.70
  -1   9  -3    6.80    3.30
  -2  -9  -3   95.19    7.70
   2  -9   3   84.39    7.30
  -2  -9  -3   97.39    7.70
  -2   9  -3   90.29    7.70
  -2   9  -3   89.69    8.10
  -3  -9  -3  189.18   11.40
  -3   9  -3  181.78   10.90
  -3   9  -3  172.88   11.20
  -4  -9  -3   38.60    7.10
  -4   9  -3   28.70    6.90
  -4   9  -3   42.90    7.10
  -5  -9  -3   50.59    8.40
  -5   9  -3   34.10    8.60
  -6  -9  -3  126.19   11.30
  -6   9  -3   96.99   11.80
  -7   9  -3    3.30   11.20
  -6 -10   3    4.70    9.20
  -6  10   3    1.30    9.30
  -5 -10   3   75.69   10.00
  -5  10   3   50.99    9.40
  -4 -10   3   11.30    7.40
  -4  10   3    9.60    7.80
   4  10  -3   11.90    7.40
  -3 -10   3  707.33   24.70
   3 -10  -3  660.63   25.10
  -3  10   3  688.93   25.60
   3  10  -3  652.83   23.80
  -2 -10   3   28.80    5.90
   2 -10  -3   29.30    6.70
   2  10  -3   29.70    6.20
   1 -10  -3  317.37   13.70
  -1 -10   3  321.07   14.50
   1 -10  -3  311.97   15.50
   1  10  -3  305.07   13.10
   0 -10  -3  210.68   11.10
   0 -10  -3  193.98   11.40
   0 -10   3  196.68   11.50
   0  10  -3  201.18   10.20
  -1 -10  -3  181.18   10.30
  -1 -10  -3  212.98   11.20
   1 -10   3  180.38   11.20
  -1  10  -3  199.38   10.60
   2 -10   3  174.58   11.10
  -2 -10  -3  146.39   10.60
  -2 -10  -3  152.28   11.10
  -2  10  -3  142.89   10.20
  -2  10  -3  143.59    9.00
   3 -10   3  685.83   24.90
  -3 -10  -3  698.03   24.60
  -3  10  -3  641.84   24.50
  -3  10  -3  645.34   23.90
  -4 -10  -3   -4.30    6.90
  -4  10  -3    2.10    6.70
  -4  10  -3    0.90    7.30
  -5 -10  -3   74.09    9.30
  -5  10  -3   58.49    9.10
  -6 -10  -3   35.20    9.70
  -6  10  -3   16.90    9.60
  -6 -11   3   66.99   12.40
  -6  11   3   60.29   11.90
  -5 -11   3   -8.90    8.50
  -5  11   3   -0.30    7.80
  -4 -11   3  108.69   10.60
  -4  11   3  114.19   10.60
   3 -11  -3    8.70    7.50
  -3 -11   3    8.30    6.30
  -3  11   3    3.40    8.00
   3  11  -3   20.20    6.60
  -2 -11   3   75.69    8.80
   2 -11  -3   70.49    8.60
   2  11  -3   71.49    7.70
   1 -11  -3  146.19   11.20
   1 -11  -3  143.79   12.10
  -1 -11   3  148.29   11.90
   1  11  -3  143.59    9.70
   0 -11   3  483.55   19.60
   0 -11  -3  466.35   18.20
   0  11  -3  474.15   17.70
   1 -11   3    3.00    6.00
  -1 -11  -3   -2.20    4.90
  -1 -11  -3    5.00    5.30
  -1  11  -3   13.50    5.60
   2 -11   3  163.38   12.80
  -2 -11  -3  164.78   11.60
  -2  11  -3  140.99   10.50
   3 -11   3   92.89    9.00
  -3 -11  -3   92.49    9.30
  -3  11  -3   73.69    9.10
  -3  11  -3   83.19    8.30
  -4 -11  -3   21.60    8.00
  -4  11  -3   25.90    7.80
  -5 -11  -3   26.00    9.20
  -5  11  -3   17.50    8.40
  -6 -11  -3   32.30   10.50
  -6  11  -3   20.90    9.90
  -5 -12   3   -0.50    9.20
  -5  12   3   10.90    9.80
  -4 -12   3   12.60    8.50
  -4  12   3    1.10    9.00
  -3 -12   3  107.69   10.50
   3 -12  -3   81.79    9.60
   3  12  -3  100.69    9.60
  -2 -12   3    1.90    6.40
   2 -12  -3   -3.00    7.10
   2  12  -3   -1.10    6.10
  -1 -12   3  104.49    9.60
   1 -12  -3  116.49    9.80
   1  12  -3   88.19    7.90
   0 -12   3   27.40    7.40
   0 -12  -3    5.60    4.10
   0 -12  -3   19.30    6.20
   0  12  -3   24.70    5.80
  -1 -12  -3   21.00    7.10
   1 -12   3   15.30    7.20
  -1  12  -3   30.40    7.50
  -2 -12  -3    1.00    6.20
   2 -12   3   19.30    7.70
   3 -12   3   30.90    8.40
  -3 -12  -3   23.70    8.10
  -4 -12  -3    9.30    8.40
  -4  12  -3   19.00    8.10
  -5 -12  -3   11.00    9.50
  -5  12  -3    2.20    8.80
  -4 -13   3   28.40    9.90
  -4  13   3   25.60    9.10
   3 -13  -3    2.90    8.50
  -3 -13   3   10.50    8.40
   3  13  -3    9.40    7.40
  -2 -13   3   -2.70    7.70
   2 -13  -3   -8.50    7.40
   2  13  -3    1.70    6.40
   1 -13  -3   16.90    6.90
  -1 -13   3   16.30    7.90
   0 -13  -3  100.99    9.70
   0 -13   3   65.09    9.30
  -1 -13  -3   88.79    9.50
   1 -13   3   77.19    9.60
  -2 -13  -3    6.80    7.70
   2 -13   3  -10.00    6.90
   3 -13   3   14.20    8.40
  -3 -13  -3   21.60    8.80
  -4 -13  -3   34.20    9.90
  -5  13  -3   15.80    9.50
  -4 -14   3   44.00   11.70
   3 -14  -3   34.70   10.20
  -3 -14   3   28.50   10.00
   2 -14  -3   38.30    9.30
  -2 -14   3   34.90    9.70
   1 -14  -3    6.80    8.00
  -1 -14   3   18.00    8.60
   0 -14   3    9.10    7.90
   0 -14  -3   -3.10    6.70
  -1 -14  -3   36.30    7.70
   1 -14   3   48.40    9.60
   2 -14   3   41.00    9.50
  -2 -14  -3   19.80    7.90
  -3 -14  -3   55.99   10.50
   3 -14   3   42.10   11.90
  -3 -15   3    1.40    8.90
   2 -15  -3   16.80    9.20
  -2 -15   3   17.50    8.90
   1 -15  -3    1.90    8.60
  -1 -15   3   15.40    9.00
   0 -15  -3   56.69    9.00
   0 -15   3   63.89    9.60
  -1 -15  -3   18.20    8.90
   1 -15   3   21.00    9.70
  -2 -15  -3   -4.00    8.80
   2 -15   3   -5.20    9.30
  -1 -16   3    6.70    9.20
   0 -16   3   -3.90    9.00
   1 -16   3    0.40   10.00
   2 -16   3   -3.90   10.30
  -8   0   4  192.58   15.60
  -7   0   4    2.20    8.90
  -6   0   4  358.26   18.00
  -5   0   4   -5.50    5.80
  -4   0   4 1611.84   49.60
   3   0  -4   -1.20    3.00
  -3   0   4   -3.00    3.30
   2   0  -4 7400.96  216.18
   2   0  -4 7476.15  216.38
  -2   0   4 7506.15  216.18
   1   0  -4    4.10    2.10
   1   0  -4    3.00    2.40
  -1   0   4    6.60    1.70
   0   0   4 1173.98   34.00
   0   0  -4 1154.48   35.20
  -1   0  -4    5.30    2.40
  -2   0  -4 1029.60   32.50
  -2   0  -4 1083.29   31.10
  -3   0  -4   -0.80    3.70
  -3   0  -4    2.50    2.20
  -4   0  -4 2808.32   84.19
  -4   0  -4 2803.52   82.59
  -5   0  -4   10.90    6.50
  -6   0  -4  239.08   17.00
  -7   0  -4   -2.80   10.20
  -8   0  -4   37.10   14.30
  -8  -1   4    6.90    9.60
  -8   1   4   17.30   11.30
  -7  -1   4   35.40    8.80
  -7   1   4   24.10    9.60
  -6  -1   4    0.90    6.70
  -6   1   4    3.60    7.60
  -5  -1   4 1627.54   51.49
  -5   1   4 1668.53   51.59
  -4  -1   4   20.30    5.10
  -4   1   4   21.60    4.60
  -3  -1   4  773.02   24.90
   3   1  -4  756.62   25.20
  -3   1   4  794.22   25.00
  -2  -1   4  502.75   16.70
   2  -1  -4  516.15   17.20
   2   1  -4  500.15   16.50
   2   1  -4  531.15   17.20
  -2   1   4  530.75   16.90
   1  -1  -4 2383.66   70.09
  -1  -1   4 2487.55   69.89
   1  -1  -4 2240.58   70.79
   1   1  -4 2314.67   70.49
   1   1  -4 2468.65   70.59
  -1   1   4 2465.75   69.99
   0  -1  -4  119.29    6.10
   0  -1   4  118.49    3.90
   0   1  -4  122.49    5.60
   0   1  -4  120.69    5.40
   0   1   4  120.49    4.40
  -1  -1  -4 4028.80  117.39
  -1  -1  -4 4034.70  116.19
  -1   1  -4 4002.80  117.19
  -2  -1  -4    1.90    2.90
  -2  -1  -4    4.40    1.60
  -2   1  -4    3.10    1.30
  -2   1  -4    3.00    2.60
  -3  -1  -4 1092.59   32.90
  -3  -1  -4 1069.99   34.20
  -3   1  -4 1101.59   32.70
  -3   1  -4 1112.29   34.50
  -4  -1  -4   63.99    6.30
  -4  -1  -4   71.49    5.20
  -4   1  -4   71.29    5.80
  -4   1  -4   53.69    6.10
  -5  -1  -4  174.38   12.50
  -5   1  -4  202.58   12.00
  -6  -1  -4   19.20    8.00
  -6   1  -4   19.70    9.40
  -7  -1  -4  237.08   20.00
  -7   1  -4  222.28   17.60
  -8  -1  -4   -0.50   13.10
  -8   1  -4   24.80   14.00
  -8  -2   4   68.69   12.70
  -8   2   4   54.89   11.10
  -7  -2   4   64.29   10.30
  -7   2   4   44.40    9.30
  -6  -2   4  258.97   15.90
  -6   2   4  286.27   16.30
  -5  -2   4  177.88   12.10
  -5   2   4  193.48   12.10
  -4  -2   4   28.40    5.50
  -4   2   4   39.10    5.70
  -3  -2   4   35.10    4.00
   3  -2  -4   39.40    4.50
  -3   2   4   35.90    4.50
   3   2  -4   48.50    5.40
   2  -2  -4 1990.00   59.79
  -2  -2   4 1956.90   58.89
   2  -2  -4 2051.39   58.79
  -2   2   4 1990.00   59.19
   2   2  -4 1995.10   59.59
   2   2  -4 1963.60   58.49
  -1  -2   4 1360.16   39.30
   1  -2  -4 1281.57   40.50
   1  -2  -4 1337.97   39.30
   1   2  -4 1295.27   39.70
   1   2  -4 1357.76   40.20
   0  -2  -4  274.77    8.90
   0  -2  -4  260.67   10.40
   0  -2   4  257.87    8.30
   0   2  -4  266.27    9.20
   0   2  -4  265.87    9.90
  -1  -2  -4  192.28    6.90
  -1  -2  -4  191.38    8.20
  -1   2  -4  205.68    6.10
  -1   2  -4  198.58    7.70
  -2  -2  -4  168.78    6.80
  -2  -2  -4  233.48    8.50
  -2   2  -4  189.58    6.40
  -2   2  -4  175.38    7.90
  -3  -2  -4  105.29    7.60
  -3  -2  -4  110.99    5.70
  -3   2  -4  118.99    5.50
  -3   2  -4  121.19    7.90
  -4  -2  -4  252.67   10.30
  -4  -2  -4  246.48   12.20
  -4   2  -4  255.87   12.70
  -5  -2  -4    1.30    6.10
  -5   2  -4    3.80    6.80
  -6  -2  -4   22.00    8.80
  -6   2  -4   21.00    9.40
  -7  -2  -4    8.10   10.40
  -7   2  -4    8.80   12.00
  -8  -2  -4   28.30   13.10
  -8   2  -4    7.10   15.40
  -8  -3   4  -12.20    9.30
  -8   3   4    8.90   11.30
  -7  -3   4    0.90    8.90
  -7   3   4    5.60    9.40
  -6  -3   4  139.19   11.30
  -6   3   4  126.49   11.20
  -5  -3   4  263.67   13.90
  -5   3   4  259.37   13.10
  -4  -3   4 1332.47   41.20
   4   3  -4 1274.57   41.90
  -4   3   4 1318.97   41.30
  -3  -3   4  443.16   15.10
   3  -3  -4  414.16   15.60
  -3   3   4  392.36   14.90
   3   3  -4  416.56   15.80
   2  -3  -4  180.18    8.60
  -2  -3   4  183.18    7.70
   2  -3  -4  175.28    6.90
  -2   3   4  184.28    8.00
   2   3  -4  191.68    6.60
   2   3  -4  171.18    8.50
   1  -3  -4  186.48    6.20
  -1  -3   4  182.58    6.70
   1  -3  -4  173.48    8.30
  -1   3   4  150.28    6.90
   1   3  -4  178.28    7.90
   1   3  -4  175.38    6.90
   0  -3   4 3609.64  104.29
   0  -3  -4 3509.45  104.69
   0  -3  -4 3604.04  105.89
   0   3  -4 3690.93  105.69
   0   3  -4 3567.74  104.59
  -1  -3  -4  482.35   15.40
   1  -3   4  490.55   14.70
  -1  -3  -4  485.05   16.50
  -1   3  -4  482.35   15.70
  -2  -3  -4 1192.58   36.40
  -2  -3  -4 1199.28   37.50
  -2   3  -4 1244.78   37.40
  -2   3  -4 1239.58   36.00
  -3  -3  -4   56.79    5.40
  -3  -3  -4   63.69    5.00
  -3   3  -4   56.39    5.20
  -3   3  -4   61.99    4.60
  -4  -3  -4   50.49    6.00
  -4  -3  -4   52.79    4.90
  -4   3  -4   46.00    5.90
  -5  -3  -4   42.10    8.70
  -5  -3  -4   29.90    6.20
  -5   3  -4   36.00    7.80
  -6  -3  -4  237.58   15.90
  -6   3  -4  232.78   17.50
  -7  -3  -4   10.30    9.80
  -7   3  -4    7.90   11.90
  -7  -4   4  213.28   15.90
  -7   4   4  245.08   17.80
  -6  -4   4   82.99    9.40
  -6   4   4  111.69   10.70
  -5  -4   4   18.80    6.90
  -5   4   4   33.50    7.10
  -4  -4   4   96.89    7.70
  -4   4   4   87.89    7.40
   4   4  -4  103.49    8.80
  -3  -4   4 1821.82   54.69
   3  -4  -4 1764.32   55.39
  -3   4   4 1855.71   55.09
   3   4  -4 1799.32   55.29
  -2  -4   4  909.21   28.60
   2  -4  -4  921.21   29.90
  -2   4   4  922.11   29.00
   2   4  -4  914.71   29.20
   2   4  -4  930.81   27.20
   1  -4  -4 3338.07   96.19
   1  -4  -4 3269.07   97.09
  -1  -4   4 3107.79   95.59
   1   4  -4 3340.97   96.59
   1   4  -4 3326.07   95.39
   0  -4  -4   14.10    2.70
   0  -4   4   15.10    2.40
   0  -4  -4   12.40    3.50
   0   4  -4   17.80    3.40
   0   4  -4   25.00    2.40
  -1  -4  -4   46.20    3.60
   1  -4   4   49.50    3.50
  -1  -4  -4   40.70    4.50
  -1   4  -4   46.30    4.00
  -2  -4  -4  738.63   23.50
  -2  -4  -4  740.13   24.50
  -2   4  -4  782.62   24.40
  -2   4  -4  776.72   23.20
  -3  -4  -4 2530.95   76.79
  -3  -4  -4 2574.14   75.99
  -3   4  -4 2591.24   75.69
  -3   4  -4 2610.04   77.09
  -4  -4  -4  136.19    9.60
  -4  -4  -4  136.09    8.00
  -4   4  -4  136.59    9.40
  -5  -4  -4  422.86   18.00
  -5  -4  -4  411.56   16.30
  -5   4  -4  427.16   19.00
  -6  -4  -4    4.30    7.60
  -6   4  -4   -0.90    7.90
  -7  -4  -4  -17.30    9.20
  -7   4  -4    4.80   11.30
  -7  -5   4   -2.50    9.30
  -7   5   4    3.10    9.50
  -6  -5   4  173.68   12.70
  -6   5   4  165.58   12.70
  -5  -5   4  142.09   10.50
  -5   5   4  153.88   12.00
  -4  -5   4 1056.89   34.20
   4   5  -4 1038.60   34.90
  -4   5   4 1075.69   34.70
  -3  -5   4   60.29    5.30
  -3   5   4   58.59    5.60
   3   5  -4   68.69    6.80
   2  -5  -4   48.30    5.80
  -2  -5   4   39.90    3.90
   2   5  -4   43.30    4.80
  -2   5   4   48.90    5.00
   1  -5  -4  859.51   26.20
   1  -5  -4  785.22   26.80
   1   5  -4  838.62   26.30
   1   5  -4  805.82   24.70
   0  -5  -4 1459.65   45.30
   0  -5   4 1429.86   44.20
   0  -5  -4 1506.35   44.40
   0   5  -4 1452.25   45.00
   0   5  -4 1504.15   43.50
   1  -5   4  331.27   11.00
  -1  -5  -4  304.37   12.40
  -1  -5  -4  294.77   11.10
  -1   5  -4  296.27   10.90
  -2  -5  -4 1343.97   41.30
  -2  -5  -4 1307.07   40.30
  -2   5  -4 1362.96   40.80
  -2   5  -4 1315.57   39.90
  -3  -5  -4   42.20    4.60
  -3  -5  -4   24.70    4.80
  -3   5  -4   39.50    4.00
  -3   5  -4   33.60    5.20
  -4  -5  -4   29.10    5.60
  -4  -5  -4    3.00    4.30
  -4   5  -4    4.90    4.90
  -5  -5  -4   70.69    8.30
  -5  -5  -4   76.49    7.50
  -5   5  -4   85.79    9.60
  -6  -5  -4  215.38   15.30
  -6   5  -4  216.98   17.20
  -7  -5  -4   19.20   10.40
  -7   5  -4   13.30   11.50
  -7  -6   4   87.49   11.20
  -7   6   4   87.89   11.70
  -6  -6   4   -6.00    7.90
  -6   6   4    6.40    7.40
  -5  -6   4   66.39    8.60
  -5   6   4   70.29    9.00
  -4  -6   4    4.50    5.30
  -4   6   4   -2.90    4.80
   4   6  -4    7.10    6.50
  -3  -6   4  193.98    9.40
   3   6  -4  199.68   10.40
  -3   6   4  188.28    9.90
  -2  -6   4    8.70    3.70
   2  -6  -4    4.00    4.90
   2  -6  -4    7.80    3.90
   2   6  -4    5.90    4.00
  -2   6   4    7.20    4.00
   1  -6  -4  937.31   29.10
   1  -6  -4  879.71   29.80
   1   6  -4  909.81   29.10
   0  -6  -4  329.27   12.40
   0  -6   4  333.37   12.50
   0  -6  -4  339.37   13.50
   0   6  -4  346.07   13.40
   0   6  -4  334.37   11.10
   1  -6   4    4.10    3.00
  -1  -6  -4    0.00    3.10
  -1  -6  -4   -2.20    3.70
  -1   6  -4   15.80    4.40
  -1   6  -4   -1.00    2.60
  -2  -6  -4   23.90    4.70
  -2  -6  -4   43.40    4.50
   2  -6   4   32.10    3.90
  -2   6  -4   30.90    4.40
  -3  -6  -4  267.07   12.30
  -3  -6  -4  285.97   11.40
  -3   6  -4  269.77   12.30
  -3   6  -4  270.97   10.90
  -4  -6  -4   78.79    6.90
  -4  -6  -4   77.09    7.50
  -4   6  -4   98.99    8.50
  -5  -6  -4  101.79    8.20
  -5  -6  -4   92.79    9.20
  -5   6  -4   99.69   10.10
  -6  -6  -4   16.30    8.50
  -6   6  -4   15.30    8.50
  -7   6  -4   10.30   11.60
  -7  -7   4   34.80    9.90
  -7   7   4   17.50   10.70
  -6  -7   4   65.99   10.00
  -6   7   4   69.89   10.30
  -5  -7   4  130.39   10.70
  -5   7   4  115.39   10.60
  -4  -7   4  261.17   13.40
  -4   7   4  244.48   13.70
   4   7  -4  248.68   13.30
  -3  -7   4  158.78    9.70
  -3   7   4  172.28   10.00
   3   7  -4  153.48    9.80
   2  -7  -4   22.20    5.90
  -2  -7   4   20.70    4.20
   2  -7  -4   14.30    5.00
   2   7  -4   23.00    5.20
   1  -7  -4  166.78    9.00
  -1  -7   4  163.98    8.20
   1  -7  -4  160.38   10.10
   1   7  -4  155.78    8.40
   0  -7  -4  558.84   19.70
   0  -7  -4  559.44   18.60
   0  -7   4  516.45   18.60
   0   7  -4  556.24   19.40
   0   7  -4  538.15   17.10
  -1  -7  -4 1266.07   39.00
   1  -7   4 1200.68   38.10
  -1  -7  -4 1201.08   38.00
  -1   7  -4 1259.07   37.40
  -1   7  -4 1215.48   39.00
  -2  -7  -4  560.24   19.50
   2  -7   4  549.45   19.20
  -2  -7  -4  594.34   20.70
  -2   7  -4  574.84   19.50
  -3  -7  -4  320.17   13.00
  -3  -7  -4  313.07   13.90
  -3   7  -4  313.67   13.70
  -3   7  -4  308.17   13.80
  -4  -7  -4   77.59    7.30
  -4  -7  -4   85.89    7.90
  -4   7  -4   72.69    8.10
  -5  -7  -4    4.30    6.10
  -5  -7  -4   10.10    7.00
  -5   7  -4   17.10    7.60
  -6   7  -4   67.39   10.80
  -7   7  -4   62.89   13.20
  -7  -8   4   34.10   10.90
  -7   8   4   35.00   11.10
  -6  -8   4   17.50    9.30
  -6   8   4   30.40    9.60
  -5  -8   4    0.10    6.60
  -5   8   4    8.10    8.00
  -4  -8   4   56.79    7.80
   4   8  -4   57.79    8.40
  -4   8   4   51.99    8.20
  -3  -8   4  536.25   19.80
   3   8  -4  511.25   20.00
  -3   8   4  524.55   20.00
   2  -8  -4 1080.19   36.10
  -2  -8   4 1077.39   34.20
   2  -8  -4 1051.29   34.50
   2   8  -4 1040.70   34.20
   1  -8  -4  751.02   27.30
   1  -8  -4  798.32   26.00
  -1  -8   4  796.12   25.90
   1   8  -4  763.52   26.00
   0  -8  -4  689.33   24.00
   0  -8  -4  676.63   22.90
   0   8  -4  697.93   23.40
  -1  -8  -4   59.69    5.80
   1  -8   4   57.29    5.80
  -1  -8  -4   58.89    6.10
  -1   8  -4   61.29    4.80
  -1   8  -4   60.59    6.70
  -2  -8  -4  167.48    9.60
   2  -8   4  172.08    9.50
  -2  -8  -4  180.48   10.50
  -2   8  -4  177.58    9.30
  -3  -8  -4  916.41   31.10
  -3  -8  -4  918.11   30.20
  -3   8  -4  907.81   30.40
  -4  -8  -4  384.76   15.70
  -4  -8  -4  312.57   15.30
  -4   8  -4  391.86   17.00
  -5  -8  -4   95.49    9.30
  -5   8  -4   95.79   10.60
  -6   8  -4   58.39   10.90
  -7   8  -4   12.00   11.00
  -6  -9   4   49.60    9.70
  -6   9   4   47.70   10.90
  -5  -9   4  102.79    9.90
  -5   9   4   93.29   10.00
  -4  -9   4  134.89   10.70
   4   9  -4  173.68   12.10
  -4   9   4  165.58   13.50
  -3  -9   4  207.08   12.70
   3   9  -4  229.58   12.10
  -3   9   4  231.18   13.00
   2  -9  -4    4.80    6.70
  -2  -9   4   10.10    5.20
   2  -9  -4    7.80    5.50
   2   9  -4    6.80    5.50
  -1  -9   4    0.10    4.70
   1  -9  -4   -2.60    5.70
   1  -9  -4   -3.00    4.60
   1   9  -4    5.10    4.90
   0  -9  -4 1109.69   34.40
   0  -9   4 1054.59   34.60
   0  -9  -4 1023.20   35.00
   0   9  -4 1068.89   34.40
  -1  -9  -4  582.24   20.50
  -1  -9  -4  555.34   20.00
  -1   9  -4  535.15   20.40
   2  -9   4  400.16   16.10
  -2  -9  -4  370.56   15.80
  -2  -9  -4  407.96   16.60
  -2   9  -4  387.16   17.20
  -2   9  -4  406.16   15.30
  -3  -9  -4  158.18   10.90
  -3   9  -4  168.88   11.00
  -4  -9  -4   39.80    7.20
  -4   9  -4   32.50    7.50
  -5  -9  -4   15.70    7.40
  -5   9  -4    6.00    8.00
  -6   9  -4   45.80   10.30
  -6 -10   4   39.20    9.90
  -6  10   4   28.10   10.20
  -5 -10   4    3.00    8.40
  -5  10   4    1.90    8.50
  -4 -10   4    9.80    7.50
  -4  10   4    7.00    6.90
   4  10  -4    9.90    7.00
  -3 -10   4   42.00    7.10
   3  10  -4   38.90    7.40
  -3  10   4   46.40    8.70
   2 -10  -4  191.28   12.20
   2 -10  -4  178.78   12.60
  -2 -10   4  184.98   11.90
   2  10  -4  195.98   11.80
   1 -10  -4  103.19    8.20
  -1 -10   4   94.59    8.10
   1 -10  -4  101.09    9.60
   1  10  -4  106.59    8.30
   0 -10  -4   81.99    8.30
   0 -10  -4   85.59    7.40
   0 -10   4   82.79    7.80
   0  10  -4   84.99    7.60
  -1 -10  -4   17.30    5.30
   1 -10   4   18.30    5.90
  -1 -10  -4   16.00    5.60
  -1  10  -4   16.00    5.90
  -2 -10  -4    0.60    1.60
   2 -10   4    5.20    3.10
  -2 -10  -4   11.50    5.90
  -2  10  -4    8.50    6.60
  -3 -10  -4   80.79    8.00
  -3  10  -4   78.89    8.00
  -4 -10  -4   32.70    8.10
  -4  10  -4   32.20    8.00
  -5 -10  -4    8.60    8.00
  -5  10  -4    6.70    8.80
  -6  10  -4    1.10    9.90
  -5 -11   4   45.50   10.40
  -5  11   4   45.90   10.30
  -4 -11   4    2.30    7.90
   4  11  -4    9.70    8.30
  -4  11   4    4.40    8.40
  -3 -11   4   76.19    8.50
   3  11  -4   73.19    8.50
  -3  11   4  101.09   10.90
  -2 -11   4    2.90    6.70
   2 -11  -4   -2.10    6.50
   2  11  -4    7.70    6.20
   1 -11  -4   47.90    7.30
  -1 -11   4   41.30    7.40
   1 -11  -4   36.90    8.00
   1  11  -4   48.70    7.10
   0 -11   4   -0.40    5.80
   0 -11  -4   -1.30    5.50
   0 -11  -4   -9.80    6.40
   0  11  -4    1.10    5.50
  -1 -11  -4  179.18   11.90
  -1 -11  -4  214.88   12.20
   1 -11   4  211.08   12.90
  -1  11  -4  232.78   12.50
   2 -11   4   70.19    8.40
  -2 -11  -4   71.69    8.20
  -2  11  -4   77.69    8.70
  -3 -11  -4    1.70    7.00
  -3  11  -4  -10.30    7.50
  -4 -11  -4   70.39    9.50
  -4  11  -4   57.59    9.20
  -5 -11  -4   53.69    9.70
  -5  11  -4   51.69   10.20
  -5 -12   4    4.70    8.80
  -5  12   4   -4.90    9.80
  -4 -12   4   35.00    9.60
  -4  12   4   27.00    9.50
   4  12  -4   35.30    9.50
  -3 -12   4   20.60    8.30
   3 -12  -4   12.30    7.60
  -3  12   4   31.60    8.40
   3  12  -4   18.90    7.70
   2 -12  -4  154.98   12.00
  -2 -12   4  181.08   13.90
   2  12  -4  148.39   12.00
   1 -12  -4    7.70    6.20
   1 -12  -4    3.80    7.90
  -1 -12   4   19.00    7.30
   1  12  -4   15.60    6.30
   0 -12  -4   63.19    7.70
   0 -12  -4   74.49    9.60
   0 -12   4   73.69    8.60
   0  12  -4   73.79    8.00
   1 -12   4   61.79    8.70
  -1 -12  -4   89.79    8.80
  -1  12  -4   77.09    8.40
   2 -12   4  138.79   11.50
  -2 -12  -4  159.98   12.60
  -2  12  -4  154.68   12.20
  -3 -12  -4    6.90    7.70
  -4 -12  -4  158.68   12.20
  -5 -12  -4   73.19   10.80
  -5  12  -4   64.79   11.20
  -4 -13   4   12.60    9.50
  -4  13   4    4.90    8.30
   4  13  -4   14.40    9.50
   3 -13  -4    7.90    8.60
  -3 -13   4   11.80    9.20
   3  13  -4   19.80    8.30
  -3  13   4    8.60    9.50
   2 -13  -4   -0.60    6.80
  -2 -13   4    5.30    7.30
   2  13  -4    4.20    7.10
  -1 -13   4   35.40    8.50
   1 -13  -4   33.10    9.30
   1 -13  -4   24.00    7.20
   1  13  -4   27.20    7.40
   0 -13  -4    1.90    6.90
   0 -13   4   -0.70    7.00
   0  13  -4    1.30    6.50
  -1 -13  -4  128.19   10.50
   1 -13   4  118.49   11.40
  -2 -13  -4   10.60    6.90
  -3 -13  -4    5.40    8.30
  -4 -13  -4   61.09   10.80
  -4 -14   4  -18.80   16.40
   4  14  -4    3.40    9.50
   3 -14  -4    8.10    8.30
  -3 -14   4   15.30    9.80
  -3  14   4    8.80    8.90
   3  14  -4    9.50    8.80
   2 -14  -4   -8.40    8.10
  -2 -14   4    7.60    8.70
   2  14  -4   10.00   12.00
  -1 -14   4    2.30    8.60
   1 -14  -4   14.00    8.40
   0 -14   4    7.20    7.90
   0 -14  -4    6.10    7.80
   1 -14   4    9.10    8.60
  -1 -14  -4    6.90    7.70
  -2 -14  -4    1.60    7.30
  -3 -14  -4    6.00    7.90
  -3 -15   4   20.50   17.00
  -2 -15   4    9.90    9.60
   2 -15  -4   12.70    9.30
  -1 -15   4   -1.20    9.20
   1 -15  -4  -11.20    7.40
   0 -15   4   44.90   10.20
   0 -15  -4   44.00    8.60
  -1 -15  -4    4.90    7.60
   1 -15   4   -1.50    9.80
  -2 -15  -4   20.70    9.10
  -1 -16   4   50.29   11.40
   0 -16   4    5.20   10.20
  -8   0   5  -10.20   11.30
  -7   0   5  189.88   14.70
  -6   0   5   -5.90    6.90
  -5   0   5 1161.88   38.50
  -4   0   5   -3.90    4.70
   3   0  -5   81.29    6.40
  -3   0   5   83.89    6.70
   3   0  -5   81.09    6.40
   2   0  -5    5.40    2.90
   2   0  -5    3.50    3.00
  -2   0   5   -0.50    0.90
   1   0  -5 2311.37   70.39
   1   0  -5 2369.16   69.89
  -1   0   5 2409.46   69.29
   0   0  -5   -3.30    2.70
   0   0   5    0.50    1.20
   0   0  -5    2.50    2.60
  -1   0  -5  403.46   14.20
  -2   0  -5    0.60    3.10
  -2   0  -5    0.10    1.30
  -3   0  -5   99.69    8.20
  -4   0  -5   -7.10    5.50
  -5   0  -5   31.70    8.20
  -6   0  -5    0.20    8.20
  -7   0  -5    5.70   11.60
  -8  -1   5  111.69   14.20
  -8   1   5   92.99   13.90
  -7  -1   5   -0.10    9.50
  -7   1   5   -5.60    9.40
  -6  -1   5   -4.50    7.10
  -6   1   5    8.60    7.30
  -5  -1   5  164.78   12.50
  -5   1   5  183.88   11.60
  -4  -1   5 1896.31   58.29
   4   1  -5 1895.41   58.89
  -4   1   5 1903.31   58.29
   3  -1  -5  468.55   17.00
  -3  -1   5  482.15   16.90
   3   1  -5  466.25   16.10
   3   1  -5  474.15   17.40
  -3   1   5  495.55   17.00
   2  -1  -5 1536.95   46.10
   2  -1  -5 1389.56   45.30
   2   1  -5 1574.14   45.90
   2   1  -5 1543.55   45.50
   1  -1  -5  225.48    9.80
  -1  -1   5  229.08    8.00
   1  -1  -5  220.38    8.70
   1   1  -5  226.08    9.40
  -1   1   5  226.38    8.30
   1   1  -5  243.08    9.40
   0  -1  -5  944.81   29.60
   0  -1   5  912.01   27.40
   0   1  -5  974.00   29.10
   0   1  -5  940.41   29.40
   0   1   5  926.81   27.80
  -1  -1  -5  835.42   26.10
  -1  -1  -5  802.22   24.20
  -1   1  -5  828.82   25.80
  -2  -1  -5  879.71   27.30
  -2  -1  -5  934.51   29.30
  -2   1  -5  963.70   29.30
  -3  -1  -5  780.42   25.60
  -3   1  -5  745.73   25.30
  -4  -1  -5   18.30    6.20
  -4   1  -5   24.40    6.20
  -5  -1  -5   -1.30    6.90
  -5   1  -5   -1.40    7.40
  -6  -1  -5   10.50    9.50
  -6   1  -5   15.20    9.80
  -7  -1  -5   71.09   13.10
  -7   1  -5   52.49   13.20
  -8  -2   5   14.40   12.00
  -8   2   5    7.50   13.00
  -7  -2   5  214.98   15.90
  -7   2   5  236.78   16.30
  -6  -2   5  107.29   11.00
  -6   2   5  106.49   10.30
  -5  -2   5  525.45   20.70
  -5   2   5  489.85   19.80
  -4  -2   5   -5.00    5.00
  -4   2   5    4.50    5.20
   4   2  -5    3.60    5.90
   3  -2  -5  686.53   23.70
  -3  -2   5  711.23   23.20
   3  -2  -5  719.93   23.00
  -3   2   5  698.13   23.10
   3   2  -5  684.73   22.10
   3   2  -5  707.33   24.00
   2  -2  -5  780.02   23.70
   2  -2  -5  738.63   24.90
   2   2  -5  742.13   23.60
   2   2  -5  742.43   24.50
  -2   2   5  764.52   24.00
   1  -2  -5 5416.76  158.78
  -1  -2   5 5521.65  158.58
   1  -2  -5 5282.37  160.08
   1   2  -5 5538.25  159.88
   1   2  -5 5448.85  159.48
  -1   2   5 5651.13  158.98
   0  -2   5 1569.84   46.10
   0  -2  -5 1581.24   48.40
   0   2  -5 1603.24   47.30
   0   2  -5 1591.64   48.00
   0   2   5 1568.44   46.70
  -1  -2  -5  293.47    9.50
  -1  -2  -5  277.17   11.10
  -1   2  -5  297.97   10.90
  -2  -2  -5   -2.10    3.70
  -2  -2  -5    2.30    1.90
  -2   2  -5    1.30    3.60
  -3  -2  -5  744.13   25.30
  -3   2  -5  762.62   25.40
  -4  -2  -5  677.83   24.10
  -4   2  -5  670.13   24.30
  -5  -2  -5  380.66   17.80
  -5   2  -5  351.96   17.90
  -6  -2  -5  141.99   12.40
  -6   2  -5  124.59   12.00
  -7  -2  -5   40.50   12.20
  -7   2  -5   14.20   11.80
  -7  -3   5   -0.40    9.30
  -7   3   5   12.50    8.90
  -6  -3   5    7.50    7.30
  -6   3   5   15.50    7.60
  -5  -3   5   90.69    9.20
  -5   3   5   89.09    9.10
  -4  -3   5 1388.76   44.70
   4   3  -5 1459.45   45.90
  -4   3   5 1438.46   45.00
  -3  -3   5  399.46   15.10
   3  -3  -5  406.16   15.80
   3   3  -5  420.36   16.30
  -3   3   5  410.86   15.10
   2  -3  -5  380.96   12.40
   2  -3  -5  342.27   14.00
  -2   3   5  358.16   13.20
   2   3  -5  361.06   12.20
   2   3  -5  375.56   14.00
   1  -3  -5  172.68    6.70
  -1  -3   5  170.68    6.80
   1  -3  -5  169.58    8.80
  -1   3   5  164.18    7.20
   1   3  -5  178.88    7.60
   1   3  -5  186.98    8.40
   0  -3  -5 1348.37   41.20
   0  -3   5 1374.76   40.70
   0  -3  -5 1371.66   42.60
   0   3  -5 1410.76   41.30
   0   3  -5 1388.16   42.50
  -1  -3  -5  664.63   20.90
  -1  -3  -5  664.73   22.60
  -1   3  -5  669.13   21.60
  -1   3  -5  703.63   20.00
  -2  -3  -5 1664.83   51.69
  -2  -3  -5 1685.43   50.39
  -2   3  -5 1755.32   51.59
  -3  -3  -5  597.24   21.00
  -3  -3  -5  580.74   19.00
  -3   3  -5  598.44   21.00
  -4  -3  -5   77.29    7.70
  -4   3  -5   69.99    8.00
  -5  -3  -5    4.50    7.10
  -5   3  -5    3.50    7.50
  -6  -3  -5   82.19   11.10
  -6   3  -5   82.09   11.70
  -7  -3  -5   31.60   11.60
  -7   3  -5   44.70   13.00
  -7  -4   5   19.50   10.50
  -7   4   5   22.50   10.20
  -6  -4   5  179.38   13.50
  -6   4   5  222.88   15.80
  -5  -4   5   98.49    9.40
  -5   4   5   80.79    8.50
  -4  -4   5  113.19    8.60
  -4   4   5  103.29    8.50
   4   4  -5   88.79    8.40
   3  -4  -5   51.99    6.70
  -3  -4   5   45.80    4.90
   3   4  -5   51.89    6.70
  -3   4   5   48.50    5.60
   2  -4  -5  225.28    8.10
   2  -4  -5  221.98   11.20
   2   4  -5  212.88    7.90
  -2   4   5  227.58    9.70
   2   4  -5  215.18   10.50
  -1  -4   5  407.66   13.80
   1  -4  -5  428.26   13.10
   1  -4  -5  428.66   15.90
   1   4  -5  402.46   13.90
   1   4  -5  415.66   15.10
   0  -4  -5  634.14   21.70
   0  -4  -5  652.83   20.30
   0  -4   5  614.64   19.70
   0   4  -5  627.54   21.50
   0   4  -5  628.14   19.90
   1  -4   5   42.50    3.20
  -1  -4  -5   51.99    4.20
  -1  -4  -5   42.80    5.20
  -1   4  -5   42.20    4.00
  -2  -4  -5    2.20    2.80
  -2  -4  -5    4.00    4.20
  -2   4  -5    5.40    3.60
  -3  -4  -5   76.69    6.90
  -3  -4  -5   75.49    6.20
  -3   4  -5   73.69    6.70
  -4  -4  -5  312.27   14.60
  -4   4  -5  305.47   15.10
  -5  -4  -5   15.20    7.50
  -5   4  -5   18.30    8.20
  -6  -4  -5   56.29   10.40
  -6   4  -5   31.40    9.60
  -7  -4  -5    2.00   10.90
  -7   4  -5    1.90   10.90
  -7  -5   5    3.70    8.90
  -7   5   5   16.30    9.00
  -6  -5   5    9.50    7.70
  -6   5   5   24.80    8.90
  -5  -5   5  259.57   14.30
  -5   5   5  292.57   15.60
  -4  -5   5   43.20    6.50
  -4   5   5   30.90    6.50
   4   5  -5   35.10    6.90
  -3  -5   5  937.11   29.80
   3  -5  -5  896.61   31.40
  -3   5   5  916.91   30.00
   3   5  -5  917.51   30.70
   2  -5  -5    5.30    4.90
  -2  -5   5    9.50    3.30
  -2   5   5    6.70    3.60
   2   5  -5    4.70    4.10
   1  -5  -5   18.30    4.80
  -1  -5   5   20.20    3.30
   1  -5  -5   37.10    4.10
   1   5  -5   23.50    3.10
   1   5  -5   16.50    4.20
   0  -5  -5   58.09    5.90
   0  -5   5   60.59    4.90
   0  -5  -5   63.69    5.10
   0   5  -5   65.09    6.20
   0   5  -5   59.09    4.40
  -1  -5  -5 1897.81   56.99
   1  -5   5 1894.41   56.39
  -1  -5  -5 1868.71   58.39
  -1   5  -5 1983.80   57.09
  -2  -5  -5   57.39    4.70
  -2  -5  -5   61.79    6.40
  -2   5  -5   68.29    5.70
  -3  -5  -5  696.03   23.00
  -3  -5  -5  734.83   24.60
  -3   5  -5  699.13   24.50
  -4  -5  -5  183.18   11.80
  -4   5  -5  194.68   12.60
  -5  -5  -5   25.10    8.00
  -5   5  -5   18.20    7.30
  -6  -5  -5   -0.60    8.40
  -6   5  -5    6.80    8.90
  -7  -5  -5   76.29   12.70
  -7   5  -5   86.99   13.80
  -7  -6   5   17.10   11.10
  -7   6   5   10.10   10.20
  -6  -6   5  290.17   18.40
  -6   6   5  332.97   19.00
  -5  -6   5   28.40    8.00
  -5   6   5   27.00    8.00
  -4  -6   5    3.20    5.70
  -4   6   5   -3.40    5.10
   4   6  -5    3.10    6.00
  -3  -6   5    5.80    4.60
   3  -6  -5    4.70    6.40
  -3   6   5   10.00    5.30
   3   6  -5    0.60    5.80
   2  -6  -5 1829.22   56.69
  -2  -6   5 1775.12   54.49
  -2   6   5 1857.71   55.19
   2   6  -5 1748.03   55.19
   1  -6  -5  158.48    8.20
   1  -6  -5  136.39    9.60
  -1  -6   5  147.09    7.80
   1   6  -5  141.09    8.40
   0  -6  -5 2301.87   67.19
   0  -6  -5 2291.77   68.29
   0  -6   5 2151.58   66.99
   0   6  -5 2268.47   66.19
   0   6  -5 2235.78   68.19
  -1  -6  -5  267.47   10.80
   1  -6   5  273.17   10.50
  -1  -6  -5  267.17   12.50
  -1   6  -5  291.37   10.80
  -1   6  -5  259.17   12.40
  -2  -6  -5   58.59    6.60
  -2  -6  -5   51.59    4.90
  -2   6  -5   52.79    5.50
  -3  -6  -5  161.38    9.20
  -3  -6  -5  184.68   10.80
  -3   6  -5  167.18   10.60
  -4  -6  -5  834.32   28.80
  -4   6  -5  816.12   29.20
  -5  -6  -5   22.00    7.90
  -5   6  -5   19.30    7.50
  -6  -6  -5  161.88   13.00
  -6   6  -5  147.89   13.90
  -7   6  -5   29.90   12.70
  -7  -7   5    3.20   10.80
  -7   7   5   -4.90   10.60
  -6  -7   5   -7.40    8.50
  -6   7   5   -8.10    7.50
  -5  -7   5  236.38   14.30
  -5   7   5  285.97   16.40
   5   7  -5  243.58   15.70
  -4  -7   5    5.00    5.50
  -4   7   5    3.90    6.40
   4   7  -5   -3.00    7.10
   3  -7  -5 1002.20   34.50
  -3  -7   5  948.71   32.40
   3   7  -5 1005.40   33.40
  -3   7   5 1032.10   33.00
  -2  -7   5  265.87   11.80
   2  -7  -5  291.97   15.00
   2   7  -5  268.57   12.40
  -2   7   5  286.47   13.10
   1  -7  -5   21.10    5.70
   1  -7  -5   15.10    4.30
  -1  -7   5    7.60    3.50
   1   7  -5   15.70    5.20
   0  -7   5  294.17   12.40
   0  -7  -5  296.87   13.60
   0  -7  -5  321.17   12.40
   0   7  -5  318.67   13.80
   1  -7   5 1054.99   32.60
  -1  -7  -5  977.80   32.50
  -1  -7  -5 1087.29   34.00
  -1   7  -5 1022.40   32.20
  -1   7  -5 1039.90   34.20
  -2  -7  -5   29.10    6.00
  -2  -7  -5   22.20    4.40
  -2   7  -5   19.50    4.80
  -3  -7  -5  492.15   19.40
  -3  -7  -5  438.26   17.20
  -3   7  -5  477.15   18.40
  -4  -7  -5   69.99    8.20
  -4  -7  -5   80.59    8.20
  -4   7  -5   57.39    8.10
  -5  -7  -5   10.00    7.70
  -5   7  -5    8.00    8.20
  -6   7  -5    0.40    9.50
  -6  -8   5   92.69   10.80
  -6   8   5   81.89   10.50
  -5  -8   5   38.40    9.00
  -5   8   5   24.90    8.60
   5   8  -5   18.90    9.90
  -4  -8   5   27.10    6.50
   4   8  -5   28.50    8.20
  -4   8   5   25.40    7.70
  -3  -8   5   18.10    6.00
   3  -8  -5   15.30    7.10
   3   8  -5   22.30    7.00
  -3   8   5   21.40    6.00
   2  -8  -5  237.88   13.70
  -2  -8   5  236.28   11.60
   2  -8  -5  232.58   11.60
   2   8  -5  227.98   11.70
   1  -8  -5   50.69    7.40
  -1  -8   5    5.40    2.70
   1  -8  -5   13.30    4.40
   1   8  -5   21.20    5.20
   0  -8  -5  280.67   13.10
   0  -8   5  242.28   11.90
   0  -8  -5  246.88   11.50
   0   8  -5  272.87   12.30
   1  -8   5  364.56   14.50
  -1  -8  -5  405.96   15.90
  -1  -8  -5  365.66   14.50
  -1   8  -5  365.76   13.90
  -1   8  -5  363.76   15.60
  -2  -8  -5   -5.90    4.40
  -2  -8  -5   -4.90    5.10
  -2   8  -5   -4.10    6.50
  -2   8  -5    4.50    4.70
  -3  -8  -5   -1.20    6.20
  -3  -8  -5   -3.00    4.80
  -3   8  -5   -0.60    5.50
  -4  -8  -5   44.30    8.10
  -4  -8  -5   37.90    6.80
  -4   8  -5   44.90    8.00
  -5  -8  -5   55.69   14.40
  -5   8  -5   40.00    9.30
  -6   8  -5    3.20   10.70
  -6  -9   5   40.40   10.40
  -6   9   5   21.10    9.10
  -5  -9   5    7.30    8.20
   5   9  -5    4.80    9.90
  -5   9   5    7.40    7.50
  -4  -9   5  150.38   11.40
  -4   9   5  133.19   11.50
   4   9  -5  148.69   11.80
  -3  -9   5   27.50    6.60
  -3   9   5   31.10    7.00
   3   9  -5   42.90    7.90
  -2  -9   5  140.39   10.10
   2  -9  -5  140.39   11.80
   2  -9  -5  130.09   10.50
   2   9  -5  142.19   11.10
  -1  -9   5    6.90    5.10
   1  -9  -5    4.20    4.40
   1  -9  -5   -4.80    6.30
   1   9  -5   14.80    5.30
   0  -9  -5   41.00    6.90
   0  -9   5   36.40    5.90
   0  -9  -5   32.30    5.10
   0   9  -5   35.70    6.90
   1  -9   5   32.90    5.60
  -1  -9  -5   31.90    5.90
  -1  -9  -5   31.30    5.60
  -1   9  -5   29.20    7.00
  -2  -9  -5  506.75   19.20
  -2  -9  -5  511.15   20.00
  -2   9  -5  489.35   21.20
  -2   9  -5  532.45   19.20
  -3  -9  -5   19.30    6.10
  -3  -9  -5   14.70    6.90
  -3   9  -5   23.20    6.40
  -4  -9  -5  103.69   10.50
  -4  -9  -5  102.89    9.10
  -4   9  -5  104.99    9.90
  -5   9  -5   41.30   10.20
  -6   9  -5   48.90   11.90
  -6 -10   5    6.30   10.50
  -6  10   5    4.20   10.40
  -5 -10   5   14.60    8.00
  -5  10   5   10.00    8.90
   5  10  -5   14.30    9.30
  -4 -10   5    2.20    7.40
  -4  10   5    7.60    7.20
   4  10  -5   -7.20    8.20
  -3 -10   5   53.59    8.00
   3  10  -5   65.89    8.80
  -3  10   5   71.49    9.40
  -2 -10   5   29.70    6.80
   2 -10  -5   17.30    7.70
   2 -10  -5   22.30    6.70
   2  10  -5   26.70    7.20
   1 -10  -5  682.63   25.30
   1 -10  -5  593.54   22.10
  -1 -10   5  611.94   23.00
   1  10  -5  582.74   22.70
   0 -10  -5    8.70    5.40
   0 -10   5    0.50    1.50
   0 -10  -5    8.60    6.20
   0  10  -5   10.90    6.40
  -1 -10  -5  322.27   15.10
  -1 -10  -5  319.77   14.20
   1 -10   5  294.77   19.90
  -1  10  -5  302.57   15.50
  -2 -10  -5  101.09    9.00
  -2 -10  -5   91.09    8.20
  -2  10  -5   88.79    9.90
  -3 -10  -5  204.98   13.90
  -3 -10  -5  186.38   12.20
  -3  10  -5  173.58   13.10
  -3  10  -5  172.98   13.50
  -4 -10  -5   76.59    9.20
  -4  10  -5   63.19    9.30
  -5  10  -5  294.57   19.30
  -6  10  -5   20.30   11.60
  -5 -11   5    8.50    8.50
  -5  11   5    7.80    9.20
  -4 -11   5  118.79   11.70
   4  11  -5  106.89   11.40
  -4  11   5  126.89   12.00
  -3 -11   5   -0.20    6.30
  -3  11   5    2.80    7.10
   3  11  -5    8.20    7.90
   2 -11  -5   31.40   10.00
   2 -11  -5   45.10    7.30
  -2 -11   5   67.79    8.50
   2  11  -5   50.09    7.50
   1 -11  -5   -0.70    8.30
   1 -11  -5   15.50    6.40
  -1 -11   5   -0.50    6.50
   1  11  -5    8.90    6.80
   0 -11  -5   28.40    6.70
   0 -11  -5   30.40    7.90
   0 -11   5   22.40    7.00
   0  11  -5   28.70    7.20
  -1 -11  -5   77.89    7.50
  -1 -11  -5  115.09    9.80
  -1  11  -5   98.09    9.90
  -2 -11  -5  377.46   16.40
  -2 -11  -5  399.96   17.50
  -2  11  -5  368.36   18.30
  -3 -11  -5   11.90    7.00
  -3  11  -5    3.20    8.90
  -4 -11  -5   47.70    9.00
  -4  11  -5   36.90    9.00
  -5  11  -5   74.39   11.80
  -5 -12   5    2.40   10.00
  -4 -12   5    4.30    8.90
  -4  12   5    3.30    9.40
   4  12  -5    5.60    9.20
  -3 -12   5   15.20    8.40
  -3  12   5   22.40    9.10
   3  12  -5    6.10    8.00
   2 -12  -5   -9.00    9.80
  -2 -12   5    3.20    6.80
   2 -12  -5    8.10    7.40
   2  12  -5    6.20    7.60
   1 -12  -5   53.79   10.80
   1 -12  -5   60.49    7.80
  -1 -12   5   61.49    9.00
   1  12  -5   65.89    8.60
   0 -12   5    0.20    7.00
   0 -12  -5   -4.80    8.10
   0 -12  -5    1.10    5.80
   0  12  -5   -0.40    6.50
  -1 -12  -5   -1.90    6.50
  -1 -12  -5    1.10    7.30
  -1  12  -5   -1.20    7.30
  -2 -12  -5    4.40    7.20
  -2  12  -5    3.20    8.10
  -3 -12  -5   18.90    8.00
  -3  12  -5   17.10    8.90
  -4 -12  -5    2.40    8.00
  -4  12  -5    3.50   11.00
  -5  12  -5   25.50   16.40
  -4 -13   5    8.80    9.90
   4  13  -5   15.50    9.90
  -4  13   5    2.80    8.70
  -3 -13   5   56.49   10.60
  -3  13   5   55.59   10.70
   3  13  -5   52.39    9.60
  -2 -13   5   14.00    8.90
   2 -13  -5    5.80    7.70
   2  13  -5    2.20    7.70
  -1 -13   5    3.70    7.80
   1 -13  -5   -4.10    9.30
   1 -13  -5    6.20    7.40
   1  13  -5    2.30    6.90
   0 -13   5   52.39    9.30
   0 -13  -5   53.39   10.70
   0 -13  -5   67.09    9.00
   0  13  -5   54.79    8.90
  -1 -13  -5   31.20    8.00
  -1  13  -5   38.20    8.50
  -2 -13  -5    3.40    7.60
  -2  13  -5   27.50    9.10
  -3 -13  -5   30.30    9.10
  -4 -13  -5    8.30    8.90
   4  14  -5    5.70   10.10
  -3 -14   5   43.30   11.20
  -3  14   5   47.80   11.70
   3  14  -5   38.20   10.10
   2 -14  -5   58.89   10.20
  -2 -14   5   79.79   11.50
   2  14  -5   58.99   10.20
  -1 -14   5   36.80   10.10
   1 -14  -5   14.00   10.20
   1 -14  -5   33.10    8.60
   1  14  -5   36.20    8.40
   0 -14  -5   99.99   10.60
  -1 -14  -5   12.60    7.90
  -2 -14  -5   10.30    8.20
  -3 -14  -5   52.79   10.00
  -2 -15   5   -1.50   10.00
  -1 -15   5   27.40   10.40
   1 -15  -5   13.40    9.10
   0 -15  -5   55.79    9.80
  -1 -15  -5    4.90    8.20
  -7   0   6    5.10    9.90
  -6   0   6  367.26   18.40
  -5   0   6   -7.80    5.80
   4   0  -6 1062.79   35.20
  -4   0   6 1075.29   35.00
   3   0  -6    5.90    4.70
  -3   0   6   -2.20    3.90
   3   0  -6    3.50    3.80
  -2   0   6  665.43   21.40
   2   0  -6  651.13   22.10
   2   0  -6  661.83   21.80
   1   0  -6   -2.80    3.30
  -1   0   6   -0.40    2.20
   1   0  -6    0.50    3.10
   0   0   6 5515.05  163.28
   0   0  -6 5831.12  165.18
   0   0  -6 5644.94  165.38
  -1   0  -6   -1.80    3.10
  -2   0  -6  117.19    7.70
  -3   0  -6    4.90    4.80
  -4   0  -6  592.84   22.70
  -5   0  -6    3.30    7.20
  -6   0  -6  269.17   19.90
  -7   0  -6    5.20   12.30
  -7  -1   6  111.59   12.30
  -7   1   6  138.49   13.80
  -6  -1   6   17.20    8.20
  -6   1   6   19.90    8.10
  -5  -1   6    5.50    7.20
  -5   1   6    5.30    7.10
  -4  -1   6   -2.40    5.30
  -4   1   6    0.90    5.20
   4   1  -6    6.00    5.90
  -3  -1   6 2088.29   63.09
   3  -1  -6 2050.79   63.49
   3   1  -6 2056.99   62.79
   3   1  -6 2168.28   63.69
  -3   1   6 2085.39   63.09
  -2  -1   6    3.20    3.10
   2  -1  -6    9.90    4.10
   2  -1  -6    6.50    3.30
   2   1  -6   11.60    3.60
  -2   1   6   10.60    3.30
   2   1  -6   11.00    4.00
   1  -1  -6 1326.67   40.40
  -1  -1   6 1311.17   38.60
   1  -1  -6 1079.69   39.00
   1   1  -6 1405.56   40.10
   1   1  -6 1297.37   40.00
  -1   1   6 1350.86   38.90
   0  -1   6   95.79    3.60
   0  -1  -6  112.19    7.50
   0   1  -6  111.59    6.70
   0   1  -6  108.39    7.00
   0   1   6   99.59    4.40
  -1  -1  -6 1267.07   39.40
  -1   1  -6 1282.47   39.30
  -2  -1  -6   26.60    5.10
  -2   1  -6   31.90    4.90
  -3  -1  -6 1213.58   39.30
  -3   1  -6 1261.37   39.60
  -4  -1  -6   -4.20    6.10
  -4   1  -6   -1.60    6.50
  -5  -1  -6    4.60    8.10
  -5   1  -6   -0.70    8.30
  -6  -1  -6   11.20   10.30
  -6   1  -6   10.80   10.30
  -7  -1  -6   28.00   13.10
  -7   1  -6    8.80   11.90
  -7  -2   6   26.00   10.70
  -7   2   6   15.60    9.50
  -6  -2   6  179.48   13.40
  -6   2   6  166.98   13.30
  -5  -2   6  218.78   14.10
  -5   2   6  203.98   12.90
  -4  -2   6  598.14   22.10
  -4   2   6  592.54   22.10
   4   2  -6  627.14   23.10
   3  -2  -6    4.30    3.80
   3  -2  -6    5.80    4.70
  -3  -2   6   -5.30    3.80
   3   2  -6    2.10    5.20
  -3   2   6    8.90    4.50
   3   2  -6    3.00    3.20
   2  -2  -6   13.10    3.40
   2  -2  -6   15.00    4.60
  -2  -2   6   12.50    3.20
   2   2  -6   10.30    4.20
   2   2  -6   17.60    3.60
  -2   2   6    5.40    2.20
  -1  -2   6   77.19    4.50
   1  -2  -6   79.69    5.30
   1  -2  -6   90.59    7.20
  -1   2   6   88.59    5.20
   1   2  -6   85.69    6.30
   1   2  -6   85.59    6.40
   0  -2   6  874.21   26.10
   0  -2  -6  915.91   27.50
   0  -2  -6  868.51   28.90
   0   2  -6  904.41   27.90
   0   2   6  864.91   26.70
   0   2  -6  888.91   28.50
  -1  -2  -6  226.28    9.20
  -1  -2  -6  239.18   10.30
  -1   2  -6  221.08    9.50
  -2  -2  -6   38.20    5.10
  -2   2  -6   40.00    4.80
  -3  -2  -6   75.59    7.40
  -3   2  -6   66.89    7.30
  -4  -2  -6  181.68   12.50
  -4   2  -6  174.58   11.60
  -5  -2  -6   26.90    8.70
  -5   2  -6   23.50    8.70
  -6  -2  -6   -8.00    9.70
  -6   2  -6    8.80   10.50
  -7  -2  -6    9.60   12.10
  -7   2  -6   18.80   12.30
  -7  -3   6   71.39   12.20
  -7   3   6   64.69   11.00
  -6  -3   6   -5.50    8.30
  -6   3   6    7.70    8.40
  -5  -3   6   -6.60    6.90
  -5   3   6    7.60    7.00
  -4  -3   6  860.01   29.20
   4   3  -6  876.81   30.20
  -4   3   6  847.02   29.10
  -3  -3   6  409.76   15.60
   3  -3  -6  421.16   17.40
   3  -3  -6  431.96   15.10
  -3   3   6  405.76   15.70
   3   3  -6  400.46   16.80
   3   3  -6  412.16   16.70
   2  -3  -6 1095.19   31.50
   2  -3  -6  998.40   33.20
  -2  -3   6 1003.60   31.70
   2   3  -6  997.20   31.60
   2   3  -6 1017.50   32.80
  -1  -3   6  102.29    5.30
   1  -3  -6  105.09    8.00
   1  -3  -6  115.79    5.60
   1   3  -6   97.09    6.60
   1   3  -6  113.79    8.00
  -1   3   6  109.69    6.10
   0  -3  -6   -3.10    3.90
   0  -3   6    6.70    2.00
   0  -3  -6    5.90    2.40
   0   3  -6    6.60    4.30
   0   3  -6    3.60    3.10
  -1  -3  -6  262.87    9.30
  -1  -3  -6  253.77   12.00
  -1   3  -6  266.97   10.80
  -2  -3  -6  793.22   26.60
  -2   3  -6  809.32   26.40
  -3  -3  -6   24.70    6.20
  -3   3  -6   28.20    5.90
  -4  -3  -6  684.83   24.80
  -4   3  -6  644.14   24.40
  -5  -3  -6    7.80    7.40
  -5   3  -6    2.90    8.30
  -6  -3  -6    4.10   10.40
  -6   3  -6    9.80   10.80
  -7  -3  -6    4.40   12.40
  -7   3  -6   17.30   12.80
  -7  -4   6  131.59   13.20
  -7   4   6  135.59   14.00
  -6  -4   6   60.79    9.50
  -6   4   6   76.39   10.70
  -5  -4   6  555.44   22.50
   5   4  -6  566.44   23.80
  -5   4   6  615.64   23.70
  -4  -4   6   59.19    7.60
  -4   4   6   83.49    8.10
   4   4  -6   67.49    8.00
   3  -4  -6   -5.80    5.40
  -3  -4   6   -3.90    3.90
   3   4  -6    3.40    5.20
  -3   4   6    3.90    4.60
  -2  -4   6  373.76   14.10
   2  -4  -6  395.46   16.50
   2   4  -6  410.56   15.90
  -2   4   6  395.26   14.50
   1  -4  -6 2625.64   75.69
  -1  -4   6 2442.76   75.69
   1  -4  -6 2594.84   77.69
   1   4  -6 2538.95   76.19
   1   4  -6 2658.33   77.49
  -1   4   6 2591.14   76.19
   0  -4   6  755.82   23.70
   0  -4  -6  724.83   23.50
   0  -4  -6  764.32   25.50
   0   4  -6  752.22   23.70
   0   4  -6  733.03   25.10
  -1  -4  -6 2228.68   63.79
  -1  -4  -6 2164.58   65.69
  -1   4  -6 2071.19   64.39
  -2  -4  -6   18.80    5.50
  -2   4  -6   13.60    4.80
  -3  -4  -6    9.00    5.50
  -3   4  -6    8.10    5.50
  -4  -4  -6  127.39   10.00
  -4   4  -6  171.68   12.70
  -5  -4  -6  315.57   18.20
  -5   4  -6  320.57   18.50
  -6  -4  -6   18.60   10.10
  -6   4  -6    8.50   10.10
  -7  -4  -6  102.59   14.50
  -7   4  -6   99.09   14.00
  -7  -5   6   -7.70   10.10
  -7   5   6   14.00   10.80
  -6  -5   6   -0.60    8.90
  -6   5   6   11.30    9.10
  -5  -5   6   90.99    9.90
  -5   5   6   61.39    8.40
   5   5  -6   80.69   10.10
  -4  -5   6  405.56   17.40
  -4   5   6  405.86   17.00
   4   5  -6  422.06   18.60
  -3  -5   6  430.76   16.80
   3  -5  -6  448.46   19.30
  -3   5   6  437.86   17.00
   3   5  -6  427.76   18.00
   2  -5  -6 1529.95   47.40
  -2  -5   6 1452.55   45.00
   2   5  -6 1469.55   46.20
  -2   5   6 1449.06   45.40
  -1  -5   6   20.40    3.60
  -1   5   6    7.70    1.80
   1   5  -6   18.50    5.50
   1   5  -6   15.90    3.80
   0  -5  -6   14.90    4.70
   0  -5  -6   27.00    3.90
   0  -5   6   29.40    5.40
   0   5  -6   26.20    3.70
   0   5  -6   21.00    5.10
  -1  -5  -6  546.15   17.70
  -1  -5  -6  522.45   19.40
  -1   5  -6  522.45   18.10
  -1   5  -6  506.45   20.00
  -2  -5  -6  705.53   26.10
  -2  -5  -6  727.63   25.50
  -2   5  -6  740.43   24.60
  -3  -5  -6  249.18   13.40
  -3   5  -6  250.57   13.20
  -4  -5  -6  336.87   15.80
  -4   5  -6  331.17   16.80
  -5  -5  -6   11.10    8.20
  -5   5  -6   -1.00    7.90
  -6  -5  -6   11.90   10.00
  -6   5  -6   -0.90    9.80
  -7  -5  -6   19.40   12.10
  -7   5  -6   13.70   12.70
  -7  -6   6   28.80   12.10
  -7   6   6   16.90    9.90
  -6  -6   6   14.90    9.70
  -6   6   6  -12.30    9.00
  -5  -6   6  273.37   16.40
  -5   6   6  270.87   16.30
   5   6  -6  258.87   17.70
  -4  -6   6   -2.10    5.80
   4   6  -6   -0.30    7.30
  -4   6   6    1.80    6.50
  -3  -6   6   90.39    7.40
   3  -6  -6   81.39    8.80
  -3   6   6   95.19    8.00
   3   6  -6  105.79    9.30
   2  -6  -6  190.48   12.30
  -2  -6   6  129.69    8.40
   2   6  -6  205.28   11.50
  -2   6   6  191.68    9.90
   1  -6  -6  245.88   12.90
   1  -6  -6  248.18   10.90
  -1  -6   6  251.77   10.60
   1   6  -6  245.58   12.50
   0  -6  -6   39.30    5.70
   0  -6  -6   61.09    5.20
   0   6  -6   46.80    4.20
   0   6  -6   50.09    6.70
  -1  -6  -6  453.65   16.20
  -1  -6  -6  466.45   18.00
  -1   6  -6  487.55   16.60
  -1   6  -6  461.35   18.50
  -2  -6  -6   88.29    6.90
  -2  -6  -6   92.39    8.00
  -2   6  -6   82.39    7.00
  -3  -6  -6    5.70    6.00
  -3   6  -6    4.00    5.60
  -4  -6  -6   -5.30    7.00
  -4   6  -6    1.70    7.00
  -5  -6  -6   73.29    9.80
  -5   6  -6   76.59   10.40
  -6  -6  -6    7.40    9.70
  -6   6  -6    2.10   10.50
  -7  -7   6    3.70   12.80
  -6  -7   6    3.50    9.70
  -6   7   6   14.30    8.40
  -5  -7   6   20.00    8.30
  -5   7   6   25.80    8.80
   5   7  -6   18.00    8.90
  -4  -7   6  109.69    9.60
   4   7  -6   97.99   10.40
  -4   7   6   96.19    9.80
   3  -7  -6   95.69    9.90
  -3  -7   6  110.79    9.20
  -3   7   6  130.49    9.70
   3   7  -6  121.79   10.00
   2  -7  -6  291.97   15.00
   2   7  -6  283.27   14.50
  -2   7   6  297.47   13.50
   1  -7  -6   48.60    7.20
   1  -7  -6   47.70    5.60
  -1  -7   6   41.90    5.10
   1   7  -6   46.40    6.60
   0  -7  -6   -0.20    3.80
   0  -7  -6    1.80    4.90
   0   7  -6   -3.40    5.70
  -1  -7  -6    5.40    3.90
  -1  -7  -6    3.50    5.20
  -1   7  -6    4.30    4.00
  -1   7  -6   10.50    6.50
  -2  -7  -6  378.26   15.10
  -2  -7  -6  411.76   17.50
  -2   7  -6  403.56   15.90
  -3  -7  -6  343.17   16.90
  -3   7  -6  356.86   16.70
  -4  -7  -6   18.10    8.20
  -4   7  -6   35.10    8.00
  -5  -7  -6   95.29   10.90
  -5   7  -6   72.09   10.90
  -6  -7  -6   43.90   10.90
  -6   7  -6   40.00   11.50
  -6  -8   6   80.39   10.90
  -6   8   6   90.09   12.30
  -5  -8   6   77.19   10.20
   5   8  -6  113.69   12.60
  -5   8   6   79.29   10.50
  -4  -8   6   80.99    9.10
  -4   8   6   77.99    9.40
   4   8  -6   68.59    9.80
   3  -8  -6    1.50    7.30
  -3  -8   6   12.60    6.10
   3   8  -6    7.10    7.30
  -3   8   6   17.60    6.10
  -2  -8   6   59.49    6.70
   2  -8  -6   48.10    9.00
  -2   8   6   63.09    7.10
   2   8  -6   79.99    8.40
  -1  -8   6  446.16   17.50
   1  -8  -6  456.65   19.50
   1  -8  -6  455.85   17.30
   1   8  -6  438.56   18.40
   0  -8  -6  362.96   16.50
   0  -8  -6  406.66   15.00
   0   8  -6  354.06   16.10
  -1  -8  -6  197.88   10.10
  -1  -8  -6  193.68   11.90
  -1   8  -6  189.18   12.80
  -2  -8  -6  246.18   12.00
  -2  -8  -6  271.57   14.40
  -2   8  -6  244.68   15.70
  -2   8  -6  280.27   13.40
  -3  -8  -6  141.59   11.20
  -3   8  -6  139.69   10.40
  -4  -8  -6    2.00    8.10
  -4   8  -6   -1.80    7.40
  -5  -8  -6  225.28   17.60
  -5   8  -6  153.58   13.40
  -6   8  -6  142.99   15.30
  -6  -9   6   -1.00   10.20
  -6   9   6   -8.60    8.70
  -5  -9   6    6.50    8.50
   5   9  -6   12.50    9.90
  -5   9   6    9.00    7.90
  -4  -9   6  121.49   10.30
   4   9  -6  149.29   12.60
  -4   9   6  146.29   11.10
   3  -9  -6  157.98   14.20
  -3  -9   6  137.99   11.70
  -3   9   6  161.28   12.00
   3   9  -6  154.98   11.90
   2  -9  -6   73.59    9.80
  -2  -9   6   78.49    7.90
   2  -9  -6   88.79    8.50
   2   9  -6   92.69    9.30
  -2   9   6  106.89    9.40
   1  -9  -6  195.48   11.00
  -1  -9   6  175.48   11.70
   1  -9  -6  187.48   13.80
   1   9  -6  180.78   11.50
   0  -9  -6   58.99    7.80
   0  -9  -6   52.59    6.30
   0   9  -6   50.19    7.60
  -1  -9  -6   -6.20    5.60
  -1  -9  -6   -2.20    4.80
  -1   9  -6    5.10    7.10
  -2  -9  -6  354.26   16.40
  -2  -9  -6  338.67   14.60
  -2   9  -6  292.07   17.60
  -3  -9  -6  118.29   10.70
  -3   9  -6  102.19    9.70
  -4  -9  -6   36.70    9.60
  -4   9  -6   45.10    9.40
  -5   9  -6   78.79   12.20
  -6 -10   6   24.10   12.90
  -5 -10   6   12.70    9.20
  -5  10   6   28.90   10.00
   5  10  -6   13.80   11.10
  -4 -10   6   53.79    9.40
  -4  10   6   51.09    9.60
   4  10  -6   36.50    9.50
  -3 -10   6   25.00    7.70
   3 -10  -6    3.90    9.30
   3  10  -6    8.20    7.40
  -3  10   6    8.10    7.60
   2 -10  -6    8.00    5.80
   2 -10  -6    3.30    9.10
  -2 -10   6    8.50    6.40
   2  10  -6    7.50    7.50
   1 -10  -6   13.90    7.90
   1 -10  -6   18.60    6.30
  -1 -10   6    4.50    3.60
   1  10  -6   15.90    6.50
   0 -10  -6   61.49    8.60
   0 -10  -6   52.59    6.60
   0  10  -6   53.09    8.00
  -1 -10  -6   -3.00    6.30
  -1 -10  -6    1.00    5.40
  -1  10  -6    3.80    7.50
  -2 -10  -6   91.59    9.40
  -2 -10  -6   63.59    7.40
  -2  10  -6   82.39   10.30
  -3 -10  -6    6.30    7.40
  -3  10  -6   -8.90    9.50
  -4  10  -6    7.30    8.60
  -5  10  -6   19.30   10.40
  -5 -11   6   10.70   10.10
   5  11  -6   40.10   12.00
  -5  11   6    8.00   10.10
  -4 -11   6    2.40    7.60
  -4  11   6   -6.60    8.20
   4  11  -6   -3.30    9.40
  -3 -11   6  137.29   11.10
  -3  11   6  142.59   12.20
   3  11  -6  141.49   12.50
   2 -11  -6   28.00   11.30
  -2 -11   6   54.19    8.80
   2 -11  -6   54.29    8.50
   2  11  -6   46.70    9.00
   1 -11  -6    8.20    9.10
   1 -11  -6   16.10    6.10
  -1 -11   6   10.80   10.40
   1  11  -6   15.90    7.80
   0 -11  -6   52.49    7.60
   0 -11  -6   64.89    9.80
   0  11  -6   43.80    8.70
  -1 -11  -6   68.39    8.10
  -1 -11  -6   70.09    9.30
  -1  11  -6   59.59    9.60
  -2 -11  -6   52.99    8.70
  -2 -11  -6   45.70    7.30
  -2  11  -6   41.50    9.50
  -3  11  -6   92.09   12.50
  -4  11  -6   25.70   11.80
  -5  11  -6    4.90   10.70
  -5 -12   6    7.90   11.50
   5  12  -6   37.40   11.10
  -4 -12   6    7.50    9.30
  -4  12   6   12.50    9.40
   4  12  -6   10.90   10.40
  -3 -12   6   52.09    9.80
   3  12  -6   30.50    9.70
  -3  12   6   29.60    9.40
   2 -12  -6   83.99   13.50
  -2 -12   6  120.19   11.40
   2 -12  -6  103.29   10.40
   2  12  -6   70.29    9.40
   1 -12  -6    0.80   10.10
   1 -12  -6    2.10    6.90
   1  12  -6    8.10    8.10
   0 -12  -6  334.87   16.60
   0 -12  -6  371.86   20.50
   0  12  -6  329.87   17.70
  -1 -12  -6  119.99   10.40
  -1 -12  -6  158.08   12.20
  -1  12  -6  136.69   12.40
  -2 -12  -6   22.80    7.20
  -2  12  -6   20.80    9.70
  -3  12  -6   35.50   10.90
  -4  12  -6   49.90   12.60
  -4 -13   6  -12.30    9.50
   4  13  -6    6.50   10.10
  -3 -13   6  102.49   12.50
  -3  13   6   92.09   11.70
   3  13  -6   84.99   11.70
   2 -13  -6   31.40   12.80
  -2 -13   6   46.10    9.80
   2 -13  -6   22.10    7.80
   2  13  -6   56.29    9.90
   1 -13  -6   19.00    7.80
   1 -13  -6   15.10   11.20
   1  13  -6   24.70    9.10
   0 -13  -6   52.59   11.40
   0 -13  -6   41.40    8.40
   0  13  -6   34.90    8.80
  -1 -13  -6   56.59    8.80
  -1  13  -6   85.49   11.00
  -2 -13  -6   -4.70    7.20
  -2  13  -6   11.00    9.40
  -3  13  -6  103.79   13.00
  -3 -14   6    7.00   10.60
   3  14  -6   13.10   10.20
   2 -14  -6    2.80    7.70
   2  14  -6    1.60    8.90
   1 -14  -6   -2.10    7.20
   1 -14  -6  -16.10   10.50
   1  14  -6    2.50    8.60
   0 -14  -6   38.10    8.70
   0  14  -6   33.50    9.50
  -1 -14  -6    5.30    8.10
  -1  14  -6   19.60    9.30
  -2 -14  -6   11.60    8.50
   2  15  -6    8.40    9.70
   1  15  -6   -9.20   16.90
  -7   0   7    0.20   10.90
  -6   0   7  -11.90    8.50
  -5   0   7  335.47   17.50
  -4   0   7   -1.50    5.50
   4   0  -7    5.50    5.00
   4   0  -7    2.50    5.60
   3   0  -7  373.76   15.40
   3   0  -7  359.46   15.20
  -2   0   7   -5.50    3.20
   2   0  -7   -0.50    3.90
   2   0  -7    0.90    4.40
  -1   0   7    6.40    2.60
   1   0  -7    9.60    4.40
   1   0  -7   11.10    4.10
   0   0  -7    2.10    3.70
   0   0  -7   -2.70    4.30
  -1   0  -7  755.62   25.40
  -2   0  -7    0.60    4.60
  -3   0  -7   62.89    7.90
  -4   0  -7   -4.30    7.20
  -5   0  -7   71.29   10.80
  -6   0  -7    1.40   10.90
  -7   0  -7   14.10   14.30
  -7  -1   7   14.50   11.20
  -7   1   7   14.70   10.00
  -6  -1   7  183.78   13.80
  -6   1   7  131.19   11.90
  -5  -1   7   -1.80    7.40
  -5   1   7  -10.70    7.20
   4  -1  -7   34.40    6.40
   4  -1  -7   15.00    3.80
  -4  -1   7   32.50    6.60
   4   1  -7   33.80    6.40
  -4   1   7   32.90    6.50
   3  -1  -7  274.97   13.00
  -3   1   7  234.68   11.40
   3   1  -7  261.57   12.00
   3   1  -7  261.97   11.90
   2  -1  -7  943.41   31.50
   2  -1  -7  877.71   30.30
  -2  -1   7  971.60   30.20
   2   1  -7  982.70   31.10
  -2   1   7  999.70   30.30
   2   1  -7  996.30   31.10
   1  -1  -7  627.64   22.10
  -1  -1   7  639.04   20.40
   1   1  -7  639.24   21.90
   1   1  -7  641.34   21.70
  -1   1   7  624.24   20.10
   0  -1  -7  206.28    9.90
   0  -1  -7  243.88   11.60
   0   1  -7  249.68   11.00
   0   1  -7  256.17   11.20
  -1  -1  -7    5.80    4.70
  -1   1  -7    7.20    4.00
  -2  -1  -7  311.27   13.80
  -2   1  -7  297.37   13.70
  -3  -1  -7  265.27   14.20
  -3   1  -7  270.57   14.20
  -4  -1  -7  447.96   20.20
  -4   1  -7  455.05   20.10
  -5  -1  -7   46.90   10.40
  -5   1  -7   42.80    9.90
  -6  -1  -7   17.50   11.40
  -6   1  -7    6.90   11.20
  -7  -1  -7   13.20   13.90
  -7   1  -7    3.90   13.50
  -7  -2   7   -9.60   10.60
  -7   2   7   16.00   10.90
  -6  -2   7   46.80    9.80
  -6   2   7   48.50    9.40
  -5  -2   7  376.36   18.90
  -5   2   7  395.36   18.90
   5   2  -7  413.76   20.10
   4  -2  -7  480.45   19.80
  -4  -2   7  492.05   19.20
   4   2  -7  476.55   19.80
  -4   2   7  481.65   19.30
   3  -2  -7  392.06   17.00
   3  -2  -7  428.26   15.30
  -3   2   7  387.86   15.50
   3   2  -7  397.66   16.50
   3   2  -7  367.96   14.80
   2  -2  -7   77.79    6.20
  -2  -2   7   72.19    5.90
   2  -2  -7   66.29    6.60
   2   2  -7   74.49    6.00
   2   2  -7   68.89    6.70
  -2   2   7   65.39    5.50
   1  -2  -7  890.11   29.00
   1  -2  -7  849.52   27.40
   1   2  -7  868.21   28.70
  -1   2   7  870.71   27.00
   1   2  -7  867.71   28.20
   0  -2  -7  896.81   29.90
   0  -2  -7  951.40   28.70
   0   2  -7  908.51   29.10
   0   2  -7  869.21   29.60
  -1  -2  -7 2011.90   61.69
  -1   2  -7 2017.20   60.89
  -2  -2  -7  500.45   19.30
  -2   2  -7  515.35   18.70
  -3  -2  -7   75.79    8.30
  -3   2  -7   55.09    7.10
  -4  -2  -7   -6.30    7.40
  -4   2  -7   -1.40    7.30
  -5  -2  -7  179.98   13.80
  -5   2  -7  191.58   16.60
  -6  -2  -7   19.80   11.20
  -6   2  -7   24.00   11.60
  -7  -3   7   85.49   13.40
  -7   3   7   89.09   12.20
  -6  -3   7   28.30    8.80
  -6   3   7   31.70    8.90
  -5  -3   7  115.29   10.40
  -5   3   7  109.09    9.80
   5   3  -7  124.09   11.40
  -4  -3   7   95.89    8.60
   4  -3  -7   74.79    8.90
   4   3  -7   88.09    9.50
  -4   3   7   85.99    8.30
   3  -3  -7  158.38   10.80
   3   3  -7  150.98   11.10
  -3   3   7  149.09    9.50
  -2  -3   7 1261.37   39.60
   2  -3  -7 1246.58   41.50
   2  -3  -7 1426.96   39.90
  -2   3   7 1315.17   40.00
   2   3  -7 1229.08   40.80
   2   3  -7 1273.57   39.90
   1  -3  -7 1013.90   31.30
   1  -3  -7 1060.19   33.50
   1   3  -7 1024.80   33.30
  -1   3   7 1000.20   31.40
   1   3  -7  995.80   32.30
   0  -3  -7  424.96   16.80
   0  -3  -7  427.26   14.50
   0   3  -7  404.06   15.10
   0   3  -7  399.76   16.50
  -1  -3  -7   94.99    8.10
  -1   3  -7   95.39    7.70
  -2  -3  -7  935.21   31.50
  -2   3  -7  965.50   31.30
  -3  -3  -7   37.70    7.30
  -3   3  -7   34.00    6.80
  -4  -3  -7  339.57   17.50
  -4   3  -7  309.27   17.20
  -5  -3  -7   28.40   10.10
  -5   3  -7   25.60    9.90
  -6  -3  -7   -4.00   10.90
  -6   3  -7   12.30   11.30
  -7  -4   7   14.00   11.20
  -7   4   7   -2.40   11.10
  -6  -4   7   48.40   10.70
  -6   4   7   37.40    9.10
  -5  -4   7   51.19    9.30
  -5   4   7   39.20    8.80
   5   4  -7   60.59   10.70
   4  -4  -7  515.95   21.80
  -4  -4   7  496.05   20.10
  -4   4   7  492.95   20.20
   4   4  -7  500.05   21.40
   3  -4  -7  172.88   11.90
  -3   4   7  177.88   10.50
   3   4  -7  192.38   12.30
   2  -4  -7  145.09    9.90
  -2  -4   7  140.19    8.00
   2   4  -7  169.38   10.70
   1  -4  -7   32.00    5.40
   1   4  -7   43.80    6.20
  -1   4   7   49.40    4.70
   1   4  -7   43.50    4.90
   0  -4  -7   88.99    6.40
   0  -4  -7   97.89    8.30
   0   4   7   89.69    6.00
   0   4  -7  102.89    7.30
   0   4  -7  103.49    8.40
  -1  -4  -7  314.57   14.90
  -1   4  -7  342.87   13.60
  -1   4  -7  313.97   15.10
  -2  -4  -7  222.48   13.00
  -2   4  -7  235.78   12.00
  -3  -4  -7    7.70    6.50
  -3   4  -7    6.70    6.40
  -4  -4  -7    1.50    7.80
  -4   4  -7    6.60    7.60
  -5  -4  -7   24.50    8.70
  -5   4  -7   23.30   10.10
  -6  -4  -7   12.70   10.50
  -6   4  -7    1.30   11.40
  -7  -5   7  120.19   13.40
  -7   5   7  132.79   14.70
  -6  -5   7   -5.40    9.50
  -6   5   7   12.40    9.60
  -5  -5   7   15.20    7.20
   5   5  -7   24.20   10.20
  -5   5   7   16.80    8.40
   4  -5  -7   46.50    8.50
  -4  -5   7   37.40    7.40
   4   5  -7   46.90    8.90
  -4   5   7   41.50    7.80
   3  -5  -7  518.05   22.40
   3   5  -7  510.35   20.50
  -3   5   7  546.05   19.90
  -2  -5   7    9.50    3.90
   2  -5  -7   10.50    5.70
   2   5  -7    7.20    5.40
  -2   5   7    4.10    4.40
   1  -5  -7  557.54   20.90
   1   5  -7  560.64   21.10
  -1   5   7  542.35   18.90
   0  -5  -7    3.60    5.20
   0  -5  -7   -1.50    3.20
   0   5  -7    0.70    5.00
   0   5  -7    5.50    3.80
  -1  -5  -7    3.20    5.50
  -1   5  -7   -0.90    4.20
  -1   5  -7   16.50    6.70
  -2  -5  -7    7.80    5.70
  -2   5  -7    8.70    5.30
  -3  -5  -7  380.16   17.50
  -3   5  -7  357.66   17.00
  -4  -5  -7   55.89    9.30
  -4   5  -7   68.79    9.50
  -5  -5  -7   82.59   10.80
  -5   5  -7   96.39   12.20
  -6  -5  -7   59.29   12.20
  -6   5  -7   50.19   13.00
  -7  -6   7   -0.50   11.80
  -6  -6   7  164.88   14.70
  -6   6   7  173.98   14.30
  -5  -6   7   18.80    7.50
  -5   6   7    3.00    8.00
   5   6  -7    2.00    9.80
  -4  -6   7  484.75   20.60
   4  -6  -7  530.85   24.00
   4   6  -7  510.05   22.50
  -4   6   7  517.95   21.10
   3  -6  -7    4.80    7.80
  -3  -6   7    5.20    4.90
   3   6  -7    5.40    7.20
  -3   6   7   -1.40    5.80
  -2  -6   7   45.10    5.50
   2  -6  -7   35.50    7.10
   2   6  -7   60.39    7.80
  -2   6   7   64.09    6.50
   1  -6  -7   -3.40    5.60
  -1   6   7    4.10    2.40
   1   6  -7    3.60    6.20
   0  -6  -7 1057.69   32.90
   0  -6  -7 1056.29   34.40
   0   6  -7 1006.00   34.60
  -1  -6  -7    0.60    5.10
  -1   6  -7    0.00    4.30
  -1   6  -7    3.30    6.00
  -2  -6  -7  535.95   21.90
  -2   6  -7  560.04   20.50
  -3  -6  -7  204.58   13.40
  -3   6  -7  237.38   14.10
  -4  -6  -7    1.30    8.10
  -4   6  -7    8.00    8.10
  -5  -6  -7   18.00    9.60
  -5   6  -7    6.90   10.20
  -6  -6  -7  162.18   14.90
  -6   6  -7  124.29   14.00
  -6  -7   7    9.00   10.40
  -6   7   7   17.60    9.90
  -5  -7   7    4.50    8.20
  -5   7   7   -2.70    7.20
   5   7  -7   -6.00    9.00
  -4  -7   7   23.80    7.20
   4   7  -7   20.10    9.00
  -4   7   7   23.80    7.00
   3  -7  -7  479.45   23.10
  -3  -7   7  466.75   19.40
  -3   7   7  502.55   20.10
   3   7  -7  512.35   20.50
   2  -7  -7    8.00    7.30
  -2  -7   7   11.60    5.00
   2   7  -7   16.70    7.20
  -2   7   7   11.50    5.30
   1  -7  -7  428.66   16.60
   1  -7  -7  441.96   18.20
   1   7  -7  443.26   18.70
   0  -7  -7  107.69    8.80
   0  -7  -7   86.49    6.70
   0   7  -7   74.79    8.30
  -1  -7  -7   33.30    6.90
  -1   7  -7   50.39    8.10
  -2  -7  -7   78.79    9.00
  -2   7  -7   51.09    8.70
  -2   7  -7   76.09    7.70
  -3  -7  -7  314.67   17.30
  -3   7  -7  310.27   16.20
  -4  -7  -7    2.20    8.50
  -4   7  -7    0.40    8.10
  -5  -7  -7  130.19   12.60
  -5   7  -7  128.79   13.90
  -6  -7  -7   49.30   11.60
  -6   7  -7   25.30   11.70
  -6  -8   7   26.20    9.90
  -6   8   7   20.90    9.60
  -5  -8   7   23.80    8.60
  -5   8   7   22.70    8.40
   5   8  -7   39.30   11.20
  -4  -8   7   66.89    8.60
   4   8  -7   70.19   10.10
  -4   8   7   83.89    9.80
   3  -8  -7   62.09   11.40
  -3  -8   7   63.49    7.90
  -3   8   7   94.89    9.40
   3   8  -7   97.99   10.70
   2  -8  -7   -3.70    7.90
  -2  -8   7    2.50    8.00
   2   8  -7    2.20    7.10
  -2   8   7    3.10    5.90
   1  -8  -7   14.20    7.20
   1  -8  -7   11.90    5.20
   1   8  -7   10.60    6.20
   0  -8  -7  126.89   10.40
   0  -8  -7  143.79    9.70
   0   8  -7  155.48   12.60
  -1  -8  -7   83.09    8.70
  -1   8  -7   75.49    9.70
  -2  -8  -7   48.80    8.40
  -2   8  -7   43.40    9.40
  -2   8  -7   38.70    8.30
  -3  -8  -7   29.90    8.60
  -3   8  -7   36.10    8.20
  -4  -8  -7   17.20    9.20
  -4   8  -7   15.60    8.70
  -5  -8  -7   -2.30    9.70
  -5   8  -7    4.80   10.40
  -6  -9   7   26.60   11.20
  -5  -9   7    5.20    8.70
   5   9  -7    8.20    9.80
  -5   9   7  -10.30    8.90
  -4  -9   7   27.20    8.30
   4   9  -7   19.10    8.90
  -4   9   7   -2.10    8.00
   3  -9  -7   30.00   10.20
  -3  -9   7   48.40    7.90
   3   9  -7   40.00    8.80
  -3   9   7   46.30    8.50
   2  -9  -7  235.78   17.80
  -2   9   7  284.17   15.10
   2   9  -7  267.07   15.90
   1  -9  -7   -9.10    7.40
   1  -9  -7    2.80    5.20
   1   9  -7    8.00    7.40
   0  -9  -7   93.39    9.60
   0  -9  -7   73.39    7.20
   0   9  -7   64.89    8.90
  -1  -9  -7   81.89    8.00
  -1  -9  -7   68.59    8.00
  -1   9  -7   76.59   10.00
  -2  -9  -7   37.20    8.50
  -2   9  -7   41.00   10.10
  -3  -9  -7   19.20    8.80
  -3   9  -7   22.00    9.50
  -3   9  -7   -0.40    9.80
  -4  -9  -7  142.19   13.20
  -4   9  -7  137.79   13.10
  -5  -9  -7   16.20   16.50
  -5   9  -7    8.30   11.10
  -5 -10   7  114.89   12.70
  -5  10   7  108.89   11.90
   5  10  -7  126.59   13.60
  -4 -10   7    4.20    8.10
  -4  10   7    8.30    8.40
   4  10  -7    2.20   10.10
   3 -10  -7   86.89   14.20
  -3 -10   7  112.99   10.50
   3  10  -7   83.39   10.50
  -3  10   7   94.09    9.70
   2 -10  -7   89.29   12.90
  -2  10   7  119.89   10.90
   2  10  -7  119.69   11.40
   1 -10  -7  146.29   12.80
   1 -10  -7  143.29   11.00
   1  10  -7  133.59   11.70
   0 -10  -7  130.79   11.30
   0 -10  -7  123.59    9.40
   0  10  -7  140.59   12.10
  -1 -10  -7  420.16   18.00
  -1 -10  -7  457.35   20.10
  -1  10  -7  439.16   21.10
  -2 -10  -7   37.70    8.10
  -2  10  -7   32.80   10.40
  -3 -10  -7  102.09   11.00
  -3  10  -7   47.30   11.10
  -4 -10  -7   67.29   11.20
  -5  10  -7   12.10   11.50
  -5 -11   7   13.30   10.40
   5  11  -7   13.50   10.50
  -4 -11   7   12.20    9.40
   4  11  -7   23.70   10.70
  -4  11   7    2.90    8.30
   3 -11  -7   36.80   13.50
  -3 -11   7   56.59    9.70
  -3  11   7   53.89   10.30
   3  11  -7   67.29   11.40
   2 -11  -7  265.87   19.00
  -2  11   7  266.27   17.00
   2  11  -7  241.38   17.20
   1 -11  -7    1.70    9.90
   1 -11  -7    2.80    6.80
   1  11  -7    4.60    8.50
   0 -11  -7  121.59    9.80
   0 -11  -7  153.08   12.70
   0  11  -7  159.78   13.00
  -1 -11  -7  183.18   14.60
  -1 -11  -7  167.18   12.90
  -1  11  -7  166.58   13.90
  -2 -11  -7   33.70    8.30
  -2  11  -7   23.90   10.50
  -3 -11  -7  102.79   11.20
  -3  11  -7   62.29   12.50
  -4  11  -7   45.70   13.50
  -4 -12   7   -1.10    9.50
  -4  12   7    8.80    9.50
   4  12  -7  -16.50   10.30
   3  12  -7   29.60   10.90
  -3  12   7   34.60   10.20
   2 -12  -7   26.50   12.70
   2 -12  -7   28.30    8.20
  -2  12   7   39.50    8.90
   2  12  -7   33.80    9.80
   1 -12  -7  -10.50   10.10
   1 -12  -7    8.80    7.10
   1  12  -7    8.60    9.20
   0 -12  -7   -2.40    9.30
   0 -12  -7    7.90    7.30
   0  12  -7   24.60    9.70
  -1 -12  -7   28.70    7.70
  -1 -12  -7   31.50    9.40
  -1  12  -7   30.40   10.70
  -2 -12  -7   10.30    8.70
  -2  12  -7   14.00   10.60
  -3  12  -7   24.90   11.90
  -4 -13   7   12.70   10.90
   4  13  -7   13.90   11.50
   3  13  -7  -14.00   10.30
  -3  13   7    0.40   10.00
   2 -13  -7   15.10    8.50
   2 -13  -7  -12.20   12.20
  -2  13   7   23.10   10.30
   2  13  -7   16.10   10.40
   1 -13  -7   39.50    8.50
   1 -13  -7   30.80   12.40
   1  13  -7   31.90   10.10
   0 -13  -7   -0.60    7.50
   0 -13  -7   -5.90   10.30
   0  13  -7   -0.60    9.50
  -1 -13  -7    2.30    7.10
  -1 -13  -7    1.70    9.30
  -1  13  -7   13.10    9.80
  -2  13  -7   12.80   10.80
  -3  13  -7   36.10   11.60
   2 -14  -7  -30.60   12.30
   2  14  -7   10.20   10.50
   1 -14  -7   37.30    9.30
   1 -14  -7   43.10   13.50
   1  14  -7   21.90   10.40
   0 -14  -7   47.20   12.30
   0 -14  -7   38.10    9.30
   0  14  -7   43.30   11.00
  -1 -14  -7   12.60    7.90
  -1  14  -7   26.40   10.50
  -7   0   8    6.60   11.60
  -6   0   8   55.79   11.10
  -5   0   8   -1.00    7.90
   4   0  -8  968.50   34.20
  -4   0   8 1049.00   34.70
   4   0  -8 1045.90   34.50
   3   0  -8    1.90    5.30
   3   0  -8    0.70    5.50
  -3   0   8   -2.60    4.60
   2   0  -8  423.26   17.10
   2   0  -8  438.26   16.40
   1   0  -8   -4.60    4.60
   1   0  -8   -5.10    4.30
   0   0  -8  772.42   25.40
   0   0  -8  745.43   25.90
  -1   0  -8    4.40    5.50
  -2   0  -8 1703.23   53.29
  -3   0  -8    6.50    6.40
  -4   0  -8  116.39   11.60
  -5   0  -8    7.00   10.20
  -6   0  -8   63.19   13.80
  -7  -1   8  103.29   14.30
  -7   1   8   98.79   14.00
  -6  -1   8   10.80    9.60
  -6   1   8    5.00    8.50
  -5  -1   8  173.48   14.30
   5   1  -8  172.48   13.10
  -5   1   8  193.58   14.50
   4  -1  -8   64.69    8.40
  -4  -1   8   36.10    7.40
   4   1  -8   53.39   10.40
   4   1  -8   57.99    8.10
  -4   1   8   53.49    7.90
   3  -1  -8  165.78   11.50
   3  -1  -8  125.49    9.40
  -3  -1   8  135.99    9.60
  -3   1   8  142.09    9.30
   3   1  -8  147.59   10.40
   3   1  -8  136.49    9.90
   2  -1  -8   26.70    4.90
   2  -1  -8   27.10    6.00
   2   1  -8   27.50    5.50
   2   1  -8   20.80    5.70
  -2   1   8   27.10    5.10
   1  -1  -8 1580.24   50.69
   1   1  -8 1671.63   50.59
   1   1  -8 1646.34   50.69
   0  -1  -8    4.10    5.10
   0  -1  -8    2.80    4.20
   0   1  -8    5.40    4.80
   0   1  -8    2.80    4.90
  -1  -1  -8  359.86   15.40
  -1   1  -8  366.36   15.30
  -2  -1  -8   42.50    6.60
  -2   1  -8   55.79    7.30
  -3  -1  -8  256.07   14.70
  -3   1  -8  248.48   14.90
  -4  -1  -8    4.60    8.70
  -4   1  -8   -3.40    8.30
  -5  -1  -8  144.79   14.00
  -5   1  -8  159.28   14.30
  -6  -1  -8   21.20   12.10
  -6   1  -8    8.40   11.50
  -7  -2   8   18.80   12.00
  -7   2   8   16.10   11.30
  -6  -2   8   -2.90    9.00
  -6   2   8  -12.00    9.10
  -5  -2   8   -5.60    7.70
  -5   2   8    9.80    8.10
   5   2  -8    8.00    8.90
  -4  -2   8  240.38   13.80
   4  -2  -8  249.28   15.30
  -4   2   8  263.07   14.10
   4   2  -8  247.08   15.00
   3  -2  -8  142.49   10.90
   3  -2  -8  137.59   11.60
  -3  -2   8   93.69    7.70
   3   2  -8  135.89    9.90
   3   2  -8  165.48   12.20
   2  -2  -8  283.67   14.20
   2  -2  -8  315.07   12.20
  -2   2   8  293.57   12.10
   2   2  -8  259.77   12.80
   2   2  -8  309.77   13.80
   1  -2  -8   49.99    6.80
   1  -2  -8   51.89    5.40
   1   2  -8   51.89    6.10
   1   2  -8   56.49    6.90
   0  -2  -8   27.20    6.00
   0  -2  -8   32.00    4.80
   0   2  -8   19.30    5.20
   0   2  -8   21.80    5.30
  -1  -2  -8    8.40    5.40
  -1   2  -8    4.90    5.20
  -2  -2  -8  303.57   14.50
  -2   2  -8  315.57   15.00
  -3  -2  -8   29.70    7.60
  -3   2  -8   25.90    6.80
  -4  -2  -8    5.60    8.70
  -4   2  -8   12.50    8.40
  -5  -2  -8   -1.20   10.20
  -5   2  -8    5.50   10.40
  -6  -2  -8    3.10   11.90
  -6   2  -8    8.70   11.80
  -7  -3   8    7.60   12.10
  -7   3   8   28.80   12.00
  -6  -3   8  106.09   12.60
  -6   3   8  133.19   12.70
  -5  -3   8   75.79   10.00
   5   3  -8   96.69   11.80
  -5   3   8   79.89   10.00
   4  -3  -8    8.80    8.00
  -4  -3   8    1.30    6.30
  -4   3   8   -2.10    6.30
   4   3  -8    9.80    7.10
  -3  -3   8   15.00    5.20
   3  -3  -8    6.80    7.00
   3   3  -8    5.40    5.90
  -3   3   8   -0.80    4.00
   2  -3  -8  314.27   15.00
  -2   3   8  305.17   12.30
   2   3  -8  317.67   14.70
   2   3  -8  292.17   13.80
   1   3  -8   71.79    7.20
   1   3  -8   69.59    6.50
   0  -3  -8  448.76   15.60
   0  -3  -8  441.06   18.10
   0   3  -8  440.26   17.80
   0   3  -8  430.26   16.70
  -1  -3  -8   52.29    7.50
  -1   3  -8   36.50    7.00
  -1   3  -8   32.40    5.70
  -2  -3  -8    2.70    6.50
  -2   3  -8    1.60    5.60
  -3  -3  -8   13.60    6.80
  -3   3  -8   35.60    8.00
  -4  -3  -8  211.28   16.40
  -4   3  -8  204.18   16.00
  -5  -3  -8   35.70   10.90
  -5   3  -8   26.00   10.80
  -6  -3  -8   51.59   13.20
  -6   3  -8   45.40   13.10
  -7  -4   8   -2.50   12.00
  -7   4   8   -2.90   10.20
  -6  -4   8   11.60   10.60
  -6   4   8   17.90    9.10
  -5  -4   8  207.58   15.30
  -5   4   8  197.68   15.20
   5   4  -8  176.48   14.10
   4  -4  -8   72.59   10.70
  -4  -4   8   69.49    8.30
   4   4  -8   80.89   10.40
  -4   4   8   65.09    8.50
  -3  -4   8  539.15   21.20
   3  -4  -8  595.74   24.30
   3   4  -8  597.34   22.50
  -3   4   8  625.64   21.90
   2  -4  -8    0.20    5.30
  -2   4   8   -2.10    4.40
   2   4  -8    4.50    6.30
   1  -4  -8   -0.50    4.70
   1   4  -8   -4.40    5.80
   1   4  -8    9.50    4.80
   0  -4  -8  118.09    9.40
   0   4  -8  117.09    9.50
   0   4  -8  126.69    9.10
  -1  -4  -8  778.02   27.70
  -1   4  -8  734.93   27.80
  -1   4  -8  806.92   26.40
  -2  -4  -8  143.89   11.30
  -2   4  -8  152.98   11.30
  -3  -4  -8  427.36   19.80
  -3   4  -8  425.06   19.40
  -4  -4  -8    5.60    8.80
  -4   4  -8    7.20    8.30
  -5  -4  -8    8.20   10.30
  -5   4  -8   -8.20    9.90
  -6  -4  -8   83.69   14.10
  -6   4  -8   87.09   14.60
  -7  -5   8   18.00   14.40
  -6  -5   8  179.28   15.20
  -6   5   8  180.58   14.80
  -5  -5   8    9.80    8.50
  -5   5   8    8.50    8.70
   5   5  -8   21.30   10.70
  -4  -5   8   55.59    8.10
   4  -5  -8   55.69   10.10
  -4   5   8   54.89    8.50
   4   5  -8   62.89   10.40
   3  -5  -8   66.19    9.30
   3   5  -8   68.99    8.70
  -3   5   8   83.89    7.90
   2  -5  -8  429.86   18.80
  -2   5   8  386.06   15.90
   2   5  -8  454.35   18.70
   1  -5  -8   88.09    8.20
   1   5  -8  104.89    8.90
   0  -5  -8  576.34   21.70
   0   5  -8  579.44   20.50
   0   5  -8  586.94   22.10
  -1  -5  -8    5.30    5.70
  -1   5  -8    3.00    7.10
  -1   5  -8   -1.70    4.90
  -2  -5  -8   -5.50    6.90
  -2   5  -8    1.70    6.00
  -3  -5  -8  234.78   16.30
  -3   5  -8  266.97   15.40
  -4  -5  -8   80.09   11.00
  -4   5  -8   66.79   10.00
  -5  -5  -8   36.70   10.70
  -5   5  -8   39.50   11.60
  -6  -5  -8   47.20   13.30
  -6   5  -8   34.40   13.10
  -6  -6   8  -10.90   10.20
  -6   6   8    4.20   10.60
  -5  -6   8   60.09   10.00
  -5   6   8   48.30    9.40
   5   6  -8   52.89   12.20
  -4  -6   8   12.40    6.90
   4  -6  -8  -14.30    9.50
   4   6  -8    9.60    8.60
  -4   6   8    9.80    7.60
   3  -6  -8  365.96   19.40
   3   6  -8  405.46   19.30
  -3   6   8  404.36   17.30
   2  -6  -8   14.40    7.60
   2   6  -8   25.20    7.00
  -2   6   8   10.40    4.30
   1  -6  -8   18.60    6.00
  -1   6   8   23.30    5.60
   1   6  -8   19.50    7.40
   0  -6  -8    0.50    5.30
   0   6  -8   -2.70    6.70
  -1  -6  -8  197.08   13.30
  -1   6  -8  199.38   10.90
  -1   6  -8  181.18   12.70
  -2  -6  -8   -7.80    7.20
  -2   6  -8   -0.50    8.30
  -2   6  -8    0.80    6.00
  -3  -6  -8   26.10    9.00
  -3   6  -8   19.30    7.60
  -4  -6  -8   19.80    9.80
  -4   6  -8   28.70    9.50
  -5  -6  -8   -3.20   10.30
  -5   6  -8    0.60   10.80
  -6  -7   8   82.29   12.20
  -6   7   8   90.59   13.00
  -5  -7   8   15.30    8.90
   5   7  -8    3.70   10.00
  -5   7   8    7.90    8.00
  -4  -7   8    6.60    7.20
   4  -7  -8   -2.00   10.70
  -4   7   8   13.10    7.50
   4   7  -8    6.70    8.70
   3  -7  -8   11.60    8.80
   3   7  -8   20.10    8.90
  -3   7   8   25.00    7.20
   2  -7  -8  315.27   16.90
  -2   7   8  324.47   14.90
   2   7  -8  313.57   16.00
   1  -7  -8  220.48   13.30
   1   7  -8  244.68   14.80
  -1   7   8  238.28   12.30
   0  -7  -8  118.49   10.10
   0   7  -8  100.59   10.70
  -1  -7  -8  120.89   10.20
  -1   7  -8   80.69   10.40
  -2  -7  -8   68.39    9.70
  -2   7  -8   55.69    8.00
  -2   7  -8   70.39   11.20
  -3  -7  -8   -0.90    8.70
  -3   7  -8    8.10    7.80
  -4  -7  -8   49.80   11.00
  -4   7  -8   54.99   10.40
  -5  -7  -8   67.19   12.70
  -5   7  -8   40.50   12.00
  -6  -8   8   13.80   10.90
  -6   8   8  -11.90   17.40
  -5  -8   8   91.49   11.00
   5   8  -8   66.49   12.00
  -5   8   8   92.09   10.70
   4  -8  -8  121.39   15.30
  -4  -8   8  166.18   12.60
  -4   8   8  140.29   11.70
   4   8  -8  125.39   13.70
   3  -8  -8  217.88   17.10
  -3   8   8  222.68   14.40
   3   8  -8  207.68   16.60
   2  -8  -8  132.79   12.50
  -2   8   8  141.49   10.20
   2   8  -8  123.19   11.00
   1  -8  -8  223.18   14.70
   1   8  -8  176.38   14.30
  -1   8   8  161.68   11.20
   0  -8  -8   16.90    6.60
   0   8  -8    1.20    8.10
  -1  -8  -8  387.76   17.90
  -1   8  -8  401.56   19.10
  -2  -8  -8  273.67   16.70
  -2   8  -8  238.38   18.30
  -3  -8  -8   40.70   10.10
  -3   8  -8   22.90    8.70
  -4  -8  -8  135.69   13.90
  -4   8  -8  121.89   13.00
  -5  -8  -8   20.20   11.40
  -5   8  -8   19.10   11.40
  -6  -9   8   31.10   19.20
  -5  -9   8   23.70   10.30
  -5   9   8   59.99   10.90
   5   9  -8   66.29   13.30
  -4   9   8   21.50    9.00
   4   9  -8   27.00   11.10
   3  -9  -8  -17.60   10.70
   3   9  -8   15.60    9.90
  -3   9   8   -1.70    7.70
   2  -9  -8  449.26   23.70
  -2   9   8  468.65   19.80
   2   9  -8  429.36   21.90
   1  -9  -8  156.28   11.20
   1  -9  -8  189.68   13.70
   1   9  -8  143.09   12.30
   0  -9  -8  114.19   10.60
   0   9  -8  112.29   12.20
  -1  -9  -8  227.78   15.10
  -1   9  -8  207.08   16.70
  -2  -9  -8   97.69   10.40
  -2   9  -8   86.09   12.10
  -3  -9  -8   -1.30    9.20
  -3   9  -8   -5.60   10.00
  -4  -9  -8   90.99   12.60
  -4   9  -8   62.39   11.60
  -5 -10   8   43.40   10.70
   5  10  -8   25.90   12.50
  -5  10   8   13.10    9.30
  -4  10   8   29.40    9.90
   4  10  -8   35.50   10.80
   3 -10  -8   -6.30   12.70
  -3  10   8   24.70    8.70
   3  10  -8   16.30   10.70
   2 -10  -8   82.99   13.10
  -2  10   8   66.59    9.30
   2  10  -8   97.79   12.10
   1 -10  -8    9.70    8.60
   1 -10  -8    6.00    6.50
   1  10  -8   26.60    9.80
   0 -10  -8    5.30    8.30
   0  10  -8    3.30    8.50
  -1 -10  -8  111.69   11.30
  -1  10  -8   91.29   12.50
  -2 -10  -8   41.50    9.40
  -2  10  -8   32.40   11.20
  -3 -10  -8    2.30    9.20
  -3  10  -8   -8.60   11.40
  -4 -10  -8   13.40   10.30
  -4  10  -8  -12.10   11.00
   5  11  -8   22.00   13.00
  -4  11   8   -1.20    9.40
   4  11  -8   -9.50    9.80
   3 -11  -8    2.80   13.40
   3  11  -8   10.80   10.40
  -3  11   8   10.00    8.00
   2 -11  -8  -12.50   11.20
   2  11  -8    9.60   10.30
  -2  11   8    3.10    8.10
   1 -11  -8   63.79    8.60
   1 -11  -8   79.59   12.70
   1  11  -8   71.59   11.40
   0 -11  -8   30.40    9.90
   0  11  -8   30.00   10.80
  -1 -11  -8   -1.50    8.40
  -1  11  -8   -1.00   10.00
  -2 -11  -8    4.70    8.80
  -2  11  -8   -0.60   11.00
  -3 -11  -8   15.70    9.70
  -3  11  -8   27.10   12.60
   4  12  -8   63.39   12.00
   3 -12  -8   -9.80   13.70
  -3  12   8   14.10    8.90
   3  12  -8   16.10   11.40
   2 -12  -8    1.00   12.70
  -2  12   8    3.70    9.20
   2  12  -8    9.90   10.70
   1 -12  -8   47.90   11.70
   1 -12  -8   46.50    8.50
   1  12  -8   43.70   10.90
   0 -12  -8  135.39   13.30
   0  12  -8  106.69   12.20
  -1 -12  -8    4.70    9.10
  -1  12  -8    2.30    9.80
  -2 -12  -8   77.59   11.20
  -2  12  -8   71.69   13.40
  -3  12  -8   51.09   13.30
   3  13  -8   21.60   12.20
   2 -13  -8   -8.50   13.30
   2  13  -8   16.50   11.30
  -2  13   8   -3.50   10.10
   1 -13  -8  110.49   15.20
   1 -13  -8   89.39   10.40
   1  13  -8   94.99   13.40
   0 -13  -8   52.39   11.70
   0  13  -8   40.50   11.20
  -1 -13  -8   -0.90    9.80
  -1  13  -8    9.10   11.40
  -7   0   9   78.29   14.10
  -6   0   9    0.50   10.20
   5   0  -9   -1.30    8.50
  -5   0   9    5.10    8.30
  -4   0   9    1.80    3.60
   4   0  -9   -0.20    6.70
   4   0  -9    1.20    6.90
   3   0  -9  357.36   15.50
   3   0  -9  328.37   16.30
   2   0  -9   -2.30    5.40
   2   0  -9   -0.10    5.20
   1   0  -9  373.56   15.90
   1   0  -9  343.67   15.20
   0   0  -9   -3.20    5.90
   0   0  -9    7.40    5.30
  -1   0  -9   -4.80    6.10
  -2   0  -9    5.90    7.00
  -3   0  -9   66.39    9.40
  -4   0  -9   -3.90    9.70
  -5   0  -9    1.00   11.10
  -7  -1   9   -0.70   11.20
  -7   1   9    4.60   11.90
  -6  -1   9  179.38   15.10
  -6   1   9  160.98   14.70
  -5  -1   9   15.20    8.40
  -5   1   9   11.30    8.50
   5   1  -9   23.20    9.10
   4  -1  -9  216.28   14.60
  -4   1   9  152.48   11.90
   4   1  -9  202.18   13.90
   3  -1  -9    6.50    7.10
   3  -1  -9   12.30    5.80
   3   1  -9   19.50    6.70
   3   1  -9    8.40    6.40
   2  -1  -9   33.30    6.70
   2  -1  -9   29.50    5.60
   2   1  -9   27.70    6.30
   2   1  -9   32.30    6.50
   1  -1  -9  230.68   12.70
   1   1  -9  208.18   12.10
   1   1  -9  213.08   11.90
   0  -1  -9  404.36   16.00
   0  -1  -9  429.36   17.90
   0   1  -9  423.56   17.00
   0   1  -9  406.56   17.40
  -1  -1  -9   86.79    8.80
  -1   1  -9  107.09    8.80
  -1   1  -9   74.69    8.00
  -2  -1  -9  149.79   12.60
  -2   1  -9  115.59    9.60
  -3  -1  -9   -1.60    7.80
  -3   1  -9    8.10    8.40
  -4  -1  -9   48.80   10.60
  -4   1  -9   27.60    9.10
  -5  -1  -9   28.30   10.50
  -5   1  -9   30.30   11.30
  -7  -2   9   18.70   10.80
  -7   2   9   15.40   13.80
  -6  -2   9  -14.00    9.70
  -6   2   9  -11.30   10.00
  -5  -2   9   59.79    9.50
   5   2  -9   84.29   11.80
  -5   2   9   76.59    9.90
   4  -2  -9  141.69   11.90
  -4   2   9  111.99   10.00
   4   2  -9  133.19   11.20
   3  -2  -9  506.65   21.90
   3   2  -9  522.55   20.90
   2  -2  -9  172.38   12.10
   2   2  -9  164.88   11.40
   2   2  -9  148.79   10.80
   1  -2  -9  107.19    8.60
   1  -2  -9  128.39    9.60
   1   2  -9  109.59    8.60
   1   2  -9  119.49    9.20
   0  -2  -9    6.60    5.90
   0  -2  -9   -1.00    4.70
   0   2  -9    1.00    5.80
   0   2  -9    2.30    5.60
  -1  -2  -9  171.88   12.00
  -1   2  -9  174.18   12.00
  -1   2  -9  192.88   12.70
  -2  -2  -9  207.08   14.50
  -2   2  -9  220.18   14.00
  -3  -2  -9  419.06   20.60
  -3   2  -9  422.16   20.10
  -4  -2  -9   76.99   11.50
  -4   2  -9   57.39   10.70
  -5  -2  -9   -3.70   10.20
  -5   2  -9   17.80   11.20
  -7  -3   9  -13.40   12.90
  -6  -3   9  109.99   13.10
  -6   3   9  101.09   12.50
  -5  -3   9  140.09   12.40
   5   3  -9  144.09   14.00
  -5   3   9  138.99   12.40
   4  -3  -9   26.10    9.60
   4   3  -9   19.80    8.70
  -4   3   9    6.90    7.20
   3  -3  -9   31.50    8.50
   3   3  -9   25.40    7.90
   2  -3  -9  216.98   13.60
   2   3  -9  198.48   13.10
   1  -3  -9   97.09    8.70
   1   3  -9   87.89    7.80
   1   3  -9   85.79    8.90
   0  -3  -9  441.36   18.50
   0   3  -9  466.45   18.30
   0   3  -9  457.15   19.00
  -1  -3  -9  119.39   10.50
  -1   3  -9  126.29   10.60
  -1   3  -9  131.59    9.70
  -2  -3  -9   29.30    7.50
  -2   3  -9   41.60    7.90
  -3  -3  -9   15.70    8.70
  -3   3  -9    6.40    7.80
  -4  -3  -9   52.99   10.00
  -4   3  -9   57.89   10.80
  -5  -3  -9   -5.40   10.60
  -5   3  -9    3.90   11.20
  -6  -4   9   29.10   11.30
  -6   4   9   23.70   10.40
  -5  -4   9   18.90    9.20
  -5   4   9   19.80    9.20
   5   4  -9   45.40   11.50
   4  -4  -9   50.29   11.00
   4   4  -9   44.90   10.40
  -4   4   9   27.30    7.90
   3  -4  -9   70.59   10.40
   3   4  -9   59.09    9.10
   2  -4  -9  316.97   16.30
   2   4  -9  286.07   14.90
   1  -4  -9    1.80    5.20
   1   4  -9   -6.10    5.90
   0  -4  -9   -0.90    5.50
   0   4  -9    1.80    6.10
   0   4  -9    1.80    5.40
  -1  -4  -9   17.10    7.00
  -1   4  -9   21.80    7.20
  -1   4  -9   21.40    6.60
  -2  -4  -9   28.90    8.50
  -2   4  -9   27.30    7.60
  -3  -4  -9    7.30    8.20
  -3   4  -9    7.50    8.30
  -4  -4  -9   25.40   10.40
  -4   4  -9   37.60   10.30
  -5  -4  -9    7.30   11.10
  -5   4  -9    6.20   11.70
  -6  -5   9   -7.70   10.10
  -6   5   9  -12.80   10.40
   6   5  -9    3.20   12.60
  -5   5   9  165.78   13.20
   5   5  -9  136.69   13.60
   4  -5  -9   -4.90    8.70
   4   5  -9    7.20    9.80
  -4   5   9   -6.00    7.30
   3  -5  -9   12.80    8.10
   3   5  -9   15.50    7.80
  -3   5   9    7.40    5.00
   2  -5  -9    1.60    6.40
   2   5  -9    1.20    6.80
   1  -5  -9  400.26   17.90
   1   5  -9  368.36   17.30
   0  -5  -9   72.99    8.70
   0   5  -9   64.79    8.60
  -1  -5  -9  209.18   13.30
  -1   5  -9  230.48   12.60
  -1   5  -9  186.58   14.70
  -2  -5  -9   40.90    9.10
  -2   5  -9   43.10    8.00
  -2   5  -9   27.60    8.80
  -3  -5  -9   23.70    9.90
  -3   5  -9   44.80    9.50
  -4  -5  -9    2.90    9.90
  -4   5  -9  -10.80    9.20
  -5  -5  -9   53.29   12.50
  -5   5  -9   17.70   11.70
  -6  -6   9   -7.80   10.70
   6   6  -9   11.50   11.50
  -6   6   9    5.00   10.80
   5   6  -9   -3.00   10.70
  -5   6   9    3.00    9.50
   4  -6  -9  199.08   16.70
   4   6  -9  229.88   18.20
  -4   6   9  246.08   15.30
   3  -6  -9   -9.20    8.80
  -3   6   9   12.70    6.80
   3   6  -9    0.70    9.00
   2  -6  -9  437.66   20.60
   2   6  -9  396.06   20.00
   1  -6  -9  210.98   14.40
   1   6  -9  230.28   15.30
   0  -6  -9   21.50    7.40
   0   6  -9   14.80    7.50
  -1  -6  -9   50.29    8.60
  -1   6  -9   47.70    9.60
  -2  -6  -9  558.74   23.60
  -2   6  -9  500.05   25.10
  -2   6  -9  602.24   22.70
  -3  -6  -9   22.80   10.40
  -3   6  -9   30.70    8.80
  -4  -6  -9  104.49   12.80
  -4   6  -9  102.39   13.10
  -5  -6  -9   19.00   12.00
  -5   6  -9   24.40   12.50
  -6  -7   9   -1.60   11.70
   6   7  -9    6.50   13.50
  -5   7   9  123.49   12.00
   5   7  -9  101.89   13.60
   4  -7  -9   73.39   12.90
  -4   7   9   73.29    9.60
   4   7  -9   88.69   13.10
   3  -7  -9    0.10    9.20
  -3   7   9   -2.90    6.80
   3   7  -9  -12.50    9.10
   2  -7  -9   76.49   11.00
   2   7  -9   66.09    9.60
   1  -7  -9  426.16   19.10
   1   7  -9  411.56   19.40
   0  -7  -9   10.00    7.10
   0   7  -9   -0.20    8.60
  -1  -7  -9  299.07   16.20
  -1   7  -9  294.17   18.50
  -2  -7  -9  130.39   12.30
  -2   7  -9   85.19   11.80
  -3  -7  -9   11.00    9.60
  -3   7  -9    3.60    8.60
  -4  -7  -9   49.60   12.00
  -4   7  -9   39.80   11.40
  -5   8   9   19.90    9.80
   5   8  -9    2.10   10.40
   4  -8  -9   31.30   14.10
  -4   8   9   36.90    9.40
   4   8  -9   51.09   12.10
   3  -8  -9   16.90   11.90
  -3   8   9   36.60    8.30
   3   8  -9   36.60    9.90
   2  -8  -9  154.08   13.30
   2   8  -9  162.28   13.50
   1  -8  -9   66.69    9.20
   1   8  -9   74.79   10.50
   0  -8  -9   -2.10    7.50
   0   8  -9   -0.20    8.30
  -1  -8  -9   15.30    7.60
  -1   8  -9   19.50    9.20
  -2  -8  -9   73.19   10.40
  -2   8  -9   78.19   12.90
  -3  -8  -9   -4.10    9.70
  -3   8  -9   -0.10   11.50
  -4  -8  -9   -2.80   10.90
  -4   8  -9  -11.00   10.00
   5   9  -9    6.50   12.70
  -5   9   9   31.10   11.00
   4  -9  -9   35.90   14.60
   4   9  -9   50.59   12.80
  -4   9   9   37.50    9.50
   3  -9  -9  -16.30   11.90
  -3   9   9   -0.80    7.50
   3   9  -9    3.10   10.70
   2  -9  -9    0.80   10.40
   2   9  -9   20.10   10.40
   1  -9  -9   27.60    8.80
   1   9  -9   25.10    9.20
   0  -9  -9  128.69   11.90
   0   9  -9  107.09   12.10
  -1  -9  -9   -5.10    8.00
  -1   9  -9   -4.80   10.20
  -2  -9  -9   22.10    9.50
  -2   9  -9    4.50   11.50
  -3  -9  -9   15.20   10.40
  -3   9  -9   18.70   12.40
  -4  -9  -9   23.70   11.60
  -4   9  -9   -1.30   11.40
   4  10  -9   25.40   12.30
  -4  10   9   20.30   10.00
   3 -10  -9  165.78   17.90
  -3  10   9  147.39   12.60
   3  10  -9  157.78   15.40
   2 -10  -9  -31.50   10.70
   2  10  -9    0.30   10.50
   1 -10  -9   32.50   10.80
   1  10  -9   33.90   11.30
   0 -10  -9  140.69   12.80
   0  10  -9  103.39   12.50
  -1 -10  -9  116.79   11.80
  -1  10  -9   87.19   13.10
  -2 -10  -9   26.90    9.70
  -2  10  -9   -0.10   11.40
  -3 -10  -9  117.89   13.30
  -3  10  -9  114.19   15.80
   4  11  -9   19.40   13.10
   3 -11  -9   27.20   14.70
   3  11  -9   12.00   10.50
  -3  11   9   39.10   10.40
   2 -11  -9   29.30   12.90
   2  11  -9   17.40   11.20
   1 -11  -9  131.39   14.40
   1  11  -9   94.09   12.50
   0 -11  -9  181.28   14.40
   0  11  -9  165.58   15.60
  -1 -11  -9   21.60    9.40
  -1  11  -9    8.60   12.00
  -2 -11  -9   26.80   10.20
  -2  11  -9   40.10   13.20
   3 -12  -9   35.00   15.50
   3  12  -9   35.00   12.70
  -3  12   9   23.30   11.50
   2 -12  -9  -18.70   12.20
   2  12  -9   14.90   11.90
   1 -12  -9   18.20   11.90
   1  12  -9   24.30   11.60
   0 -12  -9   71.59   12.10
   0  12  -9   54.39   12.80
  -1 -12  -9   24.50   10.30
  -1  12  -9   11.50   12.70
   3   0 -10   -8.20    6.90
   3   0 -10   -5.90    6.50
   2   0 -10  416.26   18.00
   2   0 -10  413.26   17.20
   1   0 -10    0.60    5.70
   1   0 -10   -0.10    6.30
   0   0 -10   39.80    7.60
   0   0 -10   48.20    6.90
  -1   0 -10    4.60    6.80
  -1   0 -10   -7.20    6.60
  -2   0 -10   84.09   10.10
  -3   0 -10   -2.90    9.00
  -4   0 -10  187.18   15.50
  -5   0 -10   -2.80   11.80
  -6   1  10  -10.50   10.70
   5   1 -10  251.97   18.90
   4  -1 -10   14.00    8.80
   4   1 -10   33.10    9.00
   3  -1 -10   64.59    9.50
   3   1 -10   65.89    8.70
   2  -1 -10   70.39    8.60
   2   1 -10   57.99    7.60
   2   1 -10   52.79    7.70
   1  -1 -10  121.29    9.90
   1   1 -10  121.49    9.50
   1   1 -10  115.29    9.60
   0  -1 -10   -4.50    5.30
   0  -1 -10   -4.20    6.30
   0   1 -10   -4.00    6.00
   0   1 -10   -0.90    6.70
  -1  -1 -10  195.08   12.70
  -1  -1 -10  165.28   13.90
  -1   1 -10  167.88   13.10
  -1   1 -10  155.48   13.50
  -2  -1 -10    2.20    8.40
  -2   1 -10    2.10    8.10
  -3  -1 -10   34.70   10.30
  -3   1 -10   41.40   10.30
  -4  -1 -10    6.40   10.60
  -4   1 -10    6.80   10.70
  -5  -1 -10   19.50   12.50
  -5   1 -10   17.20   12.60
  -6   2  10   88.39   12.60
   5   2 -10   27.80   10.70
   4  -2 -10    8.90    9.10
   4   2 -10    2.20    8.50
   3  -2 -10   20.90    8.40
   3   2 -10   15.10    7.50
   2  -2 -10  150.38   12.80
   2   2 -10  162.78   12.60
   1  -2 -10  174.38   12.60
   1   2 -10  159.58   12.30
   1   2 -10  150.08   12.20
   0  -2 -10   23.00    7.60
   0   2 -10   18.10    7.00
   0   2 -10   21.40    7.50
  -1  -2 -10    4.50    6.80
  -1  -2 -10    6.80    4.80
  -1   2 -10    0.10    7.70
  -1   2 -10   10.00    7.30
  -2  -2 -10    4.00    8.70
  -2   2 -10    1.30    7.80
  -3  -2 -10   13.40    8.70
  -3   2 -10   38.10   10.20
  -4  -2 -10   22.20   11.20
  -4   2 -10   20.90   11.60
  -5  -2 -10   -0.90   11.50
  -5   2 -10   15.10   12.40
  -6   3  10   15.30   11.30
   5   3 -10   51.19   11.00
   4  -3 -10  162.38   14.50
   4   3 -10  138.49   12.80
   3  -3 -10   40.30    9.70
   3   3 -10   49.00    9.30
   2  -3 -10   10.50    7.40
   2   3 -10    0.60    7.10
   1  -3 -10   37.10    6.90
   1   3 -10   44.20    8.30
   1   3 -10   32.60   10.70
   0  -3 -10  364.06   17.90
   0   3 -10  372.16   18.10
   0   3 -10  383.36   17.60
  -1  -3 -10   29.80    8.40
  -1   3 -10   27.30    7.70
  -1   3 -10   27.40    8.60
  -2  -3 -10  187.68   14.30
  -2   3 -10  212.58   15.00
  -3  -3 -10  -20.60    9.40
  -3   3 -10   -1.00    9.10
  -4  -3 -10    5.00   10.90
  -4   3 -10    6.70   10.10
  -5  -3 -10    4.90   12.00
  -5   3 -10    3.20   12.40
  -6   4  10    3.20   11.20
   6   4 -10    8.40   12.70
   5   4 -10   -4.80    9.10
   4  -4 -10   33.60   11.50
   4   4 -10   45.10   10.90
   3  -4 -10  229.58   17.10
   3   4 -10  207.98   16.10
   2  -4 -10  122.79   10.50
   2   4 -10  120.99   11.50
   1  -4 -10  456.55   18.70
   1   4 -10  401.96   18.80
   0  -4 -10    6.90    7.50
   0   4 -10    9.20    7.50
   0   4 -10    2.30    8.00
  -1  -4 -10   -3.40    7.70
  -1   4 -10   -6.70    6.90
  -1   4 -10   -1.20    7.40
  -2  -4 -10  160.98   13.60
  -2   4 -10  123.09   10.90
  -2   4 -10  121.09   12.10
  -3  -4 -10  283.97   20.00
  -3   4 -10  282.67   19.90
  -4  -4 -10   20.00   11.30
  -4   4 -10   19.00   10.60
  -6   5  10   34.10   11.20
   6   5 -10   32.00   13.50
  -5   5  10   36.90   15.00
   5   5 -10   12.90   11.30
   4  -5 -10  212.58   17.30
   4   5 -10  204.78   15.50
   3  -5 -10   20.50   10.00
   3   5 -10    9.70    9.20
   2  -5 -10   15.20    8.50
   2   5 -10   -6.20    8.50
   1  -5 -10  240.48   15.10
   1   5 -10  217.78   15.90
   0  -5 -10  142.59   11.60
   0   5 -10  148.29   11.90
  -1  -5 -10   80.09    9.90
  -1   5 -10  100.19   11.80
  -1   5 -10  104.39   10.40
  -2  -5 -10  235.28   16.70
  -2   5 -10  239.58   16.90
  -2   5 -10  255.77   17.10
  -3  -5 -10   12.20    9.30
  -3   5 -10    8.70    9.30
  -4  -5 -10    3.60   11.40
  -4   5 -10   11.60   11.40
   5   6 -10   11.70   10.30
  -5   6  10   22.50   11.00
   4  -6 -10   24.50   12.60
   4   6 -10   46.10   11.90
   3  -6 -10   57.99   11.70
   3   6 -10   80.89   11.80
   2  -6 -10   14.40    8.90
   2   6 -10   15.30    9.40
   1  -6 -10  149.39   12.10
   1   6 -10  107.59   11.80
   0  -6 -10   12.60    8.20
   0   6 -10   10.60    8.40
  -1  -6 -10   10.30    9.00
  -1   6 -10   11.30    9.50
  -2  -6 -10    6.90    9.80
  -2   6 -10   18.70   11.10
  -2   6 -10   27.80    9.70
  -3  -6 -10   -2.20   10.00
  -3   6 -10   -0.60   11.30
  -3   6 -10   11.10    9.70
  -4  -6 -10   11.10   11.00
  -4   6 -10    3.20   10.90
  -5   7  10   -3.90   10.20
   5   7 -10   12.20   12.10
   4  -7 -10   53.79   14.80
   4   7 -10   57.79   11.40
   3  -7 -10   41.40   11.80
   3   7 -10   53.09   11.50
   2  -7 -10    6.80    9.80
   2   7 -10    5.60    9.60
   1  -7 -10   -2.00    7.50
   1   7 -10   -7.70    8.80
   0  -7 -10   77.59   10.10
   0   7 -10   58.09   10.40
  -1  -7 -10   70.99    9.90
  -1   7 -10   63.09   11.80
  -2  -7 -10   26.70   10.30
  -2   7 -10  -14.30   10.40
  -3  -7 -10    8.90   10.90
  -3   7 -10   20.40   12.40
  -4  -7 -10   17.70   11.80
  -4   7 -10   12.10   11.70
   5   8 -10    0.90   11.60
  -5   8  10    8.10   10.20
   4  -8 -10  -28.60   12.60
   4   8 -10   -2.30   11.60
   3  -8 -10   95.69   14.60
   3   8 -10   89.69   12.20
   2  -8 -10  122.29   13.80
   2   8 -10  102.79   12.90
   1  -8 -10   43.80   10.30
   1   8 -10   26.10    9.40
   0  -8 -10  163.68   13.20
   0   8 -10  136.59   14.40
  -1  -8 -10   67.19   10.70
  -1   8 -10   62.59   12.30
  -2  -8 -10   23.40   10.40
  -2   8 -10   19.60   11.80
  -3  -8 -10   97.59   12.90
  -3   8 -10   64.39   13.10
   4  -9 -10   20.90   15.20
   4   9 -10   10.20   12.40
   3  -9 -10   95.09   16.00
   3   9 -10   85.79   13.40
   2  -9 -10   34.70   12.00
   2   9 -10   31.30   11.70
   1  -9 -10    7.50   10.10
   1   9 -10   -2.10    9.90
   0  -9 -10  192.98   16.60
   0   9 -10  149.29   14.40
  -1  -9 -10  169.58   13.60
  -1   9 -10  114.39   14.50
  -2  -9 -10    1.50   10.10
  -2   9 -10   13.10   10.80
  -3  -9 -10   47.50   11.90
  -3   9 -10   35.50   13.70
   4 -10 -10  -28.50   14.90
   3 -10 -10   11.60   13.70
   3  10 -10   17.10   12.40
   2 -10 -10   40.20   11.80
   2  10 -10   60.19   11.60
   1 -10 -10   18.50   11.10
   1  10 -10   29.60   10.70
   0 -10 -10   63.39   11.30
   0  10 -10   57.29   13.00
  -1 -10 -10   48.90   10.70
  -1  10 -10   37.90   13.10
  -2 -10 -10  -10.10    9.70
  -2  10 -10   -7.60   12.40
   3 -11 -10   -7.50   13.80
   2 -11 -10    7.70   13.40
   2  11 -10  -10.40   10.20
   1 -11 -10   11.00   11.80
   1  11 -10   22.20   12.60
   0 -11 -10    3.30    9.90
   0  11 -10   19.20   12.50
  -1 -11 -10   61.39   11.50
  -1  11 -10   43.10   13.60
   3   0 -11    7.50    8.40
   2   0 -11   -0.20   12.00
   2   0 -11   -4.50    7.00
   1   0 -11  193.08   13.90
   1   0 -11  200.28   13.30
   0   0 -11    1.40    7.30
   0   0 -11    1.90    7.00
  -1   0 -11   12.10    7.50
  -1   0 -11   -1.90    7.90
  -2   0 -11    6.60    9.70
  -3   0 -11    6.50    9.50
  -4   0 -11   15.00   11.90
   4  -1 -11  174.88   20.20
   4   1 -11  193.38   16.50
   3  -1 -11   20.10    8.80
   3   1 -11   27.30    8.40
   2  -1 -11   68.39    9.30
   2   1 -11   67.19    8.80
   2   1 -11   64.99    8.90
   1  -1 -11    3.60    7.30
   1   1 -11   -3.70    7.00
   1   1 -11    7.80    7.20
   0  -1 -11  125.89   11.30
   0   1 -11  110.79   10.20
   0   1 -11  127.79   11.00
  -1  -1 -11   31.50    9.20
  -1  -1 -11   32.00    7.60
  -1   1 -11   23.60    8.60
  -1   1 -11   26.40    9.00
  -2  -1 -11   72.69   11.40
  -2   1 -11   55.89    9.60
  -2   1 -11   66.59   10.70
  -3  -1 -11   37.90   11.30
  -3   1 -11   54.19   11.80
  -4  -1 -11   11.00   11.70
  -4   1 -11    8.00   10.50
   5   2 -11   51.19   11.50
   4  -2 -11   -3.00   10.20
   4   2 -11   -6.20    9.10
   3  -2 -11  102.29   11.70
   3   2 -11   76.39   10.10
   2  -2 -11   48.60    9.00
   2   2 -11   36.10    8.80
   1  -2 -11  314.77   16.70
   1   2 -11  285.27   16.20
   1   2 -11  297.47   16.30
   0  -2 -11  106.19   10.50
   0   2 -11   94.69   10.10
   0   2 -11  105.99   10.20
  -1  -2 -11    2.20    8.50
  -1   2 -11    0.70    8.40
  -1   2 -11   -8.80    8.30
  -2  -2 -11   10.90    8.80
  -2   2 -11   33.20   10.40
  -2   2 -11   14.90    9.90
  -3  -2 -11   78.49   13.30
  -3   2 -11   80.79   12.40
  -4  -2 -11   11.70   11.80
  -4   2 -11   15.00   12.30
   5  -3 -11    7.10   12.00
   5   3 -11    3.40   10.50
   4  -3 -11  148.09   15.10
   4   3 -11  150.88   13.30
   3  -3 -11   89.39   11.60
   3   3 -11   87.99   11.10
   2  -3 -11    0.50    8.10
   2   3 -11    1.90    8.50
   1  -3 -11   56.49    8.60
   1   3 -11   59.59    9.60
   0  -3 -11  119.79   10.90
   0   3 -11  132.79   11.10
   0   3 -11  124.59   11.90
  -1  -3 -11   12.10    9.20
  -1   3 -11    0.40    9.00
  -1   3 -11    0.00    8.20
  -2  -3 -11  111.39   13.20
  -2   3 -11   98.99   11.60
  -2   3 -11  105.59   11.90
  -3  -3 -11   51.69   11.30
  -3   3 -11   43.30   11.70
  -4  -3 -11    5.80   12.20
  -4   3 -11    5.90   12.50
   5  -4 -11    0.90   12.50
   5   4 -11    2.10   11.20
   4  -4 -11   27.60   12.00
   4   4 -11   53.89   11.40
   3  -4 -11   38.40   10.50
   3   4 -11   37.50   10.10
   2  -4 -11    7.60    8.60
   2   4 -11    7.40    9.00
   1  -4 -11   44.10    9.00
   1   4 -11   32.50    9.60
   0  -4 -11  120.39   11.50
   0   4 -11   99.19   11.60
  -1  -4 -11   -6.30    8.60
  -1   4 -11   -4.10    9.10
  -1   4 -11   -0.40    8.20
  -2  -4 -11   38.60   10.90
  -2   4 -11   38.40   10.10
  -2   4 -11   21.60    9.80
  -3  -4 -11   13.90   10.60
  -3   4 -11    7.60   10.30
   5  -5 -11   22.60   13.70
   5   5 -11   19.70   12.00
   4  -5 -11   -6.90   12.50
   4   5 -11   -2.90    9.10
   3  -5 -11  130.09   14.00
   3   5 -11  110.09   12.70
   2  -5 -11    1.30    9.10
   2   5 -11   -0.50    9.40
   1  -5 -11    5.50    8.60
   1   5 -11    7.40    8.20
   0  -5 -11    7.80    8.50
   0   5 -11    3.50    9.10
  -1  -5 -11  117.19   12.60
  -1   5 -11   93.09   11.40
  -2  -5 -11   17.70   10.90
  -2   5 -11   28.20   11.00
  -2   5 -11   41.10   10.20
  -3  -5 -11   18.20   10.40
  -3   5 -11   38.80   11.70
  -3   5 -11   29.60   12.80
   5   6 -11    7.60   12.50
   4  -6 -11    6.30   13.00
   4   6 -11   -0.30   10.70
   3  -6 -11    4.50   11.00
   3   6 -11   11.80   10.60
   2  -6 -11  179.28   14.40
   2   6 -11  173.58   14.60
   1  -6 -11   11.30    9.20
   1   6 -11    8.00    8.60
   0  -6 -11  158.58   12.90
   0   6 -11  166.58   14.30
  -1  -6 -11   58.89   11.00
  -1   6 -11   32.10   10.10
  -2  -6 -11   23.50   11.30
  -2   6 -11   44.70   12.30
  -3  -6 -11    6.60   12.10
  -3   6 -11    6.90   11.30
  -3   6 -11   10.00   11.10
   4  -7 -11   -9.90   13.60
   4   7 -11   -3.00   10.30
   3  -7 -11  126.49   15.20
   3   7 -11   84.59   13.50
   2  -7 -11   58.39   12.10
   2   7 -11   38.30   10.30
   1  -7 -11    5.20    9.60
   1   7 -11    6.20    9.20
   0  -7 -11   35.60    8.90
   0   7 -11   36.10   10.30
  -1  -7 -11  173.48   14.30
  -1   7 -11  164.58   15.70
  -2  -7 -11    5.60   10.20
  -2   7 -11   -2.20   11.40
   4  -8 -11  -13.50   11.90
   4   8 -11   -3.60   11.70
   3  -8 -11   13.80   12.50
   3   8 -11   12.90   11.20
   2  -8 -11   57.19   12.30
   2   8 -11   57.59   11.40
   1  -8 -11    4.20    8.50
   1   8 -11    6.10   10.80
   0  -8 -11   30.20    9.80
   0   8 -11   21.20   10.40
  -1  -8 -11   71.09   11.20
  -1   8 -11   54.89   12.60
  -2  -8 -11   17.10   11.10
  -2   8 -11    4.60   10.70
   3  -9 -11  -12.30   13.30
   3   9 -11   11.30   12.50
   2  -9 -11   21.30   10.80
   2   9 -11    4.00   11.70
   1  -9 -11   -5.80   10.40
   1   9 -11    4.10   11.50
   0  -9 -11    3.70    9.80
   0   9 -11    0.80   11.50
  -1  -9 -11   31.50   10.60
  -1   9 -11   15.90   12.80
   2 -10 -11    3.90   12.80
   2  10 -11   25.90   12.80
   1 -10 -11  100.79   13.70
   1  10 -11   84.09   14.70
   0 -10 -11   -1.40    9.70
   0  10 -11   -6.00   11.70
   2   0 -12   94.29   10.30
   1   0 -12  -12.60    7.70
   0   0 -12  290.07   18.00
  -1   0 -12    3.90    9.60
  -1   0 -12   13.20    8.30
  -2   0 -12    7.30   10.50
  -2   0 -12   16.00    9.90
  -3   0 -12    5.90   10.80
   3  -1 -12  155.48   13.60
   2  -1 -12    3.10    8.50
   2   1 -12   -0.20    8.40
   1  -1 -12   53.09    9.50
   1   1 -12   40.70    8.70
   1   1 -12   38.00    8.30
   0  -1 -12   20.60    9.00
   0   1 -12   15.50    8.40
   0   1 -12    6.70    8.10
  -1  -1 -12   67.29   11.30
  -1   1 -12   61.69    9.90
  -1   1 -12   69.49   11.60
  -2  -1 -12   20.30   10.80
  -2   1 -12   12.50    9.90
  -2   1 -12   11.30   10.40
  -3  -1 -12   69.99   13.60
  -3   1 -12   75.39   13.60
   4  -2 -12   33.00   12.40
   4   2 -12   53.29   14.80
   3  -2 -12   12.20    9.90
   3   2 -12    7.80    9.00
   2  -2 -12    1.00    8.50
   2   2 -12    9.20    8.40
   1  -2 -12   -0.80    8.00
   1   2 -12   -2.90    7.70
   0  -2 -12   72.99   10.40
   0   2 -12   88.39   10.70
   0   2 -12   60.19    9.80
  -1  -2 -12    1.00    9.40
  -1   2 -12    0.80    9.30
  -1   2 -12    7.80    9.40
  -2  -2 -12   -3.60   10.50
  -2   2 -12    5.90   10.50
  -2   2 -12    0.90    9.80
  -3  -2 -12   -4.50   11.70
  -3   2 -12    8.90   12.10
  -3   2 -12   11.90   11.70
   4  -3 -12   31.10   12.20
   4   3 -12   23.60   10.50
   3  -3 -12   40.20   10.90
   3   3 -12   50.29   10.50
   2  -3 -12   50.89   10.30
   2   3 -12   44.20    9.90
   1  -3 -12    6.50    8.70
   1   3 -12   28.20    9.30
   0  -3 -12    2.20    9.10
   0   3 -12   -8.40    8.10
  -1  -3 -12    5.40    9.80
  -1   3 -12   18.40    9.50
  -1   3 -12   15.60    9.90
  -2  -3 -12   27.20   11.00
  -2   3 -12   35.70   11.50
  -2   3 -12   36.80   11.60
  -3  -3 -12    5.20   11.60
  -3   3 -12   15.00   11.80
   4  -4 -12    2.70   12.60
   4   4 -12    4.00   10.70
   3  -4 -12   -4.40   10.20
   3   4 -12   -3.90    8.40
   2  -4 -12   49.90   10.60
   2   4 -12   50.39   10.60
   1  -4 -12  106.69   11.60
   1   4 -12  102.59   11.90
   0  -4 -12   40.40   10.40
   0   4 -12   26.30   10.10
  -1  -4 -12   69.49   11.20
  -1   4 -12   49.20   11.50
  -2  -4 -12   39.90   12.10
  -2   4 -12   30.00   10.80
  -2   4 -12   36.90   11.00
   4  -5 -12   15.20   13.60
   4   5 -12   19.80   11.10
   3  -5 -12   16.60   11.30
   3   5 -12   31.50    9.90
   2  -5 -12  102.59   12.40
   2   5 -12   94.89   11.90
   1  -5 -12   24.60    9.70
   1   5 -12   13.10    9.60
   0  -5 -12   -1.90    9.30
   0   5 -12   -0.60   10.10
  -1  -5 -12   82.19   12.30
  -1   5 -12   68.39   12.20
  -2  -5 -12   27.20   11.80
  -2   5 -12   45.40   12.80
   3  -6 -12    1.20   11.90
   3   6 -12   -2.30   11.20
   2  -6 -12   32.10   11.30
   2   6 -12   32.00   10.80
   1  -6 -12   22.10    8.90
   1   6 -12   26.40   11.00
   0  -6 -12    7.70    9.40
   0   6 -12   -1.10   10.10
  -1  -6 -12   49.10   11.30
  -1   6 -12   56.19   12.90
  -2  -6 -12   38.70   12.50
   3  -7 -12   -3.50   12.70
   3   7 -12   -0.10   11.50
   2  -7 -12   14.60   11.10
   2   7 -12   17.80   11.60
   1  -7 -12   16.40   10.00
   1   7 -12   17.90   11.30
   0  -7 -12  -16.00    9.10
   0   7 -12  -10.20   11.00
  -1  -7 -12    6.60   10.80
  -1   7 -12   -2.90   11.90
   2  -8 -12   -8.50   11.60
   2   8 -12    4.50   12.30
   1  -8 -12   70.89   11.10
   1   8 -12   60.29   12.80
   0  -8 -12   52.09   11.80
   0   8 -12   36.80   11.50
   1   0 -13   10.10    8.60
   0   0 -13   17.70    9.90
  -1   0 -13   28.30   11.20
   2  -1 -13   72.69   10.80
   1  -1 -13   10.70    8.90
   0  -1 -13   13.50    9.80
   0   1 -13   19.10    9.80
  -1  -1 -13   19.70   11.00
  -1   1 -13    3.40    9.30
  -1   1 -13    5.90   10.10
   3  -2 -13   31.00   10.70
   2  -2 -13   -2.90    9.10
   2   2 -13    0.70   12.20
   1  -2 -13   55.59   10.60
   1   2 -13   33.20    9.60
   0  -2 -13   30.20   10.50
   0   2 -13   45.80   10.00
  -1  -2 -13   79.89   12.10
  -1   2 -13   65.69   11.80
  -1   2 -13   70.39   12.20
   3  -3 -13   -3.20   10.50
   3   3 -13    2.30    9.90
   2  -3 -13   73.19   11.80
   2   3 -13   84.89   11.20
   1  -3 -13   38.80   10.20
   1   3 -13   31.30    9.90
   0  -3 -13    3.60   10.00
   0   3 -13    4.10    9.60
  -1  -3 -13   26.80   11.60
  -1   3 -13    6.20   10.30
   3  -4 -13    4.00   11.40
   2  -4 -13    1.40    9.60
   2   4 -13    9.20    9.80
   1  -4 -13    5.50    9.60
   1   4 -13   -0.40    9.30
   0  -4 -13    2.20    9.40
   0   4 -13   11.70   10.10
   2  -5 -13  -13.40   10.20
   2   5 -13  -13.90   10.40
   1  -5 -13   20.60   10.60
   1   5 -13   16.10   10.30
   0  -5 -13   -3.00    9.80
   0   5 -13   -1.70   10.40
   0   0   0    0.00    0.00


_computing_structure_solution     'SHELXT 2014/5 (Sheldrick, 2014)'
_computing_structure_solution     'SHELXT 2014/5 (Sheldrick, 2014)'
;
_shelx_hkl_checksum              62933
_olex2_submission_special_instructions 'No special instructions were received'
loop_
_space_group_symop_operation_xyz
'x, y, z'
'-x+1/2, y+1/2, -z+1/2'
'-x, -y, -z'
'x-1/2, -y-1/2, z-1/2'
loop_
_atom_site_label
_atom_site_type_symbol
_atom_site_fract_x
_atom_site_fract_y
_atom_site_fract_z
_atom_site_U_iso_or_equiv
_atom_site_adp_type
_atom_site_occupancy
_atom_site_site_symmetry_order
_atom_site_calc_flag
_atom_site_refinement_flags_posn
_atom_site_refinement_flags_adp
Se01 Se 0.15914(7) 0.45511(4) 0.33402(4) 0.0609(2) Uani 1 1 d . .
Si02 Si 0.17725(19) 0.70029(10) 0.82443(12) 0.0577(3) Uani 1 1 d . U
C003 C 0.0942(5) 0.5151(3) 0.4892(3) 0.0385(8) Uani 1 1 d . .
C004 C 0.2022(6) 0.5833(3) 0.5832(4) 0.0454(9) Uani 1 1 d . .
H004 H 0.331917 0.607569 0.575801 0.054 Uiso 1 1 calc R .
C005 C 0.0981(6) 0.6097(3) 0.6847(4) 0.0460(9) Uani 1 1 d . .
C006 C 0.4523(9) 0.7075(6) 0.8491(7) 0.111(2) Uani 1 1 d . U
H00A H 0.494871 0.754627 0.919642 0.166 Uiso 1 1 calc GR .
H00B H 0.500065 0.731775 0.770198 0.166 Uiso 1 1 calc GR .
H00C H 0.507235 0.639762 0.870636 0.166 Uiso 1 1 calc GR .
C007 C 0.0705(12) 0.6569(7) 0.9714(6) 0.124(3) Uani 1 1 d . U
H00D H 0.114064 0.587166 0.992498 0.187 Uiso 1 1 calc GR .
H00E H -0.074666 0.658957 0.955057 0.187 Uiso 1 1 calc GR .
H00F H 0.116377 0.701958 1.043571 0.187 Uiso 1 1 calc GR .
C008 C 0.0653(13) 0.8305(5) 0.7816(8) 0.139(3) Uani 1 1 d . U
H00G H -0.078890 0.824082 0.760807 0.209 Uiso 1 1 calc GR .
H00H H 0.121516 0.857827 0.707084 0.209 Uiso 1 1 calc GR .
H00I H 0.095688 0.876667 0.854835 0.209 Uiso 1 1 calc GR .
loop_
_atom_site_aniso_label
_atom_site_aniso_U_11
_atom_site_aniso_U_22
_atom_site_aniso_U_33
_atom_site_aniso_U_23
_atom_site_aniso_U_13
_atom_site_aniso_U_12
Se01 0.0516(3) 0.0758(4) 0.0564(3) -0.0282(2) 0.0115(2) -0.0155(2)
Si02 0.0564(7) 0.0623(8) 0.0511(7) -0.0239(6) -0.0056(5) -0.0080(5)
C003 0.0390(18) 0.0360(18) 0.0389(19) -0.0042(15) -0.0015(15) 0.0014(15)
C004 0.047(2) 0.040(2) 0.046(2) -0.0107(17) -0.0075(18) -0.0060(17)
C005 0.047(2) 0.040(2) 0.046(2) -0.0072(16) -0.0100(18) -0.0015(17)
C006 0.073(3) 0.145(5) 0.110(4) -0.065(4) -0.006(3) -0.015(3)
C007 0.139(6) 0.164(6) 0.072(4) -0.042(4) 0.024(4) -0.049(5)
C008 0.176(7) 0.077(4) 0.146(6) -0.055(4) -0.052(6) 0.025(4)
loop_
_atom_type_symbol
_atom_type_description
_atom_type_scat_dispersion_real
_atom_type_scat_dispersion_imag
_atom_type_scat_source
C C 0.0033 0.0016 'International Tables Vol C Tables 4.2.6.8 and 6.1.1.4'
H H 0.0000 0.0000 'International Tables Vol C Tables 4.2.6.8 and 6.1.1.4'
Se Se -0.0929 2.2259 'International Tables Vol C Tables 4.2.6.8 and 6.1.1.4'
Si Si 0.0817 0.0704 'International Tables Vol C Tables 4.2.6.8 and 6.1.1.4'
loop_
_geom_angle_atom_site_label_1
_geom_angle_atom_site_label_2
_geom_angle_atom_site_label_3
_geom_angle
_geom_angle_site_symmetry_1
_geom_angle_site_symmetry_3
C003 Se01 C005 88.02(16) . 3_566
C006 Si02 C005 108.6(2) . .
C006 Si02 C007 112.8(4) . .
C006 Si02 C008 110.6(4) . .
C007 Si02 C005 109.9(3) . .
C007 Si02 C008 106.5(4) . .
C008 Si02 C005 108.3(2) . .
C003 C003 Se01 109.8(3) 3_566 .
C003 C003 C004 117.5(4) 3_566 .
C004 C003 Se01 132.7(3) . .
C003 C004 H004 123.0 . .
C005 C004 C003 114.1(4) . .
C005 C004 H004 123.0 . .
Si02 C005 Se01 121.1(2) . 3_566
C004 C005 Se01 110.6(3) . 3_566
C004 C005 Si02 128.3(3) . .
Si02 C006 H00A 109.5 . .
Si02 C006 H00B 109.5 . .
Si02 C006 H00C 109.5 . .
H00A C006 H00B 109.5 . .
H00A C006 H00C 109.5 . .
H00B C006 H00C 109.5 . .
Si02 C007 H00D 109.5 . .
Si02 C007 H00E 109.5 . .
Si02 C007 H00F 109.5 . .
H00D C007 H00E 109.5 . .
H00D C007 H00F 109.5 . .
H00E C007 H00F 109.5 . .
Si02 C008 H00G 109.5 . .
Si02 C008 H00H 109.5 . .
Si02 C008 H00I 109.5 . .
H00G C008 H00H 109.5 . .
H00G C008 H00I 109.5 . .
H00H C008 H00I 109.5 . .
loop_
_geom_bond_atom_site_label_1
_geom_bond_atom_site_label_2
_geom_bond_distance
_geom_bond_site_symmetry_2
Se01 C003 1.870(4) .
Se01 C005 1.892(4) 3_566
Si02 C005 1.873(4) .
Si02 C006 1.818(6) .
Si02 C007 1.835(7) .
Si02 C008 1.865(7) .
C003 C003 1.358(7) 3_566
C003 C004 1.430(5) .
C004 H004 0.9300 .
C004 C005 1.366(6) .
C006 H00A 0.9600 .
C006 H00B 0.9600 .
C006 H00C 0.9600 .
C007 H00D 0.9600 .
C007 H00E 0.9600 .
C007 H00F 0.9600 .
C008 H00G 0.9600 .
C008 H00H 0.9600 .
C008 H00I 0.9600 .
