#------------------------------------------------------------------------------
#$Date: 2019-11-11 20:49:42 +0200 (Mon, 11 Nov 2019) $
#$Revision: 227319 $
#$URL: file:///home/coder/svn-repositories/cod/cif/4/03/59/4035926.cif $
#------------------------------------------------------------------------------
#
# This file is available in the Crystallography Open Database (COD),
# http://www.crystallography.net/
#
# All data on this site have been placed in the public domain by the
# contributors.
#
data_4035926
loop_
_publ_author_name
'Kolanji, Kubandiran'
'Postulka, Lars'
'Wolf, Bernd'
'Lang, Michael'
'Schollmeyer, Dieter'
'Baumgarten, Martin'
_publ_section_title
;
 Planar Benzo[1,2- b:4,5- b']dithiophene Derivatives Decorated with
 Nitronyl and Imino Nitroxides.
;
_journal_issue                   1
_journal_name_full               'The Journal of organic chemistry'
_journal_page_first              140
_journal_page_last               149
_journal_paper_doi               10.1021/acs.joc.8b02499
_journal_volume                  84
_journal_year                    2019
_chemical_formula_moiety         'C12 H10 O2 S2'
_chemical_formula_sum            'C12 H10 O2 S2'
_chemical_formula_weight         250.32
_space_group_crystal_system      monoclinic
_space_group_IT_number           14
_space_group_name_Hall           '-P 2yn'
_space_group_name_H-M_alt        'P 1 21/n 1'
_atom_sites_solution_hydrogens   difmap
_audit_creation_method           SHELXL-2014/7
_cell_angle_alpha                90
_cell_angle_beta                 99.907(9)
_cell_angle_gamma                90
_cell_formula_units_Z            2
_cell_length_a                   7.9063(9)
_cell_length_b                   8.9584(7)
_cell_length_c                   7.9434(10)
_cell_measurement_reflns_used    5977
_cell_measurement_temperature    193(2)
_cell_measurement_theta_max      28.14
_cell_measurement_theta_min      2.60
_cell_volume                     554.22(10)
_computing_cell_refinement       'STOE X-AREA'
_computing_data_collection       'STOE X-AREA'
_computing_data_reduction        'STOE X-RED'
_computing_structure_refinement  'SHELXL-2014/7 (Sheldrick, 2014)'
_computing_structure_solution    SIR-2004
_diffrn_ambient_temperature      193(2)
_diffrn_detector                 'image plate (34 cm diameter)'
_diffrn_detector_area_resol_mean 6.67
_diffrn_detector_type            STOE
_diffrn_measured_fraction_theta_full 0.998
_diffrn_measured_fraction_theta_max 0.996
_diffrn_measurement_details      ' 154 frames, detector distance = 70 mm'
_diffrn_measurement_device       '2-circle goniometer'
_diffrn_measurement_device_type  'STOE IPDS 2T'
_diffrn_measurement_method       'rotation method'
_diffrn_radiation_type           MoK\a
_diffrn_radiation_wavelength     0.71073
_diffrn_reflns_av_R_equivalents  0.0143
_diffrn_reflns_av_unetI/netI     0.0141
_diffrn_reflns_Laue_measured_fraction_full 0.998
_diffrn_reflns_Laue_measured_fraction_max 0.996
_diffrn_reflns_limit_h_max       10
_diffrn_reflns_limit_h_min       -10
_diffrn_reflns_limit_k_max       11
_diffrn_reflns_limit_k_min       -11
_diffrn_reflns_limit_l_max       10
_diffrn_reflns_limit_l_min       -10
_diffrn_reflns_number            3265
_diffrn_reflns_point_group_measured_fraction_full 0.998
_diffrn_reflns_point_group_measured_fraction_max 0.996
_diffrn_reflns_theta_full        25.242
_diffrn_reflns_theta_max         28.036
_diffrn_reflns_theta_min         3.358
_diffrn_source
'sealed X-ray tube, 12 x 0.4 mm long-fine focus'
_exptl_absorpt_coefficient_mu    0.459
_exptl_absorpt_correction_T_max  0.9449
_exptl_absorpt_correction_T_min  0.8350
_exptl_absorpt_correction_type   integration
_exptl_crystal_colour            colourless
_exptl_crystal_density_diffrn    1.500
_exptl_crystal_description       block
_exptl_crystal_F_000             260
_exptl_crystal_size_max          0.800
_exptl_crystal_size_mid          0.260
_exptl_crystal_size_min          0.120
_refine_diff_density_max         0.417
_refine_diff_density_min         -0.290
_refine_diff_density_rms         0.078
_refine_ls_extinction_method     none
_refine_ls_goodness_of_fit_ref   1.049
_refine_ls_hydrogen_treatment    refall
_refine_ls_matrix_type           full
_refine_ls_number_parameters     91
_refine_ls_number_reflns         1337
_refine_ls_number_restraints     0
_refine_ls_restrained_S_all      1.049
_refine_ls_R_factor_all          0.0313
_refine_ls_R_factor_gt           0.0286
_refine_ls_shift/su_max          0.001
_refine_ls_shift/su_mean         0.000
_refine_ls_structure_factor_coef Fsqd
_refine_ls_weighting_details
'w=1/[\s^2^(Fo^2^)+(0.0492P)^2^+0.1810P] where P=(Fo^2^+2Fc^2^)/3'
_refine_ls_weighting_scheme      calc
_refine_ls_wR_factor_gt          0.0768
_refine_ls_wR_factor_ref         0.0788
_reflns_Friedel_coverage         0.000
_reflns_number_gt                1233
_reflns_number_total             1337
_reflns_threshold_expression     'I > 2\s(I)'
_cod_data_source_file            jo8b02499_si_003.cif
_cod_data_source_block           2
_cod_original_sg_symbol_H-M      'P 21/n'
_cod_database_code               4035926
_shelx_shelxl_version_number     2014/7
_shelx_space_group_comment
;
The symmetry employed for this shelxl refinement is uniquely defined
by the following loop, which should always be used as a source of
symmetry information in preference to the above space-group names.
They are only intended as comments.
;
_shelx_estimated_absorpt_t_min   0.710
_shelx_estimated_absorpt_t_max   0.947
_shelx_res_file
;

    bdtcho2.res created by SHELXL-2014/7

TITL bdtcho2 in P 21/n
CELL   0.71073      7.9063   8.9584   7.9434   90.000   99.907   90.000
ZERR         2      0.0009   0.0007   0.0010    0.000    0.009    0.000
REM Gitterkonstanten aus 5977 Reflexen mit 2.6-28.1 Grad V=554.23(10)
REM farbloser Block Tmin=0.835, Tmax=0.9449 7 Flaechen
LATT  1
SYMM 0.5-X,0.5+Y,0.5-Z
SFAC        C       H       O       S
UNIT 24 20 4 4
L.S.      4
FMAP      2
PLAN     -10 .5 -.5
TEMP -80
SIZE  0.120  0.260  0.80
ACTA
CONF
BOND $H
WGHT    0.049200    0.181000
FVAR       1.19122   0.05125
S1    4    0.778973    0.263563    0.631305    11.00000    0.02637    0.02558 =
         0.02554    0.00342    0.00355    0.00814
C2    1    0.626610    0.395049    0.544965    11.00000    0.01851    0.01613 =
         0.02023   -0.00057    0.00127    0.00061
C3    1    0.526635    0.443057    0.667445    11.00000    0.02109    0.01750 =
         0.01676   -0.00085    0.00225   -0.00257
C4    1    0.580119    0.370552    0.830387    11.00000    0.02795    0.02169 =
         0.01817    0.00164    0.00148   -0.00029
H4    2    0.535333    0.387553    0.926577    11.00000    0.02798
C5    1    0.711674    0.274795    0.827470    11.00000    0.03285    0.02671 =
         0.02114    0.00486    0.00005    0.00274
H5    2    0.768031    0.216136    0.919703    11.00000    0.03271
C6    1    0.601941    0.450241    0.379092    11.00000    0.02029    0.01810 =
         0.01827   -0.00279    0.00456   -0.00146
O7    3    0.698266    0.397153    0.263206    11.00000    0.02766    0.02630 =
         0.02409   -0.00491    0.01146   -0.00031
C8    1    0.844235    0.488807    0.249318    11.00000    0.02602    0.03582 =
         0.03495    0.00301    0.01199   -0.00077
H8A   2    0.897740    0.447386    0.168032    11.00000   21.00000
H8B   2    0.925933    0.482215    0.354894    11.00000   21.00000
H8C   2    0.810240    0.590403    0.221535    11.00000   21.00000
HKLF      4

REM  bdtcho2 in P 21/n
REM R1 =  0.0286 for    1233 Fo > 4sig(Fo)  and  0.0313 for all    1337 data
REM     91 parameters refined using      0 restraints

END

WGHT      0.0490      0.1810

REM Highest difference peak  0.417,  deepest hole -0.290,  1-sigma level  0.078
Q1    1   0.5525  0.4156  0.7552  11.00000  0.05    0.42
Q2    1   0.4683  0.4973  0.6477  11.00000  0.05    0.30
Q3    1   0.5712  0.4249  0.6076  11.00000  0.05    0.30
Q4    1   0.6952  0.3363  0.5801  11.00000  0.05    0.29
Q5    1   0.5886  0.2501  0.4514  11.00000  0.05    0.22
Q6    1   0.6148  0.4162  0.4632  11.00000  0.05    0.22
Q7    1   0.5902  0.3936  0.8655  11.00000  0.05    0.18
Q8    1   0.6116  0.3083  0.8226  11.00000  0.05    0.18
Q9    1   0.4498  0.2723  0.5248  11.00000  0.05    0.18
Q10   1   0.8665  0.4773  0.5583  11.00000  0.05    0.17
;
_shelx_res_checksum              29489
_shelx_hkl_file
;
  -1   4  -4   55.17    1.84   0
   0   4   4 1643.57    5.06   0
   0   5  -7  156.71    1.79   0
   0   7  -7  123.23    2.11   0
   1   0  -6   -0.52    1.40   0
   1   3  -8    4.85    1.53   0
   1   3   5  193.37    2.05   0
   2   1   5   40.14    1.62   0
   3  -1  -8    1.05    1.48   0
   3   2 -10    6.08    1.65   0
   3   5   7   59.72    1.76   0
   3   6   7    6.46    1.26   0
   3   7   7  488.65    3.00   0
   4  -3  -7   15.70    1.60   0
   4  -3   3    9.21    1.53   0
   5  -5  -4   11.80    1.57   0
   6  -4   3   58.26    2.07   0
   6  -3  -9   17.69    1.75   0
   7  -1   6   76.35    1.62   0
   8  -5   2    5.03    2.03   0
  -1   3  -3  892.78    4.52   0
   0   3  -6 1100.12    4.00   0
   1   0   3 3635.93    8.13   0
   1   1   4  760.58    3.60   0
   1  10   5    5.15    1.75   0
   2  -2  -5  145.74    2.02   0
   2  -2   2  386.77    3.45   0
   2   3  -9   14.33    1.68   0
   2   3   6  339.89    2.12   0
   3   4   7    9.35    1.52   0
   4  -4  -5   22.12    1.66   0
   4  -1  -9   13.19    1.28   0
   4   0   6  342.53    2.46   0
   4   2   7   -0.47    1.53   0
   6  -1   6   44.34    1.35   0
  -1   4   2  102.96    2.19   0
  -1   5  -4   11.93    1.58   0
  -1   8  -4    0.90    1.57   0
  -1   9   2  264.64    3.38   0
  -1  10  -2  186.32    4.39   0
   0   0  -2 5536.32   12.58   0
   0   9  -6   99.02    2.56   0
   0  11   3   73.02    2.20   0
   1  -1  -4   11.36    1.57   0
   1   2  -7  607.54    2.99   0
   3  -3   2  371.23    3.40   0
   3   1   6   36.31    1.19   0
   3   3   7  335.78    2.38   0
   4   1 -10   92.48    2.01   0
   5  -3   4   10.77    1.51   0
   5  -2   5  154.08    1.71   0
   7  -5   2   25.26    2.01   0
   7  -4  -8    4.17    1.72   0
  -1   6  -4 1130.65    4.86   0
  -1   7  -4   12.85    1.55   0
   0   1  -4  324.81    2.49   0
   0   2  -5  400.43    2.50   0
   0   3   4   46.76    1.77   0
   0   4  -6   55.51    1.74   0
   0  10   4  531.80    3.51   0
   1   2   5  729.91    3.32   0
   1   5   6  117.06    1.88   0
   1   6  -8   26.06    1.82   0
   1   7   6   31.22    1.24   0
   1   8   6   36.06    1.71   0
   2   0  -7    1.44    1.42   0
   2   2   6  384.14    2.53   0
   2   4  -9   20.65    1.31   0
   2   6   7   43.39    1.74   0
   2   7   7   82.19    1.92   0
   5  -5   0   72.63    4.97   0
   5  -1   6    7.72    1.15   0
   6  -5  -5  157.30    2.32   0
   6  -4  -7   10.05    1.58   0
   6   0   7   -0.43    1.72   0
   7  -5  -6   24.23    1.84   0
   7  -3   5  300.15    2.62   0
   8  -6  -3   24.07    2.56   0
   8  -4   4    0.46    2.04   0
  -1   6   3  373.00    3.07   0
  -1   9  -3  174.65    3.03   0
   0   5  -6  205.13    2.24   0
   0   6   5  140.53    2.00   0
   0   8  -6    1.08    1.62   0
   1  -1   2   82.92    2.24   0
   1   0  -5 2528.18    5.89   0
   1   1  -6  160.89    2.00   0
   1   4   6   45.41    1.65   0
   1   9   6   64.03    1.84   0
   2   5   7    6.13    1.07   0
   3  -1   5   -0.18    1.45   0
   3   0  -8   -2.51    1.51   0
   3   2   7   58.58    1.68   0
   4   0  -9   -1.18    1.65   0
   4   1   7   12.81    1.53   0
   4   2 -10    9.30    1.82   0
   4   4   8   52.78    1.87   0
   7  -4   4   47.03    2.12   0
   7  -2   6    0.37    1.74   0
  -1   3  -2  235.68    2.98   0
  -1   4  -3  268.77    2.75   0
  -1   5   3  184.27    2.39   0
   0   6  -6   39.76    1.71   0
   0   7  -6  320.26    2.72   0
   0   8   5  133.23    2.09   0
   1   3  -7 1135.96    3.67   0
   2  -2  -4 3697.79    7.76   0
   2  -1   4   50.65    1.32   0
   2   0   5    0.27    1.02   0
   3  -2  -6  204.09    1.86   0
   3  -1  -7    2.10    1.45   0
   3   0   6    1.49    1.42   0
   3   2  -9   16.57    1.20   0
   4  -4  -4 1105.36    4.71   0
   4  -3  -6   42.10    1.27   0
   4  -1  -8   40.32    1.69   0
   5  -4   3  375.52    3.10   0
   5   0   7   63.18    1.43   0
   5   2   8    2.95    1.75   0
   6  -3   5    4.79    1.48   0
   6  -2   6  290.92    2.52   0
   8  -6  -2  492.57    6.33   0
   0   9   5   22.28    1.75   0
   1  -1  -3  395.16    3.16   0
   1   3   6   48.26    1.58   0
   2   1   6  838.17    3.35   0
   3  -3  -4   89.66    1.84   0
   4  -4   2  345.40    3.57   0
   4  -2  -7  179.75    2.07   0
   4  -1   6  204.74    1.85   0
   6  -1   7    3.43    1.68   0
   8  -5  -6   80.08    2.18   0
  -1   4   3    3.05    1.50   0
  -1   5  -3 1282.12    5.60   0
  -1   9   3    9.26    1.97   0
  -1  10   2    3.85    2.07   0
   0   1  -3  127.47    2.24   0
   0   1   3  127.96    2.24   0
   0   2   4 1857.66    5.24   0
   1   0   4    0.46    1.48   0
   1   1   5  528.44    2.95   0
   1   2  -6   80.66    1.72   0
   1   4  -7   84.28    1.50   0
   2  -2   3   17.04    1.49   0
   2   1  -7  363.58    2.20   0
   3   1  -8    0.38    1.47   0
   3   1   7  616.16    2.97   0
   3   3  -9  169.76    1.77   0
   4   0   7   -0.97    1.56   0
   4   1  -9   12.90    1.62   0
   4   2   8  100.42    1.91   0
   5  -5  -1  117.70    4.27   0
   5  -4  -5    3.25    1.52   0
   5  -2   6    4.87    1.52   0
   5   1   8    1.14    1.72   0
   6  -5  -4  205.78    2.58   0
   6  -5   2   73.14    2.35   0
   6  -4  -6  402.59    2.88   0
   6  -4   4    3.49    1.48   0
   7  -5  -5  433.00    3.29   0
   7  -3  -8   47.54    2.00   0
   0   2  -4 1798.03    5.29   0
   0   3   5   28.47    1.52   0
   0   4  -5   59.57    1.70   0
   0   9  -5   20.52    1.85   0
   0  10   5  162.95    2.46   0
   1   5  -7  164.95    1.76   0
   1   5   7  521.33    2.86   0
   1   6  -7   11.64    1.54   0
   1   6   7   -1.35    1.05   0
   1   7   7   56.29    1.82   0
   1   8  -7   63.50    1.87   0
   1   8   7   33.17    1.78   0
   2   0  -6  890.40    3.51   0
   2   2   7   17.83    1.44   0
   2   4  -8  179.51    2.12   0
   2   6   8  149.91    2.06   0
   3  -3   3 1187.60    4.99   0
   3   3   8   34.84    1.64   0
   3   4  -9  172.97    2.26   0
   5  -3   5  148.58    2.06   0
   5  -1   7  247.58    2.36   0
   5   0  -9    8.82    1.80   0
   6  -1  -9  150.84    2.26   0
  -1   6  -3  381.32    3.26   0
  -1   6   4   88.39    1.90   0
  -1   7   4   -0.71    1.46   0
  -1   8   4  135.33    2.40   0
  -1  10  -1  144.21    4.91   0
   0   5   6  201.92    2.03   0
   0   6   6   36.53    1.61   0
   0   8   6    0.40    1.45   0
   1   0  -4    0.21    1.56   0
   1   1  -5  461.40    2.82   0
   1   2   6   27.67    1.14   0
   1   4   7  184.96    1.99   0
   2   5   8   11.12    1.67   0
   2   7  -8    1.90    1.73   0
   3  -1   6   37.11    1.49   0
   3   0  -7 1530.37    4.35   0
   3   5  -9  168.99    2.23   0
   4  -3  -5   17.93    1.59   0
   4   0  -8   92.47    1.83   0
   7  -5   3  164.24    2.50   0
   8  -4  -7   33.03    1.79   0
  -1   5   4  141.12    2.11   0
  -1   9  -2   52.89    2.60   0
   0   0   1    2.45    1.78   0
   0   8  -5  135.60    2.21   0
   1  -1   3  288.88    2.54   0
   1   3  -6  151.10    1.93   0
   2  -2  -3 1127.27    4.91   0
   2   0   6  106.84    1.83   0
   2   2  -7   53.42    1.29   0
   3  -2  -5  120.53    1.62   0
   3  -2   5  628.90    3.24   0
   3  -1  -6  430.16    2.69   0
   3   0   7    2.79    1.44   0
   3   2  -8   30.22    1.58   0
   3   2   8   56.30    1.30   0
   4  -2   6  211.55    2.09   0
   5  -3  -6  177.10    2.17   0
   5  -1  -8    6.25    1.44   0
   5   0   8   -1.23    1.70   0
   6  -3   6   67.91    1.78   0
   7  -4   5   87.96    2.06   0
   8  -5  -5    4.94    2.00   0
  -1   3   3   83.84    1.89   0
  -1   9   4  272.08    3.08   0
  -1  10   3  114.73    2.67   0
   0   2   5  405.56    2.63   0
   0   4   6   54.12    1.62   0
   0   6  -5  140.80    2.10   0
   0   7  -5   37.26    1.73   0
   0   9   6   94.90    2.04   0
   0  10  -4  535.18    4.29   0
   1   3   7   67.05    1.63   0
   2   1   7   71.81    1.70   0
   3  -3  -3  202.62    2.66   0
   4  -1   7   13.36    1.58   0
   4   3  -9  141.53    2.08   0
   5  -5   1  263.23    4.49   0
   5  -4   4   60.54    1.76   0
   5   1  -9  389.05    2.64   0
   6  -2   7   18.21    1.34   0
   6   0  -9   -1.34    1.82   0
   7  -4  -6   12.21    1.67   0
  -1   4   4  568.41    3.25   0
   0   0   2 5528.13   12.31   0
   0   3  -4   45.55    1.34   0
   1   0   5 1961.75    4.93   0
   1   1   6   59.48    1.64   0
   1   4  -6  284.00    2.34   0
   1   7   8    2.41    1.65   0
   1   9  -6  162.48    2.42   0
   2  -2   4 1628.54    5.15   0
   2   1  -6  791.42    3.32   0
   2   3  -7   20.24    1.49   0
   3   1   8    2.00    1.54   0
   3   3  -8    9.54    1.53   0
   4  -4   3    3.83    1.45   0
   4   0   8   14.09    1.66   0
   4   1  -8   41.78    1.65   0
   5  -2   7   61.41    1.77   0
   6  -5  -3    0.26    1.48   0
   6  -5   3   76.65    2.23   0
   6  -4   5   14.05    1.57   0
   7  -5  -4   17.57    1.68   0
   7  -3  -7    7.49    1.62   0
  -1   6   5  167.75    2.13   0
  -1   7   5   63.86    1.77   0
  -1   8   5  287.64    2.84   0
   0   6   7    1.30    1.45   0
   0   7   7  124.62    1.95   0
   1   2   7   48.43    1.59   0
   1   5   8   12.79    1.63   0
   1   6   8  116.11    1.65   0
   1   8  -6    1.21    1.61   0
   2   2   8   10.74    1.49   0
   3  -3   4  389.03    2.88   0
   3   1  -7    1.59    1.39   0
   3   3   9    0.89    1.27   0
   4   4  -9    1.07    1.22   0
   5  -3   6   11.09    1.53   0
   5  -1   8    2.56    1.72   0
   5   2  -9   37.13    1.77   0
   6  -1  -8  196.64    2.22   0
  -1   8  -2   27.72    2.28   0
  -1  11   1   30.37    3.86   0
  -1  11   2   -0.15    2.41   0
   0   1  -2  822.11    5.05   0
   0   2  -3  902.83    4.40   0
   0   5   7  155.02    1.97   0
   0   8   7    0.86    1.70   0
   1  -1   4  689.64    3.33   0
   1   4   8   79.24    1.74   0
   1   5  -6   55.34    1.31   0
   1   6  -6   11.05    1.47   0
   2  -1  -4  447.86    2.77   0
   2  -1   6  824.87    3.32   0
   2   0  -5    1.00    1.01   0
   3  -1   7  600.49    3.02   0
   5   0  -8    0.24    1.08   0
   6   1  -9  154.77    2.18   0
   7  -5   4   97.42    2.19   0
   8  -6   1    0.80    3.05   0
   8  -4  -6  225.19    2.55   0
  -1   4   5  431.10    2.77   0
   0   0   3   -0.75    1.67   0
   0   1   5   13.69    1.50   0
   0   2   6  246.22    2.13   0
   0   4  -4 1600.90    5.11   0
   0   4   7  216.92    2.12   0
   0   9  -4    0.95    1.64   0
   1   1  -4    9.77    1.56   0
   2   0   7    0.57    1.05   0
   2   2  -6  346.01    2.43   0
   2   4   9   19.08    1.28   0
   2   5  -7  359.56    2.50   0
   2   6  -7    1.03    1.57   0
   2   7  -7   10.07    1.68   0
   2   8  -7   12.38    1.65   0
   3  -2   6    5.13    1.07   0
   3   0  -6   -0.51    1.48   0
   3   0   8   -1.00    1.55   0
   3   2   9  137.33    1.71   0
   3   5  -8  103.69    1.61   0
   3   6  -8   21.66    1.67   0
   4  -4  -2 1308.28    6.62   0
   4  -3  -4   91.43    1.93   0
   4  -2   7    0.60    1.55   0
   4   0  -7    2.01    1.41   0
   4   2  -8  465.18    2.69   0
   5  -5   2   17.23    2.02   0
   6  -3  -6  119.84    1.95   0
   6  -3   7   -0.24    1.55   0
   6  -2  -7    8.81    1.12   0
  -1   7   6   89.49    1.82   0
  -1  11   3   25.37    2.44   0
   1   0  -3 5645.75   10.34   0
   1   0   6   -0.73    1.41   0
   1   1   7  776.91    3.23   0
   1   3  -5  839.72    3.55   0
   1   3   8   17.87    1.07   0
   1  10  -5   24.94    2.23   0
   2  -2   5   22.60    1.52   0
   2   1   8  160.83    1.61   0
   2   3   9    4.42    1.63   0
   3  -2  -4   51.66    1.36   0
   3  -1  -5  424.27    2.71   0
   3   2  -7   72.62    1.34   0
   4  -3   6  234.36    2.27   0
   4  -1  -6 1124.21    3.88   0
   5  -3  -5 1275.91    4.48   0
   5  -2  -6  243.24    2.29   0
   5   4  -9   27.43    1.82   0
   8  -5  -4  121.59    2.28   0
  -1   2   1 4122.51   15.07   0
  -1   2   3 1745.24    5.92   0
  -1   5   6   54.24    1.62   0
  -1   6   6    9.69    1.05   0
  -1   8   6   -0.13    1.61   0
  -1  10   5   27.23    2.19   0
   0   3   7   24.43    1.55   0
   0   7   8    9.93    1.60   0
   0   8  -4   14.61    1.56   0
   1  -1   5  530.94    2.92   0
   1   5   9   12.72    1.58   0
   2  -3   2  966.32    5.45   0
   3  -3   5  311.51    2.55   0
   3   1   9   -1.18    1.21   0
   4  -2  -5   36.60    1.59   0
   4   3  -8  238.68    2.19   0
   5  -3   7  241.89    2.30   0
   5  -2   8    0.83    1.70   0
   5   1  -8    5.03    1.05   0
   6  -5   4  254.21    2.77   0
   6  -4   6  166.63    2.27   0
   6   0  -8   59.00    1.86   0
   6   2  -9   12.24    1.27   0
   7  -4  -5    2.37    1.52   0
  -1   3   5  847.85    3.60   0
  -1   9   6  165.42    2.60   0
   0   0   4 1356.46    4.52   0
   0   5   8   71.44    1.74   0
   0   6  -4  479.09    3.12   0
   0   7  -4  211.54    2.40   0
   1   2   8   46.32    1.24   0
   1   4   9  117.29    1.89   0
   2  -3   1   77.25    2.74   0
   2  -2  -2  113.75    2.31   0
   2   1  -5   29.33    1.54   0
   3   3  -7  206.59    2.03   0
   4   1  -7   54.19    1.64   0
   5  -5   3  464.97    3.81   0
   6  -5  -2   13.06    1.92   0
   6   3  -9   18.16    1.73   0
   7  -5  -3   14.46    1.90   0
   7  -5   5   18.83    2.15   0
   7  -2  -7  168.34    2.08   0
   9  -5  -4   24.67    1.89   0
  -1   4   6  277.11    2.02   0
   0   1   6  701.76    3.13   0
   0   2   7  599.10    2.86   0
   0   3  -3  400.69    3.03   0
   0   4   8  360.51    2.51   0
   1   4  -5  424.74    2.72   0
   1   9  -5  100.16    2.11   0
   2  -3   3    1.10    1.31   0
   2  -1   7   71.68    1.35   0
   2   0   8  434.38    2.31   0
   3  -3  -2  143.26    2.42   0
   3  -2   7   59.65    1.67   0
   3  -1   8    0.32    1.13   0
   3   0   9    4.78    1.76   0
   3   1  -6  437.95    2.59   0
   5  -4   6   74.68    1.80   0
   5   0  -7  644.71    3.00   0
   5   2  -8   19.16    1.63   0
   6  -4  -4  359.40    2.88   0
  -1   6   7   12.01    1.49   0
   0   0   5    0.17    1.44   0
   1  -2   2 1252.69    5.96   0
   1  -2   3  139.61    2.09   0
   1   0   7  293.87    1.98   0
   1   1   8   69.63    1.68   0
   1   2  -4   34.15    1.61   0
   1   5  -5  499.64    2.98   0
   1   8  -5  286.80    2.58   0
   2  -2   6  402.13    2.59   0
   2   4  -6   47.10    1.57   0
   3  -4   2   -0.50    1.76   0
   4  -4   5   15.38    1.54   0
   4  -3   7   78.50    1.74   0
   4  -2   8   98.19    1.56   0
   4   6  -8  153.32    2.06   0
   4   7  -8    2.62    1.70   0
   6   1  -8  197.67    2.18   0
   7   0  -8   -1.41    1.60   0
   8  -4  -5   10.19    1.56   0
  -1   2   5  570.36    3.03   0
  -1   3   6  149.03    1.62   0
  -1   5   7  165.04    1.68   0
  -1   9  -1  101.50    3.21   0
   0   3   8   37.59    1.17   0
   1  -1   6   63.46    1.27   0
   1   6  -5  174.05    2.11   0
   1   7  -5   62.99    1.75   0
   2  -3   4  292.35    2.55   0
   2  -1  -3  180.01    2.36   0
   2   0  -4 1198.04    4.24   0
   2   5  -6  459.77    2.73   0
   3  -4   3    2.01    1.42   0
   3  -3   6    1.84    0.97   0
   3   5  -7   23.70    1.52   0
   3   6  -7  218.57    2.25   0
   3   7  -7    2.13    1.69   0
   3   8  -7   76.05    1.95   0
   4   0  -6   23.76    1.50   0
   4   2  -7  176.50    1.98   0
   5  -5   4    6.36    1.77   0
   5   3  -8    0.10    1.55   0
   6  -5   5  152.00    2.26   0
   6  -2  -6  396.05    2.40   0
   8  -3  -6   15.60    1.60   0
  -2   6   3   22.39    1.53   0
  -2   7   3   13.37    1.53   0
  -2   7   4  272.32    2.90   0
   0   1   7    4.59    1.38   0
   0   5   9    7.19    1.70   0
   0   9  -3   38.01    2.08   0
   0  11  -2  102.08    3.01   0
   1  -2   4  197.54    1.95   0
   1   2   9  192.91    1.79   0
   2  -1   8  160.12    2.00   0
   2   6  -6   57.91    1.71   0
   2   7  -6  354.59    2.65   0
   3   0  -5  848.61    3.32   0
   3   2  -6  208.17    2.02   0
   5   4  -8   69.30    1.78   0
   6   2  -8  192.58    2.12   0
   8  -5  -3    1.42    1.86   0
   8   0  -8   37.14    1.74   0
   9  -3  -6   40.19    1.92   0
  -2   5   3  540.82    3.81   0
  -2   5   4   60.44    1.68   0
  -2   6   2    0.19    1.84   0
  -2   8   3  410.50    3.83   0
  -2   8   4  566.77    3.95   0
  -1   2   6   80.65    1.65   0
  -1   6   8   25.89    1.60   0
  -1   7   8   20.17    1.66   0
   0   0   6  101.96    1.74   0
   0   2   8   55.91    1.24   0
   0   4  -3    4.29    1.44   0
   0   4   9   60.79    1.81   0
   1   0   8   -0.67    1.43   0
   1  10  -4  272.64    3.08   0
   2  -3   5   84.55    1.74   0
   2   0   9    0.74    1.15   0
   3  -4   4  472.12    3.17   0
   3  -1   9    0.64    1.21   0
   4  -4   6  427.84    2.86   0
   4  -3  -3  152.78    2.25   0
   4  -1  -5   37.58    1.55   0
   5  -4   7   35.79    1.63   0
   5  -3  -4  102.86    1.87   0
   5  -2  -5  247.56    2.34   0
   5   1  -7    0.40    1.03   0
   5   5  -8   86.69    1.96   0
   6   0  -7   -0.13    1.50   0
   7  -6   2   62.58    2.86   0
   7  -4  -4    1.67    1.47   0
   7   1  -8   13.46    1.24   0
  -2   7   5  157.99    2.17   0
  -1   1   3  395.98    2.91   0
  -1   5   8   22.29    1.54   0
   0  -1   3  124.63    2.16   0
   0   2  -2  261.48    2.83   0
   0   3   9   38.07    1.62   0
   1  -2   5  694.58    3.30   0
   1  -1  -1  942.11    7.28   0
   1  -1   7  745.37    2.93   0
   1   1   9   78.91    1.70   0
   1   3  -4  647.12    3.37   0
   3  -3   7  339.23    2.49   0
   3  -2  -3  919.42    4.32   0
   3  -1  -4   16.76    1.16   0
   4  -3   8  194.64    2.21   0
   5  -5   5    4.47    1.51   0
   5   6  -8   18.25    1.35   0
   6   3  -8   93.17    1.93   0
   7  -6   3   34.64    2.47   0
   7  -3  -5  245.48    2.38   0
   8  -1  -7   28.05    1.76   0
   9  -5  -3   58.53    2.34   0
  -2   5   5  376.21    2.73   0
  -2   8   5  102.47    2.04   0
  -1   1   5  458.69    2.77   0
  -1   4   8   45.66    1.63   0
   0  -1   4  318.70    2.40   0
   0   1   8   37.96    1.54   0
   0   5  -3  152.38    2.21   0
   0   8  -3  283.88    2.83   0
   2   3  -5   68.35    1.65   0
   2  10  -5  102.22    2.16   0
   3  -4   5  284.54    2.49   0
   3   3  -6   57.07    1.24   0
   4   1  -6 1137.03    3.82   0
   4   4  -7    0.53    1.04   0
   5  -5   0   72.10    4.80   0
  -2   4   4  542.53    3.03   0
  -2   4   5   51.08    1.65   0
  -2   5   2  358.80    3.77   0
  -2   5   6  453.47    2.74   0
  -2   6   6   58.04    1.72   0
  -2   7   6  354.39    2.72   0
  -2   8   2    4.74    2.16   0
  -2   9   3  330.24    4.02   0
  -2   9   4   42.05    1.90   0
  -1   1   2   49.84    2.10   0
  -1   2   7  607.80    2.89   0
  -1   8  -1  438.31    4.79   0
   0  -1   2  839.08    5.01   0
   0  -1   5   11.83    1.50   0
   0   0   7   -2.25    0.95   0
   0   2   9    2.49    1.50   0
   0   7  -3  340.99    2.92   0
   1  -2   6   30.67    1.50   0
   1   0  -2    1.15    1.86   0
   1   9  -4  263.91    2.68   0
   2  -3   6  338.98    2.51   0
   2  -1   9   11.50    1.63   0
   2   1  -4  441.35    2.83   0
   3   1  -5  417.72    2.65   0
   4  -5   3  113.04    2.36   0
   4  -4   7    5.47    1.47   0
   4   5  -7    6.16    1.07   0
   4   6  -7   29.89    1.71   0
   4   7  -7   11.84    1.64   0
   4   8  -7   46.76    1.48   0
   5   0  -6   -1.38    1.38   0
   6  -4  -3  429.58    3.43   0
   6   1  -7   13.04    1.57   0
   6   5  -8  140.90    2.12   0
   7  -5  -2   17.23    1.88   0
   7   0  -7  429.83    2.68   0
   8  -4  -4   12.82    1.56   0
   8  -2  -6  162.42    2.12   0
  -2   8   6    3.76    1.61   0
  -2   9   5   49.84    1.91   0
  -1   1   6  162.69    1.91   0
  -1   3   8    5.91    1.07   0
  -1   5   9   95.93    1.94   0
   1  -1   8   69.10    1.66   0
   1   0   9   32.66    1.21   0
   1   4  -4  558.89    3.11   0
   2  -2   8    8.75    1.08   0
   2   4  -5   49.05    1.60   0
   2   9  -5   47.19    1.84   0
   3  -3   8   33.09    1.64   0
   3  -2   9  138.22    1.72   0
   3   4  -6   36.02    1.13   0
   3   8  -6    0.50    1.64   0
   4  -5   2  656.92    5.30   0
   4  -5   4  216.23    2.68   0
   4  -4  -1   30.54    2.19   0
   5  -5   6   19.52    1.59   0
   6  -2  -5   54.73    1.66   0
   7  -6   4    5.45    2.12   0
   7   3  -8   44.81    1.38   0
   8  -3  -5    0.14    1.53   0
   9  -2  -6    8.03    1.69   0
  -2   5   7  354.54    2.46   0
  -2   6   7   -0.44    1.47   0
  -2   7   7   10.87    1.55   0
  -2   9   6   16.69    1.80   0
  -1   4   9   46.27    1.71   0
  -1  10   0  460.57    6.58   0
   0  -1   6  679.42    2.85   0
   0   0   8  380.83    2.37   0
   0   1   9    9.54    1.43   0
   1  -2   7   43.80    1.56   0
   1   1  10    4.83    1.23   0
   1   5  -4  142.39    1.96   0
   1   8  -4  133.84    2.09   0
   1  11  -3   25.41    1.84   0
   3  -4   6   69.13    1.40   0
   3   6  -6   25.10    1.63   0
   3   7  -6  309.27    2.50   0
   4   0  -5    0.39    1.32   0
   5  -4  -2  479.80    3.98   0
   6  -3  -4   36.58    1.63   0
   8   0  -7    1.13    1.53   0
   9  -4  -4    3.94    1.69   0
   9  -3  -5   62.41    1.97   0
  -2   3   4    1.37    1.04   0
  -2   3   5   69.60    1.66   0
  -1   1   7    0.09    1.33   0
  -1   2   8    1.94    1.01   0
  -1   3   9   54.02    1.64   0
  -1   7  -1  179.08    3.30   0
   0   2  10    1.98    1.53   0
   1   7  -4    0.83    1.47   0
   2  -3   7  169.56    1.70   0
   2   5  -5  370.94    2.51   0
   2   6  -5   99.40    1.80   0
   2   7  -5  151.65    2.00   0
   4  -5   5   10.07    1.47   0
   5  -1  -5  235.64    2.15   0
   5   4  -7  333.22    2.35   0
   6  -6   3  166.27    3.19   0
   6  -5  -1    8.11    1.99   0
   6   2  -7    7.79    1.06   0
   7   1  -7   78.18    1.78   0
  -2   3   6  296.87    2.28   0
  -2   4   7    8.46    1.07   0
  -2   7   8    1.72    1.57   0
  -2  10   4   22.30    2.15   0
  -1   0   4   -0.51    1.45   0
  -1   0   5 2534.63    5.72   0
  -1   6  -1  214.08    3.41   0
   0  -1   7    2.56    0.99   0
   1  -1   9   79.99    1.77   0
   1   0  10   -4.46    1.62   0
   1   2  -3 1666.03    5.53   0
   2  -2   9    7.97    1.66   0
   2   0  -3   -0.05    1.62   0
   3  -4   7    9.18    1.52   0
   3   0  -4   -0.95    1.47   0
   4   3  -6   43.13    1.50   0
   5  -5   7  246.30    2.47   0
   5   1  -6   50.81    1.22   0
   5   5  -7   -0.93    1.14   0
   5   6  -7  119.13    1.99   0
   5   7  -7   -0.45    1.68   0
   6  -6   4   41.42    2.19   0
   6   0  -6   47.47    1.55   0
   8  -5  -2    6.16    1.85   0
  -2   5   8   17.15    1.14   0
  -1   0   6    0.35    1.36   0
  -1   1   8    3.00    1.42   0
  -1   2   9  343.75    2.42   0
   0   0   9    0.31    1.43   0
   0   3  -2 1536.56    6.26   0
   1  -3   4   -0.35    1.35   0
   1  -3   5  194.77    2.11   0
   1  -2   8   44.52    1.63   0
   2  -4   4 1797.62    5.57   0
   2  -3   8   89.76    1.78   0
   2   2  -4 3505.63    6.95   0
   3  10  -5   15.89    1.82   0
   4  -5   6  298.70    2.58   0
   4   9  -6   47.55    2.01   0
   5  -3  -3  444.10    3.20   0
   5  -2  -4    8.92    1.50   0
   6   3  -7    3.87    1.12   0
   7  -4  -3  327.85    2.88   0
   7  -2  -5   38.45    1.54   0
   8  -1  -6   -0.87    1.19   0
   8   1  -7   28.12    1.36   0
  -2   2   5  139.55    1.92   0
  -2   2   6  334.64    2.38   0
  -1   0   3 5815.88   10.23   0
  -1   0   7  164.33    1.88   0
  -1   3  10    8.90    1.65   0
   0  -2   5  392.86    2.60   0
   0  -1   8   39.82    1.53   0
   0   1  10  207.66    1.83   0
   1  10  -3  110.88    2.23   0
   2  -4   5  135.86    1.99   0
   2  10  -4   22.27    1.80   0
   4   4  -6    1.29    1.33   0
   4   8  -6   68.39    1.91   0
   5   2  -6  249.13    2.15   0
   6  -6   5   -0.54    1.61   0
   6   4  -7   11.02    1.49   0
   7  -3  -4   -1.45    1.48   0
   9  -1  -6    3.04    1.59   0
  -2   2   4 3586.21    7.26   0
  -2   3   8   32.94    1.59   0
  -2   5   9    3.59    1.61   0
  -2   6   9   39.63    1.89   0
  -2   9   2  249.40    5.47   0
  -2  10   3  273.25    4.32   0
  -1  11   1   29.06    3.93   0
   0  -2   4 1817.41    5.16   0
   0  -2   6  242.82    2.18   0
   0  11  -1   37.43    2.33   0
   1  -1  10    6.41    1.75   0
   2  -4   3  335.53    2.99   0
   2  -4   6  300.49    2.43   0
   2  -1  -2  671.35    4.33   0
   3  -4   8    1.51    1.57   0
   3  -1  -3  793.47    3.94   0
   3   9  -5   86.67    1.97   0
   4   5  -6  223.65    1.83   0
   4   6  -6   12.19    1.53   0
   4   7  -6  367.26    2.61   0
   6  -1  -5   80.05    1.73   0
   6   1  -6   87.80    1.71   0
   6   5  -7   10.41    1.23   0
   6   6  -7   64.55    1.91   0
   7   0  -6    0.71    1.09   0
   7   3  -7   10.61    1.62   0
   8  -2  -5   66.41    1.74   0
   8   2  -7   20.05    1.75   0
  -1   0   8    0.51    1.36   0
  -1   1   9  284.53    1.99   0
  -1   2  10   41.57    1.69   0
   0  -2   7  611.04    2.87   0
   0  -1   9    6.83    1.46   0
   0   0  10  282.89    2.37   0
   1  -2   9  198.55    1.78   0
   1   3  -3   82.26    1.84   0
   2  -3   9    5.39    1.67   0
   2  -2  -1  133.99    3.14   0
   3  -5   4  196.49    2.51   0
   3  -5   5    2.86    1.68   0
   3  -3  -1  197.78    3.36   0
   3   4  -5  298.29    2.29   0
   4  -3  -2  384.08    3.36   0
   4  -2  -3   10.96    1.44   0
   5   0  -5   16.56    1.04   0
   5   3  -6  177.44    1.98   0
   7   4  -7  178.95    2.11   0
   8  -4  -3   41.26    1.80   0
   8  -3  -4  153.05    2.16   0
   8   0  -6  186.77    2.14   0
   9  -2  -5  174.00    2.28   0
  -2   2   3 1137.60    4.82   0
  -2   2   8  307.15    2.28   0
  -2   3   9   14.79    1.50   0
  -1  -1   5  464.35    2.71   0
   0  -2   3  916.37    4.29   0
   0   4  -2   48.19    1.73   0
   0   8  -2   41.64    2.03   0
   1   9  -3    9.35    1.63   0
   2  -4   7   62.62    1.32   0
   3  -5   6  105.72    1.83   0
   3   1  -4   14.49    1.48   0
   3   5  -5  713.30    3.21   0
   3   8  -5    2.12    1.11   0
   5  -6   4    7.23    1.90   0
   5  -6   5  411.48    3.50   0
   7   5  -7    2.10    1.56   0
   8   3  -7    1.08    1.19   0
   9  -4  -3  189.73    2.47   0
   9  -3  -4    7.36    1.63   0
   9   0  -6    0.93    1.64   0
  -2   1   5   31.00    1.50   0
  -2   1   7  360.84    2.36   0
  -2   3   2 1310.50    6.43   0
  -1  -1   7    1.80    1.31   0
  -1   0   9   48.75    1.61   0
  -1   1  10   20.45    1.70   0
   0  -2   8   57.36    1.57   0
   1  -3   8   18.32    1.52   0
   2   4  -4  547.76    3.00   0
   2   8  -4  552.79    3.20   0
   3  -5   3  163.96    2.54   0
   3  -2  -2   -0.12    1.34   0
   3   6  -5  308.05    2.36   0
   5  -6   3    1.82    1.97   0
   5  -6   6   73.62    2.27   0
   5   4  -6  270.85    2.19   0
   5   8  -6   21.86    1.79   0
   6  -4  -2  417.85    3.54   0
   6  -2  -4  175.62    1.83   0
   6   2  -6  400.77    2.25   0
   7  -1  -5  124.04    1.87   0
   7   1  -6    2.74    1.07   0
   8   4  -7   31.63    1.35   0
  -3   5   5  701.65    3.55   0
  -3   5   6  100.61    1.82   0
  -3   6   5  311.19    2.68   0
  -3   6   7  221.08    2.30   0
  -3   7   5   65.92    1.81   0
  -3   7   6  317.48    2.71   0
  -3   7   7    1.26    1.62   0
  -2   1   4  452.28    2.92   0
  -2   2   9   14.27    1.57   0
  -1  -1   4   10.81    1.17   0
  -1   0   2    0.68    1.88   0
  -1   1   1  962.96    7.30   0
   0  -1   1 1959.76    9.93   0
   0  -1  10  210.39    2.22   0
   1  -3   2  238.93    2.99   0
   1   1  -2   54.13    2.04   0
   1   8  -3 1297.99    4.92   0
   1  11  -2    1.65    1.69   0
   2  -4   8   17.03    1.25   0
   2   1  -3  175.05    2.29   0
   2   7  -4  270.78    2.40   0
   2  11  -3   18.84    1.86   0
   3  -5   7   61.83    1.77   0
   4   0  -4 1725.74    4.93   0
   5   6  -6    5.43    1.48   0
   5   7  -6    0.09    1.16   0
   6  -3  -3  131.08    2.13   0
   6   0  -5   -0.54    1.33   0
   8   1  -6   -0.08    1.65   0
  -3   4   7   54.89    1.63   0
  -3   7   8   13.72    1.73   0
  -3   8   6    3.04    1.62   0
  -3   8   7   79.08    2.07   0
  -2   1   8   25.12    1.11   0
  -2   3  10  321.20    2.19   0
  -1  -1   8    2.14    1.00   0
   0  -2   9    5.08    1.60   0
   0   5  -2 1031.02    4.91   0
   0   6  -2   19.19    1.56   0
   1  -3   9   26.69    1.68   0
   1   7  -3  286.62    2.76   0
   2  -4   2  169.37    2.63   0
   2   5  -4   59.86    1.32   0
   2   6  -4  466.21    2.90   0
   3  10  -4  113.27    2.15   0
   4   3  -5   17.01    1.43   0
   4   9  -5  128.72    2.09   0
   7   2  -6   20.67    1.58   0
   8  -1  -5    1.64    1.06   0
   9  -1  -5   63.86    1.83   0
   9   1  -6    3.13    1.66   0
  -3   4   5  297.41    2.22   0
  -3   4   8   35.15    1.67   0
  -3   5   4   24.42    1.79   0
  -3   6   4  122.24    2.11   0
  -3   8   5    1.36    1.55   0
  -2   1   9   29.66    1.62   0
  -2   2  10   38.88    1.82   0
  -1  -1   9  278.62    2.24   0
  -1   0  10    0.46    1.09   0
  -1   9   0   25.68    2.61   0
   0  -3   5   27.47    1.41   0
   0  -3   6 1086.34    3.79   0
   1  -4   5  599.17    3.21   0
   1  -4   6   48.02    1.61   0
   1   5  -3  174.23    2.10   0
   1   6  -3  368.58    2.82   0
   2  -4   9   19.71    1.74   0
   3  -5   8   50.50    1.74   0
   3   2  -4   52.85    1.60   0
   6   4  -6  394.81    2.26   0
   6   5  -6   -0.35    1.51   0
   6   7  -6  167.58    2.16   0
   8   2  -6  158.06    2.08   0
  -3   3   6   56.91    1.27   0
  -3   3   8   10.58    1.43   0
  -3   9   6   17.97    1.74   0
  -2   0   5    0.91    1.37   0
  -2   0   6  887.08    3.20   0
  -2   0   7    1.18    0.95   0
  -1  -1   3  407.30    3.05   0
   0  -3   7   19.69    1.16   0
   0  -2  10   -1.29    1.58   0
   1  -4   7  189.05    2.06   0
   2  10  -3  269.26    2.66   0
   4  -6   5   48.55    1.75   0
   4  -6   6   83.24    1.96   0
   4   4  -5   20.76    1.07   0
   4   7  -5    3.85    1.54   0
   5   2  -5  246.35    2.14   0
   6   6  -6   46.46    1.32   0
   7  -3  -3   10.44    1.50   0
   7   0  -5  275.96    2.26   0
   7   3  -6   31.53    1.20   0
   8  -5  -1    1.86    1.76   0
   8  -2  -4    4.80    1.49   0
   9   2  -6   10.69    1.75   0
  -3   3   5  794.46    3.30   0
  -3   4   4  186.33    2.28   0
  -3   9   5   88.33    2.47   0
  -2   0   8  467.58    2.36   0
  -2   1   3  178.81    2.34   0
  -2   1  10  105.53    1.93   0
  -1  -2   7  603.43    2.88   0
  -1  -1  10   28.37    1.62   0
   0  -3   8   38.69    1.23   0
   0  -2   2  268.63    3.02   0
   1  -4   4   53.75    1.70   0
   1  -4   8   80.84    1.78   0
   1  10  -2    3.99    1.95   0
   2  -5   5    2.78    1.41   0
   2  -5   6  345.37    2.59   0
   3   0  -3 5374.37    9.26   0
   3   9  -4    4.29    1.47   0
   4  -6   4   15.23    1.54   0
   4  -6   7  117.37    2.20   0
   4   6  -5  107.91    1.51   0
   5  -2  -3 2100.58    5.89   0
   5   9  -5  162.58    2.23   0
   6  -1  -4  680.43    3.33   0
   6   1  -5   79.68    1.38   0
   7  -4  -2    2.75    1.48   0
   7   4  -6   10.82    1.49   0
   7   5  -6   24.67    1.69   0
   8  -6   1    0.63    2.96   0
   8   0  -5   -1.66    1.50   0
   9  -2  -4    6.90    1.60   0
  -3   2   6  201.32    2.01   0
  -3   2   7   72.19    1.34   0
  -3   2   8   28.65    1.53   0
  -3   8   4  343.69    3.53   0
  -2   0   9   -1.51    1.55   0
  -1  -2   5  565.30    2.74   0
  -1  -2   8    2.49    1.01   0
   0  -3   9   41.71    1.67   0
   2   2  -3 1139.46    4.46   0
   3   3  -4   85.88    1.39   0
   4  -1  -3  502.20    3.11   0
   4   1  -4  522.51    2.68   0
   5   0  -4   -2.99    1.42   0
   5   3  -5 1292.59    4.03   0
   7   6  -6  244.85    2.00   0
   8  -4  -2   61.01    2.16   0
   8  -3  -3   39.18    1.68   0
   9   0  -5   97.35    1.86   0
   9   3  -6   44.55    1.45   0
  10  -3  -3    1.72    1.78   0
  -3   2   5  122.25    1.79   0
  -3   2   9   16.22    1.62   0
  -3   3  10   68.74    1.76   0
  -2  -1   7  364.90    2.35   0
  -2   0   4 1220.46    4.19   0
  -2   2   2  114.48    2.26   0
  -1  -2   9  353.51    2.44   0
   1  -4   9  114.93    1.61   0
   2  -5   4   73.46    1.78   0
   2   9  -3  322.36    2.69   0
   3   4  -4  188.79    2.04   0
   3   8  -4  338.06    2.31   0
   4  10  -4   12.29    1.77   0
   5  -4  -1    4.39    1.70   0
   5   4  -5    3.36    1.44   0
   5   8  -5    3.75    1.51   0
   6   2  -5   52.26    1.60   0
   8   5  -6   78.37    1.52   0
   9  -4  -2    7.80    1.61   0
  -3   1   7    2.73    1.41   0
  -2  -1   6  773.50    3.22   0
  -2  -1   8   25.39    1.51   0
  -2   0  10   -0.02    1.16   0
  -2   5   1    8.73    3.16   0
  -1  -2   4   34.07    1.60   0
   1   2  -2  152.62    2.36   0
   3  -6   6  205.89    2.29   0
   3  -5   2    0.37    1.84   0
   3   5  -4   24.98    1.50   0
   3   6  -4  118.95    1.89   0
   3   7  -4  352.22    2.53   0
   5   5  -5   28.97    1.52   0
   5   6  -5   70.53    1.70   0
   7  -1  -4  192.97    2.06   0
   8   1  -5    1.02    1.49   0
  -3   1   6  428.92    2.60   0
  -3   1   8   -0.57    1.01   0
  -3   1   9  287.98    2.30   0
  -3   5   3  256.58    3.05   0
  -3   6   3  953.73    5.45   0
  -2  -1   5   29.72    1.51   0
  -2  -1   9   26.91    1.59   0
  -1  -2  10   45.42    1.40   0
   0  -4   7  223.03    2.17   0
   1  -4   3  263.79    2.61   0
   1   9  -2  252.67    2.63   0
   2   0  -2  302.30    2.81   0
   2   3  -3 1438.77    4.79   0
   2  11  -2   10.67    2.05   0
   3  -6   5  499.03    3.28   0
   3  -6   7    7.77    1.65   0
   4  -6   3  207.55    3.27   0
   4   2  -4  695.21    3.18   0
   4   9  -4   15.96    1.69   0
   6   3  -5   16.57    1.46   0
   6   8  -5    4.10    1.64   0
   8  -1  -4  209.33    2.19   0
   9  -1  -4    1.43    1.54   0
   9   1  -5   61.32    1.41   0
  10  -1  -4   83.43    1.97   0
  -4   5   8   99.56    1.85   0
  -4   6   7   29.13    1.62   0
  -3  10   5   16.28    2.36   0
  -2  -1  10  110.70    1.88   0
  -1  -3   6  151.67    1.86   0
  -1  -3   7 1149.07    3.78   0
  -1  -3   8    5.29    1.39   0
   0  -3   3  402.73    3.00   0
   0  11   0    0.09    2.03   0
   1  -5   6  117.45    1.80   0
   2   8  -3  413.84    2.86   0
   3   1  -3  777.66    3.68   0
   3  10  -3  163.38    2.28   0
   5  -6   2   12.99    3.52   0
   5   1  -4   63.34    1.60   0
   6   0  -4  930.54    3.58   0
   6   4  -5  161.22    1.92   0
  -4   4   7    0.96    1.38   0
  -4   4   8  144.40    2.04   0
  -4   4   9    1.71    1.51   0
  -4   5   9    1.79    1.72   0
  -4   7   7   11.44    1.70   0
  -4   7   8    3.91    1.71   0
  -3   0   7 1484.26    4.16   0
  -3   0   8   -0.44    1.41   0
  -3   1   5  432.78    2.66   0
  -3   1  10    5.87    1.22   0
  -3   2   4   52.42    1.60   0
  -3   4   3  961.45    4.77   0
  -3   7   3  940.75    6.02   0
  -1  -3   9   69.13    1.79   0
  -1   8   0  628.54    5.59   0
   0  -4   5   60.22    1.63   0
   1  -5   8   12.18    1.61   0
   1  11  -1   31.51    1.89   0
   2   4  -3  133.55    2.00   0
   2   7  -3   13.90    1.55   0
   4  -2  -2  558.32    3.60   0
   4   3  -4   88.42    1.74   0
   4   8  -4  130.09    1.99   0
   6  -5   0  160.28    3.26   0
   6   5  -5  159.19    1.65   0
   6   6  -5  123.85    1.53   0
   7  -2  -3 1051.94    4.19   0
   7   3  -5  258.84    2.17   0
   9   2  -5  171.84    1.79   0
  10  -2  -3    7.27    1.66   0
  -4   3   7   17.35    1.35   0
  -4   3   8  246.23    2.27   0
  -4   3   9  143.81    1.95   0
  -4   4   6    0.72    1.29   0
  -4   5   6  226.29    2.29   0
  -4   6   6   10.18    1.46   0
  -4   7   6  377.38    3.20   0
  -3   0   6   -0.32    1.41   0
  -3   0   9  272.84    2.27   0
  -2  -2   7   52.21    1.25   0
  -2  -2   8  296.02    1.97   0
  -2  -2   9   16.15    1.55   0
  -2   0   3    1.23    1.51   0
  -1  -3  10   10.73    1.64   0
   1  -5   5  191.70    2.17   0
   1  -5   9   13.65    1.80   0
   1   0  -1 1672.90    8.64   0
   1   8  -2   23.63    1.59   0
   2  -5   3  482.72    3.58   0
   2   5  -3  532.64    3.06   0
   2   6  -3   23.26    1.60   0
   3  -6   4    7.74    1.41   0
   3  -1  -2  741.99    4.01   0
   4   0  -3    2.15    1.47   0
   4   7  -4  117.02    1.93   0
   5  -1  -3   40.91    1.27   0
   5   9  -4   65.26    1.94   0
   6  -3  -2 1390.07    5.26   0
   7   0  -4   -2.52    1.39   0
   7   4  -5    3.61    1.46   0
   7   5  -5  419.02    2.62   0
   7   6  -5   44.98    1.75   0
   8  -2  -3   21.58    1.56   0
   8   3  -5   -0.65    1.13   0
   9  -2  -3  159.47    2.17   0
   9   3  -5   58.10    1.86   0
  10   0  -4   36.27    1.82   0
  -4   8   7   47.67    2.00   0
  -3   0  10    1.44    1.57   0
  -2  -2   6  337.14    2.09   0
  -2  -2  10   34.78    1.64   0
  -2  -1   4  456.43    2.62   0
  -1  -2   3 1716.60    5.59   0
  -1  -1   2   54.45    2.05   0
   1   3  -2    4.53    1.48   0
   2  -6   6  107.47    1.90   0
   3   9  -3    1.16    1.61   0
   4   5  -4  183.98    2.08   0
   4   6  -4  448.01    2.66   0
   5   2  -4    8.17    1.44   0
   6  -7   4   84.16    3.00   0
   6  -4  -1    3.24    1.70   0
   6   1  -4  671.56    3.10   0
   8   0  -4  383.57    2.57   0
   8   4  -5    9.89    1.20   0
   8   5  -5    3.98    1.60   0
   8   6  -5   42.57    1.78   0
   9   0  -4    1.37    1.41   0
   9   4  -5   35.44    1.70   0
  -4   2   7  179.40    2.02   0
  -4   2   9    0.06    1.53   0
  -4   5   5  294.70    2.77   0
  -4   8   6   68.89    2.29   0
  -3  -1   8    1.47    1.34   0
  -3   3   3  198.54    2.42   0
   0  -4   4 1587.24    5.03   0
   1   7  -2   66.94    1.80   0
   2  10  -2  217.37    2.43   0
   3   2  -3  921.74    3.81   0
   5   8  -4   73.41    1.76   0
   7  -3  -2   10.75    1.44   0
   9  -5   0   15.38    2.04   0
   9  -3  -2    6.20    1.84   0
  -4   2  10   10.35    1.28   0
  -4   6   5  108.88    2.01   0
  -3  -1   7    0.61    1.07   0
  -3  -1   9  279.13    1.97   0
  -3  -1  10    7.41    1.52   0
  -3   0   5  891.51    3.32   0
  -2  -2   5  143.98    1.60   0
  -2   1   2  675.74    4.33   0
  -1  -4   7   89.16    1.83   0
  -1  -4   8   45.00    1.65   0
  -1  -4   9   51.45    1.64   0
   0  -5   7  159.39    1.95   0
   0  -5   8   72.96    1.84   0
   1  -5   4   11.36    1.47   0
   2  -6   5   52.95    1.70   0
   3   8  -3   57.00    1.70   0
   3  11  -2  140.50    2.29   0
   4  -7   6   46.12    1.89   0
   4  -3  -1  502.84    4.19   0
   4  10  -3   29.68    1.35   0
   5   3  -4  109.54    1.73   0
   6  -1  -3   14.58    1.56   0
   6   9  -4   65.45    1.56   0
   7  -5   0   24.52    1.97   0
   7   1  -4  194.15    2.02   0
   8  -5   0  179.44    2.95   0
   8  -3  -2    4.81    1.45   0
   9  -4  -1  241.85    2.95   0
   9   1  -4    2.63    1.56   0
  10   1  -4   82.35    1.53   0
  -4   1   7   54.70    1.57   0
  -4   1   9   12.04    1.17   0
  -4   1  10   90.29    1.84   0
  -4   2   6  411.42    2.56   0
  -4   7   5    2.81    1.51   0
  -3  -1   6  428.89    2.53   0
  -2  -3   7   21.60    1.48   0
  -2  -3   8   32.25    1.18   0
  -2   4   1   36.52    2.88   0
  -1  -4   6  279.30    2.24   0
  -1  -3   4  658.28    3.14   0
  -1   3   0  241.00    6.76   0
  -1  10   1  174.02    3.67   0
   0  -5   9    5.70    1.69   0
   1   5  -2  256.88    2.50   0
   1   6  -2    8.02    1.50   0
   1  10  -1  173.30    2.67   0
   2   1  -2  677.42    3.95   0
   5   4  -4   46.88    1.56   0
   5   6  -4  134.62    1.86   0
   6   2  -4  175.05    1.68   0
   6   8  -4  184.41    2.17   0
  10  -1  -3    0.52    1.19   0
  -4   3   5   18.07    1.50   0
  -2  -3  10  356.37    2.65   0
  -1   7   0   38.22    2.40   0
   1  -6   7   -0.42    1.48   0
   1  -6   8  121.77    1.97   0
   3  -7   7  494.55    3.35   0
   3   3  -3  196.34    1.89   0
   3   7  -3  964.67    3.84   0
   4  -7   5    1.16    1.52   0
   4   1  -3  498.20    2.74   0
   4   9  -3    6.03    1.56   0
   5  -7   4  163.91    3.26   0
   5  -2  -2  143.59    2.14   0
   5   0  -3   99.97    1.47   0
   5  10  -3  197.27    2.49   0
   7  -1  -3  129.61    1.64   0
   7   2  -4  118.66    1.80   0
   7   8  -4    2.56    1.73   0
   8  -1  -3    6.51    1.50   0
   8   2  -4    6.03    1.54   0
   9  -1  -3   35.93    1.63   0
   9   2  -4    7.16    1.56   0
  -4   0   8   86.84    1.73   0
  -4   0   9   -1.91    1.51   0
  -4   0  10   36.34    1.66   0
  -3  -2   8   29.92    1.53   0
  -3  -2   9   17.11    1.53   0
  -3  -2  10    7.01    1.52   0
  -3   2   3  940.76    4.20   0
  -2  -3   6  303.73    2.01   0
   1  -6   6  137.74    1.97   0
   3  -7   6   16.70    1.88   0
   3   4  -3  946.88    3.74   0
   3   6  -3  942.47    3.75   0
   6   4  -4  368.60    2.44   0
   6   5  -4  203.80    2.07   0
   6   6  -4   51.68    1.67   0
   7   3  -4   -0.37    1.38   0
   7   7  -4   57.95    1.80   0
   9   3  -4    5.97    1.70   0
  10  -2  -2  338.28    2.84   0
  -5   4   8   68.43    1.81   0
  -4   0   7    0.30    1.39   0
  -4   2   5   36.67    1.54   0
  -4   8   5   77.72    2.41   0
  -3  -2   7   73.85    1.32   0
  -3   0   4    0.34    1.45   0
  -2  -2   4 3634.32    7.01   0
  -2  -1   3  176.36    2.29   0
  -1   0   1 2046.39    9.48   0
   0  -5   5  135.93    1.99   0
   1  -4   2   44.15    1.89   0
   2  -6   4  105.90    2.22   0
   2  11  -1   31.69    1.78   0
   3  10  -2   27.55    1.75   0
   4   8  -3  100.68    1.85   0
   6   0  -3    1.08    1.38   0
   7   4  -4    2.45    1.50   0
   7   6  -4   22.01    1.61   0
   8   3  -4  155.57    1.68   0
   8   6  -4   89.47    1.94   0
   8   7  -4  121.07    1.71   0
   9   5  -4   25.02    1.72   0
  10   0  -3    1.52    1.27   0
  -5   3   8    1.46    1.53   0
  -5   3   9  109.17    1.58   0
  -5   5   7    0.85    1.46   0
  -4   5   4  185.35    2.37   0
  -3  -2   6  198.52    1.93   0
  -2  -4   8  178.02    2.01   0
  -2  -4   9   20.27    1.63   0
  -2  -3   5   67.08    1.56   0
  -1  -5   8   20.52    1.60   0
   0  -3   2 1548.71    6.26   0
   2  -1  -1  536.31    4.72   0
   2   8  -2    3.52    1.47   0
   3  -2  -1  144.11    2.57   0
   3   0  -2    2.85    1.07   0
   4  -1  -2  271.19    2.41   0
   4   2  -3   11.44    1.06   0
   5   9  -3    5.04    1.23   0
   6  -2  -2  558.54    3.36   0
   7   0  -3  287.96    2.41   0
   8   5  -4  119.03    1.63   0
   9  -2  -2  125.67    2.12   0
   9   0  -3  199.05    2.24   0
  10  -3  -1    7.61    2.07   0
  -5   2   8   20.05    1.54   0
  -5   2   9   37.39    1.77   0
  -5   3   7   11.79    1.42   0
  -5   4   7  330.49    2.24   0
  -4  -1   8   41.05    1.63   0
  -4   0   6   21.82    1.47   0
  -4   1   5   36.56    1.47   0
  -4   4   4 1127.28    4.62   0
  -3  -3   9  172.00    1.99   0
  -2  -4   7    8.86    1.42   0
   0  -6   8   86.09    1.87   0
   0  -4   3    2.51    1.42   0
   1  -6   5  386.72    2.82   0
   1   9  -1   25.77    1.63   0
   2  -7   7   80.31    1.95   0
   2   2  -2  116.68    2.10   0
   3  -7   5   81.36    2.31   0
   4   7  -3   14.08    1.45   0
   6   9  -3   39.46    1.81   0
   7  -2  -2  582.41    3.32   0
   8  -2  -2  163.11    2.15   0
   8   0  -3   -1.01    1.09   0
  10   1  -3    1.32    1.64   0
  -5   1   9  377.40    2.49   0
  -5   7   7    0.31    1.71   0
  -4   3   4   90.39    1.89   0
  -3  -3   8   11.80    1.12   0
  -3  -3  10   68.38    1.50   0
  -3   1   3  811.31    3.94   0
  -1  -3   3   84.55    1.85   0
  -1   6   0  180.04    3.42   0
   1  -5   3 1302.68    5.51   0
   1  11   0   29.68    1.88   0
   2  -7   6  137.15    2.34   0
   2   7  -2  270.93    2.51   0
   3   9  -2   12.79    1.57   0
   4  -7   4  268.75    3.47   0
   4   3  -3  152.26    1.66   0
   4   4  -3    5.29    1.44   0
   4   6  -3  965.15    3.67   0
   4  10  -2   22.56    1.68   0
   5   8  -3   18.81    1.16   0
  10  -1  -2   10.13    1.70   0
  -5   1   8    4.96    1.46   0
  -5   2   7  180.00    2.02   0
  -5   4   6  275.34    2.40   0
  -5   5   6   75.89    1.79   0
  -4   7   4  114.12    2.53   0
  -3  -3   7  209.32    1.74   0
  -2  -4   6   47.75    1.54   0
  -2   0   2  317.73    3.06   0
  -1  -4   4  581.75    3.14   0
   2  10  -1   19.91    1.65   0
   3  11  -1   75.93    1.99   0
   4   5  -3  577.61    2.74   0
   5   2  -3 2134.49    5.18   0
   5   7  -3   -0.29    1.51   0
   6   8  -3   81.66    1.87   0
   9  -3  -1    4.05    1.60   0
  -5   0   9    4.77    1.61   0
  -5   3   6  172.44    2.04   0
  -5   6   6    5.94    1.54   0
  -4  -2   8  481.96    2.65   0
  -4  -2   9   -0.39    1.11   0
  -4  -2  10   11.12    1.27   0
  -4  -1   6 1139.12    3.71   0
  -4   2   4  690.15    3.47   0
  -4   9   5  130.02    3.04   0
  -3  -2   5  124.30    1.53   0
  -3  -1   4   14.64    1.07   0
  -1  -2   2  154.08    2.40   0
  -1  11   2   -0.08    2.37   0
   0  -5   4  230.51    2.39   0
   1  -7   8    2.45    1.69   0
   2   3  -2 1307.38    4.75   0
   2   6  -2   -0.06    1.43   0
   5  -1  -2  254.44    2.39   0
   5   3  -3  470.29    2.74   0
   5   6  -3  411.07    2.61   0
   5  10  -2   91.57    2.06   0
   7   8  -3  148.73    1.75   0
   8  -6   2  120.77    3.57   0
   9  -4   0   34.37    2.16   0
   9   2  -3  160.53    2.12   0
  10   3  -3    0.77    1.31   0
  -5   0   8   -0.35    1.42   0
  -5   1   7    0.66    1.06   0
  -5   2   6  251.48    2.19   0
  -5   7   6   -0.57    1.87   0
  -4   0   5    0.21    0.93   0
  -3  -4   9  176.04    2.16   0
  -2  -5   8   18.56    1.54   0
  -2  -5   9    2.73    1.23   0
  -2  -3   4    1.79    1.45   0
  -1  -6   9   28.80    1.80   0
   0  -2   1  139.50    3.03   0
   1  -7   7   57.21    1.79   0
   1   1  -1  952.24    6.02   0
   1   8  -1   15.44    1.53   0
   2   4  -2  210.45    2.27   0
   2   5  -2  367.80    2.71   0
   3   1  -2  759.62    3.87   0
   3   8  -2   16.89    1.43   0
   4   9  -2  310.15    2.53   0
   5   4  -3 1458.41    4.28   0
   5   5  -3   94.92    1.73   0
   6  -3  -1   16.66    1.51   0
   6   2  -3   90.55    1.39   0
   6   7  -3    1.02    1.14   0
   7  -3  -1   30.19    1.79   0
   7   2  -3 1061.37    3.77   0
   7   7  -3   43.46    1.74   0
   8  -3  -1   33.53    1.64   0
   8   7  -3   83.71    1.50   0
   9   3  -3  110.46    1.97   0
  10  -2  -1   56.21    2.21   0
  10   0  -2   90.66    2.02   0
  -3  -4   8   36.38    1.21   0
  -3   0   3 5274.11    9.16   0
  -3   4   2    4.09    1.77   0
  -3   5   2  360.84    4.35   0
  -2  -5   7  365.11    2.45   0
  -2  -4   5   50.18    1.55   0
  -2  -2   3 1159.27    4.45   0
  -1  -5   5  504.52    2.96   0
  -1   4   0   66.95    2.97   0
   1  -6   4 1127.10    4.63   0
   2  -7   5   42.99    1.74   0
   4   0  -2  160.51    1.88   0
   6  -1  -2   76.69    1.75   0
   6   3  -3  117.48    1.52   0
   6   5  -3   -0.54    1.54   0
   6   6  -3  121.26    1.53   0
   7  -1  -2  531.18    3.12   0
   7   3  -3   10.11    1.47   0
   7   6  -3  178.66    2.06   0
   8  -1  -2   12.67    1.18   0
   8   3  -3   38.50    1.54   0
   8   4  -3   44.16    1.69   0
   8   6  -3   23.03    1.32   0
  -5  -1   9  378.84    2.25   0
  -5   0   7  666.16    2.99   0
  -5   1   6   54.34    1.52   0
  -4  -3   9  144.29    1.61   0
  -3  -4   7   56.40    1.57   0
  -1  -6   7   11.97    1.50   0
  -1   9   1   24.34    2.25   0
   0  -7   8   10.78    1.62   0
   0  -6   5  141.71    2.03   0
   1  10   0  455.35    3.65   0
   2   9  -1   86.60    1.90   0
   3  -7   4   14.54    1.86   0
   3   7  -2    0.28    1.44   0
   3  10  -1   10.58    1.62   0
   5   9  -2   40.34    1.70   0
   7   4  -3  329.85    2.11   0
   9   0  -2   -0.65    1.59   0
  10   1  -2   11.49    1.67   0
  -6   2   9   12.31    1.70   0
  -6   3   8   97.57    1.96   0
  -6   4   8  122.95    1.70   0
  -5   3   5 1301.25    4.50   0
  -5   4   5    2.41    1.48   0
  -5   5   5   28.07    1.56   0
  -4  -3   8  243.01    1.88   0
  -4  -2   6  419.48    2.51   0
  -4  -1   5   38.14    1.48   0
  -3   3   2  149.85    2.45   0
  -2   9   2  241.34    5.61   0
   1   7  -1  360.53    2.94   0
   2  -6   3  117.22    2.41   0
   2  11   0   21.97    1.81   0
   3   2  -2    1.04    1.52   0
   4   8  -2   50.12    1.31   0
   5  -4   0   20.19    1.87   0
   6   9  -2   23.88    1.73   0
   8  -5   1   97.82    2.56   0
   9  -2  -1  405.96    2.98   0
  -6   1   9  150.22    2.16   0
  -6   2   8  195.13    2.19   0
  -5  -2   9   40.88    1.68   0
  -5  -1   7    0.59    1.37   0
  -4   8   4  134.19    3.01   0
  -3  -5   9  171.95    2.15   0
  -3  -3   5  821.35    3.12   0
   0  -7   7  125.11    2.02   0
   3  -8   6   92.84    2.40   0
   3   6  -2  522.68    2.73   0
   4  -2  -1    0.92    1.39   0
   5   0  -2    0.50    0.98   0
   5   8  -2  204.18    2.19   0
   7  -4   0    0.56    1.72   0
   8   0  -2 2260.21    5.50   0
  10  -1  -1    8.44    1.64   0
  10   2  -2  346.17    2.36   0
  -6   1   8  193.22    2.07   0
  -6   3   7    5.80    1.49   0
  -6   4   7   10.78    1.50   0
  -6   5   7    8.51    1.66   0
  -5   0   6   -0.21    1.01   0
  -5   2   5  251.35    2.04   0
  -4   0   4 1739.07    4.93   0
  -3  -5   8  102.81    1.97   0
  -3  -4   6   35.60    1.13   0
  -2  -6   8   79.01    1.88   0
  -2  -1   2  682.03    3.99   0
   3   3  -2  148.35    1.80   0
   3   5  -2  362.21    2.56   0
   4   1  -2  262.36    2.18   0
   4   7  -2   17.34    1.41   0
   4  10  -1    0.14    1.49   0
   6  -4   0   31.58    1.92   0
   6   0  -2 1175.64    4.11   0
   6   8  -2  323.94    2.54   0
   7  -6   2   68.95    3.09   0
   7   0  -2   -0.77    1.05   0
   7   8  -2  208.23    2.21   0
  -6   0   9    0.22    1.27   0
  -5   1   5  239.79    2.14   0
  -4  -4   8  145.93    1.94   0
  -4   3   3  160.21    2.26   0
  -4   4   3    5.41    1.58   0
  -3  -1   3  799.30    3.72   0
  -3   2   2    0.46    1.35   0
  -2   2   1  137.59    3.20   0
  -1  -7   8   22.04    1.69   0
  -1  -4   3    3.17    1.40   0
   0  -7   6  320.11    2.53   0
   1  -7   5   28.89    1.61   0
   1   2  -1 4197.32   11.03   0
   1   6  -1  696.23    3.87   0
   2   8  -1   70.60    1.78   0
   3   9  -1  104.67    1.93   0
   3  11   0   62.91    2.01   0
   4   6  -2   23.14    1.49   0
   5   7  -2    7.04    1.56   0
   5  10  -1   10.69    1.74   0
   8   1  -2   13.26    1.63   0
   8   7  -2   26.32    1.65   0
   9  -3   0   40.88    2.05   0
   9   3  -2    5.56    1.63   0
   9   5  -2  119.75    2.01   0
   9   6  -2   15.94    1.35   0
  -6   0   8   60.81    1.75   0
  -6   1   7   16.54    1.47   0
  -5  -3   9  105.61    1.90   0
  -5  -2   7  177.95    1.97   0
  -5  -1   6   54.31    1.59   0
  -5   7   5  163.37    2.54   0
  -3  -5   7   24.18    1.54   0
   0  -5   3  152.25    2.22   0
   1  11   1   16.64    2.10   0
   2  -8   6   12.61    1.97   0
   2  -7   4  374.77    3.39   0
   2   0  -1   -0.24    1.87   0
   3  -1  -1 2064.26    7.33   0
   4   2  -2  555.33    3.06   0
   5  -2  -1  109.99    2.07   0
   5   1  -2  244.42    2.00   0
   6   1  -2   76.81    1.70   0
   6   7  -2    8.48    1.47   0
   7  -2  -1   64.43    1.78   0
   7   1  -2  526.57    2.87   0
   7   7  -2    2.50    1.13   0
   8   2  -2  166.05    2.00   0
   8   6  -2  497.38    2.88   0
   9  -1  -1  203.49    2.27   0
   9   4  -2    8.39    1.21   0
  10   0  -1   -1.79    1.65   0
  -6  -1   9  150.00    1.73   0
  -6   4   6  389.66    2.76   0
  -5  -3   8    0.79    1.46   0
  -4  -4   7   -0.53    1.41   0
  -4   2   3   10.73    1.39   0
  -2  -5   5  382.87    2.33   0
  -2  -3   3 1441.90    4.79   0
  -1  -7   7    1.61    1.53   0
  -1  -6   5  171.22    2.08   0
   0  -4   2   49.15    1.69   0
   1   5  -1  834.44    4.29   0
   2  10   0   -0.09    1.51   0
   4   3  -2  399.27    2.65   0
   4   4  -2 1274.28    4.20   0
   4   5  -2  748.19    3.09   0
   4   9  -1   78.49    1.82   0
   5   6  -2   59.25    1.58   0
   6  -2  -1   27.01    1.50   0
   6   6  -2  211.05    2.08   0
   7   2  -2  584.09    2.98   0
   7   6  -2   48.90    1.64   0
   8   3  -2    4.05    1.54   0
   8   5  -2    7.65    1.47   0
  10  -2   0   13.66    1.66   0
  -6  -1   8  196.13    2.14   0
  -6   0   7    1.26    1.46   0
  -6   2   6  413.83    2.62   0
  -6   3   6  123.97    1.99   0
  -6   5   6    0.40    1.49   0
  -5   0   5   14.93    1.01   0
  -4  -5   9    1.87    1.69   0
  -4  -1   4  535.69    2.69   0
  -3  -3   4   88.37    1.73   0
  -3   1   2  748.64    4.18   0
  -1  -3   2    4.62    1.47   0
   1   3  -1  600.04    4.13   0
   1   4  -1 1110.43    5.07   0
   2   7  -1  220.29    2.33   0
   3  -8   5  192.05    2.94   0
   3   8  -1   10.70    1.47   0
   5   2  -2  137.65    1.62   0
   5   3  -2   58.86    1.67   0
   5   5  -2  337.80    2.41   0
   5   9  -1   87.58    1.90   0
   6  -6   2  254.86    4.89   0
   6  -5   1   10.12    1.89   0
   6   2  -2  573.75    2.93   0
   6   5  -2   12.61    1.49   0
   6   9  -1  180.22    2.27   0
   7   3  -2   11.88    1.48   0
   7   5  -2   15.55    1.53   0
   8  -1  -1  385.23    2.74   0
  -6  -2   9   11.34    1.67   0
  -5  -4   9   27.66    1.72   0
  -5  -2   6  252.31    2.16   0
  -5   4   4   48.52    1.71   0
  -4  -5   8   96.36    1.94   0
  -4   1   3  501.80    3.12   0
  -3  -6   8   20.87    1.63   0
  -3  -5   6   99.71    1.47   0
   1  -6   3  385.33    3.38   0
   3  -3   0  398.93    5.11   0
   5   4  -2  473.59    2.50   0
   6   3  -2 1356.37    3.94   0
   6   4  -2  415.36    2.33   0
   8  -3   0  332.38    2.79   0
   9   0  -1    4.19    1.17   0
  10   2  -1   55.85    1.53   0
  -7   2   8    9.46    1.61   0
  -7   4   8    3.59    1.71   0
  -6  -1   7   13.04    1.48   0
  -6   1   6   87.48    1.80   0
  -5  -3   7    9.52    1.11   0
  -5   5   4   10.86    1.50   0
  -5   8   5    5.52    2.32   0
  -4  -3   5   18.75    1.45   0
  -3  -2   3  938.18    3.87   0
  -2  -7   8    0.59    1.19   0
  -1  -7   6   89.11    1.86   0
   0  -8   7    2.10    1.67   0
   1  -8   6   36.82    1.75   0
   1  -5   2   15.61    1.77   0
   3  10   0   68.50    1.88   0
   4   8  -1   30.30    1.52   0
   7  -1  -1  469.86    3.00   0
   7   8  -1    8.93    1.68   0
   9   6  -1    0.83    1.70   0
  10  -1   0   74.32    1.92   0
  -7   1   8   12.12    1.55   0
  -5  -1   5  232.57    1.85   0
  -4  -5   7    6.13    1.45   0
  -1   8   1   15.63    2.04   0
  -1  10   2    4.21    2.20   0
   1  -7   4   13.14    1.74   0
   2  -8   5  382.51    3.50   0
   2   6  -1  354.94    2.74   0
   2  11   1    2.57    1.68   0
   3   7  -1  563.51    3.14   0
   4  -7   3   20.72    2.99   0
   4  -1  -1   54.68    1.69   0
   4  10   0  137.34    2.13   0
   5   8  -1    8.52    1.48   0
   6   8  -1   52.43    1.73   0
   7  -3   0   12.30    1.79   0
   8   0  -1   -0.48    1.55   0
   8   7  -1   44.83    1.43   0
   9   2  -1  403.76    2.72   0
   9   5  -1   99.75    2.00   0
  -6  -3   9   15.69    1.33   0
  -6   0   6   51.75    1.25   0
  -5   1   4   63.45    1.35   0
  -5   6   4  135.17    2.62   0
  -4  -2   4  676.99    2.95   0
  -4   0   3    0.26    1.50   0
  -2  -7   7   10.73    1.17   0
  -2  -5   4   59.58    1.66   0
  -2  -2   2  112.97    1.80   0
  -2   1   1  550.30    4.80   0
   1   8   0  623.91    3.69   0
   2   1  -1  538.06    4.01   0
   2   9   0   21.16    1.58   0
   5  -6   2   13.94    3.20   0
   5  -1  -1  955.32    4.18   0
   5  10   0   13.05    1.36   0
   6  -1  -1   17.88    1.14   0
   7   7  -1  145.63    2.05   0
   8  -4   1    1.82    1.61   0
   8   6  -1   64.46    1.81   0
   9   3  -1    3.11    1.19   0
  10   0   0   87.88    2.07   0
  -7   0   8    4.17    1.65   0
  -7   2   7  176.00    2.16   0
  -7   4   7  179.50    2.28   0
  -6  -3   8   94.35    1.87   0
  -6   4   5  166.32    2.22   0
  -5  -4   7  340.11    2.44   0
  -5  -3   6  171.09    1.67   0
  -4  -6   8  154.54    2.08   0
  -3   0   2    1.03    1.12   0
  -1  -6   4   91.07    1.85   0
   1  10   1  157.78    2.42   0
   2   5  -1    6.02    1.41   0
   3   0  -1  179.67    2.49   0
   3  11   1    0.03    1.80   0
   4   7  -1   76.61    1.72   0
   5   7  -1  548.13    3.00   0
   6   7  -1   14.77    1.55   0
   7   0  -1  326.94    2.54   0
   8  -2   0    1.27    1.49   0
   9  -1   0   70.21    1.82   0
  10   1   0   75.87    1.98   0
  -6  -1   6   87.28    1.40   0
  -6   5   5  154.26    2.27   0
  -5  -5   8   84.42    1.85   0
  -5  -2   5  253.02    1.91   0
  -5   0   4    0.70    1.40   0
  -4  -4   5   22.12    1.50   0
  -3  -7   8   11.50    1.71   0
  -3  -6   6   27.69    1.59   0
  -2  -4   3  132.16    1.70   0
   0   9   1   21.78    1.67   0
   3   6  -1   32.52    1.58   0
   3   9   0    4.17    1.56   0
   6  -3   0  477.92    3.39   0
   6   9   0   49.71    1.94   0
   7   6  -1  111.71    1.55   0
   8   2  -1    1.56    1.05   0
   8   3  -1   31.64    1.66   0
   8   4  -1   96.79    1.77   0
   9  -3   1   78.81    1.93   0
  10   2   0   14.89    1.82   0
  -7   0   7  433.19    2.73   0
  -6   1   5   83.17    1.42   0
  -2  -7   6  376.97    2.65   0
   1  -8   5  235.07    2.63   0
   2   3  -1  554.17    3.56   0
   3  -7   3  255.13    3.99   0
   3  -6   2  357.56    6.14   0
   4  -3   0  203.31    3.12   0
   4   0  -1    2.01    1.46   0
   4   6  -1   42.26    1.55   0
   4   9   0  180.71    2.21   0
   5  -3   0   14.51    1.85   0
   5   6  -1   44.83    1.55   0
   5   9   0   42.75    1.80   0
   6   0  -1   -0.19    1.36   0
   6   6  -1  138.89    1.59   0
   7   1  -1  468.15    2.75   0
   7   5  -1  442.55    2.62   0
   9   0   0   -1.03    1.62   0
  -6  -4   8  122.10    1.95   0
  -6  -3   7    4.28    1.07   0
  -6  -2   6  415.93    2.51   0
  -6   0   5    0.70    1.37   0
  -5  -4   6  278.30    2.22   0
  -5  -1   4   64.69    1.61   0
  -4  -3   4   87.72    1.41   0
  -4  -1   3  492.22    2.73   0
  -4   7   3   12.21    2.74   0
  -3  -7   7    1.49    1.62   0
  -3  -3   3  203.55    1.92   0
  -1  11   3   23.89    2.43   0
   0  -6   3   61.46    1.80   0
   1  11   2   73.93    2.48   0
   2   8   0  665.47    3.56   0
   2  10   1  206.83    2.46   0
   3   5  -1  266.85    2.37   0
   5   0  -1  138.73    1.74   0
   6   5  -1    8.27    1.50   0
   7  -4   1   58.98    2.13   0
   7   2  -1   66.19    1.65   0
   7   3  -1   30.41    1.55   0
   7   4  -1   90.52    1.41   0
   7   8   0    1.57    1.62   0
   8   7   0   66.02    1.92   0
  10  -1   1    2.30    1.69   0
  -7  -2   8   10.74    1.22   0
  -7  -1   7   71.93    1.88   0
  -7   4   6   12.54    1.61   0
  -6   6   5  120.74    2.29   0
  -5  -3   5 1332.30    4.09   0
  -3  -1   2  762.24    3.93   0
  -1  -4   2   99.30    1.95   0
   1   7   0   39.41    1.72   0
   2  -9   6  184.31    2.87   0
   3   1  -1 1962.07    6.07   0
   3   4  -1  892.88    3.85   0
   4   5  -1   36.60    1.51   0
   5   5  -1  116.91    1.81   0
   6   1  -1   18.25    1.13   0
   6   8   0   60.07    1.85   0
   7  -2   0    1.25    1.40   0
   9   1   0   68.38    1.78   0
   9   4   0   33.55    1.79   0
  -6  -1   5   81.57    1.67   0
  -5  -6   8   15.86    1.78   0
  -5   7   4   25.68    2.16   0
  -4  -7   8    1.93    1.76   0
  -3  -6   5  316.34    2.42   0
  -2  -8   7   10.97    1.25   0
  -2   0   1   -0.85    1.93   0
  -1  -2   1 4145.30   10.99   0
   0  -8   5  133.47    2.38   0
   3   2  -1  141.15    2.21   0
   3   3  -1  203.64    2.33   0
   3   8   0  361.62    2.65   0
   3  10   1  259.98    2.48   0
   4   1  -1   56.26    1.74   0
   4   4  -1   29.09    1.52   0
   4   8   0   46.94    1.65   0
   4  10   1   94.26    2.06   0
   5   1  -1  908.83    3.59   0
   5   4  -1    5.29    1.38   0
   5   8   0   12.04    1.62   0
   5  10   1   99.02    2.03   0
   6   3  -1   18.05    1.08   0
   7   7   0  148.54    2.02   0
   8  -3   1   49.74    1.85   0
   8   6   0   13.82    1.25   0
   9  -2   1   65.26    1.51   0
   9   2   0   15.35    1.25   0
  10   0   1   -0.18    1.32   0
  -8   0   8   45.27    1.76   0
  -7  -3   8   47.77    1.82   0
  -7   0   6   -2.09    1.53   0
  -7   5   6   25.12    1.85   0
  -6  -5   8  134.85    2.02   0
  -5  -2   4    8.46    1.45   0
  -5   3   3  465.21    3.48   0
  -4  -6   6   11.24    1.55   0
  -4  -5   5  286.42    2.02   0
  -4  -2   3   11.45    1.48   0
  -3  -7   6  309.89    2.51   0
   0  -5   2 1053.65    5.06   0
   1   9   1  104.99    2.06   0
   2  -7   3    2.94    1.77   0
   2  11   2   66.19    2.15   0
   3  -8   4   19.77    2.04   0
   4  -8   4  234.58    4.98   0
   4   2  -1    0.44    1.53   0
   4   3  -1  488.13    2.91   0
   5   2  -1  106.56    1.50   0
   5   3  -1  334.34    2.21   0
   8   0   0    2.86    1.47   0
   8   5   0  185.88    2.13   0
  10   1   1    2.88    1.68   0
  -6   2   4  182.85    2.13   0
  -6   3   4   37.86    1.63   0
  -5  -5   6   75.17    1.72   0
  -5   2   3 2158.04    6.11   0
  -4  -7   7   12.27    1.54   0
  -4  -4   4 1107.85    3.86   0
  -2  -5   3  531.12    3.07   0
   0  10   2    0.33    1.70   0
   2  -8   4   11.36    1.81   0
   2   7   0   57.26    1.73   0
   6  -2   0  376.49    2.88   0
   6   7   0  103.23    1.55   0
   6   9   1  215.81    2.45   0
   7  -1   0   44.40    1.63   0
   7   6   0    3.42    1.52   0
   8   1   0  131.92    2.01   0
   8   4   0   20.51    1.61   0
   9  -1   1   46.31    1.79   0
  -8   2   7   20.79    1.77   0
  -7  -1   6    2.11    1.05   0
  -7   6   6  252.94    2.92   0
  -6  -2   5   52.43    1.27   0
  -6   1   4  693.75    3.37   0
  -6   4   4  366.58    3.18   0
  -6   7   5   15.98    2.09   0
  -5  -6   7  119.98    1.61   0
  -5   1   3   42.25    1.31   0
  -5   4   3 1486.51    5.88   0
  -4   2   2  569.20    3.73   0
  -3  -8   7   79.54    1.90   0
  -3  -4   3  989.47    3.84   0
  -2  -8   6    3.15    1.60   0
  -1  -7   4    0.15    1.47   0
   0   8   1  171.05    2.46   0
   1   6   0  180.83    2.39   0
   2  -6   2  219.06    3.67   0
   2   9   1  177.59    2.27   0
   3   7   0    4.96    1.53   0
   5   7   0   11.88    1.57   0
   5   9   1    5.48    1.73   0
   6  -4   1   74.29    1.99   0
   7   8   1  441.18    3.00   0
   8   2   0    1.60    1.12   0
   8   3   0  332.97    2.20   0
   8   7   1   62.71    2.02   0
   9  -3   2   15.47    1.81   0
   9   5   1   91.29    2.07   0
  -8   0   7   -0.38    1.57   0
  -8   4   7   33.03    1.90   0
  -7  -4   8    3.65    1.26   0
  -7   2   5   38.88    1.55   0
  -6  -4   6  406.90    2.59   0
  -6   0   4  927.34    3.61   0
  -5   0   3   99.89    1.82   0
  -5   9   5  168.18    4.93   0
  -3  -2   2    0.65    1.09   0
  -2   8   2    3.96    2.05   0
  -1  -8   5  280.73    2.57   0
  -1  -6   3  369.86    2.88   0
   0  11   3   76.26    2.60   0
   1  -7   3    2.00    1.70   0
   3   9   1  111.86    2.00   0
   4   7   0    0.83    1.02   0
   4   9   1   42.15    1.76   0
   5  -2   0   26.60    1.66   0
   6   6   0  101.73    1.75   0
   7  -6   3   36.17    2.31   0
   7   0   0    0.47    1.43   0
   8  -2   1   34.45    1.64   0
   9   0   1   75.16    1.94   0
   9   4   1   62.62    1.96   0
  -7  -2   6   20.92    1.22   0
  -7   1   5  123.67    1.89   0
  -7   3   5  251.95    2.46   0
  -6  -3   5   14.79    1.48   0
   1  -8   4    2.46    1.48   0
   5   6   0   53.33    1.68   0
   6   8   1  195.58    2.27   0
   7  -3   1   15.06    1.61   0
   7   4   0    0.39    1.05   0
   9   1   1   44.55    1.68   0
   9   2   1   66.49    1.85   0
  -8  -1   7   24.52    1.37   0
  -7   0   5  298.09    2.42   0
  -6  -1   4  675.97    3.13   0
  -6   5   4  208.56    2.60   0
  -5  -6   6    4.17    1.59   0
  -5  -5   5   28.95    1.53   0
  -5  -1   3   42.21    1.61   0
  -5   5   3  101.50    2.48   0
  -4  -7   6  371.86    2.63   0
  -4  -5   4  190.04    2.06   0
  -4   0   2  170.38    2.21   0
  -3  -7   5   63.04    1.76   0
  -2  -1   1  545.08    3.85   0
   2  -9   5    0.58    1.99   0
   2   6   0  903.11    4.02   0
   4   6   0  458.98    2.76   0
   4  10   2   11.22    1.82   0
   6   5   0  162.52    1.67   0
   7   2   0    0.96    1.00   0
   7   3   0   11.61    1.12   0
   7   7   1    3.43    1.26   0
   8  -5   3   12.58    1.85   0
   9  -2   2    8.57    1.72   0
  -8  -2   7   21.58    1.79   0
  -8   1   6   -0.62    1.57   0
  -8   2   6  160.59    2.20   0
  -7  -3   6   30.70    1.64   0
  -7  -1   5  124.93    1.85   0
  -6  -6   7   63.43    1.79   0
  -6  -5   6    1.28    1.53   0
  -5  -7   7   -0.77    1.71   0
  -4  -8   7   48.95    1.89   0
  -3  -8   6    1.49    1.66   0
  -2  -7   4  261.83    2.36   0
  -2  -4   2  215.30    2.34   0
  -2   5   1    7.66    3.17   0
  -1  -9   6  167.52    2.37   0
   1   8   1  444.76    3.18   0
   1  11   3  146.75    2.54   0
   2  10   2   11.07    1.65   0
   3  -9   5    3.62    2.47   0
   3   6   0  116.09    1.85   0
   3  10   2   78.85    2.06   0
   4  -2   0 2195.41    7.39   0
   5  -4   1 1042.76    5.79   0
   5   8   1  191.60    2.15   0
   6   0   0  163.32    2.07   0
   6   4   0   31.42    1.54   0
   6   9   2    4.92    1.90   0
   8  -1   1   34.16    1.66   0
   8   5   1   94.93    1.56   0
  -8   0   6  194.21    2.23   0
  -8   3   6   12.43    1.35   0
  -7   5   5  431.83    3.34   0
  -6  -2   4  180.79    1.97   0
  -3  -5   3  260.45    2.33   0
  -3  -3   2  145.90    2.11   0
  -2  -8   5  102.44    2.00   0
  -1  -5   2  258.73    2.59   0
   0  -8   4   15.01    1.57   0
   0  -7   3  341.00    2.96   0
   1  -9   5   83.69    2.17   0
   1  -6   2   12.51    1.83   0
   1   5   0  921.59    4.54   0
   2   8   1  151.87    2.18   0
   3  -2   0  453.74    4.25   0
   4   8   1   68.25    1.78   0
   5  -1   0   12.99    1.47   0
   5   5   0   75.76    1.33   0
   6   3   0  467.55    2.72   0
   6   7   1    7.73    1.54   0
   7   6   1  195.90    1.81   0
   8  -3   2    2.16    1.85   0
   8   0   1    1.15    1.47   0
   8   4   1    3.16    1.55   0
   9  -1   2   83.74    1.93   0
  -8  -3   7    1.15    1.68   0
  -8  -1   6   -1.07    1.57   0
  -8   4   6  236.30    2.65   0
  -7  -5   7    2.18    1.72   0
  -7  -2   5   40.13    1.54   0
  -4  -4   3    8.01    1.47   0
  -4  -1   2  265.56    2.23   0
  -2  -6   3   25.07    1.60   0
  -1  -3   1  594.24    4.14   0
   3   8   1   44.93    1.60   0
   4   5   0  334.29    2.47   0
   5   4   0   20.82    1.50   0
   5   9   2    2.88    1.67   0
   6  -5   2   73.57    2.34   0
   6   2   0  362.16    2.27   0
   7  -2   1  471.10    3.06   0
   8   2   1   32.99    1.72   0
   8   3   1   49.86    1.31   0
   9   4   2    8.81    1.86   0
  -6   6   4   51.78    2.19   0
  -5  -7   6   -1.38    1.61   0
  -5  -6   5   71.04    1.70   0
  -2  -9   6   15.42    1.29   0
   0   7   1  304.35    2.98   0
   0   9   2   51.85    1.92   0
   2   5   0   53.85    1.39   0
   3   5   0  664.29    3.33   0
   5   7   1  370.34    2.60   0
   6  -3   1  101.62    2.03   0
   6   6   1    3.57    1.51   0
   6   8   2  323.55    2.67   0
   7  -4   2  143.74    2.35   0
   7   5   1   74.69    1.39   0
   8   6   2  117.26    1.73   0
   9   0   2   -1.75    1.29   0
   9   2   2    9.19    1.78   0
   9   3   2   14.57    1.73   0
  -8  -2   6  159.89    2.12   0
  -7  -3   5  253.03    2.19   0
  -6  -6   6   46.56    1.36   0
  -6  -3   4   37.01    1.54   0
  -4  -8   6   66.22    1.93   0
  -4  -6   4  432.44    2.73   0
  -3  -8   5    0.05    1.49   0
  -3   1   1 2032.55    7.42   0
  -3   2   1  142.83    2.86   0
  -1  -8   4  133.99    2.07   0
   0  -4   1  892.28    5.54   0
   4  -1   0  351.16    3.01   0
   4   4   0  748.14    3.40   0
   4   9   2   65.66    1.53   0
   5   0   0   -0.95    1.04   0
   5   2   0   25.78    1.55   0
   7   7   2   40.61    1.47   0
   8   5   2    4.78    1.73   0
  -8  -4   7   31.31    1.39   0
  -7   0   4    0.25    1.53   0
  -7   1   4  192.98    1.86   0
  -7   2   4  108.22    1.60   0
  -7   3   4   -1.23    1.46   0
  -6   0   3    3.39    1.38   0
  -6   1   3   16.98    1.63   0
  -6   2   3   88.79    1.94   0
  -6   8   5    2.44    2.46   0
  -5  -3   3  449.27    2.48   0
  -4  -2   2  544.72    2.89   0
  -3  -7   4  342.04    2.30   0
  -1  -9   5  102.81    2.06   0
  -1  -7   3  279.04    2.63   0
   0  -6   2   19.90    1.62   0
   1   4   0   65.31    1.87   0
   1   9   2   53.61    1.87   0
   2   9   2  232.91    2.50   0
   3   9   2   33.70    1.71   0
   4   7   1   17.73    1.20   0
   4  10   3    5.46    1.81   0
   8  -4   3   19.04    1.77   0
   8  -2   2  203.78    2.30   0
   9  -2   3  235.70    2.64   0
  -8  -3   6   12.44    1.27   0
  -8   0   5   -1.57    1.57   0
  -8   1   5    1.36    1.09   0
  -8   2   5   66.16    1.83   0
  -7  -1   4  196.25    2.11   0
  -6   3   3  131.16    2.21   0
  -5   6   3  405.26    4.54   0
  -4  -5   3  580.55    3.01   0
  -3  -6   3  917.86    3.72   0
  -3  -4   2    3.07    1.49   0
  -3   0   1  176.14    2.52   0
  -2  -5   2  356.27    2.80   0
   0  10   3   99.30    2.28   0
   1   7   1  179.74    2.29   0
   2   4   0 1614.52    5.48   0
   2   7   1  117.12    2.03   0
   3   4   0  813.63    3.54   0
   3   7   1   16.10    1.60   0
   3  10   3   22.59    1.80   0
   4  -4   1    2.18    1.94   0
   4   3   0  197.64    2.21   0
   5   6   1  505.30    2.85   0
   5   8   2  517.51    2.67   0
   6  -6   3  166.09    3.32   0
   6   5   1   10.23    1.14   0
   6   7   2  297.47    2.50   0
   7   0   1  832.64    3.36   0
   7   1   1   46.17    1.68   0
   7   2   1  490.98    2.83   0
   8   4   2  516.05    2.88   0
  -7  -4   5    2.40    1.56   0
  -7   4   4    2.05    1.52   0
  -6  -7   6  164.76    2.17   0
  -5  -7   5  162.16    1.99   0
  -5   1   2  250.65    2.47   0
  -5   8   4   72.80    5.18   0
  -3   3   1  205.16    3.72   0
  -2  -9   5   48.82    1.72   0
  -2  -8   4  553.75    3.26   0
   1  10   3    5.40    1.73   0
   2  10   3   11.63    1.75   0
   3  -1   0   10.33    1.59   0
   4   0   0  249.73    2.57   0
   4   1   0  338.31    2.74   0
   4   2   0 2159.58    5.76   0
   5   9   3   52.75    1.96   0
   6   4   1   73.61    1.75   0
   7  -5   3  160.12    2.55   0
   8   3   2    1.98    1.59   0
   9  -1   3   87.58    1.68   0
  -9   0   6   -0.41    1.76   0
  -8   4   5   11.87    1.74   0
  -7  -6   6  246.79    2.31   0
  -6   4   3  432.99    3.61   0
  -5  -4   3 1475.18    4.40   0
  -5   0   2    1.50    1.45   0
  -5   2   2  141.39    2.23   0
  -4  -8   5   77.74    1.87   0
  -4  -3   2  381.41    2.68   0
  -3  -1   1 2005.05    6.37   0
  -2  -7   3   13.21    1.56   0
  -2   9   3  321.31    3.98   0
   4   6   1 1514.93    4.53   0
   4   8   2   21.63    1.59   0
   5  -3   1  142.73    2.53   0
   6   8   3    6.92    1.91   0
   7  -3   2   44.19    1.79   0
   8   0   2  439.78    2.53   0
   8   1   2   85.41    1.89   0
   8   2   2  201.28    1.90   0
   9   2   3    3.41    2.72   0
  -9  -1   6    2.27    1.26   0
  -9   3   6   44.89    1.99   0
  -5  -6   4  132.50    1.62   0
  -5  -1   2  240.36    2.32   0
  -4  -9   6   46.92    2.06   0
  -2  -3   1  558.91    3.60   0
  -1  -6   2    8.01    1.57   0
   1  -1   0 4023.61   23.98   0
   1   3   0  244.07    2.76   0
   2   3   0 3658.28    8.48   0
   4   9   3  121.09    2.17   0
   5   7   2  196.57    2.26   0
   6  -1   1    9.52    1.59   0
   6   6   2  251.43    2.30   0
   7  -6   4    4.05    2.09   0
  -9  -2   6   10.39    1.81   0
  -8  -3   5    1.05    1.58   0
  -5   3   2   59.95    1.91   0
  -3  -9   5   85.31    2.00   0
  -3  -8   4  338.98    2.67   0
  -1  -4   1 1115.25    5.14   0
   0  -9   4    2.80    1.90   0
   1  -9   4    0.08    1.96   0
   1  -8   3    8.08    1.83   0
   3   0   0   14.22    1.69   0
   3   1   0    8.20    1.77   0
   3   6   1  308.09    2.51   0
   3   8   2  290.76    2.22   0
   6  -4   2  122.27    2.17   0
   6   0   1    1.75    1.47   0
   6   1   1    9.75    1.51   0
   7  -2   2   30.05    1.95   0
   7   4   2  142.48    1.96   0
   7   6   3   35.46    1.83   0
   8   4   3   19.02    1.73   0
  -7   5   4   19.06    1.75   0
  -7   7   5   -0.23    2.12   0
  -6  -3   3  116.75    1.56   0
  -5  -2   2  139.16    1.96   0
  -4  -6   3  963.50    3.73   0
  -4  -4   2 1273.76    4.29   0
  -3  -2   1  145.96    2.28   0
   0  -8   3  286.68    2.87   0
   0   8   2   43.86    1.78   0
   1   8   2   27.57    1.71   0
   2  -9   4   -0.30    2.19   0
   2   2   0 5025.37   10.53   0
   2   6   1  451.06    3.01   0
   2   8   2  151.56    2.14   0
   3   9   3  327.80    2.73   0
   3  10   4   21.03    1.85   0
   4   5   1  627.03    3.15   0
   5  -5   2   15.40    1.91   0
   5   8   3    2.33    1.60   0
   6   7   3   70.51    1.97   0
   7   3   2   48.12    1.73   0
   8  -4   4   -0.61    2.09   0
   8  -2   3   63.88    1.98   0
  -8   0   4  375.15    2.70   0
  -8   1   4  203.83    2.27   0
  -7  -4   4    2.29    1.54   0
  -6  -7   5   16.13    1.24   0
  -6   7   4   89.60    3.27   0
  -5  -8   5    3.68    1.66   0
  -3  -7   3  938.47    3.89   0
  -2  -6   2    1.95    1.48   0
  -1   9   3    9.55    2.07   0
   0 -10   5  154.62    2.53   0
   1 -10   5    2.96    2.27   0
   1   2   0 6274.72   14.19   0
   1   6   1  217.45    2.48   0
   2  -8   3    4.76    2.21   0
   4   7   2  153.36    1.76   0
   5   6   2   11.73    1.60   0
   6   5   2   71.91    1.40   0
   7  -4   3  158.76    2.65   0
   7  -1   2   10.13    1.56   0
   7   2   2   32.28    1.62   0
   8  -1   3    2.07    1.65   0
   8   3   3    3.23    1.25   0
  -9   0   5   94.55    2.03   0
  -9   1   5   61.71    1.94   0
  -9   2   5  175.70    2.37   0
  -8  -1   4  201.28    1.88   0
  -8   2   4    5.02    1.18   0
  -7  -6   5   44.97    1.34   0
  -7   0   3  276.67    2.15   0
  -7   1   3  125.67    1.68   0
  -7   2   3 1027.55    4.24   0
  -6  -4   3  431.86    2.68   0
  -5  -7   4   24.76    1.26   0
  -5  -3   2   59.47    1.68   0
  -4  -9   5  125.08    2.16   0
  -4  -8   4  127.39    2.02   0
  -1 -10   5   24.83    1.99   0
  -1  -8   3 1250.26    4.95   0
   2   0   0 4988.28   12.84   0
   2   1   0 1097.78    5.65   0
   2   9   3   80.14    1.95   0
   2  10   4  173.12    2.43   0
   7   0   2   -0.98    1.49   0
   7   1   2   11.72    1.55   0
   7   5   3  165.64    1.79   0
   8   0   3    2.29    1.68   0
   8   1   3   -0.16    1.67   0
   8   2   3   66.00    1.47   0
  -9  -2   5  172.27    2.24   0
  -8  -5   5    3.48    1.59   0
  -8  -2   4    5.86    1.17   0
  -8   3   4  158.50    2.28   0
  -5   4   2  476.06    3.94   0
  -4   0   1    1.63    1.53   0
  -3  -3   1  196.34    2.35   0
  -2 -10   5   99.68    2.09   0
  -2  -9   4   42.90    1.78   0
  -2  -4   1   34.47    1.65   0
  -2   7   2  260.49    3.84   0
  -1  10   4  265.12    3.10   0
   0  10   4  530.26    3.91   0
   1  -5   1  448.48    5.01   0
   1   9   3  180.10    2.31   0
   1  10   4    8.92    1.73   0
   3   5   1   67.12    1.74   0
   3   7   2   50.60    1.70   0
   4   8   3   52.71    1.43   0
   4   9   4   21.50    1.80   0
   5   2   1  378.91    2.63   0
   5   7   3  191.29    2.24   0
   6  -3   2   29.21    1.96   0
   6   4   2  124.71    1.88   0
   6   6   3  174.15    2.14   0
   7   6   4    3.13    1.75   0
   8  -3   4  178.62    2.50   0
   8   4   4   -2.03    1.69   0
  -9   3   5   62.06    2.10   0
  -8  -3   4  153.39    2.06   0
  -7  -5   4   18.19    1.15   0
  -7   3   3   10.49    1.64   0
  -6  -8   5    0.88    1.70   0
  -6   0   2 1132.75    4.25   0
  -6   1   2   78.99    1.81   0
  -5  -6   3  412.22    2.70   0
  -4  -5   2  749.67    3.41   0
  -3  -6   2  505.64    2.95   0
  -2  -8   3  401.73    2.97   0
   0  -7   2  371.68    3.24   0
   0  -5   1    0.56    1.48   0
   1  -7   2  195.70    3.09   0
   4   6   2  890.81    3.68   0
   5  -1   1  237.57    2.42   0
   5   0   1 3642.28    7.51   0
   5   1   1  246.42    2.37   0
   5   8   4    0.49    1.72   0
   6   7   4   91.89    2.06   0
   7  -5   4   96.93    2.56   0
   7   4   3  163.46    1.77   0
   8   3   4  189.50    2.36   0
  -8   6   5   42.49    2.56   0
  -7  -7   5   -0.69    1.28   0
  -6  -7   4   87.33    1.86   0
  -6  -5   3   -1.22    1.52   0
  -5  -4   2  483.27    2.84   0
  -4   2   1    1.31    1.79   0
  -3 -10   5   14.82    1.77   0
  -3  -9   4    4.11    1.59   0
  -3   8   3   55.82    2.92   0
  -1  -7   2   67.55    1.85   0
   2   5   1   89.58    1.95   0
   2   7   2  540.55    3.26   0
   3   8   3   -0.06    1.58   0
   4  -3   1  256.54    3.06   0
   6  -5   3   77.00    2.05   0
   6   3   2   29.28    1.19   0
   7   3   3  496.30    2.91   0
   8  -2   4   10.57    1.77   0
   8   2   4   14.26    1.80   0
  -9  -4   5   36.57    1.88   0
  -8  -4   4   10.14    1.62   0
  -8   4   4   12.64    1.74   0
  -7  -6   4   19.62    1.68   0
  -6  -2   2  578.22    3.05   0
  -6   2   2  555.77    3.47   0
  -4  -2   1    1.33    1.57   0
  -1  -5   1  787.40    4.26   0
   3   4   1 4717.85    8.34   0
   3   9   4  137.90    1.84   0
   4   3   1  248.48    2.07   0
   6  -2   2 1541.06    5.25   0
   6   2   2 1545.89    4.57   0
   6   5   3   79.25    1.44   0
   8  -1   4  203.57    2.37   0
   8   0   4   63.48    2.00   0
   8   1   4  202.00    2.32   0
  -9   0   4   -2.15    1.52   0
  -7   4   3  336.67    3.26   0
  -6  -3   2 1362.25    4.25   0
  -4  -9   4   16.18    1.65   0
  -3  -4   1  888.85    3.92   0
  -2  -7   2  260.12    2.55   0
   1   5   1  460.31    3.36   0
   1   7   2  204.64    2.43   0
   2   8   3    4.08    1.57   0
   4   7   3   19.90    1.26   0
   4   8   4  244.41    2.45   0
   5  -6   3    1.01    2.13   0
   5   4   2  314.74    2.42   0
   5   6   3    0.87    1.50   0
   6  -1   2  257.62    2.49   0
   6   1   2  260.40    2.32   0
   6   6   4   42.94    1.83   0
   7  -2   3   76.75    1.87   0
   7   1   3  157.41    2.10   0
   7   2   3   76.41    1.43   0
  -9  -2   4    6.90    1.65   0
  -9  -1   4    2.29    1.17   0
  -8  -1   3    8.42    1.67   0
  -8   0   3   -0.71    1.59   0
  -8   1   3    7.55    1.57   0
  -6  -6   3  123.07    1.92   0
  -6   3   2 1339.63    5.40   0
  -5  -7   3    1.89    1.16   0
  -5  -5   2  338.91    2.49   0
  -4  -6   2   21.31    1.53   0
  -4  -3   1  489.15    2.98   0
  -3  10   5   15.50    2.32   0
  -2  -5   1    6.06    1.49   0
   0   5   1    0.20    1.48   0
   0   7   2  380.64    3.19   0
   2   9   4   -0.69    1.57   0
   4  -7   3   20.79    3.16   0
   4   5   2  639.48    3.18   0
   5   7   4  164.41    2.13   0
   6   0   2  306.73    2.25   0
   7  -1   3  151.99    1.81   0
   7   0   3  607.18    3.19   0
   7   4   4   46.86    1.37   0
  -9  -3   4    7.24    1.61   0
  -9   2   4    7.79    1.75   0
  -7  -7   4   54.65    1.92   0
  -7  -5   3   13.99    1.60   0
  -6  -8   4  185.01    2.31   0
  -4  -8   3  105.24    1.92   0
  -3  -7   2    1.68    1.50   0
  -3   9   4    5.15    2.09   0
  -1 -10   4  263.80    2.86   0
  -1  -9   3    9.29    1.92   0
   1   8   3    9.22    1.61   0
   1  10   5    3.97    1.71   0
   4  -2   1   40.62    1.75   0
   4   1   1  593.69    3.37   0
   5   3   2    0.56    1.51   0
   7   3   4   -0.71    1.64   0
   8  -2   5  124.61    2.35   0
   8   1   5   -2.27    1.83   0
   8   2   5  128.32    1.80   0
  -8  -6   4   85.90    1.91   0
  -8  -3   3   39.06    1.65   0
  -8   2   3   20.46    1.67   0
  -8   5   4  121.45    2.40   0
  -7  -1   2  513.14    2.91   0
  -7   0   2   -1.76    1.54   0
  -6  -4   2  408.18    2.40   0
  -5  -9   4   69.22    2.00   0
  -5  -1   1  933.17    3.94   0
  -5   0   1  139.30    2.08   0
  -4   3   1  476.99    4.32   0
  -3   4   1  888.73    9.93   0
  -2 -10   4   21.30    1.82   0
  -2  -9   3  321.76    2.74   0
  -2  10   5  100.89    2.70   0
   0  -9   3   36.65    1.86   0
   0  10   5  155.33    2.50   0
   1   9   4    1.90    1.62   0
   3   3   1 1778.96    5.43   0
   3   7   3  251.55    2.36   0
   3   8   4   19.35    1.76   0
   3   9   5    2.99    1.34   0
   4  -1   1  609.94    3.74   0
   4   0   1   -0.04    1.50   0
   5   5   3  465.51    2.81   0
   6  -4   3   57.00    1.87   0
   6   3   3    1.40    1.59   0
   6   5   4  249.86    2.28   0
   6   6   5    0.16    1.75   0
   7  -5   5   23.01    2.27   0
   8  -1   5   -0.66    1.75   0
   8   0   5    1.02    1.70   0
  -9   3   4    5.55    1.79   0
  -7  -2   2  573.54    3.04   0
  -7   1   2  521.04    3.22   0
  -6  -7   3    3.63    1.64   0
  -5  -6   2   57.66    1.68   0
  -5  -2   1  107.70    1.55   0
  -5   1   1  925.99    4.29   0
  -4  -4   1   28.86    1.17   0
  -3 -10   4  118.24    2.23   0
  -3  -5   1  267.88    2.18   0
  -1  -1   0 4243.53   13.64   0
  -1   0   0    2.17    2.55   0
  -1  10   5   26.11    1.97   0
   0   9   4    2.11    1.61   0
   1 -10   4    8.49    2.40   0
   2   6   2  212.43    2.04   0
   4   4   2  336.38    2.57   0
   4   7   4  270.51    2.48   0
   4   8   5  140.36    2.29   0
   5   2   2   44.76    1.65   0
   5   6   4    6.70    1.65   0
   5   7   5    8.95    1.83   0
   7  -3   4    0.66    1.61   0
   7   2   4    0.29    1.56   0
   7   4   5   90.28    1.64   0
  -8  -4   3   44.09    1.30   0
  -7  -6   3  171.08    1.78   0
  -6  -5   2   13.50    1.54   0
  -5  -8   3   18.45    1.26   0
  -5  -3   1  340.10    2.56   0
  -4  -7   2   15.81    1.53   0
  -3  -9   3    1.44    1.59   0
  -1  -8   2   25.29    1.87   0
  -1  -6   1  635.44    3.83   0
  -1   8   3 1250.17    5.57   0
  -1   9   4  270.58    3.11   0
   2   9   5    0.62    1.73   0
   3   5   2   -0.52    1.43   0
   4  -5   2  644.03    5.51   0
   5  -3   2    0.77    1.52   0
   6  -3   3    2.51    1.87   0
   6   4   4    3.06    1.57   0
   7  -2   4    1.28    1.68   0
   7   1   4    0.61    1.56   0
 -10  -1   4   82.81    2.14   0
 -10   0   4   33.90    1.86   0
  -9  -5   4   23.75    1.41   0
  -8  -5   3   -0.34    1.56   0
  -7  -8   4    0.29    1.33   0
  -7   2   2  579.51    3.50   0
  -7   5   3   14.19    2.06   0
  -6  -9   4   71.29    2.14   0
  -6   4   2  405.73    3.72   0
  -5   2   1  107.82    2.15   0
  -5   9   5  160.44    5.07   0
  -4 -10   4   12.43    1.32   0
  -4  -5   1   38.03    1.54   0
  -2  -8   2    3.90    1.51   0
  -2  -6   1  348.98    2.81   0
  -2  -1   0 1114.77    5.77   0
  -1  -2   0 5875.19   13.95   0
   0  -6   1  173.52    2.61   0
   1   4   1 1601.74    5.99   0
   1   6   2   13.34    1.68   0
   2   7   3    0.54    1.57   0
   2   8   4    9.24    1.65   0
   3   2   1 2624.88    6.79   0
   5   1   2  157.98    2.08   0
   5   4   3  376.02    2.55   0
   6   1   3   83.40    1.83   0
   6   5   5  151.90    2.16   0
   7  -4   5   90.96    2.46   0
   7  -1   4    2.88    1.16   0
   7   0   4   -1.16    1.15   0
   7   3   5  297.88    2.23   0
 -10  -2   4   36.97    1.53   0
 -10   1   4   81.19    2.16   0
  -9  -2   3  160.80    2.24   0
  -9  -1   3   36.86    1.34   0
  -9   0   3  198.35    2.39   0
  -9   4   4    4.77    1.85   0
  -7  -7   3   39.03    1.76   0
  -7  -4   2    4.20    1.08   0
  -6  -8   3   81.58    1.89   0
  -6  -6   2  217.24    2.14   0
  -5  -7   2    8.47    1.56   0
  -5   8   4   70.76    5.32   0
  -4  -9   3    3.36    1.20   0
  -3  -8   2   13.12    1.57   0
  -2  -2   0 5132.93   10.82   0
  -2   0   0 4629.30   12.58   0
   3   6   3   -1.58    1.48   0
   4   5   3  111.81    1.86   0
   5   0   2   -0.50    1.53   0
   5   5   4    4.51    1.54   0
   6  -5   4  243.21    2.83   0
   6  -2   3   10.97    1.64   0
   6  -1   3   80.41    1.87   0
   6   0   3   -0.63    1.55   0
   7   2   5  297.34    2.54   0
 -10   2   4   37.29    1.94   0
  -9   1   3   36.05    1.87   0
  -6  -2   1   26.10    1.58   0
  -6   0   1   -2.09    1.49   0
  -3  -6   1   32.56    1.27   0
   0  -2   0   62.23    3.01   0
   1   9   5   88.91    2.10   0
   2   3   1   77.83    1.68   0
   3   7   4   12.77    1.66   0
   3   8   5  189.78    1.99   0
   4  -8   4  241.07    5.23   0
   4   6   4   15.49    1.58   0
   4   7   5   -0.32    1.68   0
   5   6   5  410.40    2.42   0
   6   3   4  267.22    2.02   0
   7   1   5   -0.82    1.65   0
   7   3   6   22.45    1.83   0
  -9  -4   3  210.75    2.31   0
  -9   2   3  161.54    2.28   0
  -8  -6   3   25.66    1.30   0
  -8  -2   2  163.41    2.06   0
  -8   0   2 2203.07    5.72   0
  -7  -5   2   17.94    1.21   0
  -7   3   2   10.79    1.58   0
  -6  -3   1   18.60    1.57   0
  -6   1   1   17.21    1.59   0
  -5  -9   3    3.72    1.76   0
  -4  -8   2   53.63    1.74   0
  -2  -3   0 3535.77    8.49   0
  -1  -3   0  241.63    3.05   0
   0   6   2   19.05    1.68   0
   1   7   3    2.31    1.55   0
   1   8   4    1.60    1.61   0
   2   5   2  134.23    2.07   0
   2   9   6  183.09    2.52   0
   3  -3   1 1856.56    8.73   0
   3   4   2    0.23    1.53   0
   5   3   3  668.75    2.96   0
   6  -6   5    0.99    1.79   0
   6   5   6   35.21    1.47   0
   7  -2   5  301.56    2.75   0
   7  -1   5    3.19    1.73   0
   7   0   5   37.04    1.82   0
   7   2   6   -0.51    1.86   0
  -8   1   2   13.59    1.65   0
  -8   6   4   85.31    2.75   0
  -7  -8   3  140.99    2.18   0
  -6  -7   2    9.77    1.69   0
  -4  -6   1   42.05    1.25   0
  -3 -10   3  153.64    2.28   0
  -3  -2   0  440.56    3.07   0
  -3   0   0    0.27    1.70   0
  -2 -10   3  266.73    2.77   0
   1  -8   2   29.14    2.10   0
   4   2   2  879.80    3.79   0
   5   4   4   59.77    1.72   0
   6  -4   4    4.16    1.59   0
   6   2   4   65.92    1.41   0
  -8  -7   3   92.64    2.06   0
  -7  -6   2   48.18    1.38   0
  -6  -9   3   35.63    1.95   0
  -5  -8   2  205.51    2.30   0
  -5   3   1  328.87    3.26   0
  -4 -10   3   30.25    1.78   0
  -3  -3   0  392.14    2.99   0
  -3   6   2  498.95    7.14   0
  -2  -7   1  216.53    2.43   0
  -2   1   0 1128.69    7.57   0
  -1  -7   1  333.03    2.96   0
   2   6   3  113.46    1.98   0
   2   8   5  390.46    2.89   0
   3   0   1  682.69    4.11   0
   4   7   6   47.70    1.85   0
   5   2   3   40.08    1.60   0
   5   5   5    3.07    1.52   0
   6   1   4  251.21    2.37   0
   6   3   5    6.37    1.60   0
 -10  -3   3    0.60    1.81   0
 -10  -1   3    0.31    1.81   0
 -10   0   3    3.23    1.70   0
  -9   3   3  106.35    2.22   0
  -9   5   4   23.92    2.08   0
  -8  -5   2    6.71    1.70   0
  -7  -2   1   66.63    1.82   0
  -7  -1   1  469.25    2.86   0
  -7   7   4   61.18    3.51   0
  -6  -5   1   10.40    1.54   0
  -5  -6   1   43.70    1.70   0
  -4  -2   0 2116.00    5.87   0
  -4  -1   0  337.49    2.82   0
  -3  -9   2   14.41    1.65   0
  -3  -7   1  557.47    3.24   0
  -2  -4   0 1533.91    5.47   0
  -1   9   5   99.24    2.48   0
   0 -10   3   91.35    2.55   0
   0  -3   0    1.29    2.13   0
   0   7   3  347.71    2.97   0
   0   8   4   15.90    1.68   0
   1   9   6   64.92    2.04   0
   2   2   1 1583.62    5.96   0
   2   7   4  371.36    2.75   0
   3  -2   1 2581.05    8.92   0
   3  -1   1   80.29    2.07   0
   3   5   3  163.09    2.10   0
   4  -4   2  328.71    3.58   0
   6  -3   4  276.00    2.66   0
   6   0   4  404.06    2.79   0
   7  -1   6   71.80    2.09   0
   7   0   6    3.53    1.35   0
  -9  -2   2  125.99    2.10   0
  -9  -1   2   56.33    1.89   0
  -7  -7   2   -0.00    1.65   0
  -7   0   1  315.70    2.67   0
  -6  -8   2  324.15    2.60   0
  -5 -10   3  198.18    2.63   0
  -4  -9   2  300.83    2.56   0
  -4  -7   1   75.46    1.84   0
  -4  -3   0  197.04    2.29   0
  -4   0   0  239.09    2.60   0
  -3  -4   0  858.33    3.95   0
  -3   1   0    8.59    1.72   0
  -2   6   2    0.68    1.84   0
   1   3   1   83.02    2.23   0
   1   5   2   15.46    1.61   0
   3   3   2  378.50    2.80   0
   3   6   4    8.71    1.52   0
   4   1   2  942.92    3.84   0
   5  -6   4    7.96    2.06   0
   5   1   3  414.94    2.48   0
   5   3   4   12.32    1.57   0
   5   5   6   19.40    1.73   0
   6  -5   5  151.79    2.46   0
   6  -2   4   64.43    1.81   0
   6  -1   4  242.81    2.33   0
   6   2   5   17.09    1.60   0
   6   3   6   67.52    1.93   0
 -10   1   3   -0.60    1.36   0
  -9  -3   2    7.22    1.76   0
  -9   0   2    0.02    1.74   0
  -7  -4   1   92.70    1.87   0
  -4   4   1   30.20    2.33   0
  -2   9   5   48.76    2.03   0
  -1   8   4  131.29    2.51   0
   0  -7   1  307.26    3.18   0
   1   8   5  233.08    2.50   0
   2   4   2  172.02    2.30   0
   2   8   6    9.87    1.87   0
   3  -6   2  356.49    6.37   0
   4   3   3    9.19    1.57   0
   5   0   3  128.50    2.01   0
   5   4   5   22.72    1.59   0
 -10   2   3    9.69    1.80   0
  -9   1   2   51.13    1.84   0
  -8   3   2    3.53    1.61   0
  -8   5   3    1.54    2.11   0
  -7  -5   1  420.13    2.70   0
  -6  -6   1  141.32    1.68   0
  -6   5   2   13.45    2.29   0
  -5  -9   2   37.31    1.90   0
  -5  -7   1  560.78    3.12   0
  -5  -2   0   27.18    1.63   0
  -5  -1   0   14.26    1.59   0
  -4  -4   0  742.58    3.27   0
  -3  -5   0  657.22    3.40   0
  -2  -5   0   52.56    1.75   0
  -1   7   3  288.06    2.95   0
   0  -9   2   50.07    2.20   0
   0   9   6   99.82    2.07   0
   2  -9   3   74.03    4.19   0
   3   7   6   14.81    1.79   0
   4  -3   2   61.04    2.16   0
   4   0   2 1351.75    4.73   0
   4   6   6   80.74    1.56   0
   5  -7   5    9.00    2.26   0
   5  -3   3  665.09    3.78   0
   5  -2   3   40.04    1.77   0
   5  -1   3  433.06    3.01   0
   5   5   7  252.27    2.47   0
   6  -4   5   14.95    1.77   0
   6   1   5  377.45    2.37   0
   6   2   6  294.21    2.60   0
  -9  -5   2  120.33    2.17   0
  -9   4   3  189.32    2.71   0
  -8  -7   2   26.47    1.90   0
  -7  -8   2  205.00    2.48   0
  -5   0   0    0.52    1.50   0
  -4   1   0  343.92    3.10   0
  -3  -8   1   10.76    1.57   0
  -2  -8   1   59.24    1.86   0
  -2   8   4  566.08    4.27   0
   1   6   3  382.78    2.91   0
   2   7   5   44.91    1.81   0
   4  -2   2  873.26    4.44   0
   4  -1   2  975.54    4.40   0
   4   4   4  131.43    1.91   0
   5   2   4  170.89    1.75   0
   6   0   5    0.31    1.55   0
  -8  -4   1   95.69    1.88   0
  -8  -1   1  377.81    2.47   0
  -8   0   1   -0.72    1.61   0
  -7  -6   1  107.31    1.96   0
  -7   2   1   65.82    1.92   0
  -7   6   3  175.30    3.59   0
  -6  -9   2   29.89    1.97   0
  -6  -7   1   16.64    1.68   0
  -6   3   1   16.55    1.62   0
  -5  -4   0   21.66    1.19   0
  -4  -8   1   28.80    1.64   0
  -4  -5   0  322.50    2.26   0
  -4   8   4  130.84    3.39   0
  -3 -10   2   21.44    1.76   0
  -2 -11   3   16.82    1.95   0
  -1  -8   1   15.47    1.89   0
  -1   9   6  163.35    2.46   0
   0  -4   0  665.05    5.10   0
   2   1   1  144.95    2.60   0
   2   5   3  485.41    3.04   0
   2   6   4   97.47    1.93   0
   3   2   2  482.03    3.15   0
   3   5   4  188.67    2.13   0
   3   6   5  482.96    2.62   0
   3   7   7  480.41    3.12   0
   4  -6   3  204.54    3.33   0
   4   2   3    0.50    1.57   0
   4   6   7  112.76    1.79   0
   6  -5   6   33.82    2.08   0
   6  -2   5   18.30    1.75   0
   6  -1   5  390.94    2.47   0
   6   1   6   45.40    1.84   0
   6   2   7   19.98    1.79   0
 -10  -3   2   61.28    2.14   0
 -10  -2   2  345.09    2.91   0
 -10   3   3    0.08    1.88   0
  -9  -6   2   18.20    1.43   0
  -9   2   2  126.66    2.29   0
  -6  -3   0  459.78    2.83   0
  -6  -2   0  375.80    2.66   0
  -6  -1   0  213.25    2.27   0
  -5  -8   1   10.73    1.71   0
  -5  -5   0   72.94    1.77   0
  -4 -10   2   21.32    1.82   0
  -4   7   3   12.22    2.68   0
  -3  -6   0  112.56    2.00   0
  -2 -10   2  212.87    2.59   0
  -1 -11   3   26.00    2.24   0
   0   5   2 1029.72    5.01   0
   0   8   5  134.01    2.15   0
   1   8   6   35.05    1.78   0
   4   5   6  286.43    2.44   0
   5   1   4  216.81    1.93   0
   5   4   7   35.67    1.77   0
   6  -4   6  167.38    2.51   0
   6   0   6  116.27    2.08   0
   6   1   7    4.73    1.83   0
 -10   0   2   89.47    2.19   0
  -8  -5   1   -1.47    1.21   0
  -8   1   1  371.23    2.87   0
  -7  -7   1  140.70    2.11   0
  -5 -10   2   93.32    2.24   0
  -5   1   0   12.52    1.63   0
  -4  -6   0  469.39    2.91   0
  -2  -6   0  874.38    4.10   0
   1 -10   3    3.78    2.51   0
   2   7   6  118.46    2.11   0
   3   6   6  191.55    2.36   0
   4   3   4   73.89    1.78   0
   4   4   5   15.69    1.60   0
   5   0   4   -0.49    1.53   0
   5   2   5  159.03    2.06   0
  -9  -3   1    3.43    1.76   0
  -9  -2   1  405.36    2.90   0
  -8  -6   1   58.64    1.96   0
  -8   4   2   60.93    2.34   0
  -6  -8   1   53.18    1.93   0
  -6  -5   0  165.01    2.09   0
  -6   0   0  156.48    1.87   0
  -5  -6   0   53.98    1.77   0
  -5   4   1    4.48    1.92   0
  -3  -9   1  101.92    2.01   0
  -1 -10   2    2.17    1.80   0
   0   6   3   62.08    1.95   0
   0   7   4  214.14    2.41   0
   1   4   2   39.70    1.80   0
   1   7   5   27.42    1.69   0
   1   8   7   35.52    2.02   0
   2   3   2  956.20    4.16   0
   4   1   3   30.29    1.68   0
   4   5   7    3.90    1.63   0
   5  -6   5  404.56    3.83   0
   6   0   7    0.86    1.34   0
  -9  -4   1  246.47    2.48   0
  -9  -1   1  195.13    1.99   0
  -9   3   2    5.51    1.81   0
  -7  -3   0   12.44    1.60   0
  -7  -2   0   -0.26    1.60   0
  -5  -9   1   85.83    2.00   0
  -4  -9   1   70.73    1.56   0
  -4   2   0 2154.29    7.77   0
  -3   2   0  443.34    4.41   0
  -3   9   6   20.24    2.16   0
  -2  -9   1   75.81    2.00   0
  -1  -6   0  181.29    2.51   0
  -1   8   5  286.46    2.80   0
   0  -5   0   -0.31    1.83   0
   0   3   1   36.77    2.10   0
   0   8   6    1.87    1.70   0
   1   2   1 9931.62   17.60   0
   2   6   5   53.69    1.87   0
   2   7   7   78.08    2.06   0
   3   1   2   -0.11    1.27   0
   3   5   5    2.83    1.59   0
   5  -3   4   11.06    1.62   0
   5  -2   4  170.08    2.27   0
   5  -1   4  222.68    2.33   0
   5   1   5   19.15    1.64   0
   6  -3   7   -1.92    1.89   0
   6  -2   7   18.82    1.99   0
   6  -1   7    3.19    1.35   0
  -9  -5   1   98.71    1.68   0
  -9   0   1    6.86    1.76   0
  -9   5   3   55.94    2.66   0
  -8  -7   1   48.11    1.92   0
  -8   2   1    0.96    1.69   0
  -7  -8   1   12.49    1.86   0
  -7  -4   0   -0.35    1.14   0
  -7   3   1   29.24    1.70   0
  -6  -6   0  115.33    1.92   0
  -6   1   0  216.43    2.50   0
  -4  -7   0    1.76    1.09   0
  -3  -7   0    2.68    1.16   0
  -2  -7   0   54.43    1.76   0
   0  -8   1  171.46    2.63   0
   2   0   1    0.82    1.33   0
   2   4   3  328.82    2.68   0
   3   4   4  469.88    2.62   0
   4  -7   4  269.58    3.95   0
   4  -5   3  115.60    2.57   0
   4   0   3    0.60    1.56   0
   4   2   4  257.48    2.40   0
   4   4   6  430.00    2.44   0
  -7  -5   0   23.99    1.36   0
  -7   0   0    1.03    1.59   0
  -7   5   2   16.10    2.17   0
  -6  -9   1  177.22    2.43   0
  -5  -7   0    9.41    1.26   0
  -3 -11   2  137.17    2.46   0
  -2   4   1   34.48    3.33   0
   1  -9   2   51.07    2.76   0
   1   5   3 1249.94    4.53   0
   2   5   4   71.70    1.45   0
   4  -8   5  135.67    3.42   0
   4   3   5   21.38    1.23   0
   4   4   7    5.63    1.71   0
   5  -5   5    3.59    2.00   0
   5   0   5 1241.75    4.32   0
   5   1   6    7.26    1.73   0
   5   2   8    0.26    1.87   0
 -10  -2   1   53.40    2.12   0
  -9   1   1  193.71    2.09   0
  -8  -2   0    1.09    1.68   0
  -7  -6   0    3.69    1.64   0
  -6  -7   0  105.58    2.00   0
  -2 -11   2    8.79    2.29   0
  -2   8   5  105.17    2.25   0
  -1  -9   1   25.33    1.74   0
  -1   5   2  253.08    3.34   0
  -1   7   4   -0.97    1.61   0
   0   8   7    0.84    1.74   0
   1   7   6   31.48    1.38   0
   2   6   6  110.36    2.08   0
   3   0   2   -0.87    1.70   0
   3   5   6  108.00    1.65   0
   4  -1   3   27.42    1.69   0
   4   4   8   51.02    1.87   0
   5  -6   6   74.95    2.28   0
   5  -1   5   14.97    1.69   0
  -8  -5   0  181.32    2.26   0
  -8  -1   0  127.89    1.75   0
  -7   1   0   42.90    1.82   0
  -6   4   1    3.35    1.61   0
  -5 -10   1   12.51    1.95   0
  -5  -8   0   17.18    1.75   0
  -4 -10   1    2.92    1.71   0
  -4  -8   0   46.45    1.78   0
  -4  -2  -1   38.95    1.75   0
  -3 -10   1   10.65    1.75   0
  -3  -8   0  360.96    2.78   0
  -3  -3  -1 1809.39    5.60   0
  -2   2   0 5201.54   20.41   0
  -1   6   3  358.71    3.23   0
   0 -10   2    1.22    1.68   0
   0   7   5   35.67    1.70   0
   1   7   7   55.23    2.01   0
   2   2   2  367.68    3.14   0
   3   2   3    3.80    1.13   0
   3   4   5  282.80    2.41   0
   4  -4   3    4.76    1.56   0
   4  -2   3    0.39    1.66   0
   4   1   4 1130.43    4.12   0
   4   3   6  229.36    2.27   0
   5  -4   5   23.29    1.77   0
   5  -3   5  148.00    2.18   0
   5  -2   5  158.60    2.18   0
   5   0   6   -0.03    1.65   0
   5   1   7  240.77    2.05   0
   5   1   8    2.67    1.81   0
 -10   0   1   -1.70    1.90   0
  -9   4   2    7.97    2.18   0
  -8  -6   0   13.70    1.71   0
  -8   0   0    5.45    1.63   0
  -8   3   1   32.80    1.82   0
  -8   6   3   25.64    2.83   0
  -7  -7   0  148.98    2.14   0
  -6  -8   0   48.77    1.85   0
  -6   2   0  365.26    3.07   0
  -5  -4  -1 1030.44    3.92   0
  -5  -3  -1  147.96    2.09   0
  -4  -4  -1    2.22    1.12   0
  -3  -4  -1 4695.32    8.52   0
  -3  -2  -1 2559.21    6.70   0
  -2  -8   0  640.16    3.63   0
   0  -6   0 2607.42    8.85   0
   1   6   5  367.70    2.72   0
   2   5   5    5.32    1.64   0
   2   6   7   45.11    1.82   0
   3  -5   2    0.41    2.06   0
   4   2   5  372.22    2.31   0
   5  -5   6   19.36    1.92   0
   5   0   7   60.14    1.94   0
 -10   3   2   61.73    2.28   0
  -9  -3   0   41.64    1.93   0
  -9  -2   0   14.41    1.88   0
  -6  -4  -1   72.93    1.87   0
  -6  -3  -1  101.87    1.88   0
  -5  -5  -1  263.88    2.38   0
  -5  -1  -1  246.20    2.44   0
  -4  -5  -1  600.14    2.95   0
  -4  -1  -1  586.63    3.26   0
  -3  -5  -1   67.13    1.84   0
  -3   8   5   -0.28    1.77   0
  -2 -10   1   20.98    1.77   0
  -1   8   7   63.55    2.08   0
   0   6   4  476.97    3.25   0
   2   6   8  150.76    1.91   0
   3  -1   2   -0.61    1.57   0
   3   4   6   65.10    1.82   0
   4   3   8  191.91    1.93   0
   5  -4   6   71.92    2.08   0
   5  -2   6    3.10    1.63   0
   5   0   8   -0.88    1.70   0
 -10   1   1    7.67    1.88   0
  -9  -5   0   15.53    1.90   0
  -9  -1   0   69.18    1.97   0
  -8  -7   0   67.19    2.09   0
  -7  -8   0    2.89    1.86   0
  -6  -5  -1   10.34    1.65   0
  -6  -2  -1  281.55    2.17   0
  -5  -9   0   40.07    1.97   0
  -4  -9   0  170.84    2.28   0
  -4  -6  -1 1470.00    4.66   0
  -2  -4  -1 2515.26    6.67   0
  -2  -2  -1 1610.53    6.09   0
  -2   7   4  268.35    2.90   0
  -2   8   6    3.83    1.78   0
  -1 -11   2    0.31    1.88   0
   0   4   2   49.98    1.92   0
   2   3   3    2.51    1.66   0
   2   4   4 1876.96    5.25   0
   4   0   4  114.46    1.66   0
   4   1   5  106.85    1.96   0
   4   2   6  211.65    1.90   0
   5  -5   7  254.78    2.88   0
   5  -3   6    9.81    1.68   0
   5  -1   7  238.61    2.38   0
   5  -1   8    2.02    1.85   0
  -8   5   2    8.44    2.26   0
  -7  -4  -1   57.04    1.84   0
  -7  -3  -1   14.91    1.66   0
  -7  -2  -1  470.62    2.93   0
  -7   2   0    1.15    1.62   0
  -7   4   1   92.22    2.25   0
  -6  -9   0   45.84    2.08   0
  -6  -6  -1    3.07    1.54   0
  -6  -1  -1   10.71    1.17   0
  -5  -6  -1  501.07    2.69   0
  -4   0  -1    0.64    1.57   0
  -3  -9   0    2.53    1.72   0
  -3  -6  -1  305.56    2.62   0
  -2  -5  -1   94.94    2.02   0
  -1   7   5   63.29    1.92   0
   0  -9   1   24.29    2.18   0
   0   5   3  153.38    2.26   0
   1   4   3  265.52    2.66   0
   1   6   6  135.14    2.14   0
   2   5   6  337.80    2.55   0
   3  -2   2  487.03    3.76   0
   3   1   3  833.28    3.69   0
   3   3   5  304.97    2.49   0
   3   4   7    7.95    1.25   0
   3   4   8    0.51    1.67   0
   4   2   7    1.56    1.59   0
   5  -3   7  241.04    2.59   0
   5  -2   7   63.03    1.59   0
   5  -2   8    1.93    1.81   0
  -9   0   0   -0.17    1.31   0
  -7  -5  -1   76.38    1.93   0
  -5  -7  -1  347.23    2.66   0
  -5   0  -1 3645.68    7.54   0
  -4  -7  -1   18.88    1.64   0
  -3 -11   1   84.03    2.25   0
  -2  -1  -1  144.51    2.67   0
  -1 -10   1  169.92    2.61   0
  -1  -8   0  624.95    3.92   0
   0   7   7  125.78    2.11   0
   1   1   1 2784.31   10.13   0
   2   5   7    5.77    1.67   0
   3  -4   2    0.22    1.62   0
   3  -3   2  366.05    3.53   0
   3   2   4  566.19    2.90   0
   4  -7   5    0.79    1.84   0
   4  -1   4 1082.10    4.03   0
   4   1   6  211.89    2.22   0
 -10  -2   0   14.14    1.50   0
 -10   2   1   54.84    2.21   0
  -9   3   1    2.28    1.84   0
  -8  -4  -1    1.94    1.81   0
  -8  -3  -1   50.79    1.86   0
  -7  -6  -1  203.26    2.36   0
  -7  -1  -1   45.59    1.36   0
  -6  -7  -1    7.03    1.68   0
  -6   0  -1   -2.17    1.63   0
  -6   8   5    2.75    2.55   0
  -5   3   0   13.36    1.77   0
  -5   8   5    5.39    2.20   0
  -3  -7  -1   17.31    1.72   0
  -3   0  -1  708.57    4.30   0
  -2  -9   0   19.87    1.79   0
  -2  -6  -1  468.57    3.20   0
  -2   6   3   23.91    1.99   0
  -2   8   7   11.36    1.86   0
   0  -7   0   -0.10    1.93   0
   0   7   8    9.70    1.34   0
   1   6   7   -1.88    1.21   0
   1   6   8  119.65    2.22   0
   2   1   2 1720.96    6.19   0
   2   4   5  140.11    2.06   0
   2   5   8   10.05    1.37   0
   3  -7   3  259.40    4.52   0
   3   3   6   -0.26    1.58   0
   4  -5   4  215.53    2.73   0
   4  -2   4  267.34    2.65   0
   4   0   5    0.24    1.55   0
   4   1   7   10.82    1.70   0
  -8  -2  -1   32.49    1.38   0
  -8   2   0    2.00    1.71   0
  -7  -7  -1    3.37    1.74   0
  -5 -10   0   11.74    1.53   0
  -4 -10   0  128.11    2.29   0
  -4   3   0  199.90    3.16   0
  -3   8   6    1.72    1.85   0
  -2 -11   1   35.10    2.38   0
  -1  -4  -1 1647.51    6.28   0
  -1  -3  -1   85.57    2.30   0
   0   6   5  141.14    2.11   0
   1   5   5  186.88    2.21   0
   3   0   3    1.51    1.68   0
   3   3   8   33.06    1.78   0
   4  -4   4  133.39    2.25   0
   4  -3   4   76.34    1.97   0
   4   1   8  102.98    1.68   0
 -10   0   0   81.39    2.30   0
  -8  -6  -1   -1.07    1.29   0
  -8  -1  -1   33.36    1.82   0
  -8   4   1   97.55    2.40   0
  -7   0  -1  847.71    3.55   0
  -6  -8  -1  195.89    2.42   0
  -5  -8  -1  188.26    1.97   0
  -5   1  -1  242.53    2.66   0
  -4  -8  -1   58.10    1.93   0
  -3 -10   0   71.82    2.11   0
  -2  -7  -1  117.85    2.10   0
  -1  -5  -1  451.30    3.46   0
  -1   6   4   91.09    2.09   0
   1  -8   1  444.13    5.23   0
   2  -3   1   80.24    3.18   0
   2   2   3   17.58    1.76   0
   2   3   4  308.07    2.58   0
   2   4   6  300.58    2.46   0
   3   1   4   62.45    1.83   0
   3   2   5  632.84    3.16   0
   4  -7   6   47.89    2.19   0
   4  -6   5   48.67    2.05   0
   4  -1   5  109.28    1.95   0
   4   0   6  336.12    2.30   0
   4   0   7    0.31    1.61   0
   4   0   8   16.19    1.75   0
  -9  -5  -1   95.57    2.26   0
  -9  -4  -1   60.83    1.61   0
  -9  -3  -1   80.03    1.69   0
  -9  -2  -1   67.90    2.09   0
  -9   5   2  109.93    3.15   0
  -8  -7  -1   60.79    2.13   0
  -7  -8  -1  411.85    3.14   0
  -7   3   0   11.73    2.05   0
  -3  -8  -1   57.46    1.86   0
  -3   8   7   76.21    2.23   0
  -1  -2  -1 9999.99   17.15   0
  -1   7   7   -0.20    1.73   0
   0   6   6   36.82    1.79   0
   2  -4   1 2741.75   16.49   0
   2   4   7   60.68    1.82   0
   3  -9   5    3.94    2.73   0
   4  -2   5  371.13    2.81   0
   4  -1   6  206.34    2.31   0
 -10   1   0   74.11    2.14   0
 -10   3   1    9.28    2.14   0
  -9  -1  -1   45.58    1.90   0
  -9   2   0   14.12    1.87   0
  -8   0  -1   -0.51    1.66   0
  -6  -9  -1  199.60    2.51   0
  -5  -9  -1    4.30    1.90   0
  -5  -4  -2  309.42    2.54   0
  -4   8   6   66.66    2.27   0
  -2 -10   0    2.46    1.63   0
  -1  -9   0   23.35    1.86   0
  -1  -6  -1  209.29    2.61   0
   0 -11   2  100.03    3.06   0
   0   5   4  232.38    2.53   0
   0   6   7    1.65    1.70   0
   1   4   4   55.62    1.79   0
   1   5   6  115.03    1.70   0
   2   4   8   18.96    1.28   0
   3  -8   4   21.04    2.62   0
   3  -1   3  863.04    4.25   0
   3   2   6    5.95    1.20   0
   3   2   7   57.73    1.88   0
   4  -5   5   11.35    1.68   0
   4  -4   5   14.79    1.72   0
   4  -3   5   21.26    1.68   0
   4  -1   7   11.73    1.70   0
   4  -1   8  106.94    2.06   0
  -6  -5  -2   72.98    1.88   0
  -6  -4  -2  119.09    1.66   0
  -6  -3  -2   28.97    1.72   0
  -5  -5  -2   16.07    1.19   0
  -5  -3  -2    0.83    1.16   0
  -4  -9  -1   39.09    1.46   0
  -4  -5  -2  630.59    3.29   0
  -4  -4  -2  340.51    2.38   0
  -4  -3  -2   62.20    1.85   0
  -2  -8  -1  149.83    2.24   0
  -2   0  -1    1.62    1.97   0
   0   2   1  140.83    3.33   0
   0   6   8   88.73    2.03   0
   1  -4   0   64.86    3.28   0
   1   2   2 1213.82    5.53   0
   1   5   7  521.79    2.76   0
   1   5   8   12.09    1.28   0
   2   0   2 4335.72   10.07   0
   2   3   5   83.56    1.89   0
   3   1   5    1.28    1.62   0
   4  -2   6  214.64    2.33   0
   4  -2   7    0.87    1.69   0
  -9   0  -1   64.94    2.14   0
  -9   4   1  247.22    3.18   0
  -8   3   0  336.83    3.16   0
  -7  -5  -2   24.73    1.87   0
  -7  -4  -2  141.03    1.74   0
  -6  -6  -2  252.62    2.47   0
  -6  -2  -2 1581.42    4.81   0
  -5  -6  -2   14.37    1.27   0
  -5  -2  -2   44.66    1.36   0
  -5   8   6   22.89    2.37   0
  -4  -6  -2  883.49    3.80   0
  -4   8   7   49.31    2.23   0
  -3 -11   0   54.17    2.11   0
  -3  -9  -1  104.49    2.16   0
  -3  -4  -2    0.77    1.59   0
  -3   1  -1   83.54    2.23   0
   0 -10   1  148.13    3.08   0
   0  -8   0  665.12    4.53   0
   1 -11   3  126.78    5.49   0
   1 -10   2  186.27    4.87   0
   1   3   3  893.71    4.06   0
   2   3   9    5.21    1.77   0
   3   0   4    0.82    1.51   0
   3   1   9   -0.37    1.77   0
   4  -5   6  293.71    2.88   0
   4  -5   7    3.74    1.79   0
   4  -4   6  436.51    3.16   0
   4  -3   6  238.85    2.50   0
   4  -3   7   79.22    2.00   0
   4  -3   8  197.12    2.41   0
 -10  -1  -1    2.93    2.03   0
  -8  -5  -2    4.96    1.79   0
  -8  -4  -2  524.62    3.16   0
  -8   1  -1   32.25    1.44   0
  -7  -6  -2   62.22    1.52   0
  -7  -2  -2   30.90    1.76   0
  -6  -7  -2  283.13    2.61   0
  -6  -1  -2  260.00    2.42   0
  -5 -10  -1   88.09    2.28   0
  -5  -7  -2  210.13    2.39   0
  -3  -5  -2   -0.91    1.10   0
  -3   3   0  406.92    5.65   0
  -2   7   7   11.14    1.70   0
  -1  -7  -1  172.13    2.42   0
  -1   4   2  103.28    2.62   0
   0   4   3    3.42    1.67   0
   1  -5   0  956.80    8.14   0
   1   4   5  577.41    3.21   0
   2   2   4 1673.54    5.09   0
   2   3   6  332.89    2.23   0
   2   3   7  171.76    2.13   0
   2   3   8   86.73    1.89   0
   3  -6   3   -0.44    2.05   0
   3  -2   3    4.31    1.57   0
   3   1   7  625.72    3.11   0
   3   1   8    2.45    1.68   0
   4  -4   7    6.49    1.66   0
 -10   2   0   14.67    2.03   0
  -7  -7  -2   47.03    1.96   0
  -6   2  -1  286.68    2.88   0
  -6   5   1    9.58    2.35   0
  -5   2  -1  390.24    3.33   0
  -4 -10  -1   89.94    2.26   0
  -4  -7  -2  155.13    1.88   0
  -4  -1  -2  956.45    4.20   0
  -3  -6  -2  344.69    2.44   0
  -3  -2  -2  475.44    3.21   0
  -2   6   4  467.80    3.51   0
  -2   7   8   -0.16    1.75   0
  -1  -1  -1 2590.19    9.87   0
   0   3   2 1568.09    6.57   0
   0   5   5  137.08    1.81   0
   1   4   9  116.80    2.17   0
   2   1   3   14.48    1.36   0
   3   0   5 1008.48    3.94   0
   3   0   9   32.42    1.92   0
 -10   0  -1    1.01    2.08   0
  -9  -4  -2    9.49    2.06   0
  -9   1  -1   45.46    2.01   0
  -9   3   0   41.60    2.13   0
  -7   2  -1  484.77    3.43   0
  -6  -8  -2  331.19    2.48   0
  -5  -8  -2  518.85    2.85   0
  -3 -10  -1  256.45    2.68   0
  -3  -7  -2   48.61    1.82   0
  -2 -11   0   24.88    2.28   0
  -2  -9  -1  167.08    2.44   0
  -1 -10   0  457.98    3.71   0
  -1   6   7   10.40    1.64   0
  -1   6   8   25.50    1.90   0
  -1   6   9   24.51    1.92   0
   0   5   6  203.64    2.29   0
   0   5   9    8.62    1.85   0
   1  -3   0  246.67    7.76   0
   1   4   6   42.82    1.39   0
   1   4   7  183.34    2.14   0
   1   4   8   82.00    1.94   0
   2 -10   4  172.87    5.29   0
   2   2   9    8.14    1.74   0
   3  -5   3  163.81    2.90   0
   3  -3   3 1222.41    5.35   0
   3  -1   4   65.93    1.84   0
   3   0   8   -1.05    1.69   0
  -9  -2  -2    8.28    2.00   0
  -8  -1  -2   85.96    2.05   0
  -6   0  -2  329.46    2.76   0
  -5   0  -2   -0.10    1.67   0
  -5   7   4   26.32    2.59   0
  -4  -8  -2   18.94    1.29   0
  -4   2  -1   40.51    1.94   0
  -3   7   6  308.41    2.95   0
  -2  -5  -2  133.93    2.16   0
  -2  -4  -2  169.68    2.40   0
  -1  -8  -1  454.75    3.43   0
   0   5   7  153.80    2.17   0
   0   5   8   74.71    1.89   0
   1   0   1    9.50    2.45   0
   1   3   4   -0.16    1.60   0
   2   2   5   26.65    1.25   0
   2   2   8   12.67    1.63   0
   3  -4   3    1.58    1.59   0
   3   0   6   -0.37    1.08   0
   3   0   7    1.67    1.16   0
  -8   2  -1   35.32    1.86   0
  -7   0  -2   -1.22    1.23   0
  -6  -9  -2    4.00    1.46   0
  -6   4   0   33.36    2.22   0
  -5  -9  -2    3.29    1.86   0
  -3  -8  -2  310.43    2.67   0
  -3  -1  -2    0.23    1.77   0
  -3   7   7    0.99    1.82   0
  -3   7   8   11.06    1.95   0
  -2  -3  -2  974.99    4.29   0
  -1   5   4  148.34    2.36   0
   0  -9   0    0.29    2.03   0
   0  -4  -1  899.02    5.53   0
   2  -1   2 1864.44    7.10   0
   2   2   6  392.72    2.37   0
   2   2   7   17.19    1.59   0
   3  -2   4  567.89    3.44   0
   3  -2   9  132.66    2.23   0
   3  -1   5    0.72    1.55   0
   3  -1   8    1.04    1.65   0
 -10   1  -1    2.19    2.04   0
  -9  -1  -2   83.85    1.75   0
  -8   0  -2  463.82    3.13   0
  -7   4   0   -0.51    1.71   0
  -4  -9  -2   65.45    2.11   0
  -4   0  -2 1446.79    5.25   0
  -4   7   5    2.57    1.76   0
  -2  -7  -2  542.15    3.34   0
  -2   6   5   99.06    2.13   0
   0   4   4 1632.99    5.37   0
   1   3   9   24.48    1.71   0
   2   1   4   48.87    1.79   0
   2   1   9   10.53    1.68   0
   3  -8   6   91.20    2.49   0
   3  -3   9    2.17    1.83   0
   3  -1   7  599.89    3.13   0
  -8   4   0   21.81    2.25   0
  -6  -5  -3   77.04    1.55   0
  -6  -4  -3   56.71    1.45   0
  -6  -3  -3    3.53    1.67   0
  -5  -5  -3  478.88    2.68   0
  -5  -3  -3  687.59    3.32   0
  -5   4   0   21.24    2.17   0
  -3 -11  -1    0.38    1.86   0
  -2 -10  -1  215.59    2.73   0
  -2  -2  -2  376.35    3.02   0
  -2   6   9   44.42    1.97   0
   0  -6  -1  165.86    2.68   0
   0  -3  -1   38.69    2.53   0
   0   4   9   56.66    2.03   0
   1   2   3  141.67    2.06   0
   1   3   5  189.80    1.90   0
   1   3   8   16.69    1.65   0
   2   0   3   -0.03    1.77   0
   2   1   8  165.06    2.12   0
   3  -6   4    7.55    2.02   0
   3  -3   4  387.21    3.06   0
   3  -2   5  622.54    3.40   0
   3  -2   8   53.75    1.80   0
  -9   0  -2    2.24    1.94   0
  -8  -5  -3    8.85    1.96   0
  -8  -3  -3   -0.30    1.80   0
  -7  -7  -3   68.03    2.20   0
  -7  -3  -3  489.40    2.69   0
  -7   1  -2   10.63    1.71   0
  -6  -7  -3   67.91    2.09   0
  -6  -2  -3   10.48    1.74   0
  -6   1  -2  259.54    2.69   0
  -5  -7  -3  189.81    2.43   0
  -4  -6  -3  208.90    2.32   0
  -4  -5  -3  114.47    2.01   0
  -3  -9  -2   35.63    1.91   0
  -2   6   6   56.33    1.97   0
  -2   6   7   -0.65    1.68   0
  -2   6   8   77.11    2.07   0
  -1  -9  -1  108.38    2.24   0
  -1   5   5  499.93    3.29   0
  -1   5   9   98.80    1.81   0
   0   4   5   59.38    1.83   0
   1   1   2   89.70    2.00   0
   1   3   6   45.31    1.31   0
   1   3   7   66.51    1.39   0
   2   1   5   40.08    1.66   0
   2   1   6  825.76    3.52   0
   2   1   7   72.84    1.84   0
   3  -7   5   82.56    2.31   0
   3  -7   7  489.06    3.76   0
   3  -4   4  476.23    3.47   0
   3  -4   8    1.97    1.75   0
   3  -2   6    4.39    1.59   0
  -5   1  -2  151.20    1.98   0
  -4 -10  -2    6.91    1.43   0
   0   4   8  361.97    2.37   0
   2   0   9   -0.09    1.30   0
   3  -5   8   50.09    1.56   0
;
_shelx_hkl_checksum              70712
loop_
_space_group_symop_operation_xyz
'x, y, z'
'-x+1/2, y+1/2, -z+1/2'
'-x, -y, -z'
'x-1/2, -y-1/2, z-1/2'
loop_
_atom_site_label
_atom_site_type_symbol
_atom_site_fract_x
_atom_site_fract_y
_atom_site_fract_z
_atom_site_U_iso_or_equiv
_atom_site_adp_type
_atom_site_occupancy
_atom_site_site_symmetry_order
_atom_site_calc_flag
_atom_site_refinement_flags_adp
S1 S 0.77897(4) 0.26356(4) 0.63131(4) 0.02594(13) Uani 1 1 d .
C2 C 0.62661(14) 0.39505(13) 0.54496(14) 0.0185(2) Uani 1 1 d .
C3 C 0.52664(14) 0.44306(13) 0.66745(14) 0.0186(2) Uani 1 1 d .
C4 C 0.58012(16) 0.37055(14) 0.83039(15) 0.0229(2) Uani 1 1 d .
H4 H 0.535(2) 0.3876(19) 0.927(2) 0.028(4) Uiso 1 1 d .
C5 C 0.71167(19) 0.27479(16) 0.82747(18) 0.0274(3) Uani 1 1 d .
H5 H 0.768(2) 0.216(2) 0.920(3) 0.033(5) Uiso 1 1 d .
C6 C 0.60194(14) 0.45024(13) 0.37909(14) 0.0187(2) Uani 1 1 d .
O7 O 0.69827(12) 0.39715(10) 0.26321(11) 0.0252(2) Uani 1 1 d .
C8 C 0.84423(18) 0.48881(18) 0.2493(2) 0.0315(3) Uani 1 1 d .
H8A H 0.898(3) 0.447(3) 0.168(3) 0.051(3) Uiso 1 1 d U
H8B H 0.926(3) 0.482(3) 0.355(3) 0.051(3) Uiso 1 1 d U
H8C H 0.810(3) 0.590(3) 0.222(3) 0.051(3) Uiso 1 1 d U
loop_
_atom_site_aniso_label
_atom_site_aniso_U_11
_atom_site_aniso_U_22
_atom_site_aniso_U_33
_atom_site_aniso_U_23
_atom_site_aniso_U_13
_atom_site_aniso_U_12
S1 0.0264(2) 0.02558(19) 0.0255(2) 0.00342(11) 0.00355(13) 0.00814(11)
C2 0.0185(5) 0.0161(5) 0.0202(5) -0.0006(4) 0.0013(4) 0.0006(4)
C3 0.0211(5) 0.0175(5) 0.0168(5) -0.0009(4) 0.0022(4) -0.0026(4)
C4 0.0279(6) 0.0217(6) 0.0182(5) 0.0016(4) 0.0015(4) -0.0003(5)
C5 0.0328(7) 0.0267(7) 0.0211(6) 0.0049(5) 0.0000(5) 0.0027(5)
C6 0.0203(5) 0.0181(5) 0.0183(5) -0.0028(4) 0.0046(4) -0.0015(4)
O7 0.0277(4) 0.0263(5) 0.0241(4) -0.0049(3) 0.0115(3) -0.0003(4)
C8 0.0260(6) 0.0358(8) 0.0349(7) 0.0030(6) 0.0120(5) -0.0008(6)
loop_
_atom_type_symbol
_atom_type_description
_atom_type_scat_dispersion_real
_atom_type_scat_dispersion_imag
_atom_type_scat_source
C C 0.0033 0.0016 'International Tables Vol C Tables 4.2.6.8 and 6.1.1.4'
H H 0.0000 0.0000 'International Tables Vol C Tables 4.2.6.8 and 6.1.1.4'
O O 0.0106 0.0060 'International Tables Vol C Tables 4.2.6.8 and 6.1.1.4'
S S 0.1246 0.1234 'International Tables Vol C Tables 4.2.6.8 and 6.1.1.4'
loop_
_exptl_crystal_face_index_h
_exptl_crystal_face_index_k
_exptl_crystal_face_index_l
_exptl_crystal_face_perp_dist
1 3 2 0.0646
-1 -3 -2 0.0614
-2 0 1 0.1883
0 -1 2 0.2745
-3 2 -2 0.4424
2 1 -2 0.1289
3 -1 1 0.3882
loop_
_geom_angle_atom_site_label_1
_geom_angle_atom_site_label_2
_geom_angle_atom_site_label_3
_geom_angle
_geom_angle_site_symmetry_1
_geom_angle_site_symmetry_3
C5 S1 C2 90.93(6) . .
C6 C2 C3 122.52(11) . .
C6 C2 S1 126.14(9) . .
C3 C2 S1 111.34(8) . .
C6 C3 C2 119.38(10) 3_666 .
C6 C3 C4 129.17(11) 3_666 .
C2 C3 C4 111.44(10) . .
C5 C4 C3 112.18(11) . .
C5 C4 H4 122.2(11) . .
C3 C4 H4 125.6(11) . .
C4 C5 S1 114.10(10) . .
C4 C5 H5 126.8(11) . .
S1 C5 H5 119.1(11) . .
O7 C6 C2 120.51(11) . .
O7 C6 C3 121.35(10) . 3_666
C2 C6 C3 118.11(10) . 3_666
C6 O7 C8 113.47(10) . .
O7 C8 H8A 107.4(14) . .
O7 C8 H8B 108.9(13) . .
H8A C8 H8B 105.5(18) . .
O7 C8 H8C 111.2(13) . .
H8A C8 H8C 111.6(19) . .
H8B C8 H8C 112.0(18) . .
loop_
_geom_bond_atom_site_label_1
_geom_bond_atom_site_label_2
_geom_bond_distance
_geom_bond_site_symmetry_2
S1 C5 1.7339(15) .
S1 C2 1.7392(12) .
C2 C6 1.3893(16) .
C2 C3 1.4216(16) .
C3 C6 1.3980(17) 3_666
C3 C4 1.4449(16) .
C4 C5 1.3515(19) .
C4 H4 0.909(17) .
C5 H5 0.95(2) .
C6 O7 1.3765(13) .
C6 C3 1.3980(17) 3_666
O7 C8 1.4360(16) .
C8 H8A 0.91(2) .
C8 H8B 0.97(2) .
C8 H8C 0.96(2) .
loop_
_geom_torsion_atom_site_label_1
_geom_torsion_atom_site_label_2
_geom_torsion_atom_site_label_3
_geom_torsion_atom_site_label_4
_geom_torsion
_geom_torsion_site_symmetry_1
_geom_torsion_site_symmetry_4
C5 S1 C2 C6 178.82(11) . .
C5 S1 C2 C3 -0.70(9) . .
C6 C2 C3 C6 0.05(19) . 3_666
S1 C2 C3 C6 179.58(9) . 3_666
C6 C2 C3 C4 -178.98(11) . .
S1 C2 C3 C4 0.55(13) . .
C6 C3 C4 C5 -178.95(12) 3_666 .
C2 C3 C4 C5 -0.05(15) . .
C3 C4 C5 S1 -0.50(15) . .
C2 S1 C5 C4 0.70(12) . .
C3 C2 C6 O7 -177.99(10) . .
S1 C2 C6 O7 2.55(17) . .
C3 C2 C6 C3 -0.04(19) . 3_666
S1 C2 C6 C3 -179.50(9) . 3_666
C2 C6 O7 C8 -96.58(13) . .
C3 C6 O7 C8 85.53(14) 3_666 .
