#------------------------------------------------------------------------------
#$Date: 2019-11-11 20:25:40 +0200 (Mon, 11 Nov 2019) $
#$Revision: 227260 $
#$URL: file:///home/coder/svn-repositories/cod/cif/4/03/58/4035842.cif $
#------------------------------------------------------------------------------
#
# This file is available in the Crystallography Open Database (COD),
# http://www.crystallography.net/
#
# All data on this site have been placed in the public domain by the
# contributors.
#
data_4035842
loop_
_publ_author_name
'Skalenko, Yevhen A.'
'Druzhenko, Tetiana V.'
'Denisenko, Aleksandr V.'
'Samoilenko, Maryna V.'
'Dacenko, Oleksandr P.'
'Trofymchuk, Serhii A.'
'Grygorenko, Oleksandr O.'
'Tolmachev, Andrey A.'
'Mykhailiuk, Pavel K.'
_publ_section_title
;
 [2+2]-Photocycloaddition of N-Benzylmaleimide to Alkenes As an Approach
 to Functional 3-Azabicyclo[3.2.0]heptanes.
;
_journal_issue                   12
_journal_name_full               'The Journal of organic chemistry'
_journal_page_first              6275
_journal_page_last               6289
_journal_paper_doi               10.1021/acs.joc.8b00077
_journal_volume                  83
_journal_year                    2018
_chemical_formula_sum            'C15 H14 F N O4'
_chemical_formula_weight         291.27
_space_group_crystal_system      monoclinic
_space_group_IT_number           7
_space_group_name_Hall           'P -2yc'
_space_group_name_H-M_alt        'P 1 c 1'
_atom_sites_solution_hydrogens   geom
_audit_creation_method           SHELXL-2014/7
_cell_angle_alpha                90
_cell_angle_beta                 101.719(9)
_cell_angle_gamma                90
_cell_formula_units_Z            2
_cell_length_a                   13.4599(13)
_cell_length_b                   5.9693(4)
_cell_length_c                   8.7884(10)
_cell_measurement_reflns_used    892
_cell_measurement_temperature    293(2)
_cell_measurement_theta_max      22.7
_cell_measurement_theta_min      3.7
_cell_volume                     691.40(12)
_computing_structure_refinement  'SHELXL-2014/7 (Sheldrick, 2014)'
_diffrn_ambient_temperature      293(2)
_diffrn_detector_area_resol_mean 16.1827
_diffrn_measured_fraction_theta_full 0.987
_diffrn_measured_fraction_theta_max 0.988
_diffrn_measurement_device_type  'Xcalibur, Sapphire3'
_diffrn_radiation_type           MoK\a
_diffrn_radiation_wavelength     0.71073
_diffrn_reflns_av_R_equivalents  0.0550
_diffrn_reflns_av_unetI/netI     0.0599
_diffrn_reflns_Laue_measured_fraction_full 0.987
_diffrn_reflns_Laue_measured_fraction_max 0.988
_diffrn_reflns_limit_h_max       18
_diffrn_reflns_limit_h_min       -17
_diffrn_reflns_limit_k_max       8
_diffrn_reflns_limit_k_min       -8
_diffrn_reflns_limit_l_max       12
_diffrn_reflns_limit_l_min       -9
_diffrn_reflns_number            5955
_diffrn_reflns_point_group_measured_fraction_full 0.691
_diffrn_reflns_point_group_measured_fraction_max 0.680
_diffrn_reflns_theta_full        25.242
_diffrn_reflns_theta_max         29.997
_diffrn_reflns_theta_min         3.413
_diffrn_source                   'Enhance (Mo) X-ray Source'
_exptl_absorpt_coefficient_mu    0.111
_exptl_absorpt_correction_T_max  1.000
_exptl_absorpt_correction_T_min  0.275
_exptl_absorpt_correction_type   multi-scan
_exptl_absorpt_process_details
;
CrysAlisPro, Agilent Technologies,
Version 1.171.36.32 (release 02-08-2013 CrysAlis171 .NET)
(compiled Aug  2 2013,16:46:58)
Empirical absorption correction using spherical harmonics,
 implemented in SCALE3 ABSPACK scaling algorithm.
;
_exptl_crystal_colour            colorless
_exptl_crystal_density_diffrn    1.399
_exptl_crystal_description       block
_exptl_crystal_F_000             304
_exptl_crystal_size_max          0.200
_exptl_crystal_size_mid          0.200
_exptl_crystal_size_min          0.180
_refine_diff_density_max         0.114
_refine_diff_density_min         -0.116
_refine_diff_density_rms         0.032
_refine_ls_abs_structure_details
;
 Flack x determined using 242 quotients [(I+)-(I-)]/[(I+)+(I-)]
 (Parsons, Flack and Wagner, Acta Cryst. B69 (2013) 249-259).
;
_refine_ls_abs_structure_Flack   -0.9(10)
_refine_ls_extinction_method     none
_refine_ls_goodness_of_fit_ref   0.840
_refine_ls_hydrogen_treatment    constr
_refine_ls_matrix_type           full
_refine_ls_number_parameters     191
_refine_ls_number_reflns         2743
_refine_ls_number_restraints     2
_refine_ls_restrained_S_all      0.840
_refine_ls_R_factor_all          0.1070
_refine_ls_R_factor_gt           0.0484
_refine_ls_shift/su_max          0.000
_refine_ls_shift/su_mean         0.000
_refine_ls_structure_factor_coef Fsqd
_refine_ls_weighting_details
'w=1/[\s^2^(Fo^2^)+(0.0362P)^2^] where P=(Fo^2^+2Fc^2^)/3'
_refine_ls_weighting_scheme      calc
_refine_ls_wR_factor_gt          0.0936
_refine_ls_wR_factor_ref         0.1149
_reflns_Friedel_coverage         0.374
_reflns_Friedel_fraction_full    0.394
_reflns_Friedel_fraction_max     0.371
_reflns_number_gt                1330
_reflns_number_total             2743
_reflns_threshold_expression     'I > 2\s(I)'
_cod_data_source_file            jo8b00077_si_002.cif
_cod_data_source_block           17a
_cod_original_sg_symbol_H-M      'P c'
_cod_database_code               4035842
_shelx_shelxl_version_number     2014/7
_shelx_space_group_comment
;
The symmetry employed for this shelxl refinement is uniquely defined
by the following loop, which should always be used as a source of
symmetry information in preference to the above space-group names.
They are only intended as comments.
;
_shelx_estimated_absorpt_t_min   0.978
_shelx_estimated_absorpt_t_max   0.980
_shelx_hkl_file
;
   3   0   0  517.45    5.53
   3   0   0  534.65    4.80
   4   0   0   81.64    2.54
   4   0   0   80.15    2.18
   5   0   0  463.65    6.72
   6   0   0  147.26    3.93
   6   0   0  150.29    4.19
   7   0   0   10.21    1.19
   7   0   0   10.83    1.14
   8   0   0   93.05    3.65
   8   0   0   94.68    3.85
   9   0   0  110.71    4.26
   9   0   0  115.99    4.58
  10   0   0   36.87    2.58
  10   0   0   37.29    2.79
  11   0   0    9.66    1.40
  11   0   0    9.73    1.63
  12   0   0   36.16    2.87
  12   0   0   40.24    3.52
  13   0   0    0.09    0.28
  13   0   0    0.65    0.39
  14   0   0    4.47    1.17
  14   0   0    4.30    1.17
  15   0   0   -0.08    0.20
  15   0   0   -0.40    0.39
  16   0   0    0.14    0.35
  16   0   0    0.54    0.57
  17   0   0    1.47    0.80
  17   0   0    1.15    0.74
  18   0   0   -0.20    0.29
  18   0   0   -0.13    0.26
  19   0   0   -0.11    0.21
  18   1   0   -0.14    0.16
  17   1   0    0.47    0.49
  16   1   0    0.63    0.64
  16   1   0   -0.08    0.17
  15   1   0   -0.10    0.26
  15   1   0    0.41    0.45
  14   1   0    2.49    0.96
  14   1   0    1.81    0.73
  13   1   0    1.17    0.52
  13   1   0    0.90    0.47
  12   1   0    9.38    1.60
  12   1   0    9.29    1.52
  11   1   0    1.03    0.48
  11   1   0    2.20    0.73
  10   1   0    4.74    1.03
  10   1   0    4.91    1.02
   9   1   0    1.58    0.54
   9   1   0    0.92    0.30
   8   1   0    7.69    1.04
  -8  -1   0    4.37    0.38
   8   1   0    7.30    1.14
   7   1   0   68.85    3.20
  -7  -1   0   59.51    1.63
   7   1   0   64.53    2.74
   6   1   0  147.50    4.31
   6   1   0  141.67    3.74
  -6  -1   0  144.99    2.54
   5   1   0   59.61    2.54
   5   1   0   59.46    2.19
  -5  -1   0   62.12    1.67
  -4  -1   0    8.44    0.62
   4   1   0    7.79    0.82
   4   1   0    7.89    0.68
   3   1   0   70.17    2.25
  -3  -1   0   75.58    1.90
   3   1   0   72.71    1.75
   2   1   0   60.44    1.12
  -2  -1   0   65.61    1.72
   2   1   0   58.87    1.75
   2   1   0   62.92    1.83
   1   1   0    9.17    0.67
   1   1   0   10.68    0.65
  -1  -1   0    8.48    0.54
  -1  -1   0   10.16    0.67
   0  -1   0  218.34    3.15
   0   1   0  208.92    3.23
  -1   1   0    9.71    0.68
   1  -1   0   10.07    0.66
  -1   1   0   11.68    0.64
  -1   1   0    9.25    0.59
   1  -1   0    8.86    0.55
   2  -1   0   63.18    1.67
  -2   1   0   59.17    1.72
   2  -1   0   59.18    1.61
   2  -1   0   57.20    1.76
  -3   1   0   65.61    1.82
   3  -1   0   64.36    2.28
   3  -1   0   66.33    1.77
   4  -1   0    7.72    0.84
   4  -1   0    7.29    0.56
   5  -1   0   48.33    1.19
   5  -1   0   50.75    1.47
   6  -1   0  120.00    2.27
   6  -1   0  119.37    2.30
   7  -1   0   53.16    1.51
   7  -1   0   54.23    1.78
   8  -1   0    3.39    0.32
   8  -1   0    6.67    1.12
   9  -1   0    1.45    0.44
   9  -1   0    1.27    0.48
  10  -1   0    4.72    0.87
  11  -1   0    1.56    0.49
  11  -1   0    2.03    0.77
  12  -1   0    9.93    1.77
  12  -1   0    8.04    1.26
  13  -1   0    0.82    0.28
  13  -1   0    0.66    0.42
  14  -1   0    2.27    0.97
  14  -1   0    2.53    0.84
  15  -1   0   -0.19    0.29
  15  -1   0   -0.38    0.21
  16  -1   0    0.45    0.44
  16  -1   0    0.45    0.53
  17  -1   0   -0.34    0.46
  17  -1   0    0.09    0.21
  18  -1   0    0.05    0.22
  18  -1   0    0.00    0.24
  19  -1   0   -0.11    0.16
  18   2   0    0.07    0.19
  17   2   0   -0.02    0.13
  16   2   0    0.36    0.33
  15   2   0    0.82    0.74
  14   2   0    0.20    0.26
  13   2   0    0.53    0.37
  13   2   0   -0.15    0.04
  12   2   0    0.39    0.28
  12   2   0    0.40    0.27
  11   2   0    6.80    1.46
  11   2   0    3.64    0.84
  10   2   0    1.56    0.57
  10   2   0    1.07    0.42
 -10  -2   0    1.15    0.31
  -9  -2   0    1.96    0.41
   9   2   0    2.98    0.85
   9   2   0    1.54    0.47
   8   2   0    1.74    0.47
  -8  -2   0    1.78    0.41
   8   2   0    2.06    0.68
  -7  -2   0    3.52    0.56
   7   2   0    4.83    0.96
   7   2   0    2.92    0.55
  -6  -2   0   60.18    2.35
   6   2   0   62.92    3.18
   5   2   0    5.37    0.54
   5   2   0    7.22    1.03
  -5  -2   0    6.28    0.77
   4   2   0   18.76    0.82
   4   2   0   26.46    1.84
  -4  -2   0   25.03    1.55
   3   2   0   90.22    3.15
   3   2   0   96.75    3.41
  -3  -2   0   87.95    2.95
   2   2   0    3.76    0.64
   2   2   0    3.20    0.53
  -2  -2   0    3.18    0.54
  -1  -2   0   14.64    0.68
  -1  -2   0   15.46    1.19
   1   2   0   18.01    1.22
   0  -2   0   57.34    1.74
   0  -2   0   58.84    2.33
   0  -2   0   50.26    1.54
   0   2   0   64.46    1.90
   0   2   0   56.05    1.52
  -1   2   0   17.18    0.84
   1  -2   0   14.74    1.15
   1  -2   0   15.24    1.08
   2  -2   0    2.94    0.31
  -2   2   0    3.61    0.51
   2  -2   0    3.24    0.53
   3  -2   0   77.71    2.73
   3  -2   0   72.97    2.62
   4  -2   0   21.09    1.39
   4  -2   0   21.76    1.56
   5  -2   0    6.60    0.94
   5  -2   0    5.84    0.72
   6  -2   0   56.63    2.97
   6  -2   0   48.93    2.09
   7  -2   0    3.07    0.50
   7  -2   0    3.68    0.77
   8  -2   0    2.11    0.63
   8  -2   0    1.34    0.33
   9  -2   0    1.82    0.39
  10  -2   0    1.54    0.50
  10  -2   0    1.09    0.30
  10  -2   0    1.38    0.70
  11  -2   0    5.78    1.37
  11  -2   0    4.11    0.82
  12  -2   0    0.70    0.37
  12  -2   0    0.46    0.50
  13  -2   0    0.21    0.06
  13  -2   0    0.34    0.36
  14  -2   0    0.57    0.64
  14  -2   0    0.60    0.37
  15  -2   0   -0.12    0.18
  16  -2   0    0.31    0.33
  17  -2   0    0.10    0.33
  18  -2   0    0.33    0.54
  17   3   0    0.00    0.49
  16   3   0    0.38    0.34
  15   3   0    1.04    0.64
  14   3   0    0.71    0.55
  14   3   0    2.19    1.00
  13   3   0    0.01    0.31
  13   3   0   -0.21    0.45
  12   3   0    3.84    1.18
  12   3   0    3.91    1.29
  11   3   0    6.98    1.49
  11   3   0    7.31    1.64
 -10  -3   0    1.08    0.39
  10   3   0    0.90    0.44
  10   3   0    1.09    0.56
   9   3   0    1.27    0.33
  -9  -3   0    2.02    0.51
   9   3   0    3.58    0.99
   9   3   0    3.51    1.08
  -8  -3   0    0.76    0.30
   8   3   0    0.63    0.38
   8   3   0    1.29    0.62
   8   3   0    0.20    0.12
  -7  -3   0   11.39    1.26
   7   3   0   15.04    1.92
   7   3   0   15.45    1.90
  -6  -3   0   29.08    2.04
   6   3   0   34.49    2.73
   6   3   0   37.12    2.90
   5   3   0   -0.60    0.34
   5   3   0   -0.35    0.31
  -5  -3   0    0.02    0.14
   4   3   0   20.97    2.00
  -4  -3   0   16.01    1.50
  -3  -3   0   27.40    1.98
   3   3   0   31.02    2.21
  -2  -3   0   26.90    1.98
   2   3   0   27.81    1.97
  -1  -3   0  109.99    2.39
   1   3   0   94.41    1.97
   0  -3   0    0.22    0.16
   0  -3   0   -0.05    0.21
   0   3   0    0.20    0.15
   1  -3   0  122.91    4.26
  -1   3   0  118.34    2.84
   1  -3   0  116.38    3.42
   2  -3   0   26.95    1.84
  -2   3   0   26.14    1.72
   2  -3   0   23.66    1.83
  -3   3   0   25.42    1.66
   3  -3   0   19.70    0.96
   3  -3   0   24.86    1.87
   3  -3   0   26.38    2.01
   4  -3   0   16.40    1.68
   4  -3   0   14.83    1.41
  -5   3   0    0.06    0.06
   5  -3   0    0.00    0.09
   5  -3   0    0.13    0.19
   6  -3   0   30.56    2.64
   6  -3   0   26.02    1.88
   7  -3   0   13.42    1.85
   7  -3   0    9.82    1.16
   8  -3   0    0.50    0.26
   8  -3   0    0.59    0.50
   9  -3   0    2.04    0.54
   9  -3   0    2.79    0.93
  10  -3   0    0.87    0.37
  10  -3   0    0.90    0.51
  10  -3   0    0.42    0.14
  11  -3   0    5.21    1.50
  11  -3   0    3.07    0.66
  12  -3   0    3.00    1.11
  13  -3   0    0.24    0.12
  14  -3   0    1.32    0.84
  15  -3   0    0.20    0.39
  16  -3   0    0.87    0.87
  17  -3   0   -0.55    0.52
  16   4   0    0.21    0.66
  15   4   0    0.19    0.48
  14   4   0    1.48    1.12
  13   4   0    1.65    0.92
  12   4   0    2.24    1.02
  11   4   0    3.90    1.31
  10   4   0    3.66    1.16
 -10  -4   0    2.16    0.65
   9   4   0   23.80    3.03
  -9  -4   0   13.20    1.60
  -8  -4   0    2.00    0.59
   8   4   0    4.47    1.27
   7   4   0   16.62    2.36
  -7  -4   0    9.92    1.39
  -6  -4   0    8.09    1.25
   6   4   0   10.01    1.67
   5   4   0   10.44    1.56
  -5  -4   0    8.58    1.29
   4   4   0   22.11    2.19
  -4  -4   0   18.05    1.88
  -3  -4   0    0.34    0.14
  -2  -4   0    7.98    1.24
  -2  -4   0    5.10    0.48
  -1  -4   0   11.26    1.47
   1   4   0   10.44    1.21
  -1  -4   0   10.14    0.87
   0   4   0   25.63    1.71
   0  -4   0   27.49    2.31
   0  -4   0   24.88    1.56
   1  -4   0   11.13    1.44
   1  -4   0   10.83    1.13
  -2   4   0    6.86    1.01
   2  -4   0    7.56    1.17
   2  -4   0    7.56    1.03
   3  -4   0    0.15    0.10
  -3   4   0    0.29    0.30
   3  -4   0    0.28    0.11
  -4   4   0   17.06    1.58
   4  -4   0   17.99    1.88
   4  -4   0   16.33    1.76
   5  -4   0    7.37    1.17
   5  -4   0    9.40    1.47
   6  -4   0    9.62    1.57
   6  -4   0    6.95    1.15
   7  -4   0   11.68    1.82
   7  -4   0    9.88    1.35
   8  -4   0    2.19    0.62
   8  -4   0    1.74    0.72
   9  -4   0   12.31    1.55
   9  -4   0   16.05    2.33
  10  -4   0    2.62    1.04
  10  -4   0    1.78    0.59
  11  -4   0    2.73    1.04
  12  -4   0    0.94    0.67
  13  -4   0    0.92    0.79
  14  -4   0    0.48    0.51
  15  -4   0   -0.21    0.47
  16  -4   0    0.18    0.47
  14   5   0    1.30    0.99
  13   5   0    0.37    0.53
  12   5   0    0.70    0.63
  11   5   0    0.42    0.39
  10   5   0    0.90    0.63
 -10  -5   0    0.22    0.29
   9   5   0    0.76    0.55
  -9  -5   0    1.01    0.55
  -8  -5   0    0.44    0.36
   8   5   0    1.14    0.60
   7   5   0   10.66    1.86
  -7  -5   0    6.78    1.30
   6   5   0    8.53    1.61
  -6  -5   0    6.66    1.30
  -5  -5   0    5.63    1.17
  -4  -5   0    1.58    0.59
   3   5   0    7.48    1.29
  -3  -5   0    7.74    1.41
   2   5   0    2.20    0.62
  -2  -5   0    2.96    0.87
   1   5   0    5.01    0.92
  -1  -5   0    4.63    0.66
  -1  -5   0    5.82    1.20
   0   5   0    0.39    0.31
   0  -5   0    0.51    0.27
   0  -5   0    0.28    0.24
   1  -5   0    5.42    1.15
   1  -5   0    4.77    0.82
  -2   5   0    2.40    0.71
   2  -5   0    1.59    0.48
   2  -5   0    1.99    0.76
   3  -5   0    6.56    1.12
  -3   5   0    7.49    1.21
   3  -5   0    6.55    1.26
   4  -5   0    2.02    0.57
   4  -5   0    1.81    0.64
  -4   5   0    1.55    0.51
   5  -5   0    5.35    1.13
   5  -5   0    5.06    1.11
   6  -5   0    6.66    1.33
   6  -5   0    5.47    1.13
   7  -5   0    7.49    1.31
   7  -5   0    7.57    1.48
   8  -5   0    1.26    0.55
   8  -5   0    1.14    0.57
   9  -5   0    1.25    0.75
   9  -5   0    0.62    0.42
  10  -5   0   -0.19    0.24
  10  -5   0    0.06    0.16
  11  -5   0    0.62    0.53
  12  -5   0    0.26    0.21
  13  -5   0    0.04    0.34
  14  -5   0   -0.03    0.12
  13   6   0    0.00    0.02
  12   6   0    0.41    0.64
  11   6   0    1.82    1.10
 -10  -6   0    0.26    0.26
  10   6   0    1.94    1.02
  -9  -6   0    0.98    0.54
  -8  -6   0    1.31    0.69
  -7  -6   0    1.27    0.58
  -6  -6   0    0.82    0.47
   6   6   0    0.34    0.29
  -5  -6   0    0.96    0.56
   5   6   0    1.35    0.71
   4   6   0    0.24    0.32
  -4  -6   0   -0.14    0.20
  -3  -6   0    0.07    0.24
   3   6   0    0.05    0.25
   2   6   0    7.16    1.27
  -2  -6   0    7.32    1.45
   1   6   0    3.53    0.80
  -1  -6   0    6.24    1.38
   0  -6   0    1.14    0.60
  -1   6   0    4.15    1.03
   1  -6   0    4.29    1.13
   2  -6   0    7.30    1.47
  -2   6   0    6.62    1.31
   3  -6   0    0.24    0.26
  -3   6   0    0.68    0.42
   3  -6   0    0.08    0.20
   4  -6   0   -0.19    0.22
   4  -6   0    0.04    0.06
  -4   6   0    0.20    0.26
   5  -6   0    0.74    0.45
   5  -6   0    1.20    0.57
   6  -6   0    0.33    0.30
   6  -6   0    0.44    0.34
   7  -6   0    1.43    0.65
   7  -6   0    1.73    0.80
   8  -6   0    0.96    0.53
   8  -6   0    1.15    0.62
   9  -6   0    0.81    0.45
   9  -6   0    0.60    0.48
  10  -6   0    0.71    0.50
  10  -6   0    0.78    0.45
  11  -6   0    0.46    0.60
  12  -6   0    0.31    0.38
  13  -6   0    0.05    0.40
  11   7   0   -0.68    0.63
  10   7   0    0.20    0.30
  -9  -7   0   -0.34    0.33
   9   7   0   -0.53    0.59
  -8  -7   0    0.03    0.12
   8   7   0    0.02    0.36
  -7  -7   0   -0.24    0.36
   7   7   0   -0.47    0.41
  -6  -7   0    0.18    0.35
   6   7   0   -0.18    0.14
  -5  -7   0    0.52    0.53
  -4  -7   0   -0.08    0.18
  -3  -7   0    0.60    0.53
  -2  -7   0    0.74    0.60
  -1  -7   0    0.44    0.39
   0  -7   0    0.24    0.15
   0   7   0    0.05    0.37
  -1   7   0    0.29    0.39
   1  -7   0    0.18    0.17
   2  -7   0    0.41    0.34
   3  -7   0    0.03    0.28
   4  -7   0   -0.25    0.48
   5  -7   0    0.52    0.30
   6  -7   0    0.16    0.21
   7  -7   0    0.23    0.20
   7  -7   0   -0.05    0.21
   8  -7   0   -0.15    0.38
   8  -7   0   -0.11    0.34
   9  -7   0   -0.22    0.32
   9  -7   0   -0.03    0.20
  10  -7   0   -0.04    0.27
  11  -7   0   -0.26    0.40
  -7  -8   0   -0.36    0.40
  -6  -8   0   -0.21    0.18
  -5  -8   0    0.00    0.35
  -4  -8   0    0.27    0.35
  -3  -8   0   -0.02    0.07
  -2  -8   0    0.28    0.43
  -1  -8   0    0.03    0.27
   0  -8   0   -0.24    0.33
   1  -8   0   -0.12    0.32
   2  -8   0    0.01    0.14
   3  -8   0    0.07    0.36
   4  -8   0    0.19    0.27
   5  -8   0    0.11    0.28
   6  -8   0    0.53    0.54
   7  -8   0   -0.48    0.53
   8  -8   0   -0.07    0.23
   9  -8   0    0.00    0.15
   9  -8  -1    0.18    0.43
   8  -8  -1   -0.22    0.38
   7  -8  -1    0.12    0.23
   6  -8  -1    0.34    0.45
   5  -8  -1   -0.11    0.21
   4  -8  -1    0.22    0.29
   3  -8  -1   -0.25    0.39
   2  -8  -1   -0.42    0.56
   1  -8  -1    0.46    0.51
   0   8   1    0.47    0.47
   0  -8  -1    0.16    0.38
   1   8   1   -0.41    0.60
  -1  -8  -1    0.46    0.42
  -2  -8  -1   -0.06    0.11
   2   8   1    0.16    0.35
  -3  -8  -1   -0.19    0.23
  -4  -8  -1   -0.23    0.35
  -5  -8  -1    0.51    0.57
  -6  -8  -1   -0.12    0.26
  11  -7  -1    0.12    0.30
  10  -7  -1   -0.16    0.28
   9  -7  -1   -0.04    0.27
   9  -7  -1   -0.40    0.42
   8  -7  -1    0.01    0.19
   8  -7  -1    0.48    0.52
   7  -7  -1    0.27    0.21
   6  -7  -1    0.07    0.34
   5  -7  -1   -0.07    0.15
   4  -7  -1   -0.63    0.51
  -3   7   1    0.01    0.20
   3  -7  -1    0.18    0.08
  -2   7   1    0.01    0.13
   2  -7  -1   -0.03    0.29
  -1   7   1    0.19    0.40
   1  -7  -1    0.15    0.29
   0   7   1    0.16    0.21
   0  -7  -1    0.25    0.32
  -1  -7  -1    0.89    0.60
  -2  -7  -1   -0.09    0.24
  -3  -7  -1    0.01    0.14
  -4  -7  -1    0.88    0.61
  -5  -7  -1    0.73    0.52
   5   7   1    0.41    0.27
  -6  -7  -1    0.57    0.47
   6   7   1    0.04    0.14
  -7  -7  -1    0.56    0.41
   7   7   1   -0.10    0.21
  -8  -7  -1    0.14    0.16
   8   7   1   -0.58    0.57
   9   7   1    0.10    0.26
  -9  -7  -1   -0.52    0.49
  10   7   1   -0.09    0.22
  11   7   1   -0.28    0.48
  13  -6  -1    0.00    0.25
  12  -6  -1    0.02    0.32
  11  -6  -1    0.26    0.29
  10  -6  -1    0.69    0.60
  10  -6  -1    0.18    0.21
   9  -6  -1    0.04    0.20
   9  -6  -1    0.06    0.08
   8  -6  -1    0.08    0.11
   8  -6  -1   -0.15    0.23
   7  -6  -1    1.29    0.65
   7  -6  -1    1.58    0.69
   6  -6  -1    2.23    0.81
   6  -6  -1    2.76    0.88
   5  -6  -1    0.67    0.53
   5  -6  -1    0.12    0.08
   4  -6  -1    1.69    0.64
  -4   6   1    1.59    0.57
   4  -6  -1    1.54    0.63
  -3   6   1    0.53    0.42
   3  -6  -1    0.56    0.55
   3  -6  -1    0.08    0.06
  -2   6   1    1.20    0.54
   2  -6  -1    1.51    0.80
  -1   6   1    3.09    0.93
   1  -6  -1    2.47    0.84
   0  -6  -1    0.33    0.43
  -1  -6  -1    2.30    0.90
   1   6   1    1.93    0.63
  -2  -6  -1    9.40    1.78
   2   6   1    6.61    1.26
   3   6   1    1.88    0.70
  -3  -6  -1    1.78    0.71
  -4  -6  -1    0.44    0.43
   4   6   1    0.15    0.14
  -5  -6  -1    1.73    0.82
   5   6   1    0.47    0.13
  -6  -6  -1    1.15    0.52
   6   6   1    1.07    0.62
   7   6   1    2.68    1.03
  -7  -6  -1    1.50    0.70
  -8  -6  -1    0.67    0.44
   8   6   1    0.13    0.28
  -9  -6  -1    0.00    0.12
   9   6   1    0.66    0.68
  10   6   1    0.28    0.49
  11   6   1    0.23    0.13
  12   6   1    0.72    0.65
  13   6   1   -0.91    0.70
  15  -5  -1    0.03    0.39
  14  -5  -1    0.49    0.57
  13  -5  -1    0.42    0.56
  12  -5  -1    0.26    0.40
  11  -5  -1    0.81    0.69
  10  -5  -1    0.51    0.46
  10  -5  -1    0.41    0.33
   9  -5  -1    0.20    0.19
   9  -5  -1    0.66    0.61
   8  -5  -1    3.93    1.02
   8  -5  -1    5.16    1.38
   7  -5  -1    4.83    1.33
   7  -5  -1    3.93    1.00
   6  -5  -1    1.73    0.73
   6  -5  -1    1.26    0.62
   5  -5  -1    7.89    1.38
   5  -5  -1    9.29    1.61
  -4   5   1    1.03    0.51
   4  -5  -1    0.79    0.42
   4  -5  -1    0.73    0.49
   3  -5  -1    3.86    0.89
  -3   5   1    3.81    0.91
   3  -5  -1    3.71    1.00
   2  -5  -1    7.81    1.15
  -2   5   1    8.69    1.40
   2  -5  -1    9.25    1.61
   1  -5  -1    0.16    0.14
  -1   5   1    0.21    0.33
   1  -5  -1    0.45    0.43
   0  -5  -1   10.95    1.10
   0  -5  -1   16.18    2.14
   0   5   1   13.93    1.51
  -1  -5  -1    7.56    1.46
   1   5   1    7.32    1.19
   2   5   1   17.66    1.90
  -2  -5  -1   21.27    2.41
  -3  -5  -1    9.04    1.55
   3   5   1    7.67    1.37
  -4  -5  -1    4.06    1.03
   4   5   1    4.84    1.08
   5   5   1    1.07    0.58
  -5  -5  -1    1.08    0.55
  -6  -5  -1    1.24    0.55
  -7  -5  -1    3.56    0.97
  -8  -5  -1    0.67    0.42
   8   5   1    1.59    0.80
  -9  -5  -1    3.08    0.87
   9   5   1    3.28    1.10
 -10  -5  -1    0.04    0.14
  10   5   1   -0.04    0.52
  11   5   1   -0.12    0.04
  12   5   1    0.44    0.54
  13   5   1    0.39    0.64
  14   5   1    0.74    0.91
  16  -4  -1    0.91    0.73
  15  -4  -1   -0.36    0.50
  14  -4  -1   -0.48    0.60
  13  -4  -1   -0.02    0.30
  12  -4  -1    0.60    0.71
  11  -4  -1    0.58    0.57
  10  -4  -1    3.57    1.16
  10  -4  -1    2.83    0.72
   9  -4  -1    0.56    0.34
   8  -4  -1    2.84    0.76
   7  -4  -1    1.10    0.50
   6  -4  -1    0.58    0.36
   6  -4  -1    0.40    0.21
   5  -4  -1    7.82    1.26
  -4   4   1   -0.21    0.26
   4  -4  -1    0.05    0.09
   3  -4  -1    3.49    0.82
  -3   4   1    4.27    0.87
   2  -4  -1    7.86    1.24
  -2   4   1    7.77    1.21
   1  -4  -1   32.31    2.05
   1  -4  -1   33.23    2.61
   0  -4  -1   21.46    2.11
   0  -4  -1   19.55    1.40
   0   4   1   20.09    1.65
   1   4   1    3.88    0.77
  -1  -4  -1    3.96    0.91
  -1  -4  -1    2.67    0.40
  -2  -4  -1    0.90    0.41
   2   4   1    0.72    0.38
  -2  -4  -1    0.32    0.09
  -3  -4  -1    0.91    0.52
   3   4   1    0.69    0.43
  -4  -4  -1    3.48    0.87
  -5  -4  -1    1.45    0.54
   5   4   1    2.10    0.73
   6   4   1    3.59    1.03
  -6  -4  -1    3.71    0.94
   7   4   1   11.21    1.76
  -7  -4  -1   10.25    1.46
   8   4   1    2.63    0.87
  -8  -4  -1    2.62    0.74
   9   4   1    2.35    0.95
  -9  -4  -1    1.35    0.49
  10   4   1   -0.17    0.37
 -10  -4  -1    0.12    0.17
  11   4   1    0.24    0.51
  12   4   1    1.35    0.92
  13   4   1    1.16    0.72
  14   4   1    0.56    0.59
  15   4   1    0.66    0.64
  16   4   1   -0.58    0.77
  17  -3  -1   -0.38    0.70
  16  -3  -1    0.04    0.56
  15  -3  -1    0.48    0.58
  14  -3  -1    0.81    0.60
  13  -3  -1    3.26    1.23
  11  -3  -1    0.08    0.36
  10  -3  -1    6.67    1.31
  10  -3  -1    4.18    0.75
   9  -3  -1    3.11    0.76
   9  -3  -1    2.59    0.59
   8  -3  -1    1.11    0.48
   8  -3  -1    0.33    0.15
  -7   3   1    1.73    0.25
   7  -3  -1    2.81    0.62
   7  -3  -1    2.68    0.78
  -6   3   1    7.95    0.68
   6  -3  -1    8.97    1.16
   6  -3  -1   10.03    1.37
   5  -3  -1   33.41    2.31
   5  -3  -1   30.68    2.16
   4  -3  -1   47.24    2.71
   4  -3  -1   45.66    2.52
   3  -3  -1    0.08    0.08
   3  -3  -1    0.42    0.35
  -3   3   1    0.16    0.27
   2  -3  -1   13.72    1.44
  -2   3   1   12.86    1.30
   2  -3  -1   13.11    1.11
   1  -3  -1   10.09    0.85
   1  -3  -1   12.80    1.43
   0   3   1    2.13    0.46
   0  -3  -1    3.16    0.74
   0  -3  -1    2.25    0.33
   1   3   1    5.53    0.82
  -1  -3  -1    5.77    0.96
   2   3   1   24.04    1.84
  -2  -3  -1   24.58    1.99
  -3  -3  -1    8.27    1.12
   4   3   1   36.26    2.58
  -4  -3  -1   33.18    2.26
   5   3   1   20.11    2.07
  -5  -3  -1   18.37    1.70
   6   3   1    0.24    0.18
  -6  -3  -1    0.70    0.37
   7   3   1   31.99    2.96
  -7  -3  -1   24.90    2.03
   8   3   1   14.46    1.02
  -8  -3  -1   25.21    1.96
   9   3   1    2.17    0.72
  -9  -3  -1    1.27    0.41
 -10  -3  -1    1.62    0.46
  10   3   1    3.56    1.13
  11   3   1    5.61    1.35
  12   3   1    1.18    0.64
  13   3   1    2.83    1.02
  14   3   1    3.22    1.25
  15   3   1    0.61    0.58
  16   3   1    0.60    0.64
  17   3   1   -0.70    0.37
  18  -2  -1    0.07    0.37
  17  -2  -1    0.93    0.72
  16  -2  -1   -0.14    0.22
  16  -2  -1   -0.34    0.41
  15  -2  -1   -0.05    0.04
  15  -2  -1    0.67    0.48
  14  -2  -1    1.25    0.59
  14  -2  -1    0.57    0.42
  13  -2  -1   -0.07    0.29
  13  -2  -1    0.72    0.40
  12  -2  -1   20.72    2.51
  11  -2  -1   24.48    2.56
  10  -2  -1    2.40    0.43
  10  -2  -1    4.38    0.97
   9  -2  -1   11.78    1.68
   9  -2  -1    8.04    0.86
  -8   2   1    0.64    0.14
   8  -2  -1    1.60    0.55
   8  -2  -1    1.26    0.37
  -7   2   1   15.80    0.77
   7  -2  -1   20.71    1.44
   6  -2  -1   14.95    1.24
  -6   2   1   14.35    0.78
   5  -2  -1   43.94    2.20
   5  -2  -1   48.99    2.78
  -5   2   1   45.47    1.50
   4  -2  -1    1.80    0.47
   4  -2  -1    1.75    0.40
  -3   2   1  141.93    3.76
   3  -2  -1  130.45    3.64
   3  -2  -1  134.61    3.88
   2  -2  -1   76.55    2.50
  -2   2   1   85.39    2.89
   2  -2  -1   81.79    3.01
   1  -2  -1   58.49    2.54
   1  -2  -1   54.03    1.77
   0  -2  -1   17.00    0.84
   0   2   1   18.08    1.19
  -1  -2  -1  196.84    4.72
   1   2   1  191.09    4.26
   2   2   1   28.08    1.75
  -2  -2  -1   28.79    1.81
   3   2   1   44.84    2.40
  -3  -2  -1   44.86    2.25
  -4  -2  -1    6.78    0.58
   4   2   1   10.39    1.29
  -4  -2  -1    9.75    1.05
   4   2   1    6.62    0.49
  -5  -2  -1    6.12    0.81
   5   2   1    6.38    1.10
   5   2   1    4.62    0.51
  -6  -2  -1    2.90    0.54
   6   2   1    2.48    0.43
   6   2   1    3.42    0.77
  -7  -2  -1   11.04    1.06
   7   2   1   12.71    1.59
   7   2   1   12.18    1.56
   7   2   1    9.01    0.95
  -8  -2  -1    3.01    0.53
   8   2   1    4.02    0.92
   8   2   1    2.36    0.56
   8   2   1    3.26    0.85
  -9  -2  -1    2.22    0.44
   9   2   1    3.24    0.85
   9   2   1    1.95    0.52
  10   2   1    7.82    1.42
  10   2   1    4.38    0.85
  11   2   1    4.95    1.22
  11   2   1    3.77    0.84
  12   2   1    2.32    0.68
  13   2   1    0.36    0.25
  13   2   1    1.10    0.61
  14   2   1    2.26    0.89
  15   2   1    0.89    0.56
  16   2   1    0.66    0.54
  17   2   1   -0.34    0.40
  18   2   1   -0.33    0.41
  19  -1  -1   -0.38    0.58
  19  -1  -1    0.00    0.14
  18  -1  -1   -0.18    0.16
  18  -1  -1    0.36    0.45
  17  -1  -1   -0.07    0.20
  17  -1  -1    0.40    0.49
  16  -1  -1   -0.84    0.79
  16  -1  -1    0.09    0.13
  15  -1  -1    0.68    0.49
  15  -1  -1    0.68    0.65
  14  -1  -1    1.36    0.56
  14  -1  -1    1.43    0.63
  13  -1  -1    3.20    1.01
  13  -1  -1    3.14    0.91
  12  -1  -1    7.04    1.35
  11  -1  -1    6.57    1.29
  10  -1  -1    2.12    0.69
   9  -1  -1   10.51    0.59
   9  -1  -1   28.80    2.52
   8  -1  -1    2.46    0.33
  -8   1   1    3.12    0.46
  -7   1   1    2.64    0.41
   7  -1  -1    2.42    0.37
   6  -1  -1  128.43    3.10
  -6   1   1  136.74    2.76
   5  -1  -1   15.72    1.43
  -5   1   1   15.39    0.87
   5  -1  -1   13.01    0.88
  -4   1   1    9.49    0.66
   4  -1  -1    8.21    0.92
   3  -1  -1   96.99    2.95
  -3   1   1  104.94    2.12
  -2   1   1  183.10    3.44
  -1   1   1  356.95    4.66
   0   1   1 1000.00    7.18
   0  -1  -1  924.43    7.24
  -1  -1  -1  340.73    3.26
   1   1   1  336.86    4.60
   2   1   1   26.24    1.39
   2   1   1   25.55    0.93
  -2  -1  -1   22.54    0.91
   3   1   1   34.35    1.29
  -3  -1  -1   30.38    1.31
   3   1   1   35.37    1.77
   4   1   1   54.96    2.39
   4   1   1   50.97    1.82
   5   1   1   32.73    1.69
   5   1   1   37.00    2.13
   6   1   1   20.10    1.72
   6   1   1   16.66    1.34
  -6  -1  -1   19.78    1.11
   7   1   1    3.35    0.73
  -7  -1  -1    2.99    0.39
   7   1   1    2.77    0.57
  -8  -1  -1    2.05    0.29
   8   1   1    2.64    0.63
   9   1   1   26.31    2.11
   9   1   1   29.82    2.50
  10   1   1    1.87    0.64
  10   1   1    1.59    0.57
  11   1   1   32.13    2.89
  11   1   1   25.69    2.40
  12   1   1    0.06    0.16
  12   1   1    0.22    0.25
  13   1   1    2.12    0.84
  13   1   1    1.30    0.59
  14   1   1    1.11    0.61
  14   1   1    1.47    0.68
  15   1   1    0.10    0.17
  16   1   1    0.41    0.44
  18   1   1   -0.40    0.39
  19   1   1   -0.14    0.25
  19   0  -1   -0.34    0.48
  19   0  -1    0.10    0.16
  18   0  -1    0.02    0.16
  18   0  -1   -0.09    0.30
  17   0  -1    0.08    0.39
  17   0  -1   -0.30    0.33
  16   0  -1    0.69    0.63
  16   0  -1    0.63    0.56
  15   0  -1   -0.83    0.51
  15   0  -1    0.79    0.52
  14   0  -1    0.23    0.32
  14   0  -1    0.26    0.11
  13   0  -1   -0.19    0.29
  13   0  -1    0.06    0.27
  12   0  -1   -0.16    0.31
  12   0  -1   -0.15    0.32
  11   0  -1   -0.07    0.25
  11   0  -1   -0.05    0.37
  10   0  -1    0.35    0.37
   9   0  -1    0.52    0.37
   8   0  -1    0.52    0.41
   7   0  -1    0.23    0.18
  -7   0   1   -0.22    0.15
   6   0  -1   -0.31    0.20
   6   0  -1   -0.10    0.06
  -6   0   1   -0.20    0.13
   5   0  -1    0.05    0.15
   5   0  -1   -0.05    0.01
  -5   0   1    0.07    0.07
  -4   0   1    0.09    0.13
  -3   0   1    0.05    0.03
   3   0  -1   -0.03    0.07
  -2   0   1    0.26    0.14
  -1   0  -1    0.59    0.13
  -2   0  -1   -0.10    0.05
  -2   0  -1    0.06    0.01
   3   0   1   -0.04    0.04
   3   0   1    0.15    0.16
   4   0   1    0.02    0.04
   4   0   1    0.15    0.14
   5   0   1   -0.22    0.22
   5   0   1    0.02    0.14
  -5   0  -1    0.16    0.08
   6   0   1   -0.01    0.15
   6   0   1   -0.02    0.02
  -6   0  -1    0.01    0.03
   7   0   1    0.32    0.26
   7   0   1    0.03    0.20
   8   0   1   -0.02    0.15
   8   0   1    0.39    0.29
   9   0   1   -0.38    0.26
   9   0   1   -0.18    0.29
  10   0   1    0.10    0.23
  10   0   1   -0.17    0.32
  11   0   1    0.22    0.28
  11   0   1   -0.23    0.15
  12   0   1    0.41    0.19
  12   0   1   -0.57    0.45
  13   0   1    0.21    0.30
  13   0   1   -0.26    0.26
  14   0   1   -0.64    0.39
  14   0   1   -0.21    0.31
  15   0   1   -0.14    0.21
  15   0   1   -0.58    0.54
  16   0   1    0.09    0.08
  17   0   1    0.22    0.36
  18   0   1   -0.27    0.37
  19   1  -1   -0.44    0.65
  18   1  -1   -0.02    0.10
  17   1  -1    0.62    0.48
  17   1  -1   -0.05    0.17
  16   1  -1    0.28    0.46
  16   1  -1   -0.77    0.57
  15   1  -1    1.73    0.83
  15   1  -1    1.11    0.70
  14   1  -1    1.17    0.67
  14   1  -1    1.89    0.76
  13   1  -1    2.24    0.76
  13   1  -1    4.07    1.11
  12   1  -1    6.09    1.32
  12   1  -1    5.64    1.19
  11   1  -1    7.79    1.36
  11   1  -1    6.33    1.23
  10   1  -1    1.90    0.63
  10   1  -1    1.87    0.68
   9   1  -1   26.95    2.27
   9   1  -1   27.34    2.39
   8   1  -1    2.24    0.35
   8   1  -1    4.89    0.87
   7   1  -1    1.81    0.32
   7   1  -1    3.37    0.70
   6   1  -1  154.93    4.16
  -6  -1   1  153.20    2.98
   5   1  -1   15.65    1.23
  -5  -1   1   15.70    1.32
  -5  -1   1   16.36    1.00
  -4  -1   1    9.59    0.78
  -4  -1   1    9.48    0.97
  -3  -1   1  105.59    3.01
  -3  -1   1  110.33    2.65
  -2  -1   1  170.59    3.50
  -2  -1   1  171.49    3.28
   2   1  -1  170.25    2.78
  -1  -1   1  321.39    4.38
  -1  -1   1  320.19    4.35
   1   1  -1  318.36    3.78
  -1  -1   1  323.39    3.70
   1   1  -1  314.08    4.62
   0   1  -1  946.55    7.09
   0   1  -1  862.76    6.83
   0  -1   1  951.70    7.56
   0  -1   1  882.16    6.67
   0  -1   1  981.91    6.87
   1  -1   1  345.01    3.64
   1  -1   1  337.64    4.55
   2  -1   1   24.57    0.85
  -2   1  -1   26.06    0.88
   2  -1   1   21.95    1.30
  -2   1  -1   20.51    0.64
   2  -1   1   23.94    1.22
   3  -1   1   29.03    1.69
   3  -1   1   29.04    1.02
   3  -1   1   28.86    0.86
   3  -1   1   31.29    1.41
   4  -1   1   44.43    1.49
   4  -1   1   48.47    2.39
   4  -1   1   49.55    1.75
   5  -1   1   30.16    1.34
  -5   1  -1   29.47    1.29
   5  -1   1   28.12    1.34
   5  -1   1   33.43    2.16
  -6   1  -1   13.84    0.85
   6  -1   1   14.77    1.07
   6  -1   1   13.12    0.75
   7  -1   1    3.60    0.83
   7  -1   1    2.27    0.35
   7  -1   1    3.52    0.57
  -7   1  -1    2.51    0.36
   8  -1   1    3.16    0.77
   8  -1   1    3.14    0.62
   9  -1   1   23.98    1.79
   9  -1   1   27.98    2.54
  10  -1   1    1.77    0.72
  10  -1   1    2.09    0.56
  11  -1   1   27.94    2.22
  11  -1   1   29.86    2.85
  12  -1   1    0.24    0.25
  12  -1   1    0.24    0.20
  13  -1   1    1.43    0.64
  13  -1   1    1.18    0.56
  14  -1   1    1.08    0.60
  14  -1   1    0.92    0.49
  15  -1   1    0.08    0.23
  15  -1   1    0.26    0.44
  16  -1   1    0.42    0.44
  17  -1   1    0.28    0.29
  18  -1   1    0.00    0.40
  19  -1   1   -0.15    0.08
  18   2  -1   -0.24    0.36
  17   2  -1    1.13    0.82
  16   2  -1    0.44    0.56
  15   2  -1   -0.10    0.26
  14   2  -1    0.76    0.48
  14   2  -1    0.63    0.57
  13   2  -1    0.90    0.57
  13   2  -1    0.52    0.38
  12   2  -1   17.12    2.02
  12   2  -1   20.67    2.57
  11   2  -1   28.95    2.88
  11   2  -1   20.91    2.06
  10   2  -1    5.78    1.24
 -10  -2   1    3.70    0.59
  10   2  -1    3.78    0.83
  -9  -2   1    9.09    0.96
   9   2  -1   11.66    1.38
   9   2  -1   13.20    1.75
  -8  -2   1    1.17    0.34
   8   2  -1    1.52    0.45
   8   2  -1    0.98    0.47
   7   2  -1   27.79    2.30
  -7  -2   1   25.95    1.66
   7   2  -1   24.33    1.68
  -6  -2   1   17.20    1.33
   6   2  -1   17.53    1.72
   6   2  -1   15.00    1.19
   5   2  -1   50.15    2.65
  -5  -2   1   50.74    2.26
   4   2  -1    1.61    0.31
   4   2  -1    2.08    0.50
  -4  -2   1    2.10    0.43
  -3  -2   1  130.37    3.52
   3   2  -1  138.44    3.66
   3   2  -1  127.84    2.57
  -3  -2   1  127.02    3.80
   2   2  -1   73.49    2.00
   2   2  -1   74.86    2.37
  -2  -2   1   77.53    2.77
  -2  -2   1   73.16    2.64
  -2  -2   1   77.31    1.94
   1   2  -1   48.68    1.74
   1   2  -1   51.92    1.67
  -1  -2   1   52.19    1.69
  -1  -2   1   52.60    2.21
  -1  -2   1   55.13    2.22
   0  -2   1   16.02    1.06
   0  -2   1   16.12    1.20
   0  -2   1   16.06    1.09
   0   2  -1   16.96    0.77
   1  -2   1  159.48    3.85
   1  -2   1  165.24    3.72
   1  -2   1  152.42    2.63
   1  -2   1  162.30    3.19
   2  -2   1   23.44    1.55
   2  -2   1   22.24    1.43
  -2   2  -1   26.03    1.10
  -2   2  -1   23.32    1.16
   3  -2   1   36.81    2.12
   3  -2   1   35.28    1.84
  -3   2  -1   37.67    1.28
   4  -2   1    8.35    1.08
   4  -2   1    7.59    0.85
   4  -2   1    6.23    0.42
   5  -2   1    4.62    0.66
   5  -2   1    3.87    0.39
   5  -2   1    4.43    0.90
   6  -2   1    2.17    0.33
   6  -2   1    2.50    0.66
   6  -2   1    2.44    0.50
   7  -2   1    8.39    0.78
   7  -2   1   10.47    1.48
   7  -2   1    9.97    1.02
   8  -2   1    3.07    0.82
   8  -2   1    2.52    0.47
   8  -2   1    3.17    0.56
   9  -2   1    2.27    0.52
   9  -2   1    2.38    0.48
   9  -2   1    3.19    0.93
  10  -2   1    6.60    1.36
  10  -2   1    5.54    0.85
  11  -2   1    4.84    1.19
  11  -2   1    4.42    0.85
  12  -2   1    3.10    1.02
  12  -2   1    3.03    0.75
  13  -2   1    0.77    0.27
  13  -2   1    0.17    0.25
  14  -2   1    1.20    0.69
  15  -2   1    0.90    0.75
  16  -2   1   -0.20    0.29
  17  -2   1    0.39    0.46
  18  -2   1    0.31    0.55
  17   3  -1    0.52    0.44
  16   3  -1   -0.05    0.52
  15   3  -1    0.13    0.69
  14   3  -1   -1.00    0.79
  13   3  -1    3.03    1.24
  12   3  -1   -0.08    0.46
  11   3  -1    0.02    0.38
  10   3  -1    4.95    0.85
  10   3  -1    6.98    1.47
 -10  -3   1    5.12    0.88
  -9  -3   1    2.68    0.61
   9   3  -1    3.81    1.00
   9   3  -1    2.20    0.53
   8   3  -1    0.41    0.19
  -8  -3   1    0.33    0.18
   7   3  -1    3.81    0.90
   7   3  -1    2.17    0.45
  -7  -3   1    2.35    0.57
   6   3  -1   10.66    1.43
   6   3  -1    7.63    0.73
  -6  -3   1   10.34    1.22
   5   3  -1   37.16    2.49
  -5  -3   1   33.22    2.16
   4   3  -1   50.39    2.70
  -4  -3   1   46.04    2.52
   3   3  -1    0.26    0.15
   3   3  -1    0.01    0.07
   3   3  -1   -0.07    0.19
  -3  -3   1    0.18    0.15
  -2  -3   1   13.21    0.90
   2   3  -1   14.40    1.27
   2   3  -1   15.64    1.48
   2   3  -1   10.63    0.89
  -2  -3   1   12.41    1.29
  -1  -3   1   11.13    0.92
   1   3  -1   11.31    1.13
  -1  -3   1   10.62    1.18
   0  -3   1    2.69    0.58
   0  -3   1    2.44    0.46
  -1   3  -1    4.29    0.41
   1  -3   1    4.58    0.78
   1  -3   1    4.93    0.71
   2  -3   1   19.47    1.64
   2  -3   1   20.60    1.61
  -2   3  -1   23.60    1.43
  -3   3  -1    6.65    0.72
   3  -3   1    6.02    0.87
   3  -3   1    6.89    0.98
  -4   3  -1   21.72    1.14
   4  -3   1   25.44    1.87
   4  -3   1   29.04    2.17
   5  -3   1   15.13    1.44
   5  -3   1   17.07    1.79
   6  -3   1    0.33    0.28
   6  -3   1    0.30    0.11
   6  -3   1    0.31    0.24
   7  -3   1   22.23    1.82
   7  -3   1   24.00    2.41
   8  -3   1   17.65    1.14
   8  -3   1   25.43    2.64
   8  -3   1   22.79    1.87
   9  -3   1    1.85    0.73
   9  -3   1    0.86    0.23
   9  -3   1    1.30    0.41
  10  -3   1    2.58    0.87
  10  -3   1    1.61    0.47
  11  -3   1    4.01    1.16
  12  -3   1    1.89    0.87
  13  -3   1    2.58    1.02
  14  -3   1    2.48    1.10
  15  -3   1    0.59    0.62
  16  -3   1   -0.71    0.70
  17  -3   1    0.03    0.08
  16   4  -1   -0.29    0.42
  15   4  -1    1.28    1.03
  15   4  -1   -0.54    0.55
  14   4  -1    0.00    0.37
  14   4  -1    0.82    0.73
  13   4  -1   -0.38    0.57
  13   4  -1    0.28    0.51
  12   4  -1    0.27    0.48
  12   4  -1    0.87    0.87
  11   4  -1    1.49    0.78
  11   4  -1    0.70    0.57
  10   4  -1    4.23    1.26
 -10  -4   1    3.90    0.90
  10   4  -1    5.47    1.50
   9   4  -1    1.83    0.79
  -9  -4   1    0.92    0.38
   9   4  -1    0.77    0.36
   8   4  -1    3.75    1.09
  -8  -4   1    3.24    0.80
   8   4  -1    3.85    1.16
   7   4  -1    1.32    0.37
   7   4  -1    1.91    0.73
  -7  -4   1    1.22    0.50
   6   4  -1    1.22    0.49
  -6  -4   1    0.60    0.37
   6   4  -1    1.11    0.34
   5   4  -1    9.52    1.41
   5   4  -1   11.39    1.74
  -5  -4   1    8.87    1.26
   4   4  -1    0.92    0.49
  -4  -4   1    0.25    0.27
   3   4  -1    5.02    0.98
  -3  -4   1    3.46    0.77
  -2  -4   1    7.23    1.12
  -2  -4   1    7.49    0.76
  -1  -4   1   30.03    1.71
  -1  -4   1   29.32    2.32
   0  -4   1   18.56    1.48
   0   4  -1   19.68    1.35
   0  -4   1   19.66    1.92
  -1   4  -1    3.61    0.48
   1  -4   1    3.98    0.85
   1  -4   1    3.67    0.70
   2  -4   1    0.93    0.35
  -2   4  -1    0.66    0.25
   2  -4   1    0.78    0.34
   3  -4   1    0.27    0.18
  -3   4  -1    0.62    0.27
   3  -4   1    0.79    0.39
   4  -4   1    3.14    0.74
   4  -4   1    3.50    0.84
   5  -4   1    1.75    0.62
   5  -4   1    1.99    0.73
   6  -4   1    3.52    0.80
   6  -4   1    3.30    0.88
   7  -4   1    8.14    1.27
   7  -4   1   10.25    1.61
   8  -4   1    1.99    0.64
   8  -4   1    2.02    0.77
   9  -4   1    1.58    0.59
   9  -4   1    1.99    0.74
  10  -4   1    0.19    0.21
  10  -4   1    0.16    0.37
  11  -4   1    0.45    0.56
  12  -4   1    1.12    0.72
  13  -4   1    0.49    0.55
  14  -4   1    0.00    0.47
  15  -4   1   -0.26    0.41
  16  -4   1   -0.28    0.58
  15   5  -1   -0.62    0.66
  14   5  -1    0.43    0.77
  13   5  -1    0.08    0.30
  12   5  -1    1.39    0.82
  11   5  -1    1.35    1.02
 -10  -5   1   -0.04    0.19
  10   5  -1    0.81    0.53
  -9  -5   1    0.98    0.55
   9   5  -1    0.31    0.14
   8   5  -1    7.65    1.69
  -8  -5   1    4.33    1.04
  -7  -5   1    4.23    1.04
   7   5  -1    5.89    1.42
  -6  -5   1    2.07    0.69
   6   5  -1    2.30    0.88
   5   5  -1    9.27    1.64
  -5  -5   1    7.06    1.29
  -4  -5   1    0.65    0.33
  -3  -5   1    4.19    0.95
   2   5  -1    7.68    1.15
  -2  -5   1    7.62    1.36
  -1  -5   1    0.38    0.41
   1   5  -1    0.08    0.04
  -1  -5   1    0.32    0.20
   0   5  -1   12.79    1.20
   0  -5   1   13.96    1.81
   0  -5   1   13.10    1.36
   1  -5   1    6.72    1.04
   1  -5   1    6.63    1.24
   2  -5   1   16.60    1.73
   2  -5   1   16.43    1.95
  -2   5  -1   17.08    1.77
  -3   5  -1    6.51    1.01
   3  -5   1    7.50    1.23
   3  -5   1    7.26    1.29
   4  -5   1    3.85    0.93
   4  -5   1    3.43    0.85
   5  -5   1    0.77    0.49
   5  -5   1    0.50    0.28
   6  -5   1    2.18    0.78
   6  -5   1    1.21    0.55
   7  -5   1    3.58    0.99
   7  -5   1    3.59    0.93
   8  -5   1    0.96    0.53
   8  -5   1    1.11    0.51
   9  -5   1    2.54    0.78
   9  -5   1    3.47    1.12
  10  -5   1   -0.17    0.17
  10  -5   1    0.04    0.12
  11  -5   1   -0.26    0.47
  12  -5   1    0.69    0.47
  13  -5   1    0.63    0.49
  14  -5   1    0.74    0.68
  13   6  -1    0.08    0.34
  12   6  -1   -1.18    0.88
  11   6  -1   -0.65    0.60
 -10  -6   1    0.20    0.33
  10   6  -1    1.07    0.80
   9   6  -1   -0.25    0.40
  -9  -6   1    0.43    0.36
  -8  -6   1    0.40    0.44
   8   6  -1    0.65    0.57
  -7  -6   1    1.77    0.75
  -6  -6   1    2.52    0.86
  -5  -6   1    0.12    0.33
   4   6  -1    2.06    0.72
  -4  -6   1    1.61    0.69
   3   6  -1   -0.06    0.08
  -3  -6   1    0.49    0.38
  -2  -6   1    1.50    0.62
  -1  -6   1    2.89    0.86
   0  -6   1    0.35    0.22
   1  -6   1    1.79    0.62
  -1   6  -1    1.89    0.70
   2  -6   1    8.13    1.49
   2  -6   1    7.61    1.28
  -2   6  -1    7.30    1.28
   3  -6   1    1.98    0.77
   3  -6   1    1.72    0.64
   4  -6   1    0.23    0.22
   4  -6   1    0.68    0.47
   5  -6   1    1.39    0.64
   5  -6   1    0.86    0.49
   6  -6   1    0.71    0.34
   6  -6   1    1.00    0.53
   7  -6   1    1.37    0.58
   7  -6   1    1.39    0.66
   8  -6   1    0.50    0.42
   8  -6   1   -0.21    0.41
   9  -6   1    0.41    0.32
   9  -6   1   -0.26    0.31
  10  -6   1    0.16    0.07
  11  -6   1   -0.54    0.54
  12  -6   1    0.41    0.33
 -10  -7   1    0.04    0.13
  -9  -7   1   -0.23    0.26
  -8  -7   1    0.05    0.19
   8   7  -1    0.41    0.44
  -7  -7   1   -0.35    0.49
  -6  -7   1    0.12    0.34
  -5  -7   1    0.29    0.48
  -4  -7   1   -0.49    0.41
  -3  -7   1    0.41    0.18
  -2  -7   1    0.77    0.50
  -1  -7   1    0.27    0.41
   0  -7   1    0.42    0.43
   1  -7   1    0.98    0.59
   2  -7   1    0.56    0.45
   3  -7   1    0.40    0.30
   4  -7   1    0.42    0.41
   5  -7   1    0.33    0.37
   6  -7   1   -0.25    0.20
   6  -7   1    0.04    0.16
   7  -7   1   -0.20    0.33
   7  -7   1   -0.05    0.20
   8  -7   1    0.10    0.23
   8  -7   1    0.08    0.02
   9  -7   1   -0.11    0.29
   9  -7   1    0.30    0.35
  10  -7   1    0.41    0.47
  11  -7   1    0.62    0.59
  -7  -8   1   -0.07    0.18
  -6  -8   1   -0.17    0.30
  -5  -8   1   -0.46    0.54
  -4  -8   1    0.15    0.28
  -3  -8   1    0.23    0.14
  -2  -8   1   -0.42    0.57
  -1  -8   1    0.16    0.21
   0  -8   1   -0.28    0.48
   1  -8   1    0.34    0.20
   2  -8   1    0.64    0.51
   3  -8   1   -0.21    0.39
   4  -8   1   -0.22    0.10
   5  -8   1    0.05    0.07
   6  -8   1    0.17    0.43
   7  -8   1   -0.21    0.30
   8  -8   1    0.20    0.46
   8  -8  -2    0.15    0.17
   7  -8  -2   -0.15    0.15
   6  -8  -2    0.07    0.17
   5  -8  -2    0.30    0.37
   4  -8  -2    0.42    0.45
   3  -8  -2    0.00    0.34
  -2   8   2    0.23    0.26
   2  -8  -2    0.51    0.38
   1  -8  -2    0.16    0.41
  -1   8   2    0.32    0.41
   0   8   2   -0.05    0.29
   0  -8  -2    0.05    0.38
  -1  -8  -2    0.19    0.31
   1   8   2    0.16    0.26
   2   8   2    0.00    0.24
  -2  -8  -2   -0.70    0.56
  -3  -8  -2    0.27    0.32
  -4  -8  -2    0.29    0.32
  -5  -8  -2    0.02    0.22
  11  -7  -2   -0.23    0.26
  10  -7  -2    0.89    0.67
  10  -7  -2    0.75    0.59
   9  -7  -2    0.44    0.38
   9  -7  -2    0.38    0.38
   8  -7  -2    0.23    0.29
   7  -7  -2    0.10    0.26
   6  -7  -2   -0.33    0.34
   5  -7  -2   -0.04    0.32
   4  -7  -2    0.66    0.61
  -4   7   2   -0.02    0.32
   3  -7  -2   -0.16    0.37
  -3   7   2   -0.52    0.43
  -2   7   2   -0.05    0.25
   2  -7  -2    0.56    0.52
   1  -7  -2    0.97    0.70
  -1   7   2    0.11    0.19
   0  -7  -2    0.05    0.07
   0   7   2    0.44    0.43
  -1  -7  -2    0.56    0.34
   1   7   2    0.66    0.53
  -2  -7  -2    0.90    0.63
  -3  -7  -2    0.65    0.55
   3   7   2    1.10    0.63
  -4  -7  -2    0.19    0.30
   4   7   2    0.12    0.17
  -5  -7  -2   -0.22    0.46
   5   7   2   -0.31    0.40
   6   7   2   -0.24    0.35
  -6  -7  -2   -0.18    0.39
   7   7   2    0.27    0.33
  -7  -7  -2    0.05    0.29
   8   7   2   -0.39    0.46
  -8  -7  -2    0.18    0.34
  -9  -7  -2    0.20    0.25
   9   7   2    0.14    0.42
  10   7   2    0.18    0.48
  13  -6  -2    0.12    0.33
  12  -6  -2    0.38    0.52
  11  -6  -2    0.39    0.49
  10  -6  -2   -0.97    0.67
  10  -6  -2   -0.13    0.10
   9  -6  -2   -0.12    0.25
   9  -6  -2    0.17    0.21
   8  -6  -2    0.19    0.18
   8  -6  -2   -0.08    0.32
   7  -6  -2    0.47    0.49
   7  -6  -2    0.45    0.45
   6  -6  -2    0.07    0.16
   6  -6  -2    0.50    0.29
   5  -6  -2    0.37    0.24
  -5   6   2    0.57    0.33
   5  -6  -2    0.26    0.21
   4  -6  -2    0.16    0.22
  -4   6   2    0.16    0.29
   4  -6  -2    0.15    0.12
   3  -6  -2    1.06    0.72
  -3   6   2    0.93    0.56
  -2   6   2    6.75    1.42
   2  -6  -2    7.55    1.65
  -1   6   2    1.75    0.80
   1  -6  -2    2.38    0.95
   0   6   2    1.75    0.76
   0  -6  -2    1.25    0.66
  -1  -6  -2    3.43    1.18
   1   6   2    1.77    0.64
   2   6   2    0.49    0.29
  -2  -6  -2    1.23    0.64
  -3  -6  -2    0.94    0.61
   3   6   2    0.52    0.43
   4   6   2   -0.04    0.14
  -4  -6  -2    0.02    0.27
   5   6   2    0.10    0.21
  -5  -6  -2   -0.22    0.43
  -6  -6  -2   -0.08    0.17
   6   6   2   -0.32    0.48
  -7  -6  -2    0.03    0.25
   7   6   2   -0.06    0.31
  -8  -6  -2    0.22    0.19
   8   6   2    0.49    0.46
  -9  -6  -2    0.23    0.33
   9   6   2    0.16    0.45
  10   6   2    0.08    0.07
  11   6   2   -0.03    0.28
  12   6   2    0.91    0.58
  15  -5  -2    0.80    0.71
  14  -5  -2   -0.09    0.48
  13  -5  -2   -0.24    0.57
  12  -5  -2    1.63    0.94
  11  -5  -2    0.34    0.23
  10  -5  -2    0.55    0.39
   9  -5  -2    1.23    0.66
   8  -5  -2    5.29    1.18
   7  -5  -2   12.33    1.74
   7  -5  -2   11.25    1.81
   6  -5  -2    9.42    1.57
   6  -5  -2    9.76    1.46
  -5   5   2    7.88    1.33
   5  -5  -2    8.03    1.25
   5  -5  -2    7.22    1.41
  -4   5   2    5.37    1.08
   4  -5  -2    6.18    1.29
  -3   5   2    4.81    1.07
   3  -5  -2    4.97    1.21
  -2   5   2   10.11    1.62
   2  -5  -2    9.59    1.61
  -1   5   2    2.70    0.78
   1  -5  -2    3.11    0.96
   0  -5  -2   -0.26    0.15
   0  -5  -2    0.38    0.28
  -1  -5  -2    5.66    1.34
   1   5   2    4.59    0.95
   2   5   2   20.78    2.18
  -2  -5  -2   22.03    2.52
   3   5   2   11.76    1.70
  -3  -5  -2   14.07    2.01
   4   5   2    3.28    0.99
  -4  -5  -2    3.64    1.08
   5   5   2    1.22    0.56
  -5  -5  -2    0.86    0.53
  -6  -5  -2    0.41    0.36
   6   5   2    0.48    0.43
  -7  -5  -2    0.40    0.41
   7   5   2    0.35    0.15
   8   5   2    0.93    0.62
  -8  -5  -2    0.17    0.22
   9   5   2    1.12    0.78
  -9  -5  -2    0.54    0.35
  10   5   2   -0.24    0.22
  11   5   2    0.68    0.66
  12   5   2    0.25    0.16
  12   5   2    1.24    0.83
  13   5   2   -1.33    0.81
  13   5   2    1.27    0.83
  14   5   2    0.11    0.27
  14   5   2    0.82    0.63
  16  -4  -2    0.05    0.44
  15  -4  -2   -0.29    0.55
  14  -4  -2   -0.33    0.34
  12  -4  -2    0.75    0.49
  11  -4  -2    0.03    0.02
  11  -4  -2   -0.04    0.24
  10  -4  -2    2.00    0.69
  10  -4  -2    3.37    1.02
   9  -4  -2    4.98    1.14
   9  -4  -2    4.33    0.98
   8  -4  -2    3.43    0.93
   8  -4  -2    2.65    0.75
   7  -4  -2    3.51    0.86
   7  -4  -2    3.62    0.99
  -7   4   2    2.70    0.53
   6  -4  -2   14.87    1.80
   6  -4  -2   15.27    1.87
   5  -4  -2   17.08    1.83
   5  -4  -2   17.71    2.02
  -4   4   2   12.00    1.52
   4  -4  -2   11.73    1.40
   4  -4  -2   11.02    1.63
  -3   4   2    0.31    0.29
   3  -4  -2    0.40    0.25
   3  -4  -2    0.05    0.16
   2  -4  -2   12.90    1.79
   2  -4  -2   10.32    1.12
  -2   4   2   10.30    1.42
   1  -4  -2   17.74    2.10
   1  -4  -2   13.95    1.15
  -1   4   2   15.53    1.80
   0  -4  -2   15.20    1.96
   0   4   2   13.62    1.49
   0  -4  -2   10.34    0.84
  -1  -4  -2    2.31    0.77
   1   4   2    1.82    0.56
  -2  -4  -2   20.43    2.25
   2   4   2   16.90    1.79
   3   4   2   22.42    2.19
  -3  -4  -2   22.81    2.40
  -4  -4  -2    5.49    1.14
   4   4   2    4.95    1.06
   5   4   2    0.57    0.13
  -5  -4  -2    0.94    0.42
   6   4   2    2.09    0.73
  -6  -4  -2    2.03    0.68
   7   4   2    6.95    1.39
  -7  -4  -2    6.37    1.20
  -8  -4  -2    2.07    0.69
   8   4   2    2.41    0.86
  -9  -4  -2    0.89    0.43
   9   4   2    0.61    0.50
  10   4   2    4.17    1.25
  11   4   2    0.99    0.43
  12   4   2    0.87    0.53
  13   4   2   -0.10    0.57
  14   4   2    0.15    0.54
  15   4   2    0.91    0.70
  17  -3  -2    0.79    0.55
  16  -3  -2    0.03    0.42
  14  -3  -2    0.01    0.25
  13  -3  -2   -0.04    0.48
  12  -3  -2    4.00    1.13
  11  -3  -2   13.91    2.09
  11  -3  -2    8.19    1.11
  10  -3  -2    2.56    0.63
  10  -3  -2    5.11    1.22
   9  -3  -2    3.40    0.98
   9  -3  -2    2.57    0.68
  -8   3   2    7.07    0.72
   8  -3  -2    9.08    1.26
  -7   3   2    1.52    0.35
   7  -3  -2    2.60    0.76
   7  -3  -2    1.53    0.45
  -6   3   2    3.39    0.56
   6  -3  -2    4.71    0.99
   6  -3  -2    3.87    0.85
   5  -3  -2    9.90    1.34
   5  -3  -2   10.34    1.35
   4  -3  -2    6.07    1.05
   4  -3  -2    6.39    0.99
  -4   3   2    6.09    0.95
   3  -3  -2   59.00    2.81
  -3   3   2   60.26    3.05
  -2   3   2   49.28    2.82
   2  -3  -2   48.33    2.29
  -1   3   2    7.82    1.12
   1  -3  -2    7.96    0.85
   0   3   2   31.28    2.01
   1   3   2   34.68    2.25
   2   3   2   22.25    1.92
  -2  -3  -2   13.94    0.87
  -3  -3  -2   10.11    1.39
   3   3   2    8.58    1.27
  -4  -3  -2   19.28    1.95
   4   3   2   18.28    1.94
   5   3   2    3.37    0.82
  -5  -3  -2    1.07    0.25
  -5  -3  -2    3.43    0.82
   6   3   2    6.14    1.14
  -6  -3  -2    5.53    1.00
  -7  -3  -2    2.12    0.63
   7   3   2    1.22    0.30
   7   3   2    1.56    0.63
   8   3   2    3.71    0.96
  -8  -3  -2    2.69    0.69
   9   3   2    9.67    1.67
  -9  -3  -2    6.92    1.07
  10   3   2    1.32    0.77
  11   3   2   -0.73    0.58
  12   3   2    1.53    0.80
  13   3   2    0.18    0.23
  14   3   2    0.05    0.29
  15   3   2    0.24    0.33
  16   3   2   -0.75    0.64
  18  -2  -2   -0.10    0.27
  17  -2  -2    0.14    0.20
  17  -2  -2   -0.14    0.06
  16  -2  -2    0.00    0.21
  16  -2  -2   -0.33    0.32
  15  -2  -2   -0.08    0.39
  14  -2  -2    0.31    0.19
  13  -2  -2    1.52    0.71
  12  -2  -2    2.37    0.87
  11  -2  -2   13.17    2.01
 -10   2   2    0.41    0.18
  10  -2  -2    0.57    0.28
  -9   2   2    2.59    0.44
   9  -2  -2    2.65    0.54
  -8   2   2    4.06    0.55
   8  -2  -2    6.03    1.20
   8  -2  -2    4.48    0.79
  -7   2   2   21.45    1.33
   7  -2  -2   25.83    2.30
   6  -2  -2   55.56    3.19
  -6   2   2   51.86    2.10
  -5   2   2    8.34    0.82
   5  -2  -2   10.51    1.29
   4  -2  -2   36.98    2.30
  -3   2   2   54.98    2.57
  -2   2   2   13.94    1.29
  -1   2   2   10.93    1.12
   0   2   2   26.77    1.67
   1   2   2  134.30    3.91
  -1  -2  -2  127.18    2.93
  -2  -2  -2    0.48    0.17
   2   2   2    0.95    0.39
   3   2   2   14.67    1.46
  -3  -2  -2   11.46    0.84
   4   2   2    5.64    0.93
   4   2   2    5.05    0.59
   5   2   2   21.51    1.89
   5   2   2   18.01    1.20
   6   2   2   19.09    1.37
   6   2   2   23.99    2.15
   7   2   2    2.04    0.62
   7   2   2    1.84    0.47
  -7  -2  -2    2.31    0.57
  -8  -2  -2    3.39    0.66
   8   2   2    3.08    0.81
   8   2   2    2.51    0.59
   9   2   2   11.57    1.37
  -9  -2  -2   12.15    1.18
  10   2   2    3.18    0.91
  10   2   2    1.58    0.52
  11   2   2    0.35    0.31
  11   2   2    0.12    0.29
  12   2   2    0.36    0.18
  12   2   2   -0.02    0.18
  13   2   2    1.81    0.84
  14   2   2    1.16    0.70
  15   2   2    0.43    0.33
  16   2   2    0.34    0.42
  17   2   2    0.22    0.35
  19  -1  -2   -0.24    0.33
  19  -1  -2    0.07    0.26
  18  -1  -2    0.80    0.63
  18  -1  -2    0.29    0.35
  17  -1  -2    1.48    0.96
  17  -1  -2    0.26    0.42
  16  -1  -2   -0.68    0.57
  16  -1  -2    0.05    0.15
  15  -1  -2    0.11    0.05
  15  -1  -2    0.39    0.48
  14  -1  -2   -0.25    0.41
  13  -1  -2    1.34    0.62
  12  -1  -2    4.46    1.20
  11  -1  -2    5.39    1.34
 -11   1   2    2.63    0.53
  10  -1  -2    1.98    0.37
 -10   1   2    2.80    0.56
   9  -1  -2   12.46    1.70
  -9   1   2    9.09    0.96
  -8   1   2    8.49    0.89
   8  -1  -2   10.30    1.52
   7  -1  -2   45.17    2.94
  -7   1   2   38.33    1.86
  -6   1   2  190.83    4.13
   6  -1  -2  221.03    6.20
  -5   1   2   33.62    1.67
  -4   1   2   60.35    2.21
  -3   1   2  317.77    4.97
  -2   1   2  145.58    3.55
  -1   1   2  370.26    5.56
   0   1   2  273.87    4.67
   1   1   2  163.51    3.75
   1   1   2  165.88    3.24
   2   1   2  494.80    6.93
   2   1   2  523.89    6.03
   3   1   2  380.41    6.53
   3   1   2  384.65    5.36
   3   1   2  381.88    5.98
   4   1   2  135.63    3.91
   4   1   2  128.78    3.46
   5   1   2    1.68    0.41
   5   1   2    1.66    0.48
   6   1   2    0.47    0.28
   6   1   2   -0.15    0.20
   7   1   2   54.73    2.96
   7   1   2   51.99    2.77
   8   1   2   10.20    1.31
   8   1   2   10.01    1.33
   9   1   2   15.77    1.69
   9   1   2   15.83    1.73
  -9  -1  -2   11.23    0.87
  10   1   2   12.54    1.61
  10   1   2   13.04    1.70
  11   1   2    4.72    1.01
  11   1   2    4.51    1.03
  12   1   2    0.23    0.21
  12   1   2   -0.17    0.34
  13   1   2    0.85    0.47
  13   1   2    2.66    0.94
  14   1   2    0.96    0.42
  14   1   2    0.67    0.44
  15   1   2    0.11    0.10
  15   1   2    0.88    0.66
  16   1   2   -0.23    0.39
  17   1   2   -0.50    0.53
  18   1   2    0.19    0.26
  20   0  -2    0.13    0.41
  19   0  -2    0.13    0.27
  19   0  -2    0.32    0.41
  18   0  -2    0.22    0.52
  18   0  -2    0.76    0.59
  17   0  -2    1.55    0.81
  17   0  -2    1.92    1.07
  16   0  -2    0.70    0.54
  16   0  -2    1.21    0.85
  15   0  -2    3.58    1.15
  15   0  -2    3.13    1.07
  14   0  -2    5.00    1.31
  14   0  -2    4.98    1.31
  13   0  -2   25.35    2.86
  12   0  -2   12.47    1.94
  11   0  -2    1.90    0.75
 -10   0   2   13.02    1.32
  10   0  -2   18.40    2.13
  -9   0   2    8.45    1.03
   9   0  -2   10.58    1.50
  -8   0   2   42.35    2.26
   8   0  -2   50.16    3.12
   7   0  -2   34.03    2.48
  -7   0   2   27.86    1.75
  -6   0   2  164.60    4.11
  -5   0   2  248.00    4.86
  -4   0   2  515.63    6.77
  -3   0   2  872.66    8.50
  -2   0   2  559.69    6.60
  -1   0   2  767.69    7.25
   1   0  -2  774.56    7.18
   0   0   2  525.10    6.03
   0   0   2  529.51    5.03
   0   0  -2  547.26    5.55
   0   0   2  552.79    6.34
   1   0   2  870.39    7.39
   1   0   2  880.99    8.12
   2   0   2  400.29    5.34
  -2   0  -2  396.89    4.91
   2   0   2  410.50    5.88
   3   0   2  861.57    7.33
   3   0   2  866.61    8.50
   4   0   2  105.68    3.39
   4   0   2  102.65    2.82
   5   0   2   66.48    2.92
   6   0   2    9.29    1.15
   7   0   2   27.43    2.08
  -7   0  -2   21.19    1.22
  -8   0  -2   62.07    1.94
   8   0   2   97.12    4.17
   9   0   2   99.63    4.46
  10   0   2   10.98    1.55
  11   0   2   11.71    1.71
  12   0   2    4.30    1.01
  13   0   2   -0.29    0.22
  14   0   2   -0.14    0.21
  15   0   2    0.67    0.51
  16   0   2    0.04    0.34
  16   0   2    0.24    0.37
  17   0   2    0.24    0.29
  18   0   2   -0.22    0.27
  19   1  -2   -0.44    0.46
  18   1  -2    1.13    0.74
  17   1  -2    0.08    0.20
  17   1  -2    0.44    0.52
  16   1  -2    0.25    0.42
  16   1  -2   -0.03    0.05
  15   1  -2    0.35    0.36
  15   1  -2    0.48    0.47
  14   1  -2    0.50    0.37
  14   1  -2    0.43    0.31
  13   1  -2    1.64    0.79
  13   1  -2    0.95    0.45
  12   1  -2    3.72    0.94
  11   1  -2    4.00    0.97
 -10  -1   2    3.27    0.75
  10   1  -2    2.97    0.78
   9   1  -2   11.43    1.51
  -9  -1   2    9.52    1.25
  -8  -1   2    9.43    1.20
   8   1  -2   11.66    1.49
  -7  -1   2   42.14    2.45
  -6  -1   2  188.26    4.97
  -5  -1   2   32.16    1.99
  -4  -1   2   56.90    2.51
  -4  -1   2   60.75    2.31
  -3  -1   2  323.40    5.79
  -3  -1   2  326.76    5.35
  -2  -1   2  141.17    3.62
  -2  -1   2  141.17    3.54
  -1  -1   2  360.76    5.44
  -1  -1   2  347.84    5.25
  -1  -1   2  351.07    5.60
   0  -1   2  271.99    4.52
   0  -1   2  261.94    4.83
   0  -1   2  262.34    4.58
   1  -1   2  169.71    3.40
  -1   1  -2  166.04    2.81
   1  -1   2  162.01    3.80
   1  -1   2  164.05    3.88
   2  -1   2  476.33    4.63
   2  -1   2  483.60    7.05
   2  -1   2  485.41    6.66
   3  -1   2  351.67    4.37
   3  -1   2  356.06    6.31
   3  -1   2  355.95    4.54
   3  -1   2  341.69    3.23
   4  -1   2  117.36    2.62
   4  -1   2  122.94    4.00
   5  -1   2    1.20    0.37
   6  -1   2    0.58    0.38
   7  -1   2   50.56    3.06
   8  -1   2   10.08    1.41
   9  -1   2   15.88    1.90
  10  -1   2   12.71    1.76
  11  -1   2    4.41    1.06
  12  -1   2    0.10    0.24
  13  -1   2    2.90    0.94
  14  -1   2    0.93    0.53
  15  -1   2    0.25    0.24
  16  -1   2   -0.14    0.31
  17  -1   2   -0.14    0.18
  18  -1   2   -0.24    0.34
  18   2  -2   -0.61    0.51
  17   2  -2   -0.57    0.47
  16   2  -2    0.17    0.29
  15   2  -2   -0.61    0.43
  15   2  -2    0.26    0.26
  14   2  -2    0.77    0.56
  14   2  -2    1.29    0.66
  13   2  -2    0.43    0.34
  13   2  -2    0.65    0.44
  12   2  -2    2.49    0.77
  12   2  -2    2.11    0.92
  11   2  -2   14.46    2.09
  11   2  -2   12.45    1.77
  10   2  -2    1.11    0.49
  10   2  -2   -0.22    0.42
  -9  -2   2    3.87    0.67
   9   2  -2    3.83    0.83
  -8  -2   2    5.12    0.92
  -8  -2   2    4.82    0.75
   8   2  -2    4.60    0.93
  -7  -2   2   23.33    2.02
  -7  -2   2   24.30    1.70
  -6  -2   2   54.43    3.09
  -6  -2   2   54.77    2.55
  -5  -2   2    9.14    1.21
  -5  -2   2    9.55    1.08
  -4  -2   2   36.19    2.31
  -4  -2   2   35.37    2.10
  -3  -2   2   54.24    2.69
  -3  -2   2   53.98    2.58
  -2  -2   2   12.42    1.22
  -2  -2   2   13.07    1.27
  -2  -2   2   12.59    1.02
  -1  -2   2   10.84    1.08
  -1  -2   2   11.03    1.17
  -1  -2   2   10.69    0.98
   0  -2   2   24.27    1.52
   0  -2   2   25.85    1.56
   0  -2   2   25.39    1.78
   1  -2   2  127.29    3.84
   1  -2   2  129.54    3.30
   1  -2   2  135.17    4.08
   2  -2   2    1.05    0.39
   2  -2   2    0.49    0.25
   2  -2   2    0.57    0.18
   3  -2   2   13.72    0.91
  -3   2  -2   12.88    0.94
   3  -2   2   14.09    1.44
   3  -2   2   12.58    1.24
   4  -2   2    4.74    0.48
   4  -2   2    4.05    0.38
   4  -2   2    3.25    0.31
   4  -2   2    5.26    0.89
   4  -2   2    4.70    0.72
   5  -2   2   13.78    0.73
   5  -2   2   18.84    1.79
   5  -2   2   16.60    1.42
   6  -2   2   17.36    1.43
   6  -2   2   21.80    2.01
   7  -2   2    1.78    0.46
   7  -2   2    1.87    0.64
   8  -2   2    3.00    0.81
   9  -2   2   13.69    1.85
  10  -2   2    2.40    0.94
  11  -2   2    0.48    0.38
  12  -2   2    0.70    0.57
  13  -2   2    1.27    0.54
  14  -2   2    0.91    0.61
  15  -2   2    0.23    0.41
  16  -2   2    0.03    0.12
  17  -2   2    0.02    0.10
  17   3  -2    0.01    0.33
  16   3  -2    0.25    0.52
  15   3  -2   -0.04    0.24
  14   3  -2    0.04    0.23
  13   3  -2    0.61    0.47
  12   3  -2    4.41    1.28
  12   3  -2    2.69    0.81
  11   3  -2   10.98    1.53
 -11  -3   2   10.88    1.31
 -10  -3   2    2.77    0.64
  10   3  -2    3.17    0.75
  10   3  -2    4.25    1.11
   9   3  -2    2.46    0.62
   9   3  -2    3.67    1.10
  -9  -3   2    2.91    0.67
   8   3  -2    7.80    1.05
   8   3  -2   11.75    1.77
  -8  -3   2    9.93    1.27
  -7  -3   2    1.60    0.49
   7   3  -2    2.73    0.72
  -6  -3   2    3.82    0.81
   6   3  -2    4.27    0.89
  -5  -3   2    9.73    1.27
   5   3  -2   11.57    1.40
  -5  -3   2    9.34    1.35
   4   3  -2    5.98    0.96
  -4  -3   2    5.45    0.92
  -4  -3   2    5.59    0.96
  -3  -3   2   55.54    2.99
  -3  -3   2   54.67    2.94
   3   3  -2   60.66    2.76
  -2  -3   2   47.08    2.64
   2   3  -2   47.41    2.20
   2   3  -2   56.34    2.72
  -2  -3   2   47.95    2.16
  -2  -3   2   48.02    2.72
  -1  -3   2    7.60    1.01
   1   3  -2    6.74    0.70
  -1  -3   2    7.37    1.05
  -1  -3   2    7.39    0.86
   1   3  -2    8.48    0.94
   0  -3   2   28.47    1.87
   0  -3   2   28.83    1.85
   0   3  -2   30.06    1.27
   0  -3   2   30.22    2.15
   1  -3   2   32.26    1.89
   1  -3   2   32.94    2.11
   1  -3   2   31.62    2.21
   2  -3   2   18.43    1.30
   2  -3   2   19.13    1.72
  -2   3  -2   18.70    1.04
   2  -3   2   19.54    1.68
   3  -3   2    8.10    1.13
   3  -3   2    7.68    1.10
   4  -3   2   15.14    1.62
   4  -3   2   14.84    1.58
   5  -3   2    2.89    0.70
   5  -3   2    2.73    0.74
   6  -3   2    1.93    0.22
   6  -3   2    4.39    0.83
   6  -3   2    4.38    0.93
   7  -3   2    1.56    0.48
   7  -3   2    0.91    0.22
   7  -3   2    1.84    0.70
   8  -3   2    2.24    0.55
   8  -3   2    2.10    0.68
   9  -3   2    7.39    1.07
   9  -3   2    8.10    1.47
  10  -3   2    0.95    0.59
  11  -3   2    0.05    0.15
  12  -3   2    0.81    0.62
  13  -3   2   -0.61    0.48
  14  -3   2   -0.35    0.58
  15  -3   2   -0.20    0.45
  16  -3   2    0.64    0.54
  16   4  -2    0.47    0.76
  16   4  -2   -0.40    0.50
  15   4  -2    0.20    0.48
  14   4  -2   -0.59    0.78
  13   4  -2    2.35    1.14
  12   4  -2   -0.30    0.31
 -11  -4   2    0.37    0.28
  11   4  -2    0.66    0.63
 -10  -4   2    2.45    0.71
  10   4  -2    3.02    1.08
  -9  -4   2    4.56    0.98
   9   4  -2    5.66    1.39
   8   4  -2    3.10    0.95
  -8  -4   2    3.01    0.80
   7   4  -2    2.41    0.52
   7   4  -2    5.03    1.26
   7   4  -2    4.59    1.10
  -7  -4   2    3.04    0.79
   6   4  -2   16.41    1.97
   6   4  -2   18.21    2.24
  -6  -4   2   14.21    1.70
   5   4  -2   17.50    1.88
  -5  -4   2   16.34    1.83
   5   4  -2   19.77    2.23
   4   4  -2   15.53    1.93
   4   4  -2   11.91    1.51
  -4  -4   2   10.54    1.45
  -3  -4   2    0.03    0.30
   3   4  -2    0.52    0.19
  -3  -4   2    0.11    0.14
   3   4  -2    0.79    0.43
  -2  -4   2   10.13    1.43
   2   4  -2   10.89    1.20
  -2  -4   2    9.71    1.04
   2   4  -2   11.28    1.38
  -1  -4   2   14.69    1.68
  -1  -4   2   13.70    1.30
   0  -4   2   12.26    1.30
   0  -4   2   12.68    1.55
  -1   4  -2    1.11    0.19
   1  -4   2    1.85    0.59
   1  -4   2    1.43    0.49
   2  -4   2   15.77    1.80
   2  -4   2   15.75    1.67
  -2   4  -2   15.13    1.23
   3  -4   2   18.45    1.86
   3  -4   2   19.09    1.95
   4  -4   2    4.55    0.91
   4  -4   2    5.05    1.05
   5  -4   2    0.79    0.40
   5  -4   2    1.02    0.42
   6  -4   2    2.05    0.65
   6  -4   2    2.02    0.73
   7  -4   2    5.39    1.05
   7  -4   2    5.93    1.25
   8  -4   2    1.25    0.41
   8  -4   2    1.74    0.72
   9  -4   2    0.80    0.42
   9  -4   2    1.48    0.66
  10  -4   2    3.02    1.05
  11  -4   2    0.46    0.33
  12  -4   2    1.31    0.81
  13  -4   2    0.51    0.38
  14  -4   2   -0.29    0.41
  15  -4   2   -0.09    0.21
  15   5  -2   -0.19    0.38
  14   5  -2    1.81    1.23
  14   5  -2    0.28    0.53
  13   5  -2    1.91    1.07
  13   5  -2    0.63    0.71
  12   5  -2    1.51    1.11
  12   5  -2    1.94    0.92
 -11  -5   2    0.46    0.34
  11   5  -2    0.34    0.59
  11   5  -2    1.52    0.84
 -10  -5   2    0.30    0.29
  10   5  -2    1.42    0.92
  -9  -5   2    1.23    0.59
   9   5  -2    3.53    1.30
   9   5  -2    1.52    0.80
  -8  -5   2    4.92    1.18
   8   5  -2    8.36    1.92
   8   5  -2    8.43    1.78
   7   5  -2   14.25    2.14
   7   5  -2   18.08    2.67
  -7  -5   2   12.82    1.86
   6   5  -2   12.34    1.90
   6   5  -2   15.04    2.27
  -6  -5   2   10.95    1.68
   5   5  -2    9.77    1.69
  -5  -5   2    7.18    1.37
   4   5  -2    7.69    1.40
  -4  -5   2    6.72    1.30
  -3  -5   2    4.88    1.10
  -2  -5   2    8.20    1.39
  -2  -5   2    8.27    1.01
  -1  -5   2    2.43    0.58
  -1  -5   2    2.67    0.69
   0  -5   2    0.03    0.36
   0  -5   2    0.16    0.17
   1  -5   2    4.69    1.04
   1  -5   2    4.66    0.92
   2  -5   2   18.74    2.14
  -2   5  -2   16.42    1.55
   2  -5   2   17.72    1.91
   3  -5   2   12.88    1.68
   3  -5   2   12.50    1.75
   4  -5   2    3.21    0.88
   4  -5   2    2.82    0.79
   5  -5   2    1.48    0.57
   5  -5   2    0.79    0.50
   6  -5   2    0.34    0.29
   6  -5   2    0.09    0.35
   7  -5   2    0.01    0.18
   7  -5   2    0.42    0.31
   8  -5   2    0.32    0.34
   8  -5   2    0.08    0.17
   9  -5   2    0.95    0.51
   9  -5   2    0.97    0.67
  10  -5   2    0.02    0.04
  11  -5   2    0.38    0.32
  12  -5   2    1.03    0.71
  13  -5   2    1.08    0.83
  14  -5   2    0.40    0.45
  13   6  -2    0.52    0.59
  12   6  -2    0.35    0.47
  11   6  -2    0.63    0.75
 -10  -6   2   -0.20    0.37
  10   6  -2    0.19    0.24
  -9  -6   2    0.12    0.38
   9   6  -2    0.33    0.15
  -8  -6   2    0.45    0.42
   8   6  -2    0.38    0.57
  -7  -6   2    0.65    0.50
   7   6  -2    0.10    0.14
  -6  -6   2    0.37    0.36
  -5  -6   2    0.17    0.06
  -4  -6   2    0.18    0.19
  -3  -6   2    1.11    0.56
  -2  -6   2    6.95    1.46
  -1  -6   2    1.98    0.81
   0  -6   2    0.30    0.34
   1  -6   2    3.34    1.04
   1  -6   2    1.71    0.59
   2  -6   2   -0.02    0.16
   2  -6   2    0.22    0.07
   3  -6   2    0.80    0.47
   3  -6   2    0.79    0.51
   4  -6   2    0.13    0.06
   4  -6   2   -0.06    0.24
   5  -6   2   -0.21    0.36
   5  -6   2    0.62    0.48
   6  -6   2   -0.16    0.23
   6  -6   2    0.57    0.50
   7  -6   2    0.24    0.25
   7  -6   2    0.26    0.23
   8  -6   2    0.36    0.32
   8  -6   2    0.29    0.41
   9  -6   2    0.11    0.33
   9  -6   2    0.53    0.46
  10  -6   2    0.83    0.72
  11  -6   2    0.93    0.71
  12  -6   2   -0.20    0.35
  11   7  -2    0.00    0.28
 -10  -7   2    0.19    0.25
  -9  -7   2    0.28    0.38
  -8  -7   2    0.29    0.38
  -7  -7   2    0.46    0.32
  -6  -7   2    0.15    0.29
  -5  -7   2    0.00    0.14
  -4  -7   2   -0.08    0.21
  -3  -7   2   -0.19    0.24
  -2  -7   2    0.31    0.34
  -1  -7   2    0.27    0.34
   0  -7   2    0.07    0.30
   1  -7   2    0.70    0.44
   2  -7   2    0.63    0.20
   3  -7   2    0.26    0.33
   4  -7   2    0.32    0.35
   5  -7   2   -0.46    0.59
   6  -7   2   -0.09    0.80
   6  -7   2   -0.36    0.33
   7  -7   2   -0.24    0.21
   7  -7   2    0.59    0.44
   8  -7   2    0.20    0.16
   8  -7   2   -0.09    0.30
   9  -7   2    0.22    0.44
  10  -7   2    0.00    0.26
  -6  -8   2   -0.27    0.45
  -5  -8   2   -0.29    0.36
  -4  -8   2   -0.14    0.45
  -3  -8   2    0.45    0.59
  -2  -8   2    0.34    0.34
  -1  -8   2    0.35    0.48
   0  -8   2   -0.06    0.20
   1  -8   2   -0.49    0.57
   2  -8   2   -0.02    0.26
   3  -8   2    0.12    0.23
   4  -8   2    0.00    0.06
   5  -8   2   -0.25    0.35
   6  -8   2    0.10    0.30
   7  -8   2   -0.42    0.52
   7  -8  -3   -0.15    0.18
   6  -8  -3   -0.02    0.11
   5  -8  -3    0.11    0.38
   4  -8  -3    0.20    0.41
  -4   8   3    0.10    0.18
  -3   8   3   -0.02    0.13
   3  -8  -3    0.43    0.63
   2  -8  -3   -0.20    0.44
  -2   8   3   -0.07    0.15
  -1   8   3   -0.21    0.38
   1  -8  -3   -0.48    0.55
   0   8   3    0.21    0.45
   0  -8  -3    0.70    0.48
   1   8   3    0.32    0.40
  -1  -8  -3    0.65    0.53
   2   8   3   -0.18    0.29
  -2  -8  -3    0.58    0.52
   3   8   3    0.19    0.27
  -3  -8  -3    0.33    0.47
  11  -7  -3   -0.07    0.45
  10  -7  -3    0.29    0.49
  10  -7  -3    0.31    0.45
   9  -7  -3   -0.36    0.32
   9  -7  -3    0.04    0.27
   8  -7  -3   -0.60    0.60
   7  -7  -3    0.30    0.31
   6  -7  -3   -0.22    0.32
   5  -7  -3    0.40    0.55
  -4   7   3    0.28    0.18
   4  -7  -3    0.10    0.31
  -3   7   3    0.14    0.26
   3  -7  -3    0.22    0.18
  -2   7   3   -0.37    0.45
   2  -7  -3    0.50    0.65
  -1   7   3    0.23    0.38
   1  -7  -3    0.17    0.47
   0   7   3    0.43    0.29
   0  -7  -3    0.45    0.63
   1   7   3    0.79    0.52
  -1  -7  -3    1.00    0.70
  -2  -7  -3   -0.07    0.35
   3   7   3    0.31    0.39
  -3  -7  -3   -0.33    0.57
  -4  -7  -3    1.34    0.90
   4   7   3    0.47    0.48
   5   7   3   -0.12    0.09
  -5  -7  -3   -0.03    0.38
   6   7   3    0.22    0.44
  -6  -7  -3    0.72    0.61
   7   7   3    0.48    0.53
  -7  -7  -3    0.37    0.47
  -8  -7  -3    0.31    0.43
   8   7   3    0.41    0.50
   9   7   3    0.42    0.39
  13  -6  -3    0.62    0.78
  12  -6  -3    0.34    0.39
  11  -6  -3   -0.50    0.51
  10  -6  -3    0.72    0.48
  10  -6  -3    0.02    0.31
   9  -6  -3    0.40    0.39
   8  -6  -3   -0.01    0.22
   7  -6  -3    0.49    0.40
   6  -6  -3    0.07    0.22
   5  -6  -3    0.67    0.46
  -5   6   3    0.39    0.23
  -4   6   3    1.20    0.55
   4  -6  -3    1.19    0.63
  -3   6   3    1.19    0.61
   3  -6  -3    1.46    0.70
  -2   6   3    0.68    0.39
   2  -6  -3   -0.07    0.21
  -1   6   3    0.25    0.21
   1  -6  -3    0.61    0.60
   0   6   3    0.33    0.30
   0  -6  -3    0.30    0.33
  -1  -6  -3    1.05    0.62
   2   6   3    2.50    0.85
  -2  -6  -3    1.98    0.91
   3   6   3    0.95    0.58
  -3  -6  -3    0.75    0.60
   4   6   3   -0.28    0.37
  -4  -6  -3   -0.12    0.23
   5   6   3   -0.10    0.41
  -5  -6  -3    0.30    0.11
   6   6   3   -0.33    0.37
  -6  -6  -3    0.57    0.58
   7   6   3    0.41    0.40
  -7  -6  -3    0.28    0.36
  -8  -6  -3   -0.22    0.37
   8   6   3   -0.68    0.54
  -9  -6  -3   -0.08    0.26
   9   6   3    0.33    0.22
  10   6   3    0.06    0.19
  11   6   3    0.72    0.75
  15  -5  -3    0.53    0.68
  14  -5  -3    0.60    0.70
  13  -5  -3   -0.94    0.64
  12  -5  -3    0.08    0.08
  11  -5  -3    0.21    0.20
  11  -5  -3    0.87    0.58
  10  -5  -3   -0.10    0.09
  10  -5  -3    0.45    0.54
   9  -5  -3    0.29    0.39
   9  -5  -3    0.26    0.26
   8  -5  -3    1.10    0.51
   8  -5  -3    0.57    0.16
   7  -5  -3    0.47    0.39
   7  -5  -3   -0.35    0.30
   6  -5  -3    4.45    1.03
   6  -5  -3    4.31    1.14
  -5   5   3    1.21    0.51
   5  -5  -3    0.89    0.31
   5  -5  -3    1.28    0.70
   4  -5  -3    6.57    1.12
  -4   5   3    6.68    1.30
   4  -5  -3    7.06    1.52
  -3   5   3    1.09    0.52
   3  -5  -3    0.68    0.38
   3  -5  -3    0.33    0.20
   2  -5  -3    2.13    0.54
  -2   5   3    2.33    0.80
   2  -5  -3    3.25    1.09
  -1   5   3    1.58    0.75
   1  -5  -3    1.51    0.89
   0  -5  -3    2.38    0.99
   1   5   3   11.68    1.63
  -1  -5  -3   12.87    2.19
   2   5   3    6.35    1.26
  -2  -5  -3    6.44    1.52
   3   5   3    4.83    1.12
  -3  -5  -3    5.29    1.30
  -4  -5  -3    3.86    1.22
   4   5   3    3.40    1.09
  -5  -5  -3    5.11    1.34
   5   5   3    4.71    1.20
   6   5   3    1.34    0.65
  -6  -5  -3    1.71    0.82
   7   5   3   -0.21    0.01
  -7  -5  -3    0.15    0.40
  -8  -5  -3    0.15    0.23
   8   5   3   -0.32    0.23
  -9  -5  -3    0.05    0.17
   9   5   3    0.02    0.21
  10   5   3    0.47    0.48
  11   5   3    1.36    0.50
  12   5   3    0.98    0.81
  13   5   3    0.06    0.35
  15  -4  -3    0.12    0.54
  14  -4  -3    0.53    0.56
  13  -4  -3    0.11    0.41
  12  -4  -3    0.75    0.41
  11  -4  -3    0.62    0.54
  11  -4  -3    0.24    0.08
  10  -4  -3    1.72    0.77
  10  -4  -3    1.11    0.57
   9  -4  -3    1.51    0.63
   9  -4  -3    2.09    0.84
   8  -4  -3    0.40    0.36
  -8   4   3    0.27    0.17
   8  -4  -3    0.66    0.54
   7  -4  -3    5.88    1.26
  -7   4   3    3.76    0.72
   7  -4  -3    5.76    1.28
   6  -4  -3   15.77    2.08
   6  -4  -3   15.98    1.94
   5  -4  -3    6.70    1.32
   5  -4  -3    6.57    1.19
   4  -4  -3    8.46    1.58
  -4   4   3    6.96    1.24
   4  -4  -3    8.15    1.22
   3  -4  -3    0.26    0.31
   3  -4  -3    0.64    0.42
  -3   4   3    0.66    0.47
   2  -4  -3    2.77    0.65
  -2   4   3    2.71    0.83
   1  -4  -3   13.53    1.26
  -1   4   3   14.47    1.81
   0  -4  -3    9.09    0.97
  -1  -4  -3    4.19    1.22
   1   4   3    3.29    0.78
  -2  -4  -3    0.88    0.47
   2   4   3   -0.09    0.09
  -3  -4  -3    1.92    0.73
   3   4   3    1.07    0.47
   4   4   3    0.47    0.20
  -4  -4  -3    0.37    0.32
   5   4   3    3.42    0.91
  -5  -4  -3    3.53    1.01
  -6  -4  -3    8.79    1.60
   6   4   3    8.01    1.50
   7   4   3    2.91    0.90
  -7  -4  -3    3.77    1.00
   8   4   3    5.39    1.34
  -8  -4  -3    5.32    1.19
   9   4   3   -0.74    0.63
  -9  -4  -3    0.06    0.12
  10   4   3    0.95    0.46
  11   4   3    1.32    0.68
  12   4   3    1.50    0.87
  12   4   3    0.91    0.60
  13   4   3    0.69    0.55
  13   4   3    0.78    0.65
  14   4   3    0.96    0.79
  14   4   3    0.56    0.51
  15   4   3    0.46    0.49
  17  -3  -3    1.37    0.84
  16  -3  -3    1.12    0.79
  15  -3  -3    0.58    0.55
  14  -3  -3    0.10    0.36
  13  -3  -3    0.11    0.08
  12  -3  -3    0.56    0.61
  11  -3  -3    1.07    0.63
  11  -3  -3    0.74    0.39
  10  -3  -3    9.22    1.71
  10  -3  -3    5.97    1.09
   9  -3  -3   17.13    1.95
  -9   3   3   14.54    1.25
   8  -3  -3   10.90    1.78
  -8   3   3    7.94    0.95
   7  -3  -3    4.46    1.00
  -7   3   3    3.60    0.65
   6  -3  -3    1.90    0.64
  -6   3   3    1.59    0.45
   5  -3  -3   19.80    2.06
  -4   3   3   13.62    1.56
   4  -3  -3   14.90    1.71
  -3   3   3    7.19    1.12
  -2   3   3    5.74    1.00
  -1   3   3   14.66    1.63
   0   3   3   33.77    2.28
   1   3   3   44.02    2.73
   2   3   3    7.83    1.20
   3   3   3    3.54    0.85
   4   3   3   10.80    1.51
   5   3   3    0.66    0.27
   6   3   3   21.26    2.28
  -7  -3  -3   14.57    1.84
   7   3   3   12.33    1.83
   7   3   3    8.52    0.95
   8   3   3    6.82    1.28
  -8  -3  -3    6.88    1.23
   8   3   3    6.85    1.42
   9   3   3    2.13    0.75
  -9  -3  -3    1.63    0.53
  10   3   3    3.09    0.97
  11   3   3    2.23    0.77
  12   3   3    0.78    0.58
  13   3   3    1.07    0.69
  14   3   3   -0.03    0.14
  15   3   3   -0.51    0.46
  16   3   3    0.09    0.31
  18  -2  -3    0.67    0.54
  18  -2  -3    1.57    0.88
  17  -2  -3    0.19    0.31
  16  -2  -3    0.20    0.21
  15  -2  -3    0.69    0.62
  14  -2  -3    0.05    0.37
  13  -2  -3    1.22    0.73
  12  -2  -3    7.45    1.76
  11  -2  -3    8.66    1.15
 -11   2   3    9.00    1.01
 -10   2   3    6.31    0.86
  10  -2  -3   11.46    1.95
  -9   2   3    7.07    0.89
   9  -2  -3   10.26    1.65
  -8   2   3   10.76    1.12
   8  -2  -3   14.98    2.05
  -7   2   3    6.33    0.85
   7  -2  -3    7.63    1.39
  -6   2   3    1.48    0.41
  -5   2   3   42.28    2.21
  -4   2   3   20.11    1.57
  -3   2   3  109.11    3.91
  -2   2   3   80.50    3.35
  -1   2   3   81.24    3.35
   0   2   3   66.58    2.93
   1   2   3   18.70    1.62
   2   2   3   21.20    1.77
   3   2   3    2.78    0.49
   3   2   3    2.79    0.65
   4   2   3   46.87    2.93
   4   2   3   43.02    2.10
   5   2   3   22.79    2.13
   5   2   3   20.48    1.52
   6   2   3    0.70    0.12
   6   2   3    0.72    0.42
   6   2   3    0.67    0.21
   7   2   3   12.27    1.58
   7   2   3   10.48    1.20
   8   2   3    4.75    1.00
   8   2   3    3.83    0.77
  -9  -2  -3   20.76    1.84
   9   2   3   16.29    1.69
   9   2   3   19.74    2.19
  10   2   3    1.47    0.59
  10   2   3    1.61    0.57
  11   2   3    2.16    0.79
  11   2   3    1.19    0.48
  12   2   3    0.38    0.36
  13   2   3    0.77    0.65
  14   2   3    0.18    0.25
  15   2   3   -0.60    0.27
  16   2   3   -0.04    0.12
  17   2   3    0.35    0.39
  19  -1  -3    0.04    0.15
  19  -1  -3    0.09    0.43
  18  -1  -3   -0.24    0.30
  18  -1  -3    0.52    0.57
  17  -1  -3    0.36    0.43
  17  -1  -3    0.85    0.64
  16  -1  -3   -0.02    0.46
  15  -1  -3    1.28    0.80
  14  -1  -3    0.26    0.40
 -13   1   3    0.70    0.31
  13  -1  -3    2.31    1.05
 -12   1   3    1.57    0.47
  12  -1  -3    3.59    1.07
 -11   1   3    2.83    0.64
  11  -1  -3    3.74    1.07
 -10   1   3   -0.05    0.04
  10  -1  -3   -0.06    0.42
  -9   1   3    0.47    0.28
   9  -1  -3    1.18    0.56
  -8   1   3   48.93    2.46
   8  -1  -3   63.80    4.02
  -7   1   3    7.20    0.93
  -6   1   3   77.10    3.03
  -5   1   3   12.02    1.20
  -4   1   3   16.44    1.35
  -3   1   3  134.53    3.81
  -2   1   3   50.21    2.34
  -2   1   3   49.84    2.31
  -1   1   3    3.32    0.55
   0   1   3  138.09    3.72
   1   1   3  110.56    3.51
   1   1   3  108.75    3.28
   2   1   3   31.57    1.94
   2   1   3   33.98    1.89
   3   1   3  177.88    4.85
   3   1   3  180.08    4.49
   4   1   3    7.88    0.95
   4   1   3    7.83    1.09
   5   1   3   16.23    1.61
   5   1   3   17.33    1.48
   5   1   3   17.20    1.52
   6   1   3    4.26    0.81
   6   1   3    4.68    0.82
   7   1   3    7.83    1.09
   7   1   3    7.69    1.11
   8   1   3    6.82    1.09
   8   1   3    5.45    0.99
   9   1   3    1.64    0.56
   9   1   3    1.85    0.57
  10   1   3    4.29    0.97
  10   1   3    3.47    0.89
  11   1   3    1.11    0.47
  11   1   3    1.12    0.53
  12   1   3    0.16    0.30
  12   1   3    0.42    0.37
  13   1   3    0.94    0.60
  13   1   3    0.69    0.49
  14   1   3    2.67    0.93
  14   1   3    2.26    0.84
  15   1   3    0.44    0.40
  15   1   3   -0.19    0.24
  16   1   3   -0.26    0.40
  20   0  -3    0.24    0.39
  19   0  -3   -0.23    0.37
  19   0  -3    0.24    0.56
  19   0  -3   -0.40    0.49
  18   0  -3    0.64    0.66
  18   0  -3    0.05    0.16
  17   0  -3   -0.47    0.46
  17   0  -3    0.04    0.41
  16   0  -3    0.24    0.50
  16   0  -3    1.09    0.68
  15   0  -3   -0.51    0.41
  14   0  -3    0.24    0.29
  13   0  -3   -0.11    0.38
 -13   0   3    0.00    0.12
 -12   0   3   -0.11    0.03
  12   0  -3    0.18    0.33
  11   0  -3    0.34    0.28
 -11   0   3    0.01    0.09
 -10   0   3   -0.05    0.14
  10   0  -3    0.45    0.61
  -9   0   3    0.16    0.13
   9   0  -3   -0.36    0.37
  -8   0   3   -0.08    0.10
  -7   0   3   -0.03    0.18
  -6   0   3    0.05    0.10
  -5   0   3   -0.04    0.08
  -4   0   3   -0.07    0.16
  -3   0   3    0.15    0.17
  -2   0   3   -0.28    0.19
  -1   0   3    0.12    0.06
   0   0   3   -0.04    0.16
   0   0   3    0.06    0.18
   0   0   3   -0.26    0.20
   1   0   3   -0.10    0.13
   1   0   3    0.09    0.09
   2   0   3   -0.09    0.18
   2   0   3    0.01    0.03
   3   0   3   -0.23    0.13
   3   0   3   -0.12    0.23
   4   0   3   -0.02    0.11
   4   0   3    0.13    0.13
   5   0   3   -0.14    0.12
   5   0   3    0.07    0.14
   5   0   3   -0.03    0.04
   6   0   3   -0.29    0.32
   6   0   3    0.03    0.13
   6   0   3   -0.01    0.11
   7   0   3   -0.45    0.29
   7   0   3    0.26    0.08
   8   0   3    0.17    0.10
   8   0   3    0.61    0.37
   9   0   3    0.08    0.17
   9   0   3    0.39    0.32
  10   0   3   -0.60    0.36
  10   0   3    0.15    0.13
  11   0   3   -0.10    0.28
  11   0   3    0.17    0.29
  12   0   3   -0.24    0.23
  12   0   3    0.01    0.01
  13   0   3   -0.39    0.30
  13   0   3   -0.28    0.23
  14   0   3   -0.34    0.19
  14   0   3   -0.70    0.48
  15   0   3   -0.10    0.29
  16   0   3   -0.21    0.29
  17   0   3    0.08    0.18
  19   1  -3   -0.64    0.69
  18   1  -3    0.03    0.11
  18   1  -3    0.43    0.46
  17   1  -3    0.58    0.41
  17   1  -3    0.66    0.59
  16   1  -3   -0.06    0.25
  16   1  -3    0.79    0.55
  15   1  -3    1.38    0.80
  15   1  -3    2.04    0.96
  14   1  -3   -0.19    0.50
  13   1  -3    1.62    0.74
 -12  -1   3    1.59    0.53
  12   1  -3    3.77    1.11
 -11  -1   3    3.65    0.82
  11   1  -3    4.84    1.10
 -10  -1   3    0.28    0.24
  10   1  -3    0.40    0.17
  -9  -1   3    0.23    0.18
  -8  -1   3   50.61    2.94
  -7  -1   3    7.57    1.08
  -6  -1   3   78.44    3.39
  -5  -1   3   12.87    1.37
  -4  -1   3   16.38    1.47
  -3  -1   3  138.92    4.13
  -2  -1   3   50.34    2.45
  -1  -1   3    3.55    0.64
  -1  -1   3    3.71    0.65
   0  -1   3  146.21    3.93
   0   1  -3  146.00    2.90
   0  -1   3  144.54    4.13
   1  -1   3  108.43    3.59
   1  -1   3  113.76    3.37
   2  -1   3   32.66    1.77
   2  -1   3   27.34    0.92
   2  -1   3   32.87    2.07
   3  -1   3  173.86    5.00
   3  -1   3  166.20    3.61
   3  -1   3  161.62    3.81
   4  -1   3    7.15    0.80
   4  -1   3    6.94    0.79
   4  -1   3    7.34    1.09
   5  -1   3   14.98    0.95
   5  -1   3   15.32    1.23
   5  -1   3   14.87    1.18
   5  -1   3   17.24    1.71
   6  -1   3    4.11    0.59
   6  -1   3    4.95    0.96
   6  -1   3    4.57    0.66
   7  -1   3    6.59    0.91
   7  -1   3    6.43    0.80
   7  -1   3    6.50    1.13
   8  -1   3    4.91    0.74
   8  -1   3    6.87    1.26
   9  -1   3    2.18    0.50
   9  -1   3    2.59    0.87
  10  -1   3    2.84    0.60
  10  -1   3    4.48    1.13
  11  -1   3    0.51    0.30
  11  -1   3    1.57    0.76
  12  -1   3   -0.07    0.16
  12  -1   3    0.67    0.44
  13  -1   3    1.51    0.74
  14  -1   3    2.30    0.94
  15  -1   3    0.02    0.02
  16  -1   3   -0.33    0.26
  17  -1   3    0.38    0.38
  18  -1   3    0.24    0.33
  18   2  -3    0.92    0.85
  17   2  -3    0.87    0.67
  17   2  -3    0.65    0.44
  16   2  -3    0.03    0.36
  16   2  -3    0.61    0.57
  15   2  -3    0.49    0.43
  15   2  -3    0.69    0.51
  14   2  -3    0.10    0.45
  14   2  -3    0.03    0.38
  13   2  -3    0.54    0.56
  13   2  -3    0.09    0.32
  12   2  -3    7.04    1.40
 -11  -2   3   13.08    1.68
  11   2  -3   15.05    1.95
 -10  -2   3    8.59    1.36
  10   2  -3    8.97    1.52
  -9  -2   3   10.09    1.45
  -8  -2   3   12.71    1.59
  -7  -2   3    5.78    0.92
  -7  -2   3    7.48    1.20
  -6  -2   3    1.12    0.35
  -6  -2   3    1.17    0.40
  -5  -2   3   46.40    2.58
  -5  -2   3   46.81    2.83
  -4  -2   3   21.18    1.83
  -4  -2   3   20.14    1.64
  -3  -2   3  101.94    3.69
  -3  -2   3  111.20    4.03
  -2  -2   3   80.04    3.28
  -2  -2   3   76.35    3.02
  -2  -2   3   75.58    3.20
  -1  -2   3   81.62    3.26
  -1  -2   3   77.02    3.29
  -1  -2   3   76.65    3.08
   0  -2   3   61.03    2.92
   0  -2   3   65.01    2.78
   0  -2   3   64.56    2.89
   1  -2   3   18.22    1.39
   1  -2   3   18.01    1.56
   1  -2   3   17.31    1.51
   2  -2   3   20.59    1.42
  -2   2  -3   18.77    1.04
   2  -2   3   18.82    1.64
   2  -2   3   21.15    1.77
   3  -2   3    3.06    0.67
   3  -2   3    3.37    0.56
   3  -2   3    3.55    0.81
   4  -2   3   40.46    2.47
   4  -2   3   40.69    1.89
   4  -2   3   44.78    2.82
   5  -2   3   17.13    1.15
   5  -2   3   17.74    1.07
   5  -2   3   17.33    1.61
   6  -2   3    0.66    0.20
   6  -2   3    0.50    0.18
   6  -2   3    0.71    0.24
   6  -2   3    0.53    0.17
   7  -2   3    9.85    0.97
   7  -2   3   11.81    1.63
   8  -2   3    3.75    0.63
   8  -2   3    5.25    1.14
   9  -2   3   16.24    1.44
   9  -2   3   19.42    2.28
  10  -2   3    2.03    0.73
  11  -2   3    1.87    0.79
  12  -2   3    0.32    0.32
  13  -2   3    0.24    0.39
  14  -2   3    0.54    0.35
  15  -2   3    0.57    0.40
  16  -2   3    0.06    0.10
  17  -2   3   -0.74    0.59
  17   3  -3    1.25    0.89
  16   3  -3    0.36    0.06
  15   3  -3    0.51    0.42
  14   3  -3   -0.13    0.20
  13   3  -3   -0.66    0.53
  13   3  -3   -0.37    0.44
  12   3  -3    0.21    0.29
  12   3  -3    0.08    0.33
  11   3  -3    0.42    0.23
  11   3  -3    1.37    0.72
 -10  -3   3    6.44    1.07
  10   3  -3    6.69    1.23
  -9  -3   3   18.16    2.12
  -9  -3   3   18.28    1.81
  -8  -3   3    9.22    1.49
  -8  -3   3    9.93    1.28
  -7  -3   3    4.14    0.86
  -7  -3   3    3.99    0.92
  -6  -3   3    1.43    0.51
  -6  -3   3    1.53    0.60
  -5  -3   3   17.29    1.87
  -5  -3   3   15.44    1.67
  -4  -3   3   13.88    1.60
  -4  -3   3   12.27    1.47
  -3  -3   3    7.00    1.12
  -3  -3   3    6.50    0.90
  -3  -3   3    7.36    1.11
  -2  -3   3    4.62    0.83
  -2  -3   3    4.94    0.91
  -2  -3   3    4.97    0.78
  -1  -3   3   14.01    1.39
  -1  -3   3   12.89    1.40
  -1  -3   3   12.96    1.51
   1   3  -3   16.02    1.26
   0  -3   3   30.68    2.10
   0  -3   3   30.53    2.09
   0  -3   3   31.12    2.31
   1  -3   3   39.16    2.25
   1  -3   3   41.19    2.54
   1  -3   3   41.94    2.71
   2  -3   3    7.06    0.90
   2  -3   3    7.91    1.16
   2  -3   3    6.81    1.08
   3  -3   3    2.72    0.66
   3  -3   3    2.87    0.53
   3  -3   3    2.57    0.70
   4  -3   3    8.34    0.85
   4  -3   3    8.53    1.21
   4  -3   3    9.36    1.34
   5  -3   3   -0.03    0.15
   5  -3   3    0.33    0.15
   5  -3   3    0.62    0.49
   6  -3   3   18.34    2.02
   6  -3   3   16.15    1.68
   7  -3   3   10.98    1.65
   7  -3   3   10.86    1.41
   8  -3   3    5.27    0.95
   8  -3   3    6.59    1.40
   9  -3   3    1.26    0.60
  10  -3   3    2.91    0.94
  11  -3   3    2.38    0.91
  12  -3   3   -0.06    0.38
  13  -3   3    0.75    0.51
  14  -3   3    0.25    0.05
  15  -3   3   -0.04    0.25
  16  -3   3   -0.21    0.14
  16   4  -3    0.00    0.35
  15   4  -3    0.77    0.90
  14   4  -3    0.67    0.57
  13   4  -3   -0.64    0.67
  12   4  -3   -0.92    0.51
 -11  -4   3    0.17    0.24
  11   4  -3    1.16    0.75
 -10  -4   3    1.48    0.57
  10   4  -3    1.38    0.66
   9   4  -3    2.75    1.02
  -9  -4   3    0.83    0.41
   8   4  -3    0.35    0.19
  -8  -4   3    0.21    0.17
  -7  -4   3    5.43    1.06
   7   4  -3    6.37    1.24
  -6  -4   3   13.92    1.74
   6   4  -3   18.49    2.14
  -5  -4   3    5.61    1.14
  -5  -4   3    5.48    1.05
   5   4  -3    5.39    1.05
   4   4  -3    7.38    1.17
  -4  -4   3    7.17    1.23
  -4  -4   3    7.17    1.23
   4   4  -3    7.90    1.25
  -3  -4   3    0.28    0.36
  -3  -4   3    0.12    0.03
   3   4  -3    0.22    0.15
  -3  -4   3    0.33    0.24
   3   4  -3    0.72    0.43
  -2  -4   3    2.66    0.71
  -2  -4   3    2.22    0.70
   2   4  -3    2.83    0.63
   2   4  -3    3.15    0.70
  -2  -4   3    2.62    0.60
  -1  -4   3   11.72    1.44
   1   4  -3   13.45    1.15
  -1  -4   3   12.74    1.40
  -1  -4   3   13.53    1.70
   0  -4   3    8.02    1.13
   0  -4   3    7.80    1.10
   0  -4   3    8.19    1.32
   1  -4   3    3.24    0.72
   1  -4   3    3.06    0.77
   1  -4   3    2.85    0.70
   2  -4   3    0.32    0.36
   2  -4   3    0.16    0.09
   2  -4   3   -0.33    0.38
  -2   4  -3    0.17    0.13
   3  -4   3    1.79    0.64
   3  -4   3    1.66    0.63
   4  -4   3    0.16    0.12
   4  -4   3    0.53    0.36
   5  -4   3    2.66    0.76
   5  -4   3    3.15    0.87
   6  -4   3    7.34    1.24
   6  -4   3    7.00    1.34
   7  -4   3    2.81    0.80
   7  -4   3    3.15    0.87
   8  -4   3    3.68    0.86
   8  -4   3    4.83    1.14
   9  -4   3   -0.02    0.09
   9  -4   3    0.41    0.45
  10  -4   3    1.56    0.78
  11  -4   3    1.23    0.80
  12  -4   3    1.60    0.82
  13  -4   3    1.43    0.79
  14  -4   3    0.78    0.64
  15   5  -3   -0.61    0.67
  15   5  -3    0.61    0.92
  14   5  -3    1.06    1.08
  14   5  -3    0.91    0.74
  13   5  -3    0.22    1.93
  13   5  -3    0.17    0.21
  12   5  -3    0.44    0.52
  12   5  -3    0.62    0.63
  11   5  -3    2.25    1.10
 -11  -5   3    0.65    0.43
  11   5  -3    1.35    1.03
  10   5  -3   -0.39    0.53
 -10  -5   3    0.04    0.24
  10   5  -3    0.20    0.13
   9   5  -3    0.41    0.44
  -9  -5   3    0.44    0.33
   9   5  -3    0.67    0.48
   8   5  -3    0.60    0.21
  -8  -5   3    0.37    0.26
   8   5  -3    0.35    0.47
   7   5  -3    0.13    0.15
  -7  -5   3    0.07    0.04
  -6  -5   3    4.94    1.16
   6   5  -3    6.38    1.51
   6   5  -3    4.58    1.16
   5   5  -3    1.61    0.63
  -5  -5   3    0.98    0.48
   5   5  -3    1.54    0.69
  -4  -5   3    6.54    1.29
   4   5  -3    8.05    1.35
   4   5  -3    8.03    1.44
  -3  -5   3    0.44    0.21
   3   5  -3    0.30    0.34
  -3  -5   3    0.69    0.36
  -2  -5   3    1.92    0.64
  -2  -5   3    2.55    0.64
  -1  -5   3    0.92    0.49
  -1  -5   3    0.79    0.38
   0  -5   3    1.40    0.61
   0  -5   3    1.29    0.47
   1  -5   3    9.81    1.37
   1  -5   3   10.47    1.64
   2  -5   3    4.99    1.13
   2  -5   3    4.77    1.04
   3  -5   3    5.17    1.15
   3  -5   3    4.45    1.03
   4  -5   3    2.50    0.79
   4  -5   3    2.70    0.79
   5  -5   3    4.06    1.01
   5  -5   3    3.93    1.01
   6  -5   3    1.13    0.52
   6  -5   3    0.83    0.45
   7  -5   3    0.22    0.17
   7  -5   3    0.32    0.34
   8  -5   3   -0.10    0.17
   8  -5   3   -0.21    0.34
   9  -5   3    0.29    0.17
   9  -5   3    0.57    0.39
  10  -5   3    0.22    0.51
  11  -5   3    0.61    0.62
  12  -5   3    0.39    0.26
  13  -5   3    0.70    0.61
  13   6  -3   -0.68    0.73
  12   6  -3    0.59    0.62
 -11  -6   3   -0.15    0.22
  11   6  -3    0.00    0.60
 -10  -6   3   -0.11    0.33
  10   6  -3    0.41    0.48
  -9  -6   3    0.33    0.32
   9   6  -3    0.64    0.38
  -8  -6   3   -0.07    0.33
   8   6  -3    0.65    0.54
  -7  -6   3    0.30    0.20
   7   6  -3    0.71    0.61
  -6  -6   3    0.51    0.30
   6   6  -3   -0.01    0.25
  -5  -6   3   -0.15    0.31
  -4  -6   3    1.37    0.66
  -3  -6   3    1.34    0.63
  -2  -6   3    0.33    0.30
  -1  -6   3    0.75    0.51
   0  -6   3    0.82    0.46
   1  -6   3    0.61    0.41
   1  -6   3    0.49    0.23
   2  -6   3    1.46    0.63
   2  -6   3    1.62    0.65
   3  -6   3    0.84    0.47
   3  -6   3    0.62    0.39
   4  -6   3   -0.29    0.48
   4  -6   3   -0.01    0.28
   5  -6   3    0.24    0.29
   5  -6   3    0.41    0.43
   6  -6   3    0.09    0.29
   6  -6   3   -0.20    0.25
   7  -6   3   -0.01    0.05
   7  -6   3    0.43    0.38
   8  -6   3   -0.09    0.21
   8  -6   3   -0.32    0.40
   9  -6   3    0.47    0.45
   9  -6   3    0.26    0.36
  10  -6   3   -0.26    0.24
  11  -6   3    0.10    0.11
  11   7  -3    0.34    0.52
 -10  -7   3    0.23    0.35
  10   7  -3    0.05    0.18
  -9  -7   3    0.14    0.15
   9   7  -3   -0.20    0.50
  -8  -7   3   -0.54    0.55
  -7  -7   3    0.11    0.16
  -6  -7   3    0.14    0.29
  -5  -7   3   -0.68    0.55
  -4  -7   3    0.03    0.29
  -3  -7   3   -0.17    0.42
  -2  -7   3    0.24    0.37
  -1  -7   3    0.05    0.06
   0  -7   3    0.90    0.64
   1  -7   3    0.51    0.37
   2  -7   3   -0.39    0.42
   3  -7   3    0.56    0.96
   4  -7   3    0.54    0.53
   5  -7   3    0.02    0.19
   5  -7   3    0.34    0.34
   6  -7   3    0.55    0.51
   6  -7   3    0.69    0.51
   7  -7   3    0.31    0.28
   7  -7   3   -0.12    0.28
   8  -7   3   -0.17    0.25
   8  -7   3   -0.06    0.09
   9  -7   3    0.08    0.18
  -5  -8   3    0.10    0.15
  -4  -8   3    0.04    0.35
  -3  -8   3   -0.09    0.29
  -2  -8   3    0.45    0.48
  -1  -8   3    0.12    0.27
   0  -8   3    1.32    0.83
   1  -8   3    0.96    0.63
   2  -8   3    0.70    0.60
   3  -8   3    0.12    0.30
   4  -8   3   -0.10    0.14
   5  -8   3   -0.10    0.29
  -4   8   4   -0.17    0.16
  -3   8   4   -0.26    0.33
  -2   8   4    0.05    0.14
  -1   8   4    0.42    0.43
   0   8   4   -0.09    0.39
   1   8   4   -0.25    0.15
   2   8   4    0.42    0.59
  11  -7  -4    0.48    0.55
  10  -7  -4    0.17    0.14
  10  -7  -4    0.42    0.51
   9  -7  -4    0.79    0.60
   8  -7  -4    0.51    0.72
   7  -7  -4   -0.20    0.38
   6  -7  -4    0.21    0.19
   5  -7  -4    0.52    0.49
  -4   7   4    0.19    0.32
   4  -7  -4   -0.07    0.53
  -3   7   4   -0.12    0.27
   3  -7  -4   -0.91    0.71
  -2   7   4    0.35    0.33
   2  -7  -4    0.39    0.56
  -1   7   4    0.59    0.44
   1  -7  -4    0.40    0.43
   0   7   4    0.86    0.64
   0  -7  -4    0.82    0.48
   1   7   4    1.98    1.01
  -1  -7  -4    1.14    0.76
   2   7   4    0.09    0.35
  -2  -7  -4    1.62    0.80
  -3  -7  -4   -0.10    0.42
   4   7   4   -0.16    0.40
  -4  -7  -4    0.61    0.77
   5   7   4    0.86    0.53
  -5  -7  -4    0.58    0.60
   6   7   4    0.48    0.61
  -6  -7  -4    0.24    0.53
   7   7   4   -0.33    0.44
  -7  -7  -4    0.20    0.26
   8   7   4    0.44    0.47
  -8  -7  -4   -0.27    0.36
  12  -6  -4   -0.64    0.75
  11  -6  -4   -0.12    0.48
  11  -6  -4   -0.13    0.08
  10  -6  -4    0.36    0.31
  10  -6  -4    0.52    0.52
   9  -6  -4    0.02    0.09
   9  -6  -4    0.64    0.55
   8  -6  -4    0.03    0.22
   8  -6  -4    0.70    0.61
   7  -6  -4    0.40    0.55
   6  -6  -4    0.95    0.75
   5  -6  -4    3.20    1.20
  -5   6   4    2.00    0.74
  -4   6   4    0.74    0.57
   4  -6  -4   -0.33    0.44
  -3   6   4    0.87    0.48
   3  -6  -4    1.22    0.79
  -2   6   4    0.50    0.35
   2  -6  -4    0.63    0.47
  -1   6   4    2.11    0.90
   1  -6  -4    2.56    1.05
   0   6   4    0.55    0.30
   0  -6  -4    0.43    0.26
   1   6   4    0.65    0.44
  -1  -6  -4    1.75    0.86
  -2  -6  -4    0.50    0.47
   3   6   4    0.55    0.43
  -3  -6  -4    1.14    0.88
   4   6   4    0.51    0.35
  -4  -6  -4    1.20    0.77
   5   6   4    0.23    0.13
  -5  -6  -4    0.02    0.39
   6   6   4    0.65    0.34
  -6  -6  -4   -0.03    0.20
   7   6   4    0.34    0.38
  -7  -6  -4   -0.13    0.33
   8   6   4   -0.22    0.34
  -8  -6  -4    0.00    0.21
   9   6   4    0.05    0.13
  10   6   4   -0.99    0.75
  15  -5  -4   -0.21    0.14
  14  -5  -4   -0.38    0.23
  13  -5  -4   -0.48    0.47
  12  -5  -4   -0.30    0.12
  11  -5  -4    0.27    0.37
  11  -5  -4   -0.22    0.42
  10  -5  -4    0.26    0.43
  10  -5  -4   -0.23    0.33
   9  -5  -4    0.03    0.35
   9  -5  -4    0.14    0.29
   8  -5  -4    0.19    0.34
   8  -5  -4    0.46    0.35
  -7   5   4    0.86    0.41
   7  -5  -4    1.90    0.77
   7  -5  -4    1.95    0.88
   6  -5  -4    2.45    0.87
   6  -5  -4    1.88    0.61
  -5   5   4    2.32    0.78
   5  -5  -4    2.52    0.83
   5  -5  -4    2.68    1.02
   4  -5  -4   10.43    2.07
   4  -5  -4    8.73    1.42
  -4   5   4    8.10    1.48
   3  -5  -4    9.41    1.97
   3  -5  -4    6.84    1.14
  -3   5   4    7.24    1.47
   2  -5  -4    4.29    1.28
  -2   5   4    3.50    0.94
   1  -5  -4    3.75    1.26
  -1   5   4    2.96    0.88
   0  -5  -4    4.02    1.26
   0   5   4    1.64    0.67
  -1  -5  -4    7.23    1.73
   2   5   4    7.33    1.38
  -2  -5  -4   11.54    2.19
   3   5   4    1.17    0.59
  -3  -5  -4    2.62    0.97
   4   5   4    0.37    0.08
  -4  -5  -4   -0.32    0.49
   5   5   4    2.68    0.94
  -5  -5  -4    3.25    1.06
   6   5   4    0.49    0.38
  -6  -5  -4    0.77    0.52
   7   5   4    0.86    0.54
  -7  -5  -4   -0.33    0.27
   8   5   4    0.20    0.31
  -8  -5  -4   -0.29    0.46
  -9  -5  -4    0.26    0.38
   9   5   4    0.04    0.21
  10   5   4    0.07    0.41
  11   5   4    0.83    0.67
  12   5   4    0.84    0.66
  16  -4  -4    0.87    0.70
  15  -4  -4    0.02    0.16
  14  -4  -4    1.09    0.84
  13  -4  -4    0.23    0.33
  12  -4  -4    0.06    0.25
  11  -4  -4   -1.02    0.72
  11  -4  -4    0.08    0.15
  10  -4  -4   -0.15    0.39
  10  -4  -4    0.62    0.46
   9  -4  -4    3.00    0.95
   9  -4  -4    3.46    1.06
   8  -4  -4   13.53    2.08
  -8   4   4    9.64    1.24
   8  -4  -4   17.07    2.32
   7  -4  -4    0.82    0.60
  -7   4   4    0.44    0.32
   6  -4  -4    0.15    0.09
  -6   4   4   -0.28    0.30
   5  -4  -4   17.51    2.11
   4  -4  -4    4.14    0.92
  -4   4   4    4.05    0.92
   3  -4  -4    0.84    0.41
  -3   4   4    1.41    0.50
  -2   4   4    0.36    0.29
  -1   4   4    4.83    1.13
   0   4   4    6.75    1.30
   1   4   4    6.08    1.14
   2   4   4    5.32    1.07
   3   4   4    6.69    1.20
   4   4   4    0.74    0.46
   5   4   4    7.37    1.46
  -6  -4  -4    0.85    0.64
   6   4   4    0.31    0.36
   7   4   4    0.49    0.47
  -7  -4  -4    0.62    0.35
   8   4   4    0.52    0.27
  -8  -4  -4    1.02    0.48
  -9  -4  -4    1.00    0.55
   9   4   4    0.97    0.69
  10   4   4    0.84    0.65
  11   4   4    1.55    0.88
  12   4   4    0.66    0.52
  13   4   4    0.20    0.34
  17  -3  -4   -0.46    0.61
  16  -3  -4   -0.24    0.67
  15  -3  -4    0.91    0.86
  14  -3  -4    0.98    0.76
  13  -3  -4    1.78    0.98
  12  -3  -4    0.15    0.54
  11  -3  -4    0.02    0.05
  11  -3  -4   -0.06    0.36
 -10   3   4    3.50    0.72
  10  -3  -4    5.35    1.45
   9  -3  -4    4.70    1.24
  -9   3   4    3.04    0.66
  -8   3   4   13.95    1.47
   8  -3  -4   18.92    2.42
  -7   3   4   11.04    1.27
   7  -3  -4   16.42    2.22
  -6   3   4    8.52    1.17
  -5   3   4    0.90    0.42
  -4   3   4    0.48    0.35
  -3   3   4   17.16    1.83
  -2   3   4   11.33    1.55
  -1   3   4   32.72    2.53
   0   3   4    1.12    0.55
   1   3   4   12.31    1.53
   2   3   4    1.90    0.57
   3   3   4    4.20    0.96
   4   3   4   17.25    1.97
   5   3   4    4.54    1.00
   6   3   4   13.12    1.90
   7   3   4    0.74    0.31
   7   3   4    1.11    0.48
   8   3   4    2.69    0.92
   9   3   4    0.98    0.62
  -9  -3  -4    0.83    0.42
  10   3   4   -0.18    0.20
  11   3   4    1.14    0.63
  12   3   4   -0.42    0.29
  13   3   4    0.13    0.29
  14   3   4   -0.05    0.09
  15   3   4    0.36    0.33
  19  -2  -4    0.00    0.34
  18  -2  -4    0.71    0.64
  17  -2  -4   -0.98    0.73
  16  -2  -4    2.15    0.91
  15  -2  -4    0.17    0.36
  14  -2  -4   -1.06    0.57
  13  -2  -4    2.54    1.00
 -12   2   4    1.40    0.43
  12  -2  -4    4.14    1.35
  11  -2  -4    1.36    0.71
 -11   2   4    0.58    0.30
  10  -2  -4    2.44    1.04
 -10   2   4    1.70    0.50
   9  -2  -4    3.09    0.97
  -9   2   4    1.27    0.42
  -8   2   4    2.92    0.64
  -7   2   4    2.55    0.59
  -6   2   4    9.84    1.18
  -5   2   4   12.44    1.33
  -4   2   4   97.27    3.83
  -3   2   4   24.93    2.00
  -2   2   4   11.86    1.36
  -1   2   4   20.48    1.82
   0   2   4   15.68    1.57
   1   2   4   54.34    2.95
   2   2   4   24.34    2.02
   3   2   4   10.61    1.33
   4   2   4   47.34    3.06
   4   2   4   42.56    2.42
   5   2   4    1.18    0.40
   5   2   4    1.26    0.61
   6   2   4    1.50    0.44
   6   2   4    1.81    0.54
   7   2   4    5.70    0.98
   7   2   4    5.10    1.13
   8   2   4   11.36    1.71
   8   2   4    9.04    1.31
   9   2   4    2.72    0.81
   9   2   4    1.96    0.63
  10   2   4    4.50    1.18
  10   2   4    4.80    1.15
  10   2   4    2.89    0.80
  11   2   4    0.58    0.31
  11   2   4    0.18    0.27
  12   2   4    1.54    0.62
  12   2   4    0.24    0.07
  13   2   4   -0.11    0.21
  13   2   4    0.65    0.52
  14   2   4    0.10    0.41
  14   2   4   -0.56    0.39
  15   2   4    0.34    0.31
  15   2   4    1.08    0.70
  16   2   4    0.21    0.34
  16   2   4    0.24    0.30
  19  -1  -4    0.00    0.12
  19  -1  -4   -0.17    0.20
  18  -1  -4    0.73    0.88
  17  -1  -4    0.96    0.68
  16  -1  -4   -0.31    0.30
  15  -1  -4    0.15    0.38
  14  -1  -4    0.92    0.62
 -13   1   4    0.53    0.32
  13  -1  -4    0.49    0.12
 -12   1   4    1.90    0.55
  12  -1  -4    3.13    1.17
 -11   1   4    4.55    0.87
  11  -1  -4    7.04    1.64
 -10   1   4   15.16    1.57
  10  -1  -4   24.41    2.94
  -9   1   4   22.09    1.87
  -8   1   4   12.26    1.38
  -7   1   4    5.65    0.91
  -6   1   4   34.25    2.25
  -5   1   4    3.17    0.67
  -4   1   4  127.90    4.20
  -3   1   4   22.17    1.73
  -2   1   4   18.91    1.64
  -2   1   4   18.58    1.53
  -1   1   4    8.05    0.99
   0   1   4    2.85    0.59
   1   1   4   19.06    1.52
   1   1   4   20.25    1.60
   2   1   4  120.58    4.17
   2   1   4  122.92    4.11
   3   1   4   80.03    3.48
   3   1   4   82.40    3.44
   4   1   4    5.64    0.95
   4   1   4    5.91    0.92
   5   1   4    2.35    0.65
   5   1   4    2.46    0.66
   6   1   4   11.18    1.47
   6   1   4   10.73    1.35
   7   1   4    0.68    0.25
   7   1   4    0.66    0.37
   8   1   4   15.98    1.95
   8   1   4   13.96    1.55
   8   1   4   14.90    1.76
   9   1   4    3.87    0.99
   9   1   4    3.51    0.79
   9   1   4    3.43    0.87
  10   1   4    0.93    0.51
  10   1   4    0.05    0.07
  10   1   4    0.74    0.38
  11   1   4    2.28    0.81
  11   1   4    2.18    0.65
  11   1   4    2.01    0.71
  12   1   4    1.89    0.73
  12   1   4    0.85    0.46
  12   1   4    1.30    0.62
  13   1   4    0.96    0.61
  13   1   4    0.42    0.39
  13   1   4    0.64    0.45
  14   1   4    0.11    0.25
  14   1   4    0.19    0.31
  14   1   4    0.22    0.31
  15   1   4    0.13    0.22
  16   1   4    0.46    0.52
  17   1   4   -0.40    0.41
  19   0  -4    0.37    0.55
  19   0  -4   -0.27    0.43
  18   0  -4    0.25    0.26
  18   0  -4   -0.51    0.56
  17   0  -4    1.79    1.02
  16   0  -4    1.07    0.45
 -15   0   4    0.11    0.20
  15   0  -4    0.55    0.60
 -14   0   4    0.55    0.33
  14   0  -4    2.06    1.04
 -13   0   4    0.56    0.32
  13   0  -4    2.13    0.94
  12   0  -4    2.28    0.99
 -12   0   4    2.01    0.63
 -11   0   4    1.51    0.51
  11   0  -4    3.33    1.17
 -10   0   4   20.54    1.92
  -9   0   4   15.20    1.62
  -8   0   4   24.92    2.04
  -7   0   4   18.65    1.72
  -6   0   4   17.35    1.69
  -5   0   4   69.20    3.23
  -4   0   4  229.08    5.78
  -3   0   4   34.64    2.20
  -2   0   4   23.65    1.80
  -1   0   4   61.33    2.82
   0   0   4   41.93    2.34
   0   0   4   40.99    1.89
   0   0   4   47.07    2.60
   1   0   4   62.71    2.91
   1   0   4   67.20    3.16
   1   0   4   60.41    2.34
   2   0   4   24.73    1.95
   3   0   4   92.64    3.40
   3   0   4   96.92    3.89
   4   0   4  131.02    4.19
   4   0   4  132.89    4.65
   5   0   4   92.88    3.64
   5   0   4   95.90    4.13
   6   0   4   28.43    2.13
   6   0   4   30.27    2.41
   7   0   4   -0.06    0.13
   7   0   4    0.07    0.12
   8   0   4    0.59    0.36
   8   0   4    0.46    0.16
   8   0   4    0.16    0.16
   9   0   4    0.69    0.40
   9   0   4    0.94    0.40
   9   0   4    0.74    0.41
  10   0   4    1.88    0.64
  10   0   4    1.28    0.48
  10   0   4    1.58    0.64
  11   0   4    2.55    0.74
  11   0   4    2.35    0.68
  11   0   4    3.08    0.94
  12   0   4    1.42    0.60
  12   0   4    0.71    0.41
  12   0   4    1.16    0.68
  13   0   4    0.30    0.20
  13   0   4    0.52    0.35
  14   0   4    5.88    1.38
  14   0   4    6.32    1.56
  15   0   4    0.49    0.45
  15   0   4    0.15    0.22
  16   0   4   -0.07    0.29
  16   0   4    0.28    0.40
  20   1  -4   -0.60    0.60
  19   1  -4    0.00    0.22
  18   1  -4    1.93    1.14
  18   1  -4    0.28    0.56
  17   1  -4    1.46    0.85
  17   1  -4    1.03    0.69
  16   1  -4    0.07    0.17
  15   1  -4    0.05    0.32
 -14  -1   4    0.40    0.28
  14   1  -4    0.70    0.49
 -13  -1   4    0.90    0.40
  13   1  -4    1.26    0.74
 -12  -1   4    2.48    0.73
  12   1  -4    3.61    1.17
 -11  -1   4    5.39    1.09
  11   1  -4    7.47    1.59
 -10  -1   4   16.81    1.87
  -9  -1   4   24.12    2.15
  -8  -1   4   14.12    1.60
  -7  -1   4    5.64    0.99
  -6  -1   4   37.21    2.54
  -5  -1   4    2.76    0.68
  -4  -1   4  136.13    4.62
  -3  -1   4   22.53    1.84
  -2  -1   4   20.78    1.74
  -1  -1   4    8.67    1.11
  -1  -1   4    8.57    1.12
   0  -1   4    2.44    0.57
   0  -1   4    2.87    0.70
   1  -1   4   20.77    1.63
   1  -1   4   21.98    1.83
   2  -1   4  114.94    3.83
  -2   1  -4  110.07    2.63
   2  -1   4  106.99    2.29
   3  -1   4   71.94    2.93
   3  -1   4   71.23    1.92
   4  -1   4    5.58    0.79
   4  -1   4    4.04    0.68
   4  -1   4    5.10    0.96
   5  -1   4    2.09    0.48
   5  -1   4    1.61    0.42
   5  -1   4    2.80    0.72
   6  -1   4    8.63    1.06
   6  -1   4    9.48    1.09
   6  -1   4   11.02    1.54
   7  -1   4    0.53    0.25
   7  -1   4    0.42    0.20
   7  -1   4    0.63    0.44
   8  -1   4   11.36    1.23
   8  -1   4   15.09    1.53
   8  -1   4   10.45    1.09
   8  -1   4   15.43    2.00
   9  -1   4    3.86    0.81
   9  -1   4    2.14    0.51
   9  -1   4    2.37    0.59
   9  -1   4    3.87    1.03
  10  -1   4    0.63    0.43
  10  -1   4    0.55    0.34
  11  -1   4    2.38    0.83
  11  -1   4    1.83    0.55
  12  -1   4    1.17    0.59
  12  -1   4    1.29    0.62
  13  -1   4    0.89    0.60
  13  -1   4    0.47    0.32
  14  -1   4    0.32    0.14
  15  -1   4    0.57    0.45
  16  -1   4   -0.11    0.22
  17  -1   4    0.07    0.18
  18   2  -4    1.06    0.93
  17   2  -4    0.03    0.11
  17   2  -4    0.69    0.75
  16   2  -4    1.27    0.72
  16   2  -4    2.50    1.20
  15   2  -4    1.01    0.67
  15   2  -4    1.71    0.96
  14   2  -4    0.55    0.65
 -13  -2   4    0.39    0.26
  13   2  -4    1.19    0.60
 -12  -2   4    1.74    0.67
  12   2  -4    2.55    0.90
 -11  -2   4    0.89    0.41
 -10  -2   4    1.93    0.63
  -9  -2   4    1.10    0.48
  -8  -2   4    3.78    0.88
  -7  -2   4    2.57    0.76
  -6  -2   4   11.43    1.49
  -5  -2   4   13.20    1.59
  -4  -2   4   99.26    4.23
  -3  -2   4   26.73    2.11
  -2  -2   4   11.29    1.34
  -2  -2   4   10.54    1.27
  -2  -2   4   10.64    1.35
  -1  -2   4   19.42    1.70
  -1  -2   4   20.71    1.80
  -1  -2   4   19.38    1.85
   0  -2   4   14.29    1.41
   0   2  -4   12.84    0.92
   0  -2   4   15.59    1.60
   0  -2   4   13.92    1.56
   1  -2   4   51.44    2.67
   1  -2   4   52.92    2.98
   2  -2   4   23.53    1.99
   2  -2   4   22.52    1.69
   3  -2   4    9.22    1.05
   3  -2   4   10.03    1.37
   4  -2   4   40.19    2.18
   4  -2   4   50.53    3.24
   5  -2   4    0.67    0.25
   5  -2   4    1.16    0.43
   6  -2   4    1.67    0.38
   6  -2   4    1.11    0.36
   6  -2   4    1.79    0.64
   7  -2   4    3.40    0.57
   7  -2   4    4.09    0.65
   7  -2   4    5.57    1.17
   8  -2   4    7.38    0.95
   8  -2   4    9.43    1.62
   9  -2   4    1.76    0.46
   9  -2   4    2.65    0.92
  10  -2   4    4.87    1.22
  11  -2   4   -0.10    0.23
  12  -2   4    0.26    0.42
  13  -2   4    0.75    0.54
  14  -2   4    0.32    0.42
  15  -2   4    0.65    0.51
  16  -2   4   -0.18    0.21
  17   3  -4   -0.10    0.26
  16   3  -4    1.19    0.84
  15   3  -4    0.30    0.33
  14   3  -4    0.24    0.31
  13   3  -4    0.51    0.57
  13   3  -4    2.80    1.27
  12   3  -4    0.79    0.55
 -11  -3   4   -0.04    0.30
  11   3  -4    0.89    0.60
 -10  -3   4    4.42    1.09
  -9  -3   4    4.02    1.03
  -8  -3   4   15.93    2.07
  -8  -3   4   15.30    1.75
  -7  -3   4   13.54    1.84
  -7  -3   4   13.21    1.63
  -6  -3   4    9.67    1.49
  -6  -3   4    9.60    1.41
  -5  -3   4    0.98    0.46
  -5  -3   4    0.81    0.37
  -4  -3   4    0.34    0.15
  -4  -3   4    0.17    0.10
  -3  -3   4   16.61    1.78
  -3  -3   4   15.92    1.59
  -3  -3   4   16.49    1.75
  -2  -3   4   11.48    1.41
  -2  -3   4    9.98    1.28
  -2  -3   4   10.55    1.39
  -1  -3   4   27.94    2.16
  -1  -3   4   29.62    2.24
  -1  -3   4   27.92    2.30
   0  -3   4    1.08    0.48
   0   3  -4    0.89    0.26
   0  -3   4    0.52    0.19
   0  -3   4    0.94    0.44
   1  -3   4   11.76    1.45
   1  -3   4   10.71    1.26
   1  -3   4   10.93    1.42
   2  -3   4    0.56    0.23
   2  -3   4    0.91    0.33
   2  -3   4    0.72    0.32
   3  -3   4    3.65    0.85
   3  -3   4    3.33    0.62
   3  -3   4    4.14    0.92
   4  -3   4   12.77    1.18
   4  -3   4   17.09    1.95
   4  -3   4   14.83    1.73
   5  -3   4    3.52    0.59
   5  -3   4    4.36    0.93
   5  -3   4    5.69    1.18
   6  -3   4   12.36    1.82
   7  -3   4    1.27    0.55
   8  -3   4    3.73    1.01
   9  -3   4    1.37    0.70
  10  -3   4    0.28    0.22
  11  -3   4    0.76    0.46
  12  -3   4    0.69    0.59
  13  -3   4    0.13    0.22
  14  -3   4   -0.08    0.34
  15  -3   4   -0.53    0.54
  16   4  -4   -0.46    0.62
  15   4  -4    0.95    0.80
  14   4  -4    0.85    0.65
  13   4  -4    0.25    0.25
  12   4  -4   -0.56    0.26
  11   4  -4    0.38    0.37
 -10  -4   4    0.06    0.17
  10   4  -4    0.66    0.60
  -9  -4   4    2.98    0.84
  -9  -4   4    3.05    0.90
   9   4  -4    3.52    1.18
  -8  -4   4   14.01    1.92
   8   4  -4   15.71    2.30
  -8  -4   4   12.65    1.69
  -7  -4   4    0.91    0.51
  -7  -4   4    0.37    0.29
   7   4  -4    0.45    0.33
  -6  -4   4    0.10    0.15
  -6  -4   4   -0.45    0.34
  -5  -4   4   15.81    1.99
  -5  -4   4   13.55    1.75
  -4  -4   4    3.58    0.88
  -4  -4   4    3.31    0.85
  -3  -4   4    0.88    0.48
  -3  -4   4    1.63    0.60
   3   4  -4    1.57    0.53
  -3  -4   4    1.35    0.50
  -2  -4   4    0.41    0.20
  -2  -4   4    0.42    0.27
   2   4  -4    0.67    0.30
  -2  -4   4    0.32    0.11
  -1  -4   4    4.96    1.03
  -1  -4   4    4.19    0.92
   1   4  -4    4.27    0.68
  -1  -4   4    3.94    0.85
   0  -4   4    5.26    1.08
   0  -4   4    5.59    1.03
   0   4  -4    5.07    0.61
   0  -4   4    6.01    1.10
   1  -4   4    5.32    1.02
   1  -4   4    5.13    0.94
   1  -4   4    5.09    1.02
   2  -4   4    4.16    0.95
   2  -4   4    3.85    0.76
   2  -4   4    4.58    0.99
   3  -4   4    5.08    0.84
   3  -4   4    5.94    1.15
   3  -4   4    5.70    1.11
   4  -4   4    0.56    0.41
   4  -4   4    0.46    0.25
   4  -4   4    0.99    0.50
   5  -4   4    6.29    1.18
   5  -4   4    6.95    1.36
   6  -4   4    0.68    0.40
   6  -4   4    0.64    0.42
   7  -4   4    0.46    0.39
   7  -4   4    0.52    0.36
   8  -4   4    0.31    0.31
   8  -4   4    0.14    0.10
   9  -4   4   -0.09    0.27
  10  -4   4    0.33    0.21
  11  -4   4    1.58    0.76
  12  -4   4    0.90    0.54
  13  -4   4   -0.21    0.12
  15   5  -4    0.81    0.90
  15   5  -4    0.28    0.05
  14   5  -4   -1.05    0.74
  14   5  -4   -1.99    1.35
  13   5  -4    0.29    0.48
  13   5  -4   -0.73    0.70
  12   5  -4    0.78    0.46
 -11  -5   4    0.10    0.23
  11   5  -4    0.49    0.42
 -10  -5   4    0.05    0.18
  10   5  -4    0.25    0.42
  10   5  -4    0.32    0.52
  -9  -5   4    0.33    0.26
   9   5  -4   -0.67    0.50
  -8  -5   4    0.27    0.18
   8   5  -4    0.63    0.48
   8   5  -4    0.61    0.71
  -7  -5   4    1.94    0.69
   7   5  -4    2.13    0.89
   7   5  -4    2.22    0.92
  -6  -5   4    1.52    0.67
   6   5  -4    1.60    0.63
   6   5  -4    1.47    0.67
  -5  -5   4    1.34    0.57
   5   5  -4    1.83    0.57
   4   5  -4   10.58    1.71
   4   5  -4    8.72    1.37
  -4  -5   4    8.76    1.55
   3   5  -4    8.02    1.36
  -3  -5   4    5.70    0.99
  -3  -5   4    7.31    1.43
   3   5  -4    6.90    1.15
  -2  -5   4    2.81    0.82
  -2  -5   4    2.93    0.78
  -1  -5   4    2.07    0.74
  -1  -5   4    2.14    0.62
   0  -5   4    2.00    0.72
   0  -5   4    2.34    0.71
   1  -5   4    4.76    1.04
   1  -5   4    5.13    1.18
   2  -5   4    7.22    1.28
   2  -5   4    7.42    1.38
   3  -5   4    1.30    0.55
   3  -5   4    1.40    0.64
   4  -5   4    0.00    0.30
   4  -5   4   -0.18    0.11
   5  -5   4    2.48    0.86
   5  -5   4    2.62    0.88
   6  -5   4   -0.05    0.13
   6  -5   4    0.29    0.08
   7  -5   4    0.56    0.38
   7  -5   4    0.93    0.54
   8  -5   4    0.04    0.10
   8  -5   4   -0.25    0.26
   9  -5   4   -0.06    0.25
  10  -5   4    0.29    0.31
  11  -5   4    0.47    0.46
  12  -5   4    0.42    0.53
  14   6  -4    0.47    0.43
  13   6  -4   -0.66    0.74
  13   6  -4    0.69    0.71
  12   6  -4   -0.35    0.38
  12   6  -4   -0.60    0.70
 -11  -6   4    0.24    0.35
  11   6  -4   -0.15    0.44
 -10  -6   4    0.14    0.13
  10   6  -4    0.24    0.45
  10   6  -4    0.76    0.77
  -9  -6   4    0.12    0.02
   9   6  -4    0.42    0.29
   9   6  -4    0.24    0.28
  -8  -6   4    0.03    0.05
   8   6  -4    0.36    0.38
   8   6  -4    0.45    0.53
  -7  -6   4    0.06    0.25
   7   6  -4    0.32    0.32
  -6  -6   4    1.47    0.68
   6   6  -4    2.36    1.00
  -5  -6   4    2.76    0.94
   5   6  -4    3.53    1.13
  -4  -6   4    0.40    0.42
  -3  -6   4    0.68    0.50
  -2  -6   4    1.13    0.70
  -1  -6   4    1.75    0.78
   0  -6   4    0.28    0.36
   0  -6   4    0.18    0.10
   1  -6   4    1.16    0.71
   1  -6   4    0.54    0.38
   2  -6   4   -0.16    0.25
   2  -6   4    0.12    0.20
   3  -6   4    0.32    0.17
   3  -6   4    0.01    0.19
   4  -6   4    0.60    0.48
   4  -6   4    0.62    0.47
   5  -6   4    0.42    0.41
   5  -6   4    0.29    0.34
   6  -6   4    0.14    0.12
   6  -6   4    0.46    0.34
   7  -6   4    0.23    0.21
   7  -6   4    0.29    0.30
   8  -6   4   -0.09    0.32
   8  -6   4    0.36    0.42
   9  -6   4    0.26    0.29
  10  -6   4   -0.26    0.46
  11   7  -4    0.86    0.93
 -10  -7   4    0.23    0.25
  10   7  -4    0.49    0.63
  -9  -7   4    0.40    0.45
   9   7  -4    1.08    0.85
  -8  -7   4    0.42    0.50
  -7  -7   4    0.46    0.43
  -6  -7   4    0.00    0.23
  -5  -7   4    0.04    0.05
  -4  -7   4    0.39    0.38
  -3  -7   4    0.27    0.42
  -2  -7   4   -0.09    0.12
  -1  -7   4    0.51    0.08
   0  -7   4    1.06    0.60
   1  -7   4    2.40    0.97
   2  -7   4    1.23    0.65
   3  -7   4   -0.03    0.29
   4  -7   4    0.07    0.13
   5  -7   4   -0.34    0.52
   5  -7   4    0.34    0.37
   6  -7   4    0.39    0.38
   6  -7   4   -0.14    0.29
   7  -7   4   -0.14    0.24
   7  -7   4   -0.17    0.13
   8  -7   4   -0.15    0.35
   8  -7   4   -0.25    0.28
  -4   8   5    0.52    0.48
  -3   8   5    0.36    0.50
  -2   8   5    0.60    0.51
  -1   8   5    0.13    0.09
  10  -7  -5    0.00    0.31
   9  -7  -5   -0.18    0.49
   8  -7  -5   -0.29    0.20
   7  -7  -5    0.45    0.48
   6  -7  -5   -0.41    0.34
   5  -7  -5   -0.89    0.75
  -4   7   5    0.23    0.17
   4  -7  -5    0.47    0.66
  -3   7   5    0.48    0.49
   3  -7  -5   -1.37    0.88
  -2   7   5   -0.23    0.30
   2  -7  -5    0.97    0.64
   1  -7  -5    0.51    0.73
  -1   7   5    0.47    0.44
   0   7   5    0.09    0.35
   0  -7  -5   -0.16    0.33
   1   7   5    0.34    0.38
  -1  -7  -5   -0.68    0.87
   2   7   5    0.97    0.55
  -2  -7  -5    0.92    0.77
   3   7   5    0.29    0.42
  -3  -7  -5    0.34    0.17
   4   7   5    0.22    0.23
  -4  -7  -5    0.14    0.38
   5   7   5    0.56    0.59
  -5  -7  -5    0.45    0.58
   6   7   5    0.08    0.34
  -6  -7  -5    0.31    0.51
   7   7   5    0.00    0.08
  -7  -7  -5   -0.21    0.40
  13  -6  -5    0.56    0.62
  12  -6  -5   -0.04    0.40
  11  -6  -5    0.22    0.21
  11  -6  -5    0.31    0.45
  10  -6  -5    0.24    0.27
  10  -6  -5    0.03    0.34
   9  -6  -5   -0.38    0.57
   9  -6  -5    0.00    0.31
   8  -6  -5    1.11    0.90
   7  -6  -5    0.03    0.38
   6  -6  -5    0.21    0.53
  -5   6   5   -0.09    0.31
   5  -6  -5   -0.13    0.29
  -4   6   5    0.90    0.57
   4  -6  -5    1.89    1.03
  -3   6   5    0.23    0.08
   3  -6  -5    0.58    0.30
  -2   6   5    0.57    0.45
   2  -6  -5    0.06    0.41
  -1   6   5   -0.75    0.55
   1  -6  -5    0.45    0.75
   0   6   5    0.73    0.62
   0  -6  -5    0.68    0.66
   1   6   5    0.85    0.60
  -1  -6  -5    1.19    0.85
   2   6   5    0.79    0.45
  -2  -6  -5   -0.36    0.27
  -3  -6  -5   -0.02    0.09
   4   6   5    0.02    0.09
  -4  -6  -5    1.00    0.87
   5   6   5   -0.09    0.37
  -5  -6  -5   -0.31    0.65
   6   6   5    0.35    0.46
  -6  -6  -5    1.05    0.77
   7   6   5    1.01    0.77
  -7  -6  -5    0.40    0.50
  -8  -6  -5   -0.18    0.37
   8   6   5   -0.64    0.52
   9   6   5   -0.26    0.46
  14  -5  -5   -0.41    0.24
  13  -5  -5   -0.23    0.04
  12  -5  -5   -0.74    0.63
  11  -5  -5    0.41    0.08
  11  -5  -5    0.08    0.51
  10  -5  -5   -0.36    0.62
  10  -5  -5   -1.06    0.67
   9  -5  -5    0.53    0.56
   9  -5  -5    0.80    0.59
   8  -5  -5    1.34    0.82
   8  -5  -5    1.90    1.00
   7  -5  -5   -0.13    0.20
   7  -5  -5    0.64    0.61
  -7   5   5    0.44    0.32
   6  -5  -5    1.16    0.69
   6  -5  -5    1.31    0.69
   5  -5  -5   -0.11    0.19
  -5   5   5    0.31    0.30
   4  -5  -5    0.72    0.55
  -4   5   5    0.14    0.24
  -3   5   5    1.60    0.70
   3  -5  -5    1.65    0.68
  -2   5   5   -0.61    0.45
  -1   5   5    0.35    0.28
   0   5   5    0.45    0.44
   1   5   5    1.10    0.61
  -2  -5  -5    0.54    0.72
  -3  -5  -5    0.93    0.80
   3   5   5    0.39    0.38
  -4  -5  -5    0.50    0.38
   4   5   5    1.58    0.65
   5   5   5    1.45    0.70
  -5  -5  -5    1.68    0.92
   6   5   5    0.13    0.21
  -6  -5  -5   -0.47    0.47
   7   5   5    1.07    0.53
  -7  -5  -5    0.68    0.69
   8   5   5    0.41    0.49
  -8  -5  -5   -0.20    0.33
   9   5   5   -0.20    0.48
  10   5   5    0.03    0.20
  11   5   5    0.01    0.42
  16  -4  -5   -0.48    0.57
  15  -4  -5    0.67    0.77
  14  -4  -5    2.37    1.30
  13  -4  -5   -0.11    0.21
  12  -4  -5    0.61    0.03
  11  -4  -5    0.54    0.29
  11  -4  -5    0.38    0.65
  10  -4  -5    0.80    0.62
  -9   4   5    1.10    0.47
   9  -4  -5    1.27    0.86
   8  -4  -5    2.78    1.03
  -8   4   5    1.93    0.59
   7  -4  -5    2.75    1.02
  -7   4   5    1.65    0.57
   6  -4  -5    4.78    1.19
  -6   4   5    4.04    0.89
  -4   4   5    1.62    0.61
  -3   4   5    6.85    1.30
  -2   4   5   16.12    2.02
  -1   4   5    4.13    0.99
   0   4   5    8.19    1.45
   1   4   5    4.29    1.08
   2   4   5    3.85    0.96
   3   4   5    8.22    1.48
   4   4   5    3.91    1.03
   5   4   5    1.96    0.74
   6   4   5    0.15    0.17
   7   4   5    0.57    0.53
  -8  -4  -5    1.02    0.71
   8   4   5   -0.28    0.36
   9   4   5    0.77    0.59
  10   4   5    1.87    0.90
  11   4   5   -0.53    0.59
  12   4   5    0.59    0.62
  17  -3  -5    0.20    0.35
  16  -3  -5    0.40    0.50
  15  -3  -5    2.10    0.92
  14  -3  -5    0.71    0.10
  13  -3  -5   -0.17    0.67
  12  -3  -5    0.74    0.45
  11  -3  -5    1.64    0.87
  10  -3  -5   -0.23    0.39
 -10   3   5    0.21    0.14
  -9   3   5    8.02    1.21
   9  -3  -5   12.52    2.27
   8  -3  -5    4.30    1.33
  -8   3   5    2.14    0.59
  -7   3   5    3.94    0.82
  -6   3   5    0.47    0.31
  -5   3   5    3.91    0.86
  -4   3   5    5.60    1.08
  -3   3   5    8.32    1.31
  -2   3   5   12.36    1.65
  -1   3   5    4.77    1.01
   0   3   5    4.30    0.94
   1   3   5   12.14    1.60
   2   3   5    5.03    1.03
   3   3   5   23.20    2.29
   4   3   5   -0.13    0.35
   5   3   5    2.95    0.90
   6   3   5    1.83    0.73
   7   3   5    1.88    0.63
   8   3   5    2.08    0.83
   9   3   5    0.97    0.54
  10   3   5    0.93    0.62
  11   3   5    0.44    0.44
  12   3   5    0.47    0.57
  13   3   5    0.88    0.61
  14   3   5    0.24    0.27
  18  -2  -5    0.29    0.26
  17  -2  -5    0.54    0.36
  16  -2  -5    1.09    0.99
  15  -2  -5   -0.50    0.76
  14  -2  -5   -0.39    0.62
  13  -2  -5   -0.01    0.48
 -12   2   5   -0.04    0.19
  12  -2  -5   -0.56    0.63
  11  -2  -5    1.75    0.94
 -11   2   5    0.81    0.39
 -10   2   5    1.78    0.57
  10  -2  -5    2.32    0.96
  -9   2   5    3.76    0.81
  -8   2   5   19.82    1.90
  -7   2   5   25.70    2.15
  -6   2   5   39.77    2.66
  -5   2   5    6.66    1.07
  -4   2   5    2.55    0.67
  -3   2   5    2.72    0.75
  -3   2   5    2.72    0.68
  -2   2   5   32.79    2.38
  -1   2   5   44.84    2.82
   0   2   5    8.50    1.25
   1   2   5    4.07    0.87
   2   2   5   41.67    2.81
   3   2   5   70.78    3.78
   4   2   5   29.35    2.50
   4   2   5   25.37    2.08
   5   2   5    0.24    0.41
   5   2   5    0.08    0.09
   6   2   5    1.54    0.64
   6   2   5    0.94    0.44
   7   2   5    6.49    1.14
   7   2   5    7.80    1.41
   8   2   5    7.13    1.24
   8   2   5    8.42    1.48
   9   2   5    2.78    0.80
   9   2   5    3.77    1.03
  10   2   5    2.01    0.72
  10   2   5    2.69    0.94
  11   2   5    0.58    0.50
  12   2   5    2.42    0.89
  13   2   5    0.54    0.49
  14   2   5    1.16    0.79
  15   2   5    0.85    0.59
  18  -1  -5   -0.06    0.19
  17  -1  -5   -0.04    0.24
  16  -1  -5    0.99    0.93
  15  -1  -5    0.40    0.44
 -14   1   5    0.00    0.14
  14  -1  -5   -0.04    0.35
 -13   1   5    0.84    0.44
  13  -1  -5    0.99    0.71
 -12   1   5    0.27    0.13
  12  -1  -5    1.10    0.90
 -11   1   5    1.35    0.54
  11  -1  -5    1.57    0.84
 -10   1   5    2.65    0.69
  -9   1   5    8.23    1.24
  -8   1   5   10.14    1.36
  -7   1   5    1.44    0.48
  -6   1   5    7.61    1.18
  -5   1   5   18.82    1.82
  -4   1   5    4.10    0.83
  -3   1   5    5.78    0.97
  -2   1   5    2.97    0.66
  -2   1   5    2.80    0.66
  -1   1   5    3.38    0.70
  -1   1   5    4.26    0.86
   0   1   5    2.14    0.56
   1   1   5   29.69    2.04
   1   1   5   31.02    2.26
   2   1   5    2.14    0.54
   2   1   5    2.74    0.68
   3   1   5   20.70    1.93
   3   1   5   20.81    1.94
   4   1   5   11.03    1.42
   4   1   5   10.72    1.41
   5   1   5    0.85    0.40
   5   1   5    1.02    0.48
   6   1   5    4.29    0.96
   6   1   5    4.17    0.92
   7   1   5   -0.09    0.13
   7   1   5    0.24    0.15
   8   1   5    0.93    0.41
   8   1   5    0.75    0.41
   9   1   5    5.86    1.22
   9   1   5    5.48    1.16
  10   1   5    0.51    0.34
  10   1   5    0.89    0.53
  11   1   5    1.04    0.55
  11   1   5    0.57    0.32
  12   1   5    0.64    0.45
  12   1   5    0.98    0.57
  13   1   5    0.08    0.13
  13   1   5    0.45    0.46
  14   1   5    0.19    0.38
  15   1   5    0.67    0.61
  16   1   5    0.32    0.44
  19   0  -5   -0.24    0.52
  18   0  -5    1.27    0.90
  17   0  -5   -0.02    0.30
  16   0  -5   -0.54    0.40
 -15   0   5   -0.05    0.03
  15   0  -5    0.80    0.59
 -14   0   5    0.17    0.33
  14   0  -5    0.59    0.38
 -13   0   5    0.07    0.05
  13   0  -5    0.30    0.32
 -12   0   5   -0.19    0.11
  12   0  -5   -0.17    0.28
 -11   0   5    0.07    0.11
 -10   0   5    0.34    0.23
  -9   0   5   -0.19    0.29
  -8   0   5    0.01    0.09
  -7   0   5    0.04    0.09
  -6   0   5    0.14    0.22
  -5   0   5   -0.13    0.08
  -4   0   5   -0.10    0.17
  -3   0   5    0.06    0.28
  -2   0   5   -0.13    0.22
  -1   0   5    0.01    0.07
   0   0   5   -0.04    0.09
   0   0   5   -0.13    0.19
   0   0   5    0.07    0.22
   1   0   5    0.06    0.10
   1   0   5    0.17    0.11
   2   0   5    0.00    0.05
   2   0   5   -0.08    0.10
   3   0   5   -0.10    0.11
   3   0   5    0.21    0.28
   3   0   5    0.12    0.25
   4   0   5    0.39    0.34
   4   0   5   -0.11    0.04
   5   0   5    0.16    0.24
   5   0   5    0.03    0.17
   6   0   5   -0.11    0.18
   6   0   5   -0.28    0.26
   7   0   5    0.41    0.39
   7   0   5    0.00    0.05
   8   0   5    0.02    0.12
   8   0   5   -0.04    0.18
   9   0   5    0.49    0.30
   9   0   5    0.10    0.15
  10   0   5   -0.13    0.29
  10   0   5   -0.07    0.30
  11   0   5    0.18    0.31
  11   0   5   -0.32    0.38
  12   0   5   -0.17    0.33
  12   0   5   -0.23    0.21
  13   0   5   -0.23    0.28
  13   0   5   -0.24    0.39
  14   0   5    0.10    0.25
  14   0   5   -0.34    0.42
  15   0   5   -0.27    0.38
  16   0   5    0.00    0.21
  19   1  -5    0.03    0.15
  18   1  -5   -0.22    0.09
  18   1  -5    1.06    0.95
  17   1  -5    0.47    0.45
 -16  -1   5    0.07    0.02
  16   1  -5    1.17    0.75
 -15  -1   5   -0.09    0.12
  15   1  -5    0.04    0.31
 -14  -1   5    0.02    0.11
  14   1  -5    0.54    0.44
 -13  -1   5    0.48    0.32
  13   1  -5    2.65    1.26
 -12  -1   5    0.16    0.19
 -11  -1   5    1.00    0.44
 -10  -1   5    3.22    0.84
  -9  -1   5    8.19    1.33
  -8  -1   5    9.92    1.49
  -7  -1   5    0.98    0.42
  -6  -1   5    7.25    1.18
  -5  -1   5   18.52    1.86
  -4  -1   5    4.12    0.88
  -3  -1   5    5.67    0.99
  -2  -1   5    2.91    0.71
  -1  -1   5    4.24    0.87
  -1  -1   5    3.75    0.87
   0  -1   5    2.19    0.63
   0  -1   5    1.86    0.55
   1  -1   5   29.47    2.20
   1  -1   5   32.63    2.51
   2  -1   5    2.20    0.58
   2  -1   5    2.57    0.67
   3  -1   5   17.19    1.65
   3  -1   5   17.14    1.05
   4  -1   5    8.68    1.13
   4  -1   5    8.79    0.78
   4  -1   5   11.21    1.55
   5  -1   5    0.62    0.27
   5  -1   5    0.44    0.16
   5  -1   5    0.28    0.22
   6  -1   5    3.98    0.80
   6  -1   5    2.86    0.65
   6  -1   5    4.05    1.00
   7  -1   5    0.14    0.09
   7  -1   5    0.24    0.08
   8  -1   5    0.74    0.41
   8  -1   5    0.71    0.32
   8  -1   5    1.01    0.53
   9  -1   5    4.55    0.93
   9  -1   5    5.22    1.23
  10  -1   5    0.50    0.30
  10  -1   5    1.21    0.65
  11  -1   5    0.28    0.12
  11  -1   5    0.88    0.60
  12  -1   5    0.93    0.52
  13  -1   5    0.20    0.31
  14  -1   5    0.36    0.34
  15  -1   5   -0.08    0.21
  16  -1   5    0.03    0.33
  17   2  -5    0.46    0.11
  17   2  -5    0.91    0.89
  16   2  -5    0.69    0.68
 -15  -2   5    0.52    0.41
  15   2  -5    0.34    0.29
 -14  -2   5    0.53    0.40
  14   2  -5    0.55    0.44
 -13  -2   5    0.05    0.14
  13   2  -5   -0.04    0.13
 -12  -2   5    0.22    0.26
 -11  -2   5    1.68    0.76
 -10  -2   5    2.43    0.76
  -9  -2   5    4.08    1.01
  -8  -2   5   20.34    2.17
  -7  -2   5   29.45    2.54
  -6  -2   5   44.94    3.12
  -5  -2   5    7.47    1.23
  -4  -2   5    2.35    0.67
  -3  -2   5    2.57    0.67
  -2  -2   5   33.19    2.43
  -2  -2   5   33.98    2.50
  -1  -2   5   43.41    2.77
  -1  -2   5   44.55    2.96
   0  -2   5    7.81    1.14
   0  -2   5    8.59    1.27
   1  -2   5    3.38    0.70
   1  -2   5    4.52    0.95
   2  -2   5   37.72    2.44
   2  -2   5   44.58    3.06
   3  -2   5   62.86    3.11
   3  -2   5   69.16    3.86
   4  -2   5   23.71    1.88
   4  -2   5   29.34    2.52
   5  -2   5    0.02    0.11
   5  -2   5    0.00    0.06
   6  -2   5    0.68    0.33
   6  -2   5    1.23    0.44
   7  -2   5    5.24    0.83
   7  -2   5    7.59    1.46
   8  -2   5   10.31    1.74
   9  -2   5    3.64    1.07
  10  -2   5    2.69    0.90
  11  -2   5    0.40    0.28
  12  -2   5    2.47    0.94
  13  -2   5    0.80    0.59
  14  -2   5    0.11    0.05
  15  -2   5    0.82    0.67
  17   3  -5    0.00    0.35
  16   3  -5    0.45    0.77
  15   3  -5    0.13    0.29
  14   3  -5    0.68    0.57
 -13  -3   5    0.38    0.31
  13   3  -5   -0.18    0.26
 -12  -3   5    0.50    0.45
 -11  -3   5    1.58    0.71
 -10  -3   5    0.38    0.27
  -9  -3   5   10.19    1.72
  -8  -3   5    2.76    0.84
  -7  -3   5    4.33    1.02
  -6  -3   5    0.26    0.06
  -5  -3   5    4.38    0.97
  -4  -3   5    5.17    1.07
  -4  -3   5    4.91    1.01
  -3  -3   5    7.38    1.23
  -3  -3   5    6.82    1.16
  -3  -3   5    7.83    1.30
  -2  -3   5   10.45    1.42
  -2  -3   5   10.42    1.44
  -2  -3   5   10.69    1.54
  -1  -3   5    4.95    0.95
  -1  -3   5    4.50    0.93
  -1  -3   5    4.16    1.02
   0  -3   5    3.38    0.79
   0  -3   5    3.81    0.92
   0  -3   5    3.50    0.84
   1  -3   5    9.76    1.29
   1  -3   5   12.01    1.63
   1  -3   5   11.27    1.60
   2  -3   5    4.29    0.82
   2  -3   5    4.34    0.98
   3  -3   5   17.81    1.67
   3  -3   5   19.08    2.09
   4  -3   5    0.24    0.15
   4  -3   5    0.31    0.47
   5  -3   5    1.79    0.46
   5  -3   5    2.69    0.82
   6  -3   5    1.86    0.73
   7  -3   5    1.14    0.61
   8  -3   5    1.20    0.62
   9  -3   5    1.10    0.49
  10  -3   5    1.60    0.81
  11  -3   5    0.28    0.28
  12  -3   5   -0.16    0.25
  13  -3   5    0.29    0.44
  14  -3   5    0.13    0.28
  16   4  -5    0.50    0.77
  15   4  -5   -0.77    0.76
  14   4  -5    0.36    0.80
  13   4  -5   -1.36    0.89
  12   4  -5    0.49    0.67
 -11  -4   5    0.29    0.11
  11   4  -5    0.70    0.62
 -10  -4   5    1.25    0.61
  -9  -4   5    1.18    0.59
  -8  -4   5    3.27    0.95
  -8  -4   5    2.11    0.72
  -7  -4   5    2.45    0.81
  -7  -4   5    1.94    0.74
  -6  -4   5    4.26    1.03
  -6  -4   5    4.28    1.09
  -5  -4   5    4.91    1.12
  -5  -4   5    5.39    1.17
  -4  -4   5    1.00    0.29
  -4  -4   5    0.91    0.41
  -3  -4   5    7.66    1.36
  -3  -4   5    7.02    1.20
  -3  -4   5    7.49    1.36
  -2  -4   5   14.84    1.82
   2   4  -5   16.62    1.63
  -2  -4   5   13.27    1.68
  -2  -4   5   14.43    1.88
  -1  -4   5    4.51    1.06
  -1  -4   5    4.10    0.89
  -1  -4   5    4.53    0.97
   0  -4   5    7.26    1.34
   0  -4   5    7.45    1.21
   0  -4   5    8.00    1.35
   1  -4   5    3.96    1.04
   1  -4   5    3.63    0.83
   1  -4   5    4.59    1.02
   2  -4   5    2.62    0.82
   2  -4   5    2.43    0.63
   2  -4   5    2.90    0.82
   3  -4   5    5.25    1.13
   3  -4   5    6.07    1.00
   3  -4   5    6.90    1.30
   4  -4   5    3.14    0.91
   4  -4   5    3.25    0.93
   5  -4   5    1.41    0.56
   5  -4   5    1.71    0.68
   6  -4   5    0.56    0.54
   7  -4   5   -0.28    0.19
   8  -4   5    0.07    0.12
   9  -4   5    0.69    0.53
  10  -4   5    1.56    0.73
  11  -4   5   -0.05    0.36
  12  -4   5   -0.07    0.29
  15   5  -5   -0.42    0.13
  14   5  -5    0.18    0.57
  13   5  -5    0.22    0.54
  12   5  -5   -1.03    0.98
  11   5  -5   -0.70    0.75
  10   5  -5   -0.62    0.64
 -10  -5   5    0.33    0.31
  -9  -5   5    0.52    0.39
   9   5  -5    0.27    0.39
  -8  -5   5    1.59    0.68
  -8  -5   5    1.27    0.71
   8   5  -5    1.75    0.90
  -7  -5   5    0.23    0.23
  -7  -5   5    0.01    0.23
   7   5  -5    0.65    0.63
   7   5  -5   -0.06    0.28
  -6  -5   5    1.34    0.65
  -6  -5   5    0.86    0.49
   6   5  -5    2.15    0.83
   6   5  -5    0.96    0.35
  -5  -5   5    0.48    0.38
   5   5  -5    0.04    0.21
  -5  -5   5    0.14    0.23
   5   5  -5    0.67    0.54
  -4  -5   5    0.28    0.28
  -4  -5   5    0.40    0.42
   4   5  -5    0.64    0.40
  -3  -5   5    1.40    0.66
  -3  -5   5    1.67    0.66
  -3  -5   5    1.12    0.50
  -2  -5   5    0.27    0.30
  -2  -5   5    0.43    0.33
  -2  -5   5    0.43    0.41
  -1  -5   5    1.58    0.62
  -1  -5   5    0.77    0.47
  -1  -5   5    1.16    0.57
   0  -5   5    0.15    0.42
   0  -5   5    0.24    0.23
   0  -5   5    0.32    0.29
   1  -5   5    0.11    0.27
   1  -5   5    0.25    0.25
   1  -5   5    0.18    0.18
   2  -5   5   -0.21    0.40
   2  -5   5    0.08    0.17
   2  -5   5    0.16    0.19
   3  -5   5    0.39    0.32
   3  -5   5    0.51    0.27
   4  -5   5    0.43    0.24
   4  -5   5    0.28    0.27
   5  -5   5    1.50    0.66
   5  -5   5    1.79    0.73
   6  -5   5   -0.15    0.16
   6  -5   5   -0.15    0.28
   7  -5   5    0.11    0.26
   7  -5   5    0.24    0.32
   8  -5   5    0.31    0.28
   9  -5   5    0.20    0.31
  10  -5   5    0.05    0.16
  11  -5   5   -0.29    0.35
  13   6  -5   -0.91    1.06
  13   6  -5    0.48    0.78
  12   6  -5    0.62    0.82
  12   6  -5    0.05    0.14
  11   6  -5    0.59    0.70
  11   6  -5    0.11    0.24
 -11  -6   5    0.52    0.44
 -10  -6   5    0.21    0.24
  10   6  -5    0.85    0.79
  10   6  -5    0.00    0.50
  -9  -6   5    0.44    0.44
   9   6  -5   -0.09    0.24
  -8  -6   5    0.26    0.34
   8   6  -5   -0.30    0.57
  -7  -6   5    0.41    0.26
  -6  -6   5    0.02    0.14
  -5  -6   5    0.48    0.40
  -4  -6   5    1.00    0.54
  -3  -6   5    0.38    0.48
  -2  -6   5   -0.09    0.15
  -1  -6   5   -0.18    0.18
   0  -6   5    0.58    0.27
   0  -6   5    0.65    0.45
   1  -6   5    0.78    0.46
   1  -6   5    1.07    0.64
   2  -6   5    0.03    0.16
   2  -6   5    0.26    0.12
   3  -6   5    0.52    0.46
   3  -6   5    0.41    0.28
   4  -6   5   -0.06    0.21
   4  -6   5    0.22    0.21
   5  -6   5   -0.06    0.12
   5  -6   5    0.25    0.22
   6  -6   5    0.33    0.27
   6  -6   5    0.48    0.36
   7  -6   5    0.42    0.36
   7  -6   5   -0.09    0.16
   8  -6   5    0.52    0.47
   8  -6   5    0.23    0.41
   9  -6   5    0.51    0.48
 -10  -7   5    0.06    0.12
  -9  -7   5   -0.26    0.38
  -8  -7   5   -0.39    0.38
  -7  -7   5   -0.30    0.40
  -6  -7   5   -0.06    0.25
  -5  -7   5   -0.66    0.63
  -4  -7   5    0.13    0.41
  -3  -7   5   -0.15    0.37
  -2  -7   5   -0.07    0.13
  -1  -7   5    0.22    0.34
   0  -7   5   -0.21    0.35
   1  -7   5    0.12    0.20
   2  -7   5    0.60    0.51
   3  -7   5    0.21    0.28
   4  -7   5    0.09    0.05
   5  -7   5    0.12    0.16
   5  -7   5    0.07    0.08
   6  -7   5    0.14    0.31
   6  -7   5    0.14    0.31
   7  -7   5   -0.30    0.41
   7  -7   5   -0.08    0.36
  10  -7  -6    0.73    0.70
   9  -7  -6    0.33    0.46
   8  -7  -6    0.15    0.49
   7  -7  -6    0.46    0.79
   6  -7  -6    0.02    0.29
   5  -7  -6    0.13    0.50
  -4   7   6    0.10    0.26
   4  -7  -6    0.13    0.48
  -3   7   6    0.72    0.57
   3  -7  -6    0.92    0.74
  -2   7   6    0.87    0.65
   2  -7  -6    1.57    1.14
  -1   7   6    0.16    0.38
   1  -7  -6    0.51    0.46
   0   7   6    0.28    0.48
   0  -7  -6    1.25    1.04
   1   7   6    0.44    0.58
  -1  -7  -6    1.28    0.97
   2   7   6   -0.52    0.57
  -2  -7  -6    0.69    0.83
   3   7   6    0.47    0.55
  -3  -7  -6    0.42    0.61
  -4  -7  -6   -0.15    0.36
  12  -6  -6    0.52    0.75
  11  -6  -6    0.26    0.65
  11  -6  -6   -0.26    0.47
  10  -6  -6    0.80    0.64
  10  -6  -6   -0.10    0.39
   9  -6  -6    0.34    0.42
   8  -6  -6   -0.23    0.59
   7  -6  -6    0.68    0.65
  -6   6   6    0.91    0.54
   6  -6  -6    1.24    0.84
   5  -6  -6    1.34    0.67
   4  -6  -6    1.40    1.04
  -4   6   6    0.62    0.42
   3  -6  -6    0.91    0.88
  -3   6   6    0.01    0.21
   2  -6  -6    0.94    0.46
  -2   6   6    1.37    0.77
   1  -6  -6    2.35    1.42
  -1   6   6    0.78    0.62
   0  -6  -6    0.62    0.53
   0   6   6    0.92    0.67
  -1  -6  -6    0.16    0.41
   1   6   6    0.65    0.51
   2   6   6   -0.24    0.43
  -2  -6  -6   -1.31    1.17
   3   6   6   -0.25    0.56
  -3  -6  -6    0.00    0.38
   4   6   6    0.46    0.45
  -4  -6  -6    0.47    0.62
   5   6   6   -0.49    0.58
  -5  -6  -6    0.47    0.54
   6   6   6   -0.15    0.33
  -6  -6  -6    0.80    0.81
   7   6   6   -0.30    0.36
  -7  -6  -6   -0.15    0.41
   8   6   6    0.26    0.19
  14  -5  -6   -0.15    0.48
  13  -5  -6    0.22    0.64
  12  -5  -6    0.57    0.67
  11  -5  -6    0.13    0.33
  11  -5  -6   -0.87    0.62
  10  -5  -6    0.23    0.54
  10  -5  -6    0.47    0.21
   9  -5  -6   -0.02    0.03
   9  -5  -6    0.23    0.38
   8  -5  -6    1.70    1.05
  -8   5   6    0.01    0.21
   7  -5  -6    1.11    0.56
  -7   5   6    0.43    0.35
   6  -5  -6    0.23    0.39
  -6   5   6    0.80    0.46
   5  -5  -6   -0.11    0.24
  -4   5   6   -0.31    0.48
   4  -5  -6    0.19    0.22
  -3   5   6    1.02    0.59
  -2   5   6    0.04    0.12
  -1   5   6    0.28    0.23
   0   5   6    0.51    0.51
   1   5   6    0.28    0.20
   2   5   6    0.98    0.71
   3   5   6    0.60    0.63
   4   5   6    0.33    0.48
  -5  -5  -6    1.02    0.83
   5   5   6    1.43    0.75
  -6  -5  -6    0.93    0.94
   6   5   6    0.30    0.27
   7   5   6   -0.32    0.41
  -7  -5  -6   -0.44    0.58
   8   5   6    0.23    0.32
  -8  -5  -6   -0.42    0.54
   9   5   6   -0.44    0.44
  10   5   6   -0.19    0.20
  15  -4  -6    0.00    0.59
  14  -4  -6   -0.67    1.03
  13  -4  -6    0.40    0.72
  12  -4  -6   -0.08    0.35
  11  -4  -6    1.43    0.97
  10  -4  -6    0.31    0.11
   9  -4  -6    1.64    0.89
  -9   4   6    0.75    0.35
   8  -4  -6    1.09    0.54
  -8   4   6    0.39    0.25
  -7   4   6    0.57    0.42
  -6   4   6    0.65    0.36
  -5   4   6    2.75    0.82
  -4   4   6    4.92    1.11
  -3   4   6    1.71    0.67
  -2   4   6    1.16    0.46
  -1   4   6    1.37    0.59
   0   4   6    3.46    0.95
   1   4   6    3.02    0.93
   2   4   6    2.01    0.82
   3   4   6   -0.13    0.26
   4   4   6    1.06    0.59
   5   4   6    6.22    1.40
   6   4   6    0.14    0.28
   7   4   6    0.45    0.51
   8   4   6    0.99    0.53
   9   4   6   -0.18    0.21
  10   4   6    0.48    0.44
  11   4   6   -0.21    0.34
  16  -3  -6    1.04    1.00
  15  -3  -6    0.57    0.54
  14  -3  -6    1.37    0.90
  13  -3  -6    0.05    0.23
  12  -3  -6    2.10    1.11
  11  -3  -6    0.96    0.85
 -11   3   6   -0.06    0.16
  10  -3  -6    1.61    0.89
 -10   3   6    0.42    0.29
  -9   3   6    6.21    1.15
  -8   3   6    1.37    0.56
  -7   3   6    6.80    1.18
  -6   3   6    7.00    1.21
  -5   3   6    2.27    0.69
  -4   3   6    0.49    0.35
  -3   3   6    5.04    1.05
  -2   3   6    3.38    0.90
  -1   3   6    1.84    0.67
   0   3   6    2.54    0.81
   1   3   6    0.23    0.25
   2   3   6   15.58    1.99
   3   3   6   13.98    1.93
   4   3   6    1.84    0.71
   5   3   6    1.59    0.60
   6   3   6    1.39    0.56
   7   3   6    1.78    0.70
   8   3   6    0.39    0.18
   9   3   6    0.25    0.50
  10   3   6    0.42    0.37
  11   3   6    1.44    0.84
  12   3   6    0.26    0.26
  13   3   6    0.09    0.31
  17  -2  -6    0.48    0.43
  16  -2  -6    0.27    0.33
  15  -2  -6    0.82    0.63
  14  -2  -6    0.26    0.67
 -13   2   6    0.27    0.22
  13  -2  -6   -0.74    0.60
  12  -2  -6    0.85    0.94
 -12   2   6    0.26    0.29
 -11   2   6   -0.22    0.27
 -10   2   6    1.28    0.53
  -9   2   6    4.77    0.99
  -8   2   6    1.72    0.59
  -7   2   6   10.17    1.46
  -6   2   6    0.20    0.27
  -5   2   6    4.26    0.92
  -4   2   6    3.86    0.90
  -3   2   6    4.21    0.90
  -3   2   6    4.18    0.93
  -2   2   6    0.52    0.34
  -2   2   6    1.23    0.51
  -1   2   6    0.59    0.25
   0   2   6   -0.13    0.13
   1   2   6    1.12    0.53
   2   2   6    3.63    0.83
   4   2   6    2.23    0.72
   4   2   6    1.67    0.59
   5   2   6   12.67    1.74
   5   2   6   11.08    1.54
   6   2   6   -0.25    0.39
   6   2   6    0.24    0.27
   7   2   6    1.12    0.51
   7   2   6    0.53    0.32
   8   2   6    0.37    0.29
   8   2   6    0.46    0.36
   9   2   6    1.07    0.52
   9   2   6    0.57    0.39
  10   2   6    0.51    0.42
  11   2   6   -0.86    0.54
  12   2   6   -0.11    0.25
  13   2   6    0.14    0.17
  14   2   6    0.20    0.40
  18  -1  -6    0.46    0.48
  17  -1  -6   -0.46    0.87
  16  -1  -6    1.36    0.85
  15  -1  -6    1.92    1.12
 -14   1   6    0.17    0.16
  14  -1  -6   -0.61    0.29
 -13   1   6    0.72    0.36
  13  -1  -6    1.47    0.87
 -12   1   6    0.45    0.40
 -11   1   6    0.29    0.23
 -10   1   6    1.61    0.60
  -9   1   6    1.68    0.54
  -8   1   6    1.28    0.51
  -7   1   6    5.39    1.04
  -6   1   6    1.34    0.54
  -5   1   6    8.50    1.31
  -4   1   6    1.38    0.58
  -3   1   6    1.88    0.60
  -2   1   6   12.40    1.53
  -1   1   6   20.10    2.02
  -1   1   6   17.79    1.66
   0   1   6    3.59    0.74
   0   1   6    4.29    0.91
   1   1   6    3.30    0.74
   1   1   6    3.50    0.87
   2   1   6    9.96    1.27
   2   1   6   10.52    1.45
   3   1   6   10.07    1.27
   3   1   6   10.69    1.52
   4   1   6    5.29    1.02
   4   1   6    4.34    0.95
   5   1   6    1.56    0.59
   5   1   6    1.22    0.50
   6   1   6    0.94    0.43
   6   1   6    0.94    0.48
   7   1   6    1.46    0.49
   7   1   6    1.72    0.65
   8   1   6    0.55    0.33
   8   1   6    0.38    0.36
   9   1   6    0.29    0.17
   9   1   6   -0.51    0.40
  10   1   6    0.79    0.47
  10   1   6    0.36    0.38
  11   1   6    1.73    0.73
  11   1   6    0.84    0.50
  12   1   6    1.43    0.73
  12   1   6    1.01    0.65
  13   1   6    0.47    0.53
  14   1   6    0.00    0.04
  15   1   6    0.30    0.43
  18   0  -6   -0.42    0.57
  17   0  -6   -0.50    0.58
  16   0  -6    1.46    1.16
 -15   0   6    0.31    0.36
  15   0  -6    1.62    1.03
 -14   0   6    0.99    0.51
  14   0  -6    1.46    1.05
 -13   0   6    2.42    0.79
  13   0  -6    4.47    1.48
 -12   0   6    0.30    0.22
 -11   0   6    1.79    0.69
 -10   0   6   16.69    1.97
  -9   0   6   13.74    1.74
  -8   0   6   20.07    2.17
  -7   0   6   29.31    2.51
  -6   0   6    1.34    0.49
  -5   0   6   12.67    1.61
  -4   0   6   10.80    1.48
  -3   0   6   23.83    2.20
  -2   0   6   17.04    1.79
  -1   0   6   24.93    2.21
   0   0   6    7.09    1.14
   0   0   6    8.54    1.34
   1   0   6   11.01    1.41
   1   0   6   10.30    1.13
   1   0   6   13.68    1.73
   2   0   6    1.69    0.47
   2   0   6    1.50    0.59
   2   0   6    1.91    0.69
   3   0   6    1.92    0.52
   3   0   6    1.86    0.69
   3   0   6    2.31    0.73
   4   0   6    1.17    0.36
   4   0   6    1.49    0.59
   4   0   6    0.83    0.40
   5   0   6   13.46    1.59
   5   0   6   11.28    1.56
   5   0   6   14.25    1.94
   6   0   6    2.85    0.71
   6   0   6    3.61    0.98
   6   0   6    2.02    0.63
   7   0   6    2.75    0.72
   7   0   6    3.03    0.92
   8   0   6    1.50    0.56
   8   0   6    1.81    0.74
   9   0   6    1.40    0.53
   9   0   6    1.85    0.75
  10   0   6    0.27    0.22
  10   0   6    0.59    0.40
  11   0   6    0.55    0.34
  11   0   6    1.04    0.57
  12   0   6    0.31    0.35
  12   0   6    0.44    0.39
  13   0   6    0.12    0.25
  13   0   6   -0.10    0.16
  14   0   6    0.85    0.68
  15   0   6   -0.12    0.16
  19   1  -6    0.37    0.76
  18   1  -6   -0.36    0.63
 -17  -1   6   -0.22    0.31
  17   1  -6    0.14    0.30
 -16  -1   6    0.73    0.51
  16   1  -6    0.81    0.88
 -15  -1   6    0.14    0.26
  15   1  -6    0.05    0.55
 -14  -1   6   -0.08    0.28
  14   1  -6    0.98    0.84
 -13  -1   6    1.05    0.54
 -12  -1   6    0.14    0.18
 -11  -1   6    0.65    0.44
 -10  -1   6    0.97    0.51
  -9  -1   6    1.80    0.64
  -8  -1   6    2.07    0.69
  -7  -1   6    5.55    1.11
  -6  -1   6    1.32    0.50
  -5  -1   6    9.02    1.38
  -4  -1   6    0.37    0.15
  -3  -1   6    1.90    0.66
  -2  -1   6   13.46    1.66
  -1  -1   6   19.13    1.95
  -1  -1   6   18.86    2.09
   0  -1   6    3.58    0.88
   0  -1   6    4.27    0.99
   1  -1   6    3.03    0.77
   1  -1   6    3.89    0.98
   2  -1   6    9.55    1.34
   2  -1   6   11.76    1.65
   3  -1   6    9.00    1.29
   3  -1   6   11.67    1.69
   4  -1   6    3.50    0.51
   4  -1   6    3.16    0.75
   4  -1   6    4.90    1.10
   5  -1   6    0.85    0.27
   5  -1   6    1.16    0.39
   5  -1   6    1.83    0.72
   6  -1   6    1.04    0.41
   6  -1   6    1.59    0.61
   7  -1   6    1.23    0.47
   7  -1   6    0.88    0.37
   7  -1   6    1.39    0.65
   8  -1   6    0.56    0.39
   8  -1   6    0.12    0.11
   8  -1   6    0.48    0.28
   9  -1   6    0.31    0.32
   9  -1   6    0.16    0.31
  10  -1   6    0.61    0.39
  10  -1   6    0.27    0.30
  11  -1   6    0.93    0.46
  12  -1   6    1.37    0.70
  13  -1   6    0.54    0.51
  14  -1   6    0.29    0.42
  15  -1   6    0.02    0.22
  18   2  -6    0.24    0.51
  17   2  -6    0.90    0.84
 -16  -2   6   -0.20    0.31
  16   2  -6    0.32    0.59
 -15  -2   6    0.63    0.49
  15   2  -6    1.31    0.79
 -14  -2   6    0.32    0.26
  14   2  -6   -0.43    0.10
 -13  -2   6    0.35    0.21
 -12  -2   6    0.57    0.44
 -11  -2   6   -0.08    0.21
 -10  -2   6    1.66    0.68
  -9  -2   6    5.73    1.20
  -8  -2   6    2.15    0.74
  -7  -2   6   10.84    1.62
  -6  -2   6    0.63    0.43
  -5  -2   6    4.44    1.03
  -4  -2   6    4.26    0.99
  -3  -2   6    3.50    0.84
  -2  -2   6    0.42    0.27
  -2  -2   6    0.29    0.23
  -1  -2   6    0.99    0.42
  -1  -2   6    1.04    0.48
   0  -2   6    0.02    0.24
   0  -2   6    0.10    0.29
   1  -2   6    0.59    0.28
   1  -2   6    1.30    0.61
   2  -2   6    3.61    0.76
   2  -2   6    4.76    1.11
   3  -2   6    8.57    1.22
   3  -2   6   12.61    1.78
   4  -2   6    1.47    0.52
   4  -2   6    2.04    0.69
   5  -2   6    9.89    1.31
   5  -2   6   12.03    1.81
   6  -2   6   -0.20    0.25
   6  -2   6    0.17    0.12
   7  -2   6    1.12    0.58
   8  -2   6    0.48    0.38
   9  -2   6    0.90    0.58
  10  -2   6    0.14    0.17
  11  -2   6    0.13    0.30
  12  -2   6   -0.01    0.26
  13  -2   6    0.00    0.35
  14  -2   6    0.26    0.27
  16   3  -6   -0.43    0.52
 -15  -3   6    0.26    0.27
 -14  -3   6    0.59    0.41
  14   3  -6    0.13    0.39
 -13  -3   6   -0.16    0.19
 -12  -3   6    0.98    0.60
 -11  -3   6   -0.12    0.19
 -10  -3   6    1.08    0.60
  -9  -3   6    6.72    1.43
  -8  -3   6    1.51    0.61
  -7  -3   6    7.54    1.46
  -6  -3   6    7.45    1.35
  -5  -3   6    2.71    0.78
  -4  -3   6    0.38    0.40
  -3  -3   6    4.34    0.99
  -2  -3   6    2.88    0.75
  -2  -3   6    2.97    0.83
  -1  -3   6    1.68    0.61
  -1  -3   6    1.97    0.69
   0  -3   6    2.58    0.65
   0  -3   6    3.36    0.91
   1  -3   6    0.19    0.08
   1  -3   6    0.35    0.31
   2  -3   6   13.75    1.60
   2  -3   6   17.68    2.17
   3  -3   6   10.12    1.34
   3  -3   6   15.62    2.05
   4  -3   6    0.68    0.30
   4  -3   6    1.03    0.53
   5  -3   6    0.74    0.36
   5  -3   6    1.17    0.57
   6  -3   6    1.15    0.59
   7  -3   6    1.47    0.71
   8  -3   6    0.09    0.34
   9  -3   6    0.42    0.48
  10  -3   6    0.13    0.15
  11  -3   6    0.44    0.50
  12  -3   6    0.09    0.06
  13  -3   6    0.11    0.34
  15   4  -6    1.33    1.05
  14   4  -6   -0.77    0.75
 -13  -4   6    0.06    0.08
  13   4  -6   -1.01    0.83
 -12  -4   6    0.21    0.12
 -11  -4   6    0.27    0.36
 -10  -4   6    0.85    0.55
  -9  -4   6    0.66    0.37
  -8  -4   6    0.71    0.56
  -7  -4   6    0.40    0.43
  -6  -4   6    0.59    0.42
  -5  -4   6    2.12    0.78
  -4  -4   6    4.52    1.09
  -3  -4   6    2.13    0.73
  -3  -4   6    1.72    0.67
  -3  -4   6    1.81    0.71
  -2  -4   6    1.92    0.67
  -2  -4   6    1.66    0.62
  -2  -4   6    1.19    0.55
  -1  -4   6    1.27    0.54
  -1  -4   6    1.25    0.60
  -1  -4   6    1.43    0.61
   0  -4   6    2.59    0.73
   0  -4   6    2.88    0.88
   1  -4   6    2.23    0.66
   1  -4   6    2.60    0.82
   2  -4   6    1.35    0.54
   2  -4   6    1.84    0.67
   3  -4   6    0.09    0.02
   3  -4   6    0.33    0.37
   4  -4   6    2.16    0.81
   5  -4   6    4.88    1.18
   6  -4   6   -0.03    0.10
   7  -4   6    0.46    0.50
   8  -4   6    0.60    0.39
   9  -4   6    0.39    0.44
  10  -4   6    0.17    0.41
  11  -4   6    0.38    0.41
  14   5  -6    0.68    0.95
  13   5  -6    0.60    0.73
  12   5  -6    0.16    0.17
  11   5  -6    0.53    0.77
  10   5  -6    0.01    0.38
 -10  -5   6    0.62    0.50
  -9  -5   6   -0.32    0.34
   9   5  -6    0.27    0.44
  -8  -5   6    0.31    0.39
   8   5  -6    0.58    0.62
  -7  -5   6    0.65    0.51
  -7  -5   6    1.08    0.52
   7   5  -6    0.27    0.31
  -6  -5   6    0.26    0.39
   6   5  -6   -0.70    0.56
  -6  -5   6    0.78    0.45
  -5  -5   6   -0.06    0.39
  -5  -5   6    0.17    0.22
  -4  -5   6    0.46    0.45
  -4  -5   6    0.47    0.43
  -3  -5   6    0.49    0.39
  -3  -5   6    0.49    0.31
  -2  -5   6    0.02    0.19
  -2  -5   6    0.26    0.39
  -2  -5   6    0.03    0.19
  -1  -5   6    0.24    0.28
  -1  -5   6   -0.25    0.32
  -1  -5   6    0.13    0.26
   0  -5   6    0.43    0.40
   0  -5   6    0.25    0.27
   0  -5   6    0.11    0.25
   1  -5   6    0.42    0.45
   1  -5   6    0.04    0.25
   1  -5   6    0.20    0.26
   2  -5   6   -0.04    0.19
   2  -5   6    0.10    0.32
   3  -5   6    0.77    0.54
   3  -5   6    0.11    0.37
   4  -5   6    0.50    0.37
   5  -5   6    0.17    0.22
   6  -5   6    0.06    0.16
   7  -5   6    0.15    0.06
   8  -5   6    0.29    0.35
   9  -5   6    0.34    0.11
  10  -5   6    0.14    0.21
  13   6  -6   -0.14    0.33
  13   6  -6   -0.57    0.68
  12   6  -6   -0.32    0.24
  11   6  -6   -0.35    0.55
  -9  -6   6   -0.35    0.49
  -8  -6   6    0.35    0.43
  -7  -6   6    0.30    0.45
  -6  -6   6    0.67    0.40
  -5  -6   6    0.17    0.11
  -4  -6   6    0.77    0.53
  -3  -6   6   -0.12    0.06
  -2  -6   6    0.29    0.28
  -1  -6   6    0.91    0.61
  -1  -6   6    0.75    0.51
   0  -6   6    0.19    0.21
   0  -6   6    0.19    0.21
   1  -6   6    0.29    0.23
   1  -6   6    0.19    0.14
   2  -6   6   -0.14    0.35
   2  -6   6    0.37    0.40
   3  -6   6    0.40    0.51
   3  -6   6    0.01    0.16
   4  -6   6    0.21    0.17
   4  -6   6    0.12    0.08
   5  -6   6   -0.18    0.37
   5  -6   6    0.26    0.32
   6  -6   6    0.22    0.40
   7  -6   6    0.27    0.47
   8  -6   6   -0.09    0.14
  -8  -7   6   -0.23    0.35
  -7  -7   6   -0.07    0.17
  -6  -7   6    0.34    0.45
  -5  -7   6    0.21    0.34
  -4  -7   6    0.38    0.36
  -3  -7   6    0.35    0.47
  -2  -7   6    1.40    0.73
  -1  -7   6    0.15    0.33
   0  -7   6    1.03    0.74
   1  -7   6    0.59    0.43
   2  -7   6    0.86    0.57
   3  -7   6    0.22    0.27
   4  -7   6   -0.42    0.48
   4  -7   6    0.08    0.15
   5  -7   6   -0.06    0.14
   5  -7   6   -0.16    0.31
   6  -7   6   -0.14    0.16
  -4   7   7    0.36    0.31
  -3   7   7   -0.13    0.28
  -2   7   7    0.45    0.46
  -1   7   7   -0.47    0.41
  11  -6  -7    0.06    0.18
  10  -6  -7   -0.29    0.60
   9  -6  -7   -0.49    0.89
   8  -6  -7   -0.62    0.94
   7  -6  -7    0.05    0.36
   6  -6  -7    0.76    0.88
  -6   6   7   -0.16    0.21
   5  -6  -7    0.57    0.50
  -5   6   7    0.60    0.50
   4  -6  -7    1.63    1.33
  -4   6   7    0.93    0.57
   3  -6  -7    2.06    1.24
  -3   6   7    0.72    0.47
   2  -6  -7    1.55    1.09
  -2   6   7    0.23    0.24
   1  -6  -7    0.90    0.92
  -1   6   7   -0.14    0.26
   0  -6  -7    0.21    0.31
   0   6   7    0.10    0.16
  -1  -6  -7    0.21    0.80
   1   6   7    0.38    0.53
  -2  -6  -7    1.12    0.95
   2   6   7    0.70    0.56
  -3  -6  -7   -0.04    0.17
   3   6   7    0.37    0.59
   4   6   7    0.20    0.26
  -4  -6  -7    0.46    0.51
   5   6   7    0.72    0.65
  -5  -6  -7    0.36    0.52
  -6  -6  -7   -0.07    0.24
  -7  -6  -7   -0.13    0.13
  13  -5  -7   -0.25    0.38
  12  -5  -7    0.31    0.51
  11  -5  -7    0.40    0.55
  11  -5  -7    0.54    0.46
  10  -5  -7   -0.34    0.42
   9  -5  -7   -0.07    0.48
   8  -5  -7   -0.63    0.75
  -8   5   7    0.19    0.31
   7  -5  -7    0.22    0.46
  -7   5   7   -0.16    0.29
   6  -5  -7   -0.33    0.36
  -6   5   7    0.29    0.29
  -5   5   7    1.22    0.62
  -4   5   7   -0.12    0.32
  -3   5   7   -0.09    0.36
  -2   5   7    0.25    0.39
  -1   5   7    0.65    0.51
   0   5   7    0.41    0.39
   1   5   7    1.13    0.61
   2   5   7    0.48    0.55
   3   5   7    0.61    0.56
   4   5   7   -0.06    0.08
  -6  -5  -7    0.81    0.85
   6   5   7   -0.05    0.15
  -7  -5  -7   -0.58    0.66
   7   5   7   -0.25    0.40
   8   5   7   -0.50    0.47
  14  -4  -7   -0.30    0.54
  13  -4  -7    0.35    0.66
  12  -4  -7    1.30    1.14
  11  -4  -7    0.14    0.28
  10  -4  -7   -0.36    0.51
 -10   4   7    0.05    0.09
   9  -4  -7    1.04    0.98
  -9   4   7   -0.10    0.27
  -8   4   7    0.14    0.21
  -7   4   7    0.62    0.40
  -6   4   7    0.97    0.46
  -5   4   7    0.09    0.21
  -4   4   7    1.96    0.69
  -4   4   7    2.34    0.75
  -3   4   7    4.52    1.11
  -2   4   7    0.69    0.55
  -1   4   7    1.43    0.70
   0   4   7   -0.09    0.13
   1   4   7    0.99    0.56
   2   4   7    1.01    0.55
   3   4   7    0.49    0.26
   4   4   7   -0.01    0.29
   5   4   7    1.09    0.62
   6   4   7    0.99    0.61
   7   4   7    0.41    0.32
   8   4   7   -0.23    0.27
   9   4   7   -0.10    0.24
  10   4   7    0.23    0.23
  16  -3  -7   -0.29    0.42
  15  -3  -7   -0.04    0.17
  14  -3  -7    0.00    0.42
  13  -3  -7   -0.19    0.68
  12  -3  -7    1.41    1.18
 -11   3   7    0.08    0.12
  11  -3  -7    0.54    0.39
 -10   3   7   -0.04    0.05
  -9   3   7    0.46    0.30
  -8   3   7    2.27    0.73
  -7   3   7    0.08    0.28
  -6   3   7    0.50    0.35
  -5   3   7    4.94    1.04
  -4   3   7   12.69    1.79
  -3   3   7    9.04    1.55
  -3   3   7    8.54    1.41
  -2   3   7    4.54    1.03
  -1   3   7    1.52    0.53
   0   3   7    3.92    0.96
   1   3   7   11.18    1.74
   2   3   7   10.33    1.64
   3   3   7    1.78    0.66
   4   3   7    4.25    1.06
   5   3   7    6.70    1.36
   6   3   7    3.20    0.99
   7   3   7    0.86    0.50
   8   3   7    0.22    0.35
   9   3   7    0.32    0.29
  10   3   7    0.24    0.04
  11   3   7    0.09    0.19
  16  -2  -7    1.47    1.18
  15  -2  -7   -0.80    0.53
  14  -2  -7   -0.98    0.86
  13  -2  -7    0.83    0.60
 -13   2   7    0.13    0.25
 -12   2   7    0.41    0.24
 -11   2   7    0.41    0.29
 -10   2   7    2.25    0.74
  -9   2   7    3.97    0.97
  -8   2   7    0.38    0.31
  -7   2   7    5.72    1.17
  -6   2   7    5.61    1.11
  -5   2   7    6.39    1.14
  -4   2   7    0.20    0.20
  -3   2   7    0.23    0.26
  -2   2   7    0.38    0.20
  -2   2   7    1.05    0.45
  -1   2   7    1.86    0.65
  -1   2   7    2.30    0.82
   0   2   7    6.06    1.15
   1   2   7    0.25    0.08
   2   2   7   15.67    1.88
   3   2   7    4.15    0.93
   4   2   7    0.90    0.42
   5   2   7    0.47    0.32
   5   2   7    0.45    0.31
   6   2   7    1.43    0.66
   6   2   7    1.24    0.55
   7   2   7    1.92    0.81
   7   2   7    1.10    0.52
   8   2   7   -0.45    0.48
   8   2   7    0.24    0.22
   9   2   7   -0.38    0.40
   9   2   7   -0.03    0.21
  10   2   7   -0.30    0.30
  11   2   7    2.53    0.97
  12   2   7    0.27    0.37
  13   2   7    0.50    0.53
  17  -1  -7    0.63    0.93
  16  -1  -7    0.17    0.12
  15  -1  -7   -0.13    0.84
 -14   1   7    0.54    0.34
  14  -1  -7    1.01    0.73
 -13   1   7   -0.29    0.30
 -12   1   7    0.10    0.27
 -11   1   7    0.16    0.30
 -10   1   7    3.11    0.88
  -9   1   7   10.60    1.62
  -8   1   7    5.19    1.09
  -7   1   7    0.21    0.11
  -6   1   7    0.16    0.29
  -5   1   7    1.82    0.66
  -4   1   7    6.24    1.14
  -3   1   7    1.31    0.44
  -2   1   7    1.02    0.42
  -1   1   7    2.88    0.69
  -1   1   7    3.04    0.81
   0   1   7    3.75    0.78
   0   1   7    4.11    0.98
   1   1   7    3.93    0.83
   1   1   7    4.84    1.03
   2   1   7    3.32    0.75
   2   1   7    3.08    0.83
   3   1   7    9.19    1.46
   3   1   7    7.69    1.18
   3   1   7    8.82    1.50
   4   1   7    1.76    0.55
   4   1   7    2.05    0.73
   5   1   7    0.53    0.27
   5   1   7    1.13    0.55
   6   1   7    0.99    0.47
   6   1   7    0.99    0.53
   7   1   7    1.13    0.56
   7   1   7    1.22    0.66
   8   1   7    1.47    0.57
   8   1   7    1.41    0.65
   9   1   7    0.27    0.19
   9   1   7    0.05    0.10
  10   1   7    0.61    0.43
  10   1   7    0.43    0.36
  11   1   7    0.57    0.45
  11   1   7   -0.20    0.34
  12   1   7    0.45    0.43
  12   1   7    0.80    0.56
  13   1   7    0.06    0.20
  14   1   7    0.21    0.33
  18   0  -7    0.50    0.89
  17   0  -7   -0.37    0.59
 -16   0   7    0.37    0.41
  16   0  -7    0.08    0.31
 -15   0   7   -0.18    0.29
  15   0  -7   -0.41    0.67
 -14   0   7   -0.10    0.22
  14   0  -7    0.21    0.65
 -13   0   7    0.05    0.08
 -12   0   7   -0.23    0.41
 -11   0   7    0.12    0.17
 -10   0   7    0.04    0.14
  -9   0   7   -0.12    0.23
  -8   0   7    0.15    0.31
  -7   0   7    0.06    0.08
  -6   0   7    0.12    0.08
  -5   0   7    0.07    0.11
  -4   0   7    0.11    0.20
  -3   0   7    0.25    0.29
  -2   0   7   -0.61    0.46
  -1   0   7    0.12    0.28
   0   0   7    0.31    0.32
   1   0   7    0.11    0.19
   1   0   7   -0.02    0.07
   2   0   7    0.06    0.12
   2   0   7    0.12    0.13
   2   0   7    0.04    0.28
   3   0   7   -0.16    0.19
   3   0   7   -0.05    0.11
   3   0   7   -0.15    0.07
   4   0   7   -0.03    0.10
   4   0   7   -0.34    0.31
   4   0   7    0.00    0.24
   5   0   7    0.11    0.07
   5   0   7   -0.15    0.19
   5   0   7    0.04    0.15
   6   0   7    0.05    0.06
   6   0   7   -0.13    0.04
   6   0   7   -0.16    0.22
   7   0   7   -0.38    0.34
   7   0   7   -0.03    0.04
   8   0   7    0.02    0.26
   8   0   7   -0.07    0.20
   8   0   7    0.18    0.18
   9   0   7   -0.26    0.23
   9   0   7    0.06    0.16
   9   0   7    0.00    0.32
  10   0   7   -0.05    0.20
  10   0   7   -0.23    0.28
  11   0   7   -0.13    0.25
  11   0   7   -0.31    0.29
  12   0   7    0.05    0.84
  12   0   7   -0.12    0.04
  13   0   7    0.22    0.28
  14   0   7    0.00    0.09
  18   1  -7   -0.29    0.91
 -17  -1   7    0.25    0.26
  17   1  -7    1.33    1.14
 -16  -1   7   -0.04    0.26
  16   1  -7    0.69    0.96
 -15  -1   7    0.11    0.14
  15   1  -7   -1.36    0.96
 -14  -1   7    0.30    0.35
 -13  -1   7    0.42    0.40
 -12  -1   7    0.08    0.12
 -11  -1   7   -0.26    0.21
 -10  -1   7    3.37    0.99
  -9  -1   7   11.28    1.73
  -8  -1   7    5.15    1.17
  -7  -1   7    0.39    0.43
  -6  -1   7    0.35    0.37
  -5  -1   7    1.78    0.66
  -4  -1   7    6.52    1.25
  -3  -1   7    1.53    0.58
  -2  -1   7    1.07    0.40
  -1  -1   7    3.34    0.85
  -1  -1   7    3.36    0.91
   0  -1   7    3.39    0.83
   0  -1   7    3.58    0.92
   1  -1   7    4.23    0.95
   1  -1   7    5.08    1.17
   2  -1   7    3.28    0.82
   2  -1   7    4.17    1.07
   3  -1   7    7.63    1.29
   3  -1   7    8.95    1.58
   4  -1   7    1.47    0.57
   4  -1   7    1.91    0.72
   5  -1   7    0.77    0.49
   5  -1   7    1.58    0.69
   6  -1   7    0.87    0.40
   6  -1   7    1.47    0.71
   7  -1   7    0.56    0.42
   7  -1   7    0.45    0.33
   8  -1   7    1.95    0.76
   9  -1   7    0.17    0.36
  10  -1   7    0.33    0.48
  11  -1   7    0.64    0.46
  12  -1   7    0.30    0.42
  13  -1   7    0.18    0.25
  14  -1   7    0.01    0.21
  18   2  -7    0.88    1.07
 -17  -2   7    0.00    0.01
  17   2  -7    0.32    0.51
 -16  -2   7    0.14    0.24
  16   2  -7    0.73    0.78
 -15  -2   7    0.26    0.34
  15   2  -7    0.74    0.56
 -14  -2   7    0.39    0.43
 -13  -2   7    0.11    0.18
 -12  -2   7    0.93    0.63
 -11  -2   7    0.46    0.40
 -10  -2   7    2.09    0.80
  -9  -2   7    3.65    0.97
  -8  -2   7    0.22    0.33
  -7  -2   7    5.54    1.21
  -6  -2   7    5.56    1.23
  -5  -2   7    6.56    1.29
  -4  -2   7   -0.11    0.29
  -3  -2   7    0.08    0.19
  -2  -2   7    0.94    0.44
  -1  -2   7    1.60    0.59
  -1  -2   7    1.33    0.58
   0  -2   7    5.52    1.12
   0  -2   7    5.50    1.17
   1  -2   7    0.11    0.19
   1  -2   7    0.61    0.47
   2  -2   7   13.99    1.73
   2  -2   7   18.26    2.24
   3  -2   7    3.62    0.85
   3  -2   7    4.76    1.16
   4  -2   7    1.05    0.44
   4  -2   7    1.76    0.68
   5  -2   7    0.44    0.31
   5  -2   7    1.23    0.66
   6  -2   7    1.07    0.38
   6  -2   7    2.68    0.94
   7  -2   7    1.85    0.79
   8  -2   7   -0.35    0.36
   9  -2   7    0.15    0.29
  10  -2   7   -0.85    0.56
  11  -2   7    1.42    0.83
  12  -2   7    0.51    0.42
  13  -2   7    0.06    0.23
 -16  -3   7   -0.08    0.15
 -15  -3   7    0.50    0.48
 -14  -3   7    0.24    0.31
 -13  -3   7    0.13    0.15
 -12  -3   7    0.59    0.49
 -11  -3   7   -0.39    0.45
 -10  -3   7    0.28    0.27
  -9  -3   7    0.68    0.47
  -8  -3   7    2.45    0.83
  -7  -3   7    0.09    0.46
  -6  -3   7    0.47    0.32
  -5  -3   7    5.29    1.18
  -4  -3   7   12.45    1.81
  -3  -3   7    7.61    1.37
  -2  -3   7    3.76    0.92
  -2  -3   7    4.14    1.03
  -1  -3   7    1.47    0.54
  -1  -3   7    2.14    0.70
   0  -3   7    3.47    0.85
   0  -3   7    3.15    0.89
   1  -3   7    8.87    1.40
   1  -3   7   12.07    1.82
   2  -3   7    8.41    1.33
   2  -3   7   11.61    1.84
   3  -3   7    1.48    0.52
   3  -3   7    2.01    0.66
   4  -3   7    4.11    0.90
   4  -3   7    5.99    1.37
   5  -3   7    7.61    1.61
   6  -3   7    3.40    1.04
   7  -3   7    1.24    0.62
   8  -3   7    0.05    0.20
   9  -3   7    0.11    0.27
  10  -3   7   -0.31    0.30
  11  -3   7    0.08    0.25
  15   4  -7    0.44    0.48
 -14  -4   7   -0.15    0.23
 -13  -4   7    0.31    0.42
 -12  -4   7   -0.05    0.07
 -11  -4   7    0.20    0.38
 -10  -4   7   -0.14    0.36
  -9  -4   7    0.35    0.50
  -8  -4   7    0.10    0.18
  -7  -4   7    0.63    0.39
  -6  -4   7    1.05    0.63
  -5  -4   7    0.28    0.33
  -4  -4   7    2.42    0.81
  -3  -4   7    3.79    0.99
  -2  -4   7    0.63    0.40
  -2  -4   7    0.33    0.25
  -1  -4   7    0.18    0.13
  -1  -4   7    0.37    0.34
   0  -4   7    0.27    0.21
   0  -4   7    0.43    0.39
   1  -4   7    0.47    0.33
   1  -4   7    0.38    0.23
   2  -4   7    0.58    0.38
   2  -4   7   -0.05    0.08
   3  -4   7    0.89    0.62
   4  -4   7    0.11    0.06
   5  -4   7    0.85    0.59
   6  -4   7    1.35    0.58
   7  -4   7    0.40    0.56
   8  -4   7    0.67    0.53
   9  -4   7    0.25    0.21
  10  -4   7    0.23    0.27
  14   5  -7   -0.76    0.90
  13   5  -7    0.21    0.60
 -12  -5   7    0.30    0.33
  12   5  -7    0.85    0.86
 -11  -5   7   -0.34    0.31
  11   5  -7    0.23    0.53
 -10  -5   7   -0.01    0.04
  10   5  -7   -0.38    0.59
  -9  -5   7    0.15    0.20
  -8  -5   7    0.05    0.27
  -7  -5   7    0.25    0.28
  -6  -5   7    0.30    0.11
  -5  -5   7    0.28    0.20
  -4  -5   7    0.15    0.19
  -3  -5   7    0.05    0.06
  -2  -5   7    0.16    0.26
  -2  -5   7   -0.25    0.15
  -1  -5   7    0.40    0.28
  -1  -5   7    0.26    0.28
   0  -5   7    1.12    0.57
   0  -5   7    0.18    0.24
   1  -5   7    0.73    0.48
   1  -5   7    0.95    0.55
   2  -5   7    0.18    0.11
   3  -5   7    0.66    0.48
   4  -5   7    0.30    0.36
   5  -5   7    0.39    0.38
   6  -5   7    0.04    0.35
   7  -5   7   -0.10    0.23
   8  -5   7    0.02    0.29
  -7  -6   7    0.25    0.37
  -6  -6   7   -0.02    0.23
  -5  -6   7    0.04    0.04
  -4  -6   7    0.40    0.29
  -4  -6   7    1.08    0.71
  -3  -6   7    0.71    0.52
  -3  -6   7    1.61    0.80
  -2  -6   7    0.37    0.28
  -2  -6   7    0.62    0.51
  -1  -6   7   -0.19    0.23
  -1  -6   7   -0.02    0.30
  -1  -6   7    0.32    0.30
   0  -6   7    0.22    0.18
   1  -6   7    0.30    0.28
   2  -6   7    0.25    0.51
   3  -6   7   -0.14    0.22
   4  -6   7    0.28    0.24
   5  -6   7    0.39    0.32
   6  -6   7    0.15    0.42
  -4   7   8   -0.26    0.32
  10  -6  -8    0.24    0.35
   9  -6  -8    0.69    0.61
   8  -6  -8    0.60    0.82
   7  -6  -8    1.79    1.49
  -6   6   8   -0.06    0.21
  -5   6   8   -0.08    0.20
  -4   6   8    0.56    0.46
  -3   6   8    0.26    0.31
  -2   6   8    0.00    0.13
  -1   6   8   -0.35    0.24
   0   6   8   -0.17    0.37
   1   6   8    0.28    0.29
  -2  -6  -8    1.31    1.12
   2   6   8    0.26    0.40
  -3  -6  -8   -0.98    1.00
  -4  -6  -8    0.83    1.04
  12  -5  -8    0.88    1.03
  12  -5  -8    0.65    0.76
  11  -5  -8    0.06    0.12
  10  -5  -8    0.96    0.91
   9  -5  -8   -0.13    0.56
   8  -5  -8    0.48    0.24
  -8   5   8   -0.04    0.19
   7  -5  -8    0.71    0.78
  -7   5   8    0.65    0.42
  -6   5   8    0.51    0.35
  -5   5   8   -0.02    0.14
  -4   5   8    0.25    0.31
  -3   5   8    0.00    0.08
  -3   5   8    0.71    0.52
  -2   5   8   -0.05    0.31
  -1   5   8    0.08    0.11
   0   5   8   -0.16    0.30
   1   5   8    0.37    0.31
   2   5   8    0.33    0.34
   3   5   8   -0.06    0.42
   4   5   8    0.64    0.53
   5   5   8    0.30    0.41
   6   5   8   -0.42    0.28
  -7  -5  -8    0.12    0.44
  13  -4  -8    0.51    0.56
  12  -4  -8    0.83    0.51
  11  -4  -8    0.81    0.77
  10  -4  -8    1.00    1.12
 -10   4   8   -0.10    0.31
  -9   4   8    0.29    0.24
  -8   4   8   -0.31    0.37
  -7   4   8    0.53    0.33
  -6   4   8    0.70    0.47
  -5   4   8    0.08    0.24
  -4   4   8    0.41    0.35
  -3   4   8    0.37    0.28
  -3   4   8    0.34    0.40
  -2   4   8    0.72    0.42
  -2   4   8    0.21    0.22
  -1   4   8    0.24    0.40
   0   4   8    0.16    0.30
   1   4   8   -0.05    0.34
   2   4   8   -0.04    0.07
   3   4   8    0.34    0.19
   4   4   8   -0.09    0.16
   5   4   8    0.77    0.55
   6   4   8    0.84    0.61
   8   4   8   -0.20    0.28
  15  -3  -8    0.48    0.16
  14  -3  -8   -1.52    1.03
  13  -3  -8    3.68    1.76
  12  -3  -8    1.12    1.18
 -12   3   8    0.33    0.33
 -11   3   8    0.05    0.12
 -10   3   8    0.31    0.30
  -9   3   8    0.43    0.39
  -8   3   8    0.08    0.15
  -7   3   8    0.64    0.40
  -6   3   8    0.63    0.49
  -5   3   8    0.72    0.47
  -4   3   8    0.75    0.40
  -3   3   8    2.79    0.94
  -2   3   8    1.52    0.57
  -2   3   8    1.40    0.61
  -1   3   8    1.01    0.44
  -1   3   8    1.40    0.61
   0   3   8    1.73    0.66
   1   3   8    0.95    0.52
   2   3   8    0.84    0.49
   3   3   8    1.03    0.65
   4   3   8    0.20    0.39
   5   3   8   -0.20    0.23
   6   3   8    0.95    0.54
   8   3   8   -0.11    0.20
   9   3   8    0.22    0.19
  10   3   8    0.50    0.55
  15  -2  -8    0.29    0.48
  14  -2  -8   -0.08    0.22
 -13   2   8   -0.01    0.20
 -12   2   8    0.47    0.38
 -11   2   8   -0.11    0.20
 -10   2   8    1.30    0.61
  -9   2   8    0.10    0.17
  -8   2   8    0.28    0.23
  -7   2   8    0.58    0.35
  -6   2   8   -0.16    0.21
  -5   2   8   -0.57    0.47
  -4   2   8    0.59    0.47
  -3   2   8    0.80    0.42
  -2   2   8    2.63    0.80
  -1   2   8   -0.58    0.35
  -1   2   8    0.25    0.48
   0   2   8    1.65    0.58
   0   2   8    1.07    0.51
   1   2   8    1.06    0.52
   1   2   8    1.45    0.66
   2   2   8    2.94    0.82
   2   2   8    2.69    0.97
   3   2   8    0.33    0.34
   4   2   8    0.80    0.44
   5   2   8    0.31    0.30
   6   2   8    0.23    0.29
   7   2   8    0.37    0.34
   7   2   8    0.15    0.26
   8   2   8    0.58    0.45
   8   2   8   -0.18    0.28
   9   2   8   -0.11    0.33
  10   2   8    0.05    0.11
  11   2   8   -0.10    0.07
  16  -1  -8   -1.23    1.02
 -15   1   8    0.31    0.34
  15  -1  -8    0.82    1.06
 -14   1   8    0.30    0.35
 -13   1   8    0.92    0.52
 -12   1   8    0.22    0.19
 -11   1   8    0.27    0.24
 -10   1   8    0.16    0.14
  -9   1   8    0.84    0.50
  -8   1   8    1.56    0.67
  -7   1   8    0.92    0.44
  -6   1   8    2.04    0.78
  -5   1   8    1.64    0.59
  -4   1   8    2.76    0.88
  -3   1   8    1.72    0.70
  -2   1   8    2.66    0.81
  -1   1   8    1.09    0.58
   0   1   8    2.81    0.71
   0   1   8    2.65    0.81
   1   1   8    1.06    0.45
   1   1   8    0.97    0.48
   2   1   8    0.18    0.25
   2   1   8   -0.01    0.16
   3   1   8    1.15    0.52
   3   1   8    0.62    0.38
   4   1   8   -0.20    0.25
   4   1   8    0.38    0.38
   4   1   8   -0.30    0.24
   5   1   8   -0.18    0.15
   5   1   8    0.36    0.37
   5   1   8    0.10    0.17
   6   1   8   -0.03    0.11
   6   1   8    0.14    0.17
   6   1   8    0.25    0.24
   7   1   8    0.19    0.15
   7   1   8   -0.09    0.22
   8   1   8    0.02    0.09
   8   1   8    0.38    0.42
   9   1   8    0.07    0.06
   9   1   8    0.41    0.38
   9   1   8   -0.21    0.31
  10   1   8    0.48    0.41
  10   1   8    0.41    0.44
  11   1   8   -0.50    0.41
  11   1   8    0.23    0.31
  12   1   8    0.00    0.07
  17   0  -8    0.87    1.10
 -16   0   8    0.31    0.30
  16   0  -8   -0.99    0.82
 -15   0   8    0.30    0.34
  15   0  -8    1.19    1.31
 -14   0   8    0.10    0.20
 -13   0   8    0.14    0.12
 -12   0   8    0.07    0.18
 -11   0   8    0.27    0.34
 -10   0   8    1.37    0.60
  -9   0   8    9.52    1.64
  -8   0   8    4.95    1.20
  -7   0   8    0.39    0.44
  -6   0   8    1.64    0.64
  -5   0   8    2.42    0.78
  -4   0   8    0.45    0.27
  -3   0   8    0.30    0.19
  -2   0   8    4.04    1.00
  -1   0   8    3.92    0.94
   0   0   8    4.14    1.02
   1   0   8    2.22    0.81
   1   0   8    1.47    0.54
   2   0   8    0.34    0.37
   2   0   8    0.03    0.28
   3   0   8    5.11    0.89
   3   0   8    6.33    1.19
   3   0   8    6.46    1.41
   4   0   8    1.79    0.68
   4   0   8    1.92    0.78
   5   0   8    0.30    0.26
   5   0   8    0.13    0.15
   6   0   8    1.13    0.54
   6   0   8    1.85    0.78
   7   0   8    0.21    0.09
   7   0   8    0.37    0.31
   8   0   8   -0.14    0.15
   8   0   8   -0.12    0.09
   9   0   8    0.64    0.49
  10   0   8    0.07    0.30
  11   0   8    0.49    0.51
  12   0   8    0.94    0.71
  13   0   8    0.31    0.46
 -17  -1   8   -0.06    0.19
  17   1  -8   -0.61    0.85
 -16  -1   8    0.16    0.30
  16   1  -8    0.66    0.89
 -15  -1   8    0.20    0.34
 -14  -1   8    0.40    0.39
 -13  -1   8    1.24    0.70
 -12  -1   8    0.10    0.25
 -11  -1   8    0.09    0.23
 -10  -1   8    0.40    0.35
  -9  -1   8    0.91    0.59
  -8  -1   8    1.12    0.60
  -7  -1   8    1.26    0.61
  -6  -1   8    3.01    0.92
  -5  -1   8    2.15    0.72
  -4  -1   8    1.71    0.67
  -3  -1   8    2.19    0.68
  -2  -1   8    1.92    0.67
  -1  -1   8    1.55    0.61
   0  -1   8    2.73    0.77
   0  -1   8    3.03    0.88
   1  -1   8    0.69    0.43
   1  -1   8    1.23    0.59
   2  -1   8    0.47    0.32
   2  -1   8   -0.34    0.22
   3  -1   8    0.59    0.36
   3  -1   8    0.59    0.33
   4  -1   8    0.54    0.42
   4  -1   8    0.07    0.13
   5  -1   8   -0.13    0.22
   5  -1   8   -0.01    0.19
   6  -1   8   -0.28    0.26
   6  -1   8    0.08    0.08
   7  -1   8   -0.05    0.23
   7  -1   8   -0.11    0.28
   8  -1   8    0.21    0.04
   9  -1   8    0.13    0.13
  10  -1   8    0.22    0.25
  11  -1   8    0.45    0.44
  12  -1   8    0.15    0.13
 -17  -2   8    0.09    0.20
  17   2  -8   -1.09    0.98
 -16  -2   8   -0.32    0.37
  16   2  -8    0.90    0.85
 -15  -2   8   -0.08    0.11
 -14  -2   8    0.24    0.25
 -13  -2   8   -0.13    0.06
 -12  -2   8    0.64    0.50
 -11  -2   8   -0.08    0.27
 -10  -2   8    1.26    0.70
  -9  -2   8    0.21    0.27
  -8  -2   8    0.60    0.37
  -7  -2   8    0.04    0.13
  -6  -2   8   -0.23    0.25
  -5  -2   8    0.61    0.41
  -4  -2   8    0.71    0.47
  -3  -2   8    0.23    0.20
  -2  -2   8    2.53    0.82
  -1  -2   8   -0.01    0.18
  -1  -2   8    0.27    0.38
   0  -2   8    1.83    0.65
   0  -2   8    2.46    0.86
   1  -2   8    1.28    0.64
   1  -2   8    1.37    0.64
   2  -2   8    2.06    0.69
   2  -2   8    2.54    0.92
   3  -2   8    0.39    0.26
   3  -2   8    0.44    0.37
   4  -2   8    0.84    0.44
   4  -2   8    1.71    0.72
   5  -2   8    0.29    0.25
   5  -2   8    0.31    0.32
   6  -2   8    0.23    0.38
   7  -2   8   -0.23    0.33
   8  -2   8    0.24    0.32
   9  -2   8   -0.21    0.37
  10  -2   8   -0.29    0.49
  11  -2   8    0.04    0.26
 -15  -3   8    0.12    0.21
 -14  -3   8    0.37    0.38
 -13  -3   8    0.23    0.20
 -12  -3   8    0.49    0.34
 -11  -3   8    1.15    0.65
 -10  -3   8    0.73    0.53
  -9  -3   8    0.32    0.39
  -8  -3   8    0.19    0.15
  -7  -3   8   -0.04    0.07
  -6  -3   8    1.38    0.66
  -5  -3   8    1.11    0.52
  -4  -3   8    1.24    0.67
  -3  -3   8    2.14    0.77
  -2  -3   8    1.39    0.57
  -1  -3   8    1.39    0.61
  -1  -3   8    1.70    0.78
   0  -3   8    1.92    0.67
   0  -3   8    1.79    0.77
   1  -3   8    1.20    0.55
   1  -3   8    1.20    0.62
   2  -3   8    0.58    0.33
   2  -3   8    0.77    0.38
   3  -3   8    0.20    0.25
   3  -3   8    0.80    0.56
   4  -3   8    1.07    0.60
   5  -3   8    0.41    0.46
   6  -3   8    1.35    0.73
   7  -3   8    0.20    0.36
   8  -3   8    0.42    0.33
   9  -3   8    0.37    0.37
  10  -3   8    0.24    0.32
 -13  -4   8    0.02    0.06
 -12  -4   8    0.16    0.14
 -11  -4   8    0.34    0.38
 -10  -4   8   -0.20    0.31
  -9  -4   8    0.09    0.15
  -8  -4   8    0.03    0.16
  -7  -4   8    0.29    0.41
  -6  -4   8    0.63    0.51
  -5  -4   8   -0.03    0.21
  -4  -4   8    0.35    0.26
  -3  -4   8    0.32    0.29
  -2  -4   8    0.01    0.13
  -2  -4   8    0.00    0.05
  -1  -4   8    0.44    0.32
  -1  -4   8    0.98    0.51
   0  -4   8    0.12    0.16
   0  -4   8    0.10    0.19
   1  -4   8    0.28    0.40
   1  -4   8    0.38    0.37
   2  -4   8    0.26    0.25
   2  -4   8   -0.06    0.19
   3  -4   8    0.55    0.38
   4  -4   8    0.39    0.28
   5  -4   8    0.97    0.55
   6  -4   8    0.98    0.65
   7  -4   8   -0.54    0.62
   8  -4   8    0.04    0.19
  13   5  -8   -0.46    0.66
  12   5  -8    0.85    1.00
 -11  -5   8    0.07    0.27
 -10  -5   8    0.10    0.34
  -9  -5   8    0.35    0.39
  -8  -5   8    0.05    0.35
  -7  -5   8    0.99    0.61
  -6  -5   8    0.11    0.22
  -5  -5   8    0.41    0.44
  -4  -5   8    0.05    0.26
  -3  -5   8    0.14    0.15
  -2  -5   8   -0.31    0.13
  -2  -5   8    0.30    0.33
  -1  -5   8    0.31    0.34
  -1  -5   8    0.10    0.13
   0  -5   8   -0.04    0.11
   0  -5   8    0.07    0.18
   1  -5   8    0.06    0.22
   2  -5   8    0.07    0.19
   3  -5   8    0.33    0.36
   4  -5   8   -0.25    0.41
   5  -5   8    0.68    0.62
   6  -5   8    0.12    0.30
  -8  -6   8    0.27    0.41
  -7  -6   8   -0.10    0.27
  -6  -6   8    0.15    0.30
  -5  -6   8    0.68    0.52
  -4  -6   8    0.09    0.28
  -3  -6   8   -0.20    0.34
  -2  -6   8    0.26    0.31
  -1  -6   8    0.02    0.21
   0  -6   8   -0.13    0.16
   1  -6   8   -0.43    0.48
   2  -6   8    0.20    0.11
   3  -6   8   -0.19    0.20
   4  -6   8    0.43    0.42
  -6   6   9   -0.02    0.09
  -5   6   9   -0.30    0.36
  -4   6   9   -0.40    0.44
  -3   6   9   -0.17    0.23
  -2   6   9    0.17    0.36
  11  -5  -9    0.73    0.94
  10  -5  -9   -0.48    0.63
   9  -5  -9    0.20    0.34
   8  -5  -9    0.10    0.31
  -8   5   9    0.35    0.40
  -7   5   9   -0.07    0.13
  -6   5   9    0.21    0.15
  -5   5   9    0.31    0.36
  -4   5   9    0.44    0.43
  -3   5   9    0.92    0.56
  -3   5   9    0.49    0.50
  -2   5   9    0.13    0.32
  -2   5   9    0.73    0.55
  -1   5   9    0.43    0.48
   0   5   9   -0.18    0.36
   1   5   9   -0.20    0.25
   2   5   9    0.07    0.09
   3   5   9   -0.26    0.15
   4   5   9    0.20    0.30
  12  -4  -9    0.66    0.75
  11  -4  -9    0.00    0.50
 -10   4   9   -0.06    0.17
  -9   4   9    0.11    0.23
  -8   4   9   -0.29    0.35
  -7   4   9    1.17    0.66
  -6   4   9    0.40    0.29
  -5   4   9    0.18    0.28
  -4   4   9   -0.01    0.23
  -3   4   9   -0.11    0.16
  -2   4   9    0.23    0.24
  -2   4   9    0.17    0.35
  -1   4   9    0.51    0.47
  -1   4   9    0.90    0.55
   0   4   9   -0.04    0.21
   0   4   9    0.76    0.58
   1   4   9   -0.18    0.17
   2   4   9    0.75    0.61
   3   4   9    0.53    0.34
   4   4   9    1.12    0.68
   5   4   9    0.49    0.47
   6   4   9    0.71    0.52
   7   4   9   -0.27    0.35
  13  -3  -9   -0.53    0.68
 -12   3   9    0.56    0.45
 -11   3   9   -0.11    0.24
 -10   3   9   -0.16    0.25
  -9   3   9    0.59    0.48
  -8   3   9   -0.06    0.33
  -7   3   9    0.49    0.44
  -6   3   9   -0.58    0.42
  -5   3   9    0.66    0.51
  -4   3   9    0.28    0.30
  -3   3   9   -0.08    0.18
  -2   3   9    0.32    0.43
  -1   3   9    0.46    0.48
  -1   3   9    0.75    0.49
   0   3   9    1.27    0.62
   0   3   9    1.46    0.76
   1   3   9   -0.25    0.33
   1   3   9    0.43    0.47
   2   3   9   -0.25    0.27
   2   3   9    0.07    0.20
   3   3   9    0.50    0.46
   4   3   9    0.24    0.35
   5   3   9    1.10    0.59
   6   3   9   -0.32    0.26
   7   3   9    0.09    0.11
   8   3   9   -0.07    0.06
  14  -2  -9   -1.15    1.02
 -13   2   9    0.39    0.37
 -12   2   9   -0.23    0.19
 -11   2   9    0.34    0.34
 -10   2   9   -0.19    0.37
  -9   2   9    0.40    0.33
  -8   2   9    0.12    0.19
  -7   2   9    0.99    0.53
  -6   2   9    3.80    1.06
  -5   2   9    3.36    0.96
  -4   2   9    0.37    0.23
  -3   2   9    0.61    0.37
  -2   2   9    3.80    1.06
  -1   2   9    2.60    0.84
   0   2   9    0.84    0.41
   0   2   9    1.14    0.58
   1   2   9    0.57    0.37
   1   2   9    0.15    0.25
   2   2   9    0.49    0.32
   2   2   9    0.27    0.15
   3   2   9    1.04    0.55
   3   2   9    1.25    0.67
   4   2   9    0.79    0.46
   4   2   9    1.44    0.67
   5   2   9    0.48    0.39
   5   2   9    0.19    0.24
   6   2   9   -0.10    0.19
   6   2   9   -0.03    0.15
   7   2   9    0.55    0.39
   8   2   9    0.13    0.25
   9   2   9    0.09    0.30
  10   2   9    0.06    0.17
 -15   1   9    0.38    0.34
  15  -1  -9    0.00    0.19
 -14   1   9    0.39    0.35
 -13   1   9    0.00    0.07
 -12   1   9    0.27    0.26
 -11   1   9    0.02    0.04
 -10   1   9    0.95    0.50
  -9   1   9    1.11    0.61
  -8   1   9    0.10    0.10
  -7   1   9   -0.02    0.26
  -6   1   9    2.30    0.82
  -5   1   9    0.01    0.20
  -4   1   9    0.28    0.37
  -3   1   9    1.52    0.68
  -2   1   9    1.41    0.60
  -1   1   9    5.37    1.23
   0   1   9    2.86    0.88
   1   1   9   -0.11    0.32
   2   1   9    0.53    0.36
   2   1   9    0.42    0.39
   3   1   9    0.03    0.15
   3   1   9    0.29    0.08
   4   1   9    0.03    0.17
   4   1   9    0.14    0.14
   5   1   9   -0.28    0.33
   5   1   9    0.24    0.18
   6   1   9    0.24    0.35
   6   1   9    1.05    0.54
   7   1   9   -0.36    0.41
   7   1   9    0.11    0.17
   8   1   9    0.41    0.33
   8   1   9    0.16    0.33
   9   1   9    0.48    0.50
   9   1   9    0.24    0.21
  10   1   9    0.11    0.43
 -16   0   9    0.01    0.14
  16   0  -9    0.00    0.28
 -15   0   9   -0.13    0.21
 -14   0   9    0.07    0.12
 -13   0   9    0.13    0.18
 -12   0   9    0.28    0.34
 -11   0   9    0.16    0.27
 -10   0   9    0.14    0.31
  -9   0   9   -0.05    0.08
  -8   0   9   -0.21    0.26
  -7   0   9    0.41    0.48
  -6   0   9    0.08    0.16
  -5   0   9   -0.04    0.15
  -4   0   9   -0.27    0.26
  -3   0   9    0.09    0.17
  -2   0   9   -0.19    0.39
  -1   0   9   -0.10    0.27
   0   0   9    0.35    0.35
   1   0   9    0.20    0.31
   2   0   9   -0.53    0.47
   2   0   9   -0.29    0.15
   3   0   9   -0.02    0.18
   3   0   9   -0.42    0.46
   4   0   9    0.10    0.07
   4   0   9   -0.03    0.26
   5   0   9    0.16    0.33
   5   0   9   -0.01    0.18
   6   0   9   -0.18    0.25
   6   0   9   -0.11    0.20
   7   0   9    0.26    0.36
   7   0   9    0.07    0.22
   8   0   9    0.06    0.25
   9   0   9    0.31    0.38
  10   0   9   -0.13    0.19
  11   0   9   -0.10    0.27
 -17  -1   9    0.40    0.40
 -16  -1   9   -0.04    0.21
  16   1  -9   -0.20    0.64
 -15  -1   9    0.04    0.10
 -14  -1   9   -0.22    0.19
 -13  -1   9    0.21    0.16
 -12  -1   9    0.07    0.11
 -11  -1   9    0.19    0.31
 -10  -1   9    0.92    0.52
  -9  -1   9    0.96    0.58
  -8  -1   9    0.04    0.29
  -7  -1   9   -0.19    0.36
  -6  -1   9    2.20    0.79
  -5  -1   9   -0.05    0.16
  -4  -1   9    0.41    0.34
  -3  -1   9    1.15    0.57
  -2  -1   9    0.92    0.45
  -1  -1   9    5.85    1.27
   0  -1   9    2.93    0.89
   1  -1   9    0.07    0.24
   1  -1   9    0.27    0.33
   2  -1   9    0.63    0.50
   2  -1   9    0.84    0.55
   3  -1   9    0.64    0.46
   3  -1   9    0.49    0.34
   4  -1   9   -0.05    0.11
   4  -1   9    0.02    0.14
   5  -1   9    0.25    0.26
   5  -1   9    0.10    0.12
   6  -1   9    0.33    0.23
   6  -1   9    0.72    0.51
   7  -1   9    0.69    0.49
   8  -1   9    0.49    0.45
   9  -1   9    0.58    0.59
  10  -1   9    0.12    0.41
 -15  -2   9    0.07    0.15
 -14  -2   9   -0.31    0.36
 -13  -2   9    0.25    0.34
 -12  -2   9    0.08    0.25
 -11  -2   9    0.50    0.40
 -10  -2   9    0.52    0.44
  -9  -2   9    0.00    0.18
  -8  -2   9   -0.11    0.28
  -7  -2   9    0.43    0.38
  -6  -2   9    3.77    1.09
  -5  -2   9    3.67    1.03
  -4  -2   9   -0.22    0.26
  -3  -2   9    0.66    0.49
  -2  -2   9    3.65    1.00
  -1  -2   9    3.24    0.93
   0  -2   9    0.98    0.50
   0  -2   9    1.45    0.63
   1  -2   9    0.42    0.38
   1  -2   9    0.00    0.12
   2  -2   9    0.19    0.28
   2  -2   9    0.62    0.37
   3  -2   9    0.99    0.44
   3  -2   9    1.26    0.67
   4  -2   9    0.93    0.50
   4  -2   9    1.84    0.83
   5  -2   9    0.83    0.59
   6  -2   9    0.23    0.17
   7  -2   9    0.20    0.04
   8  -2   9    0.68    0.55
   9  -2   9   -0.20    0.32
 -14  -3   9    0.11    0.33
 -13  -3   9    0.04    0.13
 -12  -3   9    0.82    0.64
 -11  -3   9   -0.01    0.05
 -10  -3   9    0.59    0.50
  -9  -3   9    0.18    0.31
  -8  -3   9   -0.06    0.07
  -7  -3   9    0.26    0.33
  -6  -3   9    0.33    0.06
  -5  -3   9   -0.36    0.34
  -4  -3   9    0.31    0.38
  -3  -3   9    0.38    0.22
  -2  -3   9   -0.01    0.12
  -1  -3   9    0.49    0.42
  -1  -3   9    0.43    0.34
   0  -3   9    0.89    0.51
   0  -3   9    0.98    0.55
   1  -3   9    0.27    0.27
   1  -3   9    0.14    0.23
   2  -3   9    0.16    0.27
   2  -3   9    0.24    0.31
   3  -3   9    0.25    0.22
   3  -3   9    0.68    0.42
   4  -3   9    1.40    0.71
   5  -3   9    1.76    0.86
   6  -3   9    0.64    0.58
   7  -3   9    0.07    0.34
   8  -3   9    0.39    0.40
 -12  -4   9   -0.07    0.17
 -11  -4   9   -0.24    0.31
 -10  -4   9    0.42    0.45
  -9  -4   9    0.49    0.49
  -8  -4   9    0.60    0.56
  -7  -4   9    1.54    0.77
  -6  -4   9    0.27    0.34
  -5  -4   9    0.55    0.38
  -4  -4   9    0.08    0.12
  -3  -4   9   -0.03    0.14
  -2  -4   9    0.55    0.40
  -1  -4   9   -0.04    0.27
  -1  -4   9    0.72    0.51
   0  -4   9    0.32    0.34
   0  -4   9   -0.02    0.26
   1  -4   9   -0.01    0.11
   1  -4   9    0.21    0.28
   2  -4   9    0.31    0.40
   3  -4   9    0.64    0.36
   4  -4   9    0.74    0.49
   5  -4   9    1.49    0.79
   6  -4   9    0.25    0.10
  -9  -5   9    0.05    0.24
  -8  -5   9    0.40    0.41
  -7  -5   9    0.09    0.28
  -6  -5   9    0.15    0.25
  -5  -5   9    0.20    0.36
  -4  -5   9   -0.17    0.34
  -3  -5   9    0.33    0.39
  -2  -5   9    0.03    0.03
  -1  -5   9    0.06    0.21
  -1  -5   9   -0.39    0.36
   0  -5   9   -0.06    0.15
   1  -5   9    0.17    0.22
   2  -5   9   -0.52    0.50
   3  -5   9    0.39    0.47
   4  -5   9   -0.19    0.40
  -5  -6   9    0.06    0.17
  -4  -6   9    0.15    0.23
  -3  -6   9   -0.05    0.16
   0  -6   9   -0.19    0.38
   1  -6   9   -0.18    0.32
  -8   5  10   -0.27    0.32
  -7   5  10    0.00    0.15
  -6   5  10    0.03    0.21
  -5   5  10   -0.21    0.23
  -4   5  10   -0.19    0.31
  -3   5  10   -0.34    0.34
  -2   5  10   -0.30    0.33
  -1   5  10   -0.28    0.34
 -10   4  10    0.10    0.25
  -9   4  10   -0.18    0.29
  -8   4  10    0.44    0.40
  -7   4  10    0.09    0.17
  -6   4  10   -0.28    0.29
  -5   4  10    0.07    0.15
  -4   4  10    0.31    0.31
  -3   4  10   -0.18    0.25
  -2   4  10    0.04    0.28
  -1   4  10    0.41    0.39
  -1   4  10    0.00    0.29
   0   4  10    0.15    0.27
   0   4  10   -0.10    0.22
   1   4  10    0.06    0.10
   1   4  10    0.17    0.39
   2   4  10    0.06    0.14
   2   4  10    0.00    0.04
   3   4  10    0.06    0.10
   3   4  10   -0.08    0.17
   4   4  10   -0.45    0.43
   5   4  10   -0.04    0.16
 -12   3  10    0.06    0.22
 -11   3  10    0.00    0.13
 -10   3  10   -0.06    0.22
  -9   3  10   -0.26    0.29
  -8   3  10    0.15    0.09
  -7   3  10    0.65    0.53
  -6   3  10    0.27    0.30
  -5   3  10   -0.06    0.07
  -4   3  10   -0.15    0.30
  -3   3  10    0.56    0.36
  -2   3  10   -0.55    0.49
  -1   3  10    0.54    0.47
   0   3  10    0.31    0.29
   0   3  10    0.13    0.27
   1   3  10   -0.10    0.18
   1   3  10   -0.51    0.32
   2   3  10    0.10    0.36
   2   3  10    0.02    0.31
   3   3  10   -0.08    0.13
   3   3  10    0.59    0.54
   4   3  10    0.13    0.25
   4   3  10   -0.22    0.28
   5   3  10    0.10    0.25
   5   3  10   -0.48    0.42
   6   3  10    0.33    0.39
   6   3  10   -0.25    0.39
 -13   2  10    0.00    0.17
 -12   2  10    0.52    0.48
 -11   2  10    0.24    0.27
 -10   2  10    0.50    0.45
  -9   2  10    0.34    0.38
  -8   2  10    0.28    0.34
  -7   2  10    0.48    0.34
  -6   2  10    0.87    0.58
  -5   2  10    0.16    0.23
  -4   2  10    0.44    0.37
  -3   2  10    0.43    0.18
  -2   2  10   -0.07    0.22
  -1   2  10    1.11    0.59
   0   2  10    0.24    0.27
   1   2  10    0.81    0.47
   1   2  10    0.25    0.28
   2   2  10    0.18    0.06
   2   2  10    0.29    0.34
   3   2  10   -0.03    0.18
   3   2  10   -0.20    0.32
   4   2  10    0.24    0.31
   4   2  10    0.26    0.34
   5   2  10    0.54    0.49
   6   2  10   -0.06    0.33
   7   2  10    0.26    0.32
   8   2  10   -0.03    0.30
 -15   1  10    0.27    0.36
 -14   1  10   -0.10    0.18
 -13   1  10    0.42    0.39
 -12   1  10    0.32    0.39
 -11   1  10   -0.12    0.36
 -10   1  10    0.35    0.35
  -9   1  10    0.07    0.10
  -8   1  10   -0.06    0.16
  -7   1  10    0.21    0.30
  -6   1  10    1.48    0.67
  -5   1  10    1.80    0.73
  -4   1  10    0.41    0.46
  -3   1  10    0.45    0.26
  -2   1  10    0.45    0.42
  -1   1  10    0.18    0.27
   0   1  10    0.19    0.25
   1   1  10    0.66    0.40
   2   1  10    0.12    0.26
   3   1  10   -0.18    0.15
   4   1  10    0.57    0.49
   5   1  10    0.02    0.10
   6   1  10    0.41    0.39
   7   1  10    0.03    0.08
   7   1  10    0.03    0.26
   8   1  10   -0.14    0.31
   8   1  10    0.00    0.15
   9   1  10   -0.23    0.38
 -15   0  10   -0.05    0.12
 -14   0  10   -0.13    0.21
 -13   0  10    0.50    0.41
 -12   0  10    0.35    0.41
 -11   0  10   -0.10    0.08
 -10   0  10    0.03    0.22
  -9   0  10    0.17    0.27
  -8   0  10    0.42    0.39
  -7   0  10    0.38    0.34
  -6   0  10    0.74    0.54
  -5   0  10   -0.38    0.54
  -4   0  10    1.21    0.62
  -3   0  10    1.42    0.65
  -2   0  10    0.37    0.27
  -1   0  10    2.04    0.78
   0   0  10    0.53    0.32
   1   0  10    0.07    0.26
   2   0  10    0.58    0.42
   3   0  10    0.35    0.30
   4   0  10    0.14    0.23
   4   0  10   -0.07    0.03
   5   0  10    0.37    0.34
   5   0  10    0.70    0.58
   6   0  10    0.55    0.41
   6   0  10    0.21    0.38
   7   0  10    0.41    0.37
   7   0  10   -0.16    0.24
   8   0  10    0.40    0.43
   9   0  10   -0.18    0.36
 -15  -1  10    0.38    0.42
 -14  -1  10    0.28    0.40
 -13  -1  10    0.06    0.14
 -12  -1  10   -0.16    0.37
 -11  -1  10   -0.12    0.06
 -10  -1  10    0.03    0.27
  -9  -1  10    0.31    0.47
  -8  -1  10    0.35    0.28
  -7  -1  10    0.22    0.18
  -6  -1  10    1.41    0.69
  -5  -1  10    2.33    0.86
  -4  -1  10   -0.34    0.42
  -3  -1  10    0.16    0.12
  -2  -1  10    0.18    0.05
  -1  -1  10   -0.06    0.09
   0  -1  10   -0.29    0.29
   1  -1  10    0.48    0.29
   2  -1  10    0.02    0.24
   2  -1  10   -0.45    0.52
   3  -1  10   -0.12    0.31
   3  -1  10    0.28    0.39
   4  -1  10    0.04    0.10
   4  -1  10    0.27    0.29
   5  -1  10    0.19    0.27
   5  -1  10    0.09    0.13
   6  -1  10    0.00    0.25
   7  -1  10    0.21    0.24
   8  -1  10    0.11    0.30
 -13  -2  10    0.22    0.38
 -12  -2  10   -0.06    0.26
 -11  -2  10    0.28    0.36
 -10  -2  10    0.29    0.33
  -9  -2  10    0.11    0.05
  -8  -2  10    0.14    0.26
  -7  -2  10    0.05    0.13
  -6  -2  10    0.01    0.22
  -5  -2  10    0.42    0.35
  -4  -2  10    0.29    0.28
  -3  -2  10    0.58    0.45
  -2  -2  10    0.08    0.23
  -1  -2  10    0.27    0.35
   0  -2  10   -0.20    0.27
   1  -2  10    0.32    0.28
   1  -2  10   -0.15    0.34
   2  -2  10    0.70    0.45
   2  -2  10    0.24    0.26
   3  -2  10    0.00    0.05
   3  -2  10   -0.25    0.37
   4  -2  10   -0.19    0.26
   4  -2  10    0.19    0.07
   5  -2  10    0.74    0.54
   6  -2  10    0.34    0.39
   7  -2  10    0.05    0.16
 -11  -3  10    0.16    0.40
 -10  -3  10    0.07    0.07
  -9  -3  10    0.54    0.42
  -8  -3  10    0.49    0.43
  -7  -3  10    0.01    0.19
  -6  -3  10    0.00    0.31
  -5  -3  10    0.03    0.13
  -4  -3  10    0.40    0.32
  -3  -3  10    0.14    0.21
  -2  -3  10   -0.11    0.18
  -1  -3  10    0.15    0.24
   0  -3  10   -0.05    0.21
   0  -3  10    0.15    0.30
   1  -3  10    0.08    0.25
   1  -3  10   -0.49    0.46
   2  -3  10    0.24    0.21
   2  -3  10   -0.24    0.38
   3  -3  10    0.09    0.17
   4  -3  10    0.13    0.35
   5  -3  10    0.71    0.64
  -9  -4  10    0.20    0.33
  -8  -4  10    0.20    0.30
  -7  -4  10    0.20    0.36
  -6  -4  10   -0.44    0.38
  -5  -4  10   -0.21    0.32
  -4  -4  10   -0.33    0.33
  -3  -4  10    0.31    0.27
  -2  -4  10    0.54    0.49
  -1  -4  10    0.00    0.09
   0  -4  10    0.02    0.15
   0  -4  10    0.04    0.22
   1  -4  10    0.01    0.21
   2  -4  10    0.09    0.28
   3  -4  10   -0.07    0.19
  -6  -5  10   -0.30    0.42
  -5  -5  10    0.01    0.12
  -4  -5  10    0.09    0.28
  -3  -5  10   -0.09    0.20
  -2  -5  10    0.09    0.08
   0  -5  10    0.07    0.15
  -9   4  11   -0.03    0.19
  -8   4  11   -0.10    0.26
  -7   4  11    0.05    0.03
  -6   4  11    0.00    0.09
  -5   4  11    0.12    0.18
  -4   4  11   -0.29    0.42
  -3   4  11    0.19    0.22
   0   4  11    0.04    0.24
 -12   3  11    0.15    0.31
 -11   3  11    0.16    0.34
 -10   3  11    0.01    0.04
  -9   3  11   -0.33    0.33
  -8   3  11    0.15    0.32
  -7   3  11   -0.07    0.14
  -6   3  11   -0.02    0.09
  -5   3  11    0.63    0.60
  -4   3  11    0.73    0.49
  -3   3  11    0.53    0.50
  -2   3  11    0.14    0.18
  -1   3  11    0.19    0.40
   0   3  11    0.19    0.27
   1   3  11    0.17    0.11
   1   3  11    0.18    0.22
   2   3  11    0.34    0.41
   3   3  11    0.38    0.31
 -13   2  11    0.24    0.30
 -12   2  11    0.24    0.37
 -11   2  11   -0.38    0.36
 -10   2  11   -0.13    0.08
  -9   2  11    0.32    0.40
  -8   2  11    0.07    0.41
  -7   2  11    0.52    0.42
  -6   2  11    0.69    0.42
  -5   2  11    0.23    0.28
  -4   2  11   -0.05    0.08
  -3   2  11    0.14    0.33
  -2   2  11    0.23    0.26
  -1   2  11    0.13    0.06
   0   2  11    0.52    0.46
   1   2  11    0.07    0.12
   2   2  11    0.33    0.40
   3   2  11   -0.05    0.22
   4   2  11   -0.36    0.38
 -13   1  11    0.01    0.11
 -12   1  11    0.00    0.09
 -11   1  11    0.36    0.35
 -10   1  11    0.02    0.03
  -9   1  11   -0.19    0.26
  -8   1  11    0.29    0.31
  -7   1  11    0.30    0.20
  -6   1  11    0.06    0.18
  -5   1  11    0.02    0.19
  -4   1  11    0.72    0.42
  -3   1  11    0.53    0.37
  -2   1  11    0.68    0.47
  -1   1  11    0.23    0.39
   0   1  11    0.50    0.44
   1   1  11    0.10    0.31
   2   1  11    0.25    0.33
   3   1  11    0.10    0.14
   4   1  11    0.19    0.33
   5   1  11    0.24    0.30
   6   1  11    0.35    0.30
 -13   0  11   -0.16    0.31
 -12   0  11    0.31    0.45
 -11   0  11   -0.20    0.26
 -10   0  11    0.12    0.20
  -9   0  11   -0.14    0.06
  -8   0  11   -0.12    0.23
  -7   0  11   -0.30    0.35
  -6   0  11    0.20    0.33
  -5   0  11    0.23    0.31
  -4   0  11   -0.23    0.09
  -3   0  11    0.00    0.11
  -2   0  11    0.20    0.33
  -1   0  11   -0.38    0.35
   0   0  11    0.16    0.25
   1   0  11   -0.05    0.13
   2   0  11    0.12    0.20
   3   0  11    0.05    0.10
   4   0  11   -0.04    0.10
   5   0  11   -0.21    0.26
   6   0  11   -0.40    0.55
   6   0  11   -0.09    0.12
 -12  -1  11   -0.07    0.17
 -11  -1  11   -0.02    0.18
 -10  -1  11    0.61    0.46
  -9  -1  11    0.28    0.37
  -8  -1  11   -0.17    0.25
  -7  -1  11    0.59    0.52
  -6  -1  11    0.54    0.42
  -5  -1  11   -0.07    0.19
  -4  -1  11    1.34    0.62
  -3  -1  11    0.01    0.28
  -2  -1  11    0.34    0.29
  -1  -1  11    0.22    0.20
   0  -1  11   -0.17    0.23
   1  -1  11    0.29    0.24
   2  -1  11   -0.16    0.19
   3  -1  11   -0.05    0.23
   4  -1  11    0.27    0.53
   4  -1  11    0.15    0.08
   5  -1  11    0.01    0.10
 -10  -2  11   -0.25    0.32
  -9  -2  11    0.33    0.33
  -8  -2  11    0.20    0.08
  -7  -2  11    0.84    0.56
  -6  -2  11    0.46    0.41
  -5  -2  11    0.09    0.33
  -4  -2  11    0.02    0.13
  -3  -2  11   -0.34    0.33
  -2  -2  11    0.10    0.22
  -1  -2  11   -0.15    0.19
   0  -2  11    0.33    0.38
   1  -2  11    0.39    0.37
   2  -2  11    0.48    0.41
   2  -2  11    0.38    0.54
   3  -2  11    0.29    0.20
   3  -2  11   -0.10    0.33
   4  -2  11    0.16    0.19
  -8  -3  11    0.00    0.21
  -7  -3  11    0.00    0.24
  -6  -3  11   -0.18    0.22
  -5  -3  11    0.31    0.39
  -4  -3  11    0.26    0.35
  -3  -3  11    0.13    0.28
  -2  -3  11   -0.20    0.20
  -1  -3  11   -0.10    0.29
   0  -3  11    0.06    0.11
   1  -3  11    0.58    0.51
   2  -3  11    0.19    0.27
  -5  -4  11    0.34    0.42
  -4  -4  11    0.09    0.13
  -3  -4  11    0.19    0.33
  -2  -4  11   -0.11    0.19
  -1  -4  11    0.09    0.25
  -6   2  12    0.16    0.29
  -5   2  12    0.20    0.33
  -4   2  12    0.51    0.40
  -3   2  12   -0.10    0.23
  -8   1  12    0.00    0.12
  -7   1  12    0.31    0.47
  -6   1  12    0.61    0.50
  -5   1  12    0.11    0.27
  -4   1  12   -0.47    0.45
  -3   1  12   -0.29    0.24
  -2   1  12    0.29    0.31
  -1   1  12    0.02    0.21
   0   1  12    0.17    0.32
   1   1  12    0.10    0.28
  -8   0  12    0.09    0.28
  -7   0  12    0.19    0.36
  -6   0  12    0.31    0.38
  -5   0  12    0.50    0.52
  -4   0  12    0.63    0.45
  -3   0  12    0.42    0.42
  -2   0  12    0.48    0.41
  -1   0  12    0.16    0.05
   0   0  12    0.02    0.11
   1   0  12    0.08    0.13
   2   0  12   -0.11    0.26
  -7  -1  12    0.05    0.21
  -6  -1  12    0.18    0.25
  -5  -1  12    0.13    0.14
  -4  -1  12    0.06    0.11
  -3  -1  12    0.04    0.12
  -2  -1  12    0.08    0.21
  -1  -1  12    0.12    0.21
   0  -1  12    0.15    0.19
   1  -1  12    0.16    0.36
   2  -1  12    0.26    0.29
   3  -1  12    0.22    0.34
  -5  -2  12    0.16    0.31
  -4  -2  12    0.14    0.07
  -3  -2  12    0.02    0.17
  -2  -2  12    0.28    0.29
  -1  -2  12    0.07    0.21
   0  -2  12    0.19    0.31
   1  -2  12   -0.19    0.30
   2  -2  12   -0.03    0.08
   0  -3  12    0.07    0.21
   0   0   0    0.00    0.00
;
_shelx_hkl_checksum              63066
loop_
_space_group_symop_operation_xyz
'x, y, z'
'x, -y, z+1/2'
loop_
_atom_site_label
_atom_site_type_symbol
_atom_site_fract_x
_atom_site_fract_y
_atom_site_fract_z
_atom_site_U_iso_or_equiv
_atom_site_adp_type
_atom_site_occupancy
_atom_site_site_symmetry_order
_atom_site_calc_flag
_atom_site_refinement_flags_posn
_atom_site_refinement_flags_adp
F1 F 0.48658(17) 0.5743(4) 0.2515(3) 0.0822(7) Uani 1 1 d . .
O1 O 0.7184(2) -0.0310(4) 0.2149(4) 0.0806(8) Uani 1 1 d . .
O2 O 0.6842(2) 0.5940(4) 0.4965(3) 0.0749(8) Uani 1 1 d . .
O3 O 0.3286(3) 0.5372(6) 0.3788(5) 0.1121(12) Uani 1 1 d . .
O4 O 0.3528(2) 0.1698(5) 0.4131(4) 0.0898(9) Uani 1 1 d . .
N1 N 0.7233(2) 0.2958(5) 0.3554(3) 0.0601(7) Uani 1 1 d . .
C1 C 0.6791(3) 0.0979(6) 0.2915(4) 0.0608(9) Uani 1 1 d . .
C2 C 0.5767(3) 0.0784(6) 0.3311(5) 0.0624(9) Uani 1 1 d . .
H2 H 0.5624 -0.0662 0.3750 0.075 Uiso 1 1 calc R U
C3 C 0.4895(3) 0.1733(7) 0.2036(5) 0.0791(12) Uani 1 1 d . .
H3A H 0.5115 0.2216 0.1104 0.095 Uiso 1 1 calc R U
H3B H 0.4312 0.0746 0.1782 0.095 Uiso 1 1 calc R U
C4 C 0.4752(3) 0.3647(6) 0.3113(4) 0.0607(9) Uani 1 1 d . .
C5 C 0.5675(3) 0.2822(5) 0.4329(4) 0.0569(8) Uani 1 1 d . .
H5 H 0.5531 0.2473 0.5353 0.068 Uiso 1 1 calc R U
C6 C 0.6630(3) 0.4134(5) 0.4360(4) 0.0569(8) Uani 1 1 d . .
C7 C 0.8200(3) 0.3800(7) 0.3295(5) 0.0716(10) Uani 1 1 d . .
H7A H 0.8143 0.5401 0.3108 0.086 Uiso 1 1 calc R U
H7B H 0.8347 0.3101 0.2369 0.086 Uiso 1 1 calc R U
C8 C 0.9073(3) 0.3368(6) 0.4637(4) 0.0649(9) Uani 1 1 d . .
C9 C 0.9823(4) 0.4974(7) 0.5039(6) 0.0855(13) Uani 1 1 d . .
H9 H 0.9764 0.6342 0.4522 0.103 Uiso 1 1 calc R U
C10 C 1.0658(4) 0.4558(10) 0.6201(7) 0.1036(17) Uani 1 1 d . .
H10 H 1.1153 0.5657 0.6467 0.124 Uiso 1 1 calc R U
C11 C 1.0769(4) 0.2561(11) 0.6964(6) 0.0995(16) Uani 1 1 d . .
H11 H 1.1348 0.2272 0.7715 0.119 Uiso 1 1 calc R U
C12 C 1.0029(4) 0.1004(9) 0.6619(6) 0.0947(15) Uani 1 1 d . .
H12 H 1.0083 -0.0331 0.7176 0.114 Uiso 1 1 calc R U
C13 C 0.9195(3) 0.1379(7) 0.5448(5) 0.0813(12) Uani 1 1 d . .
H13 H 0.8705 0.0266 0.5199 0.098 Uiso 1 1 calc R U
C14 C 0.3752(3) 0.3727(7) 0.3700(5) 0.0710(11) Uani 1 1 d . .
C15 C 0.2645(4) 0.1557(10) 0.4831(8) 0.120(2) Uani 1 1 d . .
H15A H 0.2544 0.0030 0.5108 0.180 Uiso 1 1 calc R U
H15B H 0.2058 0.2072 0.4102 0.180 Uiso 1 1 calc R U
H15C H 0.2746 0.2476 0.5746 0.180 Uiso 1 1 calc R U
loop_
_atom_site_aniso_label
_atom_site_aniso_U_11
_atom_site_aniso_U_22
_atom_site_aniso_U_33
_atom_site_aniso_U_23
_atom_site_aniso_U_13
_atom_site_aniso_U_12
F1 0.0800(15) 0.0773(14) 0.0844(16) 0.0234(12) 0.0051(12) -0.0031(12)
O1 0.0825(19) 0.0757(17) 0.087(2) -0.0133(16) 0.0254(16) 0.0133(15)
O2 0.0777(18) 0.0681(16) 0.0747(19) -0.0130(13) 0.0058(14) -0.0034(13)
O3 0.092(2) 0.093(2) 0.156(4) 0.008(2) 0.037(2) 0.0310(19)
O4 0.0708(19) 0.092(2) 0.109(3) 0.0102(18) 0.0229(16) -0.0065(16)
N1 0.0578(18) 0.0608(15) 0.0607(18) 0.0034(15) 0.0093(14) 0.0013(14)
C1 0.067(2) 0.0556(19) 0.058(2) 0.0009(16) 0.0070(18) 0.0035(16)
C2 0.063(2) 0.0554(18) 0.069(2) -0.0006(17) 0.0125(18) 0.0017(17)
C3 0.064(2) 0.090(3) 0.078(3) -0.020(2) 0.002(2) -0.001(2)
C4 0.057(2) 0.0570(18) 0.066(2) 0.0022(17) 0.0055(17) 0.0032(16)
C5 0.057(2) 0.0559(18) 0.056(2) -0.0032(16) 0.0089(15) 0.0016(15)
C6 0.060(2) 0.0509(17) 0.0561(19) -0.0047(16) 0.0037(16) -0.0023(16)
C7 0.065(2) 0.079(2) 0.071(3) 0.005(2) 0.015(2) -0.002(2)
C8 0.056(2) 0.073(2) 0.069(2) -0.003(2) 0.0225(18) -0.0019(18)
C9 0.072(3) 0.087(3) 0.099(3) 0.003(2) 0.020(3) -0.013(2)
C10 0.074(3) 0.121(4) 0.111(4) -0.004(3) 0.007(3) -0.021(3)
C11 0.065(3) 0.138(4) 0.090(4) -0.001(3) 0.005(3) 0.005(3)
C12 0.077(3) 0.108(4) 0.093(3) 0.014(3) 0.002(3) 0.007(3)
C13 0.068(3) 0.084(3) 0.089(3) 0.009(2) 0.008(2) -0.003(2)
C14 0.061(2) 0.069(2) 0.078(3) 0.001(2) 0.003(2) 0.004(2)
C15 0.069(3) 0.167(5) 0.128(5) 0.027(4) 0.027(3) -0.008(3)
loop_
_atom_type_symbol
_atom_type_description
_atom_type_scat_dispersion_real
_atom_type_scat_dispersion_imag
_atom_type_scat_source
C C 0.0033 0.0016 'International Tables Vol C Tables 4.2.6.8 and 6.1.1.4'
H H 0.0000 0.0000 'International Tables Vol C Tables 4.2.6.8 and 6.1.1.4'
N N 0.0061 0.0033 'International Tables Vol C Tables 4.2.6.8 and 6.1.1.4'
O O 0.0106 0.0060 'International Tables Vol C Tables 4.2.6.8 and 6.1.1.4'
F F 0.0171 0.0103 'International Tables Vol C Tables 4.2.6.8 and 6.1.1.4'
loop_
_geom_angle_atom_site_label_1
_geom_angle_atom_site_label_2
_geom_angle_atom_site_label_3
_geom_angle
C14 O4 C15 115.4(4)
C6 N1 C1 113.2(3)
C6 N1 C7 123.0(3)
C1 N1 C7 123.6(3)
O1 C1 N1 124.4(4)
O1 C1 C2 127.4(3)
N1 C1 C2 108.2(3)
C1 C2 C5 105.2(3)
C1 C2 C3 113.6(3)
C5 C2 C3 89.6(3)
C4 C3 C2 89.9(3)
F1 C4 C3 114.0(3)
F1 C4 C14 105.8(3)
C3 C4 C14 117.6(3)
F1 C4 C5 114.6(3)
C3 C4 C5 90.3(3)
C14 C4 C5 114.4(3)
C6 C5 C2 104.7(3)
C6 C5 C4 114.3(3)
C2 C5 C4 89.9(3)
O2 C6 N1 124.8(3)
O2 C6 C5 126.6(3)
N1 C6 C5 108.5(3)
N1 C7 C8 113.5(3)
C13 C8 C9 117.4(4)
C13 C8 C7 122.9(3)
C9 C8 C7 119.5(4)
C10 C9 C8 120.4(4)
C11 C10 C9 120.9(5)
C12 C11 C10 119.4(4)
C11 C12 C13 120.5(5)
C8 C13 C12 121.3(4)
O3 C14 O4 126.2(5)
O3 C14 C4 124.3(4)
O4 C14 C4 109.5(3)
loop_
_geom_bond_atom_site_label_1
_geom_bond_atom_site_label_2
_geom_bond_distance
F1 C4 1.377(4)
O1 C1 1.213(4)
O2 C6 1.210(3)
O3 C14 1.176(4)
O4 C14 1.322(4)
O4 C15 1.448(6)
N1 C6 1.373(5)
N1 C1 1.389(4)
N1 C7 1.457(5)
C1 C2 1.493(6)
C2 C5 1.530(5)
C2 C3 1.555(5)
C3 C4 1.520(5)
C4 C14 1.536(6)
C4 C5 1.546(5)
C5 C6 1.501(5)
C7 C8 1.508(5)
C8 C13 1.377(5)
C8 C9 1.385(5)
C9 C10 1.379(7)
C10 C11 1.360(8)
C11 C12 1.351(7)
C12 C13 1.378(6)
loop_
_geom_torsion_atom_site_label_1
_geom_torsion_atom_site_label_2
_geom_torsion_atom_site_label_3
_geom_torsion_atom_site_label_4
_geom_torsion
C6 N1 C1 O1 179.4(3)
C7 N1 C1 O1 4.1(5)
C6 N1 C1 C2 0.6(4)
C7 N1 C1 C2 -174.6(3)
O1 C1 C2 C5 178.6(4)
N1 C1 C2 C5 -2.8(4)
O1 C1 C2 C3 -85.1(4)
N1 C1 C2 C3 93.6(3)
C1 C2 C3 C4 -110.9(3)
C5 C2 C3 C4 -4.4(3)
C2 C3 C4 F1 121.7(3)
C2 C3 C4 C14 -113.5(4)
C2 C3 C4 C5 4.4(3)
C1 C2 C5 C6 3.7(4)
C3 C2 C5 C6 -110.8(3)
C1 C2 C5 C4 118.8(3)
C3 C2 C5 C4 4.4(3)
F1 C4 C5 C6 -15.1(5)
C3 C4 C5 C6 101.7(3)
C14 C4 C5 C6 -137.6(3)
F1 C4 C5 C2 -121.3(3)
C3 C4 C5 C2 -4.5(3)
C14 C4 C5 C2 116.2(3)
C1 N1 C6 O2 -177.2(3)
C7 N1 C6 O2 -1.8(5)
C1 N1 C6 C5 1.8(4)
C7 N1 C6 C5 177.1(3)
C2 C5 C6 O2 175.5(3)
C4 C5 C6 O2 78.9(5)
C2 C5 C6 N1 -3.4(4)
C4 C5 C6 N1 -100.1(3)
C6 N1 C7 C8 83.7(4)
C1 N1 C7 C8 -101.5(4)
N1 C7 C8 C13 41.3(6)
N1 C7 C8 C9 -142.3(4)
C13 C8 C9 C10 0.5(7)
C7 C8 C9 C10 -176.1(5)
C8 C9 C10 C11 0.7(9)
C9 C10 C11 C12 -2.7(9)
C10 C11 C12 C13 3.5(9)
C9 C8 C13 C12 0.4(7)
C7 C8 C13 C12 176.8(5)
C11 C12 C13 C8 -2.4(8)
C15 O4 C14 O3 -2.7(7)
C15 O4 C14 C4 175.2(4)
F1 C4 C14 O3 -9.2(5)
C3 C4 C14 O3 -138.0(5)
C5 C4 C14 O3 117.9(5)
F1 C4 C14 O4 172.9(3)
C3 C4 C14 O4 44.1(4)
C5 C4 C14 O4 -60.0(4)
