#------------------------------------------------------------------------------
#$Date: 2019-11-11 17:18:51 +0200 (Mon, 11 Nov 2019) $
#$Revision: 226694 $
#$URL: file:///home/coder/svn-repositories/cod/cif/4/03/52/4035219.cif $
#------------------------------------------------------------------------------
#
# This file is available in the Crystallography Open Database (COD),
# http://www.crystallography.net/
#
# All data on this site have been placed in the public domain by the
# contributors.
#
data_4035219
loop_
_publ_author_name
'Ghosh, Tubai'
'Maity, Pintu'
'Ranu, Brindaban C.'
_publ_section_title
;
 Cu(OAc)<sub>2</sub>-Promoted Ortho C(sp<sup>2</sup>)-H Amidation of
 8-Aminoquinoline Benzamide with Acyl Azide: Selective Formation of Aroyl
 or Acetyl Amide Based on Catalyst Loading.
;
_journal_issue                   19
_journal_name_full               'The Journal of organic chemistry'
_journal_page_first              11758
_journal_page_last               11767
_journal_paper_doi               10.1021/acs.joc.8b01654
_journal_volume                  83
_journal_year                    2018
_chemical_formula_moiety         'C16 H13 N3 O2 S'
_chemical_formula_sum            'C16 H13 N3 O2 S'
_chemical_formula_weight         311.35
_space_group_crystal_system      triclinic
_space_group_IT_number           2
_space_group_name_Hall           '-P 1'
_space_group_name_H-M_alt        'P -1'
_atom_sites_solution_hydrogens   geom
_atom_sites_solution_primary     dual
_audit_creation_date             2018-06-14
_audit_creation_method
;
Olex2 1.2
(compiled 2018.05.29 svn.r3508 for OlexSys, GUI svn.r5506)
;
_cell_angle_alpha                88.210(4)
_cell_angle_beta                 86.511(4)
_cell_angle_gamma                79.953(4)
_cell_formula_units_Z            2
_cell_length_a                   7.2860(8)
_cell_length_b                   8.3926(10)
_cell_length_c                   12.1427(13)
_cell_measurement_reflns_used    3009
_cell_measurement_temperature    132(2)
_cell_measurement_theta_max      24.98
_cell_measurement_theta_min      2.47
_cell_volume                     729.61(14)
_computing_cell_refinement       'SAINT V8.38A (?, 2016)'
_computing_data_reduction        'SAINT V8.38A (?, 2016)'
_computing_molecular_graphics    'Olex2 (Dolomanov et al., 2009)'
_computing_publication_material  'Olex2 (Dolomanov et al., 2009)'
_computing_structure_refinement  'ShelXL (Sheldrick, 2015)'
_computing_structure_solution    'ShelXT (Sheldrick, 2015)'
_diffrn_ambient_temperature      132.55
_diffrn_measured_fraction_theta_full 0.989
_diffrn_measured_fraction_theta_max 0.989
_diffrn_measurement_device_type  'Bruker APEX-II CCD'
_diffrn_measurement_method       '\f and \w scans'
_diffrn_radiation_type           MoK\a
_diffrn_radiation_wavelength     0.71073
_diffrn_reflns_av_R_equivalents  0.0463
_diffrn_reflns_av_unetI/netI     0.0510
_diffrn_reflns_Laue_measured_fraction_full 0.989
_diffrn_reflns_Laue_measured_fraction_max 0.989
_diffrn_reflns_limit_h_max       8
_diffrn_reflns_limit_h_min       -8
_diffrn_reflns_limit_k_max       9
_diffrn_reflns_limit_k_min       -9
_diffrn_reflns_limit_l_max       14
_diffrn_reflns_limit_l_min       -14
_diffrn_reflns_number            7575
_diffrn_reflns_point_group_measured_fraction_full 0.989
_diffrn_reflns_point_group_measured_fraction_max 0.989
_diffrn_reflns_theta_full        25.015
_diffrn_reflns_theta_max         25.015
_diffrn_reflns_theta_min         2.955
_diffrn_standards_number         0
_exptl_absorpt_coefficient_mu    0.232
_exptl_absorpt_correction_T_max  0.7452
_exptl_absorpt_correction_T_min  0.6087
_exptl_absorpt_correction_type   multi-scan
_exptl_absorpt_process_details
;
SADABS-2016/2 (Bruker,2016/2) was used for absorption correction.
wR2(int) was 0.1242 before and 0.0620 after correction.
The Ratio of minimum to maximum transmission is 0.8168.
The \l/2 correction factor is Not present.
;
_exptl_crystal_density_diffrn    1.417
_exptl_crystal_F_000             324
_refine_diff_density_max         0.191
_refine_diff_density_min         -0.197
_refine_diff_density_rms         0.036
_refine_ls_extinction_method     none
_refine_ls_goodness_of_fit_ref   1.023
_refine_ls_hydrogen_treatment    constr
_refine_ls_matrix_type           full
_refine_ls_number_parameters     200
_refine_ls_number_reflns         2538
_refine_ls_number_restraints     0
_refine_ls_restrained_S_all      1.023
_refine_ls_R_factor_all          0.0576
_refine_ls_R_factor_gt           0.0420
_refine_ls_shift/su_max          0.000
_refine_ls_shift/su_mean         0.000
_refine_ls_structure_factor_coef Fsqd
_refine_ls_weighting_details
'w=1/[\s^2^(Fo^2^)+(0.0443P)^2^+0.1916P] where P=(Fo^2^+2Fc^2^)/3'
_refine_ls_weighting_scheme      calc
_refine_ls_wR_factor_gt          0.1020
_refine_ls_wR_factor_ref         0.1115
_reflns_Friedel_coverage         0.000
_reflns_number_gt                1994
_reflns_number_total             2538
_reflns_threshold_expression     'I > 2\s(I)'
_cod_data_source_file            jo8b01654_si_003.cif
_cod_data_source_block           mo_broc250917_0m
_cod_database_code               4035219
_shelx_shelxl_version_number     2018/3
_shelx_space_group_comment
;
The symmetry employed for this shelxl refinement is uniquely defined
by the following loop, which should always be used as a source of
symmetry information in preference to the above space-group names.
They are only intended as comments.
;
_olex2_refinement_description
;
1. Fixed Uiso
 At 1.2 times of:
  All C(H) groups, All N(H) groups
 At 1.5 times of:
  All C(H,H,H) groups
2.a Aromatic/amide H refined with riding coordinates:
 N003(H003), N005(H005), C00B(H00B), C00C(H00C), C00E(H00E), C00G(H00G),
 C00H(H00H), C00I(H00I), C00J(H00J), C00K(H00K)
2.b Idealised Me refined as rotating group:
 C00M(H00A,H00D,H00F)
;
_shelx_res_file
;
TITL mo_broc250917_0m_a.res in P-1
    mo_broc250917_0m.res
    created by SHELXL-2018/3 at 14:43:38 on 14-Jun-2018
REM Old TITL mo_BROC250917_0m in P-1
REM SHELXT solution in P-1: R1 0.160, Rweak 0.009, Alpha 0.055
REM <I/s> 0.000 for 0 systematic absences, Orientation as input
REM Formula found by SHELXT: C16 N3 O2 S
CELL 0.71073 7.286 8.3926 12.1427 88.21 86.511 79.953
ZERR 2 0.0008 0.001 0.0013 0.004 0.004 0.004
LATT 1
SFAC C H N O S
UNIT 32 26 6 4 2

L.S. 4 0 0
PLAN  10
TEMP -140.6
list 4
fmap 2 53
ACTA
OMIT -1 4 1
OMIT 3 0 0
OMIT 3 6 6
REM <olex2.extras>
REM <HklSrc "%.\\mo_BROC250917_0m.hkl">
REM </olex2.extras>

WGHT    0.044300    0.191600
FVAR       1.18189
S001  5    0.879800    0.350089    0.277087    11.00000    0.03936    0.07465 =
         0.05195    0.00848    0.00180    0.00035
O002  4    0.335026    0.490576    0.309324    11.00000    0.03892    0.06585 =
         0.05652    0.01892   -0.00086   -0.00246
O006  4    0.589352    0.761428   -0.023414    11.00000    0.08074    0.11521 =
         0.06895    0.04440    0.00902   -0.00903
N003  3    0.531360    0.327333    0.419074    11.00000    0.03231    0.05185 =
         0.04453    0.00866    0.00007   -0.00682
AFIX  43
H003  2    0.650468    0.289467    0.426702    11.00000   -1.20000
AFIX   0
N004  3    0.688144    0.118259    0.565464    11.00000    0.04323    0.04261 =
         0.05422    0.00466   -0.00721   -0.00718
N005  3    0.486800    0.637841    0.130501    11.00000    0.04806    0.05773 =
         0.04243    0.01079   -0.00081   -0.00741
AFIX  43
H005  2    0.385674    0.628811    0.171995    11.00000   -1.20000
AFIX   0
C00A  1    0.655120    0.445050    0.255717    11.00000    0.03736    0.04891 =
         0.04136    0.00113   -0.00016   -0.00491
C00B  1    0.221205    0.329696    0.512467    11.00000    0.04251    0.05410 =
         0.05025    0.00506   -0.00212   -0.00806
AFIX  43
H00B  2    0.161117    0.404887    0.460367    11.00000   -1.20000
AFIX   0
C00C  1    0.198539    0.163054    0.676094    11.00000    0.05680    0.05889 =
         0.05279    0.00190    0.01077   -0.01935
AFIX  43
H00C  2    0.124371    0.124861    0.734819    11.00000   -1.20000
AFIX   0
C00D  1    0.652366    0.546865    0.164185    11.00000    0.04682    0.04961 =
         0.03806    0.00129    0.00044   -0.00892
C00E  1    0.116222    0.270508    0.600440    11.00000    0.04180    0.06286 =
         0.06474    0.00193    0.00763   -0.01162
AFIX  43
H00E  2   -0.014965    0.306369    0.607139    11.00000   -1.20000
AFIX   0
C00F  1    0.392744    0.107598    0.668438    11.00000    0.05541    0.04459 =
         0.04235   -0.00235    0.00016   -0.01626
C00G  1    0.966463    0.447354    0.166256    11.00000    0.04334    0.08587 =
         0.05355    0.00142    0.00862   -0.00844
AFIX  43
H00G  2    1.095284    0.432407    0.143509    11.00000   -1.20000
AFIX   0
C00H  1    0.490158   -0.003972    0.742239    11.00000    0.07808    0.05006 =
         0.04414    0.00765   -0.00263   -0.01972
AFIX  43
H00H  2    0.424624   -0.045914    0.803394    11.00000   -1.20000
AFIX   0
C00I  1    0.770172    0.011875    0.636545    11.00000    0.05454    0.04515 =
         0.06473    0.00565   -0.01516   -0.00327
AFIX  43
H00I  2    0.900994   -0.023736    0.625948    11.00000   -1.20000
AFIX   0
C00J  1    0.833361    0.547755    0.114137    11.00000    0.05041    0.07188 =
         0.04483    0.00420    0.00812   -0.01243
AFIX  43
H00J  2    0.857713    0.612044    0.050937    11.00000   -1.20000
AFIX   0
C00K  1    0.676779   -0.051834    0.726532    11.00000    0.07627    0.05001 =
         0.05732    0.01212   -0.01870   -0.00708
AFIX  43
H00K  2    0.743081   -0.127586    0.775989    11.00000   -1.20000
AFIX   0
C00L  1    0.461979    0.739327    0.041045    11.00000    0.06790    0.05821 =
         0.04787    0.01043   -0.00566   -0.01080
C00M  1    0.264757    0.823232    0.028420    11.00000    0.07951    0.07272 =
         0.06144    0.01545   -0.01674   -0.00496
AFIX 137
H00A  2    0.219102    0.788495   -0.039612    11.00000   -1.50000
H00D  2    0.260743    0.940598    0.024866    11.00000   -1.50000
H00F  2    0.185612    0.795405    0.091760    11.00000   -1.50000
AFIX   0
C007  1    0.494015    0.423443    0.328931    11.00000    0.03713    0.04355 =
         0.04227    0.00306   -0.00259   -0.00694
C008  1    0.410115    0.278822    0.501997    11.00000    0.03819    0.03860 =
         0.04078    0.00070   -0.00092   -0.01110
C009  1    0.500425    0.165787    0.580424    11.00000    0.04424    0.03729 =
         0.04028   -0.00163   -0.00411   -0.01129
HKLF 4




REM  mo_broc250917_0m_a.res in P-1
REM wR2 = 0.1115, GooF = S = 1.023, Restrained GooF = 1.023 for all data
REM R1 = 0.0420 for 1994 Fo > 4sig(Fo) and 0.0576 for all 2538 data
REM 200 parameters refined using 0 restraints

END

WGHT      0.0443      0.1915

REM Highest difference peak  0.191,  deepest hole -0.197,  1-sigma level  0.036
Q1    1   0.7406  0.3807  0.2581  11.00000  0.05    0.19
Q2    1   0.5970  0.4331  0.2810  11.00000  0.05    0.17
Q3    1   0.6528  0.5178  0.2393  11.00000  0.05    0.16
Q4    1   0.4436  0.1225  0.6122  11.00000  0.05    0.15
Q5    1   0.3265  0.3372  0.5240  11.00000  0.05    0.14
Q6    1   0.1646  0.7493  0.0363  11.00000  0.05    0.14
Q7    1   0.3223  0.1712  0.6792  11.00000  0.05    0.14
Q8    1   0.4665  0.2426  0.5538  11.00000  0.05    0.13
Q9    1   0.4091  0.6015  0.1540  11.00000  0.05    0.13
Q10   1   0.2517  0.4301  0.3444  11.00000  0.05    0.13
;
_shelx_res_checksum              4273
_shelx_hkl_file
;
  -2   0   0  182.28   12.00
  -2   0   0  192.58   11.70
   2   0   0  176.48   11.90
   2   0   0  191.48   11.10
   2   0   0  193.88   11.70
  -3   0   0 1143.99   61.79
  -3   0   0 1031.30   62.09
   3   0   0 1119.79   60.69
   3   0   0 1017.70   62.09
   3   0   0 1136.99   61.69
  -4   0   0   91.29    7.50
  -4   0   0   79.49    7.60
   4   0   0   87.29    7.20
   4   0   0   87.89    7.80
   4   0   0   90.39    6.20
  -5   0   0  546.75   32.30
  -5   0   0  459.45   32.50
   5   0   0  510.45   31.60
   5   0   0  563.24   30.00
   5   0   0  503.15   32.80
  -6   0   0  200.18   15.40
   6   0   0  207.58   12.40
   6   0   0  210.58   15.00
   6   0   0  185.28   15.80
   7   0   0   21.40    5.50
   7   0   0   33.60    5.80
   8   0   0   74.29    8.50
   8   0   0   89.59   10.50
   8  -1   0    0.40    2.60
   8  -1   0    7.70    3.40
   7  -1   0    1.20    1.90
   7  -1   0    4.40    3.00
   6  -1   0   27.00    5.80
   6  -1   0   38.10    6.10
  -6   1   0   38.90    6.00
   5  -1   0   42.80    5.40
   5  -1   0   38.60    6.40
  -5   1   0   48.10    7.40
  -5   1   0   53.19    5.60
   4  -1   0   18.80    1.50
   4  -1   0   27.20    4.20
   4  -1   0   21.00    1.60
   4  -1   0   19.40    4.10
  -4   1   0   17.50    3.80
  -4   1   0   20.90    3.80
   3  -1   0   11.00    2.50
   3  -1   0    7.20    1.10
   3  -1   0    9.80    2.60
   3  -1   0    7.30    0.90
  -3   1   0    6.40    2.10
  -3   1   0    8.60    2.20
   2  -1   0 1126.39   63.89
   2  -1   0 1112.89   64.09
   2  -1   0 1139.99   62.39
  -2   1   0 1159.18   64.09
   1  -1   0   84.49    5.20
   1  -1   0   80.79    5.70
  -1   1   0   82.69    5.70
  -1   1   0   84.69    5.10
  -1  -1   0  526.65   29.40
   1   1   0  525.35   29.70
   1   1   0  516.85   29.30
  -2  -1   0  145.29    9.50
  -2  -1   0  142.49    9.00
   2   1   0  143.89    9.40
   2   1   0  144.09    9.40
   2   1   0  142.89    8.90
  -3  -1   0    4.30    1.40
  -3  -1   0    3.20    1.50
  -3  -1   0    3.90    1.50
   3   1   0    3.80    1.60
   3   1   0    4.30    1.70
   3   1   0    3.20    1.20
  -4  -1   0 1237.58   67.99
  -4  -1   0 1217.88   68.39
  -4  -1   0 1113.89   68.99
   4   1   0 1258.67   67.99
   4   1   0 1181.48   68.99
  -5  -1   0  111.29    9.30
  -5  -1   0  107.99    9.90
   5   1   0  110.79    8.40
   5   1   0  118.19    9.90
   5   1   0  112.79    8.70
  -6  -1   0  827.02   49.40
   6   1   0  840.32   49.99
   6   1   0  796.62   47.10
   6   1   0  809.82   48.50
   7   1   0   33.30    3.90
   7   1   0   29.00    6.10
   7   1   0   33.90    5.50
   8   1   0   68.09    7.70
   8   1   0   67.89   10.60
   8  -2   0   16.40    5.40
   8  -2   0    6.00    4.40
   7  -2   0   82.09   10.50
   7  -2   0  102.19   10.40
   6  -2   0   30.50    6.30
   6  -2   0   21.30    5.10
   5  -2   0   29.10    5.70
   5  -2   0   30.90    6.00
  -5   2   0   26.00    5.20
   4  -2   0   13.30    3.50
   4  -2   0   14.20    3.40
  -4   2   0    6.50    2.40
   3  -2   0 3759.02  209.68
   3  -2   0 3772.02  212.08
   3  -2   0 3913.21  212.68
  -3   2   0 3870.51  212.08
   2  -2   0  103.59    7.40
   2  -2   0  104.49    8.10
  -2   2   0  102.99    8.00
  -2   2   0  111.19    6.80
   1  -2   0   32.80    3.20
   1  -2   0   29.70    3.20
  -1   2   0   33.10    3.00
   0  -2   0    9.80    0.90
   0  -2   0   15.90    2.70
   0   2   0   15.10    2.60
   0   2   0   13.30    1.00
  -1  -2   0    3.10    1.10
  -1  -2   0   -0.50    1.60
   1   2   0    1.50    1.40
   1   2   0    1.30    1.00
  -2  -2   0 1130.79   63.99
  -2  -2   0 1149.19   64.89
  -2  -2   0 1155.08   63.59
   2   2   0 1146.09   64.69
   2   2   0 1127.99   63.89
  -3  -2   0    2.80    2.00
  -3  -2   0    1.80    1.00
  -3  -2   0    2.20    1.30
   3   2   0    1.90    1.30
   3   2   0    1.30    1.70
  -4  -2   0   40.50    5.00
  -4  -2   0   44.60    5.30
  -4  -2   0   49.80    4.90
   4   2   0   60.09    4.80
   4   2   0   50.09    5.40
   4   2   0   52.69    5.30
  -5  -2   0    3.30    1.80
  -5  -2   0    1.30    1.70
  -5  -2   0   -2.10    1.10
   5   2   0    0.00    1.40
   5   2   0    0.30    1.80
   5   2   0    0.80    1.10
  -6  -2   0  491.95   31.90
   6   2   0  518.85   30.80
   6   2   0  491.45   30.90
   6   2   0  508.55   32.40
   7   2   0   13.10    4.50
   7   2   0   25.00    4.30
   7   2   0   22.30    4.30
   8   2   0    5.40    4.20
   8   2   0   -0.40    2.10
   8   2   0   -2.20    1.70
   7  -3   0   38.30    7.00
   7  -3   0   37.70    7.70
   6  -3   0   42.50    7.00
   6  -3   0   32.20    7.20
   5  -3   0   80.09    8.90
   5  -3   0   89.19    9.40
   4  -3   0   28.40    5.30
   4  -3   0   20.40    4.70
  -4   3   0   24.30    4.50
   3  -3   0 1737.13  102.39
   3  -3   0 1862.31  102.89
   3  -3   0 1754.82  100.29
  -3   3   0 1872.41  102.49
   2  -3   0  379.16   24.00
   2  -3   0  383.36   22.90
  -2   3   0  375.16   22.50
   1  -3   0    2.00    1.60
   1  -3   0    1.70    1.20
   1  -3   0    1.80    1.00
  -1   3   0    1.40    1.10
   0  -3   0  175.68   11.80
   0   3   0  153.08    9.30
   0   3   0  175.48   11.50
  -1  -3   0  119.79    9.30
  -1  -3   0  124.59    7.90
   1   3   0  100.99    7.60
   1   3   0  121.09    9.00
  -2  -3   0  803.72   47.70
  -2  -3   0  817.62   46.20
   2   3   0  802.32   47.30
   2   3   0  810.12   46.00
  -3  -3   0  727.83   43.80
  -3  -3   0  701.03   42.40
  -3  -3   0  722.53   41.70
   3   3   0  758.02   42.30
   3   3   0  735.33   43.40
  -4  -3   0   40.70    6.30
  -4  -3   0   44.40    4.40
   4   3   0   43.30    4.80
   4   3   0   36.70    5.80
  -5  -3   0   49.90    5.30
  -5  -3   0   54.39    6.70
   5   3   0   56.39    6.30
   5   3   0   50.09    6.00
   7   3   0   -4.30    1.70
   7   3   0   -1.20    2.30
   8   3   0   69.49    8.00
   8   3   0   70.29   10.40
   7  -4   0   16.80    5.20
   6  -4   0   57.99    9.10
   6  -4   0   38.00    8.10
   5  -4   0  159.58   10.20
   5  -4   0  148.09   14.10
   5  -4   0  153.28   13.80
   4  -4   0   45.80    4.70
   4  -4   0   42.50    7.10
   4  -4   0   50.19    7.80
   3  -4   0   22.20    4.80
  -3   4   0   28.50    3.30
   2  -4   0  151.68   11.30
   2  -4   0  121.49    9.20
   2  -4   0  146.39   10.50
  -2   4   0  130.09    9.60
   1  -4   0  165.38   10.00
  -1   4   0  173.68   12.20
  -1  -4   0  111.89    8.90
   1   4   0   75.29    5.60
   1   4   0   87.09    7.80
  -2  -4   0  165.68   13.20
  -2  -4   0  157.18   11.20
   2   4   0  161.08   12.50
   2   4   0  174.78   11.30
  -3  -4   0  499.25   31.30
  -3  -4   0  475.45   29.20
   3   4   0  465.45   30.30
   3   4   0  484.35   28.90
  -4  -4   0  160.68   12.40
  -4  -4   0  175.18   14.20
  -4  -4   0  154.08   11.40
   4   4   0  171.18   14.90
   4   4   0  180.48   12.40
  -5  -4   0   44.80    7.10
   5   4   0   36.40    5.90
  -6  -4   0  103.69    9.50
  -6  -4   0  114.99   11.30
   6   4   0  115.09   10.40
   6   4   0   97.39   10.50
  -7  -4   0   15.70    4.90
   7   4   0    6.80    3.50
   8   4   0   58.19    9.30
   6  -5   0  113.19   12.60
   6  -5   0  119.59   13.20
   5  -5   0   59.29    9.50
   5  -5   0   63.89    5.30
   5  -5   0   61.39    9.90
   5  -5   0   52.39    7.50
   4  -5   0  160.18   14.50
   4  -5   0  167.18   11.90
   4  -5   0  151.78   12.50
   4  -5   0  151.18   14.20
   3  -5   0    4.80    2.40
   3  -5   0    2.10    2.30
   3  -5   0    5.30    2.70
  -3   5   0    3.10    1.90
   2  -5   0   48.50    6.10
   2  -5   0   39.70    4.10
   2  -5   0   54.09    6.20
  -2   5   0   51.89    5.40
   1  -5   0  345.97   22.90
   1  -5   0  339.07   22.80
   1  -5   0  336.37   18.90
  -1   5   0  336.07   22.20
   0  -5   0   35.60    6.10
   0   5   0   33.00    5.80
  -1  -5   0  216.88   17.00
  -1  -5   0  221.38   15.10
   1   5   0  236.38   16.60
  -2  -5   0   32.10    3.90
  -2  -5   0   37.80    7.50
   2   5   0   25.00    4.90
   2   5   0   21.40    3.00
  -3  -5   0 1030.40   63.79
  -3  -5   0 1165.78   67.09
   3   5   0 1201.28   63.99
   3   5   0 1047.80   65.49
  -4  -5   0  134.79   12.30
  -4  -5   0  108.09    9.00
   4   5   0  111.49   10.90
   4   5   0  123.39    9.80
  -5  -5   0   32.90    7.30
  -5  -5   0   42.50    4.90
   5   5   0   31.00    5.60
  -6  -5   0  290.17   22.70
   6   5   0  284.07   20.50
  -7  -5   0   -2.90    3.50
   7   5   0   -4.60    2.80
  -8  -5   0   12.70    6.10
   8   5   0   15.10    5.20
   5  -6   0    4.90    3.70
   5  -6   0    5.40    4.40
   5  -6   0   10.20    3.90
   5  -6   0    6.00    2.40
   4  -6   0   55.09    9.80
   4  -6   0   77.59   11.30
   4  -6   0   86.49    8.10
   4  -6   0   91.09    8.50
   3  -6   0  241.68   15.90
   3  -6   0  263.97   19.90
   3  -6   0  233.08   18.00
  -3   6   0  251.07   17.00
   2  -6   0  131.69   12.00
   2  -6   0  137.89    8.50
   2  -6   0  129.49   12.20
   1  -6   0   13.80    3.90
   1  -6   0   16.80    5.70
  -1   6   0   15.60    3.70
   0  -6   0  200.18   15.80
   0   6   0  176.48   14.60
  -1  -6   0  129.79   12.40
  -1  -6   0  127.59   10.10
   1   6   0  129.19   11.50
   1   6   0  126.99    7.70
  -2  -6   0    2.70    3.40
   2   6   0    5.50    1.70
  -3  -6   0   56.19    9.00
   3   6   0   27.70    4.00
  -4  -6   0    3.40    3.40
   4   6   0    0.60    2.00
  -5  -6   0   58.09   10.20
   5   6   0   72.89    7.70
  -6  -6   0    5.50    4.90
   6   6   0    1.40    3.00
  -7  -6   0  129.29   14.30
   7   6   0  113.19   11.70
   5  -7   0    2.20    3.50
   5  -7   0    1.20    4.10
   5  -7   0    2.10    2.60
   5  -7   0    0.00    3.10
   4  -7   0   41.70    8.70
   4  -7   0   56.09    6.10
   3  -7   0   23.10    6.50
   3  -7   0   29.60    6.10
  -3   7   0   26.30    5.00
   2  -7   0    2.00    3.50
   2  -7   0   -3.00    2.10
   1  -7   0   17.90    5.60
   1  -7   0   19.80    5.10
   0  -7   0   24.80    6.20
  -1  -7   0   78.89   11.60
  -2  -7   0   10.90    5.00
   2   7   0   11.30    2.00
  -3  -7   0   39.80    8.70
   3   7   0   34.50    4.40
  -4  -7   0   16.90    6.10
   4   7   0    7.70    3.20
  -5  -7   0   45.30    9.40
   5   7   0   26.00    5.70
   5   7   0   34.70    6.10
  -6  -7   0   -2.30    4.00
   6   7   0    6.20    3.50
  -7  -7   0   59.29   11.40
   7   7   0   33.20    6.60
   3  -8   0    9.80    4.80
   3  -8   0    7.90    4.50
   2  -8   0   30.30    7.40
   1  -8   0    2.20    3.70
   1  -8   0   -4.30    2.30
   0  -8   0    1.90    2.00
   0  -8   0    2.30    3.90
  -1  -8   0   14.30    5.90
  -2  -8   0   12.60    5.50
  -3  -8   0   35.30    8.70
   3   8   0   46.30    4.70
  -4  -8   0    8.00    5.00
   4   8   0    8.40    3.00
  -5  -8   0   -0.40    5.30
   5   8   0    2.90    2.70
  -6  -8   0    8.90    5.80
   6   8   0    6.30    4.30
   2  -9   0    2.80    3.90
   2  -9   0   -0.80    4.20
   1  -9   0    5.20    5.20
   0  -9   0   26.00    6.80
   0  -9   0   31.70    8.00
  -1  -9   0   -0.60    3.90
  -2  -9   0    0.10    4.50
   3   9   0    4.10    1.60
  -4  -9   0    0.30    4.80
   4   9   0    0.30    2.10
  -5  -9   0   -2.20    4.40
   5   9   0    0.90    2.80
   4   9  -1   82.79    8.50
   4   9  -1   83.99    7.70
  -4  -9   1   89.79   14.60
   3   9  -1    1.30    1.20
  -3  -9   1    0.30    4.30
  -2  -9   1   41.40    9.70
   0  -9   1    1.10    4.60
   0  -9   1    2.70    3.50
   1  -9   1   77.69   12.90
   1  -9   1   66.89   11.50
   2  -9   1    9.10    4.30
   2  -9   1    0.30    3.90
   6   8  -1   -3.10    2.60
   6   8  -1    2.90    2.80
  -6  -8   1    7.20    5.10
   5   8  -1   -1.20    2.40
  -5  -8   1    3.10    4.30
   4   8  -1   25.20    4.80
  -4  -8   1   33.10    9.00
   3   8  -1   -1.00    1.40
   3   8  -1   -3.90    1.90
  -3  -8   1   -0.70    4.10
  -2  -8   1   13.90    6.40
  -1  -8   1   14.30    6.20
   0  -8   1   23.40    7.00
   1  -8   1  244.18   20.90
   1  -8   1  235.68   20.20
   2  -8   1  100.09   12.10
   3  -8   1   12.20    5.40
   3  -8   1    8.30    4.60
   7   7  -1    7.60    3.90
  -7  -7   1    4.60    4.80
   6   7  -1    4.50    3.00
  -6  -7   1   -2.60    3.90
   5   7  -1   -0.40    1.90
  -5  -7   1    5.10    4.30
  -4  -7   1   11.90    5.80
   3   7  -1   -0.30    1.50
  -3  -7   1    1.30    3.90
   2   7  -1   75.69    6.10
   2   7  -1   85.79    5.80
  -2  -7   1   87.99   11.10
  -1  -7   1   14.50    5.50
   0  -7   1    0.50    3.20
   1  -7   1   -1.30    3.60
   1  -7   1   -0.50    2.50
   2  -7   1   75.89    9.50
   2  -7   1   71.09   10.40
   3  -7   1   68.99   11.10
   3  -7   1   85.89    9.80
   3  -7   1   81.99    5.50
   4  -7   1   35.00    4.80
   4  -7   1   28.10    4.10
   4  -7   1   36.90    9.00
   4  -7   1   39.90    7.00
   5  -7   1   11.80    3.40
   5  -7   1    6.60    4.30
   5  -7   1   16.90    5.50
   5  -7   1    7.50    3.60
   7   6  -1  117.49   11.90
  -7  -6   1  107.79   13.70
   6   6  -1   -1.50    2.20
  -6  -6   1   -2.00    3.60
   5   6  -1   57.19    7.00
  -5  -6   1   65.79   10.60
   4   6  -1   38.20    5.80
  -4  -6   1   26.60    7.50
  -3  -6   1   19.60    6.20
   2   6  -1  269.07   17.40
  -2  -6   1  328.87   22.70
   1   6  -1   90.49    9.40
  -1  -6   1   86.99    7.70
  -1  -6   1   98.79   10.50
   0   6  -1    9.70    3.30
   0  -6   1    3.20    3.50
  -1   6  -1   42.90    6.40
   1  -6   1   34.10    6.60
  -2   6  -1   22.30    4.80
   2  -6   1   22.50    5.30
   3  -6   1  170.28   14.20
   3  -6   1  182.28   15.40
   3  -6   1  170.18   11.70
   4  -6   1  274.17   21.10
   4  -6   1  242.38   17.60
   4  -6   1  266.57   18.90
   4  -6   1  283.87   21.30
   5  -6   1    2.10    3.50
   5  -6   1    3.60    3.50
   5  -6   1   -1.70    3.10
   5  -6   1   -1.00    2.20
   8   5  -1   12.90    5.00
  -8  -5   1   10.50    5.90
   7   5  -1   44.50    7.70
  -7  -5   1   44.10    8.60
   6   5  -1    9.90    3.80
  -6  -5   1    6.90    4.80
   5   5  -1   81.89    8.30
  -5  -5   1   83.39   11.90
   4   5  -1   50.39    5.80
   4   5  -1   51.09    7.80
  -4  -5   1   60.59    9.60
  -4  -5   1   45.50    5.40
   3   5  -1  986.30   55.99
   3   5  -1  950.00   57.89
  -3  -5   1  925.61   56.19
  -3  -5   1 1016.20   59.19
   2   5  -1   13.80    3.50
  -2  -5   1    8.90    2.70
   1   5  -1  901.41   54.19
   1   5  -1  823.02   48.80
   1   5  -1  888.91   48.70
  -1  -5   1  880.31   50.59
  -1  -5   1  923.91   53.49
   0   5  -1  488.95   31.20
   0  -5   1  504.55   32.00
  -1   5  -1  389.86   25.10
   1  -5   1  394.16   25.90
  -2   5  -1    8.80    2.70
   2  -5   1   14.90    2.40
   2  -5   1   15.00    4.00
   2  -5   1    7.90    3.00
  -3   5  -1   31.90    4.80
   3  -5   1   31.20    6.00
   3  -5   1   23.80    4.90
   3  -5   1   26.90    4.20
   4  -5   1  106.89    9.30
   4  -5   1  106.29   11.10
   4  -5   1  101.79   10.90
   4  -5   1  103.09    9.40
   5  -5   1    1.90    2.00
   5  -5   1    0.60    3.00
   5  -5   1    0.70    2.90
   6  -5   1   47.00    9.30
   6  -5   1   65.29   10.10
   8   4  -1    1.40    3.10
   7   4  -1   27.60    6.30
  -7  -4   1   25.50    5.80
   6   4  -1   40.90    6.80
   6   4  -1   28.00    5.50
  -6  -4   1   29.10    7.10
   5   4  -1  170.78   12.90
   5   4  -1  164.58   13.40
  -5  -4   1  150.68   12.30
  -5  -4   1  180.28   14.70
   4   4  -1  151.58   13.00
   4   4  -1  137.59   10.50
  -4  -4   1  127.79   10.70
  -4  -4   1  124.89   10.00
  -4  -4   1  144.49   12.50
   3   4  -1    0.10    1.80
   3   4  -1   -1.30    1.30
  -3  -4   1   -1.30    1.10
  -3  -4   1   -0.10    1.50
  -3  -4   1   -0.10    2.50
   2   4  -1    9.40    3.10
   2   4  -1   15.70    2.90
  -2  -4   1   21.50    4.60
  -2  -4   1   11.70    2.60
   1   4  -1  303.27   19.60
  -1  -4   1  278.17   17.90
  -1  -4   1  298.57   20.00
   0   4  -1  566.74   34.40
   0  -4   1  569.64   34.80
  -1   4  -1  703.53   39.20
   1  -4   1  692.73   39.70
   1  -4   1  681.23   36.40
   1  -4   1  582.14   36.30
  -2   4  -1   58.79    5.50
   2  -4   1   59.39    6.30
   2  -4   1   64.39    6.10
   3  -4   1  331.67   21.60
   3  -4   1  355.26   23.60
   4  -4   1    7.60    3.30
   4  -4   1   11.70    3.00
   4  -4   1   10.30    3.90
   5  -4   1   11.00    2.50
   5  -4   1    8.90    3.50
   5  -4   1   14.70    4.80
   6  -4   1    4.40    3.50
   6  -4   1    2.40    2.80
   7  -4   1   79.69    9.80
   7  -4   1   62.19   10.70
   8   3  -1   19.40    4.60
   8   3  -1   18.80    5.40
   7   3  -1    4.20    3.00
  -7  -3   1    7.00    3.70
   6   3  -1 1046.10   59.49
   6   3  -1  947.01   58.29
  -6  -3   1 1099.69   59.79
  -6  -3   1  891.21   58.49
   5   3  -1   71.99    7.10
   5   3  -1   54.09    6.20
  -5  -3   1   60.49    7.40
   4   3  -1   49.50    6.00
   4   3  -1   43.50    5.20
  -4  -3   1   37.10    6.10
  -4  -3   1   41.70    4.40
  -4  -3   1   43.20    5.00
   3   3  -1   51.89    5.70
   3   3  -1   61.69    5.40
  -3  -3   1   51.59    5.30
  -3  -3   1   60.79    6.60
  -3  -3   1   45.90    4.60
   2   3  -1    1.90    1.30
   2   3  -1    3.40    1.90
  -2  -3   1    0.20    2.00
  -2  -3   1    3.60    1.50
   1   3  -1  464.85   28.20
  -1  -3   1  452.75   28.50
  -1  -3   1  475.95   27.00
   0   3  -1   31.70    3.70
   0  -3   1   35.20    4.20
  -1   3  -1  127.59    9.00
   1  -3   1  124.69    9.20
  -2   3  -1 1167.48   63.99
   2  -3   1 1100.79   64.99
   2  -3   1 1134.09   64.29
   3  -3   1  225.38   14.30
   3  -3   1  223.38   15.70
   3  -3   1  216.78   15.70
   4  -3   1   31.60    5.40
   4  -3   1   24.00    3.40
   4  -3   1   37.20    6.10
   5  -3   1  489.15   32.70
   5  -3   1  518.75   32.20
   5  -3   1  474.45   28.20
   6  -3   1   37.90    7.30
   6  -3   1   66.19    7.60
   7  -3   1   53.29    8.60
   8   2  -1   58.99    6.80
   8   2  -1   78.29    9.00
   8   2  -1   50.89    5.70
   7   2  -1   35.90    6.60
   7   2  -1   27.20    4.30
   7   2  -1   31.30    5.10
   6   2  -1   42.90    7.10
   6   2  -1   37.70    5.30
   6   2  -1   41.30    5.00
  -6  -2   1   37.20    5.90
  -6  -2   1   38.00    6.10
   5   2  -1    6.00    2.30
   5   2  -1    7.40    2.90
   5   2  -1   13.40    3.00
  -5  -2   1    6.60    2.50
  -5  -2   1    5.30    2.60
  -5  -2   1   10.90    2.80
   4   2  -1   23.90    3.10
   4   2  -1   25.60    4.00
   4   2  -1   32.70    4.00
  -4  -2   1   24.10    3.80
  -4  -2   1   21.20    4.00
  -4  -2   1   27.20    4.60
   3   2  -1    4.90    2.00
   3   2  -1    8.60    1.90
   3   2  -1    5.90    2.10
  -3  -2   1    7.40    2.00
  -3  -2   1    8.00    2.20
  -3  -2   1   10.00    2.80
   2   2  -1  347.07   20.40
   2   2  -1  354.66   21.00
  -2  -2   1  322.37   21.10
  -2  -2   1  344.37   20.20
  -2  -2   1  337.87   20.50
   1   2  -1 1015.40   57.09
   1   2  -1  999.00   56.09
  -1  -2   1  982.60   57.09
  -1  -2   1 1032.50   56.19
   0   2  -1 2576.54  140.29
   0  -2   1 2504.15  140.49
  -1   2  -1  139.19    9.00
   1  -2   1  138.99    9.20
   2  -2   1  252.47   15.30
   2  -2   1  252.67   16.10
  -3   2  -1   32.00    4.50
   3  -2   1   28.70    4.40
   3  -2   1   27.80    4.50
   3  -2   1   27.00    2.80
  -4   2  -1   44.40    4.80
   4  -2   1   43.30    5.20
   4  -2   1   38.50    5.60
   4  -2   1   39.30    3.40
  -5   2  -1  191.38   14.10
   5  -2   1  181.18   14.10
   5  -2   1  183.38   11.20
   5  -2   1  178.98   14.60
   6  -2   1   80.29    8.80
   6  -2   1   85.09    9.30
   7  -2   1   15.80    4.30
   7  -2   1   13.60    4.70
   8  -2   1    0.70    3.20
   8  -2   1    7.40    3.30
   8   1  -1   29.70    7.00
   8   1  -1   26.40    5.70
   7   1  -1   -1.50    2.20
   7   1  -1   -1.30    2.10
   6   1  -1   33.60    3.80
   6   1  -1   38.30    5.90
   6   1  -1   26.40    5.90
  -6  -1   1   35.10    6.10
   5   1  -1  110.19    9.70
   5   1  -1  116.89    9.00
  -5  -1   1   98.59    9.40
  -5  -1   1  106.79    8.10
  -5  -1   1  100.99    9.20
   4   1  -1   74.09    6.30
   4   1  -1   80.49    5.90
   4   1  -1   65.49    6.70
  -4  -1   1   75.69    6.70
  -4  -1   1   69.99    6.90
  -4  -1   1   74.79    6.10
   3   1  -1   33.80    3.50
   3   1  -1   37.80    3.50
   3   1  -1   32.60    3.90
  -3  -1   1   45.20    4.10
  -3  -1   1   32.70    3.90
  -3  -1   1   38.60    3.90
   2   1  -1 1585.84   85.89
   2   1  -1 1577.94   85.89
   2   1  -1 1470.15   86.09
  -2  -1   1 1551.24   86.39
  -2  -1   1 1536.65   86.09
  -2  -1   1 1565.74   85.99
   0   1  -1  576.24   29.90
   0   1  -1  542.45   30.50
   0  -1   1  551.04   29.90
   0  -1   1  488.05   30.80
   1  -1   1 1516.55   83.69
  -2   1  -1  578.84   31.80
   2  -1   1  538.35   31.80
   2  -1   1  538.05   32.10
  -3   1  -1   10.50    2.60
  -3   1  -1   13.30    2.50
   3  -1   1   10.50    2.50
   3  -1   1   10.70    2.40
  -4   1  -1  221.18   15.00
  -4   1  -1  220.28   15.60
   4  -1   1  228.38   15.80
   4  -1   1  226.48   13.70
   4  -1   1  220.38   15.10
  -5   1  -1  105.59    9.00
  -5   1  -1  102.49    9.50
   5  -1   1   92.59    9.30
   5  -1   1  113.29    9.10
   5  -1   1  103.79    7.20
  -6   1  -1   22.20    4.70
   6  -1   1   32.80    6.30
   6  -1   1   22.90    4.40
   6  -1   1   22.10    2.50
   7  -1   1   98.39   10.50
   7  -1   1   85.49    9.00
   8  -1   1   31.70    7.10
   8  -1   1   37.60    6.70
   8   0  -1   -1.00    2.60
   8   0  -1   -0.30    3.30
   7   0  -1  108.19   10.20
   7   0  -1  111.09   11.50
   6   0  -1   11.80    3.70
   6   0  -1   15.10    4.40
  -6   0   1    8.50    3.60
   5   0  -1  294.37   20.10
   5   0  -1  335.27   21.50
   5   0  -1  293.67   17.30
  -5   0   1  303.07   21.10
  -5   0   1  302.87   20.60
   4   0  -1   74.69    6.50
   4   0  -1   68.99    4.60
   4   0  -1   73.99    7.10
  -4   0   1   72.29    6.60
  -4   0   1   58.69    6.40
   3   0  -1  830.22   51.59
   3   0  -1  893.61   51.29
   3   0  -1  914.51   49.60
  -3   0   1  939.81   51.59
  -3   0   1  911.31   49.70
  -3   0   1  878.61   51.89
   2   0  -1 1190.48   66.19
   2   0  -1 1197.18   64.99
   2   0  -1 1135.49   66.39
  -2   0   1 1225.88   65.09
  -2   0   1 1151.38   66.39
  -2   0   1 1184.18   66.29
   1   0  -1  419.16   25.30
   1   0  -1  434.56   25.20
  -1   0   1  463.25   25.30
  -1   0   1  447.26   25.30
  -1   0   1  449.95   24.60
  -1   0  -1 1327.87   69.09
  -1   0  -1 1217.28   69.39
   1   0   1 1262.47   69.09
   1   0   1 1226.18   69.39
  -2   0  -1 2710.53  143.69
  -2   0  -1 2595.94  144.19
   2   0   1 2637.04  144.09
   2   0   1 2507.95  144.09
  -3   0  -1 1716.03   98.19
  -3   0  -1 1743.73   97.49
   3   0   1 1751.22   98.19
   3   0   1 1811.32   97.29
   3   0   1 1741.63   97.39
  -4   0  -1   70.99    5.90
  -4   0  -1   62.59    6.40
   4   0   1   65.09    5.70
   4   0   1   64.09    6.50
   4   0   1   71.19    5.60
  -5   0  -1   12.60    2.90
  -5   0  -1   15.70    3.80
   5   0   1   14.00    3.10
   5   0   1   18.00    4.10
   5   0   1   16.80    3.10
  -6   0  -1   35.70    5.50
   6   0   1   34.00    5.10
   6   0   1   34.60    6.20
  -7   0  -1   13.50    3.60
   7   0   1   13.60    2.40
   7   0   1    8.90    4.00
   7   0   1   10.80    3.20
   8   0   1    4.20    3.40
   8   0   1   -5.70    2.10
   8  -1  -1   11.90    4.50
   8  -1  -1   13.20    4.90
   7  -1  -1   10.70    4.40
   7  -1  -1    9.70    3.40
   6  -1  -1   92.99   10.00
   6  -1  -1   97.49    9.50
   5  -1  -1    2.40    2.30
   5  -1  -1   11.40    3.50
  -5   1   1    4.90    2.20
   4  -1  -1  756.02   44.40
   4  -1  -1  768.92   45.10
  -4   1   1  724.73   44.90
  -4   1   1  737.03   44.50
   3  -1  -1   39.00    4.60
   3  -1  -1   45.40    4.70
  -3   1   1   39.60    4.50
  -3   1   1   41.10    4.50
   2  -1  -1    2.30    1.20
   2  -1  -1    0.30    1.00
  -2   1   1    4.30    1.50
   1  -1  -1    2.40    1.50
   1  -1  -1    1.90    1.00
   1  -1  -1    3.10    0.80
  -1   1   1    3.40    1.20
  -1   1   1    3.60    0.90
   0  -1  -1  475.35   27.30
   0  -1  -1  524.05   27.00
   0  -1  -1  462.55   27.40
   0   1   1  494.95   27.00
   0   1   1  458.75   27.40
   0   1   1  484.45   27.30
  -1  -1  -1 1331.17   68.59
  -1  -1  -1 1271.87   69.29
   1   1   1 1245.98   68.69
   1   1   1 1051.99   68.89
   1   1   1 1321.67   69.29
  -2  -1  -1  147.69    8.90
  -2  -1  -1  154.38    9.90
  -2  -1  -1  139.59    9.50
   2   1   1  156.38   10.00
   2   1   1  144.49    9.10
   2   1   1  151.78    9.50
  -3  -1  -1  156.48   10.50
  -3  -1  -1  152.18    9.70
   3   1   1  152.28   10.50
   3   1   1  146.99    9.40
   3   1   1  144.59   10.30
  -4  -1  -1   54.09    5.00
  -4  -1  -1   58.89    5.80
   4   1   1   53.39    5.50
   4   1   1   58.69    4.90
   4   1   1   60.99    5.90
  -5  -1  -1  381.06   26.10
  -5  -1  -1  409.66   25.10
   5   1   1  403.76   26.00
   5   1   1  420.26   24.60
   5   1   1  397.86   24.90
  -6  -1  -1   23.00    4.60
   6   1   1   23.50    5.30
   6   1   1   24.70    4.20
   6   1   1   21.30    4.10
  -7  -1  -1   22.80    4.90
   7   1   1   21.20    4.20
   7   1   1   18.30    5.00
   7   1   1   14.40    3.70
   8   1   1    5.20    2.30
   8   1   1    6.50    3.50
   8   1   1   -2.10    2.00
   8  -2  -1    4.20    3.70
   7  -2  -1   -0.30    2.20
   6  -2  -1    8.90    4.00
   6  -2  -1    7.70    3.50
   5  -2  -1   70.59    8.10
   5  -2  -1   71.09    7.60
  -5   2   1   75.09    7.70
   4  -2  -1   88.19    8.30
   4  -2  -1   80.89    7.70
  -4   2   1   69.19    7.30
   3  -2  -1  660.53   39.10
   3  -2  -1  627.44   38.60
  -3   2   1  646.44   38.60
   2  -2  -1  157.28   11.40
   2  -2  -1  173.98   12.00
   2  -2  -1  166.88   10.30
  -2   2   1  171.98   10.20
  -2   2   1  181.28   12.00
   1  -2  -1 2094.89  118.39
   1  -2  -1 2116.59  117.69
   1  -2  -1 2075.79  117.49
  -1   2   1 2187.48  118.39
  -1   2   1 2175.28  117.69
   0  -2  -1 3176.18  173.38
   0  -2  -1 3156.98  173.58
   0   2   1 3111.99  173.48
  -1  -2  -1  285.67   15.40
  -1  -2  -1  264.77   16.50
   1   2   1  274.07   16.50
   1   2   1  223.68   15.30
  -2  -2  -1   51.49    4.90
  -2  -2  -1   48.50    4.10
   2   2   1   49.80    4.00
   2   2   1   40.90    4.70
  -3  -2  -1   83.29    6.40
  -3  -2  -1   76.99    6.50
  -3  -2  -1   82.49    7.10
   3   2   1   83.29    6.50
   3   2   1   82.69    7.20
  -4  -2  -1  656.13   40.10
  -4  -2  -1  658.03   40.10
  -4  -2  -1  690.83   39.10
   4   2   1  669.83   40.20
   4   2   1  699.33   39.90
  -5  -2  -1   35.40    5.90
  -5  -2  -1   30.80    4.00
   5   2   1   33.20    5.40
   5   2   1   33.10    3.60
   5   2   1   39.50    5.70
  -6  -2  -1   30.60    5.20
   6   2   1   31.40    6.10
   6   2   1   36.00    5.70
   6   2   1   30.70    4.00
  -7  -2  -1   17.90    4.10
   7   2   1   12.50    4.40
   7   2   1   11.10    3.00
   7   2   1    9.20    3.40
   8   2   1  115.09   11.30
   8   2   1   90.89    8.70
   8   2   1   96.69    8.70
   7  -3  -1    8.60    5.20
   7  -3  -1    6.20    4.50
   6  -3  -1  181.38   15.50
   6  -3  -1  164.98   15.60
   5  -3  -1   37.10    7.10
   5  -3  -1   21.30    5.10
   4  -3  -1    8.90    3.30
   4  -3  -1    8.50    3.10
  -4   3   1    2.50    2.60
   3  -3  -1   97.39    8.70
   3  -3  -1   99.89    9.20
   3  -3  -1  133.89   10.20
   3  -3  -1  107.49    7.10
  -3   3   1   96.19    8.70
  -3   3   1   90.29    6.60
   2  -3  -1    5.20    1.80
   2  -3  -1    7.70    2.50
   2  -3  -1    5.50    2.10
  -2   3   1    8.00    2.30
  -2   3   1    3.60    1.40
   1  -3  -1  116.59    8.40
   1  -3  -1  109.49    7.30
   1  -3  -1  110.49    8.60
  -1   3   1  102.49    8.70
   0  -3  -1 1377.16   78.19
   0  -3  -1 1413.46   76.19
   0   3   1 1326.37   76.49
   0   3   1 1407.26   77.99
  -1  -3  -1 1394.56   76.39
  -1  -3  -1 1425.26   74.69
   1   3   1 1244.38   74.29
   1   3   1 1297.17   75.89
  -2  -3  -1   83.99    6.10
  -2  -3  -1   79.89    7.30
   2   3   1   78.49    7.10
   2   3   1   68.59    5.80
  -3  -3  -1  431.66   26.10
  -3  -3  -1  405.36   25.10
  -3  -3  -1  454.05   27.60
   3   3   1  461.25   26.00
   3   3   1  406.36   27.00
  -4  -3  -1   31.30    3.40
  -4  -3  -1   32.10    5.50
  -4  -3  -1   35.10    5.20
   4   3   1   32.20    4.00
   4   3   1   35.00    5.50
  -5  -3  -1    2.00    1.50
  -5  -3  -1    0.90    2.10
   5   3   1    2.30    1.80
   5   3   1    0.60    2.30
  -6  -3  -1   19.20    3.90
  -7  -3  -1   49.30    7.30
   7   3   1   48.20    7.80
   8   3   1   36.00    7.20
   8   3   1   25.30    5.60
   7  -4  -1   25.90    6.80
   7  -4  -1   28.80    6.70
   6  -4  -1   12.30    5.10
   6  -4  -1   27.20    6.00
   4  -4  -1  112.79    7.60
   4  -4  -1  112.99   10.00
   4  -4  -1  114.99   10.80
   4  -4  -1   91.09   10.20
   3  -4  -1   80.99    8.00
   3  -4  -1   89.99    7.30
   3  -4  -1   85.79    8.80
  -3   4   1   99.69    6.90
   2  -4  -1  352.16   23.30
   2  -4  -1  351.86   21.40
   2  -4  -1  349.07   22.10
  -2   4   1  345.97   21.70
   1  -4  -1   21.70    3.90
   0  -4  -1   22.80    4.50
   0  -4  -1   20.30    2.00
   0   4   1   25.10    4.50
  -1  -4  -1  867.81   47.10
  -1  -4  -1  822.72   49.10
   1   4   1  790.42   48.60
   1   4   1  810.62   46.20
   3   4   1  116.09    8.90
  -4  -4  -1   62.39    7.40
   4   4   1   40.60    7.80
  -5  -4  -1   14.40    4.10
  -5  -4  -1    7.60    2.30
   5   4   1   13.50    4.00
   5   4   1   19.10    4.00
  -6  -4  -1   77.79    9.10
   6   4   1   72.09    7.90
  -7  -4  -1   -2.40    2.40
   7   4   1    3.90    3.20
   8   4   1   -1.60    3.00
   6  -5  -1    9.20    4.70
   6  -5  -1   11.00    4.60
   5  -5  -1    3.50    3.00
   5  -5  -1    4.30    3.30
   4  -5  -1  492.15   29.30
   4  -5  -1  486.35   33.00
   4  -5  -1  488.95   33.10
   4  -5  -1  475.25   30.70
   3  -5  -1   85.99    9.20
   3  -5  -1   87.29    7.70
   3  -5  -1   87.19    7.80
  -3   5   1   76.79    7.00
   2  -5  -1    8.20    2.80
   2  -5  -1    7.60    2.70
  -2   5   1    1.50    1.60
   1  -5  -1  203.28   15.00
   1  -5  -1  178.08   14.60
   1  -5  -1  219.98   12.00
  -1   5   1  169.98   14.00
   0  -5  -1  152.68   12.00
   0  -5  -1  122.49    8.30
   0   5   1  153.68   11.60
  -1  -5  -1   43.30    7.20
   1   5   1   51.39    4.00
   1   5   1   48.20    6.10
  -2  -5  -1  111.99    8.40
  -2  -5  -1  101.59   11.50
   2   5   1   97.99    7.70
   2   5   1  115.99   10.00
  -3  -5  -1   13.50    3.40
  -3  -5  -1   16.80    5.30
   3   5   1   15.60    4.20
   3   5   1   11.90    3.20
   3   5   1   13.30    3.40
  -4  -5  -1   75.69    9.10
  -4  -5  -1   70.19    6.50
   4   5   1   87.19    7.60
  -5  -5  -1   10.00    2.80
  -5  -5  -1   18.30    5.20
   5   5   1   19.30    4.30
  -6  -5  -1  302.37   22.60
  -6  -5  -1  269.47   19.00
   6   5   1  278.47   20.10
  -7  -5  -1  209.38   18.90
   7   5   1  235.08   23.80
   8   5   1   -3.00    3.20
   5  -6  -1   15.00    5.20
   5  -6  -1    9.80    4.90
   4  -6  -1   15.60    4.20
   4  -6  -1   15.60    5.50
   4  -6  -1   17.30    5.80
   4  -6  -1   12.20    3.30
  -4   6   1    9.30    2.90
   3  -6  -1   51.19    6.60
   3  -6  -1   50.89    5.70
   3  -6  -1   55.29    9.00
  -3   6   1   53.09    6.00
   2  -6  -1   36.10    6.50
   2  -6  -1   28.50    6.20
  -2   6   1   46.60    6.60
   1  -6  -1    5.30    5.20
   1  -6  -1    2.60    0.90
   1  -6  -1    1.60    2.00
  -1   6   1   -2.40    2.20
   0  -6  -1  347.37   23.40
   0  -6  -1  328.67   23.90
   0   6   1  330.67   23.20
  -1  -6  -1    7.80    4.00
   1   6   1    4.00    2.70
   1   6   1    3.80    1.30
  -2  -6  -1  110.69   11.90
   2   6   1  124.89    8.70
  -3  -6  -1   30.40    7.10
   3   6   1   22.70    4.10
  -4  -6  -1   18.70    6.10
   4   6   1   24.60    4.90
   4   6   1   21.90    4.70
  -5  -6  -1   -4.30    2.50
   5   6   1   -0.90    2.40
   5   6   1    0.50    2.20
  -6  -6  -1   78.39   12.00
   6   6   1   80.19    8.80
  -7  -6  -1   19.00    7.30
   7   6   1   22.60    5.80
   4  -7  -1    2.50    3.80
   4  -7  -1   11.00    3.20
   4  -7  -1   12.80    4.00
   3  -7  -1   39.40    7.90
   3  -7  -1   34.90    6.80
   3  -7  -1   33.70    4.20
  -3   7   1   37.20    6.10
   2  -7  -1    5.40    3.80
   2  -7  -1   15.20    5.00
  -2   7   1    4.30    3.90
   1  -7  -1    9.70    4.70
   1  -7  -1   13.00    4.20
   0  -7  -1  145.79   14.40
   0  -7  -1  173.18   14.30
  -1  -7  -1  135.99   13.70
  -2  -7  -1  226.78   19.40
   2   7   1  224.18   14.10
  -3  -7  -1   97.99   12.10
   3   7   1  106.59    8.60
  -4  -7  -1   82.39   12.70
  -5  -7  -1    6.00    4.60
   5   7   1    4.60    3.10
  -6  -7  -1   47.30    9.80
   6   7   1   46.80    7.60
   6   7   1   50.59    8.80
  -7  -7  -1   20.60    7.90
   7   7   1   14.10    5.00
   3  -8  -1  134.89    8.60
   3  -8  -1  130.39   14.50
   3  -8  -1  144.69   13.80
   2  -8  -1    5.30    4.00
   2  -8  -1    5.90    4.20
   0  -8  -1   11.80    5.20
   0  -8  -1   10.80    4.20
  -1  -8  -1    4.20    3.80
  -2  -8  -1   44.00    9.50
   2   8   1   49.20    4.30
  -3  -8  -1   18.80    6.20
   3   8   1   13.60    2.80
  -4  -8  -1   -5.00    3.10
  -5  -8  -1   -3.30    3.70
   5   8   1    8.20    3.80
  -6  -8  -1   15.70    6.70
   6   8   1   14.10    5.20
   2  -9  -1   27.10    7.40
   2  -9  -1   31.10    7.60
   1  -9  -1   19.80    6.70
   1  -9  -1   29.70    7.90
   0  -9  -1    3.40    4.30
  -1  -9  -1   -2.90    3.60
  -1  -9  -1    3.70    3.40
  -2  -9  -1    1.60    4.30
  -3  -9  -1    8.40    6.10
   3   9   1   11.00    2.50
  -4  -9  -1    5.20    5.30
   4   9   1    3.20    2.60
  -5  -9  -1    2.90    4.90
   5   9   1    4.10    2.70
   4   9  -2    7.70    3.60
   4   9  -2   11.90    3.00
  -4  -9   2    9.60    6.00
   3   9  -2    4.50    1.60
  -3  -9   2    5.50    5.90
  -2  -9   2  139.19   16.60
  -1  -9   2   -5.10    4.10
   1  -9   2   31.60    7.90
   2  -9   2   -2.40    3.30
   2  -9   2   -1.00    3.40
   6   8  -2   13.90    4.70
  -6  -8   2   10.50    5.80
  -5  -8   2   12.70    6.50
   4   8  -2    6.30    3.30
   4   8  -2    9.40    3.50
   3   8  -2   12.20    2.70
   3   8  -2   12.20    3.20
  -3  -8   2   12.90    6.40
  -2  -8   2   48.30    9.90
  -1  -8   2    1.00    4.20
   0  -8   2   37.10    8.60
   1  -8   2   10.10    5.50
   1  -8   2   16.70    5.50
   2  -8   2   37.20    9.60
   2  -8   2   39.80    8.20
   3  -8   2    5.00    4.00
   3  -8   2   10.20    4.90
   6   7  -2    8.30    3.50
  -6  -7   2    2.10    4.70
   5   7  -2    6.10    3.30
  -5  -7   2    2.60    4.70
  -4  -7   2   -0.30    4.20
   3   7  -2   23.30    4.30
  -3  -7   2   30.30    7.50
   2   7  -2    4.70    1.70
   2   7  -2    3.80    1.20
  -2  -7   2    0.10    3.50
  -1  -7   2    6.90    4.50
   0  -7   2   -0.30    2.90
   1  -7   2   73.99   10.80
   2  -7   2   38.80    7.80
   2  -7   2   29.90    6.90
   3  -7   2    3.20    3.70
   3  -7   2   14.60    4.60
   4  -7   2   11.90    2.40
   4  -7   2    2.60    3.50
   4  -7   2   10.10    2.80
   7   6  -2    2.60    3.10
  -7  -6   2   -3.50    4.10
   6   6  -2   18.30    4.70
  -6  -6   2   15.00    5.40
   5   6  -2   92.59    8.90
  -5  -6   2   74.39   12.20
   4   6  -2   49.00    5.90
  -4  -6   2   40.70    8.40
  -3  -6   2   -4.50    2.20
   2   6  -2   48.00    7.50
  -2  -6   2   45.00    8.20
  -1  -6   2   47.80    5.20
  -1  -6   2   46.80    8.20
   0   6  -2  186.38   14.70
   0  -6   2  181.68   12.90
   0  -6   2  185.18   15.60
   1  -6   2    8.20    3.70
  -2   6  -2   25.20    4.90
   2  -6   2   40.20    7.00
   2  -6   2   31.30    6.20
   3  -6   2   19.30    2.80
   3  -6   2   31.40    6.40
   3  -6   2   23.20    5.30
   4  -6   2  102.69   11.30
   4  -6   2   96.39   10.90
   4  -6   2  100.59    8.40
   4  -6   2   84.69    8.20
   4  -6   2  102.49   11.00
   5  -6   2    9.90    3.50
   5  -6   2    2.10    3.10
   5  -6   2    7.50    3.20
   5  -6   2    2.80    2.70
   5  -6   2    6.30    3.30
   7   5  -2   14.50    4.80
  -7  -5   2   22.40    6.20
   6   5  -2  184.78   14.80
  -6  -5   2  177.28   16.50
   5   5  -2  133.79   11.10
  -5  -5   2  119.59   12.90
   4   5  -2   26.20    4.80
  -4  -5   2   25.20    6.20
   3   5  -2    0.90    1.70
   3   5  -2    3.20    2.10
  -3  -5   2    6.30    2.50
  -3  -5   2    5.40    3.60
   2   5  -2  163.98   13.00
   2   5  -2  153.58   11.10
  -2  -5   2  179.88   14.40
  -2  -5   2  163.08   11.70
   1   5  -2  291.47   19.70
   1   5  -2  270.27   16.20
  -1  -5   2  300.07   21.00
  -1  -5   2  283.77   17.90
   0   5  -2   99.69   10.00
   0  -5   2  111.39   10.10
  -1   5  -2   77.39    7.40
   1  -5   2   76.69    8.10
  -2   5  -2   42.70    5.00
   2  -5   2   32.30    3.40
   2  -5   2   38.50    3.10
   2  -5   2   40.30    6.40
   2  -5   2   47.40    5.90
   3  -5   2    8.30    2.10
   3  -5   2    8.50    3.20
   3  -5   2   11.40    3.30
   4  -5   2  142.39   11.70
   4  -5   2  140.49   13.10
   4  -5   2  151.78   13.40
   5  -5   2   64.59    9.60
   5  -5   2   51.39    9.00
   5  -5   2   47.30    5.80
   6  -5   2    2.60    3.20
   6  -5   2    0.30    1.80
   6  -5   2    1.80    3.00
   8   4  -2   32.50    7.30
  -8  -4   2   36.80    7.90
   7   4  -2  179.88   16.70
  -7  -4   2  167.98   15.20
   6   4  -2  129.49   11.70
   6   4  -2  130.09   11.60
  -6  -4   2  133.69   13.00
   5   4  -2   54.29    6.40
   5   4  -2   60.19    6.70
  -5  -4   2   50.39    8.40
   4   4  -2  211.78   14.30
   4   4  -2  189.78   16.00
  -4  -4   2  187.78   14.40
  -4  -4   2  193.68   13.80
  -4  -4   2  200.28   15.80
   3   4  -2   16.80    3.30
   3   4  -2   24.80    4.70
  -3  -4   2   16.60    3.20
  -3  -4   2   18.00    4.10
  -3  -4   2   11.40    4.10
   2   4  -2  326.27   21.70
   2   4  -2  338.27   20.30
  -2  -4   2  323.17   20.40
  -2  -4   2  328.27   22.50
   1   4  -2  235.58   14.50
   1   4  -2  261.87   17.00
  -1  -4   2  226.28   17.10
  -1  -4   2  251.47   15.40
   0   4  -2   76.29    6.80
   0  -4   2   62.19    6.80
  -1   4  -2  955.60   56.99
   1  -4   2  983.10   57.59
   1  -4   2 1018.60   54.29
  -2   4  -2  116.39    8.80
   2  -4   2  130.59    9.60
   2  -4   2   93.79    7.40
   2  -4   2  126.99    9.80
   3  -4   2   56.49    6.00
   4  -4   2  546.95   35.50
   4  -4   2  553.94   33.50
   4  -4   2  562.54   35.50
   5  -4   2   11.20    4.20
   5  -4   2   14.30    3.10
   5  -4   2    8.60    3.90
   6  -4   2   49.90    8.20
   6  -4   2   51.19    9.00
   6  -4   2   49.10    4.70
   7  -4   2    4.10    3.20
   7  -4   2    7.30    3.10
   8   3  -2   89.99   10.50
   7   3  -2    1.10    2.70
  -7  -3   2    5.90    2.90
   6   3  -2  102.89   10.10
   6   3  -2   94.89    9.00
  -6  -3   2  111.49   10.30
   5   3  -2  335.17   22.30
   5   3  -2  373.46   23.40
  -5  -3   2  317.47   22.30
  -5  -3   2  347.27   23.40
   4   3  -2  204.28   14.00
   4   3  -2  208.28   14.40
  -4  -3   2  187.58   14.50
  -4  -3   2  192.58   13.50
  -4  -3   2  169.88   13.70
   3   3  -2 2457.35  132.79
   3   3  -2 2428.26  133.49
  -3  -3   2 2308.47  132.59
  -3  -3   2 2368.56  134.09
  -3  -3   2 2357.16  133.09
   2   3  -2 1602.94   89.59
   2   3  -2 1584.14   90.69
  -2  -3   2 1636.84   89.89
  -2  -3   2 1599.54   91.29
   1   3  -2  224.28   13.10
   1   3  -2  209.38   14.20
   1   3  -2  195.38   12.80
  -1  -3   2  200.68   14.40
  -1  -3   2  222.08   13.20
   0   3  -2  460.25   27.70
   0   3  -2  465.15   25.60
   0  -3   2  451.75   28.00
  -1   3  -2  670.13   38.50
   1  -3   2  649.34   36.80
   1  -3   2  663.53   38.80
   2  -3   2  230.98   15.90
   2  -3   2  285.67   17.00
   2  -3   2  275.77   17.30
   3  -3   2   61.69    6.50
   3  -3   2   68.39    5.80
   3  -3   2   66.79    6.50
   4  -3   2   20.40    5.10
   4  -3   2   19.30    3.20
   4  -3   2   15.30    3.80
   5  -3   2  560.04   36.40
   5  -3   2  563.24   33.00
   5  -3   2  563.94   35.60
   6  -3   2   11.50    2.20
   6  -3   2    7.40    3.10
   6  -3   2   11.00    4.50
   7  -3   2   38.70    7.80
   7  -3   2   62.19    7.60
   8   2  -2   43.10    4.60
   8   2  -2   45.10    7.00
   8   2  -2   37.30    7.20
   7   2  -2   97.39   10.30
   7   2  -2   90.19    7.60
   7   2  -2   99.39    9.10
   6   2  -2    7.50    3.30
   6   2  -2   14.70    3.10
   6   2  -2    8.00    2.90
  -6  -2   2    6.00    2.90
   5   2  -2  267.97   17.50
   5   2  -2  257.37   19.30
   5   2  -2  279.17   19.10
  -5  -2   2  262.47   18.60
  -5  -2   2  286.57   18.50
   4   2  -2   35.50    5.30
   4   2  -2   44.10    4.40
   4   2  -2   37.90    4.20
  -4  -2   2   33.60    5.10
  -4  -2   2   32.90    5.00
  -4  -2   2   38.90    6.50
   3   2  -2 1661.63   91.39
   3   2  -2 1619.14   91.19
   3   2  -2 1671.93   91.09
  -3  -2   2 1536.85   91.49
  -3  -2   2 1625.24   91.29
  -3  -2   2 1640.64   91.79
   2   2  -2  217.48   13.90
   2   2  -2  226.78   14.40
  -2  -2   2  229.58   14.80
  -2  -2   2  216.48   13.90
  -2  -2   2  226.18   14.10
   1   2  -2  519.55   32.50
   1   2  -2  590.34   33.20
   1   2  -2  581.54   32.30
  -1  -2   2  577.84   32.40
  -1  -2   2  584.84   33.50
   0   2  -2  359.66   22.10
   0   2  -2  393.86   20.90
   0  -2   2  360.56   22.30
   0  -2   2  358.46   21.00
   0  -2   2  372.66   21.10
   1  -2   2   48.10    3.70
   1  -2   2   59.19    4.60
   2  -2   2  175.18   11.50
   2  -2   2  181.58   11.90
   3  -2   2  716.93   41.00
   3  -2   2  670.93   39.50
   3  -2   2  683.23   40.40
   4  -2   2   66.99    6.80
   4  -2   2   58.89    5.00
   4  -2   2   64.39    6.30
   5  -2   2   16.20    3.80
   5  -2   2   18.80    2.40
   5  -2   2   24.50    5.20
   6  -2   2   45.60    7.20
   6  -2   2   50.69    4.80
   6  -2   2   71.29    7.90
   6  -2   2   58.19    4.60
   7  -2   2   77.29   10.10
   7  -2   2  100.89    9.70
   8  -2   2   -2.30    2.70
   8   1  -2   12.30    4.70
   8   1  -2   13.30    4.20
   7   1  -2  211.48   17.90
   7   1  -2  235.38   17.10
   6   1  -2  145.89   11.80
   6   1  -2  145.69   12.80
   5   1  -2   22.20    4.80
  -5  -1   2   37.60    3.90
  -5  -1   2   27.90    5.00
   4   1  -2  118.39    8.10
   4   1  -2  112.69    9.50
   4   1  -2  124.59    9.20
  -4  -1   2  110.59    9.60
  -4  -1   2  116.19    9.40
  -4  -1   2  119.89    8.70
   3   1  -2  118.19    8.00
   3   1  -2  127.09    8.80
   3   1  -2  120.09    9.10
  -3  -1   2  113.49    9.00
  -3  -1   2  120.79    9.00
  -3  -1   2  116.09    8.50
   2   1  -2 1860.91  105.29
   2   1  -2 1939.11  104.89
   2   1  -2 1903.81  105.19
  -2  -1   2 1842.32  105.39
  -2  -1   2 1938.91  105.39
  -2  -1   2 1888.01  105.19
   1   1  -2  830.32   45.40
   1   1  -2  870.11   45.70
   1   1  -2  821.62   45.30
   1   1  -2  781.12   45.80
  -1  -1   2  830.72   45.70
  -1  -1   2  801.72   45.30
  -1  -1   2  826.02   45.50
  -1  -1   2  722.33   45.70
   0   1  -2  584.84   31.70
   0  -1   2  575.94   31.80
   0  -1   2  543.75   32.20
   0  -1   2  555.24   31.30
  -1   1  -2  760.52   44.70
   1  -1   2  834.12   44.70
   2  -1   2   35.90    3.30
   2  -1   2   32.50    3.00
  -3   1  -2 2531.05  144.49
  -3   1  -2 2725.23  143.99
   3  -1   2 2564.14  143.99
   3  -1   2 2583.54  144.59
  -4   1  -2  684.43   40.50
  -4   1  -2  709.63   39.70
   4  -1   2  662.43   40.50
   4  -1   2  655.03   39.70
  -5   1  -2   10.30    3.00
  -5   1  -2   12.10    2.80
   5  -1   2   17.00    3.00
   5  -1   2   15.30    3.80
   5  -1   2   11.50    3.00
  -6   1  -2   49.90    6.00
   6  -1   2   54.19    6.00
   6  -1   2   57.79    7.20
   6  -1   2   54.99    5.60
  -7   1  -2  147.49   12.70
   7  -1   2  156.18   10.00
   7  -1   2  172.78   14.70
   7  -1   2  146.09   10.40
   7  -1   2  182.18   13.20
   8  -1   2   -5.60    2.20
   8  -1   2    1.10    2.70
   8   0  -2   64.29   10.80
   8   0  -2   73.79    8.50
   7   0  -2   18.00    5.60
   7   0  -2   23.70    5.30
   6   0  -2  375.76   27.10
   6   0  -2  408.16   26.20
   5   0  -2  479.45   30.80
   5   0  -2  473.45   29.90
  -5   0   2  468.45   30.30
   4   0  -2    7.80    2.50
   4   0  -2    1.60    1.50
  -4   0   2    7.30    2.40
  -4   0   2    5.70    1.30
  -4   0   2    8.40    2.70
   3   0  -2  172.38   12.60
   3   0  -2  189.38   12.40
  -3   0   2  172.58   10.80
  -3   0   2  183.48   12.50
  -3   0   2  175.28   12.50
   2   0  -2  130.69    9.10
   2   0  -2  117.69    9.40
   2   0  -2  136.89    9.20
  -2   0   2  130.49    9.20
  -2   0   2  133.19    8.10
  -2   0   2  140.59    9.30
   1   0  -2 1268.47   67.19
   1   0  -2 1160.28   66.99
   1   0  -2 1218.08   67.49
  -1   0   2 1069.19   67.29
  -1   0   2 1230.78   67.09
  -1   0   2 1288.97   67.29
   0   0  -2  386.46   23.00
   0   0  -2  450.85   23.40
   0   0  -2  376.06   22.70
   0   0   2  434.56   23.50
   0   0   2  402.96   23.10
  -1   0  -2  292.27   17.70
  -1   0  -2  303.57   17.00
   1   0   2  310.77   16.90
   1   0   2  295.97   17.70
  -2   0  -2  114.39    6.80
  -2   0  -2  110.09    7.40
   2   0   2  106.29    6.80
   2   0   2  112.29    7.40
  -3   0  -2 1268.67   67.69
  -3   0  -2 1159.68   68.49
   3   0   2 1215.68   68.59
   3   0   2 1209.18   67.59
  -4   0  -2 2057.89  117.39
  -4   0  -2 2111.39  116.19
   4   0   2 2128.79  116.59
   4   0   2 2082.59  116.09
   4   0   2 2069.59  117.29
  -5   0  -2   66.19    6.90
  -5   0  -2   56.79    5.60
   5   0   2   59.99    5.80
   5   0   2   64.49    5.70
  -6   0  -2    5.00    2.10
   6   0   2    1.70    2.10
   6   0   2    2.30    1.60
   6   0   2   -1.40    1.80
  -7   0  -2   89.19    8.90
   7   0   2   86.79    9.90
   7   0   2  106.69    8.20
   7   0   2  112.99   10.30
   8   0   2   12.20    4.60
   8   0   2    9.60    3.60
   8  -1  -2   75.79   11.30
   8  -1  -2   89.69   11.20
   7  -1  -2   35.50    6.90
   7  -1  -2   40.80    7.70
   6  -1  -2  188.78   15.00
   6  -1  -2  173.28   15.30
   5  -1  -2 1056.09   60.29
   5  -1  -2 1037.60   61.09
  -5   1   2  956.70   60.29
   4  -1  -2  130.39   10.60
   4  -1  -2  127.99   12.10
  -4   1   2  127.19   10.70
  -4   1   2  136.39   10.90
   3  -1  -2 1062.29   63.29
   3  -1  -2 1089.39   63.19
  -3   1   2 1131.29   63.49
  -3   1   2 1112.29   63.39
   2  -1  -2  321.77   20.00
   2  -1  -2  305.77   20.10
   2  -1  -2  312.47   20.00
  -2   1   2  339.47   20.20
  -2   1   2  327.57   18.20
   1  -1  -2  104.69    7.40
   1  -1  -2  103.79    7.30
  -1   1   2   91.39    7.20
  -1   1   2  103.29    7.20
   0  -1  -2  655.93   40.30
   0  -1  -2  777.12   40.40
   0   1   2  705.03   40.30
   0   1   2  734.83   40.30
  -1  -1  -2  801.42   51.49
  -1  -1  -2  979.90   50.99
  -1  -1  -2  916.51   50.79
   1   1   2  978.50   52.19
   1   1   2 1008.40   51.49
   1   1   2  848.32   51.59
  -2  -1  -2    6.10    1.40
  -2  -1  -2    4.40    0.70
   2   1   2    6.50    1.40
   2   1   2    6.50    1.80
   2   1   2    3.90    1.80
  -3  -1  -2  733.23   41.00
  -3  -1  -2  713.93   42.10
   3   1   2  736.73   42.50
   3   1   2  730.73   40.70
   3   1   2  734.43   41.90
  -4  -1  -2   15.50    2.90
  -4  -1  -2   16.70    3.30
   4   1   2   23.20    3.80
   4   1   2   15.20    2.30
   4   1   2   24.40    4.00
  -5  -1  -2   20.90    3.50
  -5  -1  -2   32.50    5.40
   5   1   2   29.10    4.60
   5   1   2   22.00    3.20
  -6  -1  -2   -3.10    1.60
   6   1   2    7.10    2.70
   6   1   2    2.30    2.40
   6   1   2    1.10    1.40
  -7  -1  -2   29.30    5.10
   7   1   2   42.40    4.60
   7   1   2   36.40    5.50
   7   1   2   37.70    6.90
  -8  -1  -2    5.50    3.50
   8   1   2   -0.30    1.80
   8   1   2    0.00    2.50
   7  -2  -2   80.39    9.70
   7  -2  -2   89.29   10.90
   6  -2  -2    5.60    3.70
   6  -2  -2   13.80    4.60
   5  -2  -2  311.97   22.50
   5  -2  -2  308.67   21.90
   4  -2  -2   70.69    8.30
   4  -2  -2   51.59    7.50
   4  -2  -2   65.99    7.10
  -4   2   2   65.49    6.90
   3  -2  -2   -1.90    1.10
   3  -2  -2    0.10    1.80
   3  -2  -2   -1.10    1.60
  -3   2   2    3.20    1.70
   2  -2  -2 1505.85   84.39
   2  -2  -2 1571.44   84.59
   2  -2  -2 1359.86   83.59
  -2   2   2 1503.25   84.29
  -2   2   2 1502.65   82.29
   1  -2  -2   36.90    3.50
   1  -2  -2   33.70    3.30
   1  -2  -2   36.50    3.90
  -1   2   2   36.40    3.70
  -1   2   2   36.90    3.50
  -1   2   2   28.80    3.60
  -2  -2  -2  119.19    7.90
  -2  -2  -2  115.79    8.90
   2   2   2  118.19    9.10
   2   2   2  128.69    7.90
   2   2   2  103.29    8.40
  -3  -2  -2  548.55   32.50
  -3  -2  -2  534.25   33.30
  -3  -2  -2  553.64   31.30
   3   2   2  564.14   32.30
   3   2   2  565.04   33.50
  -4  -2  -2    6.70    2.40
  -4  -2  -2    8.70    2.30
   4   2   2    2.80    2.70
   4   2   2    7.60    2.30
  -5  -2  -2    4.20    2.10
  -5  -2  -2   -1.20    1.00
   5   2   2    1.50    1.60
   5   2   2   -2.20    2.10
  -6  -2  -2  369.16   23.80
   6   2   2  405.06   25.40
   6   2   2  361.76   24.80
  -7  -2  -2   43.60    6.40
   7   2   2   49.10    6.30
   7   2   2   45.80    7.50
  -8  -2  -2   38.90    6.70
   8   2   2   38.50    8.80
   8   2   2   44.80    6.60
   7  -3  -2    5.30    4.40
   7  -3  -2    8.10    4.20
   6  -3  -2    9.80    4.90
   6  -3  -2   11.20    4.20
   5  -3  -2   15.40    4.30
   5  -3  -2    9.00    3.80
   4  -3  -2   35.30    6.30
   4  -3  -2   43.50    7.10
  -4   3   2   36.90    7.00
   3  -3  -2  132.19   11.10
   3  -3  -2  154.28   11.90
  -3   3   2  134.99   11.50
  -3   3   2  140.89    8.80
   2  -3  -2  102.69    8.90
   2  -3  -2   98.79    8.20
   2  -3  -2  103.69    7.50
  -2   3   2  100.19    7.50
  -2   3   2  110.69    8.90
   1  -3  -2  138.39   10.30
   1  -3  -2  140.59    9.90
   1  -3  -2  158.88    9.50
  -1   3   2  135.59   10.20
  -1   3   2  111.29    9.20
  -1   3   2  144.49    9.90
   0  -3  -2   47.80    3.70
   0  -3  -2   43.10    4.70
   0  -3  -2   41.00    4.30
   0   3   2   46.50    4.80
   0   3   2   38.80    3.70
  -1  -3  -2   51.99    4.60
  -1  -3  -2   66.19    4.90
  -1  -3  -2   58.19    6.10
   1   3   2   63.29    6.20
   1   3   2   61.19    4.80
  -2  -3  -2  397.16   23.80
  -2  -3  -2  402.46   25.50
   2   3   2  387.26   25.40
   2   3   2  355.76   24.10
   2   3   2  462.55   24.00
  -3  -3  -2  200.48   14.60
  -3  -3  -2  195.68   13.20
   3   3   2  208.18   14.80
   3   3   2  215.98   13.20
   3   3   2  176.38   13.90
  -4  -3  -2   77.79    8.00
  -4  -3  -2   75.39    5.80
  -4  -3  -2   74.49    6.90
   4   3   2   82.49    6.80
   4   3   2   70.69    7.80
  -5  -3  -2  189.48   15.20
  -5  -3  -2  210.58   13.90
   5   3   2  228.58   15.10
   5   3   2  207.88   15.80
  -6  -3  -2  281.07   18.90
   6   3   2  312.87   20.40
   6   3   2  268.47   20.50
  -7  -3  -2  197.18   14.90
   7   3   2  197.58   16.20
   7   3   2  226.58   16.80
  -8  -3  -2    7.80    3.80
   8   3   2    9.80    3.80
   7  -4  -2    0.40    3.00
   7  -4  -2    0.80    2.80
   6  -4  -2  120.29   12.50
   5  -4  -2   -1.00    1.70
   5  -4  -2    1.10    3.00
   4  -4  -2   62.49    7.90
   4  -4  -2   72.69    8.20
   4  -4  -2   56.49    7.40
   3  -4  -2  300.47   20.60
   3  -4  -2  313.57   19.30
   3  -4  -2  314.97   22.00
  -3   4   2  319.77   19.70
  -3   4   2  314.37   21.70
   2  -4  -2 1179.28   68.19
   2  -4  -2 1232.88   67.99
   2  -4  -2 1159.68   71.79
  -2   4   2 1205.28   68.09
   1  -4  -2   13.00    3.40
   1  -4  -2   13.30    3.30
  -1   4   2   12.90    2.80
  -1   4   2   13.70    3.40
   0  -4  -2   63.49    6.40
   0  -4  -2   71.79    5.30
   0  -4  -2   73.59    7.20
   0   4   2   73.99    7.00
   0   4   2   72.09    5.50
  -1  -4  -2  124.99   10.80
  -1  -4  -2  135.59    9.30
   1   4   2  135.19   10.80
   1   4   2  129.09    8.80
  -2  -4  -2   53.49    5.00
  -2  -4  -2   52.59    6.50
   2   4   2   53.59    5.00
   2   4   2   60.79    6.60
  -3  -4  -2  295.57   20.20
  -3  -4  -2  288.77   18.10
   3   4   2  278.47   19.70
   3   4   2  301.87   17.90
   3   4   2  237.08   18.30
  -4  -4  -2   26.30    4.60
  -4  -4  -2   29.10    3.90
   4   4   2   36.20    4.40
   4   4   2   37.10    6.40
   4   4   2   29.30    5.50
  -5  -4  -2    1.20    1.20
   5   4   2    2.20    3.10
   5   4   2    1.60    2.00
  -6  -4  -2   16.40    3.60
   6   4   2   11.50    3.80
  -7  -4  -2  142.99   11.90
   7   4   2  168.68   13.80
   8   4   2    3.00    3.40
   6  -5  -2   80.39   12.90
   6  -5  -2   86.79   10.90
   5  -5  -2   10.60    4.60
   5  -5  -2    2.00    3.40
   4  -5  -2    3.70    2.70
  -4   5   2    1.60    1.30
   3  -5  -2   12.70    4.50
   3  -5  -2   11.10    3.60
   3  -5  -2   15.60    3.30
  -3   5   2   14.90    3.00
   2  -5  -2  800.22   42.80
   2  -5  -2  709.93   44.00
   2  -5  -2  688.53   45.20
  -2   5   2  727.53   43.80
   1  -5  -2   31.20    5.70
   1  -5  -2   45.40    4.30
   1  -5  -2   40.20    6.20
  -1   5   2   30.20    5.40
   0  -5  -2   35.20    5.70
   0  -5  -2   26.80    5.40
   0  -5  -2   25.50    2.80
   0   5   2   30.40    3.30
   0   5   2   35.10    5.70
  -1  -5  -2    0.50    2.40
   1   5   2    0.50    2.40
   1   5   2    0.20    1.00
  -2  -5  -2    1.80    1.50
  -2  -5  -2    0.00    2.40
   2   5   2    1.40    1.30
   2   5   2    2.10    2.20
  -3  -5  -2  291.47   19.50
  -3  -5  -2  336.17   22.60
   3   5   2  289.07   21.50
   3   5   2  293.97   19.80
  -4  -5  -2  104.39   10.90
   4   5   2   84.89   10.10
   4   5   2  106.99    8.70
  -5  -5  -2   10.40    2.70
  -5  -5  -2   14.40    4.70
   5   5   2   11.50    4.10
   5   5   2    7.60    3.20
  -6  -5  -2   -2.00    3.60
  -6  -5  -2    1.80    1.90
   6   5   2   -0.30    2.50
  -7  -5  -2   70.79    7.90
   7   5   2   76.79    9.40
   8   5   2   34.90    7.20
   5  -6  -2   -2.80    3.10
   5  -6  -2   -0.20    3.70
   4  -6  -2   29.90    4.90
   4  -6  -2   45.50    6.10
   4  -6  -2   39.10    8.10
   4  -6  -2   29.20    7.30
  -4   6   2   39.70    4.40
   3  -6  -2   44.20    7.80
   3  -6  -2   42.50    6.30
   3  -6  -2   36.10    5.10
  -3   6   2   41.80    5.90
   2  -6  -2   69.59    8.10
   2  -6  -2   74.79    6.30
   2  -6  -2   72.69    8.60
  -2   6   2   78.89    8.10
   1  -6  -2    5.70    3.00
   1  -6  -2    0.50    2.80
  -1   6   2    0.30    2.40
   0  -6  -2    0.90    0.90
   0  -6  -2    1.90    2.90
   0  -6  -2    1.80    2.20
   0   6   2    2.40    2.10
   0   6   2    1.90    1.60
  -1  -6  -2   19.50    5.50
   1   6   2   21.10    5.10
   1   6   2   19.80    2.80
  -2  -6  -2   45.00    8.10
   2   6   2   30.80    3.80
  -3  -6  -2    7.10    4.00
   3   6   2    4.70    2.00
  -4  -6  -2  139.29   13.50
   4   6   2  113.39   10.80
  -5  -6  -2    2.50    1.90
  -5  -6  -2   -5.60    2.50
   5   6   2   -1.50    2.10
   5   6   2    4.40    2.90
  -6  -6  -2   24.80    7.40
   6   6   2   32.80    6.20
   6   6   2   30.30    7.10
  -7  -6  -2   17.10    6.90
   7   6   2   20.90    5.50
   7   6   2   14.30    5.60
   4  -7  -2   93.39   11.90
   4  -7  -2  107.99   12.20
   4  -7  -2   80.39    8.50
  -4   7   2   80.39    7.90
   3  -7  -2   13.10    3.90
   3  -7  -2   11.20    2.90
   3  -7  -2    3.60    3.60
  -3   7   2   11.50    3.60
   2  -7  -2   -1.30    2.80
   2  -7  -2    8.90    3.90
   2  -7  -2    6.90    1.80
  -2   7   2    7.60    3.10
   1  -7  -2    2.90    3.40
   1  -7  -2    5.00    3.10
   0  -7  -2  100.99   11.80
   0  -7  -2  114.89   11.00
  -1  -7  -2    5.50    4.30
  -1  -7  -2   11.80    4.00
   1   7   2    9.50    2.20
  -2  -7  -2   24.10    6.50
   2   7   2   26.80    3.60
  -3  -7  -2   48.30    9.20
   3   7   2   31.10    4.40
  -4  -7  -2  272.87   23.10
   4   7   2  276.87   19.50
  -5  -7  -2    1.10    4.30
   5   7   2    4.30    2.70
  -6  -7  -2    8.00    5.20
   6   7   2    7.50    4.10
   6   7   2   13.90    4.40
  -7  -7  -2   92.39   15.00
   7   7   2   59.89   11.10
   7   7   2   57.69    9.00
   3  -8  -2  125.99   14.30
   3  -8  -2  123.49    8.70
   3  -8  -2  111.39   11.80
   2  -8  -2   29.10    6.70
   2  -8  -2   27.60    2.80
   2  -8  -2   31.50    7.10
   1  -8  -2   24.40    6.30
   1  -8  -2   31.50    7.10
   0  -8  -2   34.40    7.10
   0  -8  -2   34.90    8.10
  -1  -8  -2    7.20    4.50
  -1  -8  -2    5.80    3.50
   1   8   2    4.30    1.80
  -2  -8  -2   17.10    6.20
   2   8   2   16.30    3.00
  -3  -8  -2   21.20    7.20
   3   8   2   21.50    3.90
  -4  -8  -2   -2.90    3.90
   4   8   2    1.50    2.30
  -5  -8  -2    5.80    5.20
   5   8   2    3.90    2.60
  -6  -8  -2   11.20    5.90
   6   8   2    6.70    3.50
   2  -9  -2    2.20    3.90
   2  -9  -2   15.00    5.00
   1  -9  -2    5.50    4.40
   1  -9  -2   -4.00    2.50
   0  -9  -2    8.60    5.20
   0  -9  -2   17.60    6.10
  -1  -9  -2   12.10    5.80
  -2  -9  -2   20.10    6.80
  -2  -9  -2   28.20    6.80
   2   9   2   23.70    3.30
  -3  -9  -2    4.40    5.20
  -4  -9  -2    5.30    4.90
   4   9   2    1.20    2.20
   4   9  -3    4.10    2.30
   4   9  -3    2.90    3.40
  -4  -9   3   10.70    6.80
  -3  -9   3   16.30    6.50
  -2  -9   3   11.30    6.50
  -1  -9   3   13.30    6.60
   0  -9   3   60.59   12.00
   1  -9   3   36.90    8.40
   1  -9   3   35.50    9.50
  -5  -8   3   80.49   13.70
   4   8  -3  122.99   10.70
  -4  -8   3  103.09   16.20
   3   8  -3   40.30    4.50
   3   8  -3   47.50    5.10
  -3  -8   3   45.50    9.60
  -2  -8   3  142.49   15.60
  -1  -8   3   70.59   11.90
   0  -8   3   24.50    7.10
   1  -8   3   26.40    7.20
   2  -8   3   -8.00    3.10
   2  -8   3    2.50    3.40
   3  -8   3    3.30    3.40
   3  -8   3    3.30    3.30
   6   7  -3   12.20    4.10
   5   7  -3    5.00    2.70
  -5  -7   3    6.50    5.00
  -4  -7   3  167.28   16.90
   3   7  -3  185.58   13.80
  -3  -7   3  213.88   18.70
   2   7  -3   60.29    4.80
  -2  -7   3   63.39   10.90
  -1  -7   3   16.60    5.70
   0  -7   3   44.50    8.70
   1  -7   3  109.79   12.50
   2  -7   3  212.88   18.40
   2  -7   3  225.98   18.40
   3  -7   3   -0.30    3.30
   3  -7   3    3.60    3.30
   4  -7   3   68.89    9.80
   4  -7   3   59.39    5.10
   4  -7   3   52.29    5.70
   7   6  -3   11.10    3.80
  -7  -6   3   16.00    6.30
  -6  -6   3    3.50    3.90
   5   6  -3   -4.00    1.60
  -5  -6   3    1.60    3.60
   4   6  -3   -0.80    2.40
   4   6  -3    3.00    2.30
  -4  -6   3   -2.70    2.90
   3   6  -3   65.19    7.20
  -3  -6   3   89.89   10.60
   2   6  -3   26.30    3.60
  -2  -6   3   29.00    6.90
  -1  -6   3  174.08   12.30
  -1  -6   3  168.48   15.20
   0  -6   3   15.40    3.30
   0  -6   3   11.20    4.20
   1  -6   3   -0.80    3.00
  -2   6  -3  726.23   50.89
   2  -6   3  850.21   50.69
   2  -6   3  869.71   50.99
   3  -6   3   76.99    9.30
   3  -6   3   79.29    9.10
   3  -6   3   81.29    6.00
   4  -6   3   75.89    6.50
   4  -6   3   61.69    8.60
   4  -6   3   45.90    8.40
   4  -6   3   56.89    9.30
   5  -6   3   17.80    4.30
   5  -6   3    9.30    4.30
   5  -6   3   12.60    4.80
   7   5  -3   19.70    5.30
  -7  -5   3   21.70    6.50
   6   5  -3   13.90    4.30
  -6  -5   3   13.70    5.50
   5   5  -3   11.10    3.60
  -5  -5   3   11.10    4.80
   4   5  -3    7.50    2.70
  -4  -5   3   11.70    4.60
   3   5  -3  136.79   11.80
   3   5  -3  177.08   12.00
   3   5  -3  159.88   13.30
  -3  -5   3  170.28   12.30
  -3  -5   3  158.58   14.20
   2   5  -3   59.99    7.00
   2   5  -3   56.29    5.60
  -2  -5   3   65.79    8.10
  -2  -5   3   65.19    6.10
   1   5  -3  116.79    7.40
   1   5  -3  126.29   10.40
  -1  -5   3  119.69   11.00
  -1  -5   3  110.89    8.70
   0   5  -3   67.69    7.00
   0  -5   3   68.59    5.90
  -1   5  -3    4.80    2.40
   1  -5   3    5.90    2.90
   2  -5   3   34.10    2.90
   2  -5   3   28.70    5.60
   3  -5   3  123.59    9.20
   3  -5   3  136.89   11.80
   3  -5   3  131.69   11.30
   4  -5   3  100.49    9.60
   4  -5   3   96.49    8.70
   4  -5   3  103.59   10.50
   4  -5   3  121.99   10.90
   5  -5   3   15.80    5.00
   5  -5   3   24.30    4.50
   5  -5   3   28.00    5.20
   5  -5   3   17.60    5.40
   6  -5   3   46.40    6.30
   6  -5   3   39.30    7.00
   6  -5   3   48.30    8.50
   6  -5   3   42.60    8.00
   8   4  -3   15.90    4.90
  -8  -4   3   12.50    4.20
   7   4  -3   21.50    5.40
  -7  -4   3   14.40    5.30
   6   4  -3  352.36   23.50
   6   4  -3  321.07   22.70
  -6  -4   3  326.47   24.50
   5   4  -3  218.78   16.10
   5   4  -3  214.58   16.20
  -5  -4   3  229.78   17.80
   4   4  -3    0.50    1.70
   4   4  -3   -1.40    1.70
  -4  -4   3    0.10    1.90
  -4  -4   3    1.30    1.50
   3   4  -3    2.50    2.20
   3   4  -3    6.70    2.20
   3   4  -3    3.20    2.10
  -3  -4   3    4.10    1.80
  -3  -4   3    3.70    3.10
   2   4  -3    1.90    1.70
   2   4  -3    0.70    1.70
   2   4  -3    0.10    1.30
  -2  -4   3   -0.90    2.00
  -2  -4   3    2.60    1.50
   1   4  -3 1727.73   94.99
   1   4  -3 1689.73   97.39
  -1  -4   3 1737.73   98.19
  -1  -4   3 1709.53   95.79
   0   4  -3  113.49    7.00
   0   4  -3  113.49    9.30
   0  -4   3  110.09    9.90
   0  -4   3  117.09    8.00
  -1   4  -3  207.78   14.70
   1  -4   3  218.88   15.40
   2  -4   3   22.10    2.50
   2  -4   3   21.80    4.20
   3  -4   3   14.60    2.80
   3  -4   3    9.00    3.40
   3  -4   3   10.00    3.00
   4  -4   3  761.12   44.50
   4  -4   3  671.93   44.50
   4  -4   3  777.92   46.20
   4  -4   3  795.82   46.20
   5  -4   3  148.59   13.00
   5  -4   3  143.39   10.90
   5  -4   3  134.99   12.40
   5  -4   3  130.49   11.90
   6  -4   3    1.40    2.50
   6  -4   3   -5.60    2.10
   6  -4   3    1.40    2.10
   6  -4   3   -1.10    2.40
   7  -4   3   54.29    9.50
   7  -4   3   50.29    4.50
   7  -4   3   26.10    7.40
   7  -4   3   65.79    9.40
   8   3  -3   -0.80    2.90
  -8  -3   3    9.20    3.90
   7   3  -3    5.50    3.60
  -7  -3   3    9.50    3.90
   6   3  -3  137.99   11.90
   6   3  -3  116.39   10.20
  -6  -3   3  131.09   11.90
   5   3  -3  292.57   20.00
   5   3  -3  303.37   20.80
  -5  -3   3  317.17   21.50
   4   3  -3   20.30    4.20
   4   3  -3   26.40    4.40
  -4  -3   3   20.70    4.60
  -4  -3   3   20.90    3.90
  -4  -3   3   16.20    3.70
   3   3  -3   29.60    5.10
   3   3  -3   44.00    4.60
  -3  -3   3   22.10    3.80
  -3  -3   3   47.70    5.60
  -3  -3   3   27.90    4.40
   2   3  -3 2145.59  128.79
   2   3  -3 2397.36  129.49
   2   3  -3 2325.77  128.19
  -2  -3   3 2315.17  128.59
  -2  -3   3 2315.97  128.69
  -2  -3   3 2384.06  130.09
   1   3  -3 1496.85   83.59
   1   3  -3 1487.75   83.69
   1   3  -3 1450.85   84.99
  -1  -3   3 1513.55   85.49
  -1  -3   3 1567.84   83.79
   0   3  -3 1528.25   86.69
   0   3  -3 1654.93   84.89
   0  -3   3 1555.54   85.19
   0  -3   3 1406.76   84.99
   0  -3   3 1537.75   87.09
  -1   3  -3 1055.49   59.79
   1  -3   3 1061.59   58.09
   1  -3   3 1013.20   59.89
   2  -3   3  278.77   17.40
   2  -3   3  294.07   18.50
   3  -3   3  197.28   14.50
   3  -3   3  228.18   15.10
   3  -3   3  218.28   14.50
   3  -3   3  218.18   15.10
   4  -3   3   -0.70    1.40
   4  -3   3   -0.50    1.50
   4  -3   3    0.40    1.80
   5  -3   3   81.69    7.00
   5  -3   3   71.49    8.20
   5  -3   3   95.79    9.30
   6  -3   3   -3.40    1.20
   6  -3   3   -3.10    1.90
   6  -3   3    3.80    2.80
   7  -3   3  114.19    8.10
   7  -3   3  118.49   11.40
   7  -3   3  113.89   12.10
   8   2  -3   15.20    4.70
   8   2  -3   13.80    4.40
   7   2  -3    3.40    1.90
   7   2  -3    5.40    3.00
   7   2  -3    4.70    2.80
  -7  -2   3    0.90    2.50
   6   2  -3    2.00    2.40
   6   2  -3    8.10    2.90
   6   2  -3    5.60    2.20
  -6  -2   3    3.40    2.80
   5   2  -3  104.89    8.40
   5   2  -3   99.19    9.60
   5   2  -3  117.69    9.40
  -5  -2   3  115.49    9.60
  -5  -2   3   96.89    9.40
   4   2  -3   61.99    5.60
   4   2  -3   62.29    5.90
   4   2  -3   63.69    6.50
  -4  -2   3   58.69    7.00
  -4  -2   3   53.19    6.00
  -4  -2   3   58.69    6.20
   3   2  -3  365.76   21.50
   3   2  -3  361.46   21.40
   3   2  -3  291.57   22.10
   3   2  -3  369.16   21.80
  -3  -2   3  346.87   21.60
  -3  -2   3  329.27   21.70
  -3  -2   3  347.57   21.90
   2   2  -3   80.09    7.00
   2   2  -3   87.29    6.70
   2   2  -3   84.89    6.30
  -2  -2   3   82.89    7.00
  -2  -2   3   79.89    6.40
  -2  -2   3   74.69    6.30
   1   2  -3  444.26   25.70
   1   2  -3  458.85   26.20
   1   2  -3  439.06   25.10
  -1  -2   3  460.35   25.70
  -1  -2   3  392.66   25.70
  -1  -2   3  434.16   25.40
  -1  -2   3  436.56   26.40
   0   2  -3    8.00    1.40
   0   2  -3    6.50    1.90
   0  -2   3    6.00    1.60
   0  -2   3    7.20    1.90
   0  -2   3    7.00    1.30
  -1   2  -3 2019.30  122.39
   1  -2   3 2294.07  123.39
   1  -2   3 2344.97  122.39
   2  -2   3   51.19    4.70
   2  -2   3   45.80    4.40
   3  -2   3    1.20    1.00
   3  -2   3   -0.30    1.00
   3  -2   3   -0.70    0.90
   3  -2   3    1.50    1.20
   4  -2   3  318.97   20.10
   4  -2   3  301.27   19.20
   4  -2   3  306.07   20.50
   5  -2   3  178.98   12.00
   5  -2   3  184.28   13.30
   5  -2   3  161.88   13.80
   6  -2   3   16.20    3.20
   6  -2   3    9.20    2.40
   6  -2   3   12.40    4.20
   6  -2   3   12.70    3.80
   7  -2   3   16.80    2.80
   7  -2   3   34.30    5.70
   7  -2   3   19.90    3.60
   7  -2   3   25.60    6.00
   8   1  -3   51.39    9.10
   8   1  -3   48.30    8.00
   7   1  -3    1.50    2.60
   7   1  -3    6.20    4.00
   6   1  -3   69.39    7.50
   6   1  -3   72.49    8.30
  -6  -1   3   62.89    5.80
   5   1  -3 1349.96   77.29
   5   1  -3 1372.56   75.19
   5   1  -3 1290.97   77.89
  -5  -1   3 1390.06   75.99
  -5  -1   3 1295.07   77.99
   4   1  -3   91.09    6.50
   4   1  -3   83.79    7.40
   4   1  -3   79.89    7.60
  -4  -1   3   86.59    7.00
  -4  -1   3   78.59    7.60
   3   1  -3   22.10    4.40
   3   1  -3   18.80    3.60
   3   1  -3   18.40    3.30
  -3  -1   3   28.70    4.50
  -3  -1   3   25.80    3.20
  -3  -1   3   19.20    3.60
   2   1  -3   27.10    3.80
   2   1  -3   24.80    2.90
   2   1  -3   26.80    2.90
   2   1  -3   23.90    3.10
  -2  -1   3   20.40    3.20
  -2  -1   3   23.50    3.00
  -2  -1   3   27.30    3.10
   1   1  -3   98.09    6.50
   1   1  -3  110.69    7.00
   1   1  -3  107.59    8.10
  -1  -1   3   78.49    7.10
  -1  -1   3  102.59    6.90
  -1  -1   3   97.99    6.60
  -1  -1   3   99.39    7.10
   0   1  -3  442.36   25.80
   0   1  -3  504.65   26.70
   0  -1   3  451.15   25.90
   0  -1   3  461.55   26.50
   0  -1   3  469.35   26.80
  -1   1  -3  486.55   28.80
   1  -1   3  510.55   28.70
   2  -1   3  134.79    9.00
   2  -1   3  132.79    9.60
   2  -1   3  146.09    8.90
   3  -1   3  618.94   38.90
   3  -1   3  658.13   38.00
   3  -1   3  675.63   37.50
  -4   1  -3  401.16   25.70
   4  -1   3  410.96   24.90
   4  -1   3  427.06   26.00
  -5   1  -3  431.56   28.80
   5  -1   3  476.85   28.00
   6  -1   3   32.40    5.10
   6  -1   3   28.60    4.70
   6  -1   3   28.30    5.70
   7  -1   3   14.10    4.60
   7  -1   3    8.50    3.20
   7  -1   3   11.90    3.30
   8  -1   3   37.60    3.60
   8  -1   3   29.50    6.90
   8  -1   3   41.20    6.10
   8   0  -3    4.80    4.70
   7   0  -3   21.70    5.60
   7   0  -3   31.50    6.00
   6   0  -3   60.29    7.60
   6   0  -3   54.49    6.90
   5   0  -3  120.99    9.80
   5   0  -3   83.39    9.30
  -5   0   3  105.19    6.50
  -5   0   3   97.29    9.70
   4   0  -3   21.10    4.80
   4   0  -3   24.00    4.30
   4   0  -3   20.10    4.20
  -4   0   3   22.70    4.40
  -4   0   3   23.00    3.10
  -4   0   3   26.10    4.80
   3   0  -3    1.20    2.00
   3   0  -3    0.80    1.10
   3   0  -3    0.80    1.20
  -3   0   3    2.00    1.00
  -3   0   3   -0.80    0.90
  -3   0   3    2.80    1.50
   2   0  -3   47.30    4.50
   2   0  -3   50.79    4.70
   2   0  -3   47.90    5.20
  -2   0   3   54.99    4.80
  -2   0   3   49.40    3.90
  -2   0   3   54.39    4.90
   1   0  -3   74.79    5.70
   1   0  -3   61.99    4.80
   1   0  -3   63.79    5.10
  -1   0   3   64.59    4.90
  -1   0   3   59.79    5.60
   0   0  -3 1800.32  102.29
   0   0  -3 1861.61  102.79
   0   0   3 1797.72  102.89
   0   0   3 2010.10  103.39
  -1   0  -3 1242.78   71.99
  -1   0  -3 1293.77   73.29
   1   0   3 1383.96   71.89
   1   0   3 1318.07   72.09
   1   0   3 1322.67   73.19
  -2   0  -3  245.28   14.20
   2   0   3  237.18   14.00
   2   0   3  244.88   13.40
   2   0   3  212.08   15.00
  -3   0  -3  261.67   16.40
   3   0   3  256.47   17.70
   3   0   3  266.47   16.40
  -4   0  -3  124.19    9.80
  -4   0  -3  131.79    8.80
   4   0   3  134.59   10.00
   4   0   3  132.49    8.80
  -5   0  -3   36.50    3.90
  -5   0  -3   31.20    6.30
   5   0   3   35.00    3.80
   5   0   3   38.90    5.50
   5   0   3   37.00    4.70
  -6   0  -3   27.00    4.20
   6   0   3   23.20    3.90
   6   0   3   33.80    5.00
   6   0   3   30.00    5.50
  -7   0  -3   36.30    5.40
   7   0   3   34.90    5.10
   7   0   3   37.20    5.40
   7   0   3   52.89    8.20
  -8   0  -3   28.40    5.40
   8   0   3   21.80    4.40
   8   0   3   26.70    4.50
   8   0   3   26.60    7.40
   8  -1  -3   34.40    8.00
   8  -1  -3   37.00    7.40
   7  -1  -3   87.89   10.00
   6  -1  -3   46.60    7.60
   6  -1  -3   42.20    7.70
   5  -1  -3   13.10    3.90
   5  -1  -3   10.80    3.70
   4  -1  -3   61.29    6.70
   4  -1  -3   47.70    6.60
  -4   1   3   64.79    6.80
  -4   1   3   62.29    6.70
   3  -1  -3  249.08   15.60
   3  -1  -3  220.38   15.40
   3  -1  -3  191.88   15.30
  -3   1   3  216.08   12.60
  -3   1   3  222.38   15.40
   2  -1  -3  625.84   36.10
   2  -1  -3  606.54   36.20
   2  -1  -3  595.94   35.80
  -2   1   3  603.14   36.10
   1  -1  -3  197.48   12.80
   1  -1  -3  226.18   13.30
   1  -1  -3  186.68   12.90
  -1   1   3  185.78   13.10
  -1   1   3  211.98   13.20
  -1  -1  -3  250.67   14.00
  -1  -1  -3  238.88   14.00
  -1  -1  -3  229.68   15.60
   1   1   3  248.68   15.00
   1   1   3  247.28   14.00
  -2  -1  -3   10.20    1.70
   2   1   3    8.30    1.50
   2   1   3   10.30    2.40
  -3  -1  -3   43.90    4.20
  -3  -1  -3   46.60    3.10
   3   1   3   44.70    4.10
   3   1   3   45.10    5.10
   3   1   3   42.40    5.00
  -4  -1  -3   37.40    3.40
  -4  -1  -3   33.80    4.20
   4   1   3   41.70    3.20
   4   1   3   43.40    5.20
   4   1   3   46.50    4.70
  -5  -1  -3   50.39    7.90
  -5  -1  -3   53.69    4.80
   5   1   3   54.99    5.80
   5   1   3   54.69    6.20
   5   1   3   57.29    4.50
  -6  -1  -3   37.00    4.50
   6   1   3   47.80    4.40
   6   1   3   44.90    5.70
   6   1   3   49.70    6.10
  -7  -1  -3   78.69    7.40
   7   1   3   76.29    6.70
   7   1   3   87.69    8.70
   7   1   3   94.19    9.30
  -8  -1  -3    4.70    3.80
   8   1   3    0.30    3.10
   8   1   3   12.10    4.20
   8   1   3    4.50    2.60
   7  -2  -3   66.49   11.10
   7  -2  -3   87.19   10.20
   6  -2  -3   16.00    5.00
   6  -2  -3   10.10    3.80
   5  -2  -3   18.00    4.70
   5  -2  -3   21.20    5.40
   4  -2  -3  330.57   21.90
   4  -2  -3  318.77   21.50
   4  -2  -3  261.77   21.00
  -4   2   3  329.27   21.60
   3  -2  -3  412.96   26.50
   3  -2  -3  386.56   26.10
   3  -2  -3  406.46   26.40
  -3   2   3  436.56   23.40
  -3   2   3  402.26   26.40
   2  -2  -3   34.10    4.10
   2  -2  -3   30.70    4.30
   2  -2  -3   28.30    4.50
  -2   2   3   27.40    3.10
  -2   2   3   35.80    4.20
   1  -2  -3  510.85   27.60
   1  -2  -3  449.56   27.90
  -1   2   3  493.35   28.10
  -1   2   3  464.75   27.30
  -1   2   3  405.16   27.40
   0  -2  -3  185.28   11.60
   0  -2  -3  161.38   11.10
   0   2   3  169.68   11.50
   0   2   3  163.58   10.80
   0   2   3  154.28   11.60
  -1  -2  -3 4849.31  268.07
   1   2   3 4930.31  269.47
  -2  -2  -3  211.68   13.00
   2   2   3  205.78   14.00
   2   2   3  216.98   13.00
   2   2   3  209.68   14.60
  -3  -2  -3   91.09    5.70
  -3  -2  -3   93.09    7.00
   3   2   3   91.09    6.80
   3   2   3   83.39    7.90
   3   2   3   86.19    8.00
  -4  -2  -3  952.00   57.09
  -4  -2  -3 1012.30   55.49
   4   2   3 1010.50   58.29
   4   2   3  895.51   58.69
   4   2   3 1081.19   56.99
  -5  -2  -3   18.20    2.90
  -5  -2  -3   20.60    4.00
   5   2   3   20.60    4.50
   5   2   3   18.20    4.40
  -6  -2  -3   -0.70    1.30
   6   2   3    1.60    3.10
   6   2   3    3.20    2.20
  -7  -2  -3   -4.10    1.80
   7   2   3    1.30    3.00
   7   2   3    1.60    3.10
  -8  -2  -3    1.90    3.10
   8   2   3   -6.30    2.40
   8   2   3   13.00    4.10
   7  -3  -3   -2.60    3.20
   7  -3  -3    3.00    3.70
   6  -3  -3   -1.50    2.30
   6  -3  -3    5.30    3.00
   5  -3  -3   42.20    8.30
   5  -3  -3   72.59    8.20
   4  -3  -3  117.49   11.40
   4  -3  -3  135.09   12.00
   4  -3  -3  143.69   12.10
   3  -3  -3  270.17   19.00
   3  -3  -3  272.97   18.50
   3  -3  -3  255.67   18.80
  -3   3   3  278.57   16.10
  -3   3   3  240.98   18.50
   2  -3  -3   34.10    4.20
   2  -3  -3   30.60    5.20
  -2   3   3   28.70    4.70
   1  -3  -3  208.58   14.60
   1  -3  -3  226.18   13.70
  -1   3   3  200.08   14.30
  -1   3   3  196.88   13.90
   0  -3  -3  181.78   13.20
   0  -3  -3  198.78   13.70
   0  -3  -3  217.38   12.80
   0   3   3  191.18   13.60
   0   3   3  195.98   12.70
  -1  -3  -3   56.19    5.80
  -1  -3  -3   46.70    4.40
  -1  -3  -3   47.00    4.60
   1   3   3   53.39    4.60
   1   3   3   46.20    5.50
  -2  -3  -3  190.78   11.40
  -2  -3  -3  182.28   13.10
   2   3   3  160.28   12.80
   2   3   3  154.08   11.70
  -3  -3  -3   25.00    4.90
  -3  -3  -3   19.50    3.30
   3   3   3   17.70    3.90
   3   3   3   21.50    3.30
   3   3   3   25.60    5.00
  -4  -3  -3   35.30    3.90
  -4  -3  -3   42.70    4.80
   4   3   3   45.90    6.90
   4   3   3   40.50    5.80
   4   3   3   45.90    4.80
  -5  -3  -3  148.29   12.30
  -5  -3  -3  169.08   11.00
   5   3   3  163.78   13.60
   5   3   3  152.28   13.90
   5   3   3  174.08   12.30
  -6  -3  -3   64.69    6.20
   6   3   3   75.99    8.60
   6   3   3   77.79    7.70
  -7  -3  -3   39.00    4.90
   7   3   3   31.00    6.20
  -8  -3  -3   -3.60    2.90
   8   3   3    4.90    3.60
   6  -4  -3    5.50    4.20
   6  -4  -3   10.60    4.90
   5  -4  -3   -2.50    1.90
   5  -4  -3    1.80    2.70
   4  -4  -3    1.20    3.60
   4  -4  -3    1.40    2.40
   4  -4  -3    4.40    3.10
  -4   4   3    5.10    1.20
   3  -4  -3   26.70    5.20
   3  -4  -3   29.10    5.60
  -3   4   3   27.70    3.90
   2  -4  -3  597.04   38.10
   2  -4  -3  646.84   36.50
   2  -4  -3  604.24   36.40
  -2   4   3  598.64   36.40
  -2   4   3  606.64   37.90
   1  -4  -3  159.68   10.00
   1  -4  -3  136.29   11.20
   1  -4  -3  135.79   10.70
  -1   4   3  147.69   11.00
  -1   4   3  119.19    9.90
   0  -4  -3   15.30    3.40
   0  -4  -3   18.40    4.10
   0  -4  -3   23.30    2.80
   0   4   3   18.60    3.90
   0   4   3   18.30    3.20
  -1  -4  -3  495.05   30.90
  -1  -4  -3  506.75   29.70
  -1  -4  -3  409.16   28.50
   1   4   3  478.85   30.80
   1   4   3  547.75   28.90
  -2  -4  -3  117.19   10.80
  -2  -4  -3  137.89    9.30
   2   4   3  125.09    9.40
   2   4   3  124.99   11.10
  -3  -4  -3   92.99    9.30
  -3  -4  -3   84.19    7.40
   3   4   3   92.19    8.30
   3   4   3  107.29    7.80
  -4  -4  -3   33.50    3.50
  -4  -4  -3   37.80    4.50
  -4  -4  -3   48.20    7.40
   4   4   3   37.30    7.20
   4   4   3   36.10    6.70
   4   4   3   43.10    4.60
  -5  -4  -3   99.49    7.90
   5   4   3  114.59    9.30
   5   4   3  106.99   10.90
  -6  -4  -3   36.50    4.60
   6   4   3   42.40    8.30
   6   4   3   36.90    6.10
  -7  -4  -3    5.00    2.80
   7   4   3   -2.40    2.80
   7   4   3   10.60    4.50
  -8  -4  -3    8.90    5.40
   8   4   3   -1.90    2.90
   8   4   3   -0.80    2.90
   6  -5  -3    2.20    3.40
   6  -5  -3   -1.10    3.20
   5  -5  -3   58.39    9.80
   5  -5  -3   49.80   10.40
   4  -5  -3   69.29    8.00
   4  -5  -3   75.29    9.40
   4  -5  -3   70.89   10.40
   3  -5  -3   11.60    4.20
   3  -5  -3   11.80    3.70
  -3   5   3    4.90    2.60
   2  -5  -3    6.80    3.40
   2  -5  -3    6.70    2.70
   2  -5  -3    2.00    2.30
  -2   5   3    9.20    3.10
   1  -5  -3    0.40    1.70
   1  -5  -3    1.20    2.00
   1  -5  -3   -0.70    1.20
  -1   5   3    4.10    2.20
  -1   5   3    1.70    1.90
   0  -5  -3   30.50    5.70
   0  -5  -3   23.90    3.10
   0  -5  -3   34.90    5.60
   0   5   3   29.10    5.20
   0   5   3   31.20    3.80
  -1  -5  -3  128.29   11.00
  -1  -5  -3  115.09    9.50
  -1  -5  -3   93.59    7.90
   1   5   3  124.39    8.40
   1   5   3   93.19   11.10
  -2  -5  -3  319.97   22.20
  -2  -5  -3  307.57   19.40
   2   5   3  282.17   21.40
   2   5   3  305.17   19.30
  -3  -5  -3   17.60    4.70
  -3  -5  -3   18.80    3.80
   3   5   3   16.20    3.60
   3   5   3   22.50    5.40
  -4  -5  -3   30.10    6.60
   4   5   3   30.30    4.90
   4   5   3   28.00    5.40
  -5  -5  -3   11.70    4.90
  -5  -5  -3   15.80    3.00
   5   5   3   10.50    3.40
   5   5   3    6.90    3.50
  -6  -5  -3   14.40    2.90
   6   5   3   12.90    4.80
   6   5   3    6.80    3.50
  -7  -5  -3   -1.20    2.70
   7   5   3    7.00    3.70
   7   5   3    0.40    3.40
  -8  -5  -3   -9.40    3.60
   8   5   3    2.50    3.30
   8   5   3   -3.80    3.40
   5  -6  -3   10.10    5.20
   5  -6  -3   22.60    6.40
   4  -6  -3   14.60    5.30
   4  -6  -3   17.70    6.30
   4  -6  -3   26.90    5.10
  -4   6   3   21.10    3.50
   3  -6  -3    5.70    2.90
   3  -6  -3    6.90    3.80
   3  -6  -3    4.00    2.90
  -3   6   3    1.80    2.50
   2  -6  -3    1.60    2.00
   2  -6  -3   -0.90    2.00
   2  -6  -3    0.10    1.90
  -2   6   3    5.30    3.10
   1  -6  -3  130.19   14.40
   1  -6  -3  131.89   12.70
   1  -6  -3  155.28   10.30
  -1   6   3  156.08   12.50
   0  -6  -3   14.40    4.10
   0  -6  -3   11.30    2.40
   0  -6  -3   10.30    4.10
   0   6   3    8.60    2.80
   0   6   3    9.70    3.60
  -1  -6  -3   40.40    6.40
  -1  -6  -3   47.60    8.10
   1   6   3   41.70    4.40
  -2  -6  -3  102.09   11.50
   2   6   3  121.69    9.00
  -3  -6  -3   13.70    5.00
   3   6   3   15.10    3.50
  -4  -6  -3    3.90    3.40
   4   6   3   -0.30    1.50
  -5  -6  -3    4.20    4.20
  -5  -6  -3    6.90    2.40
   5   6   3   14.40    4.50
   5   6   3    5.00    2.90
  -6  -6  -3    0.40    2.00
  -6  -6  -3    2.20    4.10
   6   6   3    3.20    2.80
   6   6   3   -4.20    2.60
  -7  -6  -3    9.70    4.50
   7   6   3   13.60    4.60
   7   6   3   27.50    8.80
   4  -7  -3   38.70    8.30
   4  -7  -3   40.10    8.70
   4  -7  -3   50.49    6.80
  -4   7   3   31.40    5.10
   3  -7  -3   92.09    9.30
   3  -7  -3   94.09    8.00
   3  -7  -3   93.89   15.00
  -3   7   3   86.69    9.00
   2  -7  -3   72.19    6.20
   2  -7  -3   69.39    8.30
   2  -7  -3   70.99    9.00
  -2   7   3   57.99    9.10
   1  -7  -3   37.30    7.20
   1  -7  -3   44.10    8.20
   1  -7  -3   35.20    3.90
   0  -7  -3   -0.40    1.30
   0  -7  -3   -0.90    1.80
   0  -7  -3    2.70    3.80
   0   7   3    0.10    1.80
  -1  -7  -3    7.20    4.20
  -1  -7  -3   15.40    4.40
   1   7   3   15.40    3.10
  -2  -7  -3   37.90    8.30
  -2  -7  -3   37.10    6.90
   2   7   3   49.20    5.00
  -3  -7  -3   10.70    5.10
   3   7   3    4.50    2.40
  -4  -7  -3   48.70   10.00
   4   7   3   46.70    6.20
  -5  -7  -3   13.90    6.10
   5   7   3   17.60    4.90
  -6  -7  -3    8.80    6.40
   6   7   3   -1.10    2.90
   7   7   3  148.09   15.90
   3  -8  -3   -0.80    3.70
   3  -8  -3    5.60    2.30
   3  -8  -3    1.60    4.20
   2  -8  -3   34.10    7.70
   2  -8  -3   43.40    4.60
   2  -8  -3   48.20    8.40
   1  -8  -3   -0.60    1.80
   1  -8  -3   -3.80    3.20
   1  -8  -3    3.00    3.10
   0  -8  -3   17.00    5.20
   0  -8  -3    8.50    4.60
  -1  -8  -3   51.39    9.50
  -1  -8  -3   52.79    8.80
   1   8   3   51.99    5.50
  -2  -8  -3    4.30    3.50
  -2  -8  -3    7.50    4.70
   2   8   3   14.00    3.00
  -3  -8  -3   -3.60    3.20
   3   8   3    4.30    2.40
   4   8   3    8.00    3.20
  -5  -8  -3    6.20    5.30
   5   8   3   12.60    4.20
  -6  -8  -3    3.00    5.30
   6   8   3    8.10    4.80
   1  -9  -3   -2.80    3.00
   1  -9  -3    4.90    4.20
   0  -9  -3   22.10    6.20
   0  -9  -3   12.60    5.80
  -1  -9  -3   19.80    6.70
   1   9   3   32.80    3.90
  -2  -9  -3   39.30    9.50
  -2  -9  -3   44.40    8.30
   2   9   3   42.20    4.90
  -3  -9  -3   10.50    5.40
  -3  -9  -3   10.80    6.10
   3   9   3   10.90    3.20
  -4  -9  -3   45.60   10.50
   4   9   3   51.09    6.40
   3   9  -4    0.40    1.00
  -3  -9   4   -6.30    4.40
  -2  -9   4   12.70    5.90
  -1  -9   4    4.00    4.60
   0  -9   4    0.00    4.10
   1  -9   4   19.60    7.10
  -5  -8   4    0.80    4.70
  -4  -8   4    6.00    4.80
   3   8  -4   82.79    7.20
  -3  -8   4   95.09   17.20
  -2  -8   4  159.18   17.10
  -1  -8   4  103.29   13.00
   0  -8   4   12.30    5.90
   1  -8   4    4.60    4.90
   2  -8   4   86.69   10.80
   2  -8   4   65.09   11.20
   3  -8   4    0.70    4.00
   3  -8   4    0.30    3.30
   6   7  -4    2.30    3.00
  -6  -7   4    5.30    5.20
   5   7  -4    5.30    4.60
  -5  -7   4    2.70    5.30
   4   7  -4   -2.30    2.70
  -4  -7   4    1.30    4.60
   3   7  -4   64.69    6.70
  -3  -7   4   66.39   11.60
  -2  -7   4  204.38   18.50
  -1  -7   4  157.68   15.70
   0  -7   4   18.80    5.80
   1  -7   4  124.59   13.00
   2  -7   4   -1.90    2.50
   2  -7   4    1.40    2.50
   3  -7   4   15.00    4.90
   3  -7   4    3.20    3.00
   4  -7   4    4.70    3.90
   4  -7   4    2.20    2.80
   4  -7   4   -0.30    1.20
   4  -7   4   -0.50    2.00
   7   6  -4   -1.40    2.80
  -7  -6   4   -0.30    4.50
   6   6  -4    3.40    3.10
  -6  -6   4    5.50    4.20
   5   6  -4   12.10    4.20
  -5  -6   4    1.40    3.70
   4   6  -4    0.30    2.40
   4   6  -4    5.10    3.20
  -4  -6   4   -1.20    3.60
   3   6  -4  143.69   11.20
   3   6  -4  129.39   11.10
  -3  -6   4  152.58   14.60
   2   6  -4   -1.90    1.50
  -2  -6   4    0.40    2.90
   1   6  -4   67.09    4.60
  -1  -6   4   64.09    6.30
  -1  -6   4   66.89   10.20
   0  -6   4   19.90    5.40
   0  -6   4   16.60    3.30
   1  -6   4  203.98   16.80
   2  -6   4   36.00    7.20
   3  -6   4   25.70    5.80
   3  -6   4   21.00    2.60
   3  -6   4   23.60    5.50
   4  -6   4   27.80    3.90
   4  -6   4   45.90    8.30
   4  -6   4   33.40    6.70
   4  -6   4   27.00    6.10
   5  -6   4   32.50    6.00
   5  -6   4   21.00    5.90
   5  -6   4   21.10    5.70
   5  -6   4   29.30    7.10
   7   5  -4    4.20    3.20
  -7  -5   4    8.20    4.60
   6   5  -4   29.10    5.80
  -6  -5   4   22.30    6.50
   5   5  -4    3.30    2.50
  -5  -5   4    4.80    3.90
   4   5  -4   13.90    4.50
   4   5  -4   18.90    4.20
  -4  -5   4   22.30    6.00
   3   5  -4   -0.10    1.70
   3   5  -4    1.20    2.30
  -3  -5   4   -3.10    2.20
  -3  -5   4    0.70    1.70
   2   5  -4   40.30    4.70
   2   5  -4   39.90    7.10
  -2  -5   4   42.20    4.70
  -2  -5   4   42.80    7.60
   1   5  -4  202.58   15.30
   1   5  -4  204.98   12.40
  -1  -5   4  192.78   13.40
  -1  -5   4  200.18   16.10
   0   5  -4    1.40    0.70
   0  -5   4    1.50    1.40
   0  -5   4    1.30    2.10
  -1   5  -4   43.20    5.50
   1  -5   4   45.30    7.10
   2  -5   4   10.60    3.90
   2  -5   4   14.30    2.20
   3  -5   4  182.68   15.10
   3  -5   4  180.88   12.30
   3  -5   4  189.88   14.60
   4  -5   4   -1.50    1.80
   4  -5   4   -2.20    2.00
   4  -5   4   -1.80    1.60
   5  -5   4   -1.10    2.20
   5  -5   4    6.70    3.40
   5  -5   4   -2.90    2.30
   5  -5   4    2.60    2.60
   6  -5   4   -0.40    3.10
   6  -5   4   -0.30    2.70
   6  -5   4    2.10    3.10
   6  -5   4    4.30    3.30
   7   4  -4   11.80    4.00
  -7  -4   4   15.20    5.20
   6   4  -4   64.69    7.70
  -6  -4   4   59.99    9.40
   5   4  -4   -1.70    1.80
   5   4  -4   -1.90    2.10
  -5  -4   4    2.60    3.40
   4   4  -4  121.19   11.30
   4   4  -4  139.49   10.70
   4   4  -4  130.29   10.90
  -4  -4   4  122.89   11.90
   3   4  -4  459.75   30.80
   3   4  -4  565.64   31.70
   3   4  -4  520.95   31.40
  -3  -4   4  481.85   30.50
  -3  -4   4  478.65   34.30
  -3  -4   4  474.85   30.50
   2   4  -4  139.59   12.50
   2   4  -4  140.09    9.90
   2   4  -4  131.59   10.40
  -2  -4   4  147.79   10.60
  -2  -4   4  139.39   12.00
  -2  -4   4  144.59   10.30
   1   4  -4   22.40    3.10
   1   4  -4   24.50    4.50
  -1  -4   4   17.80    3.00
  -1  -4   4   26.60    5.40
   0   4  -4   31.20    2.80
   0   4  -4   35.30    4.40
   0  -4   4   22.10    3.10
   0  -4   4   27.20    5.00
   0  -4   4   28.00    3.10
  -1   4  -4  398.76   25.20
   1  -4   4  394.96   22.80
   1  -4   4  382.46   25.40
   2  -4   4    3.00    1.90
   2  -4   4    3.90    1.30
   3  -4   4  141.59   10.40
   3  -4   4  145.79   13.00
   3  -4   4  139.89   11.40
   4  -4   4   14.40    3.80
   4  -4   4   12.40    3.90
   4  -4   4   13.20    3.50
   4  -4   4   11.50    3.80
   5  -4   4  119.39   11.20
   5  -4   4  105.69   10.50
   5  -4   4  115.69    9.70
   5  -4   4  120.49   11.00
   6  -4   4   40.90    7.40
   6  -4   4   55.69    5.90
   6  -4   4   33.00    6.80
   6  -4   4   32.10    6.90
   8   3  -4   11.70    4.90
   7   3  -4    5.90    2.10
   6   3  -4  188.68   14.70
   6   3  -4  168.88   13.60
  -6  -3   4  152.38   14.00
   5   3  -4   93.19    8.70
   5   3  -4  105.49    9.40
  -5  -3   4  103.59   10.00
   4   3  -4  491.05   35.60
   4   3  -4  603.54   35.00
   4   3  -4  621.14   35.10
  -4  -3   4  590.54   36.00
  -4  -3   4  546.75   35.20
  -4  -3   4  579.24   35.30
   3   3  -4   34.30    4.30
   3   3  -4   30.90    5.60
   3   3  -4   31.20    3.90
  -3  -3   4   29.70    5.40
  -3  -3   4   32.40    4.90
  -3  -3   4   32.00    4.80
   2   3  -4  311.27   20.40
   2   3  -4  307.97   19.50
   2   3  -4  344.67   20.90
  -2  -3   4  324.87   21.30
  -2  -3   4  306.87   20.00
  -2  -3   4  325.87   19.90
   1   3  -4    4.90    1.80
   1   3  -4    7.40    2.20
   1   3  -4    7.00    1.70
  -1  -3   4    6.60    1.70
  -1  -3   4    5.50    2.40
  -1  -3   4    4.10    2.10
   0   3  -4  723.03   39.00
   0   3  -4  681.63   40.60
   0  -3   4  661.23   40.80
   0  -3   4  662.73   39.20
   0  -3   4  698.43   38.90
  -1   3  -4  156.88   11.00
   1  -3   4  166.98   12.40
   1  -3   4  186.28   10.90
   2  -3   4  153.88   11.40
   2  -3   4  154.58   10.40
   3  -3   4   71.99    7.10
   3  -3   4   89.49    7.50
   3  -3   4   91.09    7.60
   3  -3   4   81.69    7.10
   4  -3   4   30.20    5.40
   4  -3   4   32.30    5.20
   4  -3   4   30.70    4.70
   4  -3   4   41.50    6.10
   5  -3   4  212.28   16.70
   5  -3   4  197.88   21.70
   5  -3   4  210.28   14.90
   5  -3   4  229.08   16.70
   6  -3   4    2.70    2.30
   6  -3   4    4.30    2.90
   6  -3   4    4.80    2.30
   6  -3   4    4.30    2.90
   7  -3   4    0.60    2.90
   7  -3   4   -0.60    2.40
   7  -3   4   -2.80    1.80
   7  -3   4    4.80    3.50
   7  -3   4    3.90    2.80
   8   2  -4   18.40    5.40
   8   2  -4   25.70    6.10
   7   2  -4    9.10    3.50
   7   2  -4   20.90    6.20
  -7  -2   4   16.90    3.90
   6   2  -4  575.94   35.80
   6   2  -4  581.04   36.70
  -6  -2   4  552.24   35.20
   5   2  -4   55.09    6.30
   5   2  -4   58.69    6.80
   5   2  -4   50.09    5.40
  -5  -2   4   58.99    6.60
   4   2  -4  463.75   28.20
   4   2  -4  490.95   28.10
   4   2  -4  381.56   28.80
   4   2  -4  460.35   27.30
  -4  -2   4  456.95   28.50
  -4  -2   4  416.56   28.20
  -4  -2   4  456.35   28.10
   3   2  -4   31.90    3.80
   3   2  -4   31.10    3.70
   3   2  -4   27.70    5.20
   3   2  -4   29.60    3.80
  -3  -2   4   34.00    4.00
  -3  -2   4   24.60    4.40
  -3  -2   4   29.70    4.60
   2   2  -4    2.80    1.50
   2   2  -4   -0.60    1.60
   2   2  -4    1.30    1.30
  -2  -2   4    0.20    1.10
  -2  -2   4    1.10    1.30
  -2  -2   4    3.10    1.90
   1   2  -4  214.68   13.00
   1   2  -4  220.88   13.80
  -1  -2   4  210.78   13.70
  -1  -2   4  220.08   14.50
  -1  -2   4  205.98   14.10
   0  -2   4 1385.16   73.39
   0  -2   4 1273.57   75.09
   0  -2   4 1318.27   74.29
  -1   2  -4  159.18   11.50
   1  -2   4  181.28   12.40
   1  -2   4  198.88   11.60
   2  -2   4  952.00   54.79
   2  -2   4  977.80   55.39
   2  -2   4  959.00   54.49
   3  -2   4  685.53   39.60
   3  -2   4  676.33   40.20
   3  -2   4  663.33   39.40
   4  -2   4   76.99    6.70
   4  -2   4   70.59    6.90
   4  -2   4   70.79    7.50
   4  -2   4   74.39    6.70
   5  -2   4  252.07   20.20
   5  -2   4  280.07   18.20
   5  -2   4  297.77   18.90
   5  -2   4  277.37   19.40
   6  -2   4    8.00    2.70
   6  -2   4    3.90    2.70
   6  -2   4    2.50    1.50
   6  -2   4    8.60    3.30
   7  -2   4   57.59    6.30
   7  -2   4   45.20    7.00
   7  -2   4   39.50    7.70
   7  -2   4   66.29   10.70
   7  -2   4   50.29    5.40
   8   1  -4    7.30    3.70
   8   1  -4   20.80    5.70
   7   1  -4  130.59   11.80
   7   1  -4  117.19   13.70
   6   1  -4   37.60    6.40
   6   1  -4   50.69    8.10
  -6  -1   4   33.90    4.70
   5   1  -4  723.73   42.60
   5   1  -4  698.83   43.00
  -5  -1   4  674.33   40.90
   4   1  -4   15.80    4.60
   4   1  -4   15.30    4.50
   4   1  -4   14.60    3.50
  -4  -1   4   15.10    3.20
  -4  -1   4   14.40    3.50
  -4  -1   4   22.10    4.20
   3   1  -4   18.70    4.40
   3   1  -4   26.00    4.10
   3   1  -4   25.20    3.90
  -3  -1   4   20.20    3.90
  -3  -1   4   16.10    3.30
  -3  -1   4   17.50    3.10
   2   1  -4 5116.79  294.87
   2   1  -4 5718.43  295.37
   2   1  -4 5379.76  296.07
  -2  -1   4 5456.95  295.57
  -2  -1   4 5168.48  295.07
   1   1  -4  449.86   25.20
   1   1  -4  425.96   24.70
   1   1  -4  403.46   24.10
  -1  -1   4  429.66   24.90
  -1  -1   4  444.16   25.20
  -1  -1   4  375.76   25.20
  -1  -1   4  401.06   24.20
   0   1  -4  501.05   26.30
   0   1  -4  453.85   24.90
   0  -1   4  427.86   26.50
   0  -1   4  445.86   26.40
   0  -1   4  414.16   25.10
  -1   1  -4   25.90    3.00
   1  -1   4   29.70    3.00
   1  -1   4   29.90    2.10
  -2   1  -4  923.31   59.09
   2  -1   4 1105.99   59.39
   2  -1   4 1089.39   58.09
   3  -1   4    1.80    1.20
   3  -1   4    0.30    1.10
   3  -1   4    4.30    1.30
   4  -1   4    2.80    2.00
   4  -1   4    3.10    1.40
   4  -1   4    3.80    2.00
   5  -1   4   17.30    3.90
   5  -1   4   20.70    3.50
   5  -1   4   20.50    5.10
   6  -1   4  432.66   26.00
   6  -1   4  459.55   28.00
   6  -1   4  396.96   26.40
   6  -1   4  376.66   29.10
   7  -1   4  130.19   11.20
   7  -1   4  174.68   13.80
   7  -1   4  149.39   14.90
   7  -1   4  139.49   11.20
   8  -1   4    0.80    2.10
   8  -1   4   -1.20    1.60
   8  -1   4   -5.50    2.60
   8  -1   4    4.90    5.00
   8   0  -4    6.60    3.20
   8   0  -4    8.40    4.50
   7   0  -4  165.88   14.40
   6   0  -4   24.10    5.50
   6   0  -4   24.40    5.30
   5   0  -4   74.09    7.80
   5   0  -4   68.79    8.00
  -5   0   4   62.79    5.20
   4   0  -4  160.28   14.10
   4   0  -4  181.18   13.70
   4   0  -4  201.08   13.90
  -4   0   4  179.08   13.90
  -4   0   4  182.28   11.60
  -4   0   4  176.28   13.70
   3   0  -4  167.28   13.70
   3   0  -4  180.88   13.10
   3   0  -4  188.38   13.20
  -3   0   4  195.58   13.40
  -3   0   4  170.38   13.20
  -3   0   4  193.48   11.80
   2   0  -4 1817.22  102.79
   2   0  -4 1918.51  103.59
   2   0  -4 1750.82  102.49
  -2   0   4 1560.14  103.09
  -2   0   4 1946.61  103.19
  -2   0   4 1906.31  101.89
  -2   0   4 1942.41  102.79
   1   0  -4   27.60    3.40
   1   0  -4   28.20    3.00
   1   0  -4   26.10    2.70
  -1   0   4   27.80    2.80
  -1   0   4   24.70    3.50
  -1   0   4   20.10    2.70
   0   0  -4  514.85   26.80
   0   0  -4  420.46   25.40
   0   0  -4  396.56   25.90
   0   0   4  483.85   26.90
   0   0   4  460.85   26.30
  -1   0  -4  194.38   11.70
  -1   0  -4  217.68   13.60
   1   0   4  223.38   13.40
   1   0   4  209.68   12.30
  -2   0  -4  286.17   16.50
  -2   0  -4  251.07   17.80
   2   0   4  289.07   18.00
   2   0   4  283.07   16.30
   2   0   4  294.27   15.80
  -3   0  -4   66.59    5.50
   3   0   4   66.19    6.60
   3   0   4   71.29    5.40
   3   0   4   66.79    4.40
  -4   0  -4  339.77   22.00
   4   0   4  352.66   20.40
   4   0   4  364.06   21.90
   4   0   4  345.57   23.80
  -5   0  -4  113.39    9.50
   5   0   4  115.79    7.90
   5   0   4  112.29    9.70
   5   0   4  108.99   11.00
   5   0   4  111.59    9.40
   6   0   4  106.79    9.40
   6   0   4   96.69    7.60
   6   0   4   96.49    9.40
   6   0   4  104.49   11.20
   7   0   4    3.20    3.90
   7   0   4    4.90    3.40
   7   0   4    4.20    3.10
   7   0   4    6.60    2.30
   8   0   4   29.10    7.60
   8   0   4   32.90    6.60
   8   0   4   19.20    4.80
   8   0   4   20.50    3.70
   7  -1  -4   12.60    4.70
   7  -1  -4   16.20    4.90
   6  -1  -4   61.19    9.80
   6  -1  -4   58.59    8.70
   5  -1  -4  327.07   23.80
   5  -1  -4  349.17   23.70
   4  -1  -4   41.60    7.00
   4  -1  -4   44.30    7.00
   4  -1  -4   40.80    6.30
  -4   1   4   38.50    3.10
  -4   1   4   40.50    6.40
   3  -1  -4   66.29    7.40
   3  -1  -4   66.09    6.80
   3  -1  -4   85.99    7.40
  -3   1   4   77.59    7.20
  -3   1   4   69.39    5.10
   2  -1  -4  221.98   14.50
   2  -1  -4  193.58   13.70
   2  -1  -4  212.48   14.10
  -2   1   4  211.98   14.30
  -2   1   4  173.98   14.10
   1  -1  -4 1595.84   89.39
   1  -1  -4 1534.95   88.99
   1  -1  -4 1790.42   89.69
  -1   1   4 1625.94   89.59
  -1   1   4 1426.36   89.49
   0  -1  -4    7.80    1.90
   0   1   4    6.90    1.70
   0   1   4    7.00    2.00
  -1  -1  -4    3.10    1.40
  -1  -1  -4    2.60    0.80
   1   1   4    5.50    1.70
   1   1   4    2.30    0.90
  -2  -1  -4  338.57   19.40
  -2  -1  -4  279.97   20.50
   2   1   4  351.66   19.20
   2   1   4  358.66   21.20
  -3  -1  -4    1.90    1.20
   3   1   4    1.80    1.90
   3   1   4    2.70    1.30
  -4  -1  -4 1479.65   86.99
   4   1   4 1553.84   88.19
   4   1   4 1669.93   86.79
   4   1   4 1451.05   90.69
  -5  -1  -4   21.20    4.20
  -5  -1  -4   20.40    2.20
   5   1   4   25.60    4.30
   5   1   4   12.40    3.90
   5   1   4   21.80    5.50
  -6  -1  -4    9.70    2.00
   6   1   4    9.20    3.60
   6   1   4    8.20    1.60
   6   1   4    3.80    3.30
   6   1   4    5.50    2.50
  -7  -1  -4   10.80    2.50
   7   1   4    7.90    4.20
   7   1   4    5.40    3.30
   7   1   4    7.90    2.10
   7   1   4    5.90    3.20
   8   1   4   79.79    9.30
   8   1   4   60.49    8.90
   8   1   4   98.79   12.50
   7  -2  -4   14.20    5.50
   7  -2  -4   10.00    4.40
   6  -2  -4   -5.10    2.60
   6  -2  -4    6.00    3.50
   5  -2  -4  684.63   43.40
   5  -2  -4  691.23   44.00
   4  -2  -4   96.79    9.10
   4  -2  -4   74.09    8.60
   4  -2  -4   87.49    8.90
   3  -2  -4    0.40    1.60
   3  -2  -4    1.10    2.10
   3  -2  -4   -0.10    1.20
  -3   2   4    0.00    1.00
  -3   2   4   -1.20    0.90
   2  -2  -4  116.39    9.30
   2  -2  -4  102.49    8.80
   2  -2  -4  113.49    9.20
  -2   2   4  115.49    9.20
  -2   2   4   88.69    8.90
  -2   2   4  113.69    7.90
   1  -2  -4  504.65   28.30
   1  -2  -4  455.75   28.50
  -1   2   4  471.55   28.60
  -1   2   4  429.26   28.30
  -1   2   4  483.95   28.10
   0  -2  -4   41.20    4.00
   0  -2  -4   37.40    4.00
   0   2   4   37.60    4.40
   0   2   4   30.40    3.70
   0   2   4   42.50    4.30
  -1  -2  -4  171.08   11.70
  -1  -2  -4  189.88   12.60
   1   2   4  188.38   13.30
   1   2   4  185.78   11.70
   1   2   4  199.98   12.50
  -2  -2  -4  155.68    9.40
  -2  -2  -4  120.69   10.20
  -2  -2  -4  142.79    8.90
   2   2   4  155.78   10.70
   2   2   4  146.49   11.20
  -3  -2  -4   48.00    3.20
  -3  -2  -4   52.49    4.60
  -3  -2  -4   49.60    3.30
   3   2   4   53.79    5.90
   3   2   4   50.19    4.40
   3   2   4   49.99    5.60
  -4  -2  -4 1045.70   62.59
  -4  -2  -4 1075.49   60.29
   4   2   4 1075.09   64.09
   4   2   4 1188.28   62.29
   4   2   4 1074.39   67.19
  -5  -2  -4  173.48   14.00
  -5  -2  -4  196.68   12.00
   5   2   4  208.38   16.60
   5   2   4  216.28   15.40
   6   2   4   27.90    6.50
   6   2   4   29.10    6.20
   6   2   4   36.70    5.60
  -7  -2  -4    8.70    2.40
   7   2   4    9.10    3.50
   7   2   4    8.90    4.20
   7   2   4    5.20    4.00
  -8  -2  -4   48.50    5.60
   8   2   4   60.69    8.80
   8   2   4   43.70    9.70
   7  -3  -4   53.19    9.90
   7  -3  -4   81.59    9.90
   6  -3  -4   23.00    6.00
   6  -3  -4   22.50    6.70
   5  -3  -4  345.47   24.50
   5  -3  -4  313.67   24.20
   4  -3  -4  294.57   21.20
   4  -3  -4  309.67   21.40
   4  -3  -4  257.37   20.60
   3  -3  -4  492.45   32.50
   3  -3  -4  526.35   32.90
   3  -3  -4  515.15   32.10
  -3   3   4  509.25   32.60
  -3   3   4  499.15   29.80
   2  -3  -4   42.40    5.40
   2  -3  -4   53.69    5.70
  -2   3   4   46.80    4.90
  -2   3   4   37.20    6.00
  -2   3   4   52.79    6.00
   1  -3  -4  132.19   10.50
   1  -3  -4  145.19    9.80
  -1   3   4  124.09   10.00
  -1   3   4  132.99   10.10
  -1   3   4  127.69   10.20
   0  -3  -4   42.80    4.20
   0  -3  -4   39.30    4.60
   0   3   4   37.40    4.80
   0   3   4   40.20    4.30
   0   3   4   40.60    4.50
  -1  -3  -4 1081.69   64.89
  -1  -3  -4 1117.59   65.09
   1   3   4 1222.88   65.19
   1   3   4 1166.88   66.59
  -2  -3  -4    1.50    1.10
  -2  -3  -4    2.00    1.10
  -2  -3  -4    1.50    1.40
   2   3   4    1.90    1.60
   2   3   4    1.00    2.00
  -3  -3  -4   56.19    5.10
   3   3   4   60.99    5.10
   3   3   4   56.39    6.20
   3   3   4   57.99    6.90
  -4  -3  -4   74.69    6.80
  -4  -3  -4   76.09    5.40
   4   3   4   87.09    6.80
   4   3   4   81.69    8.50
   4   3   4   67.79    7.80
  -5  -3  -4    5.40    1.40
  -5  -3  -4    4.60    2.60
   5   3   4    1.50    2.80
   5   3   4    1.00    1.80
   5   3   4    5.00    2.90
  -6  -3  -4   33.00    3.70
   6   3   4   24.20    6.30
   6   3   4   39.30    6.00
  -7  -3  -4    2.00    2.00
   7   3   4    3.40    3.50
   7   3   4    5.60    3.60
  -8  -3  -4   13.60    3.30
   8   3   4    8.90    4.30
   6  -4  -4   41.70    8.30
   6  -4  -4   41.90    8.90
   5  -4  -4   19.20    5.90
   5  -4  -4   22.80    5.80
   4  -4  -4  160.68   14.30
   4  -4  -4  152.08   14.10
  -4   4   4  158.28    9.80
   3  -4  -4   -1.60    1.70
   3  -4  -4    0.00    1.90
  -3   4   4   -1.60    1.70
   2  -4  -4  116.09    9.40
   2  -4  -4  113.69   10.40
  -2   4   4  109.19   10.00
  -2   4   4  103.49    9.00
   1  -4  -4  289.27   19.60
   1  -4  -4  337.97   18.40
  -1   4   4  227.18   18.00
  -1   4   4  269.67   18.90
  -1   4   4  286.17   19.50
   0  -4  -4   25.90    4.80
   0  -4  -4   31.20    3.60
   0  -4  -4   35.20    5.30
   0   4   4   34.00    5.80
   0   4   4   27.70    4.00
  -1  -4  -4 9999.00  523.35
  -1  -4  -4 9378.76  521.75
   1   4   4 9145.68  522.95
  -2  -4  -4 2897.01  163.68
  -2  -4  -4 2897.51  164.08
  -2  -4  -4 2959.60  166.48
   2   4   4 3044.10  164.58
   2   4   4 2998.70  168.48
  -3  -4  -4    8.50    2.40
   3   4   4   13.10    3.30
   3   4   4   15.20    4.50
  -4  -4  -4  132.09   10.60
  -4  -4  -4  137.19    9.20
   4   4   4  132.19   12.60
   4   4   4  154.08   12.50
   4   4   4  148.59   10.70
  -5  -4  -4   18.60    2.90
   5   4   4   12.60    4.00
   5   4   4   19.80    4.20
  -6  -4  -4   49.30    5.10
   6   4   4   61.69    6.70
   6   4   4   45.80    8.70
  -7  -4  -4  101.79    8.50
   7   4   4   90.09   12.10
   7   4   4  115.49   10.90
  -8  -4  -4    5.60    3.40
   8   4   4    8.90    4.70
   8   4   4    9.20    4.00
   6  -5  -4   16.00    5.70
   6  -5  -4   -3.40    2.80
   5  -5  -4   17.50    5.40
   5  -5  -4    2.60    4.90
   4  -5  -4    0.90    2.60
   4  -5  -4   -0.90    2.10
  -4   5   4   -0.60    1.40
   3  -5  -4   -0.70    2.40
  -3   5   4    3.90    2.30
   2  -5  -4   83.39    7.50
   2  -5  -4   90.79    9.30
  -2   5   4   74.59    7.80
   1  -5  -4   90.09    8.70
   1  -5  -4   88.99    7.30
   1  -5  -4   83.69    8.80
  -1   5   4   84.99    7.90
  -1   5   4   89.39    8.80
   0  -5  -4   -1.40    1.70
   0  -5  -4    0.50    1.40
   0   5   4    2.90    2.10
   0   5   4    0.10    2.50
  -1  -5  -4   47.00    7.40
  -1  -5  -4   38.90    5.00
  -1  -5  -4   32.40    4.10
   1   5   4   40.00    6.80
  -2  -5  -4   56.99    6.10
  -2  -5  -4   58.19    8.90
  -2  -5  -4   59.29    5.80
   2   5   4   58.59    8.60
   2   5   4   60.79    6.00
  -3  -5  -4   22.50    4.10
  -3  -5  -4   19.80    5.50
   3   5   4   21.70    4.20
  -4  -5  -4   39.50    7.70
   4   5   4   42.20    5.80
  -5  -5  -4   62.49    5.50
   5   5   4   61.79    8.30
   5   5   4   66.19    6.80
  -6  -5  -4   -0.30    1.60
   6   5   4    1.10    2.80
   6   5   4    4.40    2.90
  -7  -5  -4  106.49    9.30
   7   5   4   94.29   16.70
   7   5   4  138.79   11.70
   5  -6  -4   22.10    6.50
   5  -6  -4   20.10    6.10
  -4   6   4   -5.30    1.70
   3  -6  -4    7.40    3.40
   3  -6  -4   19.10    4.30
  -3   6   4   15.20    3.90
   2  -6  -4  269.07   22.20
   2  -6  -4  323.27   19.90
   1  -6  -4   59.59    7.60
   1  -6  -4   67.99    8.00
   1  -6  -4   78.69    6.50
  -1   6   4   58.19    6.80
  -1   6   4   61.29    7.50
   0  -6  -4    0.50    2.00
   0  -6  -4    1.30    1.40
   0  -6  -4    6.50    3.10
   0   6   4    1.70    2.20
   0   6   4   -0.60    2.60
  -1  -6  -4    6.30    3.50
  -1  -6  -4    1.90    1.40
  -1  -6  -4    1.90    2.10
   1   6   4    0.10    1.80
  -2  -6  -4   28.30    6.30
  -2  -6  -4   28.20    5.30
   2   6   4   39.60    4.70
  -3  -6  -4   57.29    9.50
   3   6   4   52.09    6.10
  -4  -6  -4   32.10    7.40
   4   6   4   30.90    5.80
  -5  -6  -4   13.30    3.00
  -5  -6  -4    7.00    4.80
   5   6   4   12.50    4.10
   6   6   4    1.80    2.90
   6   6   4    1.90    3.40
  -7  -6  -4   19.70    4.20
   7   6   4   15.90    5.10
   7   6   4   12.70    6.00
   4  -7  -4   19.50    6.30
   4  -7  -4   13.30    5.50
  -4   7   4    8.70    3.70
   3  -7  -4   13.60    3.70
   3  -7  -4   21.10    6.20
  -3   7   4    7.90    4.00
   2  -7  -4   57.29    8.80
   2  -7  -4   50.49    9.20
   2  -7  -4   70.89    6.50
   1  -7  -4   44.20    5.00
   1  -7  -4   34.70    7.20
   1  -7  -4   50.39    8.20
   0  -7  -4   24.50    5.40
   0  -7  -4   25.40    3.70
   0  -7  -4   23.80    6.00
   0   7   4   25.90    4.60
  -1  -7  -4    7.90    4.80
  -1  -7  -4   20.60    5.00
   1   7   4   19.10    3.80
  -2  -7  -4    7.60    4.20
  -2  -7  -4    1.20    2.00
   2   7   4    2.70    2.30
  -3  -7  -4    8.10    3.50
  -3  -7  -4    1.40    3.60
   3   7   4    1.60    2.30
  -4  -7  -4   58.49   10.70
   4   7   4   50.49    6.80
  -5  -7  -4    9.10    5.10
   5   7   4    5.30    3.00
   6   7   4    4.60    3.80
   3  -8  -4    2.50    3.90
   2  -8  -4    1.40    2.00
   2  -8  -4    2.40    3.50
   2  -8  -4   -0.40    3.40
   1  -8  -4   15.90    3.20
   1  -8  -4   10.00    4.90
   1  -8  -4   15.20    5.60
   0  -8  -4    5.40    3.30
   0  -8  -4    6.20    4.00
  -1  -8  -4   15.60    5.80
  -1  -8  -4   16.50    5.00
   1   8   4   10.90    3.30
  -2  -8  -4    6.40    3.40
  -2  -8  -4    2.80    4.30
   2   8   4    8.40    2.70
  -3  -8  -4   13.60    5.70
  -3  -8  -4   21.60    5.10
   3   8   4   15.60    3.90
  -4  -8  -4    3.50    4.50
   4   8   4    0.00    2.10
  -5  -8  -4    6.80    5.10
   5   8   4    6.70    3.70
   1  -9  -4    4.90    4.50
   1  -9  -4   -9.70    3.60
   0  -9  -4    8.20    4.30
   0  -9  -4   -0.20    4.00
  -1  -9  -4    1.10    3.90
  -1  -9  -4   16.30    6.20
   1   9   4    7.00    2.90
  -2  -9  -4    6.40    3.90
  -2  -9  -4    2.30    4.80
   2   9   4    7.10    2.90
  -3  -9  -4   -1.00    4.10
  -3  -9  -4    3.80    3.40
   3   9   4   -0.20    2.30
  -4  -9  -4   26.40    8.40
  -4  -9  -4   33.50    7.00
   4   9   4   17.70    4.50
   3   9  -5   -0.60    2.00
  -3  -9   5    3.70    5.50
  -2  -9   5   13.80    7.70
  -1  -9   5   28.00    8.30
   0  -9   5   14.70    5.80
  -5  -8   5   24.10    7.80
   4   8  -5    3.60    3.70
  -4  -8   5    3.40    3.90
   3   8  -5   44.10    5.20
  -3  -8   5   30.50    8.70
  -2  -8   5  147.09   16.50
   0  -8   5   51.19   10.00
   1  -8   5    8.60    5.40
   2  -8   5   21.40    6.60
   2  -8   5   23.40    7.10
   6   7  -5   15.10    4.60
  -6  -7   5    7.50    5.60
   5   7  -5   73.39   11.20
   4   7  -5   37.90    6.50
  -4  -7   5   44.40    9.60
   3   7  -5    2.20    2.50
  -3  -7   5    1.60    3.60
   2   7  -5    4.00    1.70
  -2  -7   5   -6.40    2.90
  -1  -7   5   92.09   11.50
   0  -7   5  168.88   16.10
   1  -7   5   11.80    4.80
   2  -7   5   64.39   10.40
   3  -7   5   -3.30    2.60
   3  -7   5    1.30    3.40
   4  -7   5    4.00    1.70
   4  -7   5    8.50    3.60
   4  -7   5    6.60    4.50
   4  -7   5   -1.60    2.50
   6   6  -5   24.50    5.40
  -6  -6   5   12.30    6.00
   5   6  -5   41.20    6.80
  -5  -6   5   43.50    9.20
   4   6  -5  299.17   22.20
   4   6  -5  335.17   21.80
  -4  -6   5  326.57   25.50
   3   6  -5  325.27   22.00
   3   6  -5  341.27   21.90
  -3  -6   5  329.27   25.50
   2   6  -5  113.49    8.70
  -2  -6   5  116.69   12.40
   1   6  -5  407.46   24.80
  -1  -6   5  378.86   24.90
  -1  -6   5  408.16   28.70
   0  -6   5    1.30    2.80
   0  -6   5   -3.00    1.60
   1  -6   5   18.20    3.60
   1  -6   5   20.00    5.60
   2  -6   5   65.79    5.00
   2  -6   5   66.69    8.60
   3  -6   5   42.80    4.20
   3  -6   5   39.20    7.20
   3  -6   5   45.90    8.10
   4  -6   5   18.70    5.00
   4  -6   5   21.30    4.90
   4  -6   5   28.80    3.90
   4  -6   5   25.90    6.10
   5  -6   5    2.30    3.30
   5  -6   5    1.50    3.80
   5  -6   5    6.60    4.30
   5  -6   5    8.40    2.80
   7   5  -5    5.30    3.60
  -7  -5   5    4.20    4.10
   6   5  -5   20.50    5.10
  -6  -5   5   23.90    6.10
   5   5  -5   20.50    4.60
  -5  -5   5   23.90    6.40
   4   5  -5   31.30    5.20
   4   5  -5   24.70    5.70
  -4  -5   5   31.90    6.90
   3   5  -5  632.64   39.80
   3   5  -5  695.93   39.30
  -3  -5   5  586.34   41.10
  -3  -5   5  704.93   42.70
   2   5  -5   88.19    7.60
  -2  -5   5   81.59    7.60
  -2  -5   5   92.89   10.00
   1   5  -5  120.99    8.10
  -1  -5   5  110.89    8.90
  -1  -5   5  108.19   11.10
   0   5  -5   10.70    1.90
   0  -5   5    9.40    3.60
   0  -5   5    8.20    2.20
   0  -5   5    6.20    2.00
   1  -5   5   45.00    4.40
   1  -5   5   54.49    4.80
   1  -5   5   48.00    7.70
   2  -5   5  745.73   46.30
   2  -5   5  746.63   42.50
   3  -5   5  161.58   14.30
   3  -5   5  171.88   14.40
   3  -5   5  186.98   12.10
   4  -5   5   25.30    5.30
   4  -5   5   17.40    4.70
   4  -5   5   23.10    4.20
   4  -5   5   17.80    4.60
   5  -5   5  137.39   11.10
   5  -5   5  111.59   11.70
   5  -5   5  109.09   10.80
   5  -5   5  113.99   11.40
   6  -5   5   16.00    4.00
   6  -5   5    6.70    3.90
   6  -5   5    6.60    4.40
   6  -5   5   12.40    4.20
   7   4  -5    0.40    2.70
  -7  -4   5    2.50    3.70
   6   4  -5   61.99    7.60
  -6  -4   5   51.79    9.00
   5   4  -5    9.80    3.40
  -5  -4   5   10.60    4.40
   4   4  -5   36.50    5.40
   4   4  -5   33.90    6.60
   4   4  -5   21.10    4.70
  -4  -4   5   36.40    6.80
   3   4  -5   49.00    5.50
   3   4  -5   59.19    6.50
   3   4  -5   53.89    6.70
  -3  -4   5   53.19    5.90
  -3  -4   5   60.59    7.40
   2   4  -5   24.70    4.60
   2   4  -5   27.00    3.30
   2   4  -5   32.50    4.80
  -2  -4   5   18.80    3.60
  -2  -4   5   18.70    3.70
  -2  -4   5   23.60    5.30
   1   4  -5   35.70    3.70
   1   4  -5   28.80    5.10
  -1  -4   5   31.90    3.60
  -1  -4   5   34.80    6.10
   0   4  -5  441.96   27.60
   0   4  -5  440.56   25.20
   0  -4   5  390.86   25.50
   0  -4   5  447.26   25.30
   0  -4   5  417.86   29.70
  -1   4  -5  125.39    9.30
   1  -4   5  149.99    9.50
   2  -4   5  481.45   33.90
   2  -4   5  536.05   30.20
   3  -4   5  793.62   49.20
   3  -4   5  822.42   48.70
   3  -4   5  844.62   47.80
   4  -4   5   44.60    5.60
   4  -4   5   42.50    6.60
   4  -4   5   49.10    6.00
   4  -4   5   47.60    6.00
   5  -4   5  115.19   10.20
   5  -4   5  110.99   10.80
   5  -4   5  112.49   10.90
   5  -4   5  118.49   10.80
   6  -4   5    5.20    3.40
   6  -4   5    8.20    3.90
   6  -4   5    1.50    2.40
   6  -4   5    5.50    3.00
   7   3  -5    1.30    2.20
   7   3  -5    3.60    3.20
  -7  -3   5   -1.80    2.70
   6   3  -5   90.69    9.20
   6   3  -5   92.29    9.60
   6   3  -5   88.29    8.30
  -6  -3   5   87.09    9.70
   5   3  -5   -0.30    2.20
   5   3  -5    9.20    3.10
  -5  -3   5    2.80    2.80
   4   3  -5    1.80    3.00
   4   3  -5    0.60    1.80
  -4  -3   5    2.90    2.00
  -4  -3   5    0.90    2.30
   3   3  -5    9.40    3.20
   3   3  -5    2.30    1.70
   3   3  -5    6.60    2.30
  -3  -3   5    5.90    2.20
  -3  -3   5    3.40    2.40
  -3  -3   5    6.60    2.30
   2   3  -5  392.86   23.40
   2   3  -5  405.66   25.00
   2   3  -5  393.26   24.60
  -2  -3   5  362.86   23.70
  -2  -3   5  392.46   25.40
   1   3  -5  611.34   33.10
   1   3  -5  635.44   33.90
  -1  -3   5  505.85   33.80
  -1  -3   5  520.95   34.20
  -1  -3   5  590.04   33.40
  -1  -3   5  585.94   35.50
   0   3  -5    2.70    1.20
   0  -3   5   -0.70    0.80
   0  -3   5    1.50    1.70
   0  -3   5   -0.90    1.20
  -1   3  -5   36.90    3.80
   1  -3   5   44.80    5.10
   1  -3   5   36.00    3.80
   2  -3   5    5.50    2.30
   2  -3   5    8.00    2.10
   3  -3   5   72.49    6.60
   3  -3   5   70.99    6.80
   3  -3   5   69.19    6.50
   3  -3   5   67.59    6.80
   4  -3   5  109.19    9.60
   4  -3   5  119.59    9.80
   4  -3   5  127.59   10.50
   4  -3   5  109.39    9.70
   5  -3   5  109.49    9.00
   5  -3   5  100.59    9.20
   5  -3   5   88.59    9.90
   5  -3   5   92.99    9.40
   6  -3   5    3.00    2.50
   6  -3   5    4.10    2.70
   6  -3   5    0.20    3.00
   6  -3   5    0.00    2.10
   7  -3   5   57.19    6.10
   7  -3   5   42.40    6.90
   7  -3   5   54.89    8.70
   7  -3   5   43.10    8.50
   7   2  -5   49.99    8.60
   7   2  -5   48.80    7.60
  -7  -2   5   52.19    6.30
   6   2  -5  294.87   21.00
   6   2  -5  287.37   20.30
  -6  -2   5  260.77   19.30
   5   2  -5  104.59    9.50
   5   2  -5   85.49    8.70
  -5  -2   5   90.69    9.00
   4   2  -5  466.75   27.40
   4   2  -5  396.76   28.50
   4   2  -5  432.76   27.20
  -4  -2   5  444.76   27.30
  -4  -2   5  388.16   27.20
   3   2  -5  151.08   10.50
   3   2  -5  130.79   11.40
  -3  -2   5  134.09   10.80
  -3  -2   5  131.39   10.50
  -3  -2   5  140.59   10.80
   2   2  -5  103.19    7.40
   2   2  -5  102.09    7.80
   2   2  -5  102.89    8.60
  -2  -2   5   99.59    8.00
  -2  -2   5   97.29    8.30
  -2  -2   5   77.09    8.20
  -2  -2   5  104.29    7.80
   1   2  -5  945.41   51.69
   1   2  -5  969.40   52.89
  -1  -2   5  883.41   51.99
  -1  -2   5  859.61   53.29
  -1  -2   5  960.20   52.79
  -1  -2   5  914.91   53.59
   0   2  -5 1963.40  102.09
   0  -2   5 1756.72  100.89
   0  -2   5 1849.02  103.39
   0  -2   5 1827.82  102.29
   0  -2   5 1763.62  101.89
  -1   2  -5  151.08   10.80
   1  -2   5  165.98   10.80
   1  -2   5  166.58   11.80
   1  -2   5  157.08    9.40
  -2   2  -5  302.07   21.70
   2  -2   5  389.36   21.90
   2  -2   5  364.76   20.90
   3  -2   5   13.60    3.10
   3  -2   5   17.60    2.90
   3  -2   5   15.10    2.80
   4  -2   5   36.40    4.30
   4  -2   5   39.00    7.30
   4  -2   5   39.60    4.60
   5  -2   5  918.91   59.39
   5  -2   5 1014.50   59.69
   5  -2   5  998.90   56.99
   6  -2   5    8.00    2.50
   6  -2   5    9.30    2.70
   6  -2   5    4.40    3.10
   6  -2   5    5.80    3.00
   7  -2   5   11.50    4.90
   7  -2   5    5.60    2.70
   7  -2   5   11.00    3.90
   7   1  -5   42.20    8.30
   7   1  -5   40.60    6.90
  -7  -1   5   37.00    4.00
   6   1  -5   19.70    5.30
  -6  -1   5   15.50    3.50
   5   1  -5   14.40    4.00
   5   1  -5    8.70    3.60
  -5  -1   5   12.10    3.40
   4   1  -5  415.26   30.50
   4   1  -5  495.95   29.70
   4   1  -5  465.35   29.60
  -4  -1   5  500.15   30.30
  -4  -1   5  441.66   29.90
  -4  -1   5  489.05   28.70
   3   1  -5  561.94   32.40
   3   1  -5  512.85   32.00
   3   1  -5  522.25   33.50
  -3  -1   5  526.55   31.70
  -3  -1   5  518.45   32.20
   2   1  -5 1236.08   66.19
   2   1  -5 1242.58   67.09
   2   1  -5 1179.58   65.69
  -2  -1   5 1157.28   65.99
  -2  -1   5  999.00   66.69
  -2  -1   5 1126.59   65.79
  -2  -1   5 1176.68   66.49
   1   1  -5  437.16   29.00
   1   1  -5  497.65   28.50
   1   1  -5  560.54   30.00
  -1  -1   5  486.75   30.20
  -1  -1   5  502.65   29.60
  -1  -1   5  490.35   28.80
  -1  -1   5  507.65   29.90
   0   1  -5 2275.07  116.99
   0   1  -5 2058.79  115.09
   0  -1   5 1984.30  115.39
   0  -1   5 2045.50  116.39
   0  -1   5 2152.88  117.19
  -1   1  -5  785.82   47.70
   1  -1   5  876.01   47.70
  -2   1  -5  563.94   36.50
   2  -1   5  672.93   36.70
   3  -1   5   40.50    5.00
   3  -1   5   45.90    3.80
   3  -1   5   40.90    3.90
   4  -1   5  256.77   20.10
   4  -1   5  243.68   16.20
   4  -1   5  245.88   15.50
   5  -1   5   75.59    8.90
   5  -1   5   77.49    6.30
   5  -1   5   68.69    7.10
   6  -1   5    0.60    3.20
   6  -1   5    1.80    2.40
   6  -1   5    4.90    2.10
   7  -1   5   28.90    7.20
   7  -1   5   24.70    5.30
   7  -1   5   28.10    4.30
   7  -1   5   22.40    4.70
   7   0  -5   30.30    7.00
   7   0  -5   24.60    6.10
   6   0  -5   33.90    6.60
   6   0  -5   28.80    6.60
   5   0  -5    4.30    3.00
   5   0  -5    6.60    3.20
  -5   0   5    5.80    2.10
   4   0  -5  266.67   17.70
   4   0  -5  228.88   19.70
   4   0  -5  258.07   17.60
  -4   0   5  232.18   17.40
  -4   0   5  243.78   15.40
  -4   0   5  219.88   17.80
   3   0  -5   28.50    4.70
   3   0  -5   25.30    4.40
  -3   0   5   28.80    3.30
  -3   0   5   22.00    4.10
   2   0  -5   43.20    4.70
   2   0  -5   43.30    4.60
   2   0  -5   49.99    5.70
  -2   0   5   44.10    5.80
  -2   0   5   52.19    5.00
  -2   0   5   45.90    5.10
   1   0  -5    0.50    1.50
   1   0  -5    0.20    0.90
   1   0  -5    0.70    0.90
  -1   0   5    0.50    1.80
  -1   0   5   -1.30    0.70
   0   0  -5  459.95   27.40
   0   0  -5  522.25   28.40
   0   0  -5  410.86   26.60
   0   0   5  500.65   28.50
   0   0   5  487.75   27.80
  -1   0  -5  202.48   13.70
   1   0   5  207.08   12.60
   1   0   5  213.08   13.70
  -2   0  -5 1331.27   75.19
  -2   0  -5 1172.78   77.09
   2   0   5 1390.56   75.09
   2   0   5 1449.35   75.09
   2   0   5 1466.35   77.49
   3   0   5  154.68    9.00
   3   0   5  150.88   10.00
   3   0   5  163.88   12.10
  -4   0  -5  123.59    9.40
   4   0   5  124.19    7.70
   4   0   5  129.69    9.30
   4   0   5  135.39   11.40
  -5   0  -5    3.40    2.00
   5   0   5    8.20    2.70
   5   0   5    5.00    2.80
   5   0   5    5.50    1.20
  -6   0  -5   68.09    8.00
   6   0   5   82.89    5.90
   6   0   5   76.79    8.40
   6   0   5   75.79    7.70
   6   0   5   70.99    9.60
   7   0   5   23.10    4.90
   7   0   5   31.50    7.80
   7   0   5   19.90    4.90
   7   0   5   19.00    2.80
   8   0   5   53.19    8.40
   8   0   5   64.49   11.70
   8   0   5   41.30    7.70
   8   0   5   60.29    5.20
   7  -1  -5   77.29    9.70
   7  -1  -5   64.59   10.70
   6  -1  -5  108.49   10.80
   6  -1  -5   85.19   10.20
   5  -1  -5  437.66   30.50
   5  -1  -5  476.65   30.60
   4  -1  -5  366.96   25.10
   4  -1  -5  374.36   25.10
  -4   1   5  376.86   21.90
   3  -1  -5  182.68   13.20
   3  -1  -5  166.58   13.80
  -3   1   5  171.68   13.50
   2  -1  -5    0.50    1.20
   2  -1  -5    2.80    1.80
   2  -1  -5    4.10    2.40
  -2   1   5    2.30    2.00
  -2   1   5    5.20    2.70
   1  -1  -5   67.19    5.90
   1  -1  -5   49.70    4.90
   1  -1  -5   54.19    5.40
  -1   1   5   60.19    6.20
  -1   1   5   65.09    5.80
   0  -1  -5  163.78   10.80
   0  -1  -5  142.19   10.10
   0   1   5  140.29   10.70
   0   1   5  158.48   10.40
  -1  -1  -5  125.69    7.40
  -1  -1  -5  116.49    7.80
  -1  -1  -5  128.89    9.20
   1   1   5  122.79    9.00
   1   1   5  119.29    8.10
  -2  -1  -5  273.67   19.40
  -2  -1  -5  304.37   17.70
   2   1   5  313.97   17.10
   2   1   5  319.97   19.60
  -3  -1  -5  461.05   28.20
   3   1   5  500.55   30.40
   3   1   5  488.65   27.90
  -4  -1  -5    0.40    1.30
   4   1   5   -0.70    1.80
   4   1   5   -0.90    1.20
  -5  -1  -5   38.00    4.80
   5   1   5   43.50    6.90
   5   1   5   47.30    5.00
   5   1   5   40.60    7.30
  -6  -1  -5  269.67   22.00
   6   1   5  269.47   20.40
   6   1   5  318.37   19.80
   6   1   5  273.67   22.70
   7   1   5   31.50    6.30
   7   1   5   24.10    5.00
   7   1   5   18.50    6.40
   8   1   5   10.40    4.00
   8   1   5   13.40    5.90
   7  -2  -5   62.29   10.00
   7  -2  -5   57.79   10.00
   6  -2  -5   -1.20    2.90
   6  -2  -5    3.90    3.70
   5  -2  -5    1.10    2.70
   5  -2  -5    4.30    2.90
   4  -2  -5   53.39    8.00
   4  -2  -5   54.29    8.20
  -4   2   5   52.69    4.40
  -4   2   5   54.09    4.80
   3  -2  -5   34.90    6.20
   3  -2  -5   34.90    5.80
   3  -2  -5   25.70    6.30
  -3   2   5   36.00    5.90
   2  -2  -5   12.50    3.50
   2  -2  -5   14.00    3.10
   2  -2  -5   19.00    4.00
  -2   2   5   16.80    4.10
  -2   2   5   16.00    3.70
   1  -2  -5   43.50    4.90
   1  -2  -5   47.10    4.90
  -1   2   5   43.50    5.30
  -1   2   5   40.70    4.80
   0  -2  -5    6.50    2.00
   0  -2  -5   15.70    2.90
   0   2   5    9.20    2.30
   0   2   5    7.80    2.50
  -1  -2  -5  706.63   43.70
  -1  -2  -5  765.02   44.90
   1   2   5  854.31   45.10
   1   2   5  759.92   43.90
  -2  -2  -5   28.90    3.90
  -2  -2  -5   28.90    3.00
   2   2   5   37.10    5.70
   2   2   5   39.50    4.40
  -3  -2  -5    4.10    1.50
   3   2   5    2.50    1.90
   3   2   5    3.20    1.40
   3   2   5    7.60    2.80
  -4  -2  -5    9.90    2.50
   4   2   5   10.50    4.30
   4   2   5    9.90    2.30
   4   2   5    5.60    2.80
   5   2   5   88.49    7.40
   5   2   5   64.59    8.50
   5   2   5   94.39    9.80
   6   2   5   92.89    8.40
   6   2   5   77.79   10.20
   7   2   5    2.60    2.40
   7   2   5    6.60    4.50
   8   2   5   -5.40    2.90
   8   2   5   -2.10    3.50
   6  -3  -5   17.50    5.50
   5  -3  -5   26.50    6.30
   5  -3  -5   17.40    5.30
   4  -3  -5   88.59    9.90
   4  -3  -5   92.69   10.00
  -4   3   5  107.79    7.10
   3  -3  -5    6.80    3.50
   3  -3  -5    5.30    2.70
   3  -3  -5    6.60    2.90
  -3   3   5    8.10    2.50
   2  -3  -5   92.59    9.00
   2  -3  -5   88.89    8.30
  -2   3   5   79.79    8.30
  -2   3   5   86.89    7.60
  -2   3   5   89.39    8.40
   1  -3  -5  490.05   32.00
   1  -3  -5  610.14   31.80
  -1   3   5  535.85   32.20
  -1   3   5  463.55   31.50
  -1   3   5  488.75   31.60
   0  -3  -5  520.65   29.90
   0  -3  -5  471.15   30.00
   0   3   5  502.65   30.10
   0   3   5  475.75   30.70
   0   3   5  495.45   30.00
  -1  -3  -5 1381.26   77.29
  -1  -3  -5 1312.17   76.69
   1   3   5 1281.67   78.29
   1   3   5 1453.25   77.29
  -2  -3  -5   74.49    7.40
  -2  -3  -5   84.89    6.50
  -2  -3  -5   91.09    6.60
   2   3   5   91.49    7.90
   2   3   5   91.79    8.70
  -3  -3  -5   68.09    5.00
  -3  -3  -5   65.19    5.70
   3   3   5   64.39    7.50
   3   3   5   74.49    7.20
  -4  -3  -5   17.80    1.80
  -4  -3  -5   21.60    2.10
  -4  -3  -5   18.60    3.60
   4   3   5   27.70    5.70
   4   3   5   19.40    3.30
   4   3   5   24.20    5.10
  -5  -3  -5   42.80    3.10
  -5  -3  -5   46.00    6.50
   5   3   5   42.90    5.10
   5   3   5   51.79    7.30
  -6  -3  -5    0.50    0.80
   6   3   5   -2.90    1.40
   6   3   5    0.30    2.60
  -7  -3  -5   -2.40    0.90
   7   3   5    0.00    2.10
   8   3   5   48.60    8.70
   8   3   5   47.60   10.20
   6  -4  -5   65.19   10.90
   6  -4  -5   74.49   12.20
   5  -4  -5   -3.70    2.10
   4  -4  -5   80.89    9.80
   4  -4  -5   71.49   10.90
  -4   4   5   85.09    6.30
   3  -4  -5   36.20    6.90
   3  -4  -5   51.59    6.50
   3  -4  -5   50.09    8.00
  -3   4   5   47.70    5.30
   2  -4  -5  205.78   14.00
   2  -4  -5  196.48   15.00
  -2   4   5  180.98   13.60
  -2   4   5  151.88   13.60
   1  -4  -5  102.89    7.80
  -1   4   5   75.19    7.70
  -1   4   5   75.49    7.90
  -1   4   5   79.29    7.90
   0  -4  -5    2.80    1.70
   0  -4  -5   -0.40    1.70
   0   4   5    5.50    2.40
   0   4   5   -2.20    1.90
  -1  -4  -5  211.18   15.60
  -1  -4  -5  223.68   15.60
   1   4   5  238.48   18.70
   1   4   5  243.78   15.90
  -2  -4  -5 1270.97   72.79
  -2  -4  -5 1244.28   72.29
   2   4   5 1226.58   75.19
   2   4   5 1380.96   73.69
  -3  -4  -5  221.58   13.70
  -3  -4  -5  208.48   14.00
   3   4   5  184.28   16.20
  -4  -4  -5  103.39    9.00
  -4  -4  -5  114.49    8.00
   4   4   5  113.09   10.60
   4   4   5  112.39    9.00
  -5  -4  -5  109.79    9.30
   5   4   5  111.59   11.60
   5   4   5  127.79   10.00
  -6  -4  -5   22.90    4.40
   6   4   5   28.10    7.20
   6   4   5   22.00    4.80
   7   4   5    0.10    2.80
   7   4   5   -1.40    3.10
  -8  -4  -5   -0.60    2.40
   8   4   5    1.80    3.70
   8   4   5   -4.70    2.30
   5  -5  -5   17.60    5.60
   5  -5  -5   13.30    4.90
   4  -5  -5    0.10    2.40
   4  -5  -5    3.40    3.40
  -4   5   5    5.50    2.30
   3  -5  -5  150.68   14.20
   3  -5  -5  165.28   13.10
  -3   5   5  153.38   12.10
   2  -5  -5   27.20    5.90
  -2   5   5   25.90    5.10
  -2   5   5   21.90    5.00
   1  -5  -5    3.40    3.10
   1  -5  -5    6.40    2.40
  -1   5   5    4.70    3.00
  -1   5   5   12.10    3.50
   0  -5  -5   39.90    6.40
   0  -5  -5   49.10    5.10
   0   5   5   35.60    5.30
   0   5   5   42.60    6.80
  -1  -5  -5   78.29    7.40
  -1  -5  -5   61.89    6.40
   1   5   5   66.99    6.60
   1   5   5   62.29    8.00
  -2  -5  -5   70.89    6.50
  -2  -5  -5   61.39    6.70
  -2  -5  -5   72.49    7.10
   2   5   5   83.79    7.40
  -3  -5  -5   -0.20    1.70
  -3  -5  -5    1.50    1.30
   3   5   5    2.90    2.20
  -4  -5  -5   -1.50    1.10
   4   5   5    0.30    2.20
  -5  -5  -5    1.40    1.40
   5   5   5    0.80    2.40
   5   5   5   -3.10    1.90
  -6  -5  -5   82.29    6.80
   6   5   5   86.39   10.70
   6   5   5   85.59    8.80
  -7  -5  -5   -2.60    2.00
   7   5   5    2.70    4.20
   7   5   5   -2.00    2.70
   5  -6  -5   13.30    5.70
   5  -6  -5   17.50    5.80
   4  -6  -5    2.70    3.20
   4  -6  -5    0.70    3.30
  -4   6   5    1.00    2.20
   3  -6  -5    7.80    4.10
   3  -6  -5    7.30    3.80
  -3   6   5    6.70    3.20
   2  -6  -5    6.70    3.90
   2  -6  -5   11.90    3.50
  -2   6   5   10.80    3.80
   1  -6  -5  133.69   12.60
   1  -6  -5  141.89   10.40
  -1   6   5  106.19   10.60
  -1   6   5  127.79   12.10
   0  -6  -5   74.99    8.20
   0  -6  -5   60.29    6.10
   0   6   5   55.89    6.70
  -1  -6  -5   73.89    7.20
  -1  -6  -5   76.59    8.50
  -1  -6  -5   73.49   10.80
   1   6   5   77.69    7.50
  -2  -6  -5   13.20    5.10
  -2  -6  -5   10.00    3.50
   2   6   5   15.30    3.60
  -3  -6  -5    9.30    2.80
  -3  -6  -5    3.00    3.90
   3   6   5    2.90    2.40
  -4  -6  -5    8.40    2.90
   4   6   5    8.70    3.30
  -5  -6  -5   25.50    3.90
   5   6   5   33.60    6.80
  -6  -6  -5    6.40    2.10
   6   6   5    2.20    2.70
   6   6   5    1.20    2.60
  -7  -6  -5   -1.00    3.00
   7   6   5    9.80    5.10
   7   6   5    6.90    4.00
   4  -7  -5   -0.40    3.30
   4  -7  -5   -1.80    3.70
   3  -7  -5   16.30    5.50
  -3   7   5    9.60    4.60
   2  -7  -5    4.30    2.50
   2  -7  -5    0.80    3.30
   1  -7  -5   22.90    6.00
   1  -7  -5   24.50    4.10
  -1   7   5   11.60    4.30
   0  -7  -5    7.30    4.20
   0  -7  -5   -0.40    1.80
   0  -7  -5   -1.90    2.20
   0   7   5    0.30    2.50
  -1  -7  -5   40.80    8.10
  -1  -7  -5   34.70    4.70
  -1  -7  -5   35.80    6.80
   1   7   5   40.00    5.50
  -2  -7  -5   -2.40    2.80
  -2  -7  -5   -0.30    2.30
  -3  -7  -5   31.50    6.20
  -3  -7  -5   33.10    7.80
   3   7   5   34.40    5.80
  -4  -7  -5    8.40    3.10
  -4  -7  -5    7.00    5.20
   4   7   5    5.70    3.30
   5   7   5    2.90    3.50
  -6  -7  -5   -0.70    2.60
   6   7   5   -2.80    2.70
   2  -8  -5    8.60    4.30
   2  -8  -5    4.70    2.50
   1  -8  -5   11.80    3.00
   1  -8  -5   14.10    5.80
   0  -8  -5   25.70    6.80
   0  -8  -5   20.10    3.90
   0  -8  -5   15.10    5.30
   0   8   5   13.90    4.20
  -1  -8  -5   -1.60    2.60
  -1  -8  -5   -0.60    3.50
   1   8   5    0.80    2.50
  -2  -8  -5   16.90    6.30
  -2  -8  -5   18.70    4.80
   2   8   5   11.90    3.80
  -3  -8  -5    3.50    2.90
   3   8   5    6.20    3.10
  -4  -8  -5    4.30    3.20
  -4  -8  -5    8.80    5.10
   4   8   5    5.20    3.50
  -5  -8  -5    3.40    3.10
   5   8   5    3.40    3.00
   0  -9  -5    9.00    5.50
  -1  -9  -5   -1.80    3.40
  -1  -9  -5   -0.80    4.60
   1   9   5   -4.60    2.50
  -2  -9  -5   -4.00    2.60
  -2  -9  -5    3.70    4.60
   2   9   5   -0.60    4.40
  -3  -9  -5   13.10    6.50
  -3  -9  -5   12.70    5.30
   3   9   5    8.40    3.60
  -4  -9  -5    1.90    3.40
   4   9   5    2.70    3.20
   4   8  -6   16.80    5.30
  -4  -8   6   24.40    8.10
   3   8  -6   26.30    4.30
  -3  -8   6   35.70    8.90
  -2  -8   6    1.80    4.40
  -1  -8   6    6.20    4.80
   0  -8   6    2.40    4.30
   1  -8   6   10.20    5.60
   2  -8   6    2.50    3.90
   5   7  -6   26.80    5.90
  -5  -7   6   44.10    9.60
   3   7  -6   90.19    8.40
  -3  -7   6   92.79   14.10
   2   7  -6   49.00    4.80
  -2  -7   6   50.39    9.70
   1   7  -6   13.40    2.20
  -1  -7   6   17.90    5.90
   0  -7   6   -1.00    3.40
   1  -7   6   13.00    4.30
   2  -7   6  131.49   13.80
   3  -7   6    1.00    2.30
   3  -7   6    4.90    3.40
   3  -7   6    0.80    2.80
   6   6  -6   -1.20    2.30
  -6  -6   6   -2.60    3.70
   5   6  -6    5.50    3.70
  -5  -6   6    2.40    4.00
   4   6  -6   19.80    4.70
  -4  -6   6    9.90    5.20
  -3  -6   6   32.20    7.60
   2   6  -6  194.08   13.40
  -2  -6   6  189.78   17.20
   1   6  -6  296.57   17.60
  -1  -6   6  276.37   18.80
  -1  -6   6  270.37   22.20
   0  -6   6  131.19   10.10
   0  -6   6  142.49   13.70
   1  -6   6   79.09    6.50
   1  -6   6   90.49    7.50
   1  -6   6   90.39   10.90
   2  -6   6   24.90    3.40
   2  -6   6   19.10    5.70
   3  -6   6   87.89   10.00
   3  -6   6   93.89   10.70
   3  -6   6   94.09    7.30
   4  -6   6   -1.00    2.30
   4  -6   6    1.20    2.70
   4  -6   6   -2.70    2.40
   4  -6   6    2.00    1.90
   5  -6   6   42.70    7.40
   5  -6   6   35.50    7.50
   5  -6   6   41.20    5.50
   5  -6   6   37.90    7.80
  -6  -5   6   19.70    6.30
   5   5  -6    2.40    2.60
  -5  -5   6    8.00    4.20
   4   5  -6   40.30    6.00
  -4  -5   6   30.90    7.30
   3   5  -6   76.69    8.70
   3   5  -6  102.39    8.40
  -3  -5   6  104.39   11.30
   2   5  -6   83.39    7.60
  -2  -5   6   73.99    9.50
  -2  -5   6   79.59    7.40
   1   5  -6  885.01   48.60
  -1  -5   6  795.22   49.00
  -1  -5   6  861.01   52.69
   0   5  -6    0.20    1.10
   0  -5   6    1.80    2.10
   0  -5   6    0.40    1.70
   0  -5   6    2.10    2.60
   1  -5   6    2.80    2.00
   1  -5   6    7.30    2.50
   1  -5   6    0.90    2.60
   2  -5   6  141.59    9.80
   2  -5   6  127.29   12.20
   3  -5   6    5.10    2.10
   3  -5   6   11.30    3.80
   4  -5   6   39.20    5.30
   4  -5   6   43.90    6.90
   4  -5   6   44.90    7.30
   4  -5   6   45.10    7.30
   5  -5   6   12.10    4.40
   5  -5   6   13.10    3.90
   5  -5   6    0.80    3.20
   5  -5   6   15.30    4.10
   7   4  -6   37.00    7.60
  -7  -4   6   30.10    7.40
   6   4  -6   16.30    4.70
  -6  -4   6   16.90    5.40
   5   4  -6   -0.90    2.10
  -5  -4   6    0.00    3.10
   4   4  -6   -0.80    1.60
  -4  -4   6   -2.60    1.90
   3   4  -6   40.80    6.70
   3   4  -6   38.60    5.40
  -3  -4   6   31.50    5.10
  -3  -4   6   40.30    7.30
   2   4  -6  362.76   25.80
   2   4  -6  370.06   22.30
   2   4  -6  380.06   23.40
  -2  -4   6  335.27   22.70
  -2  -4   6  367.06   25.20
   1   4  -6   98.49    7.30
  -1  -4   6   73.59    7.80
  -1  -4   6   81.09    7.60
  -1  -4   6   99.89    7.30
  -1  -4   6   94.89    9.30
   0   4  -6    2.10    1.20
   0  -4   6    0.70    2.10
   0  -4   6    0.50    1.20
   0  -4   6   -1.40    1.80
  -1   4  -6   16.90    3.10
   1  -4   6   16.70    3.20
   1  -4   6   13.40    3.80
   1  -4   6   18.20    2.80
   2  -4   6  185.28   12.60
   2  -4   6  190.78   14.90
   3  -4   6  234.38   15.20
   3  -4   6  210.08   16.50
   3  -4   6  211.88   15.40
   4  -4   6   12.00    3.70
   4  -4   6    6.40    3.00
   4  -4   6    4.20    2.70
   4  -4   6    9.70    3.40
   5  -4   6    4.30    2.70
   5  -4   6    6.30    2.90
   5  -4   6    1.70    2.70
   5  -4   6    6.40    2.90
   6  -4   6   23.30    5.20
   6  -4   6   19.70    5.40
   6  -4   6   26.30    5.40
   6  -4   6   25.70    5.60
   7   3  -6   20.90    5.40
  -7  -3   6    4.40    3.90
   6   3  -6    1.20    2.50
   6   3  -6    0.90    2.70
  -6  -3   6   -1.00    3.00
   5   3  -6   36.50    6.00
  -5  -3   6   32.40    6.20
   4   3  -6   69.69    7.00
  -4  -3   6   73.99    8.30
   3   3  -6    5.80    2.10
   3   3  -6    6.90    3.20
  -3  -3   6   11.40    4.40
  -3  -3   6    8.00    2.90
   2   3  -6   18.00    4.00
   2   3  -6   13.50    2.70
  -2  -3   6   14.60    3.10
  -2  -3   6   13.40    3.00
   1   3  -6    2.80    1.70
   1   3  -6    3.20    1.30
  -1  -3   6    2.50    2.10
  -1  -3   6    3.30    2.40
  -1  -3   6    1.10    1.30
   0   3  -6  314.17   19.30
   0  -3   6  311.77   18.40
   0  -3   6  320.47   19.70
   0  -3   6  301.27   21.10
   0  -3   6  297.87   19.80
  -1   3  -6   35.70    4.10
   1  -3   6   43.30    4.50
   1  -3   6   39.10    4.30
  -2   3  -6   86.09    8.10
   2  -3   6  115.29    9.60
   2  -3   6  112.39    8.20
   3  -3   6   74.59    7.70
   3  -3   6   70.79    6.50
   3  -3   6   71.99    7.00
   4  -3   6  183.08   14.40
   4  -3   6  187.48   14.00
   4  -3   6  192.68   13.80
   4  -3   6  200.58   14.70
   5  -3   6    0.60    2.20
   5  -3   6    4.10    2.90
   5  -3   6    3.30    2.40
   5  -3   6    1.60    2.40
   6  -3   6    5.20    2.60
   6  -3   6    3.30    2.20
   6  -3   6   -0.10    2.30
   6  -3   6    6.50    2.90
   7  -3   6    3.60    2.60
   7  -3   6   -1.30    2.40
   7  -3   6    0.70    2.20
   7  -3   6   -5.00    3.20
   7   2  -6   -1.40    2.30
   7   2  -6    2.00    2.50
  -7  -2   6    4.20    3.00
   6   2  -6    0.80    2.10
   6   2  -6    5.30    2.90
  -6  -2   6    3.00    2.70
   5   2  -6  249.68   18.10
   5   2  -6  251.47   18.20
  -5  -2   6  244.38   17.80
   4   2  -6  241.88   16.40
   4   2  -6  217.08   16.10
  -4  -2   6  215.18   16.40
  -4  -2   6  230.88   16.50
   3   2  -6   21.10    3.90
   3   2  -6   17.00    3.60
   3   2  -6   18.40    4.80
  -3  -2   6   14.80    3.30
  -3  -2   6   16.40    3.80
  -3  -2   6   24.10    4.60
   2   2  -6  541.65   31.50
   2   2  -6  511.95   29.80
   2   2  -6  510.65   30.60
  -2  -2   6  450.95   31.50
  -2  -2   6  514.85   31.30
  -2  -2   6  491.95   30.20
   1   2  -6  364.46   20.60
   1   2  -6  372.06   22.10
  -1  -2   6  331.17   22.60
  -1  -2   6  337.37   21.80
  -1  -2   6  338.67   20.90
  -1  -2   6  356.66   22.80
   0   2  -6  202.18   13.30
   0  -2   6  185.88   14.10
   0  -2   6  192.98   11.90
   0  -2   6  210.68   13.90
   0  -2   6  202.38   13.10
  -1   2  -6  512.65   31.50
   1  -2   6  522.85   30.80
   1  -2   6  530.85   29.40
   1  -2   6  520.05   32.30
   1  -2   6  542.25   31.40
  -2   2  -6   79.79    7.40
   2  -2   6   99.29    7.50
   2  -2   6   86.39    6.10
   3  -2   6    0.10    1.00
   3  -2   6    2.60    1.60
   4  -2   6  110.79    9.80
   4  -2   6   93.59    8.10
   4  -2   6  105.69    8.30
   5  -2   6  154.48   13.50
   5  -2   6  143.39   11.50
   5  -2   6  138.59   10.80
   6  -2   6   16.70    5.40
   6  -2   6   18.10    4.00
   6  -2   6   17.00    3.90
   6  -2   6   15.70    3.60
   7  -2   6   19.10    4.00
   7  -2   6   25.80    7.70
   7  -2   6   24.90    4.70
   7  -2   6   15.50    4.80
   7   1  -6   10.60    4.20
   7   1  -6   11.00    4.40
  -7  -1   6    8.20    2.60
   6   1  -6    1.90    2.40
   6   1  -6   -2.10    2.10
  -6  -1   6   -0.90    2.10
   5   1  -6  406.26   27.00
   5   1  -6  405.66   27.30
  -5  -1   6  403.56   25.60
   4   1  -6   49.20    5.80
   4   1  -6   49.00    5.80
  -4  -1   6   45.00    5.40
  -4  -1   6   48.80    7.10
   3   1  -6  398.96   23.80
   3   1  -6  351.16   24.60
   3   1  -6  365.36   23.20
  -3  -1   6  349.87   23.10
  -3  -1   6  345.37   24.00
  -3  -1   6  385.66   23.80
   2   1  -6   39.90    4.10
   2   1  -6   46.40    5.40
   2   1  -6   37.20    4.40
  -2  -1   6   37.80    4.80
  -2  -1   6   39.60    4.50
  -2  -1   6   39.90    4.40
  -2  -1   6   40.20    5.70
   1   1  -6  731.93   43.00
   1   1  -6  751.22   44.00
   1   1  -6  827.02   44.80
  -1  -1   6  777.32   44.40
  -1  -1   6  728.93   45.10
  -1  -1   6  748.53   44.10
   0   1  -6  470.95   26.10
   0   1  -6  494.35   28.30
   0  -1   6  485.85   28.70
   0  -1   6  442.16   27.70
   0  -1   6  450.85   26.30
  -1   1  -6  564.84   34.10
   1  -1   6  587.84   34.00
   1  -1   6  561.94   32.90
  -2   1  -6  103.49    9.50
   2  -1   6  126.19    7.40
   2  -1   6  141.29    9.90
   2  -1   6  141.09    9.00
   3  -1   6  202.28   14.30
   3  -1   6  188.98   12.10
   4  -1   6   67.59    5.80
   4  -1   6   68.89    7.80
   4  -1   6   65.79    5.30
   5  -1   6   63.69    8.20
   5  -1   6   53.39    5.10
   5  -1   6   70.39    6.40
   6  -1   6  113.29   12.60
   6  -1   6  127.29   10.40
   6  -1   6  113.79    8.40
   7  -1   6    3.30    1.70
   7  -1   6    2.50    2.40
   7  -1   6   10.20    5.30
   7   0  -6   84.49   10.40
   7   0  -6   75.79    9.40
   6   0  -6   50.59    8.60
   6   0  -6   58.29    8.70
  -6   0   6   55.69    4.90
   5   0  -6  448.16   28.50
   5   0  -6  406.46   28.30
  -5   0   6  409.16   25.40
   4   0  -6   73.59    7.50
   4   0  -6   58.39    6.80
  -4   0   6   62.09    5.90
  -4   0   6   55.99    6.90
   3   0  -6  481.55   30.30
   3   0  -6  503.85   29.50
   3   0  -6  429.76   28.60
  -3   0   6  444.06   29.00
  -3   0   6  453.05   27.90
  -3   0   6  466.15   29.80
   2   0  -6  118.89    9.30
   2   0  -6  104.79    8.50
   2   0  -6  122.89   10.00
  -2   0   6  114.19    9.40
  -2   0   6   94.19    9.80
  -2   0   6  124.59    9.10
   1   0  -6  149.99   10.40
   1   0  -6  119.59    8.80
   1   0  -6  133.39    9.60
  -1   0   6  127.49    9.80
  -1   0   6  120.79   10.50
   0   0  -6   42.90    4.20
   0   0  -6   30.10    3.30
   0   0   6   27.00    3.90
   0   0   6   29.30    4.70
  -1   0  -6  587.74   36.00
   1   0   6  632.24   36.00
   1   0   6  595.74   34.80
  -2   0  -6  637.84   41.60
   2   0   6  709.93   39.40
   2   0   6  754.52   41.70
  -3   0  -6   51.39    4.40
   3   0   6   52.59    6.00
   3   0   6   56.59    3.60
   3   0   6   58.69    3.50
   3   0   6   57.79    4.30
  -4   0  -6  284.77   18.90
   4   0   6  310.77   21.50
   4   0   6  316.17   18.70
  -5   0  -6  266.37   18.70
   5   0   6  287.87   18.50
   5   0   6  297.57   21.80
  -6   0  -6   19.10    4.50
   6   0   6   16.90    4.60
   6   0   6   13.40    4.10
   6   0   6   15.60    5.60
   7   0   6   27.60   10.70
   7   0   6   24.40    5.00
   7  -1  -6   84.29    9.90
   7  -1  -6   67.49   11.00
   6  -1  -6   11.80    4.70
   6  -1  -6   12.80    4.80
   5  -1  -6    0.60    2.60
   5  -1  -6    2.30    2.80
  -5   1   6    0.80    1.30
   4  -1  -6  698.83   43.80
   4  -1  -6  718.53   44.00
  -4   1   6  711.93   40.90
   3  -1  -6   53.19    6.20
   3  -1  -6   56.59    6.50
   3  -1  -6   56.79    7.10
  -3   1   6   71.49    7.40
   2  -1  -6  891.31   47.90
   2  -1  -6  795.42   45.40
   2  -1  -6  713.93   44.60
  -2   1   6  769.02   45.70
  -2   1   6  654.43   45.60
   1  -1  -6 1730.53  102.99
   1  -1  -6 2071.29  103.89
   1  -1  -6 1772.22  102.49
  -1   1   6 1754.02  103.89
  -1   1   6 1846.92  103.59
   0  -1  -6   27.40    3.00
   0  -1  -6   30.10    3.50
   0  -1  -6   41.50    4.30
   0   1   6   34.30    3.80
   0   1   6   32.10    4.40
  -1  -1  -6  108.69    6.70
  -1  -1  -6  103.09    7.40
  -1  -1  -6  109.69    8.80
   1   1   6  112.39    8.70
   1   1   6  115.19    7.80
  -2  -1  -6   91.49    6.20
  -2  -1  -6   91.19    8.20
   2   1   6   93.99    6.10
   2   1   6  109.49    8.40
  -3  -1  -6  158.78   14.00
  -3  -1  -6  185.68   12.50
   3   1   6  221.68   16.50
   3   1   6  220.78   12.20
  -4  -1  -6   61.59    6.00
   4   1   6   76.29    5.90
   4   1   6   80.09    8.30
  -5  -1  -6   47.80    5.70
   5   1   6   62.49    8.10
   5   1   6   53.59    7.90
   5   1   6   57.29    5.50
  -6  -1  -6  167.48   14.90
   6   1   6  223.48   15.00
   6   1   6  228.78   18.70
   7   1   6   57.99    8.00
   8   1   6   55.89   11.40
   8   1   6   67.79    8.20
   7  -2  -6    1.80    3.70
   7  -2  -6    4.70    3.40
   5  -2  -6   -2.50    1.80
   5  -2  -6   -4.00    2.20
   4  -2  -6  119.29   10.80
   4  -2  -6  104.29   10.40
  -4   2   6   99.09    7.30
   3  -2  -6   40.40    6.40
   3  -2  -6   41.20    6.60
   3  -2  -6   46.00    7.20
   2  -2  -6  254.67   19.70
   2  -2  -6  252.27   17.40
   2  -2  -6  276.17   18.20
  -2   2   6  237.38   18.30
  -2   2   6  243.48   17.90
   1  -2  -6  298.77   20.20
   1  -2  -6  349.37   20.60
  -1   2   6  310.37   20.40
  -1   2   6  276.07   20.50
   0  -2  -6   27.00    4.40
   0  -2  -6   28.40    4.20
   0   2   6   30.20    4.50
   0   2   6   27.20    4.70
  -1  -2  -6   88.19    6.90
  -1  -2  -6   91.49    8.00
   1   2   6  102.79    8.20
   1   2   6   90.89    7.00
  -2  -2  -6   18.60    2.10
  -2  -2  -6   29.30    4.80
  -2  -2  -6   22.20    2.40
   2   2   6   21.10    4.00
  -3  -2  -6  107.79    8.00
  -3  -2  -6   93.49    9.30
   3   2   6  106.59   10.10
   3   2   6  121.29    7.80
   3   2   6  123.19   10.00
  -4  -2  -6  255.67   17.30
   4   2   6  264.37   19.90
   4   2   6  278.47   16.80
   4   2   6  266.57   19.70
  -5  -2  -6    9.50    2.90
   5   2   6    8.50    3.60
   5   2   6    8.40    2.60
   6   2   6   15.30    5.30
   6   2   6   18.60    3.90
   7   2   6   32.20    7.90
   7   2   6   27.70    5.40
   8   2   6   23.70    7.80
   8   2   6   25.60    5.70
   6  -3  -6   60.89   10.50
   6  -3  -6   81.39    9.80
   5  -3  -6   18.50    5.40
   5  -3  -6   17.10    5.30
   4  -3  -6   92.09   10.10
   4  -3  -6   89.29    9.70
   3  -3  -6  109.49   10.10
   3  -3  -6   99.09    9.90
  -3   3   6   87.89    8.10
   2  -3  -6   17.60    4.20
   2  -3  -6   11.60    4.00
   2  -3  -6   12.90    3.80
  -2   3   6   16.20    3.70
  -2   3   6   17.60    3.60
  -2   3   6   11.00    4.00
   1  -3  -6  230.58   16.20
   1  -3  -6  251.27   15.90
  -1   3   6  211.88   15.70
  -1   3   6  224.08   16.00
  -1   3   6  194.88   15.80
   0  -3  -6  301.17   20.40
   0  -3  -6  339.57   20.70
   0   3   6  305.27   20.40
   0   3   6  304.87   20.60
   0   3   6  317.47   21.40
  -1  -3  -6  224.98   15.70
  -1  -3  -6  246.68   16.60
   1   3   6  242.18   15.80
   1   3   6  229.18   17.40
   1   3   6  261.77   16.80
  -2  -3  -6  128.09    9.20
  -2  -3  -6  136.39    9.40
  -2  -3  -6  123.29   11.90
   2   3   6  145.49   12.00
   2   3   6  151.08   11.20
  -3  -3  -6    1.40    1.70
  -3  -3  -6    4.30    1.10
  -3  -3  -6    3.30    1.70
   3   3   6    4.20    3.00
   3   3   6    2.00    2.30
  -4  -3  -6   47.10    5.20
   4   3   6   55.19    5.10
   4   3   6   49.40    6.90
  -5  -3  -6  231.48   17.40
   5   3   6  273.67   17.30
   5   3   6  267.67   20.70
   6   3   6    3.10    2.30
   6   3   6    2.40    3.00
   7   3   6    7.20    4.40
   7   3   6    1.80    3.30
   8   3   6   22.40    5.60
   8   3   6   35.80    8.80
   6  -4  -6    5.40    4.20
   6  -4  -6    4.90    4.10
   5  -4  -6   31.30    8.50
   4  -4  -6  254.37   21.50
   4  -4  -6  269.17   21.50
  -4   4   6  299.37   18.00
   3  -4  -6    3.20    2.50
   3  -4  -6    2.00    2.90
  -3   4   6   -1.90    2.30
   2  -4  -6   19.00    4.30
   2  -4  -6   13.60    4.20
  -2   4   6   12.50    4.30
  -2   4   6   14.00    3.90
   1  -4  -6    7.20    2.90
  -1   4   6    3.50    2.50
  -1   4   6    0.10    2.30
  -1   4   6    2.70    2.70
   0  -4  -6  170.98   13.00
   0  -4  -6  171.78   12.60
   0   4   6  160.08   12.70
   0   4   6  176.38   13.00
  -1  -4  -6   85.29    7.80
  -1  -4  -6   87.99    8.00
   1   4   6   98.59    8.60
   1   4   6   84.59    9.10
  -2  -4  -6    2.40    1.80
  -2  -4  -6    4.10    2.50
  -2  -4  -6    1.70    1.50
   2   4   6   -3.40    2.50
  -3  -4  -6    0.70    1.00
  -3  -4  -6   -0.60    1.40
   3   4   6    2.20    2.10
  -4  -4  -6    1.90    1.10
  -4  -4  -6    4.00    2.20
   4   4   6    6.90    3.20
  -5  -4  -6  328.27   20.40
   5   4   6  385.26   26.50
   5   4   6  384.06   23.30
   6   4   6   -0.90    2.20
   7   4   6    8.40    4.80
   7   4   6    3.70    3.10
   5  -5  -6   11.50    5.20
   5  -5  -6   32.20    7.20
   4  -5  -6  171.68   16.80
   4  -5  -6  173.28   16.80
  -4   5   6  212.28   13.50
   3  -5  -6   -0.90    2.20
   3  -5  -6   -0.40    2.40
  -3   5   6    1.10    2.70
   2  -5  -6  166.78   14.80
   2  -5  -6  190.68   13.60
  -2   5   6  140.59   13.50
  -2   5   6  184.08   14.10
   1  -5  -6   27.10    4.70
   1  -5  -6   21.90    5.40
  -1   5   6   22.20    5.10
   0  -5  -6    5.30    2.50
   0   5   6    0.50    2.40
   0   5   6   -2.60    2.70
  -1  -5  -6   40.40    5.90
  -1  -5  -6   27.40    5.00
   1   5   6   33.70    5.60
  -2  -5  -6  170.68   12.10
  -2  -5  -6  136.59   12.60
  -2  -5  -6  177.78   12.90
   2   5   6  193.18   13.50
  -3  -5  -6    8.20    2.90
  -3  -5  -6    8.60    2.70
   3   5   6    7.60    3.20
  -4  -5  -6   40.90    4.50
   4   5   6   50.69    6.70
  -5  -5  -6    4.90    1.50
  -5  -5  -6    0.90    1.30
   5   5   6    4.30    3.10
  -6  -5  -6    0.60    1.30
   6   5   6    2.00    3.10
   6   5   6    3.70    2.50
  -7  -5  -6    3.30    1.20
   7   5   6    3.40    3.50
   7   5   6    7.30    4.30
   4  -6  -6   12.60    5.30
   4  -6  -6    7.70    4.50
  -4   6   6   10.10    3.60
   3  -6  -6   19.30    5.80
   2  -6  -6   -2.20    2.70
  -2   6   6   -2.00    3.00
  -2   6   6    1.90    2.90
   1  -6  -6  124.29   10.00
   1  -6  -6  109.49   11.40
  -1   6   6   91.69   10.10
  -1  -6  -6  178.58   14.40
  -1  -6  -6  206.98   15.80
   1   6   6  208.48   15.20
  -2  -6  -6 1740.83  105.89
   2   6   6 1962.30  105.79
   3   6   6  207.18   15.80
  -4  -6  -6   20.50    3.80
   4   6   6   14.00    4.70
  -5  -6  -6    5.80    2.10
  -5  -6  -6    7.00    2.80
   5   6   6    8.80    4.20
  -6  -6  -6    0.40    1.80
  -6  -6  -6    2.90    2.00
   6   6   6    4.40    4.10
  -7  -6  -6   27.50    4.10
  -7  -6  -6   36.00    4.10
   7   6   6   39.30    9.00
   7   6   6   31.30    6.40
   3  -7  -6    1.40    3.10
  -3   7   6    2.10    4.80
   1  -7  -6    4.90    3.30
   1  -7  -6    3.20    2.60
  -1   7   6   -0.10    2.90
   0  -7  -6   12.20    3.50
   0  -7  -6   12.80    4.50
   0   7   6   10.80    4.20
  -1  -7  -6   -0.30    2.50
  -1  -7  -6   -0.20    2.40
   1   7   6    3.00    2.70
  -2  -7  -6   -3.90    2.30
   2   7   6    3.80    2.90
  -3  -7  -6   38.90    6.40
   3   7   6   36.10    6.30
  -4  -7  -6    3.50    2.40
   4   7   6   -3.50    1.90
  -5  -7  -6    2.20    2.50
   5   7   6   -0.30    2.50
  -6  -7  -6   16.90    3.90
   6   7   6   18.40    6.10
   2  -8  -6    0.50    3.40
   1  -8  -6   55.69    9.70
   1  -8  -6   61.09    6.80
  -1   8   6   43.90    7.50
   0  -8  -6    0.50    3.10
   0  -8  -6   -0.40    2.50
   0   8   6    1.00    2.90
  -1  -8  -6   -0.30    2.50
  -1  -8  -6    5.60    3.60
   1   8   6   -1.50    2.70
  -2  -8  -6   -1.00    3.00
   2   8   6    2.50    3.10
  -3  -8  -6   -1.00    2.50
   3   8   6    2.70    2.90
  -4  -8  -6   14.90    4.50
   4   8   6   17.60    4.60
  -5  -8  -6   -1.10    2.80
   5   8   6   -2.50    2.60
   0  -9  -6    4.00    2.70
   0  -9  -6    0.00    3.30
   0   9   6    0.40    3.20
  -1  -9  -6    1.60    3.40
   1   9   6    0.20    3.00
  -2  -9  -6    0.40    3.00
   2   9   6    6.20    3.50
  -3  -9  -6    5.20    3.30
   3   9   6   -4.10    2.80
   3   8  -7   -5.10    2.70
  -3  -8   7   -4.90    4.20
   2   8  -7   15.60    2.80
  -2  -8   7   19.40    6.90
  -1  -8   7   -1.40    4.00
   0  -8   7   -2.70    4.20
   1  -8   7   10.50    5.20
   5   7  -7   36.50    6.40
  -5  -7   7   31.70    8.60
   3   7  -7   32.70    5.40
  -3  -7   7   14.90    6.90
   2   7  -7   25.90    3.90
   1   7  -7    2.60    1.70
  -1  -7   7    6.50    4.40
   0  -7   7  135.59   14.50
   1  -7   7   10.50    4.70
   2  -7   7    4.50    3.90
   3  -7   7    3.60    3.70
   3  -7   7    5.70    2.00
   5   6  -7   90.09    9.30
  -5  -6   7   76.29   12.60
   4   6  -7   13.30    3.70
  -4  -6   7   11.50    5.00
   3   6  -7    3.30    2.90
  -3  -6   7    6.80    4.10
   2   6  -7  284.67   18.30
  -2  -6   7  257.17   22.10
   1   6  -7  212.38   14.00
  -1  -6   7  199.08   14.60
  -1  -6   7  219.08   18.60
   0   6  -7   62.89    5.80
   0  -6   7   68.39    6.60
   0  -6   7   76.49   11.20
   1  -6   7   95.69    7.50
   1  -6   7  104.29   11.30
   1  -6   7   80.29    7.30
   2  -6   7   10.20    4.20
   2  -6   7    7.80    2.70
   2  -6   7    7.50    2.80
   3  -6   7   40.20    8.10
   3  -6   7   39.10    4.70
   4  -6   7   38.80    4.60
   4  -6   7   37.70    6.30
   4  -6   7   19.90    5.70
   4  -6   7   24.20    5.80
   6   5  -7    9.10    3.90
  -6  -5   7    1.70    4.50
   5   5  -7  126.99   11.50
  -5  -5   7  131.59   14.00
   4   5  -7   13.40    3.60
  -4  -5   7   18.30    5.40
   3   5  -7  192.88   13.50
   3   5  -7  176.58   14.30
  -3  -5   7  179.48   16.40
   2   5  -7   23.00    4.10
  -2  -5   7   15.80    5.20
  -2  -5   7   10.90    3.30
   1   5  -7  102.49    8.10
  -1  -5   7  105.99   11.00
  -1  -5   7   98.89    8.30
   0   5  -7   60.69    6.00
   0  -5   7   75.59    6.20
   0  -5   7   63.39    6.80
   0  -5   7   78.19    9.20
  -1   5  -7  359.16   24.00
   1  -5   7  416.96   27.80
   1  -5   7  397.16   23.60
   1  -5   7  400.46   24.40
   2  -5   7   46.60    7.80
   2  -5   7   51.29    5.40
   2  -5   7   50.39    4.80
   3  -5   7   15.50    3.30
   3  -5   7   16.90    3.70
   3  -5   7   11.30    4.70
   4  -5   7    2.00    2.40
   4  -5   7    1.70    1.80
   4  -5   7    3.80    2.90
   4  -5   7   -1.90    2.30
   5  -5   7   -1.90    2.30
   5  -5   7   -2.20    2.60
   5  -5   7   -0.30    2.70
   5  -5   7    1.20    2.20
   6   4  -7    2.50    3.20
  -6  -4   7    4.80    4.30
   5   4  -7   50.99    6.50
  -5  -4   7   43.10    8.70
   4   4  -7  158.28   12.40
  -4  -4   7  163.18   14.40
   3   4  -7  803.22   48.60
   3   4  -7  834.22   46.90
  -3  -4   7  728.13   47.50
  -3  -4   7  828.12   50.09
   2   4  -7  350.46   21.20
   2   4  -7  348.47   24.20
  -2  -4   7  349.67   24.30
  -2  -4   7  313.07   21.60
   1   4  -7  213.48   13.90
  -1  -4   7  185.18   13.30
  -1  -4   7  187.18   14.70
  -1  -4   7  220.08   16.40
   0   4  -7  395.56   23.70
   0  -4   7  382.16   24.40
   0  -4   7  380.86   22.90
   0  -4   7  351.26   24.20
   0  -4   7  401.46   26.50
  -1   4  -7  112.79    9.70
   1  -4   7  139.19   10.20
   1  -4   7  143.79    8.90
   1  -4   7  123.99   11.60
   2  -4   7   27.70    5.60
   2  -4   7   33.30    4.30
   2  -4   7   29.50    3.20
   3  -4   7   20.10    3.80
   3  -4   7   20.00    5.00
   3  -4   7   21.40    4.10
   4  -4   7   32.30    5.30
   4  -4   7   39.60    5.30
   4  -4   7   30.00    5.80
   4  -4   7   32.20    6.10
   5  -4   7   73.99    8.10
   5  -4   7   76.19    7.80
   5  -4   7   54.29    7.30
   5  -4   7   58.09    7.70
   6  -4   7   -1.00    2.60
   6  -4   7    2.70    3.20
   6  -4   7    0.60    2.60
   6  -4   7   -0.80    2.80
   7   3  -7    4.80    3.80
  -7  -3   7    9.20    4.60
   6   3  -7    2.80    2.90
  -6  -3   7    1.60    3.60
   5   3  -7   69.69    7.90
  -5  -3   7   80.19    9.00
   4   3  -7   15.10    3.60
  -4  -3   7   13.90    4.40
   3   3  -7  146.59   10.70
   3   3  -7  134.69   12.00
  -3  -3   7  124.09   10.80
  -3  -3   7  135.79   12.00
   2   3  -7  942.81   53.29
   2   3  -7  911.41   49.70
  -2  -3   7  943.81   52.79
  -2  -3   7  856.51   50.39
  -2  -3   7  829.92   52.89
  -2  -3   7  721.83   51.49
   1   3  -7   24.90    2.80
   1   3  -7   24.40    3.50
  -1  -3   7   19.60    4.50
  -1  -3   7   17.90    3.00
  -1  -3   7   28.70    4.40
  -1  -3   7   18.80    4.60
   0   3  -7   13.00    2.90
   0  -3   7    7.30    3.10
   0  -3   7   10.10    3.30
   0  -3   7    3.00    2.00
  -1   3  -7   72.19    6.80
   1  -3   7   74.99    5.30
   1  -3   7   85.79    7.30
   1  -3   7   76.99    7.80
  -2   3  -7   29.90    4.40
   2  -3   7   38.70    4.70
   2  -3   7   37.00    6.10
   2  -3   7   40.20    3.70
   3  -3   7  974.80   58.79
   3  -3   7 1017.90   57.89
   3  -3   7  963.40   56.19
   4  -3   7   42.00    4.80
   4  -3   7   47.50    5.50
   4  -3   7   38.10    5.60
   4  -3   7   53.89    6.50
   5  -3   7   85.59    8.30
   5  -3   7   82.89    8.80
   5  -3   7   85.19    8.20
   5  -3   7   89.09    9.50
   6  -3   7   47.70    8.30
   6  -3   7   34.20    6.90
   6  -3   7   52.89    6.40
   6  -3   7   42.80    7.20
   7   2  -7   54.19    8.70
   7   2  -7   50.49    8.40
  -7  -2   7   38.80    6.70
   6   2  -7   81.19    8.80
   6   2  -7   60.99    8.00
  -6  -2   7   72.89   12.70
   5   2  -7   27.50    5.60
   5   2  -7   29.40    5.80
   4   2  -7    6.40    2.60
   4   2  -7    8.60    3.10
  -4  -2   7   12.90    4.20
   3   2  -7   63.29    8.70
   3   2  -7   73.89    7.10
   3   2  -7   74.09    6.60
  -3  -2   7   57.49    7.00
  -3  -2   7   71.39    6.90
   2   2  -7  256.17   16.00
   2   2  -7  286.67   18.10
  -2  -2   7  212.78   16.80
  -2  -2   7  253.47   17.90
  -2  -2   7  240.68   16.40
   1   2  -7   87.89    7.20
   1   2  -7   77.79    5.60
  -1  -2   7   66.09    6.50
  -1  -2   7   69.49    7.70
  -1  -2   7   77.89    6.00
  -1  -2   7   81.49    8.70
   0   2  -7   52.99    5.20
   0  -2   7   46.80    3.70
   0  -2   7   55.69    6.00
   0  -2   7   41.70    4.60
  -1   2  -7   88.89    7.50
   1  -2   7   87.59    7.50
   1  -2   7   79.09    4.90
   1  -2   7   90.89    6.80
  -2   2  -7   42.70    5.20
   2  -2   7   47.30    3.10
   2  -2   7   50.49    5.20
   2  -2   7   43.80    3.20
   3  -2   7  893.01   53.39
   3  -2   7  845.72   48.90
   4  -2   7  242.28   16.30
   4  -2   7  262.97   16.70
   4  -2   7  262.57   18.70
   5  -2   7   53.39    8.70
   5  -2   7   61.69    6.00
   5  -2   7   56.79    5.70
   6  -2   7   58.99    6.60
   6  -2   7   51.29    6.40
   6  -2   7   49.30    8.90
   6  -2   7   49.30    5.40
   7  -2   7   31.30    6.10
   7  -2   7   41.10    8.00
   7  -2   7   26.50    4.20
   7  -2   7   28.30    5.50
   7   1  -7    2.40    2.80
   7   1  -7    4.80    3.70
  -7  -1   7    5.50    2.60
   6   1  -7   16.40    4.70
   6   1  -7   11.60    4.10
  -6  -1   7   19.80    4.30
   5   1  -7   68.99    8.00
   5   1  -7   67.49    7.60
  -5  -1   7   61.29    7.10
   4   1  -7   78.49    7.80
   4   1  -7   66.59    7.20
  -4  -1   7   67.59    7.10
   3   1  -7   49.30    5.70
   3   1  -7   41.70    5.00
  -3  -1   7   46.00    6.50
  -3  -1   7   46.60    5.50
   2   1  -7  249.08   16.00
   2   1  -7  196.78   13.70
   2   1  -7  229.48   16.50
  -2  -1   7  177.78   17.10
  -2  -1   7  202.18   14.10
  -2  -1   7  201.28   14.70
  -2  -1   7  206.58   15.10
   1   1  -7   27.20    2.80
   1   1  -7   26.40    4.00
   1   1  -7   26.00    4.40
  -1  -1   7   19.30    3.10
  -1  -1   7   33.10    3.90
  -1  -1   7   31.60    5.60
   0   1  -7  638.44   35.60
   0   1  -7  666.43   38.30
   0  -1   7  646.54   38.80
   0  -1   7  620.14   37.70
  -1   1  -7   49.30    5.40
   1  -1   7   49.60    4.60
   1  -1   7   53.79    5.60
  -2   1  -7    6.30    2.40
   2  -1   7    8.80    2.70
   2  -1   7    8.30    1.70
  -3   1  -7   -0.40    1.40
   3  -1   7   -0.50    0.70
   3  -1   7    2.70    0.90
   3  -1   7   -2.30    1.30
   4  -1   7   67.09    5.60
   4  -1   7   72.39    5.30
   4  -1   7   66.59    7.70
   5  -1   7   67.29    5.10
   5  -1   7   61.69    6.10
   5  -1   7   69.89    8.50
   6  -1   7   48.90    8.70
   6  -1   7   49.30    4.20
   6  -1   7   56.09    6.30
   7  -1   7   11.40    5.30
   7  -1   7    4.10    1.40
   7  -1   7    8.60    3.40
   7   0  -7    6.60    3.50
   7   0  -7   -3.60    2.40
   6   0  -7   -2.60    3.20
   6   0  -7    8.50    4.30
  -6   0   7    4.30    2.20
   5   0  -7  593.54   37.40
   5   0  -7  568.94   37.10
  -5   0   7  567.84   34.60
   4   0  -7   58.79    8.10
   4   0  -7   60.99    7.10
  -4   0   7   51.19    5.80
   3   0  -7   36.50    5.50
   3   0  -7   32.90    5.50
  -3   0   7   37.70    4.40
  -3   0   7   41.30    7.00
  -3   0   7   29.30    6.40
   2   0  -7   96.29    7.80
   2   0  -7  112.99    9.40
  -2   0   7   81.29    8.30
  -2   0   7   90.79    9.60
   1   0  -7   49.40    5.10
   1   0  -7   53.59    6.40
   1   0  -7   41.30    4.00
  -1   0   7   46.70    7.10
  -1   0   7   36.10    4.80
   0   0  -7 1672.23   87.39
   0   0  -7 1428.26   84.79
   0   0  -7 1524.25   85.99
   0   0   7 1493.95   86.49
   0   0   7 1567.34   87.59
  -1   0  -7  327.27   21.60
   1   0   7  347.17   21.70
   1   0   7  331.67   20.40
   2   0   7  155.68   11.30
   2   0   7  136.89    9.30
  -3   0  -7   92.09    9.90
   3   0   7  132.89    7.50
   3   0   7  121.69    7.30
   3   0   7  125.29   10.40
  -4   0  -7   52.59    5.40
   4   0   7   77.49    8.20
   4   0   7   79.59    5.60
  -5   0  -7  291.67   19.70
   5   0   7  312.77   19.40
   5   0   7  315.67   23.00
  -6   0  -7  419.66   28.50
   6   0   7  458.95   32.40
   6   0   7  474.45   28.40
   7   0   7    0.70    3.50
   7   0   7   -1.40    1.90
   7  -1  -7    2.50    3.50
   7  -1  -7   -1.30    2.60
   6  -1  -7   34.40    7.10
   6  -1  -7   30.40    6.80
   5  -1  -7   94.09   10.10
   5  -1  -7   81.79    9.70
  -5   1   7   82.59    6.90
   4  -1  -7  120.39   11.00
   4  -1  -7  121.49   11.30
  -4   1   7  119.69    9.10
   3  -1  -7   38.70    5.90
   3  -1  -7   35.90    5.90
  -3   1   7   23.40    5.90
   2  -1  -7  218.68   15.40
   2  -1  -7  200.68   14.60
   2  -1  -7  235.28   16.10
  -2   1   7  215.58   15.70
  -2   1   7  184.28   16.00
   1  -1  -7 1390.16   77.79
   1  -1  -7 1472.35   78.59
   1  -1  -7 1277.07   76.79
  -1   1   7 1318.87   78.79
  -1   1   7 1358.06   78.19
   0  -1  -7   36.20    3.50
   0  -1  -7   44.60    4.90
   0  -1  -7   41.70    4.30
   0   1   7   35.80    5.10
   0   1   7   37.60    4.40
  -1  -1  -7  457.55   25.30
  -1  -1  -7  426.96   26.20
  -1  -1  -7  460.05   28.20
   1   1   7  437.96   26.80
   1   1   7  467.05   28.20
  -2  -1  -7  115.89    9.90
  -2  -1  -7  112.79    7.30
   2   1   7  119.19    7.70
  -3  -1  -7  277.37   17.00
  -3  -1  -7  244.98   19.30
   3   1   7  326.57   20.10
  -4  -1  -7    2.40    1.50
   4   1   7    4.80    3.00
   4   1   7    4.90    1.70
  -5  -1  -7   34.60    5.30
   5   1   7   34.20    4.30
   5   1   7   44.50    7.80
  -6  -1  -7   50.19    6.40
   6   1   7   50.59    5.80
   6   1   7   55.39    9.70
   7   1   7   -0.30    3.60
   7   1   7    3.70    2.70
   6  -2  -7    0.80    3.00
   6  -2  -7    3.90    3.50
   5  -2  -7    8.20    3.90
   5  -2  -7   15.10    5.00
  -5   2   7    8.40    1.80
  -5   2   7    6.30    2.20
   4  -2  -7   -0.50    1.90
   4  -2  -7   -4.20    1.40
  -4   2   7    1.90    2.20
  -4   2   7    0.50    1.30
   3  -2  -7  132.89   11.20
   3  -2  -7  109.89   10.20
  -3   2   7   96.59   10.90
   2  -2  -7   49.60    5.90
   2  -2  -7   70.59    7.30
   2  -2  -7   62.59    6.80
  -2   2   7   58.19    7.70
  -2   2   7   55.59    6.70
   1  -2  -7    3.70    2.10
   1  -2  -7    3.90    1.90
   1  -2  -7    1.60    1.80
  -1   2   7    4.30    3.50
  -1   2   7    4.30    2.20
   0  -2  -7   87.89    8.70
   0  -2  -7   74.69    6.90
   0   2   7   79.19    8.00
   0   2   7   89.09    7.50
  -1  -2  -7  125.49   10.40
  -1  -2  -7  120.29    9.00
   1   2   7  130.89   10.40
   1   2   7  131.49    9.40
  -2  -2  -7  238.18   18.10
  -2  -2  -7  257.57   15.70
  -2  -2  -7  260.37   15.60
   2   2   7  292.27   18.40
   2   2   7  265.17   15.90
  -3  -2  -7   79.79    6.10
  -3  -2  -7   58.29    7.30
   3   2   7   93.99    8.50
  -4  -2  -7   56.59    5.70
   4   2   7   61.49    5.30
   4   2   7   65.09    7.60
  -5  -2  -7   82.09    7.70
   5   2   7   91.19   10.40
   5   2   7   92.89    7.50
  -6  -2  -7   30.40    5.50
   6   2   7   42.60    8.10
   6   2   7   30.20    5.00
   7   2   7    6.70    3.00
   7   2   7    5.10    3.70
   6  -3  -7    1.40    3.40
   6  -3  -7    6.20    4.50
   5  -3  -7   25.00    6.20
   4  -3  -7  406.86   29.50
   4  -3  -7  410.66   29.20
  -4   3   7  437.06   26.20
   3  -3  -7    4.70    2.90
   3  -3  -7    6.20    2.90
  -3   3   7    4.10    2.70
  -3   3   7    0.40    3.40
   2  -3  -7   24.90    5.00
   2  -3  -7   20.50    4.80
  -2   3   7   28.30    6.40
  -2   3   7   25.70    4.80
   1  -3  -7   -0.10    1.80
   1  -3  -7    0.10    1.70
  -1   3   7    0.80    1.70
  -1   3   7    0.40    1.90
  -1   3   7    3.50    3.00
   0  -3  -7   23.80    4.50
   0  -3  -7   14.80    3.50
   0   3   7   16.20    5.40
   0   3   7   11.70    4.50
   0   3   7   15.10    3.50
  -1  -3  -7   80.59    7.70
  -1  -3  -7   76.39    6.80
   1   3   7   71.89    8.20
   1   3   7   83.29    8.10
   1   3   7   77.79    6.90
  -2  -3  -7   -1.00    1.20
  -2  -3  -7    0.10    1.00
  -2  -3  -7    2.10    1.80
   2   3   7    2.90    2.80
   2   3   7    2.00    1.90
  -3  -3  -7   21.60    3.40
  -3  -3  -7   21.70    2.20
   3   3   7   24.30    4.90
  -4  -3  -7  170.38   12.90
   4   3   7  212.18   15.90
  -5  -3  -7   40.40    6.20
   5   3   7   61.69    6.20
   5   3   7   67.39    8.70
   6   3   7   12.70    3.60
   6   3   7   15.60    5.40
   7   3   7   32.80    8.00
   7   3   7   30.80    5.50
   5  -4  -7   22.00    6.00
   5  -4  -7   22.40    6.30
   4  -4  -7   14.20    5.20
   4  -4  -7   21.30    6.10
  -4   4   7   20.40    4.10
   3  -4  -7    5.30    3.90
   3  -4  -7   10.60    3.70
  -3   4   7    6.70    3.30
   2  -4  -7    1.20    2.30
  -2   4   7   -0.90    2.50
  -2   4   7    1.50    2.90
   1  -4  -7   10.40    3.40
   1  -4  -7    5.10    2.80
  -1   4   7   12.40    4.30
  -1   4   7   12.50    3.90
  -1   4   7    8.70    3.20
   0  -4  -7   42.50    5.50
   0  -4  -7   33.30    5.60
   0   4   7   30.60    5.90
   0   4   7   48.10    6.00
   0   4   7   37.30    5.90
  -1  -4  -7   -1.70    1.60
  -1  -4  -7   -1.30    1.30
   1   4   7    1.80    2.90
   1   4   7   -1.10    2.00
  -2  -4  -7  145.39   10.50
  -2  -4  -7  116.79   11.20
  -2  -4  -7  148.29   10.10
   2   4   7  149.39   11.80
  -3  -4  -7    8.90    2.00
  -3  -4  -7   10.10    2.60
   3   4   7    7.00    3.30
  -4  -4  -7    6.50    1.50
  -4  -4  -7    5.90    2.40
   4   4   7   11.70    3.80
   5   4   7   12.70    4.80
   6   4   7    0.70    3.00
   6   4   7   -1.20    2.10
   7   4   7   12.60    5.60
   7   4   7   12.70    4.40
   5  -5  -7   -7.30    2.30
   5  -5  -7   -1.80    3.30
   4  -5  -7   -7.10    2.80
  -4   5   7    5.80    2.80
   3  -5  -7   45.90    8.40
   3  -5  -7   46.70    8.30
  -3   5   7   65.89    7.40
   2  -5  -7   59.79    9.30
  -2   5   7   57.59    7.20
   1  -5  -7    0.90    2.40
  -1   5   7   -4.30    2.80
  -1   5   7   -1.50    2.80
   0  -5  -7   54.39    6.30
   0  -5  -7   40.70    7.00
   0   5   7   47.00    6.60
  -1  -5  -7  460.75   31.20
   1   5   7  526.35   31.90
  -2  -5  -7   39.00    5.70
  -2  -5  -7   27.30    4.60
   2   5   7   39.50    6.50
  -3  -5  -7    3.60    1.80
  -3  -5  -7    0.90    1.80
   3   5   7   -0.50    2.30
  -4  -5  -7    1.10    1.40
   4   5   7    1.80    2.60
  -5  -5  -7    4.60    1.40
  -5  -5  -7    8.50    1.70
   5   5   7    5.00    4.20
   7   5   7   -2.10    3.30
   7   5   7   -0.30    2.80
   4  -6  -7    6.10    3.90
   4  -6  -7    4.20    4.10
  -4   6   7   -2.70    3.30
   3  -6  -7   58.59   10.30
  -3   6   7   69.39    8.50
   2  -6  -7    2.70    3.10
  -2   6   7    0.80    3.50
   1  -6  -7    3.20    3.30
  -1   6   7    8.00    3.80
   0  -6  -7   44.40    7.80
   0   6   7   34.00    6.30
  -1  -6  -7    6.70    3.10
   1   6   7   -1.70    2.70
  -2  -6  -7  337.47   24.10
   2   6   7  370.06   24.50
  -3  -6  -7  102.49    9.60
   3   6   7  110.69   10.80
  -4  -6  -7   12.40    3.20
   4   6   7   12.60    4.30
  -5  -6  -7   73.99    6.40
  -5  -6  -7   57.29    5.40
   5   6   7   76.69    9.30
  -6  -6  -7    1.30    1.50
  -6  -6  -7    1.00    1.70
   6   6   7    4.70    4.20
   3  -7  -7   -3.70    3.90
   2  -7  -7   39.80    8.60
   1  -7  -7    2.20    3.50
  -1   7   7    7.00    3.90
   0  -7  -7   30.20    6.60
   0   7   7   21.40    5.40
  -1  -7  -7    0.60    2.40
   1   7   7   -0.20    2.90
  -2  -7  -7    2.20    2.80
   2   7   7    3.00    3.00
  -3  -7  -7    8.00    3.20
   3   7   7    7.80    4.00
  -4  -7  -7    3.40    2.40
   4   7   7   -2.50    2.10
  -5  -7  -7    0.20    2.40
   5   7   7    2.30    2.90
   1  -8  -7   18.40    6.10
  -1   8   7   18.20    5.60
   0  -8  -7   10.80    5.50
   0   8   7    7.10    4.20
  -1  -8  -7   -0.70    3.00
   1   8   7   -2.60    3.10
  -2  -8  -7   17.00    5.50
   2   8   7   17.70    4.90
  -3  -8  -7   -4.60    2.50
   3   8   7    1.50    3.00
  -4  -8  -7   -1.30    3.10
   4   8   7   -2.00    3.00
   2   8  -8    0.50    2.40
  -2  -8   8    4.40    4.40
  -1  -8   8    9.70    5.90
   0  -8   8   41.20    9.50
  -4  -7   8    1.30    3.90
  -3  -7   8   -4.50    3.80
   2   7  -8    3.50    2.60
  -2  -7   8    6.50    4.10
   1   7  -8   22.80    3.70
  -1  -7   8   20.30    6.50
   0  -7   8   13.30    5.70
   1  -7   8    1.70    3.10
   2  -7   8   15.10    3.00
   2  -7   8   16.00    5.60
  -5  -6   8   17.90    6.40
   4   6  -8    0.50    2.60
  -3  -6   8  144.99   15.20
   2   6  -8   18.80    4.00
  -2  -6   8   15.50    6.10
   1   6  -8   -3.30    1.40
  -1  -6   8   -1.10    3.30
  -1  -6   8    1.50    2.10
   0   6  -8   21.40    3.90
   0  -6   8   32.00    7.20
   0  -6   8   24.70    4.70
   0  -6   8   30.30    4.60
   1  -6   8    5.70    2.70
   1  -6   8    0.70    3.30
   1  -6   8    7.10    2.20
   2  -6   8    3.20    2.50
   2  -6   8    0.00    1.90
   2  -6   8    1.20    3.00
   3  -6   8   -0.50    2.00
   3  -6   8   -6.00    3.10
   3  -6   8    0.50    2.00
   3  -6   8   -2.40    1.90
   4  -6   8   -4.80    2.40
   4  -6   8    0.50    2.80
   4  -6   8   -2.50    3.80
   4  -6   8    0.70    2.20
   6   5  -8    1.20    2.80
  -6  -5   8    4.00    4.30
   5   5  -8    2.40    2.50
  -5  -5   8   -0.60    3.40
   4   5  -8  150.78   12.30
  -4  -5   8  144.39   14.60
   3   5  -8   54.49    6.20
  -3  -5   8   64.89   10.60
   2   5  -8   29.00    4.90
  -2  -5   8   27.10    6.70
  -2  -5   8   20.20    4.20
   1   5  -8  169.08   11.50
  -1  -5   8  115.59   11.70
  -1  -5   8  152.38   14.40
  -1  -5   8  149.09   11.00
   0   5  -8    3.10    2.10
   0  -5   8    3.30    2.80
   0  -5   8    2.90    1.90
   0  -5   8    8.30    3.80
  -1   5  -8   68.99    7.00
   1  -5   8   73.49    7.50
   1  -5   8   79.59    9.70
   1  -5   8   82.39    6.50
   2  -5   8    2.10    2.70
   2  -5   8    2.20    1.70
   2  -5   8   -0.70    1.80
   3  -5   8  191.88   14.30
   3  -5   8  213.28   17.30
   4  -5   8    1.70    2.80
   4  -5   8    3.90    2.80
   4  -5   8    8.20    3.40
   4  -5   8    7.90    4.10
   5  -5   8    8.80    4.00
   5  -5   8   -1.60    2.50
   5  -5   8    2.00    2.90
   5  -5   8    3.90    2.80
   6   4  -8   45.90    7.80
  -6  -4   8   56.49    9.60
   5   4  -8   28.70    5.50
  -5  -4   8   23.60    6.40
   4   4  -8    3.10    2.60
  -4  -4   8    5.50    4.30
   3   4  -8    9.90    2.90
  -3  -4   8   10.70    4.10
  -3  -4   8    8.40    2.80
   2   4  -8  119.89    8.70
   2   4  -8  110.39    9.90
  -2  -4   8  115.49    9.50
  -2  -4   8  100.89   11.10
  -1  -4   8  199.38   12.80
  -1  -4   8  180.38   15.40
  -1  -4   8  164.68   14.30
   0   4  -8  370.56   23.40
   0  -4   8  395.06   26.20
   0  -4   8  346.07   24.20
   0  -4   8  369.16   22.20
  -1   4  -8   29.00    4.90
   1  -4   8   37.40    5.80
   1  -4   8   25.10    6.00
   1  -4   8   40.60    3.60
   2  -4   8  160.98   11.90
   2  -4   8  162.78   13.80
   2  -4   8  150.08   10.10
   3  -4   8  130.59   12.70
   3  -4   8  143.99   10.50
   3  -4   8  151.48   11.50
   4  -4   8   10.30    3.80
   4  -4   8    8.50    3.10
   4  -4   8   16.90    3.90
   4  -4   8    8.90    2.90
   5  -4   8    4.50    2.90
   5  -4   8   -1.00    2.80
   5  -4   8    7.30    3.00
   5  -4   8    9.70    2.70
   6   3  -8  108.29   10.80
  -6  -3   8   94.69   10.80
   5   3  -8   -0.50    2.30
  -5  -3   8    4.20    3.20
   4   3  -8   -2.00    1.60
  -4  -3   8    0.10    2.50
   3   3  -8    7.40    3.30
  -3  -3   8    9.70    3.10
  -3  -3   8    5.60    3.40
   2   3  -8  491.15   28.60
   2   3  -8  459.95   26.30
  -2  -3   8  368.66   28.60
  -2  -3   8  428.26   29.10
  -2  -3   8  422.56   26.90
   1   3  -8   12.90    3.60
   1   3  -8   11.30    2.30
  -1  -3   8   20.50    3.10
  -1  -3   8   16.50    4.20
  -1  -3   8   14.90    3.50
   0   3  -8  817.42   46.40
   0  -3   8  808.32   48.00
   0  -3   8  744.33   44.10
   0  -3   8  765.72   46.00
   0  -3   8  769.52   46.80
  -1   3  -8   68.89    7.10
   1  -3   8   72.19    8.00
   1  -3   8   70.19    4.90
   1  -3   8   79.19    7.40
  -2   3  -8  152.38   12.80
   2  -3   8  147.09   13.80
   2  -3   8  165.58   10.40
   2  -3   8  176.68   14.10
   2  -3   8  187.78   10.20
   3  -3   8    7.10    1.80
   3  -3   8    5.00    2.70
   3  -3   8    7.60    3.20
   4  -3   8    0.40    2.40
   4  -3   8   -0.50    1.20
   4  -3   8    3.00    1.70
   4  -3   8    2.00    2.10
   5  -3   8   36.20    6.90
   5  -3   8   32.40    6.30
   5  -3   8   41.70    4.80
   5  -3   8   28.90    5.10
   6  -3   8   27.00    5.90
   6  -3   8   35.50    5.40
   6  -3   8   35.40    5.80
   6  -3   8   41.60    7.60
   6   2  -8    6.00    4.00
   6   2  -8   10.10    3.90
  -6  -2   8    0.40    3.40
   5   2  -8   23.60    5.00
   5   2  -8   17.80    4.50
  -5  -2   8   21.60    5.10
   4   2  -8    3.80    2.80
   4   2  -8    4.80    2.50
  -4  -2   8   13.20    4.10
   3   2  -8   -1.10    1.40
   3   2  -8    6.50    2.40
  -3  -2   8    2.50    2.40
   2   2  -8  176.98   11.50
   2   2  -8  183.68   13.60
  -2  -2   8  166.88   13.30
  -2  -2   8  144.69   14.10
  -2  -2   8  157.68   11.90
   1   2  -8  204.78   14.00
   1   2  -8  195.48   11.70
  -1  -2   8  173.28   14.90
  -1  -2   8  185.48   13.50
  -1  -2   8  190.88   14.40
  -1  -2   8  166.78   12.10
   0   2  -8  169.28   13.20
   0  -2   8  150.98   11.70
   0  -2   8  168.68   13.10
   0  -2   8  168.68   13.20
   0  -2   8  160.08    9.90
  -1   2  -8   43.20    5.90
   1  -2   8   58.19    5.20
   1  -2   8   54.19    6.00
  -2   2  -8  150.98   12.80
   2  -2   8  179.88   13.00
   2  -2   8  170.88   11.40
   3  -2   8    1.00    1.50
   3  -2   8   -0.10    2.50
   4  -2   8  159.28   13.30
   4  -2   8  155.78   11.20
   4  -2   8  158.98   10.60
   5  -2   8   42.00    4.70
   5  -2   8   39.60    4.50
   5  -2   8   36.90    6.70
   6  -2   8   12.30    2.50
   6  -2   8    7.40    4.80
   6  -2   8   11.30    3.10
   6   1  -8   13.80    4.40
   6   1  -8    8.30    4.30
  -6  -1   8   12.20    3.70
   5   1  -8   23.00    5.40
   5   1  -8   37.60    6.50
  -5  -1   8   27.00    5.20
   4   1  -8    0.40    2.00
   4   1  -8   -2.10    1.70
  -4  -1   8    3.50    2.30
   3   1  -8   56.09    6.00
   3   1  -8   51.29    6.20
  -3  -1   8   51.69    8.80
   2   1  -8   59.09    5.30
   2   1  -8   62.59    6.20
  -2  -1   8   51.89    8.10
  -2  -1   8   56.19    5.60
  -2  -1   8   47.70    5.90
  -2  -1   8   48.00    8.30
   1   1  -8  103.99    8.50
   1   1  -8  104.59    9.20
   1   1  -8  104.39    7.20
  -1  -1   8  102.39   10.20
   0   1  -8  129.19   10.10
   0   1  -8  123.99    7.30
   0  -1   8  120.09    9.50
  -1   1  -8   20.20    4.00
   1  -1   8   14.30    2.90
  -2   1  -8    4.80    2.40
   2  -1   8    5.80    1.80
   2  -1   8   11.20    3.10
   3  -1   8   38.30    3.80
   3  -1   8   39.40    5.50
   4  -1   8  193.28   12.30
   4  -1   8  213.78   16.00
   4  -1   8  201.98   12.30
   4  -1   8  187.68   11.90
   5  -1   8   80.79    9.50
   5  -1   8   65.09    5.80
   5  -1   8   61.19    4.20
   6  -1   8    1.60    3.40
   6  -1   8   -1.60    2.20
   7  -1   8    2.90    3.60
   7  -1   8    6.60    2.90
   6   0  -8    8.10    3.90
  -6   0   8   10.70    3.10
   5   0  -8   59.29    7.50
   5   0  -8   50.29    8.20
  -5   0   8   49.30    5.90
   4   0  -8   98.19    9.60
   4   0  -8   82.69    8.80
  -4   0   8  105.59    8.80
   3   0  -8  384.86   23.80
  -3   0   8  349.37   22.60
  -3   0   8  302.97   24.50
   2   0  -8  420.56   25.10
   2   0  -8  375.26   23.90
  -2   0   8  395.56   25.70
  -2   0   8  344.37   26.20
   1   0  -8   10.10    2.80
   1   0  -8   14.90    3.70
   1   0  -8   11.20    2.40
  -1   0   8   14.70    3.60
  -1   0   8   11.90    4.20
   0   0  -8   14.10    2.90
   0   0  -8   17.50    3.80
   0   0  -8   16.20    1.80
   0   0   8   15.80    3.30
   0   0   8   10.80    3.70
  -1   0  -8   29.30    4.30
   1   0   8   26.50    4.80
   1   0   8   32.40    3.80
  -2   0  -8  275.07   20.80
   2   0   8  345.07   21.20
   3   0   8    0.40    0.80
   3   0   8    2.80    2.40
   4   0   8    5.20    3.10
   4   0   8   11.10    1.90
   5   0   8    5.20    3.60
   5   0   8    2.00    1.50
   6   0   8  147.49   11.10
   6   0   8  132.39   14.20
   7   0   8    6.10    2.80
   7   0   8   -1.30    3.00
   6  -1  -8    5.60    3.50
   6  -1  -8    1.20    3.20
  -6   1   8   -4.10    1.40
   5  -1  -8   13.80    5.20
   5  -1  -8   12.00    4.70
  -5   1   8   16.40    3.50
   4  -1  -8  254.07   19.40
   4  -1  -8  286.27   20.30
  -4   1   8  255.47   17.50
   3  -1  -8  275.47   18.30
   3  -1  -8  276.57   19.00
  -3   1   8  210.08   19.20
   2  -1  -8    1.80    1.90
   2  -1  -8   -0.50    1.00
  -2   1   8    3.60    2.30
  -2   1   8    0.90    2.80
   1  -1  -8   35.70    4.90
   1  -1  -8   29.70    4.70
   1  -1  -8   27.10    3.50
  -1   1   8   25.30    5.50
  -1   1   8   27.70    5.90
   0  -1  -8  112.09    8.20
   0  -1  -8  138.69   10.40
   0  -1  -8  125.19    9.20
   0   1   8  116.89   10.60
   0   1   8  106.49    9.40
  -1  -1  -8  627.04   34.40
  -1  -1  -8  621.54   35.80
  -1  -1  -8  580.74   34.80
  -1  -1  -8  611.94   37.90
   1   1   8  633.94   36.50
   1   1   8  635.44   38.00
  -2  -1  -8  173.78   10.90
  -2  -1  -8  192.28   14.50
   2   1   8  185.18   14.10
   2   1   8  200.78   12.10
  -3  -1  -8   43.60    3.90
   3   1   8   64.59    7.00
  -4  -1  -8  116.09    9.10
   4   1   8  132.59   12.10
   4   1   8  141.29    8.80
  -5  -1  -8   14.40    3.10
   5   1   8   24.00    5.90
   5   1   8   15.50    3.00
  -6  -1  -8   46.10    5.80
   6   1   8   43.60    9.00
   7   1   8   14.70    3.80
   7   1   8   12.70    5.60
   6  -2  -8   39.70    7.90
   6  -2  -8   39.60    8.00
   5  -2  -8  231.48   25.60
   5  -2  -8  183.48   16.50
  -5   2   8  185.38   12.60
  -5   2   8  191.28   13.20
   4  -2  -8   73.79    9.50
   4  -2  -8   81.79    9.20
  -4   2   8   85.49    7.30
   3  -2  -8  134.69   11.40
   3  -2  -8  107.69   10.20
  -3   2   8   92.69   11.10
   2  -2  -8   27.90    5.10
   2  -2  -8   34.00    5.90
  -2   2   8   26.30    6.50
   1  -2  -8   69.99    6.80
  -1   2   8   75.29    8.80
  -1   2   8   89.59    8.30
   0  -2  -8   90.49    8.50
   0  -2  -8  128.79   10.00
   0   2   8  108.99   10.20
   0   2   8  110.49    9.20
  -1  -2  -8  112.29   10.20
  -1  -2  -8  118.99    7.80
  -1  -2  -8  112.89    8.80
   1   2   8  122.79    9.30
   1   2   8  136.59   10.90
  -2  -2  -8   16.00    2.30
  -2  -2  -8   14.30    2.20
   2   2   8   19.80    4.30
  -3  -2  -8  333.27   21.20
   3   2   8  381.56   24.40
  -4  -2  -8   43.10    4.80
   4   2   8   58.89    7.40
  -5  -2  -8    2.20    2.10
   5   2   8    5.40    3.90
   5   2   8   -0.50    1.80
  -6  -2  -8   86.49    9.10
   6   2   8  115.89   12.80
   6   2   8  113.29    8.90
   7   2   8   -4.40    3.60
   7   2   8    4.50    3.00
   5  -3  -8    5.70    3.40
  -5   3   8    4.40    1.60
   4  -3  -8  104.19   11.40
   4  -3  -8  108.39   11.30
  -4   3   8  107.49    9.50
   3  -3  -8  166.68   14.20
   3  -3  -8  149.39   13.30
  -3   3   8  140.69   14.40
  -3   3   8  150.48   12.30
   2  -3  -8   13.90    3.50
   2  -3  -8    6.00    3.40
  -2   3   8   12.70    4.70
   1  -3  -8  623.34   36.80
  -1   3   8  570.94   36.90
  -1   3   8  548.95   37.10
  -1   3   8  593.24   36.90
   0  -3  -8  168.08   12.50
   0   3   8  153.28   13.40
   0   3   8  158.98   12.50
   0   3   8  164.28   13.60
  -1  -3  -8   -0.50    1.40
   1   3   8    3.80    1.90
   1   3   8    2.40    2.80
  -2  -3  -8    6.50    1.90
  -2  -3  -8    4.20    1.80
   2   3   8   10.20    3.40
  -3  -3  -8   81.49    5.50
  -3  -3  -8   78.69    6.60
   3   3   8   94.09    9.10
  -4  -3  -8    3.40    1.80
   4   3   8    4.20    3.00
  -5  -3  -8    6.00    2.80
   5   3   8    3.20    3.30
   6   3   8   -1.20    2.20
   7   3   8  135.19   15.60
   7   3   8  129.99   11.30
   5  -4  -8   19.20    5.70
   5  -4  -8   29.30    6.80
  -5   4   8   26.90    2.90
   4  -4  -8   -3.70    2.80
  -4   4   8   -5.00    2.50
   3  -4  -8   44.50    7.60
   3  -4  -8   39.90    7.70
  -3   4   8   34.30    7.40
  -3   4   8   37.70    6.50
   2  -4  -8   11.80    4.40
   2  -4  -8   10.10    3.50
  -2   4   8    8.60    4.60
  -2   4   8    6.90    3.80
   1  -4  -8   91.39    9.40
  -1   4   8   92.89   10.20
  -1   4   8   94.49    9.60
   0  -4  -8   19.90    4.60
   0   4   8   23.10    5.50
   0   4   8   22.50    4.60
  -1  -4  -8    3.00    2.60
   1   4   8   15.60    3.30
   1   4   8    8.40    3.80
  -2  -4  -8    4.00    2.00
  -2  -4  -8   -0.40    1.60
   2   4   8    4.80    3.30
  -3  -4  -8    6.60    2.00
  -3  -4  -8    5.30    1.60
   3   4   8    5.10    3.10
  -4  -4  -8    0.50    0.60
   4   4   8    0.60    2.60
   5   4   8   88.09   10.90
   6   4   8    4.90    4.30
   7   4   8   -3.60    4.20
   7   4   8    3.60    3.20
   4  -5  -8   58.09   10.00
   4  -5  -8   47.50    9.00
  -4   5   8   48.10    7.10
   3  -5  -8   -6.10    2.40
   3  -5  -8   -0.90    3.00
  -3   5   8    6.10    4.00
   2  -5  -8   40.00    7.50
  -2   5   8   37.40    6.70
  -2   5   8   25.80    6.60
   1  -5  -8   -0.10    2.50
  -1   5   8   -3.20    2.60
   0  -5  -8  102.19   10.30
   0   5   8  115.89   11.40
  -1  -5  -8    1.90    2.50
   1   5   8   -1.90    3.00
  -2  -5  -8   40.80    5.80
  -2  -5  -8   58.29    6.60
   2   5   8   58.89    8.70
  -3  -5  -8   31.10    5.30
  -3  -5  -8   41.80    4.70
   3   5   8   43.40    7.20
  -4  -5  -8    4.30    1.80
   4   5   8    2.10    3.20
   5   5   8   39.80    7.70
   6   5   8    5.90    4.40
   3  -6  -8   27.80    6.90
   3  -6  -8   38.40    8.00
   2  -6  -8    0.50    3.20
  -2   6   8    2.20    3.60
   1  -6  -8   13.70    5.00
  -1   6   8   14.30    5.20
   0  -6  -8    8.00    3.70
   0   6   8    4.30    3.40
  -1  -6  -8    5.90    3.40
   1   6   8    2.30    3.20
  -2  -6  -8   24.40    5.20
   2   6   8   18.90    5.20
  -3  -6  -8   11.10    3.40
   3   6   8    8.90    3.90
  -4  -6  -8    3.40    2.20
   4   6   8   -1.60    2.40
  -5  -6  -8   23.30    3.50
  -5  -6  -8   17.70    2.70
   5   6   8   23.20    5.80
   6   6   8   41.40    8.70
   2  -7  -8   18.90    5.90
  -2   7   8   10.50    4.90
   1  -7  -8   16.40    5.50
  -1   7   8    5.80    4.80
   0  -7  -8    7.30    4.80
   0   7   8    8.50    4.60
  -1  -7  -8   -0.40    2.40
   1   7   8    3.60    3.70
  -2  -7  -8   28.90    6.10
   2   7   8   39.90    7.30
  -3  -7  -8    4.30    3.30
   3   7   8   -2.20    3.30
  -4  -7  -8   -2.60    2.10
   4   7   8    0.60    3.30
  -5  -7  -8   13.00    3.30
   5   7   8    7.80    4.30
   0  -8  -8   27.20    7.30
   0   8   8   31.30    7.10
  -1  -8  -8   -3.30    3.50
   1   8   8   -1.80    3.50
  -2  -8  -8  139.49   14.30
   2   8   8  161.88   14.40
  -3  -8  -8  169.98   15.50
   3   8   8  174.38   15.70
  -3  -7   9   45.70   10.50
   2   7  -9   16.90    3.70
  -2  -7   9    4.00    4.20
   1   7  -9   24.00    4.10
  -1  -7   9   21.00    6.80
   0   7  -9    5.40    2.50
   0  -7   9   -5.00    3.40
   1  -7   9    6.00    5.00
   4   6  -9    1.10    2.30
  -4  -6   9   -3.80    3.20
  -3  -6   9    8.10    4.60
  -2  -6   9   -4.00    3.00
   1   6  -9   24.30    4.40
  -1  -6   9   18.10    3.90
   0   6  -9   15.70    3.70
   0  -6   9   21.20    4.80
   0  -6   9   19.10    3.60
  -1   6  -9    0.50    2.60
   1  -6   9   -1.20    2.10
   1  -6   9   -0.70    2.30
   2  -6   9    0.10    3.40
   2  -6   9    1.20    2.50
   3  -6   9   61.49   10.40
   3  -6   9   67.59    7.40
   3  -6   9   68.99    6.60
   5   5  -9   45.30    7.20
  -5  -5   9   42.70   10.50
   4   5  -9   23.50    4.60
  -4  -5   9   17.90    5.70
   3   5  -9    2.90    2.10
  -3  -5   9   -1.50    3.80
  -2  -5   9   20.90    6.60
  -2  -5   9   25.60    4.80
   1   5  -9   82.09    7.70
  -1  -5   9   69.79    8.50
  -1  -5   9   69.99    6.90
  -1  -5   9   83.59    9.70
   0   5  -9   18.70    3.90
   0  -5   9   16.80    3.10
   0  -5   9   21.10    5.50
  -1   5  -9  152.68   12.80
   1  -5   9  202.48   16.50
   1  -5   9  137.79   14.40
   1  -5   9  196.78   11.80
   2  -5   9    1.30    1.50
   2  -5   9    0.80    2.30
   2  -5   9    1.00    2.90
   3  -5   9   20.20    4.20
   3  -5   9    8.80    4.10
   3  -5   9   17.00    2.80
   3  -5   9   12.60    3.10
   4  -5   9   11.50    3.80
   4  -5   9    8.30    3.00
   4  -5   9   13.40    3.80
   4  -5   9    9.60    3.80
   5   4  -9   10.50    4.00
  -5  -4   9    7.70    4.10
   4   4  -9  201.18   14.20
  -4  -4   9  151.88   15.90
   3   4  -9    1.50    2.00
  -3  -4   9    2.30    3.00
  -3  -4   9   -2.50    1.80
   2   4  -9   78.79    6.40
  -2  -4   9   69.19   10.40
  -2  -4   9   68.29    6.80
  -2  -4   9   60.49    9.70
   1   4  -9  528.85   31.40
  -1  -4   9  515.65   33.90
  -1  -4   9  476.05   32.60
  -1  -4   9  479.45   30.10
   0   4  -9  128.09   10.30
   0  -4   9  128.49   12.30
   0  -4   9  125.19    8.90
   0  -4   9  116.69   11.30
  -1   4  -9  134.99   11.30
   1  -4   9  141.89   11.70
   1  -4   9  145.19   13.20
  -2   4  -9   24.40    4.90
   2  -4   9   33.40    6.80
   2  -4   9   34.30    3.40
   2  -4   9   30.70    5.40
   3  -4   9   11.70    2.10
   3  -4   9   12.60    2.30
   3  -4   9   15.20    4.10
   3  -4   9   19.70    5.20
   4  -4   9   12.90    3.20
   4  -4   9    9.40    2.60
   4  -4   9   19.00    4.50
   4  -4   9   12.80    3.90
   5  -4   9   48.10    8.10
   5  -4   9   45.60    7.70
   5  -4   9   47.80    7.00
   5  -4   9   39.10    5.70
   6   3  -9    0.00    2.70
  -6  -3   9   -1.20    3.40
   5   3  -9   -3.70    2.10
  -5  -3   9    2.30    3.40
   4   3  -9  197.08   14.60
  -4  -3   9  189.68   16.30
   3   3  -9   97.39    8.00
  -3  -3   9  103.29   10.20
  -3  -3   9   75.29    8.30
   2   3  -9  127.89    8.70
  -2  -3   9  113.69   11.20
  -2  -3   9  112.79    9.10
  -2  -3   9   80.39   10.60
   1   3  -9   16.40    4.50
  -1  -3   9   15.70    4.50
  -1  -3   9   11.60    2.50
  -1  -3   9   11.70    4.40
   0   3  -9  413.96   25.30
   0  -3   9  366.26   25.00
   0  -3   9  376.86   22.60
   0  -3   9  388.06   26.70
   0  -3   9  395.86   26.20
  -1   3  -9   31.90    5.50
   1  -3   9   41.30    7.20
   1  -3   9   33.70    5.00
   1  -3   9   30.90    5.90
  -2   3  -9  145.89   13.00
   2  -3   9  181.48   14.80
   2  -3   9  183.48   13.50
   2  -3   9  172.68   12.50
   3  -3   9  153.08   11.10
   3  -3   9  149.29    9.00
   3  -3   9  163.78   12.60
   3  -3   9  143.09   13.30
   4  -3   9    3.20    1.70
   4  -3   9    6.30    3.70
   4  -3   9   -0.20    2.50
   4  -3   9    1.00    1.20
   5  -3   9   12.80    3.40
   5  -3   9    8.70    3.70
   5  -3   9   17.50    3.10
   5  -3   9   14.30    4.20
   6   2  -9   24.90    5.80
   6   2  -9   13.90    5.90
  -6  -2   9   31.00    6.40
   5   2  -9   39.50    8.60
   5   2  -9   43.80    6.90
  -5  -2   9   34.60    6.70
   4   2  -9   56.49    7.00
   4   2  -9   62.79    7.00
  -4  -2   9   53.49    8.30
   3   2  -9  297.87   22.50
   3   2  -9  366.96   22.90
  -3  -2   9  314.57   22.80
  -3  -2   9  327.67   22.00
   2   2  -9  833.22   44.10
  -2  -2   9  673.33   47.40
  -2  -2   9  781.62   46.80
  -2  -2   9  737.73   44.60
   1   2  -9  147.39    8.90
  -1  -2   9  132.09   11.70
  -1  -2   9  135.29    9.40
  -1  -2   9  116.79   11.70
  -1  -2   9  122.89   12.50
   0   2  -9  265.57   18.10
   0  -2   9  239.88   17.40
   0  -2   9  267.27   19.00
   0  -2   9  260.17   19.00
  -1   2  -9   42.00    5.20
   1  -2   9   34.20    5.10
   1  -2   9   43.70    6.00
   2  -2   9  101.69    9.50
   2  -2   9  109.79    8.30
   3  -2   9  190.88   15.10
   3  -2   9  203.38   13.20
   4  -2   9    8.50    2.20
   4  -2   9    8.90    1.60
   4  -2   9    4.20    3.10
   4  -2   9    3.70    1.90
   5  -2   9    1.50    1.40
   5  -2   9    2.50    1.60
   5  -2   9   -0.60    2.40
   5  -2   9   -3.70    1.30
   6  -2   9   22.80    3.10
   6  -2   9   29.80    4.40
   6   1  -9    8.80    4.20
   6   1  -9   22.40    5.80
  -6  -1   9    9.00    3.80
   5   1  -9    1.60    2.50
  -5  -1   9    4.60    2.90
   4   1  -9   86.19    8.50
   4   1  -9   78.19    8.50
  -4  -1   9   90.19    8.90
   3   1  -9    3.00    2.00
   3   1  -9   -1.20    1.80
  -3  -1   9    3.20    2.20
  -3  -1   9    5.30    2.40
  -3  -1   9    0.30    3.60
   2   1  -9  297.77   19.00
   2   1  -9  271.37   17.40
  -2  -1   9  272.57   19.30
  -2  -1   9  241.28   20.40
   1   1  -9  301.77   17.70
   1   1  -9  314.57   19.70
  -1  -1   9  272.87   20.00
  -1  -1   9  282.27   21.50
   0   1  -9   73.79    8.50
   0  -1   9   73.49    7.10
   0  -1   9   68.49    8.20
  -1   1  -9    9.40    3.80
   1  -1   9   13.00    2.90
   1  -1   9   12.30    4.00
   2  -1   9   91.79    8.80
   2  -1   9   94.09    7.40
   3  -1   9  343.57   21.40
   3  -1   9  375.76   24.30
   4  -1   9  395.66   23.10
   4  -1   9  439.76   27.90
   4  -1   9  380.76   23.30
   5  -1   9    8.30    4.10
   5  -1   9    7.80    1.90
   6  -1   9   84.49    7.30
   6   0  -9    2.30    3.00
   6   0  -9   -3.10    3.00
  -6   0   9    5.00    2.80
   5   0  -9  134.19   12.70
  -5   0   9  137.39   11.40
   4   0  -9    4.60    3.00
   4   0  -9    3.40    2.80
  -4   0   9    8.10    2.90
   3   0  -9    7.00    2.90
   3   0  -9    3.60    1.90
  -3   0   9    7.20    4.40
  -3   0   9    6.30    2.40
   2   0  -9    0.10    1.40
   2   0  -9   -0.40    1.70
  -2   0   9   -2.00    2.80
   1   0  -9  121.69    8.90
   1   0  -9  133.99   10.30
  -1   0   9  120.69   12.00
  -1   0   9  131.19   10.90
   0   0  -9  185.98   11.20
   0   0  -9  182.78   12.90
   0   0   9  194.18   15.20
   0   0   9  183.68   13.60
   1   0   9  133.59   10.30
   1   0   9  146.39   11.90
   2   0   9   19.30    4.70
   2   0   9   10.00    2.30
   3   0   9   18.30    4.50
   3   0   9   18.30    2.30
   4   0   9  386.66   26.80
   5   0   9   33.10    7.00
   5   0   9   38.40    3.90
   6   0   9   51.09    5.40
   6   0   9   42.20   10.50
   6  -1  -9    7.80    3.80
   6  -1  -9   -4.10    2.30
  -6   1   9    1.90    2.90
  -6   1   9    3.10    2.40
   5  -1  -9   29.40    6.60
   5  -1  -9   44.20    7.40
  -5   1   9   34.70    5.30
   4  -1  -9    0.40    2.20
   4  -1  -9    0.60    2.30
  -4   1   9    1.00    1.90
   3  -1  -9   30.00    5.40
   3  -1  -9   24.00    5.20
  -3   1   9   24.20    6.80
   2  -1  -9   26.60    5.30
   2  -1  -9   39.30    5.60
  -2   1   9   33.10    7.30
   1  -1  -9  259.37   17.30
   1  -1  -9  242.28   16.10
  -1   1   9  255.17   18.00
  -1   1   9  227.28   18.80
   0  -1  -9  118.99    8.80
   0  -1  -9  101.79    7.60
   0   1   9  106.59    9.20
   0   1   9  105.19   10.50
  -1  -1  -9   94.89    7.40
  -1  -1  -9  100.59    6.00
   1   1   9   93.39    9.40
   1   1   9   95.09    8.10
   2   1   9   51.19    4.70
   2   1   9   50.89    6.50
  -3  -1  -9    0.60    0.80
   3   1   9    3.30    2.70
   4   1   9    6.90    4.00
  -5  -1  -9   35.10    4.40
   5   1   9   45.00    4.30
   5   1   9   41.70    8.20
  -6  -1  -9   25.60    4.60
   6   1   9   24.80    4.20
   6   1   9   30.80    7.90
   7   1   9   13.50    3.70
   7   1   9    7.90    5.30
   5  -2  -9   36.20    7.70
   5  -2  -9   31.80    7.10
  -5   2   9   30.90    4.70
  -5   2   9   36.50    5.60
   4  -2  -9  223.18   18.20
   4  -2  -9  217.28   17.60
  -4   2   9  209.78   15.10
   3  -2  -9  100.19    9.90
   3  -2  -9  122.39   11.30
  -3   2   9   93.59   11.80
   2  -2  -9   65.59    7.50
   2  -2  -9   46.80    6.20
  -2   2   9   54.09    9.20
   1  -2  -9   -0.20    1.90
   1  -2  -9    0.30    1.70
  -1   2   9    2.10    2.20
  -1   2   9    4.10    4.10
   0  -2  -9   24.30    3.90
   0  -2  -9   27.20    4.60
   0   2   9   26.80    6.00
   0   2   9   26.60    5.00
  -1  -2  -9  397.86   24.50
  -1  -2  -9  395.56   23.20
   1   2   9  397.26   25.10
   1   2   9  412.06   26.90
  -2  -2  -9    6.60    1.60
   2   2   9   10.60    2.20
   2   2   9    8.20    3.30
  -3  -2  -9   68.49    5.50
   3   2   9   73.39    8.10
  -4  -2  -9    3.00    1.70
   4   2   9    4.10    3.20
  -5  -2  -9    5.60    2.40
   5   2   9    4.30    3.70
  -6  -2  -9  271.47   21.00
   6   2   9  349.96   26.40
   6   2   9  343.57   21.00
   7   2   9   78.99    8.10
   7   2   9  100.79   12.90
   5  -3  -9    0.60    3.20
   5  -3  -9    0.20    3.90
  -5   3   9   -0.60    1.80
  -5   3   9    0.10    3.00
   4  -3  -9   22.50    6.40
  -4   3   9   28.40    5.20
   3  -3  -9  154.98   13.50
   3  -3  -9  166.88   14.40
  -3   3   9  118.69   13.90
  -3   3   9  171.78   13.30
   2  -3  -9   31.40    5.90
   2  -3  -9   42.70    7.10
  -2   3   9   38.10    6.70
  -2   3   9   45.10    8.40
   1  -3  -9    9.90    3.40
  -1   3   9   14.90    5.30
   0  -3  -9  348.17   24.20
   0   3   9  311.67   23.40
   0   3   9  337.17   22.50
  -1  -3  -9   67.19    6.60
   1   3   9   79.89    8.60
   1   3   9   64.39    6.70
  -2  -3  -9   30.20    3.50
  -2  -3  -9   31.50    3.40
   2   3   9   23.00    5.30
  -3  -3  -9   33.80    3.90
  -3  -3  -9   32.30    2.80
   3   3   9   29.70    6.30
  -4  -3  -9   64.89    6.50
   4   3   9   97.89   10.00
   5   3   9   25.60    6.40
   6   3   9    0.70    3.10
   4  -4  -9    1.40    2.70
  -4   4   9    3.90    3.80
   3  -4  -9   14.10    5.20
   3  -4  -9    7.20    3.90
  -3   4   9   16.10    4.80
  -3   4   9   12.50    5.00
   2  -4  -9    7.70    3.60
   2  -4  -9    8.20    3.70
  -2   4   9    3.90    4.20
   1  -4  -9    9.30    3.80
  -1   4   9   15.80    5.50
   0  -4  -9   -1.70    2.20
   0   4   9   -0.70    3.40
   0   4   9    4.10    2.40
  -1  -4  -9   54.69    6.30
   1   4   9   59.99    8.10
  -2  -4  -9    4.60    2.10
  -2  -4  -9    8.00    2.70
   2   4   9    9.10    3.80
  -3  -4  -9   82.89    6.30
  -3  -4  -9   65.29    6.50
   3   4   9   91.19    9.60
  -4  -4  -9    4.80    2.10
   4   4   9    3.40    3.00
  -5  -4  -9    3.10    2.90
   5   4   9   -0.40    2.80
   6   4   9    1.10    3.80
   4  -5  -9    5.20    4.40
   4  -5  -9   -0.50    4.20
   3  -5  -9  104.89   11.70
   3  -5  -9  108.29   12.50
   2  -5  -9    5.10    3.40
   2  -5  -9    0.00    2.70
  -2   5   9   -4.00    3.50
   1  -5  -9    5.30    3.10
  -1   5   9    2.80    3.50
   0  -5  -9   -1.00    2.20
   0   5   9    0.90    3.60
  -1  -5  -9    4.60    2.70
   1   5   9   -0.10    3.10
  -2  -5  -9   22.40    4.40
  -2  -5  -9   16.20    4.10
   2   5   9   20.30    5.70
  -3  -5  -9    7.40    2.60
   3   5   9   10.90    4.10
  -4  -5  -9    7.20    1.90
   4   5   9    5.00    3.60
   5   5   9   16.60    5.80
   6   5   9    8.30    4.80
   3  -6  -9    5.00    4.80
   3  -6  -9   16.70    5.90
   2  -6  -9   -0.50    3.10
  -2   6   9    3.40    4.50
   1  -6  -9    1.50    3.10
  -1   6   9    0.50    3.90
   0  -6  -9   -3.00    2.30
   0   6   9    2.10    4.00
  -1  -6  -9   16.50    4.70
   1   6   9   26.90    6.30
  -2  -6  -9    0.60    2.70
   2   6   9    7.60    4.50
  -3  -6  -9   19.10    4.20
   3   6   9   16.60    5.40
  -4  -6  -9   -0.20    2.00
   4   6   9   -5.00    2.40
  -5  -6  -9    3.30    1.40
   5   6   9    2.00    3.50
   1  -7  -9   20.20    6.80
  -1   7   9   11.10    5.70
   0  -7  -9    0.50    3.60
   0   7   9    1.50    4.70
  -1  -7  -9    5.40    4.00
   1   7   9    5.80    4.40
  -2  -7  -9   80.39    9.90
   2   7   9   95.09   11.40
  -3  -7  -9   -5.10    2.20
   3   7   9    3.40    3.70
  -4  -7  -9   -0.20    2.90
  -3  -6  10   34.40    8.70
  -2  -6  10    5.90    4.60
  -1  -6  10   16.70    4.00
  -1  -6  10   18.60    6.00
   0   6 -10    0.60    2.80
   0  -6  10   -1.10    2.10
   0  -6  10    1.70    3.40
   0  -6  10   -2.40    2.70
  -1   6 -10   32.80    5.90
   1  -6  10   44.70    5.00
   1  -6  10   37.50    6.30
   1  -6  10   38.90    8.60
   2  -6  10   12.00    3.90
   2  -6  10   12.90    3.00
   2  -6  10   17.30    5.90
   4   5 -10   29.90    5.60
  -4  -5  10   26.40    7.80
   3   5 -10   17.40    4.00
  -3  -5  10   22.60    7.60
  -2  -5  10    5.30    2.40
  -1  -5  10    9.30    4.40
  -1  -5  10    9.50    2.70
  -1  -5  10   11.40    4.70
   0  -5  10   12.30    2.80
   0  -5  10    9.80    4.30
   0  -5  10   14.20    4.70
   1  -5  10   20.80    3.30
   1  -5  10   24.90    5.30
   2  -5  10    8.40    2.20
   2  -5  10    4.70    3.50
   2  -5  10   15.40    5.20
   2  -5  10    9.90    2.20
   3  -5  10    4.50    3.40
   3  -5  10    5.00    2.00
   3  -5  10    7.80    1.90
   3  -5  10   10.40    4.90
   5   4 -10   19.30    5.20
  -5  -4  10   22.60    6.70
   4   4 -10   -0.10    2.40
  -4  -4  10   -0.30    3.80
   3   4 -10   23.60    4.30
  -3  -4  10   18.60    6.00
   2   4 -10  207.08   13.10
  -2  -4  10  186.38   13.90
  -2  -4  10  169.48   16.20
  -2  -4  10  186.58   16.70
  -1  -4  10    3.20    3.20
  -1  -4  10    3.50    3.30
  -1  -4  10    3.80    1.90
   0  -4  10    1.00    1.30
   0  -4  10   -0.50    2.00
   0  -4  10   -0.80    2.80
   1  -4  10   18.20    2.00
   1  -4  10   14.30    4.20
   1  -4  10   16.30    4.90
   2  -4  10   32.00    5.60
   2  -4  10   23.70    6.00
   3  -4  10   -0.20    2.30
   3  -4  10   -1.80    2.00
   3  -4  10   -0.80    0.80
   4  -4  10    7.20    3.30
   4  -4  10    9.20    1.90
   4  -4  10   13.10    4.20
   5   3 -10   -1.50    3.10
  -5  -3  10    7.30    4.40
   4   3 -10   38.90    6.40
  -4  -3  10   32.90    7.10
   3   3 -10  115.29    9.20
  -3  -3  10   99.49    9.70
  -3  -3  10  103.19   11.40
   2   3 -10  129.39    9.00
  -2  -3  10  121.99    9.70
  -2  -3  10  118.99   11.80
  -2  -3  10  102.19   12.20
  -1  -3  10   27.40    6.30
  -1  -3  10   30.00    6.30
  -1  -3  10   28.30    3.60
   0  -3  10  108.49   10.90
   0  -3  10   94.19    6.30
   0  -3  10   98.09   10.30
   1  -3  10    3.50    2.60
   1  -3  10    0.10    2.10
   1  -3  10    1.70    2.80
   2  -3  10  175.88   13.50
   2  -3  10  154.88   11.90
   2  -3  10  144.09   14.00
   3  -3  10   66.59    8.80
   3  -3  10   66.49    8.30
   3  -3  10   85.89    7.10
   4  -3  10   74.49    9.70
   4  -3  10   74.59    7.40
   4  -3  10   78.29    6.70
   4  -3  10   79.39    8.70
   5  -3  10    4.30    2.20
   5  -3  10    9.20    4.00
   5  -3  10    2.10    2.40
   5  -3  10   16.20    5.00
   5  -3  10    7.80    2.00
   5   2 -10    9.80    3.80
   5   2 -10   16.80    4.50
  -5  -2  10   11.00    4.60
   4   2 -10   15.50    4.40
   4   2 -10   28.10    4.90
  -4  -2  10   30.10    6.40
   3   2 -10   21.40    4.90
   3   2 -10   22.10    4.10
  -3  -2  10   28.80    6.00
  -3  -2  10   19.40    4.30
  -3  -2  10   13.90    5.60
   2   2 -10   10.00    2.50
  -2  -2  10    4.20    3.00
  -2  -2  10   12.60    3.10
  -2  -2  10    6.90    4.70
   1   2 -10  146.29    9.20
  -1  -2  10  140.49   12.60
  -1  -2  10  134.39   13.30
   0  -2  10  133.39   11.10
   0  -2  10  126.29   11.90
   0  -2  10  126.09   12.10
   1  -2  10  358.86   22.30
   1  -2  10  323.57   24.00
   1  -2  10  338.37   23.70
   2  -2  10   24.60    3.90
   2  -2  10   16.30    4.50
   3  -2  10   26.20    3.90
   3  -2  10   29.50    5.80
   4  -2  10   82.09    6.60
   4  -2  10   85.39    7.10
   4  -2  10   90.19    9.40
   5  -2  10    2.10    2.90
   5  -2  10    1.90    1.00
   5  -2  10    3.00    1.60
   5  -2  10    2.70    1.40
   5   1 -10   46.70    7.90
   5   1 -10   56.59    8.60
  -5  -1  10   58.69    7.40
   4   1 -10    6.90    3.00
   4   1 -10    2.50    2.50
  -4  -1  10   -1.10    2.50
   3   1 -10    5.80    2.50
   3   1 -10    1.30    2.10
  -3  -1  10    0.70    2.20
  -3  -1  10    1.00    3.60
   2   1 -10   34.30    5.90
   2   1 -10   31.20    3.90
  -2  -1  10   34.30    6.30
  -2  -1  10   24.60    6.90
   1   1 -10  414.86   23.40
   1   1 -10  427.16   25.90
  -1  -1  10  346.27   27.40
   0  -1  10  285.47   19.40
   0  -1  10  276.37   20.80
   1  -1  10  135.09   11.80
   1  -1  10  118.99   10.10
   2  -1  10    8.40    2.60
   2  -1  10   10.60    4.00
   3  -1  10  146.89   10.50
   3  -1  10  159.68   13.20
   4  -1  10    9.30    1.90
   4  -1  10   10.50    1.90
   4  -1  10   14.70    4.30
   5  -1  10   19.40    2.20
   5  -1  10   24.30    6.20
   6  -1  10   -0.30    1.50
   6  -1  10   -0.20    2.90
   5   0 -10    2.30    2.90
   5   0 -10    2.20    2.70
  -5   0  10    1.50    2.70
   4   0 -10    4.90    3.00
   4   0 -10    0.90    2.40
  -4   0  10    5.40    3.00
   3   0 -10   13.80    4.00
   3   0 -10   12.50    3.50
  -3   0  10   13.10    5.20
  -3   0  10   17.40    4.20
   2   0 -10    1.80    1.70
   2   0 -10   -0.30    1.80
  -2   0  10   -1.50    2.80
   1   0 -10  207.48   13.80
   1   0 -10  229.98   15.70
  -1   0  10  209.18   17.70
   0   0 -10   13.60    3.60
   0   0  10    9.10    4.50
   0   0  10    5.50    3.00
   1   0  10   10.30    2.90
   1   0  10   19.10    5.00
   2   0  10   16.70    4.50
   2   0  10   22.00    3.60
   3   0  10  109.69    7.70
   3   0  10  110.09   10.70
   4   0  10   98.79   10.80
   5   0  10   10.60    4.80
   6   0  10    7.90    2.40
   6   0  10    4.80    4.30
   5  -1 -10    4.10    3.60
   5  -1 -10    6.30    3.60
   4  -1 -10   51.39    8.20
   4  -1 -10   46.20    7.50
  -4   1  10   42.70    6.40
   3  -1 -10   15.50    4.60
   3  -1 -10   20.10    4.60
  -3   1  10   10.70    5.00
   2  -1 -10    0.20    1.90
   2  -1 -10   -0.80    1.20
  -2   1  10   -5.50    2.50
   1  -1 -10    4.50    1.80
   1  -1 -10    4.40    2.50
  -1   1  10    0.20    4.00
   0  -1 -10   59.79    7.00
   0  -1 -10   51.89    4.60
   0   1  10   56.19    6.70
   0   1  10   59.89    8.40
  -1  -1 -10   81.49    4.90
  -1  -1 -10   79.69    6.70
  -1  -1 -10   70.59    5.00
   1   1  10   93.29    9.80
   1   1  10   90.69    7.60
   2   1  10   10.70    2.70
   2   1  10   10.50    4.00
   3   1  10    5.10    1.20
   3   1  10    1.80    2.60
   4   1  10    0.30    2.70
   5   1  10  116.89   12.60
   6   1  10    7.90    2.60
   6   1  10   11.80    6.20
   5  -2 -10    0.70    3.10
   5  -2 -10    4.10    4.00
  -5   2  10    2.30    3.90
  -5   2  10    9.90    3.10
   4  -2 -10  155.28   13.30
   4  -2 -10  106.89   14.20
  -4   2  10  128.09   10.80
   3  -2 -10    7.30    4.00
   3  -2 -10    5.50    2.90
  -3   2  10    4.50    4.40
   2  -2 -10   42.60    6.60
   2  -2 -10   34.90    6.30
  -2   2  10   47.60    9.10
   1  -2 -10  248.68   17.20
   1  -2 -10  276.87   18.60
  -1   2  10  235.78   20.00
   0  -2 -10   20.30    3.50
   0  -2 -10   20.70    4.20
   0   2  10   26.50    4.70
   0   2  10   16.60    5.70
  -1  -2 -10   33.00    4.20
  -1  -2 -10   31.30    3.20
  -1  -2 -10   33.50    3.50
   1   2  10   34.40    5.30
   1   2  10   31.20    6.50
  -2  -2 -10    2.20    1.50
  -2  -2 -10    3.70    1.50
   2   2  10    3.50    3.00
   2   2  10    5.70    2.20
   3   2  10   38.50    7.00
  -4  -2 -10   10.10    2.30
   4   2  10   11.90    4.10
  -5  -2 -10    1.30    2.20
   6   2  10   17.10    6.00
   4  -3 -10   45.40    8.70
   4  -3 -10   60.29    9.30
  -4   3  10   51.79    8.00
   3  -3 -10    9.00    3.90
   3  -3 -10   18.20    5.00
  -3   3  10   15.50    6.00
   2  -3 -10   88.79    9.60
   2  -3 -10   84.39    8.80
  -2   3  10   72.59   10.50
   1  -3 -10   22.20    4.60
   1  -3 -10   25.80    5.50
  -1   3  10   34.00    7.80
   0  -3 -10   84.69    7.80
   0  -3 -10   81.39    8.30
   0   3  10   88.39   10.50
   0   3  10   91.19    9.00
  -1  -3 -10    4.80    2.40
  -1  -3 -10    9.90    2.20
   1   3  10    6.20    4.10
   1   3  10    3.50    2.70
  -2  -3 -10  225.18   15.00
   2   3  10  235.28   18.20
   2   3  10  231.68   15.60
  -3  -3 -10   28.20    4.00
  -3  -3 -10   30.20    2.70
   3   3  10   30.80    6.80
  -4  -3 -10   29.90    4.40
   4   3  10   30.80    7.00
  -5  -3 -10   24.00    4.70
   5   3  10   47.50    8.60
  -6  -3 -10    7.40    4.00
   6   3  10    0.90    3.80
   4  -4 -10   83.69   12.30
   4  -4 -10   96.49   12.00
  -4   4  10   94.29   10.70
   3  -4 -10    8.60    4.00
   3  -4 -10    4.70    4.80
  -3   4  10   17.70    6.80
   2  -4 -10   54.49    8.80
   2  -4 -10   53.19    8.40
  -2   4  10   44.20    8.90
   1  -4 -10   10.50    3.90
   1  -4 -10    4.30    2.50
  -1   4  10    9.50    5.20
   0  -4 -10    0.60    1.80
   0   4  10    0.40    3.50
  -1  -4 -10    3.70    2.40
  -1  -4 -10   11.40    3.40
   1   4  10    8.00    3.10
   1   4  10   12.10    4.60
  -2  -4 -10   36.30    5.20
  -2  -4 -10   40.70    4.40
   2   4  10   33.60    6.90
  -3  -4 -10   20.40    3.30
  -3  -4 -10   17.90    2.90
   3   4  10   21.00    5.80
  -4  -4 -10   23.80    4.50
   4   4  10   38.10    7.20
  -5  -4 -10   23.70    5.00
   5   4  10   37.50    7.70
   6   4  10    6.60    5.20
   3  -5 -10   99.19   11.90
   3  -5 -10   86.29   14.10
  -3   5  10   78.09   12.60
   2  -5 -10    0.80    2.50
   2  -5 -10    5.80    3.90
  -2   5  10    4.20    4.60
   1  -5 -10    8.80    3.90
  -1   5  10    5.50    4.60
   0  -5 -10  113.09   11.10
   0   5  10  118.09   12.70
  -1  -5 -10    4.90    2.80
   1   5  10   10.70    4.90
  -2  -5 -10    3.30    2.40
   2   5  10    0.10    3.10
  -3  -5 -10   -1.60    1.50
   3   5  10   -3.90    2.60
  -4  -5 -10    5.40    1.50
   5   5  10   10.70    5.10
   2  -6 -10    9.70    4.60
   2  -6 -10    4.20    4.80
  -2   6  10    1.40    7.20
   1  -6 -10   -0.40    3.40
  -1   6  10   -2.70    4.00
   0  -6 -10   13.90    4.90
   0   6  10   19.90    6.50
  -1  -6 -10    2.10    2.70
   1   6  10   -6.90    3.10
  -2  -6 -10    1.50    2.90
   2   6  10    0.90    3.80
  -3  -6 -10    1.10    2.40
   3   6  10    2.50    3.60
  -4  -6 -10    0.50    2.00
   4   6  10    4.20    3.40
   0   7  10    0.70    4.40
  -1  -7 -10   13.50    5.10
   1   7  10    9.00    4.90
  -2  -7 -10    8.00    4.90
   2   7  10   17.20    7.10
  -3  -7 -10    4.90    3.80
   3   7  10    1.20    4.50
  -1  -6  11   14.20    5.80
  -1  -6  11    6.50    3.50
   0  -6  11    1.40    2.70
   0  -6  11    1.00    3.60
   0  -6  11    8.60    4.20
   3   5 -11    2.30    2.90
  -3  -5  11    0.90    3.60
  -2  -5  11   15.20    5.50
  -2  -5  11   22.80    4.50
  -1  -5  11   51.29    8.80
  -1  -5  11   51.39    9.40
  -1  -5  11   52.49    5.60
   0  -5  11   -2.00    3.00
   0  -5  11    3.50    2.00
   0  -5  11    5.00    4.20
   1  -5  11    4.00    2.10
   1  -5  11    5.50    3.80
   1  -5  11    5.30    3.70
   2  -5  11    2.20    3.30
   2  -5  11    4.10    3.40
   4   4 -11   92.99    9.00
  -4  -4  11   88.79   13.30
   3   4 -11    4.50    2.60
  -2  -4  11    0.30    3.50
  -2  -4  11    1.70    3.40
  -2  -4  11   -1.20    2.20
  -1  -4  11   18.90    3.30
  -1  -4  11   13.80    5.00
  -1  -4  11   17.30    5.50
   0  -4  11    0.10    2.60
   0  -4  11   -3.50    2.70
   0  -4  11    0.80    1.20
   1  -4  11   40.20    7.30
   2  -4  11    7.40    3.80
   2  -4  11   13.70    4.60
   3  -4  11    7.00    3.80
   3  -4  11    3.70    3.50
   4   3 -11  125.99   10.60
  -4  -3  11  114.19   12.60
   3   3 -11   -0.80    1.90
  -3  -3  11    1.50    2.40
  -3  -3  11   -0.90    2.90
   2   3 -11   31.40    3.80
  -2  -3  11   34.40    7.30
  -2  -3  11   25.40    4.30
  -2  -3  11   17.40    6.30
  -1  -3  11    0.20    1.30
  -1  -3  11    0.90    4.00
  -1  -3  11   -0.90    2.00
   0  -3  11   44.50    8.40
   0  -3  11   61.99    8.40
   1  -3  11   97.59   10.60
   1  -3  11   98.69   10.40
   2  -3  11   85.69    8.20
   2  -3  11   81.09   10.10
   2  -3  11   86.49    9.30
   3  -3  11   -0.70    2.30
   3  -3  11   -0.20    2.10
   4  -3  11    7.30    2.50
   4  -3  11    7.50    4.60
   4  -3  11    8.40    3.90
   5   2 -11   10.90    4.50
   5   2 -11   10.70    4.30
  -5  -2  11   23.20    6.30
   4   2 -11   95.79    9.90
   4   2 -11   88.29    8.40
  -4  -2  11   68.99   10.80
   3   2 -11   57.99    6.10
  -3  -2  11   44.00    9.00
  -3  -2  11   48.90    6.20
  -3  -2  11   66.99    8.20
   2   2 -11   10.30    2.40
  -2  -2  11    4.60    4.70
  -2  -2  11    2.40    2.80
   1   2 -11  216.28   12.80
  -1  -2  11  209.88   18.30
  -1  -2  11  195.58   16.80
   0  -2  11  313.27   22.80
   0  -2  11  300.87   22.90
   1  -2  11   63.39    7.00
   1  -2  11   78.19    9.00
   1  -2  11   65.99    8.60
   2  -2  11  155.18   13.50
   3  -2  11    1.90    3.10
   4  -2  11   31.30    4.00
   4  -2  11   37.40    7.40
   5  -2  11    1.70    2.80
   5  -2  11    6.30    1.50
   5   1 -11   10.30    4.00
   5   1 -11   11.70    4.60
  -5  -1  11   10.90    3.90
   4   1 -11   19.50    4.60
   4   1 -11   15.10    4.70
  -4  -1  11   25.00    5.80
   3   1 -11   34.00    6.20
   3   1 -11   39.40    5.00
  -3  -1  11   39.80    8.70
  -3  -1  11   37.40    7.00
   2   1 -11  221.78   14.50
   2   1 -11  232.18   16.60
  -2  -1  11  217.68   17.30
  -2  -1  11  182.68   18.30
   1   1 -11    5.80    1.70
  -1  -1  11    6.80    5.00
  -1  -1  11    2.20    2.80
   0  -1  11    0.50    3.40
   1  -1  11  244.28   18.90
   1  -1  11  238.18   17.00
   2  -1  11  172.88   14.80
   2  -1  11  174.88   12.70
   3  -1  11    1.70    1.80
   3  -1  11    2.50    3.00
   4  -1  11   58.79    8.10
   4  -1  11   52.69    4.20
   4  -1  11   45.80    4.00
   5  -1  11   -3.50    2.30
   5   0 -11    2.20    3.20
   5   0 -11    0.00    3.00
  -5   0  11   -3.70    2.80
   4   0 -11   38.70    6.50
   4   0 -11   22.00    5.80
  -4   0  11   34.20    6.60
   3   0 -11   53.59    6.90
   3   0 -11   55.09    6.60
  -3   0  11   51.39   10.10
  -3   0  11   61.59    7.30
   2   0 -11  317.07   21.20
   2   0 -11  298.57   19.30
  -2   0  11  271.37   23.30
   1   0 -11  280.27   19.60
   1   0 -11  289.17   17.60
  -1   0  11  282.17   22.50
   0   0 -11   41.20    4.70
   0   0  11   18.60    5.80
   0   0  11   31.70    5.60
   1   0  11  149.09   14.00
   1   0  11  164.78   12.40
   2   0  11   19.20    3.40
   2   0  11   16.20    4.70
   3   0  11    3.90    3.70
   4   0  11   88.89   10.30
   5   0  11    8.10    4.30
   4  -1 -11   10.70    4.20
   4  -1 -11   11.50    4.50
  -4   1  11   14.90    4.00
   3  -1 -11   41.90    6.90
   3  -1 -11   52.29    6.40
  -3   1  11   36.20    9.40
  -3   1  11   30.20    5.60
   2  -1 -11    0.60    2.00
   2  -1 -11   -4.00    1.60
  -2   1  11   -2.50    2.80
   1  -1 -11  226.98   16.00
   1  -1 -11  199.08   14.10
  -1   1  11  206.78   18.70
   0  -1 -11    3.00    2.00
   0  -1 -11    2.90    1.30
   0   1  11    2.60    3.70
   0   1  11    4.90    3.10
  -1  -1 -11    2.90    1.80
   1   1  11    8.40    4.30
   1   1  11   -0.90    1.70
   2   1  11    6.40    3.60
   2   1  11   -4.00    1.50
   3   1  11    8.30    3.90
   3   1  11    4.00    1.30
   4   1  11  269.37   21.20
   5   1  11   41.30    8.70
   6   1  11    8.00    5.20
   4  -2 -11   33.60    7.30
   4  -2 -11   43.20    7.40
  -4   2  11   44.00    6.50
   3  -2 -11   22.20    5.60
   3  -2 -11   16.90    4.50
  -3   2  11   17.20    6.70
   2  -2 -11   12.00    3.50
   2  -2 -11   18.30    4.60
  -2   2  11   13.90    5.60
   1  -2 -11   48.60    7.30
   1  -2 -11   44.20    5.30
  -1   2  11   33.00    7.80
   0  -2 -11   -1.20    2.00
   0  -2 -11   -1.50    1.20
   0   2  11    3.60    3.80
   0   2  11   -0.60    2.40
  -1  -2 -11   36.00    4.50
  -1  -2 -11   28.10    3.50
  -1  -2 -11   37.30    3.30
   1   2  11   39.90    7.70
   1   2  11   44.10    5.10
  -2  -2 -11   29.10    3.50
  -2  -2 -11   27.20    2.70
  -2  -2 -11   27.20    2.80
   2   2  11   29.20    6.40
   2   2  11   30.00    4.60
  -3  -2 -11   20.40    2.20
   3   2  11   22.50    5.50
  -4  -2 -11   31.70    4.70
   4   2  11   46.10   12.10
  -5  -2 -11   41.70    4.90
   5   2  11   71.79    9.90
   4  -3 -11   -3.30    3.50
   4  -3 -11   10.10    5.50
   3  -3 -11   25.70    6.70
   3  -3 -11   18.40    5.30
  -3   3  11   25.50    7.30
   2  -3 -11   -1.60    2.80
   2  -3 -11    0.60    2.80
  -2   3  11    6.20    4.50
   1  -3 -11    2.60    2.70
   1  -3 -11   -0.40    1.80
  -1   3  11   -3.50    3.50
   0  -3 -11   30.10    5.50
   0  -3 -11   17.60    4.10
   0   3  11   35.00    7.70
  -1  -3 -11  100.99    7.70
   1   3  11  118.99   10.00
   1   3  11  108.89   11.80
  -2  -3 -11    1.60    1.50
  -2  -3 -11    3.70    1.80
   2   3  11   -1.10    2.50
   2   3  11   -1.30    1.70
  -3  -3 -11   18.00    3.20
   3   3  11   15.20    5.10
  -4  -3 -11    1.30    2.10
   4   3  11    0.80    2.80
  -5  -3 -11   14.50    3.60
   5   3  11    8.30    5.00
   3  -4 -11   18.70    5.30
   3  -4 -11   11.50    5.60
  -3   4  11    1.00    5.10
   2  -4 -11   12.00    4.40
   2  -4 -11    5.10    3.50
  -2   4  11    5.40    5.30
   1  -4 -11   39.30    6.90
   1  -4 -11   41.40    7.00
  -1   4  11   36.90    8.70
   0  -4 -11   10.00    4.00
   0   4  11   -3.20    4.00
  -1  -4 -11   56.09    5.50
  -1  -4 -11   47.60    6.90
   1   4  11   50.29    6.30
   1   4  11   53.49    9.50
  -2  -4 -11   27.30    3.90
  -2  -4 -11   18.60    4.10
   2   4  11   16.60    5.80
  -3  -4 -11    3.10    2.10
  -3  -4 -11    2.10    1.30
   3   4  11    0.90    3.40
   4   4  11   15.70    5.50
  -5  -4 -11    5.70    3.60
   5   4  11    0.40    3.30
   2  -5 -11   17.10    5.70
   2  -5 -11   37.20    7.00
  -2   5  11   31.00    8.20
   1  -5 -11    5.50    4.20
   1  -5 -11   17.60    4.70
   0  -5 -11   50.89    8.20
   0   5  11   50.39    9.80
  -1  -5 -11    9.90    3.70
   1   5  11    5.10    5.30
  -2  -5 -11    9.50    3.00
   2   5  11    7.40    4.50
  -3  -5 -11    2.20    2.10
   3   5  11    1.20    2.80
   4   5  11   19.00    5.80
   1  -6 -11    4.20    3.70
  -1   6  11   -3.40    3.90
   0  -6 -11   -6.50    3.00
   0   6  11   -5.40    4.40
  -1  -6 -11    4.70    3.20
   1   6  11   -8.50    4.90
  -2  -6 -11   13.70    4.20
   2   6  11   12.50    6.00
   3   6  11    3.70    4.20
  -1  -5  12    6.30    2.50
  -1  -5  12    1.80    3.80
   0  -5  12   15.80    5.40
   0  -5  12   11.50    5.20
   0  -5  12   16.40    3.00
   1  -5  12   50.59    9.60
   1  -5  12   39.20    7.80
   3   4 -12   -1.50    2.20
  -3  -4  12   -6.90    2.70
  -2  -4  12   13.10    6.10
  -2  -4  12   12.60    3.70
  -2  -4  12   26.80    6.80
  -1  -4  12    9.20    4.50
  -1  -4  12    1.90    2.00
  -1  -4  12    3.40    4.00
   0  -4  12   37.80    7.60
   0  -4  12   36.80    7.70
   1  -4  12   22.60    5.90
   1  -4  12   15.90    5.50
   2  -4  12    5.80    3.80
   2  -4  12    0.50    3.00
   3   3 -12    7.20    2.80
  -3  -3  12    9.40    3.40
  -3  -3  12   -1.00    4.40
   2   3 -12   25.90    3.70
  -2  -3  12   21.90    6.60
  -1  -3  12    3.00    2.80
  -1  -3  12    5.80    4.10
   0  -3  12   35.40    7.20
   0  -3  12   25.50    7.30
   1  -3  12    1.90    2.60
   1  -3  12    4.60    4.10
   2  -3  12    7.80    4.10
   2  -3  12   12.50    4.60
   3  -3  12   15.70    3.90
   3  -3  12   18.60    5.30
   3  -3  12   22.10    6.00
   4   2 -12   29.20    5.60
  -4  -2  12   24.50    6.70
   3   2 -12   12.60    3.30
  -3  -2  12   24.30    7.20
  -3  -2  12    1.20    4.20
   2   2 -12   69.99    5.90
  -2  -2  12   54.19    9.00
  -2  -2  12   59.59   11.10
  -1  -2  12   58.09   10.40
  -1  -2  12   51.99    8.50
   0  -2  12   29.20    6.80
   0  -2  12   13.80    6.20
   1  -2  12    3.10    2.70
   1  -2  12    5.00    4.20
   2  -2  12    3.80    3.90
   2  -2  12    4.40    2.20
   2  -2  12    0.00    3.00
   3  -2  12   17.30    3.30
   3  -2  12    6.50    3.90
   4  -2  12    0.00    1.70
   4  -2  12    3.00    2.50
   4  -2  12    3.40    3.60
   4   1 -12    9.70    3.40
   4   1 -12   10.50    4.00
  -4  -1  12    4.80    4.10
   3   1 -12  132.59   10.30
  -3  -1  12  101.59   13.50
  -3  -1  12  119.89   11.90
   2   1 -12    5.10    3.10
   2   1 -12    7.70    2.40
  -2  -1  12    2.00    2.90
  -2  -1  12    3.10    4.90
   1   1 -12   44.40    3.80
  -1  -1  12   51.09   10.00
  -1  -1  12   42.40    7.30
   0  -1  12   60.59   10.30
   1  -1  12    3.70    4.20
   1  -1  12    4.80    2.80
   2  -1  12    5.40    3.80
   2  -1  12   22.80    3.90
   3  -1  12   54.89    9.00
   3  -1  12   67.19    6.20
   4  -1  12  118.69    8.20
   4  -1  12  148.29   13.50
   4   0 -12   -3.60    2.50
   4   0 -12   -3.60    2.00
  -4   0  12   -1.40    2.70
   3   0 -12    4.80    2.80
  -3   0  12    0.00    4.20
  -3   0  12    6.30    3.40
   2   0 -12    0.00    1.70
   2   0 -12   -3.20    1.80
  -2   0  12    3.40    4.70
  -2   0  12   -2.40    2.10
   1   0 -12   58.69    6.70
   1   0 -12   50.29    4.60
  -1   0  12   48.00    9.60
   0   0  12   78.99   10.70
   1   0  12   98.49    9.30
   1   0  12   90.49   11.00
   2   0  12  105.19    9.00
   2   0  12   98.79   11.20
   3   0  12   76.99    9.70
   3   0  12   72.29    6.30
   4   0  12    0.90    3.60
   5   0  12    5.90    3.50
   4  -1 -12    1.00    3.10
   4  -1 -12   -1.40    3.00
  -4   1  12   -3.80    3.00
   3  -1 -12    8.60    3.20
   3  -1 -12   -1.70    2.60
  -3   1  12    1.70    2.60
  -3   1  12    7.20    5.90
   2  -1 -12   -0.30    1.90
   2  -1 -12   -1.40    2.10
  -2   1  12    0.10    4.10
   1  -1 -12   80.19    7.20
   1  -1 -12  106.59    9.10
  -1   1  12   71.29   12.10
   0  -1 -12   62.09    6.70
   0  -1 -12   60.59    4.70
   0   1  12   61.99   10.60
   1   1  12  242.58   17.40
   1   1  12  235.68   19.60
   2   1  12   -2.30    3.00
   4   1  12   10.70    5.10
   5   1  12    3.50    4.20
   3  -2 -12   -0.20    2.20
   3  -2 -12    1.10    2.80
  -3   2  12    2.60    4.40
   2  -2 -12   -1.00    2.50
   2  -2 -12    2.50    2.80
  -2   2  12    5.50    4.70
   1  -2 -12    4.40    2.30
  -1   2  12    3.10    5.00
   0  -2 -12   93.09    8.50
   0  -2 -12   72.49    6.70
   0   2  12   82.79   11.20
  -1  -2 -12   -0.60    1.90
  -1  -2 -12    1.30    1.20
   1   2  12    8.00    3.30
   1   2  12   -0.20    3.20
   2   2  12    9.30    3.00
   2   2  12   10.30    4.80
   3   2  12   -4.70    2.60
   4   2  12    5.70    4.60
   5   2  12   44.20    8.90
   3  -3 -12   15.40    5.40
   3  -3 -12    7.80    3.60
  -3   3  12    8.70    6.30
   2  -3 -12   25.60    5.70
   2  -3 -12   13.10    4.20
  -2   3  12   17.80    7.00
   1  -3 -12    1.70    3.30
   1  -3 -12    6.30    2.80
  -1   3  12    5.40    5.50
   0  -3 -12   15.60    4.20
   0  -3 -12    8.40    3.10
  -1  -3 -12    0.40    1.70
  -1  -3 -12    3.40    1.90
  -1  -3 -12   -0.60    1.70
   1   3  12   -1.80    4.30
   1   3  12    3.50    3.00
  -2  -3 -12    4.90    1.80
  -2  -3 -12    8.00    2.50
   2   3  12    8.50    2.80
  -3  -3 -12    7.00    2.10
   3   3  12    7.70    4.10
  -4  -3 -12    3.50    2.10
   4   3  12    6.50    4.20
   2  -4 -12   23.30    6.10
   2  -4 -12   33.90    7.20
  -2   4  12   22.90    8.10
   1  -4 -12    5.10    4.00
   1  -4 -12    3.30    3.30
  -1   4  12   -1.20    4.60
   0  -4 -12   40.60    6.70
   0  -4 -12   26.90    5.50
   0   4  12   24.90    7.80
  -1  -4 -12   -2.00    2.40
  -1  -4 -12    5.30    2.60
   1   4  12   -1.50    3.80
  -2  -4 -12   15.80    3.60
  -2  -4 -12   13.20    3.20
   2   4  12   24.90    6.90
  -3  -4 -12    3.50    2.70
  -3  -4 -12    5.00    1.70
   3   4  12    3.30    3.70
  -4  -4 -12   -2.90    2.60
   4   4  12    2.00    3.60
   1  -5 -12    5.70    2.80
  -1   5  12   -4.40    4.60
   0  -5 -12    0.10    3.00
   0   5  12    5.80    5.20
  -1  -5 -12   19.20    4.70
   1   5  12   19.00    6.90
  -2  -5 -12   16.50    4.20
   2   5  12   25.30    7.10
  -3  -5 -12   28.50    4.30
   3   5  12   23.70    6.90
   0  -4  13   -7.10    2.50
   0  -4  13    1.40    4.00
  -2  -3  13   12.00    4.40
  -2  -3  13   14.80    6.50
  -1  -3  13   -5.30    2.40
   0  -3  13   35.80    7.60
   0  -3  13   32.20    7.70
   1  -3  13    0.50    2.90
   1  -3  13    1.80    4.00
   2  -3  13    0.20    4.70
   2  -3  13    6.20    4.00
   3   2 -13   19.40    4.00
  -3  -2  13   31.20    7.20
  -3  -2  13   12.60    6.30
   2   2 -13    4.40    2.00
  -2  -2  13    4.80    3.70
  -2  -2  13    7.90    5.50
  -1  -2  13   -3.70    2.30
  -1  -2  13   -4.70    4.30
   0  -2  13   12.10    4.90
   0  -2  13   13.70    5.90
   1  -2  13   15.80    5.60
   1  -2  13   12.30    4.80
   2  -2  13   16.10    5.20
   3  -2  13   15.10    5.10
   3  -2  13    4.20    4.00
   3   1 -13   38.40    5.70
   3   1 -13   43.90    7.50
  -3  -1  13   36.00    9.40
   2   1 -13    3.00    1.80
  -2  -1  13   -2.80    3.80
  -1  -1  13   17.80    6.60
  -1  -1  13   32.40    7.90
   2  -1  13   98.99    9.00
   2  -1  13   96.39   11.60
   3  -1  13    5.70    2.80
   3  -1  13    7.70    4.60
   3   0 -13   66.89    8.60
   3   0 -13   77.99    7.60
  -3   0  13   69.79   10.20
  -3   0  13   58.89   11.70
   2   0 -13   -0.90    1.80
   2   0 -13   -1.90    1.70
  -2   0  13    1.60    4.60
  -2   0  13   -0.50    2.50
   1   0 -13   -3.00    2.10
   1   0 -13   -0.40    1.20
  -1   0  13    3.00    5.20
   0   0  13  194.18   18.60
   1   0  13   95.29   12.00
   2   0  13   79.89    7.80
   2   0  13   54.89    9.90
   3   0  13   46.10    4.90
   3   0  13   40.50    8.10
   4   0  13   -3.00    2.80
   3  -1 -13   31.00    6.60
   3  -1 -13   22.20    5.00
  -3   1  13   20.50    7.40
  -3   1  13   20.20    5.30
   2  -1 -13    4.70    3.00
   2  -1 -13    2.40    2.10
  -2   1  13    3.70    5.70
   1  -1 -13  102.59    9.60
   1  -1 -13   86.39    7.30
  -1   1  13   83.19   12.10
   0  -1 -13    6.70    1.30
   0  -1 -13    7.10    2.80
   0   1  13    1.70    4.30
   1   1  13   52.19    7.80
   1   1  13   53.89    9.80
   2   1  13   15.50    3.60
   2   1  13   14.70    5.70
   3   1  13   77.89   10.40
   4   1  13   43.70    9.00
   2  -2 -13   33.20    5.80
  -2   2  13   24.30    8.20
   1  -2 -13  125.19   10.50
   1  -2 -13  147.69   12.40
  -1   2  13  134.59   15.50
   0  -2 -13   49.40    6.90
   0  -2 -13   41.20    4.40
   0   2  13   34.30    8.60
  -1  -2 -13    9.30    1.50
  -1  -2 -13    9.30    2.90
   1   2  13   15.80    6.10
   2   2  13   28.90    4.80
   2   2  13   30.60    7.40
   3   2  13   15.60    5.50
   4   2  13   29.90    7.70
   2  -3 -13    5.20    3.00
   2  -3 -13    3.80    4.00
   1  -3 -13   11.70    4.00
   1  -3 -13    8.30    3.50
  -1   3  13    9.60    6.50
   0  -3 -13   43.40    5.60
   0  -3 -13   45.20    6.90
   0   3  13   43.10    9.70
  -1  -3 -13    3.50    1.90
  -1  -3 -13    1.80    2.40
  -1  -3 -13    4.00    2.10
   1   3  13    8.40    5.70
  -2  -3 -13    3.80    1.90
  -2  -3 -13   -0.30    1.50
  -2  -3 -13   -1.60    1.60
   2   3  13    4.50    2.70
   2   3  13   -1.90    3.10
  -3  -3 -13    5.10    1.90
   3   3  13   -0.10    3.40
   0  -4 -13   24.30    5.10
   0  -4 -13   17.40    5.20
   0   4  13   20.70    7.40
  -1  -4 -13   -1.60    2.80
  -1  -4 -13   14.20    3.80
  -1  -4 -13    8.50    3.90
   1   4  13    8.50    5.40
  -2  -4 -13   -2.80    1.80
   2   4  13   -3.30    3.70
   0  -2  14   -1.70    4.10
   0  -2  14    8.70    3.90
  -1  -1  14    7.90    3.80
  -1  -1  14    1.60    4.70
   0  -1  14    3.10    3.40
   0  -1  14    0.50    3.80
   1  -1  14   14.20    5.90
   2  -1  14    9.30    5.10
   2  -1  14    6.40    3.80
  -1   0  14   40.50    9.60
   0   0  14    0.80    3.70
   1   0  14    5.80    4.90
   2   0  14    2.00    3.40
   2   0  14    1.70    4.80
   1  -1 -14   -3.10    2.70
   1  -1 -14    4.90    2.10
  -1   1  14    0.20    5.00
   0  -1 -14    2.20    2.70
   0   1  14   -1.80    3.70
   1   1  14   22.00    7.60
   2   1  14    1.10    4.00
   0  -2 -14   34.50    3.90
   0  -2 -14   34.50    3.80
   0  -2 -14   44.30    6.80
   0   2  14   25.20    8.00
  -1  -2 -14   22.00    4.50
   1   2  14   16.30    7.10
   2   2  14   58.79   10.50
   0   0   0    0.00    0.00

_computing_structure_solution     'SHELXT 2018/2 (Sheldrick, 2018)'
;
_shelx_hkl_checksum              45297
_olex2_submission_special_instructions 'No special instructions were received'
loop_
_space_group_symop_operation_xyz
'x, y, z'
'-x, -y, -z'
loop_
_atom_site_label
_atom_site_type_symbol
_atom_site_fract_x
_atom_site_fract_y
_atom_site_fract_z
_atom_site_U_iso_or_equiv
_atom_site_adp_type
_atom_site_occupancy
_atom_site_site_symmetry_order
_atom_site_calc_flag
_atom_site_refinement_flags_posn
S001 S 0.87980(7) 0.35009(8) 0.27709(5) 0.0569(2) Uani 1 1 d .
O002 O 0.33503(18) 0.49058(19) 0.30932(12) 0.0551(4) Uani 1 1 d .
O006 O 0.5894(3) 0.7614(3) -0.02341(15) 0.0908(7) Uani 1 1 d .
N003 N 0.5314(2) 0.3273(2) 0.41907(13) 0.0432(4) Uani 1 1 d .
H003 H 0.650468 0.289467 0.426702 0.052 Uiso 1 1 calc R
N004 N 0.6881(2) 0.1183(2) 0.56546(15) 0.0466(4) Uani 1 1 d .
N005 N 0.4868(2) 0.6378(2) 0.13050(14) 0.0499(5) Uani 1 1 d .
H005 H 0.385674 0.628811 0.171995 0.060 Uiso 1 1 calc R
C00A C 0.6551(3) 0.4450(3) 0.25572(16) 0.0430(5) Uani 1 1 d .
C00B C 0.2212(3) 0.3297(3) 0.51247(17) 0.0491(5) Uani 1 1 d .
H00B H 0.161117 0.404887 0.460367 0.059 Uiso 1 1 calc R
C00C C 0.1985(3) 0.1631(3) 0.67609(19) 0.0557(6) Uani 1 1 d .
H00C H 0.124371 0.124861 0.734819 0.067 Uiso 1 1 calc R
C00D C 0.6524(3) 0.5469(3) 0.16418(16) 0.0449(5) Uani 1 1 d .
C00E C 0.1162(3) 0.2705(3) 0.60044(19) 0.0567(6) Uani 1 1 d .
H00E H -0.014965 0.306369 0.607139 0.068 Uiso 1 1 calc R
C00F C 0.3927(3) 0.1076(3) 0.66844(17) 0.0466(5) Uani 1 1 d .
C00G C 0.9665(3) 0.4474(3) 0.16626(19) 0.0618(7) Uani 1 1 d .
H00G H 1.095284 0.432407 0.143509 0.074 Uiso 1 1 calc R
C00H C 0.4902(4) -0.0040(3) 0.74224(18) 0.0566(6) Uani 1 1 d .
H00H H 0.424624 -0.045914 0.803394 0.068 Uiso 1 1 calc R
C00I C 0.7702(3) 0.0119(3) 0.63655(19) 0.0551(6) Uani 1 1 d .
H00I H 0.900994 -0.023736 0.625948 0.066 Uiso 1 1 calc R
C00J C 0.8334(3) 0.5478(3) 0.11414(18) 0.0560(6) Uani 1 1 d .
H00J H 0.857713 0.612044 0.050937 0.067 Uiso 1 1 calc R
C00K C 0.6768(4) -0.0518(3) 0.7265(2) 0.0613(6) Uani 1 1 d .
H00K H 0.743081 -0.127586 0.775989 0.074 Uiso 1 1 calc R
C00L C 0.4620(3) 0.7393(3) 0.04104(19) 0.0582(6) Uani 1 1 d .
C00M C 0.2648(4) 0.8232(3) 0.0284(2) 0.0720(7) Uani 1 1 d .
H00A H 0.219102 0.788495 -0.039612 0.108 Uiso 1 1 calc GR
H00D H 0.260743 0.940598 0.024866 0.108 Uiso 1 1 calc GR
H00F H 0.185612 0.795405 0.091760 0.108 Uiso 1 1 calc GR
C007 C 0.4940(3) 0.4234(2) 0.32893(16) 0.0411(5) Uani 1 1 d .
C008 C 0.4101(3) 0.2788(2) 0.50200(16) 0.0387(5) Uani 1 1 d .
C009 C 0.5004(3) 0.1658(2) 0.58042(16) 0.0400(5) Uani 1 1 d .
loop_
_atom_site_aniso_label
_atom_site_aniso_U_11
_atom_site_aniso_U_22
_atom_site_aniso_U_33
_atom_site_aniso_U_23
_atom_site_aniso_U_13
_atom_site_aniso_U_12
S001 0.0394(3) 0.0747(5) 0.0519(4) 0.0085(3) 0.0018(2) 0.0003(3)
O002 0.0389(8) 0.0659(11) 0.0565(9) 0.0189(8) -0.0009(7) -0.0025(7)
O006 0.0807(13) 0.1152(17) 0.0689(12) 0.0444(11) 0.0090(10) -0.0090(12)
N003 0.0323(9) 0.0518(11) 0.0445(10) 0.0087(8) 0.0001(7) -0.0068(8)
N004 0.0432(10) 0.0426(10) 0.0542(11) 0.0047(8) -0.0072(8) -0.0072(8)
N005 0.0481(10) 0.0577(12) 0.0424(10) 0.0108(8) -0.0008(8) -0.0074(9)
C00A 0.0374(11) 0.0489(13) 0.0414(11) 0.0011(9) -0.0002(8) -0.0049(9)
C00B 0.0425(12) 0.0541(14) 0.0502(13) 0.0051(10) -0.0021(10) -0.0081(10)
C00C 0.0568(14) 0.0589(15) 0.0528(13) 0.0019(11) 0.0108(11) -0.0194(11)
C00D 0.0468(12) 0.0496(13) 0.0381(11) 0.0013(9) 0.0004(9) -0.0089(10)
C00E 0.0418(12) 0.0629(16) 0.0647(15) 0.0019(12) 0.0076(11) -0.0116(11)
C00F 0.0554(13) 0.0446(13) 0.0424(11) -0.0024(9) 0.0002(10) -0.0163(10)
C00G 0.0433(12) 0.0859(19) 0.0535(14) 0.0014(13) 0.0086(10) -0.0084(12)
C00H 0.0781(17) 0.0501(14) 0.0441(13) 0.0076(10) -0.0026(11) -0.0197(12)
C00I 0.0545(13) 0.0452(14) 0.0647(15) 0.0057(11) -0.0152(11) -0.0033(11)
C00J 0.0504(13) 0.0719(17) 0.0448(12) 0.0042(11) 0.0081(10) -0.0124(12)
C00K 0.0763(17) 0.0500(15) 0.0573(15) 0.0121(11) -0.0187(12) -0.0071(12)
C00L 0.0679(16) 0.0582(16) 0.0479(13) 0.0104(11) -0.0057(12) -0.0108(12)
C00M 0.0795(17) 0.0727(19) 0.0614(16) 0.0154(13) -0.0167(13) -0.0050(14)
C007 0.0371(11) 0.0436(12) 0.0423(11) 0.0031(9) -0.0026(9) -0.0069(9)
C008 0.0382(10) 0.0386(12) 0.0408(11) 0.0007(9) -0.0009(8) -0.0111(8)
C009 0.0442(11) 0.0373(11) 0.0403(11) -0.0016(9) -0.0041(9) -0.0113(9)
loop_
_atom_type_symbol
_atom_type_description
_atom_type_scat_dispersion_real
_atom_type_scat_dispersion_imag
_atom_type_scat_source
C C 0.0033 0.0016 'International Tables Vol C Tables 4.2.6.8 and 6.1.1.4'
H H 0.0000 0.0000 'International Tables Vol C Tables 4.2.6.8 and 6.1.1.4'
N N 0.0061 0.0033 'International Tables Vol C Tables 4.2.6.8 and 6.1.1.4'
O O 0.0106 0.0060 'International Tables Vol C Tables 4.2.6.8 and 6.1.1.4'
S S 0.1246 0.1234 'International Tables Vol C Tables 4.2.6.8 and 6.1.1.4'
loop_
_geom_angle_atom_site_label_1
_geom_angle_atom_site_label_2
_geom_angle_atom_site_label_3
_geom_angle
C00G S001 C00A 91.87(11)
C007 N003 C008 129.99(16)
C00I N004 C009 117.39(19)
C00L N005 C00D 127.81(19)
C00D C00A S001 110.50(15)
C00D C00A C007 125.99(18)
C007 C00A S001 123.46(15)
C008 C00B C00E 119.8(2)
C00E C00C C00F 120.7(2)
N005 C00D C00J 126.29(19)
C00A C00D N005 121.27(18)
C00A C00D C00J 112.43(19)
C00C C00E C00B 121.3(2)
C00C C00F C009 118.7(2)
C00H C00F C00C 124.8(2)
C00H C00F C009 116.4(2)
C00J C00G S001 112.82(17)
C00K C00H C00F 120.3(2)
N004 C00I C00K 123.9(2)
C00G C00J C00D 112.4(2)
C00H C00K C00I 118.9(2)
O006 C00L N005 122.8(2)
O006 C00L C00M 122.4(2)
N005 C00L C00M 114.9(2)
O002 C007 N003 122.62(18)
O002 C007 C00A 121.45(18)
N003 C007 C00A 115.93(16)
N003 C008 C009 113.95(17)
C00B C008 N003 125.99(19)
C00B C008 C009 120.05(19)
N004 C009 C00F 123.06(19)
N004 C009 C008 117.57(18)
C00F C009 C008 119.36(18)
loop_
_geom_bond_atom_site_label_1
_geom_bond_atom_site_label_2
_geom_bond_distance
S001 C00A 1.7222(19)
S001 C00G 1.698(2)
O002 C007 1.230(2)
O006 C00L 1.213(3)
N003 C007 1.352(3)
N003 C008 1.397(2)
N004 C00I 1.314(3)
N004 C009 1.359(2)
N005 C00D 1.387(3)
N005 C00L 1.360(3)
C00A C00D 1.380(3)
C00A C007 1.462(3)
C00B C00E 1.405(3)
C00B C008 1.367(3)
C00C C00E 1.358(3)
C00C C00F 1.409(3)
C00D C00J 1.419(3)
C00F C00H 1.406(3)
C00F C009 1.413(3)
C00G C00J 1.344(3)
C00H C00K 1.352(3)
C00I C00K 1.394(3)
C00L C00M 1.500(3)
C008 C009 1.429(3)
