#------------------------------------------------------------------------------
#$Date: 2019-11-11 19:41:07 +0200 (Mon, 11 Nov 2019) $
#$Revision: 227115 $
#$URL: file:///home/coder/svn-repositories/cod/cif/4/03/56/4035667.cif $
#------------------------------------------------------------------------------
#
# This file is available in the Crystallography Open Database (COD),
# http://www.crystallography.net/
#
# All data on this site have been placed in the public domain by the
# contributors.
#
data_4035667
loop_
_publ_author_name
'Levterov, Vadym V.'
'Michurin, Oleg'
'Borysko, Petro O.'
'Zozulya, Sergey'
'Sadkova, Iryna V.'
'Tolmachev, Andrey A.'
'Mykhailiuk, Pavel K.'
_publ_section_title
;
 Photochemical In-Flow Synthesis of 2,4-Methanopyrrolidines: Pyrrolidine
 Analogues with Improved Water Solubility and Reduced Lipophilicity.
;
_journal_issue                   23
_journal_name_full               'The Journal of organic chemistry'
_journal_page_first              14350
_journal_page_last               14361
_journal_paper_doi               10.1021/acs.joc.8b02071
_journal_volume                  83
_journal_year                    2018
_chemical_formula_moiety         'C7 H10 N, Cl'
_chemical_formula_sum            'C7 H10 Cl N'
_chemical_formula_weight         143.61
_space_group_crystal_system      monoclinic
_space_group_IT_number           14
_space_group_name_Hall           '-P 2ybc'
_space_group_name_H-M_alt        'P 1 21/c 1'
_atom_sites_solution_hydrogens   mixed
_audit_creation_method           SHELXL-2016/4
_cell_angle_alpha                90
_cell_angle_beta                 99.030(9)
_cell_angle_gamma                90
_cell_formula_units_Z            4
_cell_length_a                   7.256(2)
_cell_length_b                   10.418(4)
_cell_length_c                   10.168(3)
_cell_measurement_reflns_used    434
_cell_measurement_temperature    173(2)
_cell_measurement_theta_max      21.86
_cell_measurement_theta_min      2.82
_cell_volume                     759.1(4)
_computing_cell_refinement       'Bruker SMART'
_computing_data_collection       'Bruker SMART'
_computing_data_reduction        'Bruker SAINT'
_computing_molecular_graphics    'Bruker SHELXTL'
_computing_publication_material  'Bruker SHELXTL'
_computing_structure_refinement  'SHELXL-2016/4 (Sheldrick, 2016)'
_computing_structure_solution    'Bruker SHELXTL'
_diffrn_ambient_temperature      173(2)
_diffrn_measured_fraction_theta_full 0.971
_diffrn_measured_fraction_theta_max 0.971
_diffrn_measurement_device_type  'CCD area detector'
_diffrn_measurement_method       'omega scans'
_diffrn_radiation_monochromator  graphite
_diffrn_radiation_source         'sealed tube'
_diffrn_radiation_type           MoK\a
_diffrn_radiation_wavelength     0.71073
_diffrn_reflns_av_R_equivalents  0.0534
_diffrn_reflns_av_unetI/netI     0.0455
_diffrn_reflns_Laue_measured_fraction_full 0.971
_diffrn_reflns_Laue_measured_fraction_max 0.971
_diffrn_reflns_limit_h_max       8
_diffrn_reflns_limit_h_min       -8
_diffrn_reflns_limit_k_max       11
_diffrn_reflns_limit_k_min       -12
_diffrn_reflns_limit_l_max       12
_diffrn_reflns_limit_l_min       -12
_diffrn_reflns_number            6641
_diffrn_reflns_point_group_measured_fraction_full 0.971
_diffrn_reflns_point_group_measured_fraction_max 0.971
_diffrn_reflns_theta_full        25.092
_diffrn_reflns_theta_max         25.092
_diffrn_reflns_theta_min         2.817
_exptl_absorpt_coefficient_mu    0.413
_exptl_absorpt_correction_T_max  0.96
_exptl_absorpt_correction_T_min  0.74
_exptl_absorpt_correction_type   multi-scan
_exptl_absorpt_process_details   SADABS
_exptl_crystal_colour            colourless
_exptl_crystal_density_diffrn    1.256
_exptl_crystal_description       needle
_exptl_crystal_F_000             304
_exptl_crystal_size_max          0.390
_exptl_crystal_size_mid          0.100
_exptl_crystal_size_min          0.100
_refine_diff_density_max         0.233
_refine_diff_density_min         -0.184
_refine_diff_density_rms         0.052
_refine_ls_extinction_method     none
_refine_ls_goodness_of_fit_ref   1.028
_refine_ls_hydrogen_treatment    mixed
_refine_ls_matrix_type           full
_refine_ls_number_parameters     94
_refine_ls_number_reflns         1315
_refine_ls_number_restraints     0
_refine_ls_restrained_S_all      1.028
_refine_ls_R_factor_all          0.0528
_refine_ls_R_factor_gt           0.0376
_refine_ls_shift/su_max          0.010
_refine_ls_shift/su_mean         0.002
_refine_ls_structure_factor_coef Fsqd
_refine_ls_weighting_details
'w=1/[\s^2^(Fo^2^)+(0.0413P)^2^+0.1750P] where P=(Fo^2^+2Fc^2^)/3'
_refine_ls_weighting_scheme      calc
_refine_ls_wR_factor_gt          0.0822
_refine_ls_wR_factor_ref         0.0875
_reflns_Friedel_coverage         0.000
_reflns_number_gt                1057
_reflns_number_total             1315
_reflns_threshold_expression     'I > 2\s(I)'
_cod_data_source_file            jo8b02071_si_005.cif
_cod_data_source_block           xray79
_cod_original_cell_volume        759.2(5)
_cod_original_sg_symbol_H-M      'P 21/c'
_cod_database_code               4035667
_shelx_shelxl_version_number     2016/4
_shelx_space_group_comment
;
The symmetry employed for this shelxl refinement is uniquely defined
by the following loop, which should always be used as a source of
symmetry information in preference to the above space-group names.
They are only intended as comments.
;
_shelx_estimated_absorpt_t_min   0.855
_shelx_estimated_absorpt_t_max   0.960
_shelx_res_file
;
TITL xray79 in P2(1)/c
 xray79.res created by SHELXL-2016/4 at 18:52:03 on 25-Jul-2018
CELL 0.71073   7.2562  10.4182  10.1684  90.000  99.030  90.000
ZERR    4.00   0.0024   0.0041   0.0034   0.000   0.009   0.000
LATT 1
SYMM -X, 0.5+Y, 0.5-Z
SFAC C  H  N  Cl
UNIT 28  40  4  4
L.S. 4
BOND
omit 0 50.2
acta
FMAP 2
PLAN 20
SIZE 0.10 0.10 0.39
TEMP -100
WGHT    0.041300    0.175000
FVAR       0.97303
CL1   4    0.627189    0.283553    0.990951    11.00000    0.02620    0.03219 =
         0.02428   -0.00443    0.00231   -0.00251
N1    3    0.399390    0.180760    0.723163    11.00000    0.02077    0.02676 =
         0.01750   -0.00395   -0.00043   -0.00206
H11   2    0.449723    0.219829    0.796456    11.00000    0.01931
H12   2    0.479744    0.187031    0.663246    11.00000    0.03314
C1    1    0.349167    0.042374    0.750233    11.00000    0.03135    0.02453 =
         0.02522    0.00150    0.00278    0.00326
AFIX  23
H1A   2    0.412463   -0.019454    0.698361    11.00000   -1.20000
H1B   2    0.376928    0.020798    0.846119    11.00000   -1.20000
AFIX   0
C2    1    0.141461    0.049327    0.700873    11.00000    0.02568    0.02406 =
         0.02644    0.00059    0.00163   -0.00439
AFIX  13
H2    2    0.061898   -0.028649    0.703991    11.00000   -1.20000
AFIX   0
C3    1    0.086614    0.177187    0.761923    11.00000    0.02454    0.03197 =
         0.02311    0.00010    0.00525    0.00004
AFIX  23
H3A   2    0.135847    0.188527    0.857661    11.00000   -1.20000
H3B   2   -0.047419    0.199466    0.740982    11.00000   -1.20000
AFIX   0
C4    1    0.210014    0.234164    0.665729    11.00000    0.01877    0.02329 =
         0.02005   -0.00037   -0.00096   -0.00015
C5    1    0.135498    0.124584    0.568629    11.00000    0.02303    0.02602 =
         0.01939   -0.00374   -0.00294   -0.00417
AFIX  23
H5A   2    0.008960    0.138815    0.518213    11.00000   -1.20000
H5B   2    0.223967    0.094090    0.510600    11.00000   -1.20000
AFIX   0
C6    1    0.214700    0.368714    0.629735    11.00000    0.02040    0.02753 =
         0.02038   -0.00400   -0.00072   -0.00193
C7    1    0.213973    0.477800    0.597720    11.00000    0.02755    0.02697 =
         0.02960   -0.00169    0.00061    0.00032
H7    2    0.211847    0.562778    0.571392    11.00000    0.04212

HKLF 4




REM  xray79 in P2(1)/c
REM R1 =  0.0376 for    1057 Fo > 4sig(Fo)  and  0.0528 for all    1315 data
REM     94 parameters refined using      0 restraints

END

WGHT      0.0362      0.1785

REM Highest difference peak  0.233,  deepest hole -0.184,  1-sigma level  0.052
Q1    1   0.1849  0.1932  0.6025  11.00000  0.05    0.23
Q2    1   0.1382  0.0824  0.6293  11.00000  0.05    0.22
Q3    1   0.0857  0.1943  0.8445  11.00000  0.05    0.22
Q4    1   0.2855  0.4007  0.5960  11.00000  0.05    0.22
Q5    1   0.7164  0.2754  0.9302  11.00000  0.05    0.20
Q6    1   0.5367  0.2783  1.0518  11.00000  0.05    0.20
Q7    1   0.1320  0.2168  0.7060  11.00000  0.05    0.20
Q8    1   0.5743  0.3662  0.9834  11.00000  0.05    0.19
Q9    1   0.6998  0.3465  1.0780  11.00000  0.05    0.19
Q10   1   0.6245  0.1756  1.0008  11.00000  0.05    0.18
Q11   1   0.7400  0.2064  0.9520  11.00000  0.05    0.18
Q12   1   0.7286  0.3767  0.9526  11.00000  0.05    0.18
Q13   1   0.5603  0.1527  0.5853  11.00000  0.05    0.18
Q14   1   0.1218 -0.0177  0.7109  11.00000  0.05    0.18
Q15   1   0.2930  0.2144  0.6960  11.00000  0.05    0.18
Q16   1   0.4913  0.2510  0.9116  11.00000  0.05    0.16
Q17   1   0.2434  0.0598  0.7231  11.00000  0.05    0.16
Q18   1   0.4486  0.0585  0.8651  11.00000  0.05    0.16
Q19   1   0.0170  0.1583  0.5662  11.00000  0.05    0.16
Q20   1   0.1159  0.1014  0.7558  11.00000  0.05    0.16
;
_shelx_res_checksum              4644
_shelx_hkl_file
;
   1   0   0  228.81   10.35
  -1   0   0  225.60    9.92
   1   0   0  213.46    9.69
  -1   0   0  211.04   10.22
  -2   0   0 1351.72   46.48
   2   0   0 1337.21   45.73
  -2   0   0 1260.69   45.82
   2   0   0 1271.28   45.70
  -3   0   0    8.61    4.01
   3   0   0    3.17    3.95
  -3   0   0   -3.22    3.37
  -4   0   0 2878.63   97.36
  -4   0   0 2790.09   99.00
  -5   0   0 1260.20   57.96
  -5   0   0 1300.71   53.04
  -6   0   0    9.83    7.08
  -6   0   0   -3.50    8.15
  -7   0   0  634.75   37.69
  -7   0   0  618.08   44.39
  -8   0   0  326.67   39.35
   0  -1   0   -1.83    1.40
   0   1   0    0.64    2.18
   0  -1   0   -3.54    1.72
   0   1   0   -0.26    1.60
   1   1   0 1599.90   52.77
  -1   1   0 1569.12   49.17
  -1   1   0 1638.41   54.27
   1  -1   0 1628.18   54.18
   1   1   0 1603.78   51.52
  -1   1   0 1560.40   49.91
  -1  -1   0 1646.89   53.35
   1  -1   0 1655.87   50.02
   1  -1   0 1500.66   48.88
   2  -1   0 5254.98  167.02
   2  -1   0 5344.53  157.64
  -2   1   0 5142.56  158.05
  -2   1   0 5479.12  167.80
   2   1   0 5282.05  165.09
   2   1   0 5319.82  159.62
  -2  -1   0 5182.64  165.77
  -3  -1   0  136.01   14.37
   3  -1   0  117.28   12.01
  -3   1   0  110.48   12.04
   3   1   0  183.19   14.60
   3  -1   0  123.34   11.26
  -3  -1   0  124.09   10.80
  -4  -1   0  365.77   21.74
  -4  -1   0  394.21   26.07
  -4   1   0  366.52   24.21
   4  -1   0  415.98   23.24
   5  -1   0  328.73   22.90
  -5  -1   0  357.67   23.34
  -5  -1   0  391.32   28.64
  -5   1   0  340.56   25.92
  -5   1   0  362.94   23.02
  -6   1   0  213.37   24.95
  -6   1   0  141.95   17.09
  -6  -1   0  137.85   22.50
  -6  -1   0  197.22   20.35
  -7  -1   0   38.30   15.96
  -7  -1   0   38.92   12.87
  -7   1   0   34.71   10.22
  -7   1   0    0.21    9.66
  -8  -1   0   13.75   15.36
  -8   1   0    3.25   12.54
   0   2   0 2423.67   80.17
   0   2   0 2408.99   74.32
   0   2   0 2347.48   70.19
   0  -2   0 2298.78   73.99
   0  -2   0 2402.57   80.26
   1   2   0 1313.55   45.62
  -1   2   0 1282.58   41.89
   1   2   0 1349.18   47.37
   1  -2   0 1246.74   41.59
   1  -2   0 1309.48   37.17
  -1   2   0 1320.83   44.00
  -1  -2   0 1244.34   45.66
  -1  -2   0 1290.11   47.52
   1  -2   0 1273.76   48.39
   1  -2   0 1259.81   43.78
  -1   2   0 1262.86   48.53
  -2   2   0  250.66   14.78
   2  -2   0  292.27   18.05
   2  -2   0  298.17   15.72
   2  -2   0  267.40   15.23
  -2  -2   0  276.00   16.86
   2   2   0  290.34   18.03
   2   2   0  276.00   15.80
  -2  -2   0  299.24   18.47
  -3  -2   0  589.23   30.52
   3  -2   0  559.14   28.74
   3  -2   0  533.78   26.99
  -3   2   0  612.08   28.52
   3  -2   0  632.92   27.91
  -3  -2   0  557.91   27.79
  -4  -2   0  537.02   32.40
  -4  -2   0  556.04   29.07
  -4   2   0  549.54   29.89
   4  -2   0  528.49   29.24
   4  -2   0  559.75   29.70
  -5  -2   0  323.77   23.06
  -5   2   0  351.97   25.64
   5  -2   0  301.89   22.72
   5  -2   0  306.47   23.66
  -5  -2   0  317.46   27.09
  -6  -2   0   84.24   15.64
  -6  -2   0   71.93   18.28
   6  -2   0   69.14   13.78
  -6   2   0   90.75   17.93
   6  -2   0   75.96   15.76
  -7  -2   0  233.79   31.68
  -7   2   0  179.88   26.66
  -7   2   0  223.32   20.55
  -7  -2   0  196.49   24.19
  -8   2   0   70.18   20.57
  -8  -2   0   88.37   24.24
   0  -3   0    1.43    6.86
   0   3   0   -1.17    4.22
   0   3   0    5.08    2.89
   0  -3   0   -0.52    4.11
  -1  -3   0 2756.74   94.45
  -1   3   0 2732.04   75.69
   1   3   0 2658.39   88.35
   1  -3   0 2682.98   75.33
  -1  -3   0 2784.59   89.45
  -1   3   0 2703.32   86.58
   1  -3   0 2667.99   86.45
  -1   3   0 2722.91   82.66
   1  -3   0 2669.95   94.32
   1  -3   0 2662.74   82.27
   2  -3   0  523.66   17.20
   2  -3   0  494.65   27.65
   2   3   0  549.57   27.31
  -2  -3   0  497.33   27.18
  -2  -3   0  497.87   27.09
   2  -3   0  475.84   22.91
  -2   3   0  484.49   23.31
  -2   3   0  496.74   24.62
  -2   3   0  475.54   22.84
   3  -3   0  452.80   24.64
   3  -3   0  501.45   25.21
  -3  -3   0  450.10   28.47
  -3  -3   0  488.73   27.70
  -3   3   0  471.30   24.97
   3  -3   0  517.13   28.71
  -4  -3   0   14.52    8.24
   4  -3   0    3.10    5.05
  -4  -3   0   -6.96    5.75
   4  -3   0    8.92    6.61
  -4   3   0    5.73    5.38
   5  -3   0  702.08   38.58
  -5  -3   0  783.10   40.44
  -5   3   0  683.27   38.81
  -5  -3   0  730.97   43.70
   5  -3   0  798.82   41.09
  -6   3   0  113.04   19.28
  -6  -3   0  184.90   27.16
  -6  -3   0  152.49   21.12
   6  -3   0  160.44   20.91
   6  -3   0  157.01   21.11
   7  -3   0   69.80   15.85
  -7  -3   0   58.29   19.38
  -7  -3   0   50.09   16.41
  -7   3   0   53.67   16.39
  -8   3   0   -5.69   12.14
  -8   3   0   31.66    9.93
  -8  -3   0  -20.43   12.26
   0  -4   0 1128.04   51.05
   0  -4   0 1193.39   46.37
   0   4   0 1221.94   46.89
   0   4   0 1205.16   41.68
  -1  -4   0  932.84   41.50
   1  -4   0 1017.31   45.42
  -1   4   0  937.04   36.12
  -1  -4   0  994.67   45.31
  -1   4   0  993.68   29.59
   1   4   0  982.97   41.73
   1  -4   0  938.51   35.98
   1  -4   0  951.64   39.42
  -1   4   0  981.61   39.79
   2  -4   0   82.19   10.22
  -2   4   0   79.82   10.08
  -2   4   0   69.15    9.61
  -2   4   0   78.71   11.16
  -2  -4   0   90.74   14.23
   2  -4   0   94.48   14.83
  -2  -4   0   95.41   15.29
   2  -4   0   82.73    4.98
   3  -4   0  375.04   22.49
  -3   4   0  355.11   21.82
  -3  -4   0  409.64   28.14
   3  -4   0  365.11   26.15
   3  -4   0  401.78   15.72
  -3  -4   0  369.23   26.57
  -4  -4   0  139.18   18.86
   4  -4   0  154.49   16.99
   4  -4   0  181.13   20.24
  -4  -4   0  118.04   18.96
  -4   4   0  124.15   15.50
   5  -4   0  258.15   24.04
  -5   4   0  226.06   22.88
   5  -4   0  283.08   24.65
  -5  -4   0  228.63   24.52
  -5  -4   0  288.14   30.27
  -6  -4   0    7.98   11.95
  -6   4   0   10.78    8.56
   6  -4   0   28.43   11.11
   6  -4   0   26.79   10.82
  -6  -4   0   15.61   13.15
  -7   4   0  228.07   28.79
  -7  -4   0  243.32   34.10
   7  -4   0  209.38   26.62
  -7  -4   0  226.41   29.01
  -8   4   0   19.56   14.59
  -8  -4   0   21.57   18.38
   8  -4   0   56.70   17.02
   0   5   0    1.30    3.30
   0  -5   0    4.34    9.02
   0   5   0    1.44    6.18
   0   5   0    1.63    3.01
   0  -5   0   -1.15    5.13
  -1   5   0   15.32    3.31
  -1   5   0   17.67    5.51
   1  -5   0   18.14    5.53
  -1  -5   0   14.33   10.15
   1  -5   0    3.64    4.99
  -1   5   0   11.97    6.16
  -1  -5   0   27.86    9.11
   1  -5   0    4.92    9.02
   2  -5   0  178.53   21.08
  -2  -5   0  140.68   19.64
  -2   5   0  163.88   13.84
  -2  -5   0  132.67   17.73
   2  -5   0  115.40   14.47
   2  -5   0  164.45   13.33
   3  -5   0  430.17   25.37
  -3  -5   0  468.97   32.12
   3  -5   0  403.45   30.06
  -3  -5   0  417.99   31.58
  -3   5   0  430.11   25.11
   3  -5   0  463.02   15.99
  -3   5   0  438.69   26.08
   4  -5   0   20.32    5.13
   4  -5   0   19.34    7.95
  -4  -5   0   41.60   14.08
   4  -5   0    4.38    8.34
  -4  -5   0   29.08   13.15
  -4   5   0   16.94    7.21
  -5  -5   0  -13.87   10.66
  -5   5   0    0.08    5.87
   5  -5   0   -5.23    6.73
  -5  -5   0    0.05   11.11
   5  -5   0    1.67    6.29
   6  -5   0   34.02   12.42
   6  -5   0   25.14   11.49
  -6  -5   0   14.13   14.62
  -6  -5   0   43.27   17.90
  -6   5   0   39.48   12.54
  -7  -5   0  116.98   25.96
  -7   5   0  126.57   22.90
   7  -5   0  122.68   22.84
  -7  -5   0  119.69   28.08
  -8   5   0   -1.02   12.41
  -8  -5   0   -2.30   17.68
   8  -5   0   12.35   12.02
   0  -6   0   34.45   10.15
   0   6   0   52.31    7.35
   0  -6   0   47.67   14.99
   0   6   0   43.23    8.61
  -1   6   0    6.97    3.04
   1  -6   0   15.00    7.13
   1  -6   0   11.62   10.67
  -1  -6   0   10.31   11.27
  -1  -6   0    3.79    7.26
  -1   6   0   11.63    5.30
  -2  -6   0   74.78   15.77
  -2  -6   0   82.88   18.78
   2  -6   0  104.22   14.91
   2  -6   0   63.86   10.88
  -2   6   0  117.61   13.73
   2  -6   0   94.19   18.99
  -3   6   0   -3.91    4.78
  -3   6   0   -4.05    3.67
  -3  -6   0    7.02   12.73
   3  -6   0   -4.79    7.67
   3  -6   0    0.40    5.03
  -3  -6   0  -10.91    7.39
  -4   6   0   -2.62    4.98
   4  -6   0   11.12   10.16
  -4  -6   0    0.68   13.53
  -4  -6   0    9.13   10.78
   4  -6   0    3.86    6.65
  -5   6   0    0.49    6.87
  -5  -6   0   13.53   13.56
   5  -6   0    6.52    7.51
  -5  -6   0    8.04   14.69
   5  -6   0    4.21    9.42
   6  -6   0  126.42   22.62
  -6   6   0   59.84   16.14
   6  -6   0  120.62   20.48
  -6  -6   0  106.53   24.61
  -6  -6   0   57.12   21.74
  -7   6   0   22.79   13.08
  -7  -6   0  -13.88   16.68
   7  -6   0   14.73   11.00
  -7  -6   0  -21.51   12.54
   0  -7   0   -2.34    6.23
   0  -7   0   12.54   11.95
   0   7   0    1.88    4.02
   0   7   0    5.17    4.80
   1  -7   0  199.14   20.95
  -1   7   0  161.77   10.07
  -1   7   0  168.36   16.34
   1  -7   0  190.58   26.46
   1   7   0  122.69   14.56
  -1  -7   0  217.70   23.52
  -1  -7   0  174.40   26.33
   2  -7   0  133.81   23.34
  -2   7   0  170.28   17.39
   2  -7   0  127.37   15.37
  -2  -7   0  163.44   25.91
  -2  -7   0  127.42   20.42
   2  -7   0  130.43   17.90
   3  -7   0  249.59   30.23
   3  -7   0  276.85   21.29
  -3  -7   0  244.22   31.67
  -3   7   0  220.31   21.35
  -3   7   0  247.19   20.68
  -3  -7   0  237.15   28.10
  -4   7   0   29.01    9.58
   4  -7   0   45.14   11.77
  -4  -7   0   29.56   15.55
   4  -7   0   21.04   12.87
  -4  -7   0   37.80   19.29
  -5   7   0   27.00   10.67
   5  -7   0   27.07   13.48
   5  -7   0   31.63   11.93
  -5  -7   0   51.99   19.00
  -5  -7   0   10.45   18.25
  -6  -7   0   14.51   16.50
   6  -7   0   -6.78    8.09
  -6  -7   0   -9.11   17.03
  -6   7   0    7.38    9.96
  -7  -7   0   17.41   19.20
  -7   7   0   24.82   13.83
   7  -7   0   47.66   16.46
   0   8   0   34.99    9.13
   0  -8   0   30.21   11.32
   0  -8   0   14.71   13.90
   0   8   0   30.48    7.17
   1   8   0   71.43   12.44
   1  -8   0   69.11   20.32
  -1   8   0   35.94    9.54
  -1  -8   0   74.30   16.33
  -1  -8   0   33.82   17.94
  -1   8   0   59.58    7.22
   1  -8   0   55.43   13.57
   1   8   0   64.52   11.03
   2  -8   0  148.30   20.55
  -2   8   0  136.50   17.51
   2  -8   0  187.71   19.51
  -2  -8   0  164.28   24.36
  -2  -8   0  208.12   31.49
   2  -8   0  159.80   27.58
  -3   8   0  130.14   17.84
   3  -8   0  106.83   24.10
   3  -8   0  164.78   19.55
  -3  -8   0  163.81   29.88
  -3  -8   0  146.40   25.39
  -4  -8   0  137.04   25.90
  -4   8   0  205.62   23.12
   4  -8   0  214.21   31.09
   4  -8   0  218.62   23.15
  -4  -8   0  187.45   33.31
  -5  -8   0   19.64   15.52
   5  -8   0   17.89   10.91
  -5   8   0   19.11   10.50
  -5  -8   0  -15.67   15.99
   5  -8   0   18.65   13.10
   6  -8   0    1.77    9.68
  -6   8   0   24.11   12.37
  -6  -8   0   11.90   17.38
  -6  -8   0    1.63   20.39
  -7   8   0   10.68   12.67
  -7  -8   0   15.21   20.39
   7  -8   0   25.98   14.57
   0   9   0   -1.56    4.92
   0  -9   0   -3.68    7.56
   0  -9   0    4.58   13.67
  -1  -9   0  295.68   36.99
   1   9   0  283.33   20.08
  -1   9   0  331.37   16.34
   1  -9   0  343.91   28.81
  -1  -9   0  261.67   29.17
   1  -9   0  239.86   33.56
   2  -9   0    4.52    8.26
  -2  -9   0    7.08   10.67
   2  -9   0   17.20   15.22
   2   9   0    2.84    7.05
  -2  -9   0   10.58   16.10
   3  -9   0   22.50   15.23
  -3  -9   0   43.79   21.59
   3  -9   0   47.39   12.89
  -3  -9   0   48.27   16.78
  -3   9   0   62.73   14.64
   4  -9   0   39.64   17.45
  -4   9   0   73.69   16.22
  -4  -9   0   13.43   14.99
   4  -9   0   46.41   13.58
  -4  -9   0   48.51   23.54
  -5   9   0   36.00   12.63
  -5  -9   0   46.14   24.25
   5  -9   0   42.29   17.13
  -5  -9   0   16.13   18.15
  -6  -9   0   34.36   25.75
  -6  -9   0   48.51   22.83
  -6   9   0  105.62   22.05
   6  -9   0   85.12   23.05
   0 -10   0    6.28   15.59
   0  10   0    6.86    5.57
   0 -10   0   10.56   10.42
  -1 -10   0   61.59   22.16
   1 -10   0   57.05   16.18
   1 -10   0   31.86   18.46
   1  10   0   69.33   12.18
  -1 -10   0   50.41   15.96
   2 -10   0   40.29   14.19
  -2 -10   0   26.24   14.00
   2 -10   0    1.51   13.37
   2  10   0   33.81   10.89
  -2 -10   0   26.52   20.26
  -3 -10   0   20.01   20.60
  -3 -10   0   26.89   15.49
  -3  10   0   44.61   13.12
   3  10   0   51.18   13.94
   3 -10   0   44.08   19.26
   4 -10   0   19.74   14.71
  -4 -10   0   27.80   22.93
  -4 -10   0   13.74   16.09
  -4  10   0   31.85   12.51
   5 -10   0   27.04   15.58
  -5 -10   0  -10.55   21.27
  -5  10   0    8.03   10.47
  -5 -10   0   25.02   19.11
   0 -11   0   10.88   16.64
   0 -11   0   11.82   11.00
   1  11   0    6.50    7.65
   1 -11   0   17.94   12.41
  -1 -11   0   13.20   18.88
   1 -11   0    4.34   14.45
  -1 -11   0    8.33   11.57
   2 -11   0  129.04   30.37
   2 -11   0  114.73   22.79
  -2 -11   0   72.32   20.79
  -2 -11   0   96.49   27.46
   2  11   0  116.62   17.19
   3 -11   0   96.60   26.09
   3  11   0   46.75   13.19
  -3 -11   0   75.73   22.80
  -3 -11   0   23.07   21.72
  -3  11   0   95.61   19.05
  -4 -11   0   10.68   23.10
   4  11   0    9.17    9.88
  -4  11   0   20.65   11.70
  -4 -11   0   16.40   15.90
   4 -11   0   21.45   15.24
   0 -12   0  302.71   36.59
   0 -12   0  249.30   40.31
  -1 -12   0   29.39   16.49
  -1 -12   0   18.63   21.23
   1 -12   0    9.05   11.97
   1 -12   0   29.49   22.78
   2 -12   0   74.58   26.62
   2 -12   0   41.29   16.99
  -2 -12   0   26.95   15.81
  -2 -12   0   34.33   23.61
  -3 -12   0   28.74   18.29
   3  12   0   13.05   10.16
  -3  12   0   17.20   11.97
  -3 -12   0    1.68   20.39
   3 -12   0    5.26   15.72
   0 -13   0    1.88   18.43
   0 -13   0   14.16   14.78
  -9   0   1  -25.51   12.96
  -8   0   1   20.84   10.75
  -8   0   1   -0.99   11.97
  -7   0   1    4.13    7.45
  -7   0   1    5.73   10.79
  -6   0   1   -0.16    5.77
  -6   0   1  -11.72    5.98
  -5   0   1    0.64    6.08
  -5   0   1   -3.68    4.64
  -4   0   1   -0.46    3.63
  -4   0   1   -5.31    3.72
  -3   0   1   -6.70    3.24
  -3   0   1   -1.39    3.32
   3   0  -1   -2.38    3.45
  -2   0   1   -5.15    3.06
  -2   0   1    1.69    3.75
   2   0  -1   -3.97    3.12
  -2   0   1  -13.92    3.18
   2   0  -1   -0.69    3.03
  -1   0   1    0.51    2.07
   1   0  -1   -1.45    1.64
  -1   0   1   -2.15    1.78
  -1   0   1    1.10    2.13
   1   0  -1   -1.02    1.85
   1   0  -1    1.00    1.82
   1   0  -1    2.47    2.09
   0   0   1   -0.05    1.05
   0   0  -1    0.01    0.70
   0   0   1   -0.92    0.94
   0   0   1    1.38    1.04
   0   0  -1   -0.60    0.88
   0   0  -1    0.19    0.79
   1   0   1   -4.37    0.96
  -1   0  -1   -4.81    2.10
  -1   0  -1   -3.61    1.53
   1   0   1    0.32    2.53
   2   0   1   -1.67    2.17
  -2   0  -1   -0.15    2.47
  -2   0  -1   -1.48    3.30
   2   0   1   -0.10    3.03
  -3   0  -1    8.74    5.06
  -3   0  -1    1.37    2.90
   3   0   1    4.41    4.05
  -3   0  -1   -2.12    2.99
  -4   0  -1    2.50    5.67
  -4   0  -1    1.35    3.40
  -5   0  -1    0.52    4.42
  -5   0  -1    3.59    6.76
  -6   0  -1    0.01    8.83
  -6   0  -1    0.00    5.67
  -7   0  -1   12.11    8.08
  -7   0  -1    0.00   11.41
  -8   0  -1  -13.63   12.42
  -9   1   1   -7.80   15.01
  -9  -1   1  -17.11   15.17
  -8   1   1   70.65   21.07
  -8  -1   1   84.33   22.86
  -8  -1   1  140.92   23.03
  -8   1   1  124.88   20.58
  -7  -1   1   -4.74    9.89
  -7  -1   1   19.02   10.96
  -7   1   1    4.16    9.84
  -7   1   1   26.61    9.61
   7  -1  -1   16.56   10.39
  -6  -1   1    4.62    9.09
  -6   1   1   -2.67    5.50
  -6  -1   1    3.46    7.04
   6  -1  -1    1.19    6.76
  -6   1   1   10.35    8.40
   5  -1  -1  370.30   25.52
  -5  -1   1  358.21   24.67
  -5  -1   1  428.23   29.67
  -5   1   1  388.51   25.12
  -5   1   1  398.67   28.08
   4  -1  -1  163.14   15.08
  -4  -1   1  188.03   15.30
  -4   1   1  149.06   16.70
  -4  -1   1  118.57   15.64
   3  -1  -1 1977.61   67.36
   3  -1  -1 1930.93   71.75
  -3  -1   1 1973.53   70.83
  -3   1   1 1984.49   69.36
  -3  -1   1 1806.70   69.57
   3  -1  -1 2099.61   69.32
   3   1  -1 2028.48   70.08
  -2  -1   1  123.68   10.41
   2  -1  -1  116.40   10.62
  -2  -1   1   99.46   10.37
   2   1  -1  113.76   10.05
   2  -1  -1  108.72    9.72
  -2   1   1  125.18   10.35
   2  -1  -1  129.69    9.90
  -2   1   1  146.32   12.60
   2   1  -1  121.25   10.41
  -1   1   1  792.93   27.16
  -1   1   1  781.28   27.72
   1   1  -1  782.50   26.62
  -1   1   1  795.34   23.74
   1  -1  -1  767.93   30.36
  -1  -1   1  805.76   28.24
  -1  -1   1  762.34   29.79
  -1   1   1  756.07   30.33
   1  -1  -1  792.66   27.07
   1   1  -1  774.34   27.79
   1   1  -1  821.33   29.99
   1  -1  -1  769.43   23.67
   0  -1  -1  110.66    7.19
   0   1  -1   95.23    7.09
   0   1  -1  100.13    4.18
   0  -1   1  100.31    4.16
   0   1  -1  103.46    5.81
   0  -1   1   89.20    5.56
   0   1   1  109.70    6.92
   0  -1  -1   88.76    6.60
   0   1   1  109.18    7.07
   0   1  -1  100.37    4.80
   0  -1   1  104.67    5.04
   0  -1   1   99.20    7.32
   1  -1   1  998.50   34.94
  -1  -1  -1  944.98   34.83
  -1  -1  -1  988.37   33.66
   1   1   1  988.62   33.08
  -1   1  -1  947.90   31.44
   1  -1   1  960.32   31.20
   1   1   1  989.47   34.75
   2   1   1  632.96   27.06
   2  -1   1  610.39   24.84
  -2  -1  -1  634.59   23.57
   2   1   1  592.72   22.64
  -2  -1  -1  562.87   26.74
   2  -1   1  610.01   24.47
  -2   1  -1  599.20   24.70
  -3  -1  -1  856.13   33.47
   3  -1   1  811.80   34.16
  -3  -1  -1  916.92   33.97
  -3  -1  -1  833.31   38.10
   3   1   1  863.73   37.57
   3  -1   1  905.90   35.87
  -3   1  -1  863.89   36.30
  -4  -1  -1  652.89   36.04
  -4   1  -1  735.16   35.60
   4  -1   1  692.25   31.50
  -4  -1  -1  708.76   31.10
  -5   1  -1  109.28   16.65
  -5   1  -1  108.87   12.51
  -5  -1  -1   98.00   16.78
  -5  -1  -1  105.38   13.19
   5  -1   1  110.75   13.39
  -6   1  -1  100.25   13.97
  -6  -1  -1  101.23   14.68
  -6  -1  -1   79.80   18.17
  -6   1  -1   84.61   17.76
  -7  -1  -1   76.07   19.84
  -7   1  -1  102.96   21.46
  -7   1  -1  117.49   16.54
  -8   1  -1   -0.03   13.43
  -8  -1  -1    8.53   14.52
  -8   2   1   -0.39   11.92
  -8   2   1   30.65   11.18
  -8  -2   1   12.83   12.08
  -8  -2   1   -6.72   12.76
  -7   2   1   14.22    7.95
  -7  -2   1    8.13   10.25
  -7   2   1    4.51    9.19
  -7  -2   1   -2.56   10.44
   7  -2  -1    2.29    7.71
  -6  -2   1  219.28   23.57
   6  -2  -1  195.67   22.42
  -6  -2   1  156.93   23.72
   6  -2  -1  143.21   19.73
  -6   2   1  158.35   22.51
  -5  -2   1   17.10   10.19
  -5  -2   1   17.81    8.62
   5  -2  -1   24.14    8.92
  -5   2   1   24.51    9.26
   5  -2  -1   26.47    9.13
  -4  -2   1  526.22   32.45
   4  -2  -1  582.09   32.11
   4  -2  -1  635.60   31.60
  -4  -2   1  601.78   31.63
  -4   2   1  542.48   30.80
   3  -2  -1   -2.58    4.01
   3  -2  -1   -0.92    3.47
  -3  -2   1   -2.48    4.18
  -3  -2   1   -6.96    3.12
  -3   2   1   -4.65    2.53
   3  -2  -1   -3.03    2.91
  -2  -2   1  144.41   12.43
  -2   2   1  131.15   10.72
   2  -2  -1  140.25   13.44
  -2   2   1  125.58   10.62
   2   2  -1  128.36   11.26
  -2  -2   1   91.41   10.92
   2  -2  -1  132.01   10.62
   2  -2  -1  155.03   11.59
   1  -2  -1  199.87   13.43
  -1   2   1  227.59   17.19
  -1  -2   1  201.82   13.49
   1   2  -1  234.16   12.49
  -1   2   1  195.85   13.49
   1  -2  -1  208.01   11.93
   1  -2  -1  184.03   15.33
  -1   2   1  215.93   12.10
   1   2  -1  217.08   13.17
  -1  -2   1  254.03   16.38
   1   2  -1  227.17   15.12
   0   2  -1 2250.38   79.19
   0  -2  -1 2662.35   87.66
   0   2  -1 2620.70   76.23
   0   2  -1 2714.44   88.27
   0  -2   1 2758.88   80.44
   0   2  -1 2685.72   75.20
   0   2   1 2777.33   88.05
   0  -2   1 2729.83   88.87
   0   2   1 2461.33   82.41
   0  -2   1 2682.19   75.05
  -1   2  -1   78.46    6.21
   1   2   1   75.78    9.58
   1  -2   1   78.49    6.57
  -1  -2  -1   78.92    9.67
   1  -2   1   74.32   10.36
  -1   2  -1   76.07    6.37
  -1   2  -1  115.09   11.99
   1  -2   1   69.86    5.63
  -1   2  -1   81.49    6.21
   1   2   1   96.70    9.67
  -1  -2  -1   86.18    9.80
  -2  -2  -1 1730.56   65.63
  -2  -2  -1 1857.30   64.58
   2  -2   1 1816.55   60.73
  -2   2  -1 1872.30   61.25
   2   2   1 1886.05   65.64
  -2   2  -1 1972.59   67.63
   2  -2   1 1885.95   66.54
   2  -2   1 1858.79   60.42
   2   2   1 1920.77   63.51
  -3   2  -1    5.88    4.56
  -3  -2  -1    5.11    6.21
  -3  -2  -1   11.84    5.81
   3  -2   1   15.34    5.22
   3  -2   1   -1.99    4.25
   3   2   1   13.53    4.47
   4  -2   1  523.59   28.10
  -4   2  -1  523.28   29.11
  -4  -2  -1  575.61   28.03
  -4  -2  -1  549.39   33.15
  -5  -2  -1   30.89    9.61
   5  -2   1   20.23    7.76
  -5  -2  -1   29.55   11.69
  -5   2  -1   33.64   10.85
  -6  -2  -1  386.78   35.50
  -6   2  -1  331.13   28.19
   6  -2   1  304.62   26.07
  -6  -2  -1  314.99   24.13
   6  -2   1  348.44   24.76
  -7   2  -1   76.03   13.68
  -7  -2  -1   55.76   18.84
  -7   2  -1   80.89   19.07
  -8   2  -1   44.18   19.38
  -8  -2  -1   70.08   23.41
  -8  -3   1  100.44   26.00
  -8   3   1  153.45   22.52
  -8   3   1   72.51   20.10
  -8  -3   1   90.29   21.58
  -7  -3   1  243.81   29.01
   7  -3  -1  217.53   27.12
  -7  -3   1  219.82   32.11
  -7   3   1  249.08   30.60
   6  -3  -1    3.56    8.32
   6  -3  -1   23.15   10.12
  -6  -3   1   -0.79    8.68
  -6   3   1   13.55    8.67
  -6  -3   1   -4.73    9.64
   5  -3  -1  360.48   25.96
  -5   3   1  394.39   27.57
  -5  -3   1  385.95   28.07
  -5  -3   1  333.54   28.76
   5  -3  -1  363.80   27.59
  -4   3   1  566.50   30.95
   4  -3  -1  479.34   30.90
   4  -3  -1  499.15   28.92
  -4  -3   1  538.39   31.80
  -4  -3   1  572.11   34.01
   3  -3  -1  744.51   33.74
  -3   3   1  803.10   35.07
  -3  -3   1  732.71   36.90
   3  -3  -1  725.00   37.46
  -3   3   1  699.63   33.50
  -3  -3   1  783.50   38.05
  -2   3   1   -1.22    3.13
   2   3  -1   -3.90    3.60
  -2  -3   1    5.77    5.48
   2  -3  -1   -5.39    4.74
  -2   3   1   -1.73    3.07
  -2   3   1    0.92    3.83
   2  -3  -1   -0.52    1.10
   2  -3  -1   -1.27    2.97
  -2  -3   1   -1.29    5.41
   1  -3  -1   61.58   10.86
   1  -3  -1   52.28    8.48
  -1  -3   1   76.37   11.95
  -1   3   1   76.56    9.62
  -1  -3   1   78.55    9.85
  -1   3   1   61.34    7.48
   1   3  -1   66.23    8.97
   1  -3  -1   54.92    7.24
   1   3  -1   72.27    8.07
   0  -3  -1 2366.42   77.70
   0  -3  -1 2165.48   81.23
   0   3   1 2372.57   77.69
   0  -3   1 2338.13   74.31
   0   3  -1 2266.53   67.93
   0   3   1 2371.87   72.60
   0   3  -1 2440.19   74.87
   0   3  -1 2327.74   69.42
   0  -3   1 2249.04   83.06
   0  -3   1 2312.69   68.02
  -1  -3  -1  635.92   30.65
  -1   3  -1  662.68   25.38
   1  -3   1  674.36   32.56
   1   3   1  638.75   30.80
  -1  -3  -1  633.92   30.99
   1  -3   1  689.66   25.36
   1  -3   1  673.62   26.69
  -1   3  -1  708.34   23.24
   1   3   1  673.30   31.25
  -1   3  -1  706.90   27.28
  -2  -3  -1   25.70    8.34
   2   3   1   42.25    9.66
   2  -3   1   44.28    9.89
   2  -3   1   46.40    7.36
  -2   3  -1   26.13    5.43
  -2  -3  -1   35.63    9.30
  -2   3  -1   35.35    6.80
   3  -3   1   21.69    7.92
  -3   3  -1   12.28    5.41
   3  -3   1   30.97    7.49
  -3  -3  -1   14.46    8.09
  -3  -3  -1   26.00    9.24
   3  -3   1   21.08    6.16
  -4  -3  -1  205.53   22.37
  -4   3  -1  189.37   16.43
   4  -3   1  212.74   18.03
  -4  -3  -1  216.31   18.44
   4  -3   1  168.58   17.25
  -5  -3  -1   50.31   14.62
   5  -3   1   29.55    9.73
  -5   3  -1   31.55    9.81
  -5  -3  -1   29.63   11.12
   5  -3   1   55.81   12.19
  -6  -3  -1   -2.73    8.40
   6  -3   1    4.31    6.47
  -6   3  -1   -0.65    7.34
  -6  -3  -1   -2.87   10.54
   6  -3   1   11.13    8.19
  -7  -3  -1  -11.65   10.78
   7  -3   1    7.46    8.43
  -7   3  -1   10.02   11.21
  -8   3  -1   66.18   20.74
  -8  -3  -1   40.16   21.02
  -8  -4   1    0.90   14.75
  -8  -4   1   -7.17   15.20
  -8   4   1   24.77   15.62
   8  -4  -1   34.01   13.58
  -7   4   1  114.79   21.96
   7  -4  -1  122.07   21.80
  -7  -4   1   80.10   21.74
  -7  -4   1  138.90   25.53
  -6  -4   1   25.27   13.58
  -6   4   1   10.28    8.35
   6  -4  -1   13.56   10.09
  -6  -4   1   24.02   12.77
   6  -4  -1    6.73    8.11
  -5  -4   1  120.22   21.12
   5  -4  -1  112.51   17.16
  -5   4   1  103.27   17.19
   5  -4  -1  144.28   20.88
  -5  -4   1  144.74   21.59
   4  -4  -1   37.20    9.29
   4  -4  -1   36.28   11.43
  -4   4   1   52.43   11.13
  -4  -4   1   48.49   13.44
  -4  -4   1   36.07   12.36
   3  -4  -1  268.41   22.23
  -3   4   1  221.13   17.84
  -3  -4   1  271.56   22.64
   3  -4  -1  254.47   18.38
  -3   4   1  255.31   18.44
  -3  -4   1  303.71   23.64
  -2   4   1   64.35   11.25
  -2  -4   1   68.67   13.95
  -2   4   1   78.94   10.56
   2  -4  -1   77.39   13.89
  -2  -4   1   53.74   11.03
   2   4  -1   41.81    9.77
   2  -4  -1   50.85    8.59
   1  -4  -1  480.44   28.73
   1  -4  -1  493.03   23.02
  -1   4   1  478.55   15.18
  -1   4   1  472.74   25.69
   1  -4  -1  478.82   25.78
  -1  -4   1  474.15   25.61
   1   4  -1  499.77   25.73
  -1   4   1  443.01   22.23
  -1  -4   1  465.95   29.25
   1   4  -1  482.41   21.89
   0   4   1  297.07   16.62
   0  -4  -1  278.40   19.54
   0   4  -1  306.58   18.29
   0   4   1  286.12   19.86
   0  -4   1  308.84   18.15
   0  -4  -1  288.29   21.58
   0   4  -1  295.21   14.38
   0  -4   1  333.55   24.28
   0   4  -1  290.55   14.59
  -1  -4  -1  329.63   23.40
  -1   4  -1  351.88   14.77
  -1   4  -1  354.20   17.26
   1  -4   1  349.05   14.78
   1  -4   1  374.24   25.29
   1  -4   1  363.92   17.24
   1   4   1  359.14   22.53
   1  -4   1  325.62   18.54
  -1  -4  -1  303.14   22.11
  -1   4  -1  330.33   18.81
   2  -4   1 1229.01   53.97
  -2   4  -1 1204.17   44.72
  -2  -4  -1 1226.54   52.93
   2  -4   1 1229.27   38.84
  -2   4  -1 1265.27   45.67
  -2  -4  -1 1176.30   52.40
   2  -4   1 1193.18   44.58
  -2   4  -1 1203.06   46.68
  -3  -4  -1  379.88   26.46
   3  -4   1  411.34   23.23
   3  -4   1  360.88   26.47
  -3   4  -1  408.82   22.64
   3  -4   1  449.79   18.87
  -3   4  -1  388.22   23.67
  -3  -4  -1  424.58   29.51
  -4  -4  -1    0.14    9.08
   4  -4   1   -5.74    5.38
   4  -4   1    0.95    4.34
  -4   4  -1   -2.18    4.28
  -4  -4  -1   -4.47    7.40
   5  -4   1  394.89   28.12
   5  -4   1  348.61   26.10
  -5   4  -1  381.61   26.96
  -5  -4  -1  356.18   28.41
  -5  -4  -1  359.54   33.96
  -6   4  -1  571.86   37.64
  -6  -4  -1  648.14   46.22
   6  -4   1  588.97   37.25
  -6  -4  -1  581.17   38.07
   6  -4   1  570.49   37.01
  -7  -4  -1   -9.43   12.69
   7  -4   1   44.65   13.86
  -7   4  -1   30.83   13.58
  -8  -4  -1   -4.42   17.53
  -8   4  -1    5.51   13.40
   8  -5  -1   49.97   17.78
  -8  -5   1   80.16   27.39
  -8   5   1   51.11   18.95
  -7  -5   1  229.00   32.00
  -7   5   1  281.53   32.81
  -7  -5   1  304.87   39.52
   7  -5  -1  295.93   32.98
   6  -5  -1   37.34   13.42
   6  -5  -1   46.77   13.80
  -6   5   1   48.99   13.94
  -6  -5   1   36.39   16.16
  -6  -5   1   47.98   16.04
   5  -5  -1  183.38   21.85
   5  -5  -1  275.57   29.21
  -5  -5   1  268.59   30.35
  -5  -5   1  331.11   32.27
  -5   5   1  299.78   24.93
   4  -5  -1  432.32   32.38
  -4   5   1  403.60   27.13
   4  -5  -1  415.82   27.27
   4  -5  -1  433.45   15.92
  -4  -5   1  402.90   32.39
  -4  -5   1  433.10   32.85
   3  -5  -1 1259.71   59.48
  -3   5   1 1180.77   50.70
  -3  -5   1 1239.91   59.42
   3  -5  -1 1233.55   50.86
  -3   5   1 1255.84   51.59
  -3  -5   1 1249.87   57.44
  -2   5   1   61.71   10.33
  -2  -5   1   60.99   14.76
   2  -5  -1   62.77   12.10
   2  -5  -1   69.28   10.58
   2  -5  -1   50.02   12.88
  -2  -5   1   70.33   13.69
   1   5  -1  125.15   14.93
  -1   5   1  103.61   11.55
   1  -5  -1   87.28   15.69
  -1   5   1  116.06    6.09
  -1  -5   1  116.98   18.69
  -1  -5   1  109.17   14.46
   1  -5  -1   91.84   13.30
   1  -5  -1   93.93   11.33
   1   5  -1   92.08   10.73
   0   5   1  620.80   28.11
   0   5  -1  626.91   24.71
   0  -5   1  609.31   37.31
   0  -5  -1  592.31   32.45
   0  -5  -1  603.05   35.47
   0  -5   1  620.44   30.41
   0   5  -1  585.23   25.38
   0   5  -1  599.10   30.77
   1  -5   1 2140.09   68.71
  -1   5  -1 1960.27   68.18
  -1   5  -1 2173.41   74.38
   1  -5   1 2055.33   73.04
   1  -5   1 2181.63   63.16
  -1  -5  -1 2118.13   83.31
  -1  -5  -1 2000.53   78.41
   1  -5   1 2086.23   83.92
  -1   5  -1 2119.49   63.06
  -2  -5  -1  142.77   19.24
   2  -5   1  128.43    8.51
   2  -5   1   91.00   16.98
  -2   5  -1  120.81   12.51
  -2   5  -1  104.17   13.31
   2  -5   1  104.70   11.37
  -2  -5  -1  139.78   18.29
  -3   5  -1   89.36   11.92
   3  -5   1   95.65   17.15
  -3  -5  -1   88.25   17.40
   3  -5   1  108.90    8.65
  -3  -5  -1   85.46   17.13
   3  -5   1  100.89   12.97
  -4   5  -1  254.28   20.16
  -4  -5  -1  170.06   24.45
   4  -5   1  261.84   26.05
   4  -5   1  254.58   20.46
  -4  -5  -1  281.43   26.81
  -5  -5  -1  138.86   24.71
  -5  -5  -1  172.90   23.49
   5  -5   1  181.47   23.39
  -5   5  -1  165.36   19.90
   5  -5   1  155.47   19.26
  -6  -5  -1   26.06   16.69
   6  -5   1   44.51   12.71
  -6  -5  -1    4.73   14.72
   6  -5   1   47.58   13.44
  -6   5  -1   33.01   12.49
   7  -5   1   46.36   14.50
  -7  -5  -1   77.98   25.19
  -7   5  -1   76.80   19.35
  -8   5  -1  158.11   28.51
  -8  -5  -1  129.56   32.87
   8  -6  -1    5.87   12.11
  -8  -6   1   -8.93   17.57
  -8   6   1   -0.97   12.28
  -7   6   1  174.39   27.32
  -7  -6   1  187.13   32.67
   7  -6  -1  187.54   29.19
  -7  -6   1  172.27   33.77
   6  -6  -1  126.79   20.84
  -6  -6   1  133.64   27.23
  -6  -6   1  111.32   24.66
  -6   6   1  151.69   23.99
   6  -6  -1  150.66   25.70
  -5  -6   1  146.98   25.16
  -5   6   1  197.61   23.25
   5  -6  -1  210.88   27.94
   5  -6  -1  179.54   22.03
  -5  -6   1  173.48   26.93
  -4   6   1    7.68    6.59
   4  -6  -1    9.03    7.33
  -4  -6   1    5.75   11.49
  -4  -6   1    4.46   12.91
   4  -6  -1    6.23    9.70
   3  -6  -1  388.08   32.02
   3  -6  -1  403.19   25.70
  -3  -6   1  371.64   30.14
  -3  -6   1  366.28   33.45
  -3   6   1  431.75   26.71
  -3   6   1  429.00   26.94
   2  -6  -1  734.86   39.43
  -2  -6   1  793.56   42.13
   2  -6  -1  758.26   36.07
  -2   6   1  798.58   36.89
  -2  -6   1  722.70   45.49
   2  -6  -1  744.06   44.59
  -1  -6   1  362.59   31.71
   1  -6  -1  401.32   26.58
  -1   6   1  366.26   22.32
  -1  -6   1  375.51   26.01
  -1   6   1  370.53   14.39
   1  -6  -1  368.12   29.86
   1   6  -1  385.66   20.98
   0   6  -1  813.60   33.88
   0  -6   1  825.55   47.90
   0   6  -1  805.30   31.79
   0  -6   1  866.01   40.31
   0  -6  -1  908.51   43.61
   0   6   1  837.45   36.79
   0  -6  -1  859.83   46.66
  -1  -6  -1  592.14   37.56
   1  -6   1  513.10   25.85
   1  -6   1  543.35   37.26
   1  -6   1  553.50   29.84
  -1   6  -1  552.27   26.55
  -1  -6  -1  562.93   34.37
  -1   6  -1  563.43   22.36
   2  -6   1  240.68   26.72
   2  -6   1  286.86   20.77
  -2   6  -1  262.34   18.71
   2  -6   1  299.98   19.04
  -2  -6  -1  225.92   24.87
   2  -6   1  274.00   13.40
  -2  -6  -1  307.84   27.36
   3  -6   1  434.30   33.57
   3  -6   1  452.07   18.63
  -3  -6  -1  433.09   34.35
  -3  -6  -1  398.34   33.18
  -3   6  -1  460.46   27.68
   3  -6   1  479.16   26.88
  -3   6  -1  450.79   25.98
   4  -6   1   92.07   19.73
  -4  -6  -1   58.65   19.20
   4  -6   1   79.93   14.06
  -4  -6  -1   73.57   18.79
  -4   6  -1   91.75   14.20
  -5  -6  -1  367.69   34.53
   5  -6   1  402.25   28.93
   5  -6   1  402.54   32.72
  -5   6  -1  415.74   29.41
  -5  -6  -1  370.50   37.85
  -6   6  -1  129.63   21.34
  -6  -6  -1   74.16   22.14
  -6  -6  -1   85.00   23.14
   6  -6   1   87.98   17.73
   6  -6   1  111.70   21.29
  -7  -6  -1   17.93   18.08
   7  -6   1   45.39   14.44
  -7   6  -1    6.05   11.38
  -7   7   1  258.03   32.94
   7  -7  -1  254.41   34.03
  -7  -7   1  213.51   36.25
  -7  -7   1  247.34   40.33
  -6  -7   1   29.88   18.45
  -6   7   1   28.26   13.06
  -6  -7   1   23.14   20.22
   6  -7  -1   49.57   17.31
  -5   7   1  247.41   26.41
   5  -7  -1  352.31   28.24
  -5  -7   1  299.48   36.12
   5  -7  -1  305.20   34.73
  -5  -7   1  217.22   32.56
  -4   7   1  438.95   30.19
   4  -7  -1  443.84   30.23
   4  -7  -1  470.80   38.02
  -4  -7   1  363.33   36.19
  -4  -7   1  460.17   39.88
  -3   7   1   59.46   12.35
  -3  -7   1   82.10   21.99
   3  -7  -1   84.49   19.98
  -3  -7   1   79.72   18.45
  -3   7   1   71.49   13.78
   3  -7  -1  114.88   16.31
   2  -7  -1   53.31   16.37
  -2   7   1   36.85    9.86
   2  -7  -1   45.93   11.79
   2   7  -1   38.76    9.32
  -2  -7   1   32.53   12.20
  -2  -7   1    9.98   13.87
   2  -7  -1   43.40   10.50
   1  -7  -1    4.98    7.34
   1   7  -1   25.14    7.39
  -1  -7   1   31.11   15.91
   1   7  -1   30.15    7.67
   1  -7  -1   12.13   12.54
  -1  -7   1   28.51   10.50
  -1   7   1   22.49    4.29
  -1   7   1   20.50    7.88
   0  -7   1  901.70   54.03
   0   7  -1  948.68   39.21
   0  -7  -1  835.16   46.56
   0  -7  -1  949.55   53.31
   0   7  -1  972.39   36.39
   0   7   1  991.24   42.58
   0  -7   1  982.86   46.19
  -1   7  -1 1066.45   37.34
   1  -7   1 1089.71   58.78
  -1   7  -1 1048.25   43.61
  -1  -7  -1  971.93   52.17
  -1  -7  -1 1106.76   58.05
   1  -7   1 1082.46   48.78
  -2  -7  -1  125.70   21.40
   2  -7   1  101.13   21.53
  -2   7  -1  100.78   13.90
   2  -7   1  129.27   14.59
  -2  -7  -1  133.50   24.12
   2  -7   1   92.91   15.13
   3  -7   1  323.35   22.63
  -3  -7  -1  265.28   31.03
   3  -7   1  247.08   30.27
  -3  -7  -1  259.42   29.65
  -3   7  -1  281.09   21.29
  -3   7  -1  297.47   23.06
  -4   7  -1   45.40   12.10
  -4  -7  -1   68.58   21.96
   4  -7   1   54.94   16.87
  -4  -7  -1   67.48   19.61
   4  -7   1   43.46   11.54
  -5   7  -1  304.75   28.27
   5  -7   1  312.05   26.46
  -5  -7  -1  335.21   37.06
  -5  -7  -1  340.46   39.30
   5  -7   1  356.00   32.42
  -6  -7  -1   22.73   20.49
  -6  -7  -1   23.34   17.77
   6  -7   1   39.49   14.93
  -6   7  -1   45.97   14.72
   7  -7   1  282.98   35.18
  -7   7  -1  274.74   32.58
  -7  -8   1   45.31   29.40
  -7   8   1   65.86   19.43
   7  -8  -1   82.98   23.00
  -7  -8   1  110.69   30.66
  -6  -8   1   20.23   22.77
   6  -8  -1   60.72   19.12
  -6  -8   1   43.62   20.87
  -6   8   1   39.63   14.26
  -5   8   1   93.83   18.32
  -5  -8   1   70.26   21.97
   5  -8  -1  110.22   19.96
  -5  -8   1   97.40   28.55
   5  -8  -1   97.61   22.53
  -4   8   1  347.57   27.36
   4  -8  -1  327.32   27.27
   4  -8  -1  291.58   35.75
  -4  -8   1  341.26   37.16
  -4  -8   1  205.67   33.86
   3  -8  -1  123.96   17.87
   3  -8  -1  116.96   24.25
  -3  -8   1  104.15   21.26
   3   8  -1  121.52   16.94
  -3   8   1  121.54   17.93
  -3  -8   1  113.68   27.95
  -2  -8   1  802.67   55.97
  -2  -8   1  859.71   49.14
   2   8  -1  824.45   38.96
   2  -8  -1  842.83   53.90
   2  -8  -1  828.22   46.89
   1  -8  -1  170.39   22.51
   1   8  -1  183.15   16.47
  -1  -8   1  176.46   29.08
  -1   8   1  134.70    9.23
  -1  -8   1  174.31   22.27
  -1   8   1  130.75   16.79
   1  -8  -1  197.82   29.18
   1   8  -1  125.14   14.57
   0   8  -1   16.69    6.71
   0   8   1   20.25    6.18
   0  -8  -1    5.85   12.93
   0   8   1   23.83    8.49
   0  -8   1   28.55   10.54
   0  -8  -1   23.42   11.16
   0  -8   1   13.68   13.85
   0   8  -1   12.46    5.84
   1  -8   1   32.38   10.73
  -1   8  -1   34.46    9.04
  -1  -8  -1   15.12   14.76
  -1  -8  -1   31.79   12.74
  -1   8  -1   27.45    6.48
   1   8   1   24.22    8.94
   1  -8   1   44.01   17.67
  -2  -8  -1  361.51   38.20
   2  -8   1  353.88   23.99
   2  -8   1  325.94   37.27
  -2  -8  -1  374.84   35.22
  -2   8  -1  336.10   24.31
   2  -8   1  347.05   26.85
  -3   8  -1  630.33   35.80
  -3  -8  -1  621.30   45.63
   3  -8   1  742.57   49.63
   3  -8   1  664.40   36.10
  -3  -8  -1  640.15   48.39
  -4   8  -1   35.85   10.89
   4  -8   1   32.92   11.02
  -4  -8  -1   52.44   19.26
  -4  -8  -1   27.99   20.09
   4  -8   1   41.56   16.62
   5  -8   1  320.22   36.91
  -5  -8  -1  373.16   41.45
  -5  -8  -1  387.49   43.31
  -5   8  -1  334.06   28.71
   5  -8   1  384.73   30.16
  -6  -8  -1   86.06   26.64
  -6   8  -1  165.84   25.17
   6  -8   1  143.00   26.18
  -6  -8  -1   56.83   24.37
  -6  -9   1  -15.24   21.21
  -6  -9   1    9.45   16.46
  -6   9   1   12.22   12.53
   6  -9  -1   10.13   12.53
  -5   9   1   57.89   15.81
  -5  -9   1  109.64   27.18
  -5  -9   1   98.40   30.26
   5  -9  -1  134.44   27.69
   4  -9  -1  321.59   30.12
   4   9  -1  305.08   28.82
  -4   9   1  348.60   28.98
   4  -9  -1  338.61   39.81
  -4  -9   1  314.76   41.58
  -4  -9   1  343.06   39.12
  -3  -9   1  -17.52   14.51
  -3  -9   1    7.12   12.09
   3   9  -1    7.92    7.77
   3  -9  -1    3.14   10.58
   3  -9  -1   -7.31    7.00
   2  -9  -1    1.66    8.50
   2   9  -1   -1.74    5.87
   2  -9  -1    6.69   12.66
  -2  -9   1  -11.94   14.81
  -2  -9   1    1.16    9.75
   1  -9  -1  352.75   32.77
   1   9  -1  320.05   21.31
  -1  -9   1  350.16   32.21
   1  -9  -1  226.48   33.69
  -1  -9   1  303.41   39.21
   1   9  -1  304.98   22.73
   0   9  -1  372.54   21.04
   0  -9  -1  307.54   36.29
   0  -9  -1  325.85   32.57
   0  -9   1  349.76   29.41
   0   9  -1  380.69   24.96
   0  -9   1  328.09   38.42
   0   9   1  349.12   19.44
  -1  -9  -1   -1.68    9.80
  -1   9  -1    7.00    7.22
  -1   9  -1    8.11    5.30
   1  -9   1   14.12   15.84
  -1  -9  -1   17.58   14.45
   1  -9   1   15.70    9.57
  -2  -9  -1  -16.22   13.12
   2  -9   1   -7.92    6.56
   2  -9   1    0.02   12.70
  -2  -9  -1    2.37   10.78
  -3  -9  -1  327.01   39.86
   3  -9   1  280.26   37.12
  -3  -9  -1  437.07   41.21
   3  -9   1  369.90   27.48
  -3   9  -1  342.32   26.42
   4  -9   1  203.30   32.35
  -4   9  -1  208.59   23.74
  -4  -9  -1  189.35   33.83
   4  -9   1  158.36   21.50
  -4  -9  -1  218.32   34.21
  -5  -9  -1    0.04   19.44
  -5   9  -1   13.70   10.43
  -5  -9  -1   23.30   18.49
   5  -9   1   16.96   13.56
   6  -9   1   24.18   13.99
  -6  -9  -1   -8.98   14.87
  -6   9  -1   -3.32    9.76
  -5 -10   1   41.83   27.41
  -5 -10   1   58.27   22.22
   5  10  -1   30.22   13.24
   5 -10  -1   75.77   21.87
  -5  10   1   25.86   13.23
  -4 -10   1   11.10   14.29
   4 -10  -1   17.39   13.66
  -4 -10   1   15.22   21.03
   4  10  -1   -6.62    6.93
  -4  10   1    5.53    9.45
   3 -10  -1   28.81   15.94
   3  10  -1    7.42    8.74
  -3 -10   1    2.84   12.16
  -3 -10   1   14.09   20.13
  -2 -10   1  367.66   46.20
   2  10  -1  313.93   24.30
   2 -10  -1  459.13   36.16
   2 -10  -1  415.91   45.80
  -2 -10   1  429.64   39.51
   1 -10  -1  163.53   31.54
   1 -10  -1  197.47   28.23
  -1 -10   1  133.45   30.46
  -1 -10   1  155.25   24.80
   1  10  -1  151.65   16.95
   0 -10   1   85.99   24.92
   0  10  -1   43.94    9.67
   0 -10   1   46.28   14.44
   0 -10  -1   58.37   21.07
   0 -10  -1   53.71   16.11
  -1 -10  -1   87.28   20.39
  -1 -10  -1  125.13   27.98
   1 -10   1  126.71   28.97
   1 -10   1  134.51   21.27
   1  10   1  142.90   15.77
  -2 -10  -1  173.82   28.97
  -2 -10  -1  190.32   33.38
   2 -10   1  193.11   33.89
   2 -10   1  213.31   26.51
   3 -10   1   13.92   14.88
  -3 -10  -1    9.09   13.79
  -3  10  -1   33.78   11.28
  -3 -10  -1   13.80   18.36
  -4  10  -1    4.09    8.32
  -4 -10  -1   -1.52   13.92
   4 -10   1   25.73   16.66
   4 -10   1   11.66   11.19
  -4 -10  -1  -15.46   16.97
  -5  10  -1    3.38    9.51
  -5 -10  -1   -1.32   14.74
  -5 -10  -1    5.33   20.52
   5 -10   1   29.52   15.73
  -4 -11   1  145.55   30.69
   4  11  -1  102.42   20.53
  -4 -11   1   97.09   31.70
   4 -11  -1  117.79   28.32
  -4  11   1   91.81   20.17
   3 -11  -1   17.03   14.60
  -3 -11   1   -4.06   19.83
  -3 -11   1    8.55   14.77
   3  11  -1    9.05    9.04
  -2 -11   1  -11.43   15.48
   2 -11  -1   12.31   15.33
   2  11  -1    1.15    7.13
   2 -11  -1   16.26   11.81
  -2 -11   1    2.06   11.41
   1 -11  -1   -2.48   14.08
   1 -11  -1    3.57   10.52
   1  11  -1    0.11    6.81
  -1 -11   1   12.62   12.40
  -1 -11   1   -5.59   15.62
   0 -11   1  149.21   24.60
   0 -11   1  150.23   33.59
   0 -11  -1  168.36   34.20
   0 -11  -1  143.83   25.74
  -1 -11  -1   60.87   24.25
   1 -11   1   72.74   17.64
  -1 -11  -1   58.54   18.73
   1 -11   1   51.20   22.82
   2 -11   1    8.02   10.54
   2 -11   1   12.62   16.53
  -2 -11  -1  -12.25   14.63
   2  11   1   16.07    9.46
  -2 -11  -1   13.92   13.49
  -3 -11  -1   83.12   23.48
  -3 -11  -1   40.95   22.35
   3 -11   1   44.51   20.19
  -3  11  -1   73.78   16.28
   4 -11   1  104.58   26.70
  -4 -11  -1  127.04   34.28
  -4 -11  -1   53.03   21.90
  -4  11  -1  109.43   20.65
  -3 -12   1    0.42   22.01
  -3 -12   1   15.70   14.95
   3  12  -1    9.74   10.53
   3 -12  -1    7.29   15.17
   2 -12  -1  163.91   28.17
   2 -12  -1  244.87   42.37
  -2 -12   1  231.07   34.58
  -2 -12   1  206.81   43.35
   1 -12  -1   20.56   14.31
  -1 -12   1   26.24   15.02
  -1 -12   1    9.00   19.86
   1 -12  -1   45.57   21.50
   0 -12  -1   12.70   13.07
   0 -12   1    9.89   17.76
   0 -12   1    1.61   10.93
   0 -12  -1   12.54   15.73
  -1 -12  -1    7.41   12.90
   1 -12   1    9.59   19.20
   1 -12   1    3.70   10.72
  -1 -12  -1   -9.16   14.96
   2 -12   1   43.86   15.75
  -2 -12  -1   18.18   15.02
   2 -12   1    3.97   15.50
  -2 -12  -1   60.52   24.44
  -3 -12  -1  110.22   32.36
   3 -12   1   87.88   28.55
   3  12   1   56.26   16.29
  -3 -12  -1   83.35   25.88
  -3  12  -1  104.58   20.28
  -9   0   2   33.94   20.20
  -8   0   2  134.60   23.43
  -8   0   2   70.58   20.71
   7   0  -2  126.38   21.33
  -7   0   2  121.37   23.76
  -7   0   2  127.57   20.80
  -6   0   2  378.99   28.02
  -6   0   2  387.45   31.48
  -5   0   2  150.27   19.17
  -5   0   2  161.91   18.63
  -4   0   2 1283.67   53.68
  -3   0   2   32.30    7.54
   3   0  -2   35.85    7.74
  -3   0   2   23.52    7.15
   2   0  -2  195.52   11.98
  -2   0   2  190.11   13.00
   2   0  -2  184.40   11.54
  -2   0   2  184.47   13.53
   2   0  -2  191.69   12.61
  -1   0   2 2726.25   82.38
   1   0  -2 2628.41   77.70
   1   0  -2 2654.89   79.10
   1   0  -2 2745.03   82.26
  -1   0   2 2753.95   77.93
  -1   0   2 2692.91   88.79
  -1   0   2 2676.64   79.22
   0   0  -2  186.90   10.13
   0   0   2  188.87    9.89
   0   0   2  213.30   10.26
   0   0   2  199.16   10.27
   0   0  -2  180.04    8.99
   0   0   2  185.02    9.16
   1   0   2 9840.63  284.99
   1   0   2 9999.13  321.84
  -1   0  -2 9820.34  286.00
  -2   0  -2 1355.90   47.83
   2   0   2 1351.05   47.01
  -2   0  -2 1345.74   44.62
  -3   0  -2  917.40   32.96
  -3   0  -2  843.81   37.59
   3   0   2  928.43   37.61
  -3   0  -2  879.97   31.44
  -4   0  -2  266.66   14.47
  -4   0  -2  260.23   15.88
  -4   0  -2  256.41   20.40
  -5   0  -2  255.94   16.36
  -5   0  -2  233.46   23.72
  -6   0  -2   16.41   11.63
  -6   0  -2   20.64    7.97
  -7   0  -2   20.93   13.99
  -8   0  -2  270.25   35.60
  -9   1   2   60.59   23.34
  -9  -1   2   57.47   23.09
  -9   1   2  127.98   24.01
  -8  -1   2    6.79   14.30
  -8  -1   2   49.15   15.50
  -8   1   2   24.24   14.75
  -8   1   2   45.04   13.04
   7  -1  -2  359.12   30.26
  -7   1   2  360.46   28.58
  -7   1   2  328.93   34.27
  -7  -1   2  395.72   31.27
  -7  -1   2  234.85   31.45
  -6  -1   2  717.40   45.04
   6  -1  -2  776.08   42.38
  -6   1   2  710.97   41.04
  -6  -1   2  752.90   42.56
  -5  -1   2   32.81   10.74
   5  -1  -2   49.48   12.10
   5  -1  -2   64.84   12.49
  -5   1   2   51.47   11.93
  -5  -1   2   29.77    9.89
  -5   1   2   37.58   10.85
  -4  -1   2    3.06    5.49
  -4   1   2   19.43    7.11
   4  -1  -2   19.27    7.67
   4  -1  -2   26.28    7.62
  -4  -1   2   17.33    7.56
   3  -1  -2  570.24   27.46
   3   1  -2  538.45   27.24
  -3   1   2  549.17   27.51
   3  -1  -2  524.73   22.58
   3  -1  -2  466.71   27.42
  -3  -1   2  562.34   28.18
   3  -1  -2  507.39   25.42
  -3  -1   2  520.36   27.52
   2  -1  -2 6441.74  202.08
   2  -1  -2 6580.01  189.15
   2  -1  -2 6196.60  183.13
  -2   1   2 6510.92  183.92
  -2  -1   2 6310.50  189.23
   2  -1  -2 6226.67  174.40
   2   1  -2 6219.20  177.97
  -2   1   2 6283.47  188.88
  -2  -1   2 6072.30  200.44
   2   1  -2 6405.00  188.73
  -1   1   2 6540.28  172.08
   1   1  -2 6145.55  174.01
  -1   1   2 6408.69  179.15
  -1   1   2 6274.18  185.84
   1   1  -2 6207.16  183.23
   1  -1  -2 6200.11  178.92
  -1   1   2 6388.17  197.30
   1  -1  -2 6181.72  197.35
   1   1  -2 6151.26  196.27
  -1  -1   2 6380.97  174.02
  -1   1   2 6162.73  184.30
  -1  -1   2 6225.78  197.01
   1  -1  -2 6363.90  172.37
  -1  -1   2 6286.33  183.83
   0  -1   2 1828.07   53.81
   0  -1  -2 1790.34   59.33
   0  -1  -2 1729.16   57.09
   0   1   2 1818.19   59.40
   0   1   2 1663.13   52.35
   0   1   2 1741.98   56.98
   0   1  -2 1861.47   59.83
   0   1  -2 1733.11   53.67
   0  -1   2 1805.38   56.18
   0   1  -2 1764.17   55.53
   0  -1   2 1744.33   59.85
   1  -1   2 2872.24   84.61
  -1  -1  -2 2838.54   92.01
  -1  -1  -2 2982.01   91.49
   1   1   2 2982.56   90.92
   1   1   2 2828.71   91.96
  -1   1  -2 2942.69   93.04
  -1   1  -2 2850.54   86.70
   1  -1   2 2946.46   93.89
   1  -1   2 2934.51   86.25
   2   1   2 1103.38   41.61
  -2  -1  -2 1066.40   36.56
   2  -1   2 1074.71   38.55
  -2  -1  -2 1072.77   42.18
  -2   1  -2 1067.87   39.27
  -2   1  -2 1119.39   38.82
   2  -1   2 1112.54   37.98
  -3  -1  -2 3657.56  114.85
   3   1   2 3654.49  118.12
  -3  -1  -2 3662.46  115.39
  -3  -1  -2 3505.57  118.89
   3  -1   2 3540.75  116.64
   3  -1   2 3769.72  115.05
  -3   1  -2 3554.78  115.66
  -3   1  -2 3803.25  118.62
  -4   1  -2   68.47   12.19
  -4  -1  -2   58.11    7.89
   4  -1   2   57.95    8.16
  -4  -1  -2   55.96   12.72
  -4  -1  -2   69.64    7.92
  -5  -1  -2  718.64   31.43
  -5   1  -2  669.72   38.05
  -5  -1  -2  610.48   38.84
  -5   1  -2  710.69   31.15
  -6  -1  -2  714.44   34.33
  -6   1  -2  713.81   33.82
  -6   1  -2  693.90   42.40
  -6  -1  -2  645.18   43.28
  -7   1  -2  201.58   28.17
  -7  -1  -2  185.29   28.83
  -8   1  -2   -3.83   13.87
  -8  -1  -2  -21.68   12.77
  -8   2   2  237.84   34.15
  -8  -2   2  281.42   33.10
  -7  -2   2  121.85   24.47
  -7   2   2  108.57   18.60
  -7  -2   2  106.44   21.20
  -7   2   2   67.64   18.10
   6  -2  -2  348.62   27.50
  -6   2   2  378.58   30.20
  -6  -2   2  311.10   27.23
  -6  -2   2  271.61   30.24
   6  -2  -2  387.35   29.69
  -5   2   2   47.82   11.73
   5  -2  -2   35.46   10.74
  -5  -2   2   23.15    9.38
  -5  -2   2   66.34   14.65
   5  -2  -2   41.52   10.75
  -4  -2   2 1392.63   58.18
  -4  -2   2 1278.83   56.78
   4  -2  -2 1356.79   53.71
  -4   2   2 1322.20   55.77
   4  -2  -2 1314.52   58.29
  -3  -2   2 1135.76   47.09
   3  -2  -2 1151.05   37.50
  -3  -2   2 1055.01   47.48
   3  -2  -2 1172.55   49.75
   3  -2  -2 1091.83   43.96
  -3   2   2 1092.14   45.34
  -2   2   2  469.30   22.91
   2  -2  -2  479.76   17.34
   2   2  -2  455.03   22.88
   2  -2  -2  486.82   26.15
   2  -2  -2  440.12   21.91
  -2  -2   2  465.38   25.32
   2   2  -2  462.38   22.35
  -2  -2   2  493.02   23.99
  -2   2   2  496.34   25.04
  -2   2   2  526.99   23.29
  -1   2   2 1547.55   44.97
   1   2  -2 1501.06   49.23
   1  -2  -2 1515.66   56.90
   1  -2  -2 1522.93   44.96
  -1   2   2 1626.75   50.89
  -1  -2   2 1587.96   51.21
  -1  -2   2 1489.24   56.79
  -1  -2   2 1462.58   49.00
   1  -2  -2 1469.44   50.07
   1  -2  -2 1490.59   53.75
   1   2  -2 1573.97   50.74
  -1   2   2 1555.09   54.08
   0   2   2 1388.10   48.06
   0   2  -2 1371.75   50.05
   0  -2  -2 1274.13   48.83
   0  -2   2 1334.31   42.92
   0   2   2 1353.32   49.76
   0  -2   2 1352.76   42.40
   0   2  -2 1353.71   40.59
   0   2  -2 1308.78   42.86
   0  -2   2 1376.06   50.80
   0   2  -2 1327.85   41.98
   0  -2  -2 1304.98   47.80
   1  -2   2  972.25   33.37
  -1   2  -2 1084.81   35.12
   1   2   2 1045.58   40.32
  -1  -2  -2 1047.36   40.69
  -1   2  -2 1014.60   32.68
  -1   2  -2 1010.84   33.15
   1  -2   2 1032.07   34.67
   1   2   2 1027.33   38.30
  -1   2  -2 1050.59   40.62
  -1  -2  -2 1014.46   37.97
   1  -2   2 1009.58   40.84
  -2   2  -2  208.09   11.93
   2  -2   2  212.15   13.10
   2   2   2  211.45   11.66
  -2  -2  -2  194.57   16.46
   2   2   2  216.81   16.60
   2  -2   2  194.74   14.66
  -2  -2  -2  205.89   13.23
   2  -2   2  219.90   11.62
   3  -2   2  967.05   36.33
  -3  -2  -2  921.30   35.77
   3   2   2  932.98   33.47
   3  -2   2  862.59   37.08
  -3   2  -2  909.34   36.91
  -3  -2  -2  850.24   41.70
  -4  -2  -2 1020.89   40.88
  -4  -2  -2 1081.51   39.97
  -4  -2  -2 1031.09   49.38
   4  -2   2 1029.66   42.47
  -4   2  -2  915.96   42.89
  -5   2  -2   48.87   12.23
  -5  -2  -2   49.10   10.66
   5  -2   2   76.03   11.56
  -5  -2  -2   46.84   14.28
  -6  -2  -2   18.67   12.69
  -6  -2  -2   26.58   10.58
  -6   2  -2   49.15   14.96
   6  -2   2   48.50   10.72
  -7   2  -2   29.62   14.28
  -7  -2  -2   47.57   18.68
  -8   2  -2  241.84   33.99
  -8  -2  -2  241.27   36.58
  -8  -3   2   28.02   16.08
  -8   3   2   60.43   15.25
  -8   3   2    6.98   12.91
  -8  -3   2   20.89   16.89
  -7  -3   2  203.02   27.78
   7  -3  -2  221.13   28.80
  -7  -3   2  141.80   26.36
  -7   3   2  184.29   26.94
  -6  -3   2  325.78   30.81
   6  -3  -2  267.79   26.36
  -6  -3   2  216.65   28.21
  -6   3   2  247.03   26.86
   6  -3  -2  271.88   29.00
  -5   3   2   22.68    8.56
   5  -3  -2   28.72    9.59
   5  -3  -2   27.68   10.78
  -5  -3   2   12.11    9.91
  -5  -3   2   31.22   11.40
   4  -3  -2   15.39    8.06
   4  -3  -2    1.43    3.46
  -4   3   2    4.81    5.41
  -4  -3   2    4.71    7.57
   4  -3  -2    3.46    4.69
  -4  -3   2    5.42    7.33
   3  -3  -2  589.77   20.99
  -3  -3   2  540.81   31.95
   3  -3  -2  610.52   29.45
  -3   3   2  579.30   29.75
  -3  -3   2  629.29   32.48
  -3   3   2  581.24   29.53
   3  -3  -2  576.17   33.19
  -2   3   2  469.84   23.87
  -2  -3   2  433.78   26.75
   2  -3  -2  443.29   15.26
  -2   3   2  454.15   25.14
   2   3  -2  501.21   23.89
   2   3  -2  476.52   24.37
  -2   3   2  438.08   22.89
   2  -3  -2  446.26   26.97
  -2  -3   2  449.85   24.69
   2  -3  -2  461.43   23.05
  -1  -3   2  427.72   20.93
   1   3  -2  403.36   19.52
  -1   3   2  443.65   14.77
  -1   3   2  424.12   20.35
   1  -3  -2  395.11   23.92
  -1  -3   2  378.39   24.25
   1  -3  -2  406.83   20.16
   1   3  -2  436.10   20.46
  -1   3   2  359.81   21.88
   1  -3  -2  392.08   22.44
   0  -3   2  331.65   16.15
   0  -3   2  331.71   15.92
   0   3   2  337.56   17.69
   0   3  -2  355.49   16.42
   0  -3   2  344.65   22.73
   0  -3  -2  337.31   20.48
   0   3  -2  351.33   13.30
   0  -3  -2  346.29   21.06
   0   3   2  341.71   20.64
  -1  -3  -2 1419.11   54.97
  -1  -3  -2 1458.66   54.04
  -1   3  -2 1450.31   46.98
   1  -3   2 1432.17   56.73
   1   3   2 1436.31   54.37
   1  -3   2 1416.18   45.81
   1  -3   2 1391.44   45.28
  -1   3  -2 1373.36   45.68
   1   3   2 1455.75   54.81
   2  -3   2  725.87   29.59
  -2  -3  -2  746.29   33.47
   2  -3   2  748.53   35.67
   2   3   2  766.31   32.30
  -2   3  -2  761.66   28.96
   2  -3   2  728.93   28.37
  -2  -3  -2  774.89   37.27
   2   3   2  729.55   35.94
  -3   3  -2   89.65   10.48
   3  -3   2   87.84    9.80
   3  -3   2   87.58   12.60
   3  -3   2   94.20   11.53
  -3  -3  -2   80.12   14.81
  -3  -3  -2  123.17   13.37
  -4  -3  -2  185.63   16.97
  -4  -3  -2  187.76   22.73
  -4   3  -2  170.64   16.41
   4  -3   2  160.32   16.38
   4  -3   2  138.36   15.68
  -5  -3  -2   81.78   18.22
  -5  -3  -2   94.70   14.81
   5  -3   2   88.68   15.16
   5  -3   2   78.40   13.29
  -5   3  -2   99.64   15.89
   6  -3   2  377.72   29.35
  -6  -3  -2  291.49   33.60
  -6   3  -2  363.10   29.12
   6  -3   2  397.76   26.33
  -7  -3  -2   45.42   19.20
  -7   3  -2   41.36   16.14
  -8  -3  -2   -1.96   16.72
  -8   3  -2   -3.55   13.55
  -8  -4   2    8.04   15.39
  -8   4   2   35.47   12.13
  -8  -4   2   10.05   15.95
  -8   4   2   12.62   13.89
   8  -4  -2   29.40   13.92
   7  -4  -2   91.36   19.97
  -7  -4   2   81.58   22.18
  -7  -4   2   79.47   19.87
  -7   4   2   59.77   17.04
   6  -4  -2    1.69    6.09
   6  -4  -2    3.18    8.29
   6  -4  -2    6.25    8.54
  -6  -4   2   13.13   12.72
  -6   4   2    0.59    7.90
  -6  -4   2   -5.97   10.43
   5  -4  -2  150.71   21.93
   5  -4  -2  133.45   11.10
   5  -4  -2  145.57   19.24
  -5   4   2  155.38   20.13
  -5  -4   2  166.43   23.54
  -5  -4   2  130.89   21.13
   4  -4  -2  254.62   25.58
   4  -4  -2  188.52   18.99
  -4   4   2  246.04   20.18
  -4  -4   2  181.14   22.54
   4  -4  -2  223.11   11.33
  -4  -4   2  212.43   23.13
  -3  -4   2  177.17   19.37
   3  -4  -2  190.04   21.13
   3  -4  -2  181.80    7.80
   3  -4  -2  209.43   16.74
  -3  -4   2  231.59   23.31
  -3   4   2  205.41   18.07
  -3   4   2  167.98   16.68
  -2  -4   2    7.84    7.42
   2  -4  -2    1.05    3.71
   2   4  -2   -3.29    3.66
   2  -4  -2    0.82    4.34
  -2   4   2    7.08    4.35
   2  -4  -2   -2.55    5.86
  -2  -4   2    8.59    6.52
   2   4  -2    2.43    5.01
   1   4  -2  361.78   21.05
  -1   4   2  345.48   19.83
   1  -4  -2  372.51   23.09
  -1   4   2  384.37   13.69
  -1   4   2  408.59   24.15
   1  -4  -2  363.50   25.00
   1   4  -2  380.12   19.73
  -1  -4   2  353.81   25.86
   1  -4  -2  351.62   20.10
  -1  -4   2  398.80   21.82
   0   4   2   27.03    8.60
   0   4   2   31.76    6.96
   0   4  -2   29.59    6.17
   0  -4   2   45.62   12.30
   0  -4  -2   32.92    9.89
   0  -4   2   46.58    7.51
   0   4  -2   24.79    6.59
   0  -4  -2   21.27    7.56
   0   4  -2   32.49    4.71
   0  -4   2   38.26    6.85
  -1   4  -2  631.12   24.50
  -1   4  -2  651.89   24.72
  -1  -4  -2  569.83   31.20
  -1  -4  -2  605.14   32.71
   1  -4   2  573.42   23.43
   1  -4   2  615.62   25.53
   1  -4   2  587.47   34.22
   1  -4   2  595.66   24.17
  -2  -4  -2   38.36   11.01
  -2   4  -2   16.27    4.77
   2  -4   2   43.20    7.45
  -2  -4  -2   30.78   10.25
  -2   4  -2   38.67    6.49
   2  -4   2   37.99   11.16
   2  -4   2   37.66    6.47
  -3  -4  -2  536.56   34.33
  -3   4  -2  545.50   26.32
  -3  -4  -2  543.86   31.11
   3  -4   2  504.83   26.66
   3  -4   2  510.46   31.45
  -3   4  -2  569.33   27.88
  -4   4  -2   99.98   13.20
   4  -4   2   98.80   13.93
   4  -4   2  102.33   15.99
  -4  -4  -2  107.11   16.50
  -4  -4  -2  104.09   19.30
  -5  -4  -2   33.59   13.99
  -5  -4  -2   48.68   16.58
  -5   4  -2   56.43   12.86
   5  -4   2   57.80   12.96
   5  -4   2   52.85   12.60
  -6   4  -2   87.69   17.65
   6  -4   2  113.82   17.72
   6  -4   2  107.99   19.03
  -6  -4  -2   84.18   22.24
  -7  -4  -2   78.07   23.07
  -7   4  -2  141.53   24.27
  -8   4  -2   68.56   21.52
  -8  -4  -2   94.81   28.57
  -8  -5   2   -1.42   16.15
  -8  -5   2   -7.73   16.05
  -8   5   2    9.12   13.95
   8  -5  -2   22.71   14.18
   7  -5  -2    2.57    9.60
  -7   5   2   -2.18    9.35
  -7  -5   2  -16.81   12.66
  -7  -5   2   -8.20   12.09
  -6  -5   2   61.39   19.75
  -6  -5   2   49.74   17.93
   6  -5  -2   67.88   18.56
  -6   5   2   59.44   15.75
   6  -5  -2   36.67   12.67
   5  -5  -2  345.02   16.02
  -5  -5   2  440.81   35.02
   5  -5  -2  364.22   31.55
   5  -5  -2  395.02   28.77
  -5  -5   2  328.11   33.06
  -5   5   2  379.76   28.84
  -4   5   2    0.58    5.29
  -4  -5   2   -8.14    7.84
  -4  -5   2   -8.24    8.69
   4  -5  -2   -2.79    6.91
   4  -5  -2    9.89    7.20
  -4   5   2    7.63    6.79
  -3   5   2    1.55    4.79
   3  -5  -2   -0.34    4.16
  -3   5   2   -0.66    4.22
   3   5  -2   -1.69    5.06
  -3  -5   2   -0.58    8.84
  -3  -5   2   17.36    9.16
   3  -5  -2    4.20    8.04
   2  -5  -2  313.15   20.38
  -2   5   2  294.38   19.98
  -2  -5   2  293.98   27.86
   2   5  -2  288.44   19.56
   2  -5  -2  297.04   25.24
  -2  -5   2  282.49   22.39
   2  -5  -2  284.87   22.42
   1  -5  -2  861.86   45.73
  -1  -5   2  828.68   46.86
   1   5  -2  963.30   40.84
  -1  -5   2  939.71   40.88
   1  -5  -2  952.88   43.97
  -1   5   2  950.54   39.04
   1   5  -2  893.47   36.24
   0  -5   2   12.50   10.30
   0  -5  -2    4.63    5.94
   0  -5   2   -3.31    4.06
   0   5  -2    2.68    5.07
   0   5   2   -1.17    3.48
   0   5  -2   -0.08    2.96
   0   5  -2   -1.87    2.74
   0  -5  -2  -11.65    5.86
  -1  -5  -2  265.97   22.80
  -1   5  -2  313.50   19.16
  -1  -5  -2  325.76   24.03
   1  -5   2  322.91   16.58
   1  -5   2  307.23   18.20
  -1   5  -2  310.37   16.70
   1  -5   2  307.40   26.33
  -1   5  -2  321.75   16.33
   1  -5   2  288.74   15.88
  -2   5  -2   34.56    6.73
   2  -5   2   38.71   12.62
  -2   5  -2   30.21    7.10
  -2   5  -2   24.53    7.27
   2  -5   2   28.65    6.60
  -2  -5  -2   27.52   11.08
  -2  -5  -2   27.27   11.65
   2  -5   2    8.99    3.70
  -3  -5  -2   96.71   17.38
  -3   5  -2   87.31   11.46
  -3  -5  -2   86.21   17.71
  -3   5  -2   89.70   12.61
   3  -5   2  103.29   17.93
   3  -5   2   92.30   12.19
   4  -5   2   -2.82    8.09
  -4  -5  -2    3.62   10.25
   4  -5   2    4.56    6.11
  -4  -5  -2    9.36   12.18
  -4   5  -2    3.10    5.86
   5  -5   2  372.22   28.58
  -5  -5  -2  315.27   29.05
   5  -5   2  358.71   27.03
  -5   5  -2  340.68   25.55
  -5  -5  -2  391.00   37.99
  -6   5  -2   23.53   11.42
   6  -5   2   41.75   12.69
   6  -5   2    7.51    8.75
  -6  -5  -2    9.54   14.76
  -7   5  -2    0.72    9.31
  -7  -5  -2  -13.20   14.39
  -8  -6   2  -10.91   17.36
  -8   6   2  -11.04   11.85
  -8  -6   2  -24.31   16.28
   8  -6  -2   30.42   15.55
  -7  -6   2   -0.90   16.58
  -7   6   2   14.80   11.83
   7  -6  -2   21.95   13.70
  -7  -6   2    2.12   15.61
  -6  -6   2   39.27   18.07
   6  -6  -2   47.86   16.56
  -6   6   2   52.45   15.34
  -6  -6   2   57.58   22.11
   5  -6  -2    3.69    7.26
  -5   6   2    6.02    7.78
  -5  -6   2   -1.30   13.45
   5  -6  -2    1.31    9.09
  -5  -6   2   -6.33    9.98
  -4  -6   2  149.34   25.99
   4  -6  -2  173.52   24.96
  -4  -6   2  138.02   23.02
   4  -6  -2  103.31   16.38
  -4   6   2  133.78   18.30
  -3   6   2   99.95   15.43
   3   6  -2  118.56   16.71
   3  -6  -2  110.45   19.75
  -3  -6   2  116.41   22.28
  -3  -6   2  128.93   20.23
   3  -6  -2  135.29   17.03
  -3   6   2  144.59   17.56
  -2  -6   2  167.31   24.71
   2  -6  -2  194.69   21.59
  -2  -6   2  157.24   19.73
   2  -6  -2  172.85   23.03
  -2   6   2  166.75   17.08
   2   6  -2  188.42   17.58
   2  -6  -2  177.76   17.59
   1   6  -2   86.63    9.66
   1  -6  -2   68.08   13.70
   1  -6  -2   68.45   16.32
  -1  -6   2   93.60   14.23
  -1   6   2   44.48    9.45
  -1  -6   2   91.53   19.89
   1   6  -2   87.94   11.80
   0  -6   2  389.93   24.05
   0   6   2  358.28   22.88
   0  -6  -2  356.92   29.50
   0   6  -2  408.56   25.49
   0   6  -2  361.33   19.76
   0  -6  -2  419.95   28.90
   0   6  -2  397.98   19.75
   0  -6   2  435.83   34.04
  -1   6  -2  100.98   10.23
  -1   6  -2   80.63   12.81
  -1   6  -2  123.70   11.74
  -1  -6  -2  100.46   17.10
   1  -6   2  114.09   20.71
   1  -6   2   89.90   10.35
  -1  -6  -2   94.52   18.27
   1  -6   2   93.00   12.44
   2  -6   2    6.29    4.59
  -2   6  -2   -0.03    4.93
  -2  -6  -2    5.22    8.83
  -2  -6  -2   13.73   11.22
   2  -6   2    8.09   11.15
  -2   6  -2   10.89    5.64
  -3  -6  -2  108.28   19.91
  -3   6  -2  105.28   13.24
   3  -6   2  109.01   13.62
   3  -6   2  112.99   20.77
  -3  -6  -2  102.36   20.86
  -4   6  -2  257.16   20.10
   4  -6   2  259.01   28.69
  -4  -6  -2  217.40   29.29
   4  -6   2  207.66   20.34
  -4  -6  -2  260.96   28.40
  -5  -6  -2   15.22   13.92
  -5   6  -2   10.98    8.58
  -5  -6  -2  -13.17   12.74
   5  -6   2   19.25   10.77
   5  -6   2   26.26   10.34
   6  -6   2   10.27    9.39
   6  -6   2   24.02   11.33
  -6   6  -2    4.47    8.96
  -6  -6  -2   -0.82   14.14
  -7   6  -2    7.15   11.50
  -7  -6  -2    4.27   17.34
  -7   7   2   18.58   12.97
  -7  -7   2   -9.65   16.57
   7  -7  -2    4.48   10.67
  -7  -7   2    2.61   21.27
  -6  -7   2   21.16   16.46
  -6   7   2    8.16   10.40
  -6  -7   2   -2.14   18.33
   6  -7  -2   20.20   12.79
  -5  -7   2   24.11   18.68
   5   7  -2   34.75   12.32
  -5   7   2   23.33   10.75
   5  -7  -2   27.10   13.11
   5  -7  -2   34.31   12.11
  -5  -7   2   28.01   16.43
   4   7  -2    6.51    7.76
   4  -7  -2   20.45    8.94
  -4   7   2    0.15    6.28
   4  -7  -2    0.76    9.13
  -4  -7   2   -2.34   10.56
  -4  -7   2   18.17   16.41
   3   7  -2  221.40   22.16
   3  -7  -2  340.82   25.15
   3  -7  -2  314.62   33.53
  -3   7   2  296.89   24.13
  -3  -7   2  329.74   35.96
  -3  -7   2  291.12   29.47
  -2  -7   2   11.89    9.33
   2  -7  -2   -6.70    7.98
   2  -7  -2   -1.21    4.90
   2   7  -2   -5.78    4.59
   2  -7  -2   11.46    8.50
  -2  -7   2    0.59   13.16
  -2   7   2    6.46    7.09
   1  -7  -2   87.12   19.07
  -1  -7   2   86.83   22.04
   1  -7  -2   62.92   14.24
  -1   7   2   92.02   14.18
   1   7  -2   70.20   10.10
  -1  -7   2   86.87   15.86
   1   7  -2   87.94   12.53
   0  -7   2   -1.87   12.87
   0  -7   2   10.15    7.12
   0   7  -2   16.24    5.87
   0  -7  -2    4.08    7.74
   0   7   2   18.05    7.48
   0   7  -2   11.31    5.45
   0  -7  -2    7.30   11.01
   1  -7   2  306.62   22.06
   1  -7   2  278.79   31.78
  -1  -7  -2  316.82   29.30
  -1   7  -2  300.35   17.38
  -1  -7  -2  305.73   29.03
  -1   7  -2  287.26   18.87
   2  -7   2   26.66   14.29
  -2   7  -2    1.22    4.16
  -2  -7  -2    7.00   10.16
  -2   7  -2   16.66    6.81
   2  -7   2   15.83    6.63
  -2  -7  -2   10.58   12.83
   3  -7   2  133.21   24.62
  -3  -7  -2  175.63   26.50
  -3   7  -2  158.05   16.62
   3  -7   2  198.51   18.45
  -3  -7  -2  154.29   25.03
  -4  -7  -2    7.50   12.94
  -4   7  -2    4.21    6.58
   4  -7   2   11.15   11.50
   4  -7   2    7.99    7.34
  -4  -7  -2    4.89   14.85
  -5  -7  -2   21.98   16.28
   5  -7   2   47.93   12.96
   5  -7   2   56.93   17.06
  -5  -7  -2   48.39   19.80
  -5   7  -2   45.90   12.99
  -6   7  -2   13.11    9.56
  -6  -7  -2    0.62   15.93
   6  -7   2   32.79   12.96
  -7  -7  -2   39.15   22.36
   7   8  -2   16.38   12.77
   7  -8  -2   25.35   15.18
  -7   8   2   28.75   15.04
  -7  -8   2    6.00   19.29
  -7  -8   2  -21.55   19.88
   6  -8  -2   13.26   11.96
  -6  -8   2   -0.80   19.90
  -6  -8   2   -0.15   14.37
  -6   8   2   19.52   11.50
   6   8  -2   16.62   12.27
   5   8  -2   -6.44    7.66
  -5  -8   2    9.10   14.28
  -5  -8   2   -8.17   17.42
  -5   8   2   -1.22    7.95
   5  -8  -2    7.60   10.59
   4  -8  -2  246.91   26.25
  -4  -8   2  303.60   40.14
   4   8  -2  261.99   26.40
  -4   8   2  241.92   25.98
   4  -8  -2  273.06   34.70
  -4  -8   2  277.96   33.01
   3   8  -2   82.61   15.20
   3  -8  -2   75.11   20.09
  -3  -8   2   68.93   18.46
   3  -8  -2   94.83   16.91
  -3  -8   2  110.63   27.42
  -2  -8   2  105.68   19.80
   2   8  -2  160.32   18.22
   2  -8  -2  183.24   27.79
   2  -8  -2  171.97   23.69
  -2  -8   2  124.11   27.90
   1  -8  -2  209.42   29.46
  -1  -8   2  212.39   32.77
   1   8  -2  181.80   16.35
   1  -8  -2  199.90   25.16
   1   8  -2  183.30   17.31
  -1  -8   2  208.62   23.48
  -1   8   2  189.92   10.69
   0   8  -2  320.59   19.73
   0   8  -2  313.53   20.34
   0  -8  -2  345.92   32.40
   0  -8   2  304.28   24.46
   0  -8  -2  278.68   33.16
   0  -8   2  288.30   35.59
  -1   8  -2   15.50    7.06
  -1   8  -2   29.86    7.51
   1  -8   2   44.48   18.29
  -1  -8  -2   11.96   14.06
  -1  -8  -2   27.57   12.60
   1  -8   2   52.39   12.29
   2  -8   2   57.30   11.38
   2  -8   2   61.86   19.74
  -2  -8  -2   35.08   14.96
  -2  -8  -2   56.69   19.25
  -2   8  -2   42.53    8.16
  -2   8  -2   45.51   11.12
   2  -8   2   32.37   10.35
   3  -8   2   19.74    8.69
  -3  -8  -2   42.97   16.06
   3  -8   2    5.40   13.10
  -3  -8  -2   35.51   17.04
  -3   8  -2   31.40    9.67
  -4  -8  -2   36.91   17.26
   4  -8   2   32.76   16.17
  -4  -8  -2   44.10   19.24
   4  -8   2   34.87   11.28
  -4   8  -2   44.70   11.64
  -5  -8  -2   40.43   20.64
  -5  -8  -2   27.61   18.06
   5  -8   2   36.60   12.95
   5  -8   2   52.95   18.02
  -5   8  -2   40.10   12.66
   6  -8   2   66.26   19.11
  -6  -8  -2   21.08   19.21
  -6   9   2    3.07   10.67
   6   9  -2   -5.01    8.77
  -6  -9   2  -11.11   22.37
  -6  -9   2  -19.32   14.77
   6  -9  -2   33.00   15.44
   5   9  -2   32.83   12.85
  -5  -9   2   16.83   22.48
   5  -9  -2   46.99   17.88
  -5   9   2   24.43   11.73
  -5  -9   2   61.45   21.51
  -4  -9   2   24.15   15.87
   4  -9  -2   30.93   15.25
   4   9  -2    5.01    9.22
  -4   9   2   13.28    9.88
  -4  -9   2   11.68   20.45
   3  -9  -2  395.57   30.51
   3   9  -2  324.05   27.73
  -3  -9   2  318.99   34.80
  -3  -9   2  315.30   42.53
   3  -9  -2  307.49   38.35
  -2  -9   2   75.40   17.83
  -2  -9   2   40.77   21.81
   2   9  -2   44.84   11.11
   2  -9  -2   74.61   17.83
   2   9  -2   30.04    9.82
   2  -9  -2   40.73   17.06
   1   9  -2    3.59    5.86
   1  -9  -2    0.02    8.62
   1  -9  -2    3.75   12.41
   1   9  -2    1.70    5.85
  -1  -9   2  -11.37   15.27
  -1  -9   2   -5.43    7.28
   0  -9   2  211.49   34.09
   0  -9  -2  241.28   34.15
   0  -9  -2  213.07   28.56
   0   9  -2  160.25   15.81
   0   9  -2  181.53   17.78
   0  -9   2  194.20   22.97
  -1   9  -2   92.63   14.29
  -1  -9  -2  117.67   25.64
  -1  -9  -2  142.71   24.46
  -1   9  -2  103.51   12.33
   1  -9   2  134.92   19.19
   1  -9   2  106.66   25.78
  -2   9  -2  221.57   21.28
  -2  -9  -2  179.50   30.14
  -2  -9  -2  214.04   30.35
   2  -9   2  157.96   29.66
   2  -9   2  178.62   21.54
  -3  -9  -2   -3.42   13.91
   3  -9   2   -0.11   11.85
  -3  -9  -2    4.64   11.67
  -3   9  -2    1.49    6.28
   3  -9   2   -0.54    7.03
  -4  -9  -2   21.49   17.60
  -4   9  -2    0.27    7.46
  -4  -9  -2   20.45   15.48
   4  -9   2    0.35   12.13
   4  -9   2   -7.17    7.69
   5  -9   2   37.16   16.80
  -5  -9  -2   25.32   21.07
  -5  -9  -2   23.49   17.16
   6  -9   2   21.82   14.61
  -6  -9  -2    2.41   18.28
  -5  10   2   24.90   13.35
  -5 -10   2   34.35   19.61
   5 -10  -2   37.34   17.80
   5  10  -2    9.49   10.96
  -5 -10   2   -9.59   22.95
  -4 -10   2   58.59   21.74
  -4  10   2   56.86   16.09
  -4 -10   2   27.37   24.67
   4 -10  -2   64.78   21.01
   4  10  -2   23.41   10.85
  -3 -10   2   27.00   15.77
  -3 -10   2   28.43   21.71
   3 -10  -2   26.46   16.60
   3  10  -2   57.87   14.07
   2 -10  -2   82.57   22.77
  -2 -10   2   65.33   26.92
   2  10  -2   91.02   15.21
  -2 -10   2   94.22   20.35
   2 -10  -2  119.98   23.41
  -1 -10   2   71.52   25.21
   1  10  -2   60.55   12.17
   1 -10  -2   31.60   14.66
   1  10  -2   46.22   11.39
  -1 -10   2   55.01   16.20
   1 -10  -2   52.22   20.00
   0 -10  -2  169.39   30.82
   0 -10   2  179.82   24.22
   0  10  -2  214.69   18.32
   0 -10   2  198.50   35.73
   0 -10  -2  158.86   26.22
   0  10  -2  182.99   19.17
  -1 -10  -2    0.51   10.22
  -1  10  -2    6.46    8.39
   1 -10   2   -8.99   12.80
  -1 -10  -2   11.41   15.13
   1 -10   2    9.16    8.83
   2 -10   2    1.73    7.27
   2 -10   2    5.87   15.29
  -2 -10  -2   10.87   15.41
  -2 -10  -2   14.86   12.88
   3 -10   2    1.82   14.09
  -3 -10  -2   -5.94   11.16
  -3 -10  -2   -7.19   15.30
  -3  10  -2    0.82    6.67
  -4 -10  -2  153.23   32.10
   4 -10   2  169.57   31.99
   4 -10   2  136.82   21.18
  -4 -10  -2  115.12   27.78
  -5 -10  -2   26.97   21.26
  -5 -10  -2   28.42   20.08
   5 -10   2   41.56   19.45
  -4  11   2   13.90   11.43
   4  11  -2    8.43    9.58
  -4 -11   2   38.37   27.89
  -4 -11   2    6.67   14.37
   4 -11  -2   33.56   18.57
  -3 -11   2   15.42   14.42
   3  11  -2    3.41    8.76
   3 -11  -2    6.05   14.42
  -3 -11   2    7.41   22.32
  -2 -11   2  253.85   32.27
   2 -11  -2  288.90   41.61
  -2 -11   2  356.97   49.67
   2 -11  -2  251.11   33.47
   2  11  -2  277.69   25.56
   1  11  -2   32.40   10.63
  -1 -11   2   25.48   12.65
  -1 -11   2   17.81   21.40
   1 -11  -2   41.63   16.62
   1 -11  -2   29.65   17.26
   0 -11  -2    2.37   10.43
   0 -11   2   -0.51   16.57
   0 -11  -2    6.60   15.61
   0 -11   2   16.52   11.47
  -1 -11  -2   -0.29   14.49
   1 -11   2    4.48   16.19
   1 -11   2    7.25    9.88
  -1 -11  -2    9.77   11.97
  -2 -11  -2   86.77   25.73
  -2 -11  -2  139.87   29.10
   2 -11   2  121.39   29.99
   2 -11   2  135.92   22.79
   3 -11   2   96.57   26.61
  -3 -11  -2   86.39   23.86
  -3 -11  -2   77.53   26.32
  -4 -11  -2   -6.60   14.98
   4 -11   2    0.38   13.66
  -4 -11  -2   43.20   22.63
   3 -12  -2   33.78   19.43
  -3 -12   2   13.06   22.32
   3  12  -2   22.67   12.04
  -3 -12   2   16.86   15.69
   2  12  -2   17.94   10.90
   2 -12  -2   34.80   15.29
  -2 -12   2   29.41   17.07
  -2 -12   2   11.74   22.53
   2 -12  -2   64.12   23.35
   1 -12  -2   20.58   14.79
   1 -12  -2   20.51   16.71
  -1 -12   2  -12.92   16.87
  -1 -12   2   24.73   14.25
   0 -12   2  106.89   21.91
   0 -12  -2  130.00   27.10
   0 -12   2   69.23   27.66
   0 -12  -2   88.24   25.31
  -1 -12  -2  112.77   26.77
  -1 -12  -2  166.70   36.07
   1 -12   2  105.20   21.75
   1 -12   2  108.35   31.82
   2 -12   2   -6.70   15.94
  -2 -12  -2   10.55   14.89
  -2 -12  -2   13.64   18.15
  -9   0   3   11.91   11.94
  -9   0   3   -7.11   14.20
   9   0  -3   -5.34   10.25
   8   0  -3   -4.13    7.71
  -8   0   3  -12.75    9.33
  -8   0   3    3.91    8.35
   7   0  -3   15.73    9.44
  -7   0   3   -5.98    8.36
   7   0  -3    2.51    7.71
  -7   0   3    4.31    8.26
   6   0  -3   -3.92    6.16
  -6   0   3    1.67    6.89
   6   0  -3    5.37    7.13
  -6   0   3    1.27    7.76
  -5   0   3    0.83    5.80
   5   0  -3   -0.33    4.81
  -5   0   3   -3.99    4.82
   5   0  -3    2.51    5.26
   4   0  -3   -5.96    3.70
  -4   0   3   -1.95    4.87
  -4   0   3   -0.38    4.76
   4   0  -3   -1.13    3.92
   3   0  -3   -1.06    2.93
  -3   0   3   -5.55    3.86
  -3   0   3   -0.70    3.88
   3   0  -3    1.79    3.58
   2   0  -3    1.36    2.90
  -2   0   3   -0.54    2.99
   2   0  -3   -0.81    2.67
  -2   0   3   -0.21    3.91
   2   0  -3    1.79    2.64
  -2   0   3   -4.80    2.59
   1   0  -3   12.29    4.16
  -1   0   3   -5.84    3.39
  -1   0   3    1.87    2.39
  -1   0   3    3.81    3.09
  -1   0   3    0.95    2.73
   0   0  -3   -3.19    2.10
   0   0  -3   -0.32    2.91
   0   0   3   -7.35    2.50
   0   0   3   -0.90    2.81
   0   0   3   -2.26    2.30
   0   0   3    0.18    2.81
   1   0   3    0.28    2.41
   1   0   3    4.01    3.51
  -1   0  -3    1.48    3.31
   1   0   3    1.45    2.13
  -2   0  -3    2.28    4.60
   2   0   3   -0.04    3.23
   3   0   3   -2.39    3.75
  -3   0  -3   -2.64    4.40
  -4   0  -3   -2.27    4.27
  -4   0  -3   -5.44    5.55
  -4   0  -3    3.16    2.75
  -5   0  -3   -1.90    3.79
  -5   0  -3   11.65    9.02
  -6   0  -3    4.86   10.06
  -7   0  -3    0.67   11.87
  -8   0  -3  -15.19   13.10
  -9   1   3   15.67   11.95
  -9  -1   3   19.66   14.47
  -9  -1   3   -2.21   15.63
  -9   1   3    6.33   14.82
  -8  -1   3   53.05   16.97
  -8   1   3   62.29   20.67
  -8   1   3   86.69   18.85
   8   1  -3   40.29   14.87
   8  -1  -3   61.58   15.78
  -8  -1   3   67.31   21.33
  -7   1   3   59.78   15.19
   7   1  -3   74.89   16.38
  -7   1   3   34.94   13.79
  -7  -1   3   52.81   16.89
   7  -1  -3   45.19   12.17
  -7  -1   3   43.73   14.25
   7  -1  -3   60.99   15.44
   7   1  -3   42.72   14.16
  -6   1   3  142.00   21.55
   6  -1  -3  155.56   17.82
  -6   1   3  116.94   18.45
  -6  -1   3  121.67   20.86
  -6  -1   3  126.43   20.51
   6  -1  -3  163.94   21.02
   5  -1  -3   45.91   10.25
  -5   1   3   53.40   12.75
   5   1  -3   29.82    9.69
   5  -1  -3   30.23   10.88
  -5  -1   3   56.07   13.44
   5  -1  -3   40.42   10.13
  -5  -1   3   46.90   12.39
  -5   1   3   37.79   10.90
  -4   1   3   48.59   11.63
   4   1  -3   62.72   11.65
   4  -1  -3   64.23   13.23
  -4  -1   3   61.94   12.77
  -4  -1   3   54.81   12.02
   4  -1  -3   74.50   11.91
  -4   1   3   46.99   10.40
   4  -1  -3   62.01    9.63
   3   1  -3   56.75    9.54
   3  -1  -3   59.49    9.30
  -3   1   3   47.25    9.27
   3  -1  -3   39.29   10.11
   3  -1  -3   43.21    7.20
  -3  -1   3   53.75    9.82
  -3  -1   3   58.85   11.46
   2  -1  -3   31.46    5.62
  -2  -1   3   34.56    6.89
  -2   1   3   32.03    6.33
   2   1  -3   24.41    5.96
  -2  -1   3   24.57    7.09
   2   1  -3   32.20    5.34
  -2   1   3   33.71    6.75
   2  -1  -3   33.85    6.25
   2  -1  -3   13.80    5.96
  -2   1   3   26.18    5.26
   2  -1  -3   25.60    6.17
   2   1  -3   22.41    5.78
  -1  -1   3 1983.73   64.72
   1   1  -3 2158.90   65.02
   1  -1  -3 2043.64   64.37
  -1  -1   3 2086.92   72.82
   1   1  -3 2041.50   64.43
   1  -1  -3 2018.71   72.64
  -1   1   3 2012.09   68.22
   1   1  -3 2081.84   61.07
  -1   1   3 2126.10   67.00
  -1   1   3 2130.44   62.75
  -1  -1   3 2196.98   65.03
   1  -1  -3 2093.09   62.86
  -1   1   3 1875.61   63.76
   0   1   3  155.48   11.19
   0   1   3  138.29    9.78
   0   1   3  125.35    9.86
   0  -1   3  120.20   10.46
   0  -1  -3  133.34   10.19
   0   1  -3  119.28    9.98
   0  -1   3  126.56    6.44
   0   1  -3  123.73   10.03
   0  -1   3  136.16   10.22
   0  -1  -3  126.74    9.78
   0  -1   3  130.82    6.10
   1  -1   3 1114.77   40.32
  -1  -1  -3 1084.66   40.79
   1  -1   3 1076.97   34.43
  -1   1  -3 1116.41   35.26
   1   1   3 1111.05   37.77
  -1   1  -3 1132.42   39.23
   1   1   3 1078.99   40.45
  -1  -1  -3 1081.49   37.25
   2  -1   3  151.33   10.06
   2   1   3  153.89   13.45
  -2   1  -3  160.86   11.18
  -2   1  -3  155.29   10.11
  -2  -1  -3  142.96   13.62
   2  -1   3  174.84   10.39
   3  -1   3   26.16    4.54
  -3   1  -3   22.77    6.60
  -3  -1  -3   33.29    9.08
  -3   1  -3   21.81    6.98
   3   1   3   22.61    7.88
   3  -1   3   30.59    6.96
  -4   1  -3   -4.19    6.44
  -4  -1  -3    4.11    3.83
   4  -1   3    4.37    3.45
  -4  -1  -3   19.75    9.05
  -4   1  -3    7.77    6.62
  -5   1  -3   74.93    8.23
  -5   1  -3   63.36   14.16
  -5  -1  -3   54.58    8.11
  -5  -1  -3   54.96   14.78
  -6   1  -3   79.58   17.82
  -6  -1  -3   51.02   16.28
  -7  -1  -3   60.99   20.62
  -7   1  -3   45.48   16.80
  -8  -1  -3    4.71   16.98
  -8   1  -3   -0.01   14.94
   8   2  -3   26.25   12.74
  -8  -2   3   32.81   15.05
  -8   2   3   28.62   12.18
  -8  -2   3   19.98   15.33
   8  -2  -3    8.92   10.07
  -8   2   3   20.15   13.49
  -7  -2   3   22.88   14.48
  -7   2   3    2.45    8.92
   7  -2  -3   25.96   10.19
  -7   2   3   32.79   11.20
  -7  -2   3   26.54   13.07
  -6  -2   3  113.70   20.47
  -6   2   3  198.73   24.34
  -6  -2   3  122.63   20.49
   6  -2  -3  186.94   25.21
   6  -2  -3  190.73   22.31
  -6   2   3  177.78   23.90
   6  -2  -3  199.09   18.38
  -5  -2   3  362.16   28.98
   5  -2  -3  471.54   29.08
   5   2  -3  410.16   27.37
   5  -2  -3  391.38   22.29
   5  -2  -3  422.40   30.77
  -5   2   3  445.17   29.67
  -5  -2   3  336.64   27.70
   4  -2  -3   19.81    8.59
  -4  -2   3   34.95   10.42
  -4   2   3   33.16    9.39
   4   2  -3   37.10    9.59
   4  -2  -3   35.03    7.01
   4  -2  -3   39.57    9.45
  -4  -2   3   60.62   12.44
  -3   2   3   65.73   10.61
   3   2  -3  112.71   13.32
  -3  -2   3   75.95   11.96
  -3  -2   3   83.07   13.44
   3  -2  -3   89.29   13.95
   3  -2  -3   92.49    8.48
   3  -2  -3   77.35   10.91
  -3   2   3   87.98   11.60
   2  -2  -3  596.96   26.99
  -2   2   3  621.80   22.99
   2   2  -3  580.93   26.83
  -2   2   3  634.42   30.42
   2   2  -3  641.97   27.53
  -2   2   3  646.52   27.84
  -2  -2   3  644.41   28.41
  -2  -2   3  592.94   31.21
   2  -2  -3  610.18   23.05
  -2   2   3  611.67   27.96
   2  -2  -3  542.80   30.77
  -1   2   3  223.34   15.73
  -1  -2   3  234.89   16.93
  -1  -2   3  233.72   12.94
   1  -2  -3  233.07   13.77
   1  -2  -3  214.62   11.66
  -1   2   3  218.64   13.53
  -1   2   3  244.15   12.14
   1   2  -3  223.49   14.01
   1  -2  -3  222.71   15.61
   1  -2  -3  230.12   16.44
   0   2  -3 1302.05   39.99
   0   2  -3 1299.58   44.47
   0  -2   3 1260.81   50.10
   0  -2  -3 1327.20   48.54
   0   2   3 1260.26   48.70
   0  -2   3 1322.89   40.62
   0  -2  -3 1292.04   48.53
   0   2   3 1345.93   48.42
   0   2   3 1259.53   42.25
   1   2   3   19.29    6.98
  -1  -2  -3   40.62    8.50
   1  -2   3   46.26    9.01
   1   2   3   51.64    7.38
  -1  -2  -3   43.84    6.39
  -1   2  -3   51.09    7.88
  -1   2  -3   48.37    8.23
   2   2   3  731.72   26.93
   2   2   3  749.28   34.27
  -2  -2  -3  690.90   34.60
   2  -2   3  716.47   31.55
  -2  -2  -3  710.07   27.01
  -2   2  -3  750.96   31.96
   2  -2   3  747.61   26.23
  -2   2  -3  707.06   26.93
  -3  -2  -3  572.47   32.83
  -3   2  -3  584.50   26.99
  -3  -2  -3  594.18   22.92
   3  -2   3  605.93   27.31
   3  -2   3  643.57   26.46
  -3   2  -3  566.27   29.30
  -4   2  -3   14.53    7.10
  -4  -2  -3   14.54    6.24
  -4  -2  -3   12.19    9.36
   4  -2   3   19.40    6.13
  -4  -2  -3   22.64    4.15
  -5  -2  -3  -14.29    6.79
  -5  -2  -3    3.55   10.47
   5  -2   3   10.08    5.51
  -5   2  -3    5.69    7.61
  -6  -2  -3  -10.00    9.22
  -6   2  -3  -10.13    7.73
  -7  -2  -3  183.66   31.04
  -7   2  -3  208.05   27.74
  -8  -2  -3   -5.18   15.41
  -8   2  -3   -7.15   13.47
  -8   3   3   64.57   19.70
  -8  -3   3   37.48   17.39
  -8  -3   3   36.24   19.11
  -8   3   3   83.57   18.59
   8   3  -3   30.03   13.75
  -7  -3   3   -0.01   11.85
  -7   3   3    2.71    9.48
   7  -3  -3   12.99   10.27
  -7  -3   3    6.26   11.59
  -7   3   3   14.04    8.13
   7   3  -3    4.64    8.44
   7  -3  -3    4.13    7.12
   6   3  -3   -1.32    6.58
  -6  -3   3    9.36   10.40
  -6  -3   3    7.11   10.54
   6  -3  -3    4.83    5.52
   6  -3  -3    8.16    9.29
   6  -3  -3    5.18    7.85
  -6   3   3    3.16    7.07
  -5  -3   3   54.96   15.20
  -5   3   3   51.05   12.56
   5  -3  -3   33.54   10.46
  -5  -3   3   68.52   15.78
   5  -3  -3   45.77   13.44
   5   3  -3   57.44   13.40
   5  -3  -3   60.23    9.12
   4   3  -3  295.15   22.81
  -4  -3   3  371.30   27.56
  -4  -3   3  404.95   27.98
   4  -3  -3  344.36   27.33
  -4   3   3  397.78   26.22
   4  -3  -3  387.27   18.15
   4  -3  -3  400.29   25.32
   3  -3  -3    7.01    6.66
  -3  -3   3   16.98    7.93
  -3  -3   3   23.67    9.06
  -3   3   3    9.58    5.62
  -3   3   3    5.33    4.82
   3  -3  -3    8.30    5.14
   3  -3  -3   16.06    3.94
   3   3  -3   10.02    6.00
  -2   3   3    5.64    4.57
   2   3  -3   22.96    6.94
   2  -3  -3   10.54    3.40
   2  -3  -3   16.08    5.48
   2  -3  -3    6.16    6.23
  -2   3   3    8.70    5.05
  -2  -3   3    6.41    6.45
  -2  -3   3   16.04    6.24
   2   3  -3    5.12    4.75
  -2   3   3   15.33    3.83
  -1  -3   3  207.90   17.88
   1   3  -3  168.48   12.89
  -1   3   3  139.13   14.68
  -1   3   3  181.96   13.16
   1  -3  -3  177.20   15.83
  -1  -3   3  174.30   12.47
   1  -3  -3  203.58   16.13
   1   3  -3  181.41   11.67
  -1   3   3  168.76    9.96
   1  -3  -3  204.39   13.86
   0   3   3 1088.19   44.30
   0  -3  -3 1066.24   44.41
   0  -3   3 1147.66   47.63
   0   3  -3 1088.52   35.42
   0   3  -3  998.04   38.40
   0   3   3 1104.45   40.78
   0  -3   3 1051.80   35.60
   0  -3  -3 1019.73   44.07
  -1  -3  -3  100.61   13.53
   1  -3   3  117.40    7.72
  -1  -3  -3  108.71   11.90
  -1   3  -3  132.17   11.65
   1   3   3  131.52   15.06
   1   3   3  125.19   13.38
   1  -3   3  123.06   15.11
  -1   3  -3  133.10    6.65
  -1   3  -3  125.71    7.51
  -2  -3  -3   73.18    9.60
  -2   3  -3   71.46    7.26
   2   3   3   73.99   10.03
  -2  -3  -3   56.11   11.88
  -2   3  -3   72.48    6.86
   2  -3   3   75.81    8.51
   2  -3   3   76.78   12.38
  -3  -3  -3  182.28   21.05
   3   3   3  236.49   13.68
  -3  -3  -3  236.73   15.92
  -3   3  -3  236.89   15.21
   3  -3   3  274.75   15.30
   3  -3   3  218.07   16.02
   3  -3   3  221.93   18.19
  -4   3  -3  189.34   16.40
  -4  -3  -3  229.71   25.21
   4  -3   3  209.24   17.06
   4   3   3  245.59   12.96
  -4  -3  -3  212.01   16.89
   4  -3   3  229.68   18.37
  -5   3  -3  245.49   21.06
   5  -3   3  214.82   17.54
  -5  -3  -3  201.32   18.28
  -5  -3  -3  213.61   27.58
   5  -3   3  186.10   20.32
   6  -3   3    4.21    8.27
  -6   3  -3    9.63    9.38
  -6  -3  -3    7.70   12.13
  -7  -3  -3   35.00   18.12
  -7   3  -3   90.97   19.94
  -8  -3  -3   64.32   26.66
  -8   4   3   38.35   12.44
   8   4  -3    0.74    9.96
  -8  -4   3   12.66   15.79
  -8  -4   3  -27.69   12.38
   8  -4  -3   23.89   13.23
  -8   4   3   -8.41    9.94
   7   4  -3   37.06   13.66
   7  -4  -3   41.34   15.45
  -7   4   3   29.75   13.32
  -7  -4   3   50.51   18.64
  -7  -4   3   34.79   16.46
  -6   4   3  990.93   54.39
   6   4  -3  837.83   48.52
  -6  -4   3 1077.26   58.69
   6  -4  -3  977.48   38.83
   6  -4  -3 1028.93   52.74
   6  -4  -3 1042.92   58.24
   5  -4  -3   96.26   15.77
  -5  -4   3   80.99   17.98
   5  -4  -3  122.42   10.72
  -5  -4   3   93.90   18.44
   5  -4  -3  101.45   19.34
   5   4  -3  121.59   18.85
  -5   4   3   96.28   17.11
  -4  -4   3    8.18    9.15
   4  -4  -3    1.47    4.88
   4   4  -3    5.43    5.85
  -4   4   3   10.36    6.97
   4  -4  -3   -0.73    2.72
  -4  -4   3    8.30    8.66
   4  -4  -3   -0.01    6.42
  -4   4   3    3.43    5.63
   3  -4  -3   72.11   11.78
   3  -4  -3   63.01   14.03
  -3  -4   3   45.14   11.27
   3  -4  -3   65.12    5.43
  -3  -4   3   65.11   14.66
  -3   4   3   59.48   11.29
  -3   4   3   42.81    9.57
   3   4  -3   60.22   11.82
   2   4  -3 2893.28   96.41
   2  -4  -3 2843.47   94.88
  -2   4   3 2931.03   81.27
   2   4  -3 2921.40   92.94
  -2  -4   3 2708.06  106.71
   2  -4  -3 2768.79  106.53
  -2  -4   3 2938.93   97.82
   2  -4  -3 2994.37  102.45
   1   4  -3  575.09   27.20
  -1  -4   3  608.05   27.90
  -1  -4   3  565.13   34.64
   1  -4  -3  608.50   33.66
  -1   4   3  577.39   28.03
   1   4  -3  624.74   27.30
   1  -4  -3  596.70   32.03
  -1   4   3  607.54   22.12
   0   4  -3  122.38    7.15
   0   4   3  103.83   11.97
   0  -4   3  146.51   18.66
   0   4  -3  109.78    9.70
   0  -4   3  101.09    9.24
   0  -4  -3  113.71   15.05
   0  -4  -3  106.63   14.51
   0   4  -3  142.86   12.50
  -1  -4  -3  285.96   21.59
   1  -4   3  278.50   13.37
  -1   4  -3  287.07   14.84
  -1  -4  -3  265.38   19.62
  -1   4  -3  273.22   16.49
   1  -4   3  300.32   24.17
  -2   4  -3  586.96   24.03
   2  -4   3  547.35   32.23
   2  -4   3  482.49   23.07
  -2  -4  -3  525.36   28.51
  -2   4  -3  507.15   21.80
  -2  -4  -3  487.19   32.01
  -3   4  -3  261.73   17.27
  -3   4  -3  269.74   16.36
  -3  -4  -3  272.08   26.65
   3  -4   3  243.53   21.25
   3  -4   3  283.44   18.21
  -3  -4  -3  256.04   19.74
  -4  -4  -3   86.18   18.48
  -4  -4  -3   83.83   14.31
   4  -4   3   77.98   14.16
  -4   4  -3   76.09   11.80
   4  -4   3   61.33   11.30
   5  -4   3   22.90    8.93
  -5  -4  -3   19.25   13.35
  -5  -4  -3   15.07   11.58
   5  -4   3   20.18    9.17
  -5   4  -3   22.63    9.76
  -6  -4  -3   78.98   21.02
   6  -4   3   67.88   13.53
  -6   4  -3   73.17   16.49
   6  -4   3   73.62   16.36
  -7  -4  -3   64.66   22.33
  -7   4  -3   70.72   19.63
   8   5  -3   85.24   20.56
  -8   5   3   75.39   21.42
   8  -5  -3  120.99   25.56
  -8  -5   3  103.81   27.79
  -8  -5   3   82.58   26.42
  -7  -5   3   64.68   21.95
  -7  -5   3    9.06   14.34
   7  -5  -3   18.38   12.37
   7   5  -3   34.97   13.94
  -7   5   3   26.79   13.40
   6  -5  -3   19.01   10.86
  -6   5   3    5.81    9.19
   6  -5  -3   14.76   10.68
  -6  -5   3   21.67   14.10
   6   5  -3   11.25    9.49
  -6  -5   3   10.69   13.89
  -5   5   3   22.80    9.40
   5  -5  -3   14.31    8.90
   5  -5  -3   30.42   13.03
   5   5  -3   25.39   10.78
  -5  -5   3   33.94   15.83
  -5  -5   3   50.91   16.46
  -4  -5   3  401.49   33.21
   4   5  -3  387.90   27.07
   4  -5  -3  349.29   30.26
   4  -5  -3  327.18   25.09
  -4  -5   3  366.46   29.71
  -4   5   3  312.38   24.92
   4  -5  -3  354.93   12.78
  -3  -5   3  148.92   22.51
   3  -5  -3  179.48   23.04
  -3   5   3  108.78   15.03
   3  -5  -3  119.11   15.53
  -3  -5   3  129.61   18.11
  -3   5   3  101.05   14.57
   3   5  -3   97.78   14.61
  -2  -5   3   -1.17    6.81
  -2   5   3    6.17    2.20
  -2   5   3    3.94    5.24
   2  -5  -3   -1.73    5.66
   2  -5  -3   -1.08    6.56
  -2  -5   3   10.18   10.43
   2   5  -3    4.47    5.40
   2  -5  -3    8.81    5.55
  -1  -5   3  760.16   45.80
   1   5  -3  949.47   38.70
   1  -5  -3  845.40   43.28
  -1   5   3  893.67   38.93
  -1  -5   3  909.11   38.99
  -1   5   3  893.09   29.96
   1   5  -3  893.51   37.16
   1  -5  -3  901.02   46.15
   0   5   3  199.52   16.16
   0  -5   3  218.62   24.48
   0  -5  -3  202.07   21.07
   0   5  -3  210.27   14.66
   0  -5  -3  237.17   22.36
   0   5  -3  212.67   11.47
   0  -5   3  204.89   14.36
  -1  -5  -3    7.04    7.47
  -1  -5  -3   10.57    8.91
   1  -5   3    7.32    3.37
  -1   5  -3   13.95    6.19
   1  -5   3    3.36   10.96
   1  -5   3    6.72    4.33
  -1   5  -3   11.88    4.29
  -1   5  -3    9.71    5.05
  -2   5  -3  100.06   11.13
  -2   5  -3  108.28    9.80
   2  -5   3   94.71   10.29
   2  -5   3  103.10   18.74
  -2  -5  -3  114.72   18.76
  -2  -5  -3   90.85   15.21
  -3  -5  -3  772.89   40.10
  -3   5  -3  803.91   35.43
  -3  -5  -3  710.38   44.42
   3  -5   3  781.11   43.46
  -3   5  -3  771.13   33.34
   3  -5   3  754.83   34.50
  -4  -5  -3  458.84   31.53
  -4   5  -3  498.07   27.22
  -4  -5  -3  482.64   38.00
   4  -5   3  490.22   33.13
   4  -5   3  447.53   27.58
  -5   5  -3   32.03   10.40
  -5  -5  -3   22.09   14.18
  -5  -5  -3   21.32   13.78
   5  -5   3   27.67   10.50
   5  -5   3   37.48   11.56
  -6   5  -3    4.04    8.77
   6  -5   3   17.69    9.27
  -6  -5  -3   10.25   14.60
   6  -5   3   -1.34    7.62
  -7  -5  -3   98.90   27.51
   8  -6  -3   68.40   22.27
  -8  -6   3   35.61   22.07
   7  -6  -3   94.75   23.01
  -7  -6   3   69.72   24.06
  -7  -6   3   93.63   26.12
   7   6  -3   57.83   17.45
  -7   6   3   70.79   18.97
  -6   6   3  153.21   23.88
   6  -6  -3  235.42   32.55
   6   6  -3  159.78   24.45
  -6  -6   3  185.55   32.59
  -6  -6   3  171.91   29.10
  -5  -6   3  278.30   31.87
   5   6  -3  266.26   28.07
  -5   6   3  219.63   25.29
   5  -6  -3  270.27   27.16
  -5  -6   3  252.09   32.32
   5  -6  -3  292.88   34.20
  -4  -6   3  139.78   26.40
   4  -6  -3  124.81   18.21
  -4  -6   3  145.60   22.91
   4   6  -3  124.33   18.73
  -4   6   3  106.83   17.46
   4  -6  -3  120.73   22.96
  -3   6   3   99.65   15.33
   3   6  -3   96.10   15.00
   3  -6  -3  101.38   15.53
  -3  -6   3   74.75   19.63
  -3  -6   3  106.08   18.49
   3  -6  -3  109.57   20.25
  -2  -6   3  248.12   23.02
   2   6  -3  202.83   19.11
  -2  -6   3  202.44   27.04
   2  -6  -3  233.70   19.32
  -2   6   3  182.98   18.83
   2  -6  -3  238.42   24.81
   2  -6  -3  208.30   25.45
   1  -6  -3 1046.05   52.40
   1   6  -3 1110.51   39.02
  -1  -6   3 1076.17   58.31
   1   6  -3 1141.99   44.74
  -1   6   3 1105.66   35.78
   1  -6  -3 1076.34   55.56
  -1  -6   3 1154.03   48.05
  -1   6   3  993.01   45.77
   0  -6  -3  840.45   46.83
   0  -6  -3  971.51   50.03
   0   6  -3  981.37   34.96
   0   6  -3  951.86   38.16
   0   6  -3  920.55   40.32
   0  -6   3  946.92   53.30
   0  -6   3  928.57   39.68
   0   6   3  913.44   41.87
   1  -6   3  879.64   51.32
  -1  -6  -3  900.22   47.89
  -1   6  -3  846.69   38.27
  -1   6  -3  927.85   35.45
   1  -6   3  938.95   38.06
  -1  -6  -3  890.66   48.06
  -1   6  -3  913.15   36.57
  -2  -6  -3  268.09   28.43
  -2  -6  -3  289.20   25.80
  -2   6  -3  297.03   18.15
   2  -6   3  272.65   28.97
  -2   6  -3  270.41   19.59
   2  -6   3  291.22   17.61
  -2   6  -3  291.23   17.33
  -3   6  -3  148.00   16.11
  -3   6  -3  201.54   15.59
  -3  -6  -3  207.21   23.78
  -3  -6  -3  176.50   25.53
   3  -6   3  216.18   16.82
   3  -6   3  218.56   26.16
   4  -6   3  576.68   38.98
  -4   6  -3  511.92   29.60
   4  -6   3  560.96   31.61
  -4  -6  -3  588.34   43.28
  -4  -6  -3  554.77   37.01
  -5   6  -3  218.70   21.77
  -5  -6  -3  167.36   29.90
   5  -6   3  238.04   23.45
   5  -6   3  229.61   26.22
   6  -6   3  393.71   31.69
   6  -6   3  370.79   30.38
  -6  -6  -3  320.76   40.91
  -7  -6  -3   45.93   22.58
  -7  -7   3   -3.91   19.88
  -7  -7   3   41.70   21.79
   7   7  -3   79.56   20.14
  -7   7   3   56.27   18.81
   7  -7  -3   55.66   19.02
  -6   7   3   78.10   19.08
   6  -7  -3  121.65   25.79
   6   7  -3   62.31   16.64
  -6  -7   3   87.27   26.50
  -6  -7   3   71.62   23.13
   5   7  -3  127.93   21.39
   5  -7  -3  130.88   26.00
  -5  -7   3   88.75   22.22
  -5  -7   3  122.86   27.15
  -5   7   3   83.86   17.48
   5  -7  -3  114.25   19.89
  -4  -7   3  515.65   39.23
  -4   7   3  479.89   33.50
   4   7  -3  539.59   34.07
  -4  -7   3  431.08   40.83
   4  -7  -3  508.91   40.30
   4  -7  -3  536.52   35.06
  -3   7   3  268.94   25.79
   3  -7  -3  300.45   24.79
  -3  -7   3  284.12   35.43
   3  -7  -3  286.84   33.13
   3   7  -3  310.38   23.79
  -3  -7   3  338.68   29.29
   2  -7  -3   13.28    7.95
  -2  -7   3    2.62    8.69
   2   7  -3    1.20    5.60
   2  -7  -3   16.46   11.97
   2  -7  -3    1.64    7.67
  -2  -7   3   23.26   16.73
   1  -7  -3  376.20   29.86
   1   7  -3  362.76   19.17
  -1  -7   3  348.51   25.37
  -1  -7   3  285.83   33.73
  -1   7   3  344.08   24.52
   1  -7  -3  329.59   30.54
   1   7  -3  354.62   22.33
   0   7  -3  113.64   11.16
   0  -7   3   68.74   20.82
   0  -7  -3   97.63   18.72
   0   7  -3  127.91   13.89
   0   7   3  113.82   15.98
   0  -7  -3   84.84   18.81
   0  -7   3  109.65   14.60
  -1  -7  -3  551.68   38.66
  -1   7  -3  574.87   27.78
   1  -7   3  609.93   30.68
  -1  -7  -3  611.06   40.69
   1  -7   3  567.07   42.92
  -1   7  -3  577.76   27.37
   2  -7   3  111.51   12.68
  -2   7  -3  112.90   12.79
   2  -7   3  122.64   23.26
  -2   7  -3  146.84   13.98
  -2  -7  -3   89.87   19.51
  -2  -7  -3  125.74   22.14
   3  -7   3  702.80   46.68
  -3  -7  -3  672.74   43.06
   3  -7   3  707.62   34.22
  -3   7  -3  678.09   33.18
  -3  -7  -3  649.92   45.50
  -4   7  -3  309.04   22.49
  -4  -7  -3  266.61   29.75
   4  -7   3  339.49   34.22
   4  -7   3  291.38   22.97
  -4  -7  -3  262.35   33.79
  -5   7  -3   -5.18    6.72
  -5  -7  -3   -8.90   11.86
   5  -7   3    1.36    7.71
   5  -7   3   22.02   11.68
  -6  -7  -3   34.53   20.40
   6  -7   3   66.41   17.45
  -7   8   3   83.08   21.30
   7   8  -3   51.91   18.19
  -7  -8   3   79.32   30.63
   7  -8  -3   79.72   22.03
  -7  -8   3   97.33   29.23
  -6  -8   3  234.41   35.94
  -6   8   3  255.34   31.00
   6  -8  -3  306.64   39.24
  -6  -8   3  227.36   38.09
  -5   8   3   51.45   15.12
   5  -8  -3   70.04   19.34
  -5  -8   3   53.09   19.53
  -5  -8   3   18.66   20.86
   5   8  -3   25.18   12.13
   4  -8  -3   -2.17    9.59
  -4  -8   3   10.69   17.23
   4  -8  -3   -3.96    7.61
   4   8  -3    4.45    8.13
  -4  -8   3  -12.13   10.07
  -4   8   3   -1.11    7.02
   3   8  -3   22.35    9.89
  -3  -8   3   12.03   16.85
  -3  -8   3   19.71   12.60
   3  -8  -3    4.05   10.46
   3  -8  -3   23.41   10.78
  -2  -8   3  579.92   37.84
   2   8  -3  555.06   32.03
  -2  -8   3  494.09   45.15
   2  -8  -3  617.44   41.19
   2  -8  -3  547.80   42.63
  -1  -8   3  488.18   31.82
  -1  -8   3  329.03   39.68
   1  -8  -3  449.59   35.27
   1   8  -3  458.48   23.82
   1  -8  -3  500.84   39.47
   1   8  -3  441.66   26.57
   0  -8   3  138.31   17.49
   0  -8   3  112.83   27.03
   0   8  -3  122.53   14.25
   0  -8  -3   95.32   21.52
   0  -8  -3  138.68   23.42
   0   8  -3  125.14   12.98
  -1  -8  -3  259.02   30.17
  -1   8  -3  266.21   18.98
   1  -8   3  341.01   38.30
   1  -8   3  262.47   21.07
  -1  -8  -3  332.59   34.70
  -1   8  -3  235.75   17.63
  -2  -8  -3  201.34   28.53
  -2  -8  -3  133.91   24.56
   2  -8   3  114.01   24.36
  -2   8  -3  170.58   17.43
   2  -8   3  147.93   15.48
  -2   8  -3  145.95   14.62
  -3  -8  -3   95.05   22.29
   3  -8   3  135.36   25.67
  -3   8  -3  105.03   14.61
  -3  -8  -3  108.22   22.78
   3  -8   3  108.74   15.36
  -4  -8  -3   12.51   14.04
  -4   8  -3    1.41    7.01
   4  -8   3    4.89    7.14
   4  -8   3    3.27   11.69
  -4  -8  -3   -4.87   11.64
  -5  -8  -3   94.39   26.77
   5  -8   3   82.46   16.87
   5  -8   3   85.99   21.54
  -6  -8  -3  261.43   41.98
   6  -8   3  294.55   34.84
   6  -9  -3   11.33   12.79
  -6  -9   3  -18.68   14.02
   6   9  -3    2.53    9.65
  -6   9   3    6.07   11.41
  -6  -9   3  -45.33   18.75
   5  -9  -3   13.74   12.88
  -5  -9   3  -20.14   17.89
   5   9  -3    4.59    8.46
  -5   9   3    1.23    8.85
  -5  -9   3  -13.07   12.64
  -4  -9   3  272.59   42.21
  -4  -9   3  203.94   30.28
   4  -9  -3  207.40   32.86
  -4   9   3  228.22   27.38
  -3  -9   3  488.33   39.48
   3  -9  -3  479.09   42.62
  -3  -9   3  456.00   50.33
   3   9  -3  457.35   31.62
   2   9  -3    2.99    5.98
   2   9  -3    9.98    7.67
   2  -9  -3   -5.41    7.26
   2  -9  -3   -3.39    9.97
  -2  -9   3   -5.60   15.98
  -2  -9   3   11.30   10.98
  -1  -9   3    6.12    8.53
  -1  -9   3   -6.10   14.70
   1  -9  -3    1.60    8.67
   1  -9  -3   -9.78   10.13
   1   9  -3    6.46    6.27
   1   9  -3    1.22    5.57
   0   9  -3  425.35   25.01
   0   9  -3  425.59   25.34
   0  -9   3  449.56   46.44
   0  -9   3  412.32   29.61
   0  -9  -3  407.32   38.13
   0  -9  -3  438.66   36.86
  -1  -9  -3  516.24   40.90
  -1  -9  -3  455.99   40.27
   1  -9   3  458.47   30.80
  -1   9  -3  497.70   28.44
  -1   9  -3  486.98   26.53
   1  -9   3  473.62   43.98
  -2   9  -3   -0.63    6.17
  -2  -9  -3   -4.97    9.34
   2  -9   3   10.32   15.39
  -2  -9  -3   27.14   17.41
  -3  -9  -3    8.11   12.26
   3  -9   3   20.42   16.25
   3  -9   3    0.69    8.40
  -3  -9  -3   -4.86   12.62
  -3   9  -3   10.62    7.38
   4  -9   3  373.13   41.62
  -4  -9  -3  409.49   41.10
  -5  -9  -3  214.88   37.97
   5  -9   3  220.50   33.46
  -5 -10   3  206.23   35.92
  -5  10   3  179.68   27.52
  -5 -10   3  129.96   36.30
   5 -10  -3  180.70   33.94
  -4  10   3   25.04   12.38
  -4 -10   3   15.61   15.39
   4 -10  -3   32.70   15.77
  -4 -10   3   25.25   24.86
   4  10  -3   15.52   11.05
   3 -10  -3   30.24   16.43
  -3 -10   3   19.90   13.16
  -3 -10   3   43.68   25.38
   3  10  -3   45.42   13.08
   2  10  -3   15.19    8.76
  -2 -10   3   10.15   11.69
   2 -10  -3   21.35   14.40
   2 -10  -3    4.60   10.11
  -2 -10   3   -9.80   18.01
   1  10  -3  130.50   17.58
  -1 -10   3  152.54   22.57
  -1 -10   3  181.59   35.04
   1 -10  -3  207.36   34.28
   1 -10  -3  101.14   21.93
   0 -10   3   11.91    8.62
   0  10  -3    0.62    6.58
   0 -10  -3    7.03   10.98
   0 -10   3  -19.43   13.52
   0 -10  -3    9.21   13.59
  -1 -10  -3   30.23   14.51
  -1 -10  -3   27.16   17.62
   1 -10   3   12.59    9.06
   1 -10   3   56.83   22.74
  -2 -10  -3  426.42   45.17
  -2 -10  -3  374.16   42.18
   2 -10   3  372.85   44.11
   3 -10   3   60.02   22.26
  -3 -10  -3   76.38   22.52
  -3 -10  -3   77.70   24.14
  -4 -10  -3  146.24   30.33
   4 -10   3  101.55   25.36
  -4 -10  -3  128.58   29.64
  -5 -10  -3   12.58   19.12
  -4 -11   3   11.44   26.64
  -4 -11   3   62.34   21.94
   4  11  -3   28.86   13.29
   4 -11  -3   41.02   18.79
  -4  11   3   32.23   14.89
   3  11  -3  181.66   23.98
  -3 -11   3  223.58   42.84
  -3 -11   3  316.39   36.85
  -2 -11   3   -7.80   17.79
  -2 -11   3   11.11   12.36
   2 -11  -3   12.89   14.03
   2  11  -3    7.70    8.42
   2 -11  -3    4.76   11.35
  -1 -11   3   99.21   31.54
   1 -11  -3   90.30   25.52
   1 -11  -3  104.93   23.40
  -1 -11   3  119.09   22.64
   1  11  -3  115.15   17.54
   0 -11   3   64.30   26.59
   0 -11   3   73.11   17.07
   0 -11  -3   40.68   17.38
   0 -11  -3   88.30   25.37
  -1 -11  -3  167.20   31.48
   1 -11   3  109.05   29.87
   1 -11   3  109.11   19.74
  -1 -11  -3  153.63   32.00
  -2 -11  -3   10.40   15.51
   2 -11   3   33.09   21.15
  -2 -11  -3    8.83   13.20
   3 -11   3   21.49   16.72
  -3 -11  -3   11.20   16.24
  -3 -11  -3    8.99   17.51
  -3 -12   3   -0.85   13.01
   3 -12  -3   14.98   16.61
  -3 -12   3   -7.05   22.50
   2 -12  -3    1.13   12.20
  -2 -12   3    6.99   13.75
   2  12  -3    5.80    9.15
  -2 -12   3  -24.98   20.16
   2 -12  -3   29.50   18.22
   1 -12  -3   59.53   23.61
   1 -12  -3   67.44   20.28
  -1 -12   3   10.49   20.93
  -1 -12   3   45.64   16.17
   0 -12  -3   33.81   18.67
   0 -12  -3   23.67   16.16
   0 -12   3   13.77   21.08
  -1 -12  -3   45.45   18.80
   1 -12   3   53.73   25.24
  -1 -12  -3  111.30   28.76
   2 -12   3   23.72   19.49
  -2 -12  -3   33.86   20.05
  -2 -12  -3    4.95   15.22
  -8   0   4  206.23   30.87
   8   0  -4  193.48   24.79
   7   0  -4  108.38   17.93
  -7   0   4   86.01   18.57
  -7   0   4  112.43   22.49
   7   0  -4  131.86   21.73
  -6   0   4    1.38    7.24
   6   0  -4   -1.76    5.62
   6   0  -4   13.10    8.35
  -6   0   4    1.93    7.54
   5   0  -4    0.33    4.97
  -5   0   4   -2.93    5.67
   5   0  -4   -2.61    4.95
  -5   0   4    2.75    5.69
  -4   0   4 1868.55   74.52
   4   0  -4 2059.49   68.93
  -4   0   4 1885.62   78.42
   4   0  -4 2043.73   70.93
  -3   0   4 2964.96   97.51
   3   0  -4 2817.53   91.47
   3   0  -4 2817.61   89.64
  -2   0   4  912.46   37.65
  -2   0   4 1035.47   36.19
   2   0  -4  941.81   36.42
   2   0  -4  980.31   38.18
  -2   0   4  902.18   41.61
   2   0  -4  962.96   35.21
  -1   0   4 1368.91   52.51
  -1   0   4 1460.24   44.82
   1   0  -4 1286.11   43.94
  -1   0   4 1351.35   46.66
   1   0  -4 1314.68   47.25
  -1   0   4 1459.35   48.66
   0   0   4 3203.88  104.95
   0   0   4 3269.79   98.02
   0   0  -4 3131.57   97.87
   0   0  -4 3202.87   97.04
   0   0   4 3198.85  105.00
  -1   0  -4 1333.67   45.31
   1   0   4 1295.29   45.20
   1   0   4 1371.35   45.22
   1   0   4 1302.25   45.60
   2   0   4  558.92   25.17
  -2   0  -4  583.82   26.59
   3   0   4 1829.28   63.30
  -3   0  -4 1688.69   64.34
  -4   0  -4 2866.04  101.15
  -5   0  -4   97.39   17.95
  -6   0  -4   -1.36   10.25
  -7   0  -4   13.62   15.77
  -8   0  -4  292.00   38.39
  -8   1   4   43.89   14.41
  -8  -1   4   47.76   17.94
  -8  -1   4   50.83   17.65
   8   1  -4   37.54   14.84
   8  -1  -4   42.51   13.52
  -8   1   4   51.57   18.38
  -7   1   4   11.98    8.70
  -7  -1   4    6.81   11.16
   7   1  -4   -1.39    7.51
   7  -1  -4    8.37    7.85
   7  -1  -4   -2.01    7.44
  -7   1   4   -0.11    8.60
  -7  -1   4    2.68    8.66
   7   1  -4   -1.27    7.53
   6  -1  -4  649.94   33.91
  -6   1   4  621.80   39.96
   6  -1  -4  643.91   37.91
  -6  -1   4  654.68   41.73
  -6  -1   4  585.67   40.11
   6   1  -4  567.75   35.07
  -6   1   4  664.85   42.01
   6   1  -4  563.71   35.66
   5  -1  -4  814.47   42.08
   5   1  -4  901.32   42.63
   5   1  -4  938.46   42.87
   5  -1  -4  861.79   38.65
  -5   1   4  914.99   47.86
  -5  -1   4  922.40   48.47
   4   1  -4   46.71    9.90
   4  -1  -4   55.13   13.14
   4  -1  -4   41.10    9.36
   4  -1  -4   33.30    7.90
  -4  -1   4   34.28   10.35
  -4  -1   4   41.84   10.63
   4   1  -4   38.37    8.76
  -4   1   4   36.50    9.96
  -4   1   4   36.14   10.42
   3  -1  -4   67.46    9.20
   3   1  -4   62.76   10.14
  -3   1   4   50.66    9.18
  -3  -1   4   49.59   10.87
  -3  -1   4   46.03    9.44
   3  -1  -4   67.98    9.87
  -3   1   4   61.53   11.79
   3  -1  -4   72.23   13.02
   3   1  -4   56.06    8.22
  -3   1   4   76.87   11.69
   2  -1  -4  232.06   14.40
   2   1  -4  263.16   15.73
  -2   1   4  222.93   16.78
  -2   1   4  266.30   15.53
  -2   1   4  230.79   15.76
  -2  -1   4  249.39   15.59
  -2  -1   4  233.90   18.30
   2  -1  -4  247.71   18.97
   2   1  -4  221.54   15.40
   2  -1  -4  245.06   14.98
  -1   1   4 2501.21   81.00
  -1  -1   4 2424.78   76.24
   1  -1  -4 2391.14   86.09
  -1  -1   4 2385.46   85.85
  -1   1   4 2427.04   75.86
   1   1  -4 2412.07   71.71
   1  -1  -4 2505.64   75.86
  -1   1   4 2425.54   78.58
   1   1  -4 2379.44   76.95
  -1  -1   4 2540.59   72.26
   1  -1  -4 2415.44   75.99
   0   1   4  390.21   19.96
   0  -1  -4  401.84   20.31
   0   1  -4  390.56   20.46
   0  -1   4  380.73   14.55
   0   1   4  428.91   20.53
   0  -1  -4  398.71   20.16
   0  -1   4  401.18   15.50
   0  -1   4  383.04   20.52
   1   1   4  164.18    9.63
  -1   1  -4  165.61    8.40
   1  -1   4  162.06   12.52
   1  -1   4  163.36    8.19
  -1  -1  -4  168.08   13.19
   1   1   4  168.36   13.57
  -1   1  -4  168.80   11.00
   1   1   4  180.07   10.78
   2   1   4  860.56   36.63
   2  -1   4  850.15   31.25
  -2   1  -4  868.72   32.70
  -2  -1  -4  868.95   37.73
   2  -1   4  857.70   32.65
  -2   1  -4  892.83   31.48
  -3   1  -4   15.00    6.36
   3  -1   4    7.56    2.58
   3  -1   4    7.29    4.58
   3   1   4   -1.41    5.36
  -3  -1  -4   17.85    8.19
  -3   1  -4    5.61    2.88
  -4   1  -4   97.26    5.60
  -4  -1  -4   59.96   14.08
  -4   1  -4  105.92   14.84
  -5   1  -4   -9.75    7.44
  -5  -1  -4    8.13    9.98
  -6  -1  -4  339.46   33.66
  -6   1  -4  364.58   30.32
  -7   1  -4  119.40   23.92
  -7  -1  -4  159.31   28.10
  -8  -1  -4   -1.10   16.06
  -8   2   4  237.31   30.65
  -8  -2   4  252.20   33.62
  -8  -2   4  172.27   30.52
  -8   2   4  204.36   32.55
   8   2  -4  191.66   26.43
   8  -2  -4  218.40   23.54
   7   2  -4  155.30   22.25
  -7   2   4  156.34   24.55
  -7  -2   4  178.85   27.75
   7   2  -4  136.81   21.72
   7  -2  -4  138.62   17.88
  -7  -2   4  167.99   27.43
  -7   2   4  166.50   24.99
   6   2  -4  238.25   25.50
   6  -2  -4  236.16   20.02
  -6   2   4  218.47   26.56
  -6  -2   4  211.36   27.52
   6  -2  -4  244.22   25.09
  -6  -2   4  256.58   29.64
   6  -2  -4  273.71   30.92
  -6   2   4  239.47   27.69
   5  -2  -4   57.47   12.29
  -5  -2   4   40.93   12.61
  -5   2   4   41.18   11.21
   5  -2  -4   33.14   12.60
   5  -2  -4   49.30    9.48
   5   2  -4   46.05   12.05
  -5  -2   4   30.67   11.98
   4   2  -4  171.69   17.86
  -4   2   4  138.13   17.22
   4  -2  -4  162.02   20.62
   4  -2  -4  179.70   13.45
  -4  -2   4  148.64   20.15
   4  -2  -4  179.12   17.65
  -4  -2   4  203.36   20.62
  -3   2   4 1435.97   53.87
   3  -2  -4 1470.24   53.73
   3  -2  -4 1422.08   61.50
  -3  -2   4 1430.13   55.54
  -3  -2   4 1323.44   59.74
  -3   2   4 1251.60   53.82
   3   2  -4 1401.03   53.09
   3  -2  -4 1358.45   47.16
   2   2  -4   66.24   10.25
  -2   2   4   47.75    8.64
  -2  -2   4   39.80   10.25
   2  -2  -4   58.88   11.41
  -2  -2   4   78.51   10.05
   2  -2  -4   69.04    8.25
   2   2  -4   78.67    9.65
  -2   2   4   81.07    8.71
  -2   2   4   80.16   10.28
   2  -2  -4   69.55    9.56
   2   2  -4   75.57    6.91
  -1  -2   4  748.38   28.45
   1  -2  -4  722.39   33.74
   1   2  -4  769.31   27.92
   1   2  -4  776.84   32.01
  -1   2   4  746.81   30.51
   1  -2  -4  740.21   30.79
  -1   2   4  785.42   34.35
   1  -2  -4  757.13   35.42
   1  -2  -4  694.88   28.57
  -1  -2   4  753.60   35.80
   1   2  -4  741.01   23.34
   0   2   4 1439.88   54.28
   0  -2  -4 1505.25   55.30
   0  -2   4 1506.63   45.67
   0  -2  -4 1423.07   54.34
   0   2   4 1408.86   50.60
   0  -2   4 1483.09   57.03
   0   2  -4 1463.20   51.47
  -1  -2  -4  213.65   12.94
   1  -2   4  234.18   17.35
  -1   2  -4  202.25   15.01
   1   2   4  202.88   16.61
  -1  -2  -4  208.06   16.38
   1   2   4  223.01   14.77
   2   2   4   35.85    5.63
  -2  -2  -4   43.79    4.62
   2  -2   4   37.13    8.67
  -2   2  -4   39.50    5.43
  -2  -2  -4   47.23   10.48
   2  -2   4   46.44    4.81
  -2   2  -4   35.86    7.68
   2   2   4   44.56   10.60
   3  -2   4   12.59    5.63
  -3  -2  -4    3.72    7.27
  -3   2  -4    8.38    5.44
  -3   2  -4   -3.41    5.74
   3  -2   4    5.22    3.96
   4  -2   4  988.13   39.77
   4  -2   4  906.53   36.16
  -4   2  -4  894.14   40.60
  -4   2  -4  901.38   38.90
  -4  -2  -4  961.88   48.52
  -5   2  -4  488.43   30.73
  -5  -2  -4  446.15   34.86
  -6   2  -4   -1.98    8.77
  -6  -2  -4   -2.40   11.61
  -7  -2  -4   43.92   20.07
  -7   2  -4   37.50   16.92
  -8   3   4   19.52   13.75
  -8  -3   4    3.89   15.02
  -8  -3   4   10.56   13.33
   8   3  -4    4.99   10.85
  -8   3   4   28.40   11.66
  -7  -3   4    2.33   10.67
  -7   3   4    5.32    7.74
  -7  -3   4  -15.68    9.10
   7   3  -4    0.55    8.59
   7  -3  -4    1.95    7.12
   7  -3  -4   -5.98    8.57
  -7   3   4  -10.08    7.41
   6   3  -4  256.58   26.97
  -6   3   4  226.85   26.86
   6  -3  -4  233.43   29.49
  -6  -3   4  236.26   29.34
  -6  -3   4  202.39   26.95
   6  -3  -4  287.76   27.68
   6  -3  -4  248.76   18.33
  -5  -3   4  733.21   45.68
  -5  -3   4  766.57   44.83
   5  -3  -4  850.24   48.73
   5  -3  -4  748.77   32.37
   5  -3  -4  728.83   40.35
  -5   3   4  783.23   43.78
   5   3  -4  858.12   43.15
  -4   3   4   64.75   12.81
  -4  -3   4   54.62   12.75
  -4  -3   4   56.07   14.15
   4  -3  -4   81.76   13.52
  -4   3   4   29.78    9.50
   4  -3  -4   68.70    8.74
   4   3  -4   65.86   13.00
   4  -3  -4   63.08   15.00
   3  -3  -4  269.57   14.35
  -3  -3   4  151.99   19.81
  -3   3   4  258.37   18.92
   3   3  -4  229.73   18.30
   3  -3  -4  219.48   17.35
   3  -3  -4  260.20   22.49
  -3  -3   4  223.14   18.72
  -3   3   4  226.05   18.25
   2   3  -4  580.31   29.04
  -2   3   4  634.65   24.20
   2   3  -4  600.56   27.71
   2  -3  -4  580.90   23.87
  -2   3   4  559.36   29.38
   2  -3  -4  600.26   29.10
  -2  -3   4  596.57   28.81
   2  -3  -4  564.59   33.61
  -2   3   4  672.94   30.30
  -2  -3   4  593.84   34.34
  -1   3   4  648.70   29.67
  -1   3   4  697.06   26.81
   1   3  -4  622.83   29.62
  -1  -3   4  699.07   27.79
   1   3  -4  701.63   26.61
   1  -3  -4  644.23   33.43
   1  -3  -4  638.07   34.01
  -1  -3   4  693.25   36.22
   0  -3  -4  359.38   23.01
   0  -3   4  344.56   24.38
   0   3  -4  349.22   20.06
   0  -3   4  334.49   13.41
   0   3   4  360.72   23.24
   0   3  -4  361.52   13.03
   0  -3  -4  385.72   22.37
   0   3   4  314.97   19.27
  -1  -3  -4  338.74   19.52
   1  -3   4  342.47   14.26
   1  -3   4  340.07   23.87
  -1   3  -4  358.07   20.32
  -1  -3  -4  333.26   23.10
   2   3   4 1252.58   46.19
   2  -3   4 1177.71   42.54
  -2  -3  -4 1158.95   52.70
  -2   3  -4 1229.13   39.37
   2  -3   4 1179.33   50.71
  -2   3  -4 1179.28   39.28
  -2  -3  -4 1212.86   44.78
   3  -3   4  209.64   17.92
   3  -3   4  254.96   14.43
  -3  -3  -4  249.77   13.37
  -3   3  -4  248.18   15.32
   3   3   4  255.06   12.64
  -3  -3  -4  286.74   23.99
  -4   3  -4    8.68    6.94
   4  -3   4    7.72    5.50
   4  -3   4    8.02    6.21
  -4  -3  -4    9.37   10.51
   5  -3   4   98.12   12.24
  -5  -3  -4   74.94   18.63
  -5   3  -4   86.26   15.03
  -6   3  -4  167.94   22.39
  -6  -3  -4  181.79   28.55
  -7  -3  -4   91.17   25.40
   8  -4  -4   74.53   21.10
  -8  -4   4   42.02   19.11
   8   4  -4   75.19   19.54
  -8   4   4   39.47   16.73
  -8  -4   4   61.15   23.53
  -7  -4   4   73.89   19.54
   7  -4  -4   79.94   19.92
  -7   4   4   43.87   14.99
  -7  -4   4   47.47   19.06
   7   4  -4   48.29   15.43
  -6   4   4  144.12   23.45
   6  -4  -4  141.96   13.89
   6   4  -4  122.37   21.78
  -6  -4   4  132.23   23.98
   6  -4  -4  132.89   20.60
  -6  -4   4  116.13   23.87
   6  -4  -4  174.62   27.70
   5  -4  -4   65.32   16.90
   5   4  -4  123.76   19.56
  -5   4   4  135.75   20.37
   5  -4  -4  103.45   16.84
  -5  -4   4  100.11   21.23
   5  -4  -4  145.24   12.04
  -5  -4   4  134.51   22.04
  -4   4   4  164.77   19.74
  -4  -4   4  221.32   23.25
   4   4  -4  243.14   22.93
   4  -4  -4  224.42   21.35
   4  -4  -4  239.59   27.38
  -4   4   4  278.91   22.52
   4  -4  -4  264.86   14.19
  -4  -4   4  242.18   27.39
  -3  -4   4  159.83   18.33
  -3   4   4  164.26   17.71
   3  -4  -4  190.75   11.27
   3   4  -4  189.82   19.15
   3  -4  -4  182.40   22.25
  -3  -4   4  193.96   23.84
   3  -4  -4  206.14   17.36
  -3   4   4  206.94   17.95
   2  -4  -4  406.43   27.67
  -2   4   4  430.55   18.61
   2   4  -4  466.51   25.78
  -2  -4   4  443.87   31.32
  -2   4   4  448.90   25.57
   2  -4  -4  424.47   29.38
  -2  -4   4  429.62   25.18
   2  -4  -4  408.82   24.67
   2   4  -4  466.92   24.49
   1  -4  -4  612.54   34.26
  -1   4   4  628.88   25.04
  -1   4   4  569.64   29.39
   1  -4  -4  616.79   34.73
   1   4  -4  675.71   27.25
  -1  -4   4  607.59   27.67
  -1  -4   4  561.35   35.79
   1   4  -4  676.10   30.73
   1   4  -4  634.00   20.21
   0   4   4  493.94   26.05
   0   4  -4  491.88   19.50
   0   4  -4  453.11   24.45
   0  -4  -4  497.05   28.62
   0  -4   4  468.62   19.55
   0  -4   4  483.43   31.37
   0  -4  -4  498.79   29.77
   1  -4   4   78.34    6.32
   1  -4   4  100.30   17.23
  -1   4  -4  103.27   12.46
  -1  -4  -4   72.02   11.82
  -1   4  -4   90.33    5.29
  -1   4  -4   71.90    6.00
  -1  -4  -4   66.60   13.14
  -2  -4  -4  235.75   23.56
  -2  -4  -4  230.49   16.98
   2  -4   4  194.98   12.94
   2  -4   4  212.38   21.62
  -2   4  -4  207.26   11.69
  -2   4  -4  201.62   10.79
  -3  -4  -4  239.55   17.02
  -3  -4  -4  211.24   24.58
   3  -4   4  236.24   22.17
   3  -4   4  238.03   16.82
  -3   4  -4  235.57   14.63
  -3   4  -4  254.98   15.83
  -4   4  -4  399.70   23.75
  -4  -4  -4  368.04   21.12
   4  -4   4  381.38   26.02
  -4  -4  -4  390.05   32.90
   4  -4   4  340.01   23.73
  -4   4  -4  370.54   22.50
  -5   4  -4    3.54    7.91
   5  -4   4   15.97    8.25
   5  -4   4    9.21    6.83
  -5  -4  -4    2.46   11.39
  -6   4  -4  -14.00    7.67
  -6  -4  -4  -12.35   10.47
   6  -4   4    7.85    9.66
  -7  -4  -4    7.81   16.87
  -8  -5   4   12.31   16.92
   8  -5  -4   16.44   13.22
  -8   5   4   -4.39   11.09
   8   5  -4   17.59   13.99
  -8  -5   4    8.91   17.64
   7  -5  -4  121.95   25.49
  -7  -5   4   48.59   20.19
  -7   5   4   92.76   21.21
  -7  -5   4   66.03   20.97
   7   5  -4   80.49   19.95
   6  -5  -4   16.79   12.30
   6   5  -4   18.08    9.84
  -6  -5   4   20.32   14.38
  -6  -5   4   20.73   14.68
  -6   5   4   24.23   11.49
   5  -5  -4   12.52    8.30
  -5   5   4    1.39    6.69
  -5  -5   4  -16.03    8.01
  -5  -5   4    8.12   11.34
   5  -5  -4    9.31    9.66
   5   5  -4    8.18    7.92
  -4  -5   4   82.43   17.28
   4  -5  -4   64.92    6.28
  -4   5   4   39.72   11.36
   4  -5  -4   51.79   12.43
  -4  -5   4   80.21   19.91
   4  -5  -4   52.59   15.72
   4   5  -4   45.70   11.80
  -3   5   4  494.26   30.92
  -3  -5   4  529.74   37.99
  -3   5   4  510.79   30.70
   3  -5  -4  481.35   30.03
  -3  -5   4  539.72   32.83
   3   5  -4  522.32   30.85
   3  -5  -4  538.80   37.05
  -2  -5   4   22.16    9.51
   2  -5  -4   13.18    8.75
   2  -5  -4   14.14    6.65
   2   5  -4   17.12    7.37
  -2  -5   4   11.67   10.67
  -2   5   4   20.81    4.37
   2  -5  -4   17.34    8.45
  -2   5   4    2.49    4.95
  -1  -5   4   30.54    8.34
   1   5  -4   23.44    3.76
  -1  -5   4   15.79   11.86
  -1   5   4   24.94    7.74
   1  -5  -4   23.96    9.91
   1  -5  -4   13.01    8.38
  -1   5   4   31.79    6.31
   1   5  -4   16.50    6.72
   0   5   4  239.83   18.22
   0  -5  -4  220.49   22.53
   0   5  -4  240.53   17.48
   0  -5   4  258.39   26.95
   0   5  -4  233.65   14.63
   0  -5  -4  234.51   23.51
   0  -5   4  235.47   14.41
   1  -5   4  403.42   31.84
   1  -5   4  432.83   17.92
  -1  -5  -4  435.69   30.62
  -1  -5  -4  408.14   27.65
  -1   5  -4  458.43   20.01
  -1   5  -4  371.33   22.62
  -2   5  -4  214.39   13.75
   2  -5   4  205.99   23.95
  -2   5  -4  227.87   12.47
  -2  -5  -4  218.58   25.10
  -2  -5  -4  215.18   20.51
   2  -5   4  192.66   13.39
   3  -5   4    6.57   10.25
  -3   5  -4   12.87    5.69
   3  -5   4   11.67    5.88
  -3  -5  -4   17.76    9.13
  -3  -5  -4   24.01   12.01
  -3   5  -4    6.28    4.70
   4  -5   4   52.56   13.95
   4  -5   4   54.34   11.58
  -4  -5  -4   68.90   13.41
  -4   5  -4   52.92   10.53
  -4  -5  -4   39.94   15.44
   5  -5   4   14.58    9.08
   5  -5   4   15.96    9.36
  -5   5  -4   13.00    8.89
  -5  -5  -4    8.13   11.68
   6  -5   4  130.84   20.78
  -6  -5  -4  127.42   26.64
  -7  -5  -4   50.90   22.93
  -7   6   4   16.77   13.12
   7   6  -4   10.08   10.96
   7  -6  -4   43.94   17.47
  -7  -6   4   13.87   17.11
  -7  -6   4   17.89   18.33
  -6   6   4    6.98    9.68
  -6  -6   4   26.35   17.46
   6  -6  -4    5.56   10.52
   6   6  -4    9.47    9.73
  -6  -6   4   18.94   15.57
  -5   6   4    7.56    7.62
  -5  -6   4   16.02   12.72
   5   6  -4    0.72    8.12
   5  -6  -4    6.46    9.49
  -5  -6   4   35.10   16.58
   5  -6  -4   13.86    8.88
  -4   6   4   -2.45    5.50
   4  -6  -4   20.57   11.66
  -4  -6   4    6.61   11.62
  -4  -6   4    7.45   13.60
   4  -6  -4   11.45    7.81
   4   6  -4    2.71    7.05
   3   6  -4   72.30   14.12
  -3  -6   4   67.04   19.41
  -3   6   4   49.41   11.95
  -3  -6   4   67.62   15.27
   3  -6  -4   83.04   18.96
   3  -6  -4   61.56   13.33
   2  -6  -4  349.05   28.65
  -2  -6   4  357.38   33.25
  -2   6   4  368.12   25.82
  -2  -6   4  324.43   25.14
  -2   6   4  386.61   15.32
   2   6  -4  328.99   23.45
   2  -6  -4  363.07   30.56
   2  -6  -4  355.73   25.44
  -1   6   4  125.17   15.88
  -1  -6   4  105.93   13.88
   1   6  -4  115.59   13.77
  -1  -6   4  121.27   23.32
   1   6  -4  101.12    8.06
   1  -6  -4  124.12   20.39
   1  -6  -4   87.13   16.72
   1   6  -4  124.57   15.25
   0  -6   4    0.51    4.39
   0  -6  -4    3.77    8.30
   0  -6  -4   -3.17    6.51
   0   6  -4   -2.20    4.13
   0   6  -4   -8.34    4.91
   0   6   4    1.94    5.62
   0   6  -4    3.44    2.88
   0  -6   4   -3.97   11.62
  -1   6  -4    2.43    5.29
  -1   6  -4   -9.75    4.94
   1  -6   4    1.72    3.61
  -1  -6  -4    4.27    8.61
   1  -6   4   10.51   14.65
  -1  -6  -4   -0.05    8.42
   2  -6   4   39.24   15.90
   2  -6   4   10.60    5.25
  -2   6  -4   16.50    7.17
  -2  -6  -4   14.27   11.25
  -2  -6  -4    7.70   10.23
  -2   6  -4    5.82    6.28
  -2   6  -4   22.42    5.61
   3  -6   4   10.16    5.77
  -3   6  -4   13.25    5.92
  -3  -6  -4    9.15   10.55
  -3  -6  -4   -0.76    9.91
   3  -6   4   17.49   13.51
   4  -6   4    0.37    9.61
  -4  -6  -4    2.00    9.65
   4  -6   4    0.10    5.73
  -4  -6  -4    3.90   11.42
  -4   6  -4    0.03    5.40
   5  -6   4   27.37   11.55
   5  -6   4   17.99    9.86
  -5  -6  -4   -6.26   12.34
   6  -6   4   36.77   13.51
  -6  -6  -4   47.23   21.11
  -7  -7   4   -6.03   16.00
  -7  -7   4    9.23   18.38
   7   7  -4   30.75   14.98
   7  -7  -4   28.27   15.99
  -7   7   4   24.80   14.99
   6   7  -4   64.04   17.01
  -6   7   4   55.08   17.20
   6  -7  -4   69.93   20.21
  -6  -7   4   37.82   19.23
  -6  -7   4   19.56   19.84
   5  -7  -4   82.15   20.85
  -5  -7   4   18.87   16.96
   5   7  -4   37.62   13.63
  -5  -7   4   44.55   17.62
  -5   7   4   33.19   11.84
  -4  -7   4   72.92   22.99
   4  -7  -4   50.99   13.95
  -4   7   4   79.08   16.84
   4  -7  -4   77.29   18.98
   4   7  -4   84.38   16.66
  -4  -7   4   66.48   17.81
  -3  -7   4   69.50   16.72
  -3  -7   4   78.00   22.06
   3   7  -4  121.29   18.49
   3  -7  -4   55.00   13.52
  -3   7   4   97.90   17.45
   3  -7  -4   93.34   21.62
   2  -7  -4    8.96    8.18
   2  -7  -4    5.58    9.69
   2   7  -4   -1.03    5.73
  -2  -7   4  -10.00   12.85
  -2  -7   4    6.39    9.02
   1   7  -4  136.57   16.54
  -1  -7   4  157.97   27.53
   1   7  -4  155.20   11.26
   1  -7  -4  171.33   24.64
   1  -7  -4  140.85   23.70
  -1  -7   4  152.45   17.42
   0  -7  -4    1.20    7.82
   0  -7   4   16.40   15.89
   0   7  -4   17.02    8.48
   0   7  -4   28.64    6.09
   0   7  -4   25.69    8.45
   0  -7  -4   17.29   12.29
   0  -7   4   35.38    8.89
   1  -7   4  270.69   33.11
  -1   7  -4  236.06   19.18
  -1   7  -4  230.93   18.23
  -1  -7  -4  233.92   27.66
   1  -7   4  248.94   17.15
  -1  -7  -4  204.53   27.11
  -2   7  -4   95.31   13.70
  -2  -7  -4   87.33   18.94
   2  -7   4   77.93   21.71
   2  -7   4  102.99   11.59
  -2  -7  -4   73.18   18.63
  -2   7  -4   74.76    9.94
   3  -7   4  107.84   23.19
  -3  -7  -4  127.94   21.81
   3  -7   4  148.51   15.31
  -3   7  -4  137.83   13.97
  -3  -7  -4  119.47   23.79
  -4  -7  -4  176.44   24.05
  -4  -7  -4  143.08   28.08
   4  -7   4  146.13   24.71
   4  -7   4  180.68   19.30
   5  -7   4   14.45    9.66
  -5  -7  -4   16.88   15.29
   5  -7   4   27.05   12.65
  -6  -7  -4    2.19   15.96
  -6   8   4    1.64    9.57
  -6  -8   4   -1.51   15.75
   6   8  -4   -1.17    9.20
   6  -8  -4    3.96   11.61
  -6  -8   4   23.66   22.80
  -5   8   4  122.18   21.96
   5  -8  -4  178.69   30.57
  -5  -8   4  115.79   29.54
   5   8  -4  137.91   22.79
  -5  -8   4  134.56   27.12
  -4  -8   4   -2.98   15.50
   4  -8  -4    5.69   10.48
  -4   8   4    4.48    7.24
   4   8  -4    7.65    8.68
  -4  -8   4    4.30   12.42
   3  -8  -4   53.15   17.31
   3  -8  -4   57.48   14.60
   3   8  -4   36.25   11.97
  -3  -8   4   73.31   18.29
  -3  -8   4   57.05   22.79
   2   8  -4   52.14   12.35
   2   8  -4   78.05   10.36
  -2  -8   4   90.52   25.57
   2  -8  -4   95.51   22.07
   2  -8  -4  104.61   20.74
  -2  -8   4   85.88   17.31
   1   8  -4   30.46   10.05
   1  -8  -4    6.89   11.92
   1   8  -4   29.95    7.10
   1  -8  -4   50.26   15.52
  -1  -8   4    7.84   17.56
  -1  -8   4   16.27    9.00
   0  -8   4  513.16   29.45
   0  -8  -4  464.51   38.39
   0  -8   4  551.64   45.66
   0   8  -4  487.19   28.59
   0   8  -4  497.03   24.36
   0  -8  -4  461.33   37.55
   1  -8   4   -0.83   14.19
  -1   8  -4   17.61    7.73
  -1  -8  -4   14.42   12.02
   1  -8   4   10.93    6.54
  -1   8  -4   21.63    7.53
  -1  -8  -4   23.97   12.02
  -2   8  -4    6.17    5.32
  -2  -8  -4    2.67   11.10
   2  -8   4   -7.51   12.13
  -2   8  -4   -5.52    6.21
  -2  -8  -4   23.33   13.49
  -3  -8  -4   11.65   12.56
   3  -8   4   11.01    7.42
   3  -8   4   20.53   14.76
  -3  -8  -4   28.81   14.77
  -4  -8  -4   40.09   18.77
  -4  -8  -4   59.08   18.41
   4  -8   4   40.31   16.56
  -5  -8  -4    8.11   14.75
   5  -8   4   17.77   13.02
  -6  -8  -4   68.57   25.30
  -6  -9   4    1.65   17.11
   6  -9  -4    5.61   13.27
   6   9  -4   -6.84    8.84
  -6   9   4   -0.32   10.86
  -6  -9   4  -25.81   17.41
   5   9  -4   73.85   17.14
  -5  -9   4  131.20   28.75
  -5  -9   4   90.54   30.86
   5  -9  -4   72.76   21.13
  -5   9   4  121.96   22.44
  -4   9   4   83.23   18.31
  -4  -9   4  106.80   23.92
   4   9  -4   85.91   17.31
   4  -9  -4  215.92   34.69
  -4  -9   4   76.40   27.73
   3   9  -4   -0.87    7.48
  -3  -9   4   11.71   18.78
   3  -9  -4   28.42   14.49
  -3  -9   4    2.94   11.13
   2  -9  -4  130.51   24.43
   2  -9  -4   88.92   21.90
  -2  -9   4  114.78   30.36
   2   9  -4  116.91   17.63
  -2  -9   4  171.60   23.83
  -1  -9   4    0.05    7.76
  -1  -9   4   -8.64   16.84
   1   9  -4    2.89    6.69
   1  -9  -4   -3.03    9.58
   1  -9  -4    0.07    8.91
   0  -9   4   35.98   21.44
   0  -9  -4   28.83   15.37
   0  -9   4   33.36   10.79
   0  -9  -4   33.17   14.57
   0   9  -4   23.74    9.17
   1  -9   4   84.02   14.09
  -1  -9  -4   59.20   18.57
  -1  -9  -4   68.56   20.79
   1  -9   4   52.53   22.35
  -1   9  -4   43.27   10.67
  -2  -9  -4   83.49   21.72
   2  -9   4  120.22   28.61
  -2   9  -4   86.58   14.46
  -2  -9  -4   84.77   21.43
  -3  -9  -4   63.16   20.13
  -3  -9  -4   28.38   16.01
   3  -9   4   77.29   22.21
   4  -9   4   18.69   14.29
  -4  -9  -4    9.69   15.60
   5  -9   4   61.12   19.68
  -5  -9  -4   41.55   20.45
  -5  10   4    5.59   11.15
  -5 -10   4   13.53   18.23
  -5 -10   4    7.44   23.24
   5  10  -4    2.10    9.39
   5 -10  -4   26.26   16.04
  -4 -10   4    8.37   23.00
  -4 -10   4   42.80   18.93
   4 -10  -4   25.97   16.03
  -4  10   4   46.16   15.23
   4  10  -4   20.23   11.49
  -3 -10   4    9.47   12.23
   3 -10  -4    4.24   11.84
   3  10  -4    4.63    8.10
  -3 -10   4    1.31   20.39
   2  10  -4   12.35    9.02
   2 -10  -4    5.84   12.33
  -2 -10   4    6.68   10.53
   2 -10  -4   24.38   13.50
  -2 -10   4  -22.11   15.29
  -1 -10   4  -14.67   19.21
   1 -10  -4   14.04   11.17
   1  10  -4    6.67    7.86
   1 -10  -4   10.20   13.95
  -1 -10   4   13.33   10.18
   0  10  -4   51.10   12.48
   0 -10  -4   20.90   15.00
   0 -10  -4   41.31   16.34
   0 -10   4   61.10   24.89
   0 -10   4   32.72   11.36
  -1 -10  -4  141.91   28.80
  -1  10  -4  129.29   16.80
   1 -10   4  167.35   32.73
  -1 -10  -4   97.63   23.92
  -2 -10  -4   21.86   15.84
  -2 -10  -4    3.36   11.45
   2 -10   4   27.96   18.79
  -3 -10  -4   14.66   15.15
   3 -10   4   36.31   19.79
  -3 -10  -4   33.53   16.95
  -4 -10  -4   -0.04   15.77
   4 -10   4    0.81   13.47
  -4  11   4    7.10   11.21
   4 -11  -4   17.46   14.92
  -4 -11   4   10.50   15.96
   4  11  -4    0.53    9.14
  -4 -11   4    9.52   26.36
   3 -11  -4   15.90   15.37
   3  11  -4    5.14    9.19
  -3 -11   4    3.72   12.46
  -3 -11   4   25.20   24.55
  -2 -11   4   80.70   19.65
   2 -11  -4   94.97   25.86
  -2 -11   4   63.79   29.59
   2 -11  -4   99.39   24.74
   2  11  -4   70.64   15.98
   1 -11  -4  190.73   32.74
  -1 -11   4  213.73   26.96
   1  11  -4  156.34   20.12
  -1 -11   4  177.79   38.77
   1 -11  -4  156.96   31.04
   0 -11  -4   62.50   21.39
   0 -11  -4   24.53   15.46
   0 -11   4   -9.53   18.88
  -1 -11  -4   32.10   17.09
  -1 -11  -4   25.32   17.77
   1 -11   4   18.24   20.06
  -2 -11  -4    7.34   14.27
  -2 -11  -4   34.91   19.37
   2 -11   4   -7.92   15.72
  -3 -11  -4  174.19   31.58
   3 -11   4  122.17   30.06
  -3 -11  -4  150.53   32.31
   2 -12  -4   51.46   21.36
  -2 -12   4   11.64   27.32
   2  12  -4   22.28   11.64
   2 -12  -4   25.81   16.14
   1 -12  -4   49.57   20.09
  -1 -12   4   -4.56   23.31
   1 -12  -4   30.59   17.52
   0 -12   4   33.64   24.74
   0 -12  -4   33.18   18.53
   0 -12  -4   55.01   20.02
  -1 -12  -4  123.94   29.88
  -1 -12  -4  161.84   32.49
   1 -12   4  150.41   36.71
   8   0  -5   -7.21    8.64
  -8   0   5   19.16   11.26
  -8   0   5   -5.97   11.21
  -7   0   5   -4.14    8.51
   7   0  -5   -8.05    6.50
  -7   0   5    4.77    8.84
   7   0  -5   -3.28    7.35
  -6   0   5    3.37    8.23
  -6   0   5    1.69    7.94
   6   0  -5    3.64    6.91
   6   0  -5    1.75    6.80
   5   0  -5    0.46    5.56
  -5   0   5    3.83    6.94
  -5   0   5   -1.35    6.61
   5   0  -5    0.72    6.08
   4   0  -5   -1.28    4.08
  -4   0   5   -5.42    5.19
  -4   0   5   -2.06    4.57
   4   0  -5   -3.07    3.50
  -3   0   5    2.79    5.04
   3   0  -5   -0.77    3.42
  -3   0   5   -2.27    5.12
   3   0  -5   -4.70    3.46
  -2   0   5    2.51    3.38
  -2   0   5   -0.30    3.49
   2   0  -5    1.57    3.65
  -2   0   5   -0.29    4.86
   2   0  -5    2.62    2.99
   1   0  -5   -2.83    3.22
  -1   0   5    0.08    3.06
  -1   0   5    0.00    4.44
  -1   0   5   -0.76    2.63
  -1   0   5   -3.48    3.15
   0   0   5    0.43    3.98
   0   0   5   -3.19    2.33
   0   0  -5    0.27    4.15
   0   0   5   -1.51    3.87
   1   0   5   -3.44    3.98
  -1   0  -5   -0.85    3.06
   1   0   5   -2.15    3.27
   1   0   5    1.78    2.93
   2   0   5   -0.18    4.22
  -2   0  -5    1.46    4.72
   2   0   5   -4.67    3.49
   3   0   5    2.62    5.01
  -3   0  -5    1.77    6.03
  -4   0  -5   -1.72    7.90
  -5   0  -5   -3.83    8.91
  -6   0  -5   -8.87    9.58
  -7   0  -5  -18.44   12.44
  -8  -1   5   23.36   13.04
   8   1  -5   -1.44    9.15
  -8   1   5   19.15   11.45
   8  -1  -5    9.38    9.66
  -8  -1   5  -21.70    9.26
  -8   1   5    2.94   11.95
  -7  -1   5   29.38   14.65
   7   1  -5   62.64   15.28
  -7  -1   5   53.70   17.58
  -7   1   5   48.16   16.28
   7   1  -5   42.90   13.38
  -7   1   5   56.07   15.78
   7  -1  -5   54.97   13.83
  -6   1   5   11.19    8.89
   6  -1  -5    8.32    7.97
   6   1  -5   -0.42    6.39
   6  -1  -5    2.40    6.66
  -6  -1   5    9.99    9.33
  -6  -1   5   -0.29    7.68
   6   1  -5   19.86    9.21
  -6   1   5   -1.33    7.21
   5  -1  -5   56.50   12.14
  -5   1   5   63.00   15.41
  -5  -1   5   30.08   10.87
   5   1  -5   21.43    8.42
   5   1  -5   29.21    9.92
  -5  -1   5   18.77   10.20
  -5   1   5   26.45    9.95
   5  -1  -5   63.67   11.93
   4  -1  -5    3.42    4.18
  -4   1   5   -5.06    4.81
  -4  -1   5   -0.65    5.03
   4   1  -5   -2.14    3.57
  -4  -1   5    4.70    6.77
   4  -1  -5    2.89    4.90
   4   1  -5   -2.41    4.34
  -4   1   5    0.23    5.02
  -3   1   5    7.05    5.28
   3  -1  -5   16.16    6.11
  -3  -1   5   13.71    8.43
  -3   1   5    5.48    5.25
   3  -1  -5    9.74    4.91
  -3  -1   5    2.78    4.97
  -3   1   5    3.85    6.56
   3   1  -5    8.59    4.46
   3  -1  -5   17.16    8.54
   3   1  -5    5.93    5.38
  -2   1   5  196.01   17.77
   2   1  -5  193.26   11.78
  -2   1   5  209.61   14.54
   2  -1  -5  234.22   14.98
  -2  -1   5  204.33   18.29
  -2   1   5  242.57   16.36
  -2  -1   5  221.89   14.85
   2   1  -5  238.29   15.35
   2   1  -5  206.52   15.69
   2  -1  -5  199.66   18.16
  -2   1   5  240.96   17.66
   2  -1  -5  215.40   15.22
  -1  -1   5  340.79   17.30
  -1   1   5  398.68   20.12
   1  -1  -5  380.45   20.81
  -1  -1   5  362.74   15.41
  -1  -1   5  395.95   23.94
  -1   1   5  380.22   21.68
   1  -1  -5  356.44   22.90
  -1  -1   5  368.91   18.36
  -1   1   5  389.08   22.97
  -1   1   5  404.30   19.19
   1   1  -5  361.33   21.37
   0  -1   5 1242.18   40.49
   0   1  -5 1222.99   47.73
   0   1   5 1294.28   48.61
   0  -1  -5 1330.74   48.10
   0  -1   5 1249.06   40.00
   0   1   5 1272.28   44.60
   0  -1   5 1226.78   41.44
   0  -1   5 1285.80   50.20
   0   1   5 1278.63   47.55
   1  -1   5  451.37   17.35
   1  -1   5  428.41   22.66
   1   1   5  438.71   20.10
   1   1   5  448.31   23.85
   1   1   5  456.44   21.03
  -1  -1  -5  443.59   23.39
  -1   1  -5  501.28   22.03
  -1   1  -5  458.62   17.56
  -2   1  -5   92.54    7.17
   2  -1   5   80.17    9.61
   2  -1   5   84.18    7.87
  -2   1  -5   79.41    8.46
  -2  -1  -5   78.42   11.90
   2   1   5   91.47   12.00
  -3   1  -5  164.04   14.76
  -3  -1  -5  166.45   18.19
   3  -1   5  156.76   12.56
  -4  -1  -5   48.91   13.69
  -4   1  -5   28.82   10.43
  -5  -1  -5  301.89   29.30
  -5   1  -5  299.77   26.10
  -6  -1  -5    8.40   13.04
  -6   1  -5    1.14   12.35
  -7  -1  -5    0.23   14.36
  -8   2   5   13.42    9.17
  -8  -2   5    8.78   11.76
  -8  -2   5   11.99   15.07
  -8   2   5    1.30   11.21
   8   2  -5   27.12   12.81
  -7  -2   5    1.07   11.65
  -7  -2   5   18.27   12.68
  -7   2   5    9.22   11.22
   7   2  -5   14.02   10.61
  -7   2   5   40.19   13.02
   7   2  -5   19.62   10.76
   7  -2  -5    8.76    8.16
   6  -2  -5    6.71    7.32
   6   2  -5   14.17    8.13
  -6   2   5    0.35    7.50
   6  -2  -5   10.61    7.72
  -6  -2   5    0.54    8.44
   6   2  -5    7.62    8.22
  -6  -2   5   18.51   10.98
  -6   2   5   12.23    8.44
  -5  -2   5   73.73   17.61
   5  -2  -5   73.10   11.47
   5  -2  -5   54.89   12.57
  -5   2   5   77.90   15.34
   5  -2  -5   52.21   15.26
  -5  -2   5   68.26   15.64
   5   2  -5   39.14   11.38
   5   2  -5   59.93   11.71
  -5   2   5   53.20   14.09
   4  -2  -5   17.60    7.03
   4  -2  -5   12.36    9.07
  -4  -2   5    3.18    7.75
  -4  -2   5   12.22    7.58
   4  -2  -5   17.58    6.05
   4   2  -5   11.34    5.68
   4   2  -5    2.83    5.68
  -4   2   5   20.17    8.09
  -3   2   5   60.05   11.37
   3  -2  -5   58.65    9.37
  -3  -2   5   62.35   13.98
   3   2  -5   60.27    8.23
  -3  -2   5   64.51   11.41
   3   2  -5   56.60   10.91
   3  -2  -5   54.26   12.99
  -3   2   5   58.15   10.76
   3  -2  -5   48.09    9.43
   2   2  -5  131.55    8.53
   2   2  -5  109.74   13.62
  -2  -2   5  121.00   11.91
  -2   2   5   95.34   11.46
  -2  -2   5   86.96   14.32
   2  -2  -5  137.81   17.42
   2  -2  -5  123.77   12.58
  -2   2   5  107.32   12.55
   2   2  -5  116.62   11.33
   2  -2  -5  130.54   12.38
   1   2  -5   41.79    8.67
   1  -2  -5   42.11    9.94
   1   2  -5   66.97    6.82
   1  -2  -5   58.08    8.87
  -1  -2   5   44.34   10.54
  -1   2   5   66.36   11.21
  -1  -2   5   58.94    6.99
  -1   2   5   62.26    9.13
   1  -2  -5   49.54    9.85
   0  -2   5  855.76   27.11
   0  -2   5  823.90   25.89
   0  -2  -5  851.31   37.30
   0   2   5  853.98   34.73
   0   2  -5  817.35   36.25
   0  -2  -5  822.26   37.46
   0   2   5  887.78   38.26
   0  -2   5  834.15   38.98
   1   2   5  164.90   12.94
   1   2   5  150.01   15.56
  -1  -2  -5  117.66   14.10
  -1  -2  -5  127.81   10.57
   1  -2   5  143.52   14.98
  -1   2  -5  106.69   13.44
  -2  -2  -5   26.42    9.32
  -2   2  -5   19.19    3.86
   2   2   5   25.33    6.13
   2  -2   5   36.10    9.81
   2   2   5   25.75    3.63
   2  -2   5   28.55    3.44
  -3  -2  -5  239.54   22.99
  -3   2  -5  229.61   15.60
  -3   2  -5  237.26   14.48
   3  -2   5  209.97   14.43
   3  -2   5  232.76   13.57
   4  -2   5  209.82   16.07
  -4  -2  -5  142.89   21.29
  -4   2  -5  217.76   18.11
   4  -2   5  200.83   11.59
  -5  -2  -5   48.99   16.36
  -5   2  -5   50.22   13.73
  -6   2  -5    6.94   11.62
  -6  -2  -5    6.05   12.77
  -7  -2  -5   16.51   17.87
  -8  -3   5   56.15   21.75
  -8  -3   5   51.25   20.24
  -8   3   5   40.91   14.23
  -8   3   5   44.61   17.05
   8   3  -5   44.71   16.31
   7   3  -5  234.11   26.92
  -7   3   5  264.41   31.99
   7   3  -5  226.66   27.74
  -7  -3   5  306.96   36.52
   7  -3  -5  206.56   30.89
  -7  -3   5  275.25   34.31
   6  -3  -5    5.87    5.72
   6   3  -5    3.69    8.11
   6  -3  -5    6.09    9.50
  -6  -3   5    6.41   10.41
  -6  -3   5   -6.95    9.16
   6  -3  -5    6.32    8.21
  -6   3   5   -2.14    7.03
   6   3  -5   10.61    7.99
  -5   3   5  230.99   25.01
  -5  -3   5  277.74   28.17
  -5  -3   5  230.22   29.25
   5  -3  -5  246.82   17.65
   5   3  -5  270.80   26.43
   5  -3  -5  299.72   32.50
   5  -3  -5  259.29   24.20
   4  -3  -5  219.72   26.21
  -4  -3   5  205.93   24.77
   4  -3  -5  234.54   19.91
   4   3  -5  242.06   17.38
   4  -3  -5  234.78   16.08
  -4   3   5  241.30   23.12
  -4   3   5  262.37   21.48
   4   3  -5  224.93   22.22
  -4  -3   5  232.24   22.81
   3  -3  -5 1219.78   44.16
  -3  -3   5 1237.84   51.79
  -3  -3   5 1256.66   59.32
  -3   3   5 1258.63   51.27
   3  -3  -5 1267.72   50.74
   3  -3  -5 1190.85   58.52
   3   3  -5 1195.15   50.75
   3   3  -5 1162.79   43.38
  -3   3   5 1206.75   52.11
  -2   3   5   39.92    8.87
   2  -3  -5   37.70    8.35
   2   3  -5   75.81    9.90
  -2  -3   5   61.28   10.03
   2   3  -5   50.70   10.22
   2   3  -5   74.43    6.19
  -2  -3   5   84.87   15.89
  -2   3   5   58.79   10.51
   2  -3  -5   67.44    9.14
   2  -3  -5   62.85   13.05
   1   3  -5  104.89   13.18
  -1   3   5  140.69   13.70
   1   3  -5  113.12    8.57
   1  -3  -5   83.95   13.80
   1  -3  -5  133.83   16.18
  -1  -3   5  115.15   17.08
  -1  -3   5  109.99    9.90
   0   3  -5  138.80   14.95
   0  -3   5  170.44   19.08
   0  -3  -5  142.97   15.42
   0   3   5  145.66   14.01
   0  -3  -5  139.97   16.40
  -1  -3  -5 1548.34   62.96
  -1   3  -5 1671.31   58.99
  -1  -3  -5 1560.34   58.69
   1  -3   5 1536.29   64.04
   1  -3   5 1533.97   48.31
   2  -3   5    0.62    8.41
  -2  -3  -5    1.75    3.40
  -2  -3  -5    0.17    6.52
   2   3   5  -10.09    6.46
   3  -3   5   56.54   11.10
  -3  -3  -5   51.24   13.89
  -3   3  -5   57.76    8.00
   4  -3   5   40.28    8.70
  -4   3  -5   53.99   10.81
  -4  -3  -5   53.88   15.85
  -5   3  -5  174.85   19.38
  -5  -3  -5  135.32   24.00
  -6  -3  -5   16.11   14.96
  -7  -3  -5  -18.27   12.41
   8  -4  -5   22.59   15.05
  -8  -4   5   31.06   18.21
   8   4  -5   61.46   18.22
  -8  -4   5   29.01   19.35
  -8   4   5   11.31   14.08
  -8   4   5   50.55   14.84
  -7  -4   5    5.20   13.59
   7  -4  -5    8.57   10.17
   7   4  -5    9.67    9.61
  -7  -4   5   -2.04   12.28
  -7   4   5    2.65    9.03
   6  -4  -5    5.97    9.59
   6  -4  -5    2.07    7.24
  -6  -4   5    7.13   11.57
  -6   4   5    3.87    8.14
  -6  -4   5    6.52   10.90
   6   4  -5    4.14    7.97
  -5  -4   5  316.69   30.23
   5  -4  -5  235.23   29.79
   5   4  -5  274.78   27.25
  -5  -4   5  205.89   27.76
  -5   4   5  201.19   24.73
   5  -4  -5  299.10   25.09
   5  -4  -5  285.78   17.65
   4   4  -5   22.96    9.17
  -4  -4   5   36.15   12.02
   4  -4  -5   18.08    6.31
   4  -4  -5    7.17    9.33
  -4  -4   5    7.94   10.39
  -4   4   5   16.08    8.08
   4  -4  -5    9.98    6.85
  -3   4   5   27.84    8.77
  -3   4   5   28.97    8.81
  -3  -4   5   24.20    9.92
   3   4  -5   28.39    9.15
   3  -4  -5   26.92    8.66
   3  -4  -5   17.54   10.69
   3  -4  -5   32.52    7.08
  -3  -4   5   38.35   13.18
  -2  -4   5   38.09    9.53
   2   4  -5   23.62    7.02
   2  -4  -5   40.30   12.03
  -2   4   5   21.44    7.52
   2  -4  -5   11.11    6.43
   2   4  -5   27.53    8.55
  -2  -4   5   35.99   12.96
   1  -4  -5  744.07   41.21
  -1   4   5  837.91   37.63
   1   4  -5  859.81   31.63
  -1  -4   5  769.06   43.93
   1   4  -5  868.00   38.23
   1  -4  -5  787.87   41.65
  -1  -4   5  804.58   32.83
   0  -4   5   17.23   10.52
   0  -4  -5    6.75    6.38
   0  -4  -5    0.38    5.20
   0   4   5    7.44    5.77
   0   4  -5    3.17    4.74
   0  -4   5    7.30    2.57
  -1  -4  -5   60.11   13.37
   1  -4   5   77.82   16.58
  -1   4  -5   78.28   12.71
  -1  -4  -5   89.09   12.65
   1  -4   5   83.12    5.91
   2  -4   5  146.81   10.89
  -2  -4  -5  154.45   20.50
   2  -4   5  145.49   20.12
  -2  -4  -5  151.10   13.33
  -3   4  -5  216.56   13.02
  -3  -4  -5  178.54   23.69
   3  -4   5  230.77   21.95
  -3  -4  -5  216.11   13.96
  -3   4  -5  222.20   13.26
   3  -4   5  202.05   15.66
  -4   4  -5    0.45    6.14
  -4  -4  -5    5.15   10.30
   4  -4   5   -2.03    5.35
   4  -4   5    7.77    7.83
   5  -4   5   71.62   14.76
  -5  -4  -5   60.02   19.10
   6  -4   5  189.09   23.99
  -6  -4  -5  195.11   32.14
  -7  -4  -5   50.68   21.93
  -8  -5   5  122.28   30.54
  -8   5   5  164.56   28.48
   8  -5  -5  104.06   25.50
  -8  -5   5   82.68   27.06
   7  -5  -5  231.21   35.58
  -7   5   5  171.08   27.92
  -7  -5   5  117.74   26.42
  -7  -5   5  118.55   26.70
   7   5  -5  140.72   24.14
  -6   5   5   21.26   11.06
   6  -5  -5   46.01   16.33
  -6  -5   5   26.99   16.08
  -6  -5   5    6.36   13.52
   6   5  -5   10.94   10.07
   5  -5  -5  210.39   30.31
  -5  -5   5  166.12   25.01
  -5  -5   5  194.30   30.58
  -5   5   5  220.81   26.07
   5  -5  -5  183.28   22.44
   5   5  -5  219.43   26.20
   4  -5  -5  213.22   28.43
   4  -5  -5  224.56   22.96
  -4  -5   5  186.87   23.63
  -4   5   5  143.00   19.92
   4  -5  -5  195.28   12.63
   4   5  -5  191.06   22.67
  -4  -5   5  243.72   31.15
   3   5  -5  659.32   36.34
  -3   5   5  584.49   35.58
  -3   5   5  651.38   25.40
  -3  -5   5  654.14   36.70
  -3  -5   5  636.50   43.51
   3  -5  -5  646.54   42.40
   3  -5  -5  614.97   35.35
  -2  -5   5  325.54   32.16
  -2  -5   5  325.19   22.63
   2   5  -5  323.02   23.02
   2   5  -5  298.19   20.15
   2  -5  -5  296.92   26.64
   2  -5  -5  234.25   25.05
  -2   5   5  252.09   21.34
   2  -5  -5  306.93   22.89
  -1  -5   5  202.27   25.89
   1   5  -5  269.51   20.34
   1  -5  -5  301.21   25.22
   1   5  -5  289.21   17.04
  -1   5   5  261.00   20.39
  -1  -5   5  275.08   17.77
   1  -5  -5  275.73   24.13
   0  -5   5 1076.59   56.64
   0  -5  -5 1150.52   54.57
   0  -5   5 1060.06   37.67
   0   5   5 1096.87   47.79
   0   5  -5 1153.32   46.98
   0   5  -5 1085.86   37.40
   0  -5  -5 1103.60   52.37
  -1   5  -5  336.43   22.56
  -1  -5  -5  325.03   24.22
  -1  -5  -5  373.48   28.74
   1  -5   5  341.30   30.43
  -2  -5  -5  129.33   21.11
  -2   5  -5  126.77    6.73
  -2  -5  -5  136.96   16.37
   2  -5   5  158.45   22.85
   2  -5   5  124.73   10.71
  -3  -5  -5   12.45    7.20
  -3  -5  -5   -3.08    9.12
  -3   5  -5    2.21    4.39
   3  -5   5    0.49    4.55
   3  -5   5   -4.31    9.34
   4  -5   5  594.26   32.36
  -4  -5  -5  607.51   44.19
   4  -5   5  630.13   37.21
  -5  -5  -5  325.63   37.59
   5  -5   5  258.43   24.25
  -6  -5  -5    6.69   16.04
   6  -5   5   26.76   12.54
  -7  -6   5   13.44   16.98
  -7   6   5    8.64   11.74
   7  -6  -5   27.46   15.44
  -7  -6   5   -2.30   14.52
   7   6  -5   20.08   12.01
   6   6  -5  280.59   31.79
   6  -6  -5  248.76   34.82
  -6  -6   5  201.75   30.84
  -6  -6   5  239.01   37.02
  -6   6   5  298.21   33.48
  -5   6   5  161.70   24.00
  -5  -6   5  158.24   29.50
  -5  -6   5  156.48   25.60
   5   6  -5  136.92   21.65
   5  -6  -5  133.91   25.86
   5  -6  -5  154.11   22.22
  -4  -6   5   41.61   14.77
   4  -6  -5   62.24   18.12
   4  -6  -5   43.75   12.68
  -4   6   5   34.79   11.45
   4   6  -5   22.94    9.88
  -4  -6   5   46.58   18.72
   3  -6  -5  394.43   28.13
   3   6  -5  375.58   27.26
   3  -6  -5  356.37   31.61
  -3  -6   5  359.98   28.18
  -3  -6   5  280.67   34.87
  -2  -6   5  387.33   26.88
   2  -6  -5  406.97   32.22
   2   6  -5  455.70   28.46
   2  -6  -5  383.84   32.02
  -2  -6   5  327.87   35.52
  -1  -6   5   11.51   14.00
  -1  -6   5   15.76    7.60
   1  -6  -5    7.09    8.05
   1   6  -5    8.37    2.58
   1  -6  -5    4.46    8.37
   1   6  -5    5.80    5.18
   1   6  -5    3.13    5.72
   0  -6  -5  132.79   20.81
   0  -6   5   88.10    9.68
   0  -6   5  118.50   23.49
   0  -6  -5  125.04   20.13
   0   6  -5  123.13   11.15
   0   6  -5  122.63   16.00
  -1   6  -5   84.86    7.06
  -1   6  -5   90.16    8.68
  -1   6  -5  111.58   15.39
  -1  -6  -5   96.88   19.62
  -1  -6  -5   86.61   16.71
   1  -6   5  102.23   23.16
   2  -6   5  981.09   36.55
  -2  -6  -5  880.88   53.14
  -2   6  -5  986.02   33.65
  -2  -6  -5  984.23   49.03
   2  -6   5  957.56   54.74
   3  -6   5   -0.61    4.86
  -3  -6  -5    9.79    8.28
  -3  -6  -5    1.19    9.98
   3  -6   5  -13.42    9.62
  -4  -6  -5   33.77   15.46
   4  -6   5   36.65   10.08
   4  -6   5    4.37   10.21
  -5  -6  -5   -0.10   12.38
  -6  -6  -5  242.12   38.00
  -7  -7   5   56.06   23.74
  -7   7   5   28.07   14.69
   7  -7  -5   65.55   22.52
   7   7  -5   31.97   15.30
  -7  -7   5   26.95   23.58
  -6   7   5   24.99   13.46
   6  -7  -5   26.16   14.83
   6   7  -5   25.00   13.19
  -6  -7   5   18.87   16.47
  -6  -7   5   -3.19   15.95
  -5  -7   5   16.50   14.18
   5   7  -5   -1.06    8.20
  -5   7   5   -1.25    7.48
  -5  -7   5  -17.19   12.73
   5  -7  -5   -0.87   10.44
   4  -7  -5  318.88   37.79
  -4  -7   5  310.09   40.20
  -4  -7   5  356.93   34.25
  -4   7   5  330.47   28.36
   4   7  -5  286.15   28.88
   4  -7  -5  249.56   26.91
  -3   7   5  252.68   26.72
  -3  -7   5  378.67   40.76
   3  -7  -5  359.18   37.26
   3   7  -5  217.56   23.92
   3  -7  -5  353.28   28.29
  -3  -7   5  373.44   30.01
  -2  -7   5  186.66   31.27
  -2  -7   5  190.43   21.38
   2   7  -5  161.56   11.07
   2  -7  -5   96.24   19.87
   2  -7  -5  156.84   26.33
   2   7  -5  165.26   20.26
  -1  -7   5  230.99   19.27
   1  -7  -5  237.53   29.52
   1   7  -5  195.20   20.27
   1  -7  -5  238.22   28.43
  -1  -7   5  278.00   35.32
   1   7  -5  226.17   12.07
   0  -7   5  486.85   24.59
   0  -7  -5  469.52   35.43
   0   7  -5  493.96   29.14
   0  -7   5  422.87   42.07
   0  -7  -5  374.13   33.53
  -1   7  -5   64.27   12.52
   1  -7   5   53.08   20.47
  -1  -7  -5   63.57   17.40
  -1  -7  -5   78.61   18.52
  -2  -7  -5  217.51   30.09
   2  -7   5  211.97   14.71
  -2   7  -5  222.74   20.58
   2  -7   5  233.75   31.91
  -2  -7  -5  198.47   24.64
   3  -7   5   25.80   16.25
  -3  -7  -5   22.48   14.42
  -3  -7  -5   60.54   15.16
  -4  -7  -5  685.71   50.93
   4  -7   5  626.40   44.12
  -5  -7  -5   80.90   23.38
  -6  -7  -5   16.78   18.60
  -6  -8   5  158.18   32.48
  -6   8   5  141.83   26.10
   6  -8  -5  167.52   32.12
  -6  -8   5  113.45   30.67
  -5  -8   5  248.82   33.88
   5   8  -5  224.75   29.49
  -5  -8   5  188.15   36.52
   5  -8  -5  301.12   40.19
  -5   8   5  243.30   30.47
  -4   8   5    7.55    8.31
  -4  -8   5    8.75   18.02
  -4  -8   5  -13.52   10.18
   4  -8  -5    4.26   10.92
   4   8  -5    7.98    9.30
  -3  -8   5   61.19   22.97
   3   8  -5   18.91   10.59
   3  -8  -5   29.87   15.19
  -3  -8   5   14.57   12.06
   2   8  -5  109.81   17.34
  -2  -8   5  129.50   19.37
   2  -8  -5  129.00   24.38
   2  -8  -5  193.61   28.01
  -2  -8   5   98.91   26.79
  -1  -8   5  499.95   45.40
   1  -8  -5  464.68   38.42
   1  -8  -5  371.93   37.63
   1   8  -5  459.18   29.53
  -1  -8   5  482.72   29.48
   0  -8  -5  294.86   33.43
   0  -8   5  265.80   19.45
   0  -8  -5  261.48   32.54
   0   8  -5  271.40   21.93
   0  -8   5  202.80   34.20
  -1   8  -5  153.46   18.21
   1  -8   5  158.44   30.15
  -1  -8  -5  182.79   29.05
  -1  -8  -5  188.87   27.38
   2  -8   5  295.64   36.50
  -2  -8  -5  288.35   35.40
  -2   8  -5  328.84   24.42
  -2  -8  -5  391.85   33.27
  -3  -8  -5  223.65   27.93
   3  -8   5  177.02   29.58
  -3  -8  -5  198.49   31.65
   4  -8   5  103.49   22.98
  -4  -8  -5   94.22   24.35
  -5  -8  -5   31.14   18.84
  -6  -9   5  -16.51   21.03
   6  -9  -5   -3.78   12.39
   5  -9  -5   40.69   18.80
  -5  -9   5   12.48   17.40
   5   9  -5   11.85   10.73
  -5   9   5   35.07   14.65
  -5  -9   5   32.73   24.94
  -4  -9   5   20.28   15.39
   4   9  -5   59.65   16.56
   4  -9  -5   55.21   18.45
  -4   9   5   29.22   13.08
  -4  -9   5   53.52   25.24
   3   9  -5  164.45   23.19
   3  -9  -5   92.32   23.14
  -3  -9   5  139.23   23.90
  -3  -9   5  111.41   31.40
  -2  -9   5    2.73   19.92
   2   9  -5    8.95    8.86
  -2  -9   5   15.14   11.49
   2  -9  -5   11.10   12.16
   2  -9  -5   12.45   12.52
   1   9  -5   97.63   16.47
  -1  -9   5  131.33   32.13
  -1  -9   5  149.67   18.95
   1  -9  -5  124.66   24.68
   1  -9  -5  165.19   29.16
   0  -9  -5  154.56   26.35
   0   9  -5  187.20   21.14
   0  -9   5  175.90   34.80
   0  -9  -5  126.08   24.42
  -1   9  -5   51.85   12.82
   1  -9   5   29.86   20.51
  -1  -9  -5   87.06   22.02
  -1  -9  -5   90.05   21.00
  -2  -9  -5   35.89   15.42
  -2  -9  -5    7.37   12.27
   2  -9   5   12.35   16.93
   3  -9   5  189.68   31.94
  -3  -9  -5  152.56   29.75
  -3  -9  -5  146.54   26.03
   4  -9   5    7.43   12.78
  -4  -9  -5   16.87   17.28
  -5 -10   5  160.55   40.75
   5 -10  -5  187.81   35.47
  -5  10   5  138.96   26.05
  -5 -10   5  143.09   30.74
  -4  10   5   24.99   12.70
   4  10  -5   29.28   13.03
   4 -10  -5   26.55   16.53
  -4 -10   5   24.62   25.29
  -4 -10   5   27.78   18.21
   3 -10  -5  141.20   29.11
   3  10  -5  108.99   19.66
  -3 -10   5  108.54   22.89
  -3 -10   5  109.70   34.99
  -2 -10   5  358.59   31.50
   2  10  -5  390.40   30.14
  -2 -10   5  278.11   45.60
   2 -10  -5  409.87   44.24
   2 -10  -5  499.62   49.83
   1  10  -5   42.44   12.31
   1 -10  -5   38.46   16.45
   1 -10  -5   56.81   19.24
  -1 -10   5   45.81   26.55
   0 -10  -5   20.13   14.21
   0 -10   5    6.37   19.25
   0  10  -5   13.91    9.23
   0 -10  -5   38.28   17.28
  -1 -10  -5   16.80   13.80
   1 -10   5   -9.33   16.26
  -1 -10  -5   13.10   14.26
  -1  10  -5   -3.17    7.66
  -2 -10  -5  156.43   30.86
  -2 -10  -5  215.02   32.46
   2 -10   5  202.83   36.87
   3 -10   5  303.23   41.52
  -3 -10  -5  253.77   40.07
  -3 -11   5  -30.03   20.21
   3 -11  -5   -3.98   12.03
   3  11  -5    7.06   10.06
   2 -11  -5   43.90   17.69
   2 -11  -5   38.06   17.83
   2  11  -5   38.71   12.73
  -2 -11   5   28.21   27.22
  -1 -11   5    2.35   21.18
   1 -11  -5   23.62   15.45
   1  11  -5   11.72    9.83
   1 -11  -5   23.43   15.10
   0 -11  -5  181.46   34.45
   0 -11   5  133.97   33.97
  -1 -11  -5   13.82   13.57
  -1 -11  -5   19.13   16.15
   1 -11   5   33.62   22.23
  -2 -11  -5   38.01   17.64
  -2 -11  -5   -8.23   13.03
   2 -11   5   -3.76   17.25
   8   0  -6  430.85   33.47
  -8   0   6  370.11   41.56
  -7   0   6  294.90   34.62
   7   0  -6  282.16   28.92
   7   0  -6  293.64   28.42
  -6   0   6    9.94    9.91
   6   0  -6   -1.30    5.39
  -6   0   6   -3.93    6.95
   6   0  -6    1.21    6.68
   5   0  -6    1.07    5.49
  -5   0   6    0.91    7.25
  -5   0   6    4.31    7.59
   5   0  -6   -2.64    4.98
   4   0  -6   99.68   14.54
  -4   0   6   86.59   17.07
   4   0  -6   92.09   12.94
  -4   0   6   75.77   13.83
  -3   0   6 1276.66   53.48
  -3   0   6 1416.47   61.46
   3   0  -6 1233.27   50.74
   3   0  -6 1306.79   49.07
  -2   0   6  340.93   18.99
  -2   0   6  414.99   23.52
  -2   0   6  377.86   26.12
  -2   0   6  375.04   21.84
   2   0  -6  430.24   20.28
   2   0  -6  337.46   22.30
  -1   0   6  129.06   10.77
  -1   0   6  129.46   12.66
  -1   0   6  134.40   15.59
  -1   0   6  130.31   10.12
   1   0  -6  164.86   16.25
   0   0   6   95.26   10.38
   0   0   6   92.42    9.01
   0   0   6   99.45   12.36
   0   0  -6   99.37   13.67
  -1   0  -6  916.06   35.97
   1   0   6  930.83   36.08
   1   0   6  931.47   37.53
   2   0   6   88.16    7.09
   2   0   6   79.61   10.20
   2   0   6   75.96    8.41
  -2   0  -6  105.32   11.47
  -3   0  -6  132.12   15.41
   3   0   6  122.51   13.75
  -4   0  -6   46.41   12.94
  -5   0  -6  912.94   49.05
  -8   1   6   22.55   11.64
  -8  -1   6    6.71   11.92
   8  -1  -6    0.48    9.00
   8   1  -6   -7.02    7.23
  -8  -1   6  -13.09   11.25
  -8   1   6   -3.62   10.29
  -7  -1   6    1.75   10.41
  -7   1   6    0.82    9.14
  -7   1   6   23.12   11.90
  -7  -1   6   14.73   11.96
   7   1  -6   24.32   10.84
   7  -1  -6   18.24   10.08
   7   1  -6   24.31   11.55
   6   1  -6  163.05   20.38
   6  -1  -6  132.00   19.73
  -6  -1   6  204.88   29.17
  -6  -1   6  181.83   25.35
  -6   1   6  125.13   20.97
   6  -1  -6  144.47   18.36
   6   1  -6  156.23   21.35
  -6   1   6  192.79   27.66
   5  -1  -6  442.11   27.44
  -5  -1   6  461.30   36.08
  -5  -1   6  485.81   33.60
  -5   1   6  530.60   34.59
   5  -1  -6  495.13   30.47
   5   1  -6  460.13   28.80
   5   1  -6  504.00   31.14
  -4  -1   6   57.39   14.85
   4   1  -6   59.18   12.07
  -4  -1   6   63.25   12.94
   4  -1  -6   56.70   11.09
   4  -1  -6   33.34    8.88
   4   1  -6   38.57    8.62
  -4   1   6   31.71   11.92
  -4   1   6   18.38    8.55
   3  -1  -6  913.05   40.17
  -3   1   6  857.59   46.88
  -3   1   6  922.50   43.14
  -3  -1   6  961.42   42.82
   3   1  -6  958.79   42.36
   3   1  -6  974.22   37.80
   3  -1  -6  968.57   40.28
  -3  -1   6  981.98   49.89
  -3   1   6  995.19   41.51
  -2  -1   6  482.13   24.83
  -2  -1   6  496.59   31.37
   2  -1  -6  560.35   25.68
   2   1  -6  505.90   27.84
  -2   1   6  484.48   30.03
   2   1  -6  514.50   21.70
  -2   1   6  503.98   24.85
   2  -1  -6  469.83   25.93
  -2   1   6  432.62   25.20
  -1  -1   6  633.38   23.06
   1   1  -6  596.68   30.57
  -1   1   6  568.38   27.20
  -1   1   6  625.25   31.94
  -1  -1   6  604.88   26.30
   1  -1  -6  620.03   30.34
  -1   1   6  554.06   29.07
  -1   1   6  583.28   26.38
  -1  -1   6  543.60   32.06
  -1  -1   6  578.58   25.12
   0  -1   6   24.45    4.25
   0  -1  -6   30.60    7.75
   0   1  -6   28.67    8.24
   0  -1   6   30.15    8.82
   0   1   6   27.38    7.95
   0   1   6   28.04    7.45
   0  -1   6   28.16    5.62
   0   1   6   29.39    6.75
   0  -1   6   26.77    4.73
   1   1   6  342.89   18.28
   1   1   6  362.38   21.73
  -1  -1  -6  348.73   20.84
   1  -1   6  345.65   15.07
   1  -1   6  325.10   20.63
   2   1   6 1026.23   36.05
  -2   1  -6 1063.46   38.06
   2   1   6 1056.00   44.14
   2  -1   6 1027.83   38.74
  -2  -1  -6 1072.67   45.02
   2  -1   6 1063.69   41.71
   2  -1   6 1083.90   37.19
  -3  -1  -6 1166.98   50.79
   3  -1   6 1105.19   42.22
  -3   1  -6 1129.19   44.62
  -4  -1  -6  104.36   18.01
  -4   1  -6   90.23   14.53
  -5  -1  -6  168.07   24.04
  -5   1  -6  235.20   23.87
  -6  -1  -6  114.30   23.46
   8   2  -6   74.32   19.22
  -8   2   6  120.40   24.75
  -8   2   6   63.73   20.54
  -8  -2   6  107.38   25.75
  -8  -2   6   71.82   23.11
   7  -2  -6  476.77   31.30
  -7   2   6  521.72   41.43
  -7   2   6  538.96   41.78
   7   2  -6  551.22   37.19
   7   2  -6  552.17   38.78
  -7  -2   6  503.44   41.93
  -7  -2   6  561.01   45.34
   6  -2  -6  267.91   26.41
  -6  -2   6  319.29   32.90
  -6  -2   6  251.93   32.91
   6  -2  -6  295.91   21.97
   6   2  -6  251.82   27.24
   6   2  -6  304.99   25.28
  -6   2   6  278.18   30.17
  -5   2   6  202.48   25.88
  -5   2   6  315.30   26.91
   5  -2  -6  312.77   21.56
   5  -2  -6  375.66   32.54
   5  -2  -6  322.18   24.85
   5   2  -6  324.65   22.87
  -5  -2   6  281.45   27.58
   5   2  -6  303.52   24.98
  -4  -2   6  213.40   21.64
   4  -2  -6  201.73   16.74
   4   2  -6  209.82   16.39
  -4  -2   6  230.82   27.08
   4  -2  -6  245.44   28.15
  -4   2   6  249.68   22.18
  -4   2   6  191.29   21.12
   4   2  -6  190.31   20.77
   4  -2  -6  232.47   19.38
  -4   2   6  230.17   25.86
   3  -2  -6  244.32   17.89
  -3   2   6  266.32   19.41
   3   2  -6  270.89   15.72
   3  -2  -6  265.02   19.04
   3   2  -6  247.76   20.09
  -3   2   6  258.38   20.21
  -3  -2   6  252.69   19.58
   3  -2  -6  212.58   24.62
  -3  -2   6  240.09   25.80
   2   2  -6 1311.31   42.72
   2  -2  -6 1358.62   51.15
   2  -2  -6 1368.29   50.51
   2   2  -6 1391.87   49.33
   2  -2  -6 1201.94   58.42
  -2   2   6 1351.10   51.08
  -2  -2   6 1330.21   60.16
  -2  -2   6 1342.16   50.03
   2   2  -6 1165.79   51.36
  -2   2   6 1259.91   51.97
   1   2  -6  230.67   18.43
  -1  -2   6  229.13   20.41
  -1  -2   6  252.90   14.02
   1  -2  -6  217.92   16.88
  -1   2   6  244.12   16.47
   1  -2  -6  244.53   19.76
  -1  -2   6  223.08   13.46
   0  -2  -6 1377.60   55.81
   0   2  -6 1399.50   54.88
   0  -2  -6 1378.34   55.67
   0   2   6 1429.04   51.63
   0  -2   6 1297.28   57.15
   0  -2   6 1420.99   42.96
   0  -2   6 1367.20   41.75
   1  -2   6  598.07   31.41
   1   2   6  566.08   26.01
  -1   2  -6  569.19   31.20
  -1  -2  -6  584.97   31.45
   2   2   6   -9.77    5.18
   2   2   6    8.60    3.28
  -2  -2  -6   -9.71    4.71
   2  -2   6   -1.60    8.25
   3  -2   6  104.04    8.79
   3  -2   6   90.44   10.21
  -3  -2  -6   60.62   14.34
  -3   2  -6   89.23    9.90
  -4   2  -6   92.66   13.29
  -4  -2  -6   99.48   18.25
  -5  -2  -6  330.71   32.62
  -6  -2  -6   21.24   15.58
  -8   3   6   16.31   10.73
  -8   3   6   -8.16   10.30
  -8  -3   6  -12.19   12.39
  -8  -3   6   -4.23   12.28
   8   3  -6   -3.69   10.50
  -7  -3   6  118.17   24.25
  -7   3   6   97.10   21.59
   7   3  -6  135.89   21.70
   7   3  -6  125.37   22.36
  -7  -3   6  103.93   23.57
   6  -3  -6   32.10    9.42
  -6   3   6   37.47   13.54
  -6  -3   6   37.04   16.39
  -6   3   6   30.71   12.65
   6   3  -6   41.92   13.77
  -6  -3   6    7.04   11.02
   6   3  -6   45.56   12.70
   6  -3  -6   35.96   13.19
   6  -3  -6   29.35   13.79
   5  -3  -6   33.22    9.19
  -5  -3   6   26.48   13.62
   5   3  -6   28.36   10.80
   5   3  -6   40.85   10.44
  -5   3   6   34.22   12.18
   5  -3  -6   32.85   13.91
  -5  -3   6   34.97   12.78
   5  -3  -6   25.36   10.44
   4   3  -6  233.72   23.68
  -4   3   6  261.14   22.70
  -4  -3   6  227.84   27.38
   4   3  -6  257.69   17.47
   4  -3  -6  254.06   18.39
   4  -3  -6  281.44   22.14
  -4  -3   6  225.30   22.95
   4  -3  -6  242.01   29.34
  -3  -3   6  234.24   19.75
   3  -3  -6  237.98   26.79
  -3  -3   6  266.03   28.10
   3   3  -6  256.01   14.69
  -3   3   6  234.92   19.87
   3   3  -6  185.31   20.51
  -3   3   6  242.90   19.75
   3  -3  -6  245.06   19.46
   3  -3  -6  235.99   16.94
   2  -3  -6  668.66   39.33
  -2   3   6  661.78   34.19
  -2  -3   6  637.27   30.93
   2   3  -6  673.08   22.91
   2  -3  -6  679.25   30.91
   2  -3  -6  690.51   33.96
   2   3  -6  694.86   35.10
  -2   3   6  646.03   32.84
  -2  -3   6  688.94   40.63
  -1  -3   6    3.76    4.52
   1  -3  -6   10.91    6.95
   1   3  -6    9.64    6.25
   1  -3  -6   10.44    6.46
   1   3  -6   14.20    3.98
  -1  -3   6    9.16    8.84
  -1   3   6    9.01    5.42
   0   3   6   61.44   11.03
   0  -3   6   83.39   15.63
   0  -3  -6   52.10   11.71
   0   3  -6   67.65   12.20
   0  -3  -6   72.04   12.17
  -1   3  -6   12.44    7.28
   1  -3   6   14.63   10.56
  -1  -3  -6    6.88    6.90
  -1  -3  -6    9.94    5.30
   2   3   6  316.30   20.84
  -2  -3  -6  337.99   17.60
   2  -3   6  338.60   25.39
  -2  -3  -6  377.96   27.06
  -3  -3  -6  221.72   24.88
   3  -3   6  287.79   20.94
  -3   3  -6  261.24   12.83
  -4  -3  -6   62.66   16.14
  -5  -3  -6  130.60   24.29
  -6  -3  -6  144.19   28.44
  -8  -4   6    8.04   17.15
  -8   4   6   53.65   16.06
  -8   4   6   39.91   17.68
  -8  -4   6   18.76   16.45
   7   4  -6   23.00   13.14
  -7   4   6   34.31   13.19
  -7   4   6   15.69   11.12
  -7  -4   6   17.53   15.25
   7  -4  -6    9.72   11.78
  -7  -4   6   26.45   16.83
   7   4  -6   24.23   12.38
  -6  -4   6   33.70   16.42
   6   4  -6   40.36   13.64
   6   4  -6   40.15   11.85
  -6  -4   6   17.01   13.25
  -6   4   6   26.34   12.38
   6  -4  -6   31.16   14.28
   5  -4  -6   18.84    7.57
   5  -4  -6   26.03   10.46
   5   4  -6   20.37    8.09
   5  -4  -6   32.79   14.08
  -5  -4   6   16.28   11.33
   5   4  -6   21.92   11.14
  -5  -4   6    9.18   11.46
  -5   4   6   30.43   11.77
  -4   4   6  325.29   26.29
  -4  -4   6  335.11   27.35
   4  -4  -6  360.83   32.43
   4   4  -6  358.19   21.18
   4   4  -6  354.16   27.26
   4  -4  -6  364.37   26.71
  -4  -4   6  349.96   35.64
   4  -4  -6  365.74   20.84
  -3   4   6   13.98    7.87
  -3  -4   6   16.81    9.38
   3  -4  -6   16.10    7.74
   3  -4  -6   22.97    7.20
  -3  -4   6   22.63   12.32
   3  -4  -6   20.72   10.26
   3   4  -6   13.98    4.71
  -3   4   6   20.93    8.63
   3   4  -6   20.23    9.06
   2   4  -6   10.10    6.55
  -2   4   6    8.65    6.53
   2  -4  -6    7.85    8.55
  -2  -4   6   16.34   11.12
  -2  -4   6    3.66    6.34
   2   4  -6    3.00    4.43
  -1   4   6   -2.07    4.35
  -1  -4   6    3.30    9.96
   1   4  -6   -5.62    4.05
   1  -4  -6   -3.71    5.02
  -1  -4   6    2.08    4.87
   1   4  -6    0.11    2.81
   1  -4  -6    4.80    6.50
   0  -4  -6  497.54   30.82
   0  -4  -6  547.46   34.09
   0  -4   6  520.05   35.79
   0   4   6  560.78   30.08
   0   4  -6  515.61   29.87
  -1  -4  -6  162.27   20.70
   1  -4   6  131.21   20.56
  -1  -4  -6  146.48   15.74
  -1   4  -6  127.56   16.61
   2  -4   6   -6.84   10.56
   2  -4   6   13.04    4.65
  -2  -4  -6   16.24    6.17
  -2  -4  -6    9.30    8.51
   3  -4   6    4.56    5.25
   3  -4   6    3.94    9.85
  -3  -4  -6   15.17   10.96
  -4  -4  -6  191.05   26.98
   4  -4   6  282.37   21.34
   5  -4   6   45.12   11.96
  -5  -4  -6   18.91   13.88
  -6  -4  -6   15.30   16.76
   7   5  -6    2.77   10.50
   7  -5  -6    2.25   11.55
  -7  -5   6   -6.65   13.10
  -7  -5   6    2.31   13.60
  -7   5   6   -1.04   10.14
  -6   5   6   86.97   18.87
  -6  -5   6   69.46   20.12
   6  -5  -6  125.03   25.97
  -6  -5   6  100.62   26.52
   6   5  -6  104.70   20.59
  -5  -5   6  100.35   24.15
  -5   5   6  139.13   22.05
  -5  -5   6  171.38   25.82
   5  -5  -6  158.88   28.56
   5   5  -6  138.07   22.92
   5  -5  -6  146.21   21.59
   4  -5  -6   49.36    8.76
  -4   5   6   52.75   12.91
   4  -5  -6   57.73   16.76
  -4  -5   6   64.79   18.89
   4  -5  -6   49.92   13.45
  -4  -5   6   60.82   15.66
   4   5  -6   65.69   15.31
  -3   5   6   14.75    8.58
  -3  -5   6   35.70   12.00
  -3  -5   6   33.29   15.66
   3  -5  -6   46.39   11.85
   3   5  -6   35.55   10.57
   3   5  -6   45.65    6.82
   3  -5  -6   47.28   15.65
  -2  -5   6  721.04   35.16
   2  -5  -6  670.65   42.91
   2  -5  -6  761.43   44.17
   2   5  -6  703.46   37.61
   2   5  -6  654.44   31.67
  -2  -5   6  639.72   44.73
   1   5  -6  146.00   11.18
  -1   5   6  159.54   18.20
   1   5  -6  167.15   19.24
   1  -5  -6  161.45   22.33
  -1  -5   6  111.37   21.72
   1  -5  -6  146.56   20.75
  -1  -5   6  148.18   12.82
   0  -5  -6   -0.72    5.97
   0   5  -6   -1.55    5.07
   0  -5  -6   -4.42    6.30
   0   5   6   -3.10    5.55
   0  -5   6    9.90   13.90
  -1  -5  -6   15.89    8.54
  -1   5  -6   27.80    9.63
  -1  -5  -6   26.46   11.61
   1  -5   6   16.40   15.58
  -2  -5  -6  286.39   20.84
  -2  -5  -6  274.66   28.83
   2  -5   6  281.95   15.27
   2  -5   6  298.68   30.07
   3  -5   6   51.93    9.50
   3  -5   6   75.71   17.43
  -3  -5  -6   74.34   17.81
  -4  -5  -6   11.64   12.73
  -5  -5  -6    9.60   13.23
  -6  -5  -6   35.10   19.71
  -7   6   6   51.86   18.04
   7   6  -6   23.06   13.39
   7  -6  -6   40.60   17.99
  -7  -6   6   69.12   23.29
  -7  -6   6   37.27   21.27
  -6   6   6   11.86   10.97
  -6  -6   6   15.43   17.23
  -6  -6   6    8.91   14.97
   6  -6  -6   14.52   13.76
   6   6  -6   11.09   11.76
   5  -6  -6   73.55   20.30
  -5  -6   6   61.19   21.52
  -5   6   6   38.05   13.48
   5   6  -6   33.20   13.21
  -5  -6   6   25.28   14.66
   4  -6  -6   30.10   11.51
  -4   6   6   22.55    9.80
   4   6  -6   21.47   10.67
   4  -6  -6   20.24   12.40
  -4  -6   6    9.64   11.20
  -4  -6   6   18.48   14.90
   3  -6  -6    6.88    8.11
  -3  -6   6   15.26   11.34
   3  -6  -6    7.04   10.78
   3   6  -6    0.56    6.88
  -3   6   6    3.58    6.61
  -3  -6   6    1.33   13.27
  -2  -6   6   15.40    9.45
   2  -6  -6    0.08    7.88
   2   6  -6   11.68    8.05
   2  -6  -6   14.91   10.91
  -2  -6   6    0.96   13.31
   1  -6  -6    5.65    8.51
   1  -6  -6    3.47    8.65
  -1  -6   6   -2.11    5.57
   1   6  -6   -8.19    4.98
  -1  -6   6   -3.55   13.42
   0  -6   6  335.06   36.15
   0  -6  -6  417.52   31.09
   0   6  -6  400.59   26.98
   0  -6  -6  416.53   33.41
   0  -6   6  403.06   17.22
  -1   6  -6    3.30    7.25
  -1  -6  -6   17.11   11.43
  -1  -6  -6    7.87    8.61
   1  -6   6   14.31   16.34
  -2  -6  -6  102.96   20.78
  -2  -6  -6  118.53   17.17
   2  -6   6  128.25   24.72
   3  -6   6   23.56   14.17
  -3  -6  -6   26.66   13.29
  -4  -6  -6   40.58   17.88
   4  -6   6   46.12   15.12
  -5  -6  -6   13.51   15.39
  -6  -6  -6   19.28   18.66
  -6  -7   6   57.49   24.95
   6  -7  -6   66.53   21.18
  -6  -7   6   59.46   21.92
  -6   7   6   89.26   21.22
   6   7  -6   42.43   15.83
   5  -7  -6   73.44   21.14
   5   7  -6   63.29   16.75
  -5  -7   6  111.72   24.39
  -5  -7   6   79.87   25.14
  -5   7   6   68.56   17.11
  -4  -7   6   11.12   16.89
  -4   7   6   17.06   10.32
  -4  -7   6   10.61   12.16
   4   7  -6   14.06    9.86
   4  -7  -6    5.04   10.33
  -3  -7   6    2.05   10.15
  -3   7   6    5.17    6.95
  -3  -7   6   19.20   17.65
   3  -7  -6    8.53   10.76
   3   7  -6   -4.09    6.83
   2   7  -6   14.26    8.45
   2  -7  -6    2.65    8.99
   2  -7  -6    2.96    9.18
  -2  -7   6   16.62   16.50
  -2  -7   6   -5.86    7.79
   1  -7  -6   56.05   16.13
  -1  -7   6   30.31    9.13
   1  -7  -6   22.43   11.83
  -1  -7   6   13.93   17.74
   1   7  -6   24.55    9.79
   0   7  -6   12.35    8.14
   0  -7  -6   25.78   12.27
   0  -7   6    6.31   17.08
   0  -7  -6   13.92   10.47
   1  -7   6  155.42   29.29
  -1   7  -6  163.25   19.82
  -1  -7  -6  163.37   26.87
  -1  -7  -6  145.22   21.53
  -2  -7  -6   12.10    8.98
   2  -7   6    5.33   14.68
  -2  -7  -6   10.22   11.19
  -3  -7  -6   -7.01    9.67
   3  -7   6    4.06   13.47
   4  -7   6   22.85   13.48
  -4  -7  -6    8.91   13.52
  -5  -7  -6    3.36   14.04
  -6  -8   6   61.41   23.91
  -6  -8   6   50.01   26.29
  -6   8   6   57.25   18.55
   6  -8  -6  106.68   27.34
   6   8  -6   59.07   18.51
   5  -8  -6   12.27   13.59
   5   8  -6    7.33    9.50
  -5   8   6   -9.97    7.62
  -5  -8   6    6.13   14.59
  -5  -8   6    8.01   20.47
   4  -8  -6   39.08   17.34
  -4   8   6   49.30   14.48
  -4  -8   6   35.32   22.80
   4   8  -6   65.82   16.45
  -4  -8   6   74.03   20.77
   3   8  -6   14.42    9.12
  -3  -8   6   18.11   19.49
  -3  -8   6   22.23   13.20
   3  -8  -6   17.91   13.12
  -3   8   6   29.33   11.97
  -2  -8   6   29.58   11.67
   2  -8  -6    8.23   10.72
   2  -8  -6   28.27   14.43
  -2  -8   6   22.07   19.89
   2   8  -6    9.59    9.10
   1  -8  -6   82.02   19.83
   1  -8  -6   92.35   20.74
   1   8  -6   81.60   15.75
  -1  -8   6   78.74   26.11
   0  -8  -6   38.97   15.31
   0  -8  -6   23.72   13.18
   0   8  -6    8.34    7.99
   0  -8   6    5.01   17.75
  -1  -8  -6   48.89   17.03
  -1   8  -6   42.04   11.63
   1  -8   6   11.30   17.77
  -1  -8  -6   63.06   17.81
   2  -8   6   11.65   16.94
  -2  -8  -6   18.58   13.50
  -2  -8  -6   24.79   12.42
  -3  -8  -6   16.28   14.43
   3  -8   6   18.64   15.98
   4  -8   6   58.06   19.09
  -4  -8  -6   24.84   17.01
   5  -9  -6   49.23   20.28
  -5   9   6   49.82   16.29
  -5  -9   6   18.85   23.25
   5   9  -6   11.23   11.45
  -5  -9   6   34.57   19.86
  -4  -9   6    2.86   13.84
   4  -9  -6   40.42   17.43
  -4   9   6    9.81   10.23
   4   9  -6   22.56   12.02
  -4  -9   6  -16.09   18.14
   3   9  -6    8.10    8.92
  -3  -9   6    7.15   21.10
  -3  -9   6   14.15   13.18
   3  -9  -6   13.68   12.30
   2   9  -6   43.14   12.45
  -2  -9   6   67.08   26.72
   2  -9  -6   46.12   17.80
   2  -9  -6   43.77   16.97
  -1  -9   6   11.43   21.98
   1  -9  -6   -1.71    9.16
   1   9  -6    5.02    7.74
   1  -9  -6    3.54    9.91
   0  -9  -6   15.28   13.14
   0  -9  -6   15.32   12.03
   0   9  -6    3.23    8.00
   0  -9   6    6.01   20.08
  -1  -9  -6   34.50   15.14
  -1  -9  -6    4.22   10.84
   1  -9   6    0.12   17.33
  -1   9  -6    4.75    8.82
  -2  -9  -6   23.74   13.13
   2  -9   6   -3.00   14.82
  -2  -9  -6   -3.32   11.39
   3  -9   6   25.09   17.35
  -3  -9  -6   18.84   16.14
  -4  -9  -6   61.25   23.49
   4  -9   6   64.30   21.10
   4  10  -6   45.05   14.76
   4 -10  -6   49.99   20.99
  -4  10   6   36.83   15.21
  -4 -10   6   75.65   32.69
   3  10  -6   72.16   16.70
   3 -10  -6   74.97   21.88
  -3 -10   6   52.41   30.65
   2 -10  -6   25.12   14.66
   2 -10  -6   39.72   16.61
  -2 -10   6   12.43   24.52
   2  10  -6    4.73    9.32
   1 -10  -6   21.37   15.31
   1 -10  -6   48.49   19.06
  -1 -10   6   11.57   22.94
   1  10  -6   12.60    9.87
   0 -10  -6   36.45   16.69
   0 -10   6   27.98   23.68
   0 -10  -6   29.46   15.71
   0  10  -6    7.96    9.30
  -1 -10  -6   76.29   20.96
  -1 -10  -6   72.79   22.29
  -1  10  -6   61.04   15.26
   1 -10   6   65.01   26.61
  -2 -10  -6   96.00   22.90
   2 -10   6   68.69   25.05
  -2 -10  -6  113.29   27.13
   3 -10   6   33.54   20.45
  -3 -10  -6   61.14   22.36
  -2 -11   6  -33.37   19.31
   2  11  -6    4.58    9.31
   2 -11  -6    6.69   13.03
   2 -11  -6   33.27   17.04
   1 -11  -6  198.99   35.16
  -1 -11   6  216.20   44.41
   1 -11  -6  161.47   30.89
   1  11  -6  147.91   22.29
   0 -11  -6   32.88   17.30
   0 -11  -6   11.36   13.69
   0 -11   6   11.07   24.15
   0  11  -6   23.68   11.72
  -1 -11  -6   79.40   22.75
   1 -11   6   45.74   25.94
  -1 -11  -6   82.78   25.22
  -8   0   7    8.73   12.14
  -8   0   7   -1.12   12.52
   8   0  -7   -2.76    9.34
   7   0  -7    5.73    8.72
  -7   0   7   10.60   10.54
  -7   0   7    2.49   10.72
   6   0  -7   -1.02    7.23
  -6   0   7   11.94    9.06
   6   0  -7    5.30    7.74
  -6   0   7    4.82    8.97
  -5   0   7   -4.79    6.21
   5   0  -7    1.93    5.91
   5   0  -7    4.73    6.51
  -5   0   7   -0.91    6.79
   4   0  -7    4.15    5.42
  -4   0   7   -4.81    7.82
   4   0  -7    6.79    6.30
  -4   0   7   -2.25    5.15
  -3   0   7    1.84    7.44
   3   0  -7   -2.00    3.50
  -3   0   7   -3.06    4.27
   3   0  -7    3.03    5.50
  -2   0   7   -3.05    6.25
  -2   0   7    5.66    4.96
  -2   0   7    0.98    4.00
   2   0  -7    1.58    4.86
  -1   0   7    4.18    3.91
  -1   0   7    9.02    5.60
   1   0  -7    5.43    6.03
  -1   0   7    1.35    3.78
  -1   0   7   -3.17    5.23
   0   0   7    0.08    3.04
   0   0   7    2.33    5.08
   0   0   7    1.07    3.86
   0   0   7   -2.48    4.66
   0   0  -7   -3.44    4.82
   1   0   7    1.44    5.03
   1   0   7   -3.23    5.31
  -1   0  -7   -0.15    3.47
   2   0   7    0.94    5.69
   2   0   7   -6.24    5.76
  -2   0  -7    4.77    5.16
  -3   0  -7   -2.39    6.00
  -4   0  -7   -4.56    7.94
  -8  -1   7  -15.55   11.90
  -8   1   7    5.56   13.06
  -8   1   7   12.56   11.28
  -8  -1   7   14.26   13.04
   8   1  -7    1.27   10.77
   8  -1  -7    9.81   10.52
   7  -1  -7   52.10   13.85
  -7   1   7   81.44   20.56
  -7   1   7   38.86   15.28
   7   1  -7   57.38   16.27
  -7  -1   7   41.27   16.41
   7   1  -7   93.91   19.01
  -7  -1   7   75.58   20.30
   6   1  -7    7.17    8.31
  -6   1   7    9.29    9.03
  -6  -1   7    1.56    8.39
  -6   1   7    3.10    9.09
   6  -1  -7   -2.20    7.10
  -6  -1   7   -2.95    8.44
   6  -1  -7   -0.69    6.51
   6   1  -7    0.13    6.87
   5  -1  -7    7.61    7.28
   5   1  -7    6.01    7.28
  -5   1   7   12.24   10.15
  -5  -1   7    2.82    7.76
  -5   1   7    2.97    7.22
   5  -1  -7   17.80    7.87
  -5  -1   7   13.43   10.20
   5   1  -7   12.27    7.11
   4  -1  -7   29.61    9.53
   4   1  -7   14.60    7.88
  -4  -1   7   25.08    9.37
   4   1  -7   42.95    9.77
   4  -1  -7   32.23    9.30
  -4   1   7   30.01    9.84
  -4   1   7   15.06   10.95
  -4  -1   7   42.60   14.83
   3   1  -7    7.83    6.60
  -3   1   7    1.04    5.02
  -3  -1   7    5.51    5.74
   3  -1  -7    8.94    6.61
   3   1  -7    4.77    3.52
  -3   1   7    5.61    8.20
  -3   1   7    8.64    6.24
   3  -1  -7    5.18    5.39
  -3  -1   7    2.81    7.75
   2   1  -7   82.29   13.86
  -2  -1   7   90.48   12.06
  -2   1   7  104.36   17.55
  -2   1   7  128.96   14.46
  -2   1   7  102.89   12.27
  -2  -1   7  121.27   12.89
   2  -1  -7  100.42   14.59
  -2  -1   7  100.76   17.42
  -1  -1   7    2.36    4.02
   1   1  -7   -4.52    4.10
  -1   1   7    3.64    4.50
  -1   1   7    0.08    3.82
  -1  -1   7   -1.41    2.77
  -1  -1   7    6.47    3.85
  -1  -1   7   11.12    8.08
  -1   1   7   -3.10    4.41
   1  -1  -7    3.07    5.39
   0   1   7   90.44   12.72
   0  -1  -7   73.19   11.49
   0  -1   7   83.37    8.92
   0   1   7   83.82   10.75
   0  -1   7   97.73   14.33
   0  -1   7   76.66    7.62
   0   1  -7   84.58   14.10
   0   1   7   75.44   11.92
   0  -1   7   81.58    7.47
   1  -1   7  140.32   15.42
   1  -1   7  146.24    8.47
   1   1   7  138.29   12.53
  -1  -1  -7  173.57   15.98
   1  -1   7  141.20    9.86
   1   1   7  121.74   14.71
  -2   1  -7   58.66    7.16
  -2  -1  -7   43.97   10.30
   2  -1   7   54.68    6.87
   2   1   7   56.83    7.22
   2   1   7   38.55   10.75
   2  -1   7   53.84   11.03
  -3  -1  -7  217.27   20.97
  -3   1  -7  244.90   16.51
  -4  -1  -7  166.09   21.20
  -5  -1  -7   -6.88    9.85
  -8  -2   7   -2.49   14.58
   8   2  -7   -2.52    9.72
  -8   2   7   26.09   11.86
  -8   2   7   -4.49   12.10
  -8  -2   7    6.60   13.22
   7   2  -7    2.14    9.13
  -7   2   7   27.64   12.45
  -7  -2   7   11.85   12.52
   7  -2  -7   23.35   10.94
   7   2  -7   12.71   11.03
  -7  -2   7   36.80   16.67
  -7   2   7   13.86   11.70
   6   2  -7   52.13   14.18
   6  -2  -7   70.60   14.17
  -6  -2   7   57.77   17.57
   6  -2  -7   58.44   15.45
  -6   2   7   78.28   18.21
   6   2  -7   69.08   14.29
  -6  -2   7   57.57   16.50
  -6   2   7   82.33   19.06
   5  -2  -7   77.81   13.64
  -5   2   7   78.68   17.89
   5   2  -7   87.74   14.02
  -5  -2   7  107.43   22.80
  -5  -2   7  110.57   19.19
   5   2  -7   81.53   16.12
  -5   2   7   51.51   14.33
   5  -2  -7   77.52   15.05
  -4  -2   7    1.46    7.33
   4  -2  -7    4.93    6.04
  -4   2   7    1.74    7.73
  -4   2   7   10.40    7.14
  -4  -2   7    7.75   10.38
  -4   2   7    2.64    6.40
   4  -2  -7    5.59    6.74
   4   2  -7    4.24    5.02
   4   2  -7   12.92    8.13
  -3  -2   7    5.36    8.68
   3  -2  -7    0.35    5.05
   3  -2  -7    6.15    6.04
   3   2  -7    1.33    6.39
  -3   2   7   -1.09    6.45
   3   2  -7    0.04    3.62
  -3   2   7    6.04    5.87
  -3  -2   7   -1.92    5.21
   3  -2  -7    7.06    8.16
  -3   2   7    4.55    5.71
  -2  -2   7  170.27   22.36
  -2   2   7  154.32   19.72
  -2  -2   7  177.64   14.64
  -2   2   7  192.45   16.12
  -2   2   7  152.08   16.23
   2  -2  -7  166.09   17.41
   2  -2  -7  211.30   23.51
   2   2  -7  135.01   17.65
  -1   2   7  799.59   34.64
   1  -2  -7  728.10   39.48
  -1  -2   7  737.64   40.79
   1   2  -7  723.23   37.50
  -1   2   7  734.61   38.01
  -1  -2   7  762.68   29.84
  -1  -2   7  686.48   29.30
   0   2   7   41.54    9.71
   0  -2   7   37.12    4.29
   0   2   7   24.49    7.33
   0  -2   7   37.10   11.42
   0   2  -7   14.21    8.13
   0  -2   7   28.25    3.46
   0  -2  -7   28.21    9.30
  -1  -2  -7  162.17   17.86
   1   2   7  192.51   14.09
   1  -2   7  175.27   19.02
  -2  -2  -7   -3.20    6.32
   2   2   7    0.69    3.55
   2  -2   7  -15.45    8.83
  -3  -2  -7  336.57   26.71
  -4  -2  -7  283.67   28.37
  -5  -2  -7   94.04   20.64
  -7   3   7   10.76   12.29
   7   3  -7   16.94   11.88
  -7  -3   7   11.50   14.79
  -7   3   7   21.91   10.64
  -7  -3   7   17.68   15.15
   6   3  -7   70.70   16.88
   6  -3  -7   56.63   18.86
  -6   3   7   66.75   17.66
   6  -3  -7   67.95   13.57
  -6   3   7   43.97   15.50
  -6  -3   7   30.44   15.60
  -6  -3   7   47.34   16.65
   6  -3  -7   28.23   12.30
   6   3  -7   50.76   13.66
   5   3  -7   90.60   13.92
   5  -3  -7   71.79   13.00
  -5  -3   7   55.84   16.05
  -5  -3   7   83.65   21.19
   5  -3  -7   76.46   20.27
   5  -3  -7   92.37   16.94
   5   3  -7   84.45   17.43
  -5   3   7   68.96   17.33
  -5   3   7   75.32   16.73
   4  -3  -7   62.76   12.07
   4   3  -7   58.40   14.29
   4  -3  -7   69.97   18.15
   4  -3  -7   95.38   15.81
  -4  -3   7   66.59   18.22
  -4   3   7   59.20   13.76
   4   3  -7   62.34   10.02
  -4  -3   7   79.75   16.08
   3  -3  -7   72.69   17.20
   3   3  -7   79.00   14.87
  -3   3   7   42.05   11.03
   3  -3  -7   69.38   12.35
  -3  -3   7   50.07   15.20
   3   3  -7   65.75    7.97
  -3   3   7   66.90   13.35
   3  -3  -7   79.35   13.59
  -3  -3   7   71.92   13.31
   2  -3  -7   54.84   11.08
   2  -3  -7   63.80   15.47
  -2  -3   7   84.53   18.50
   2   3  -7   69.35    9.65
  -2   3   7   83.75   13.06
  -2  -3   7   62.51   10.66
   2   3  -7   57.16   12.72
  -2   3   7   58.06   11.54
  -1  -3   7   11.83    4.19
   1  -3  -7    7.31    6.70
  -1   3   7    8.17    6.05
   1   3  -7   12.21    7.05
   1  -3  -7    7.02    6.84
  -1  -3   7    7.70    9.88
  -1  -3   7    9.98    5.29
   0  -3  -7   20.45    9.01
   0  -3  -7    2.28    5.91
   0  -3   7   10.28   10.05
   0   3   7   12.38    6.82
   0   3  -7   17.94    8.35
  -1  -3  -7   48.08    9.78
  -1  -3  -7   34.96   11.12
   1  -3   7   37.39   13.72
  -1   3  -7   25.78    9.83
   2  -3   7  249.78   23.96
  -2  -3  -7  249.98   24.90
   2   3   7  239.60   13.90
  -3  -3  -7  105.50   18.96
  -4  -3  -7   91.88   19.50
  -5  -3  -7   24.36   14.34
  -6  -3  -7   10.33   15.14
  -7   4   7   74.61   17.97
   7   4  -7   78.16   20.15
  -7  -4   7   64.40   22.64
  -7   4   7   49.10   17.39
   7  -4  -7   35.16   16.06
  -7  -4   7   49.22   20.47
   6  -4  -7  443.07   41.30
  -6  -4   7  442.00   38.53
   6   4  -7  370.55   35.55
  -6   4   7  471.06   38.84
  -6  -4   7  482.39   43.01
  -5  -4   7   84.35   18.52
   5  -4  -7  115.31   24.32
   5   4  -7   56.66   14.95
  -5   4   7   80.13   17.94
  -5  -4   7   99.63   23.49
   5  -4  -7   80.37   13.20
   5  -4  -7   93.54   17.30
  -4  -4   7   34.30   14.98
   4  -4  -7   34.70   14.17
   4  -4  -7   33.56    9.33
   4   4  -7   38.51   12.55
   4   4  -7   41.59    8.66
  -4  -4   7   60.43   15.06
  -4   4   7   30.88   11.12
   4  -4  -7   40.21   11.82
   3  -4  -7  104.96   21.07
   3  -4  -7   95.72   15.96
  -3  -4   7  117.65   16.85
   3   4  -7  118.50    9.22
   3   4  -7  126.57   19.18
   3  -4  -7  149.10   15.47
  -3   4   7   89.41   15.81
  -3  -4   7  139.32   24.50
  -2   4   7  889.21   42.90
  -2  -4   7  843.95   51.00
   2  -4  -7  887.58   49.66
  -2  -4   7  865.12   38.67
  -2   4   7  833.84   42.92
   2   4  -7  910.16   36.70
   2   4  -7  841.23   43.84
   1  -4  -7  106.40   17.90
  -1  -4   7   93.95    9.48
   1   4  -7  113.89   17.33
  -1  -4   7   95.24   20.12
  -1   4   7   75.09   13.39
   1  -4  -7   86.89   17.00
   0  -4   7  159.42   22.82
   0   4  -7  156.96   19.28
   0  -4  -7  157.02   18.75
   0   4   7  157.95   17.97
   0  -4  -7  142.27   20.36
   1  -4   7  157.91   23.18
  -1  -4  -7  166.01   16.93
  -1   4  -7  126.02   18.38
  -1  -4  -7  179.48   22.61
   2  -4   7  394.86   32.63
  -2  -4  -7  466.73   24.21
  -2  -4  -7  450.11   33.69
   2  -4   7  455.74   20.43
   3  -4   7   84.15   16.10
  -3  -4  -7   87.63   18.76
  -4  -4  -7  110.06   22.53
  -5  -4  -7    9.02   13.74
  -6  -4  -7   81.24   24.22
  -7  -5   7   92.73   27.56
  -7  -5   7   63.50   22.23
   7   5  -7  133.30   26.12
   7  -5  -7  160.61   32.19
  -7   5   7   77.53   20.51
  -7   5   7  167.21   28.42
   6  -5  -7   79.82   22.71
  -6  -5   7   43.95   20.52
   6   5  -7   95.03   20.16
  -6  -5   7  107.15   24.26
  -6   5   7   61.80   17.74
  -5   5   7   -3.29    6.93
   5  -5  -7    7.46   10.94
  -5  -5   7   -4.02   10.90
  -5  -5   7    9.45   14.28
   5   5  -7   -2.69    7.54
   4  -5  -7  259.47   26.21
  -4  -5   7  251.83   34.82
   4  -5  -7  277.49   35.04
   4   5  -7  261.18   28.33
  -4  -5   7  240.76   26.30
  -4   5   7  254.87   27.27
   3  -5  -7   14.03   10.25
  -3  -5   7   15.46   13.86
   3  -5  -7    8.13    8.39
   3   5  -7   11.03    8.40
  -3   5   7    5.03    6.99
  -3  -5   7    2.86    9.18
  -2  -5   7  146.06   16.14
   2   5  -7  108.33   18.26
  -2  -5   7  160.91   27.04
   2  -5  -7  156.10   23.88
   1   5  -7   -8.32    4.59
  -1  -5   7   -0.43    4.71
   1  -5  -7    2.00    8.14
   1  -5  -7    2.12    6.99
  -1  -5   7   16.26   14.34
   0  -5  -7  451.09   34.15
   0  -5  -7  465.59   31.57
   0   5  -7  429.20   29.60
   0  -5   7  434.82   36.24
  -1  -5  -7   98.78   19.04
  -1   5  -7  106.39   17.73
  -1  -5  -7   84.18   14.81
   1  -5   7  107.11   23.05
  -2  -5  -7    6.57    5.95
  -2  -5  -7   -2.31    8.34
   2  -5   7   -3.78   12.66
   3  -5   7   47.50   15.49
  -3  -5  -7   16.43   12.53
  -4  -5  -7   59.12   18.11
  -5  -5  -7   94.96   23.99
  -7  -6   7    4.21   16.56
   7  -6  -7    9.43   15.15
  -7  -6   7   17.99   20.11
  -7   6   7   -6.38   10.59
  -6  -6   7   47.39   22.54
  -6   6   7   85.69   19.95
   6  -6  -7   43.49   17.34
   6   6  -7   69.91   18.80
  -6  -6   7   45.28   18.71
  -5   6   7  212.98   28.34
   5   6  -7  228.93   30.02
   5  -6  -7  246.45   36.37
  -5  -6   7  154.70   26.38
  -5  -6   7  224.46   37.70
  -4   6   7  152.70   23.19
  -4  -6   7  162.18   23.68
   4  -6  -7  161.85   27.43
  -4  -6   7  123.75   28.12
   4  -6  -7  209.71   25.16
   4   6  -7  163.73   24.21
   3   6  -7   16.32    9.11
   3  -6  -7    8.22   10.16
  -3  -6   7    9.66   10.50
  -3  -6   7   12.65   15.68
  -3   6   7    4.67    6.80
   2  -6  -7  569.90   42.19
  -2  -6   7  673.07   34.14
  -2  -6   7  662.46   48.64
   1   6  -7  190.48   23.27
   1  -6  -7  297.95   30.64
   1  -6  -7  225.00   28.77
  -1  -6   7  236.33   32.43
   0  -6  -7  105.00   18.95
   0  -6  -7  113.22   21.54
   0  -6   7  101.13   23.97
   0   6  -7   93.58   16.57
  -1   6  -7    4.11    7.77
  -1  -6  -7    6.49    9.16
  -1  -6  -7    1.84    7.13
   1  -6   7   10.18   16.16
   2  -6   7  385.66   36.09
  -2  -6  -7  369.23   36.57
  -2  -6  -7  425.20   28.14
   3  -6   7  617.14   43.33
  -3  -6  -7  680.52   47.87
  -4  -6  -7   54.39   19.67
  -5  -6  -7   42.29   18.42
  -6   7   7   13.49   12.20
  -6  -7   7  -26.57   12.78
  -6  -7   7    6.42   18.80
   6   7  -7   15.36   12.67
   6  -7  -7   10.80   14.18
  -5  -7   7    9.40   16.55
  -5   7   7   30.62   13.38
   5   7  -7   26.27   12.84
  -5  -7   7   13.20   18.07
   5  -7  -7   16.51   13.76
  -4  -7   7  118.24   29.46
   4  -7  -7  136.09   26.58
  -4  -7   7  108.57   22.21
   4   7  -7  144.28   23.41
  -4   7   7  109.93   20.45
  -3  -7   7  165.15   22.65
  -3  -7   7  248.93   37.75
   3  -7  -7  159.70   28.53
  -3   7   7  159.07   23.18
   3   7  -7  182.98   24.84
  -2  -7   7   79.34   24.73
   2  -7  -7  124.61   24.45
   2  -7  -7   65.86   17.90
   2   7  -7   61.96   14.95
   1  -7  -7   28.12   13.59
   1  -7  -7   56.57   16.30
   1   7  -7   44.39   12.61
  -1  -7   7   35.73   20.64
   0  -7  -7  436.42   37.70
   0  -7   7  485.28   45.93
   0   7  -7  465.93   32.12
   0  -7  -7  430.98   34.80
  -1  -7  -7  154.70   26.04
   1  -7   7  159.96   29.95
  -1  -7  -7  181.69   24.09
  -1   7  -7  122.66   19.27
   2  -7   7    7.89   15.98
  -2  -7  -7   12.40   12.30
   3  -7   7   -8.18   12.26
  -3  -7  -7    3.21   11.54
  -4  -7  -7  132.60   26.77
  -5  -8   7   87.05   24.42
   5  -8  -7  130.51   28.94
  -5  -8   7   95.41   31.29
   5   8  -7  160.24   26.71
  -4  -8   7   25.40   16.12
   4   8  -7   35.98   14.34
  -4  -8   7   35.54   24.01
  -4   8   7   40.76   13.94
   4  -8  -7   61.15   21.06
   3  -8  -7   96.18   23.07
  -3   8   7   85.03   18.74
  -3  -8   7   78.94   27.81
   2  -8  -7  160.42   26.90
   2   8  -7  119.98   19.80
   2  -8  -7  184.89   30.41
  -2  -8   7  209.73   38.13
  -1  -8   7   53.42   24.74
   1  -8  -7   97.01   21.34
   1   8  -7   64.58   15.03
   1  -8  -7  109.83   23.97
   0  -8  -7   22.35   11.87
   0  -8   7    4.61   19.17
   0  -8  -7    7.82   11.97
   0   8  -7    5.74    8.95
  -1  -8  -7   50.44   15.87
  -1   8  -7   37.35   13.24
   1  -8   7   25.51   19.95
  -1  -8  -7   45.39   17.34
   2  -8   7  204.25   33.72
  -2  -8  -7  288.54   38.66
  -3  -8  -7   47.27   18.93
   3  -8   7   92.12   23.96
  -4  -8  -7   20.05   16.52
   5  -9  -7   74.74   23.99
  -5  -9   7   61.11   29.02
  -4   9   7   89.19   20.85
   4   9  -7  136.20   24.08
   4  -9  -7  103.42   25.28
  -4  -9   7   71.13   30.69
   3  -9  -7  121.26   26.94
   3   9  -7  118.29   22.21
  -3   9   7   80.05   18.52
  -3  -9   7   97.92   31.36
   2   9  -7   40.07   14.07
   2  -9  -7   73.63   20.86
   2  -9  -7   46.36   17.98
  -2  -9   7   17.39   23.21
  -1  -9   7  -15.49   17.75
   1  -9  -7   22.08   13.52
   1  -9  -7    6.47   11.58
   1   9  -7    1.53    8.68
   0  -9   7  175.51   36.47
   0   9  -7  180.87   23.58
   0  -9  -7  216.13   34.52
   0  -9  -7  229.59   33.10
   1  -9   7  446.56   50.01
  -1  -9  -7  435.44   45.66
  -1  -9  -7  485.58   39.95
  -1   9  -7  441.78   32.67
  -2  -9  -7    9.03   14.44
   2  -9   7   17.11   19.38
  -3  -9  -7   41.41   19.45
   3  -9   7   21.35   18.37
  -3 -10   7  -12.07   21.95
   3  10  -7   -7.37    7.46
   3 -10  -7   12.90   14.40
  -3  10   7    6.05    9.52
   2  10  -7   16.91   11.27
  -2 -10   7   31.77   26.68
   2 -10  -7   28.92   14.87
   2 -10  -7   60.33   20.32
   1 -10  -7  165.31   30.43
   1  10  -7  174.51   24.12
  -1 -10   7  221.55   43.92
   0  10  -7   19.09   12.86
   0 -10   7   15.33   23.68
   0 -10  -7   72.81   21.37
   0 -10  -7   27.90   17.18
   1 -10   7    6.93   20.68
  -1 -10  -7   21.76   14.05
  -1  10  -7   -4.83   10.09
  -1 -10  -7   12.29   14.31
   2 -10   7    4.31   19.51
  -2 -10  -7   27.22   17.66
   7   0  -8  409.06   32.95
  -7   0   8  497.55   43.79
  -7   0   8  378.03   38.88
   6   0  -8   32.60   11.62
  -6   0   8   27.81   13.58
  -6   0   8   19.38   11.91
   6   0  -8   19.23   10.55
   5   0  -8  162.33   20.99
   5   0  -8  162.11   18.95
  -5   0   8  188.00   28.35
  -5   0   8  178.89   23.60
   4   0  -8   92.17   13.44
   4   0  -8   98.06   16.47
  -4   0   8  100.19   20.81
  -4   0   8   80.57   15.29
   3   0  -8  627.61   30.26
  -3   0   8  513.28   31.95
   3   0  -8  684.08   36.46
  -3   0   8  581.34   39.65
  -2   0   8   45.35   13.65
  -2   0   8   57.53    9.40
   2   0  -8   93.27   15.89
  -2   0   8   59.22   11.23
   1   0  -8  266.99   24.92
  -1   0   8  292.12   24.17
  -1   0   8  353.87   20.16
  -1   0   8  321.20   18.37
  -1   0   8  321.86   21.68
   0   0   8  752.07   31.20
   0   0   8  758.28   33.83
   0   0   8  730.35   30.84
   0   0   8  709.13   37.57
   1   0   8  371.15   23.19
  -2   0  -8   16.13    6.38
  -7  -1   8   68.36   19.70
   7   1  -8  110.00   21.41
  -7   1   8   69.30   19.61
   7  -1  -8   55.43   14.71
  -7   1   8   59.27   19.03
  -7  -1   8   49.12   18.33
   6  -1  -8   86.76   16.63
  -6   1   8   68.70   19.24
  -6   1   8   53.61   16.79
   6   1  -8   83.45   16.65
  -6  -1   8   65.68   19.79
   6   1  -8   89.08   18.08
  -6  -1   8   64.68   17.11
   6  -1  -8   83.70   16.58
   5  -1  -8  504.71   32.60
   5   1  -8  486.71   33.25
   5  -1  -8  499.32   32.05
  -5   1   8  521.89   40.30
   5   1  -8  536.07   31.26
  -5   1   8  523.63   36.38
  -5  -1   8  496.21   36.00
  -5  -1   8  468.62   40.01
  -4   1   8  250.61   29.57
  -4  -1   8  203.29   28.60
   4  -1  -8  201.98   21.73
  -4   1   8  181.41   22.00
  -4  -1   8  156.26   20.08
   4  -1  -8  204.21   19.78
   4   1  -8  183.55   16.95
   4   1  -8  191.38   22.03
   3  -1  -8   -6.61    4.19
  -3   1   8   -4.50    7.65
   3   1  -8    5.89    4.90
  -3   1   8   12.55    7.01
  -3   1   8   -0.10    5.75
  -3  -1   8   -0.74    5.77
  -3  -1   8   -3.17    7.28
   3  -1  -8    3.72    6.05
   3   1  -8    2.52    5.84
  -2   1   8  457.80   32.03
  -2  -1   8  456.66   33.74
  -2   1   8  485.75   26.13
  -2  -1   8  464.02   25.67
   2  -1  -8  425.00   28.46
  -2   1   8  477.66   27.47
   2   1  -8  439.72   29.48
  -1  -1   8  688.98   39.79
  -1  -1   8  696.69   31.28
  -1  -1   8  677.52   29.97
   1  -1  -8  658.10   36.65
  -1   1   8  722.48   38.61
  -1  -1   8  699.07   27.47
  -1   1   8  633.63   30.84
  -1   1   8  679.68   32.55
   1   1  -8  695.84   38.20
   0  -1   8   90.54   10.06
   0  -1   8  106.04    9.08
   0   1   8   94.50   12.04
   0   1  -8   96.99   16.86
   0  -1   8  111.61    9.70
   0   1   8   91.20   14.25
   0  -1   8   96.78   15.75
   1   1   8   -1.47    5.43
   1  -1   8   -4.70    7.39
  -1  -1  -8    4.16    5.97
   1  -1   8    1.12    2.75
  -2  -1  -8  167.51   17.43
  -3  -1  -8  429.29   28.57
  -7   2   8   28.80   14.60
   7  -2  -8   39.23   12.90
  -7  -2   8   19.06   15.05
  -7  -2   8   23.25   15.14
  -7   2   8   20.86   13.27
   7   2  -8   34.23   14.52
  -6  -2   8   79.61   22.29
   6  -2  -8   37.25   13.15
   6  -2  -8   43.80   12.58
  -6   2   8   54.33   16.15
  -6   2   8   44.23   15.38
   6   2  -8   62.71   15.93
  -6  -2   8   43.21   16.16
  -5  -2   8    3.44    8.56
   5  -2  -8   15.47    8.95
  -5  -2   8    3.20    9.36
  -5   2   8    4.85    8.19
  -5   2   8    5.11    8.43
   5   2  -8    8.14    8.43
   5   2  -8   17.08    8.01
   5  -2  -8    6.86    7.99
  -4   2   8  505.10   37.98
   4   2  -8  527.12   34.35
  -4  -2   8  532.07   34.06
   4  -2  -8  549.43   32.22
   4  -2  -8  494.97   31.61
  -4  -2   8  511.68   40.63
   4   2  -8  551.03   27.69
  -4   2   8  506.21   34.49
   3  -2  -8   45.97   11.23
   3   2  -8   57.39   13.34
   3  -2  -8   52.77   11.88
  -3   2   8   83.46   17.74
  -3  -2   8   82.41   18.68
  -3   2   8   68.46   13.62
  -3  -2   8   62.97   12.71
   3   2  -8   58.14    8.49
  -3   2   8   60.89   12.69
   2   2  -8   46.76   12.18
   2  -2  -8   55.94   12.66
  -2   2   8   67.23   12.09
  -2   2   8   57.51   11.67
  -2  -2   8   91.59   18.73
  -2   2   8   51.31   14.26
  -2  -2   8   59.74   10.79
  -2  -2   8   62.14   10.71
  -1  -2   8  113.42   10.66
  -1   2   8  114.78   14.22
  -1  -2   8  115.12   10.83
  -1   2   8  133.33   17.89
  -1   2   8  110.36   13.80
  -1  -2   8   99.07   18.23
   1   2  -8  110.59   17.81
   0  -2  -8  349.52   25.64
   0  -2   8  324.45   26.80
   0  -2   8  378.98   15.31
   0   2  -8  373.14   27.49
   0   2   8  375.76   24.34
   0   2   8  379.88   23.38
   1  -2   8  490.24   32.03
   1   2   8  515.42   26.87
  -1  -2  -8  543.27   32.28
  -2  -2  -8    3.53    6.88
   2  -2   8  -14.73    9.53
  -3  -2  -8   87.78   16.96
  -4  -2  -8  192.51   24.56
  -7   3   8    3.41   10.96
  -7  -3   8    7.13   13.81
  -7  -3   8   -3.14   12.12
  -7   3   8   14.30   11.72
   7   3  -8    3.76    9.40
   6  -3  -8  404.01   28.41
  -6  -3   8  315.66   34.24
  -6   3   8  407.86   38.20
  -6  -3   8  412.12   44.47
   6   3  -8  349.27   34.20
   5  -3  -8   49.82   12.55
  -5  -3   8   40.80   13.82
   5   3  -8   58.67   15.61
  -5   3   8   77.56   18.46
   5  -3  -8   79.33   16.13
  -5  -3   8   81.23   22.06
  -5   3   8   60.38   15.80
   4  -3  -8   74.83   15.08
  -4  -3   8   37.42   12.70
   4   3  -8   34.08   11.68
   4  -3  -8   38.28   11.21
  -4  -3   8   58.32   18.28
   4  -3  -8   51.93   15.97
  -4   3   8   33.39   13.33
  -4   3   8   48.74   12.47
   3  -3  -8   88.17   19.59
  -3  -3   8   85.14   20.10
  -3   3   8   77.60   15.05
   3  -3  -8   66.48   13.44
  -3  -3   8  100.09   15.26
   3   3  -8   81.42   16.03
  -3   3   8   91.68   18.17
   3  -3  -8   88.70   15.21
   2  -3  -8  816.96   47.84
  -2   3   8  817.07   41.41
  -2  -3   8  855.62   37.43
  -2   3   8  897.92   41.57
   2   3  -8  805.70   43.51
  -2   3   8  739.54   43.71
  -2  -3   8  786.10   48.72
  -1  -3   8  657.86   26.38
  -1   3   8  691.06   34.82
  -1  -3   8  613.62   40.85
  -1   3   8  613.68   36.24
   1  -3  -8  636.77   38.95
   1   3  -8  649.66   37.81
   0   3  -8    4.26    7.11
   0  -3  -8    4.11    7.57
   0   3   8    1.50    4.97
   0  -3   8    8.15   11.33
   0   3   8    3.43    6.16
   1   3   8   49.06    9.08
  -1  -3  -8   41.11   12.03
   1  -3   8   19.90   12.95
   1   3   8   31.92    9.74
  -2  -3  -8  272.81   26.45
   2  -3   8  232.27   24.56
  -3  -3  -8  204.85   25.14
  -4  -3  -8   56.00   16.62
  -7   4   8    0.83   11.01
  -7  -4   8   -4.94   13.89
  -7   4   8   26.81   12.55
  -7  -4   8  -23.83   11.78
   7   4  -8    5.72   11.42
  -6   4   8   74.36   18.74
  -6   4   8   96.69   21.48
  -6  -4   8   46.59   19.86
   6  -4  -8   64.55   21.82
   6   4  -8   84.26   19.39
  -6  -4   8   35.73   16.78
   5  -4  -8    0.87    7.73
  -5  -4   8   12.20   14.06
   5   4  -8   19.47   11.32
   5  -4  -8   17.37   10.46
  -5   4   8   11.44    8.80
  -5  -4   8  -14.54    8.01
   5  -4  -8    6.40    9.68
  -5   4   8   12.48    9.74
   4  -4  -8  303.10   27.68
  -4   4   8  319.41   27.45
   4   4  -8  380.43   33.04
  -4  -4   8  260.13   34.24
  -4  -4   8  300.19   28.21
   4  -4  -8  317.46   23.03
   4  -4  -8  224.20   31.20
   3   4  -8  222.40   25.66
   3  -4  -8  250.76   31.27
  -3  -4   8  226.87   31.10
  -3  -4   8  249.93   22.97
  -3   4   8  290.28   24.40
  -2   4   8   10.80    7.52
   2  -4  -8   22.86   11.75
  -2  -4   8    5.34   12.73
   2   4  -8    4.32    7.32
  -2  -4   8    6.49    7.47
  -1  -4   8   45.31   16.31
   1  -4  -8   38.88   13.10
   1   4  -8   44.57   12.26
   1  -4  -8   42.29   12.55
   0  -4   8   88.14   20.07
   0  -4  -8  127.79   18.28
   0  -4  -8   93.37   17.70
   0   4  -8   93.40   17.38
  -1   4  -8  155.80   21.85
  -1  -4  -8  142.59   21.14
  -1  -4  -8  171.71   17.98
   1  -4   8  142.17   23.66
   2  -4   8   56.28   17.57
  -2  -4  -8   69.34   16.86
  -3  -4  -8   56.10   16.68
  -4  -4  -8  201.25   28.20
  -5  -4  -8   24.79   16.20
   6   5  -8   33.98   14.45
  -6  -5   8   20.57   16.16
   6  -5  -8   61.08   21.98
  -6  -5   8   19.08   18.06
  -6   5   8   34.13   14.26
  -5   5   8   -5.43    7.41
   5  -5  -8   -3.15    9.77
  -5  -5   8   -3.15   14.41
  -5  -5   8  -22.24    8.69
   5   5  -8   -4.80    8.45
   4  -5  -8   -3.43    8.11
  -4  -5   8   -0.71   10.12
  -4  -5   8  -10.28   12.05
  -4   5   8   -3.98    6.42
   4  -5  -8    9.22   11.28
   4   5  -8    5.72    7.86
  -3  -5   8    2.80    9.41
   3   5  -8   -1.49    7.83
  -3   5   8    7.52    7.82
  -3  -5   8   -5.40   12.47
   3  -5  -8   21.89   12.22
   2  -5  -8    1.96    8.11
  -2  -5   8   -8.71   11.00
   2   5  -8    1.14    6.83
  -2   5   8    0.42    6.49
   1  -5  -8   78.67   17.71
   1  -5  -8   57.66   14.46
   1   5  -8   39.09   12.66
  -1  -5   8   78.00   22.20
   0  -5  -8   16.05    9.37
   0  -5   8    0.71   14.23
   0   5  -8   12.67    9.63
   0  -5  -8   15.47   10.19
  -1  -5  -8  151.41   18.75
   1  -5   8  158.82   26.15
  -1   5  -8  175.65   23.16
  -1  -5  -8  165.45   24.77
   2  -5   8    3.00   14.61
  -2  -5  -8    3.88    8.79
  -3  -5  -8   -3.77    9.48
  -4  -5  -8   42.34   16.89
  -5  -5  -8    8.61   14.04
  -6  -6   8   19.38   19.46
  -6  -6   8   58.36   21.18
   6  -6  -8   88.27   23.37
   6   6  -8   80.81   20.76
  -6   6   8  101.35   22.99
  -5  -6   8   -3.90   12.96
   5  -6  -8   27.85   15.91
  -5  -6   8    7.70   16.16
  -5   6   8   15.53   10.50
   5   6  -8   12.96   11.09
  -4  -6   8   94.42   20.78
  -4   6   8   75.44   17.50
  -4  -6   8   74.38   25.62
   4   6  -8  104.35   20.29
   4  -6  -8  119.69   25.81
  -3  -6   8    8.08   15.85
   3   6  -8   18.44   10.78
  -3   6   8   24.84   10.81
   3  -6  -8   22.99   14.02
  -2  -6   8   16.82   16.64
   2  -6  -8   40.40   14.76
   2   6  -8   11.69    9.78
   1  -6  -8    1.09    8.56
   1  -6  -8   -0.77    8.23
  -1  -6   8   30.53   18.18
   1   6  -8   -0.07    7.34
   0  -6  -8   14.75    9.79
   0  -6  -8   -4.09    8.27
   0   6  -8    6.21    8.82
   0  -6   8   15.78   17.70
   1  -6   8  126.83   27.17
  -1   6  -8  212.16   25.51
  -1  -6  -8  195.03   22.71
  -1  -6  -8  197.58   28.41
  -2  -6  -8   36.33   15.30
   2  -6   8    5.74   16.60
  -3  -6  -8   48.37   16.46
  -4  -6  -8   12.36   14.59
  -5  -7   8   22.59   21.36
   5   7  -8   47.92   16.89
  -5  -7   8   42.90   20.14
  -5   7   8   73.49   19.47
   5  -7  -8   53.37   19.03
   4  -7  -8    9.10   13.36
  -4   7   8    3.58    8.81
   4   7  -8   12.77   10.35
  -4  -7   8   10.15   17.44
   3   7  -8   15.36   10.99
   3  -7  -8   26.88   12.80
  -3   7   8    5.26    8.92
  -3  -7   8   -2.26   17.40
   2  -7  -8   87.61   21.01
  -2  -7   8   30.34   20.96
   2   7  -8   33.94   12.22
   2  -7  -8   69.97   19.41
  -1  -7   8   -3.15   17.03
   1  -7  -8   17.37   12.06
   1  -7  -8   -0.15    9.42
   1   7  -8   -4.90    6.78
   0  -7   8   75.79   25.59
   0  -7  -8  126.08   23.02
   0   7  -8   88.35   18.00
   0  -7  -8   93.88   21.72
  -1  -7  -8  103.06   22.81
   1  -7   8  126.81   29.59
  -1   7  -8   96.46   18.56
  -1  -7  -8  121.04   20.86
   2  -7   8  -16.56   15.06
  -2  -7  -8   29.55   15.05
  -3  -7  -8   60.44   19.20
  -4  -7  -8    8.63   14.64
  -5  -8   8    5.30   21.70
  -5   8   8    7.24   10.20
   5   8  -8   -5.39   10.04
   5  -8  -8    1.43   11.98
  -4  -8   8    2.50   21.07
   4  -8  -8    1.12   11.40
   4   8  -8    8.88   10.44
  -4   8   8    3.15    9.01
  -3   8   8   -4.24    7.86
  -3  -8   8   -0.79   19.51
   3   8  -8    6.20    9.24
   3  -8  -8   10.67   13.11
   2   8  -8   -2.31    8.45
   2  -8  -8   20.16   13.50
  -2  -8   8   -1.80   18.59
   2  -8  -8   11.14   12.64
  -1  -8   8  -21.91   17.57
   1  -8  -8   13.94   12.07
   1  -8  -8   11.35   12.36
   1   8  -8   -0.09    8.23
   0  -8  -8   29.91   13.81
   0  -8   8    9.26   21.23
   0   8  -8   17.96   11.36
   0  -8  -8   36.69   16.13
   1  -8   8   -8.46   18.41
  -1  -8  -8   12.48   13.10
  -1   8  -8    5.95   10.06
  -1  -8  -8   26.65   13.31
  -2  -8  -8    9.96   12.73
   2  -8   8  -15.94   15.61
  -3  -8  -8   10.59   15.33
   4  -9  -8    9.62   15.07
  -4  -9   8   -0.76   21.63
  -4   9   8   15.12   11.24
   3   9  -8    8.59   11.54
  -3   9   8   22.40   12.56
   3  -9  -8   22.77   14.89
  -3  -9   8    2.67   23.11
  -2  -9   8   36.38   26.21
   2  -9  -8   76.82   23.53
   2   9  -8   80.01   19.53
   2  -9  -8  120.15   26.23
   1   9  -8   40.14   13.77
   1  -9  -8   69.68   19.97
   1  -9  -8   60.86   19.90
  -1  -9   8   28.24   25.53
   0  -9   8   20.57   22.80
   0  -9  -8   17.70   13.66
   0   9  -8    7.71   10.61
   0  -9  -8   10.37   14.11
  -1   9  -8   -3.87    9.27
   1  -9   8   33.05   23.90
  -1  -9  -8   30.42   16.28
  -2  -9  -8   43.48   18.92
   2  -9   8   35.81   22.34
  -2 -10   8  -22.55   22.13
   2 -10  -8   28.48   17.10
   1  10  -8   10.75   11.41
   1 -10  -8   -2.13   11.83
  -1 -10   8   -1.59   24.10
   1 -10  -8   11.81   14.54
   0 -10  -8   30.24   18.26
   0 -10  -8   30.10   15.51
   0 -10   8    1.13   23.84
  -7   0   9   18.19   13.85
  -7   0   9    3.14   12.44
   7   0  -9    6.64   10.11
  -6   0   9    8.24   10.36
  -6   0   9   -1.42    9.24
   6   0  -9   -6.71    7.39
   5   0  -9   -1.12    7.47
  -5   0   9    0.37    9.18
   5   0  -9    1.43    7.29
  -5   0   9    3.21    8.59
   4   0  -9    3.79    7.75
   4   0  -9   -1.48    5.77
  -4   0   9    0.98    7.03
  -4   0   9    2.15    9.11
  -3   0   9   -3.78    5.38
  -3   0   9   -2.18    8.24
   3   0  -9    2.48    7.04
   2   0  -9   -3.18    6.41
  -2   0   9   -4.51    7.47
  -2   0   9    4.27    5.78
  -2   0   9    2.80    5.26
   1   0  -9   -8.78    5.32
  -1   0   9   -1.30    7.55
  -1   0   9    1.16    5.05
  -1   0   9    0.88    5.04
   0   0   9    8.85    5.45
   0   0   9   -2.44    6.81
   0   0   9   -2.55    3.91
   1   0   9   -2.75    4.95
   1   0   9    0.58    7.02
  -7  -1   9   17.09   13.82
  -7  -1   9    6.42   13.61
   7   1  -9   -0.96    9.82
  -7   1   9    9.82   12.92
   7  -1  -9   -0.18    9.52
  -7   1   9   12.49   12.12
  -6   1   9   50.39   16.37
   6   1  -9   20.48   11.92
  -6  -1   9   40.91   15.37
   6  -1  -9   28.96   11.91
  -6  -1   9   48.13   18.27
   6  -1  -9   59.37   15.54
  -6   1   9   40.05   15.44
  -5  -1   9   23.21   13.74
  -5  -1   9    8.89   10.10
   5  -1  -9   10.24    9.14
  -5   1   9   19.55   11.70
   5   1  -9   16.68   10.63
  -5   1   9    8.15    9.49
   5  -1  -9    7.93    8.98
   4  -1  -9    0.88    6.99
  -4  -1   9    5.81    8.53
  -4   1   9   -3.49    6.41
  -4   1   9   -0.94    7.88
   4  -1  -9   -4.48    6.75
   4   1  -9    5.34    8.19
  -4  -1   9    3.21   10.00
  -3   1   9   88.10   13.89
   3  -1  -9   68.05   15.17
  -3  -1   9   65.87   13.09
  -3   1   9   81.34   14.68
   3   1  -9   78.79   16.05
  -3   1   9   85.33   18.38
  -3  -1   9   48.90   16.13
  -2  -1   9   34.69   13.06
   2  -1  -9   56.87   13.59
  -2   1   9   49.41   11.29
  -2  -1   9   53.16   10.72
   2   1  -9   39.91   12.26
  -2   1   9   36.86    9.70
  -2   1   9   60.74   14.97
  -1   1   9   37.71    8.78
  -1  -1   9   36.86    8.08
  -1  -1   9   20.14   11.00
   1  -1  -9   18.66    9.94
  -1   1   9   39.73    9.53
   1   1  -9   16.14    9.16
  -1   1   9   37.07   11.54
   0   1   9    7.11    6.90
   0   1   9    2.35    4.77
   0   1   9    2.54    5.34
   0  -1   9   -2.46    7.12
   0   1  -9   -0.59    6.83
   1  -1   9   72.61   14.85
  -1  -1  -9   78.50   13.22
   1   1   9   76.67   12.38
   1   1   9   58.21   11.38
  -7  -2   9   46.47   19.83
  -7  -2   9   -5.26   12.70
   7   2  -9    9.17   11.35
  -7   2   9    7.33   13.34
  -7   2   9   37.23   15.28
   6  -2  -9   -0.54    8.21
  -6  -2   9   -4.52   10.71
   6   2  -9   -5.67    8.16
  -6   2   9   18.16   11.61
  -6  -2   9  -10.88    9.53
  -6   2   9   16.08   11.91
   5  -2  -9   79.46   16.46
  -5   2   9   95.88   21.55
  -5  -2   9   84.35   19.10
  -5  -2   9   97.23   24.18
  -5   2   9   63.73   16.85
   5  -2  -9   61.43   14.20
   5   2  -9   58.58   15.44
   4  -2  -9   19.02    9.65
  -4  -2   9   29.61   14.60
  -4   2   9    8.38    8.47
  -4   2   9   30.72   12.20
  -4  -2   9   23.85   10.60
   4   2  -9    6.56    8.16
   4  -2  -9    7.66    9.02
  -3   2   9   37.31   11.00
  -3   2   9   46.19   11.69
   3  -2  -9   60.75   14.02
  -3  -2   9   48.12   12.21
  -3   2   9   54.77   14.97
  -3  -2   9   96.18   21.56
   3   2  -9   25.97   10.91
  -2  -2   9   52.68   16.95
   2  -2  -9   51.45   13.20
  -2   2   9   81.14   16.29
  -2  -2   9   84.04   12.54
  -2   2   9   70.90   13.24
  -2   2   9   65.94   12.99
   2   2  -9   70.04   15.60
  -1   2   9   91.63   16.16
  -1   2   9   77.52   13.06
   1   2  -9   80.24   16.31
  -1  -2   9   90.87   18.43
  -1   2   9  101.89   14.51
   0  -2   9   36.97   14.29
   0   2   9   31.93   10.00
   0   2   9   47.63   10.95
   0   2  -9   38.49   13.02
  -1  -2  -9   82.65   15.11
   1  -2   9  100.80   17.96
   1   2   9   59.52   12.13
  -2  -2  -9    9.60    7.77
  -7  -3   9   33.06   18.62
  -7   3   9   69.09   19.88
  -6  -3   9   -4.79   13.20
  -6   3   9   13.93   10.85
  -6  -3   9    0.98   11.84
  -6   3   9   -0.31    9.74
   6   3  -9    3.18    9.63
  -5   3   9   86.58   19.15
   5  -3  -9   82.47   17.60
  -5  -3   9   60.13   17.00
   5  -3  -9  131.43   19.80
  -5  -3   9   80.13   22.64
   5   3  -9   89.78   18.69
  -5   3   9  110.88   22.95
  -4   3   9   10.95    8.80
  -4  -3   9    9.78   12.55
   4   3  -9    7.46    9.06
  -4   3   9   11.54    9.77
  -4  -3   9    1.95    9.17
   4  -3  -9   10.67    8.62
   4  -3  -9   11.76    9.98
  -3   3   9  442.07   32.67
  -3  -3   9  497.00   41.69
  -3  -3   9  613.58   33.96
   3   3  -9  522.20   36.38
   3  -3  -9  552.73   33.74
  -3   3   9  554.19   38.31
  -2   3   9    9.50    7.88
   2   3  -9   -0.86    6.78
  -2  -3   9   10.15   11.76
  -2   3   9    9.77    7.02
  -1   3   9  293.84   22.80
   1   3  -9  270.89   28.19
  -1   3   9  249.08   22.59
  -1  -3   9  306.42   32.07
   0   3   9   87.50   14.11
   0  -3   9   53.62   17.03
   0  -3  -9   70.66   15.53
   0   3  -9   59.29   14.95
  -1  -3  -9  178.97   22.63
   1  -3   9  188.95   24.47
  -2  -3  -9   18.78   10.43
  -3  -3  -9    8.94    9.74
   6   4  -9    5.81   10.30
  -6  -4   9   -5.30   12.96
  -6   4   9   33.31   13.08
  -6  -4   9   -4.20   13.42
  -6   4   9   15.44   11.74
  -5   4   9  205.94   28.72
  -5   4   9  246.68   32.27
   5  -4  -9  183.44   31.88
  -5  -4   9  181.31   26.76
  -5  -4   9  215.54   35.96
   5   4  -9  221.85   29.10
  -4  -4   9   63.13   21.90
  -4   4   9   54.36   14.78
  -4   4   9   70.42   17.69
   4   4  -9   31.97   12.68
   4  -4  -9   61.65   20.21
   4  -4  -9   36.74   12.21
  -4  -4   9   29.49   13.44
   4  -4  -9   39.56   13.79
   3   4  -9   26.89   11.43
  -3   4   9   34.89   11.98
  -3   4   9   20.18    9.90
  -3  -4   9   47.92   19.04
   3  -4  -9    4.40   10.23
  -2   4   9    9.34    7.97
   2   4  -9   -9.42    5.51
   2  -4  -9    6.29    9.22
  -2  -4   9    1.13   11.81
   1  -4  -9  454.30   34.07
   1   4  -9  415.49   32.26
  -1  -4   9  463.49   37.98
   0  -4  -9   45.26   13.83
   0   4  -9   42.54   13.63
   0   4   9   57.85   11.73
   0  -4   9   29.07   15.73
   0  -4  -9   38.96   12.46
  -1  -4  -9   21.65   11.24
   1  -4   9    8.97   15.05
  -2  -4  -9   34.94   13.35
  -3  -4  -9  200.94   27.76
  -6   5   9   50.69   17.84
  -6  -5   9   58.29   21.72
   6  -5  -9   47.31   20.42
  -6  -5   9   23.68   19.51
  -6   5   9   58.96   16.72
   6   5  -9   70.66   19.98
  -5   5   9   21.18   12.61
  -5  -5   9   41.40   21.17
   5   5  -9   35.18   14.27
   5  -5  -9   53.91   19.47
  -5  -5   9    4.87   14.19
   4  -5  -9  251.42   34.29
  -4   5   9  236.30   28.34
   4   5  -9  314.05   34.18
  -4  -5   9  271.82   40.21
   3  -5  -9  246.17   33.60
  -3  -5   9  285.73   38.12
   3   5  -9  175.68   25.55
  -3   5   9  301.70   29.19
  -2  -5   9    2.57   14.08
   2   5  -9    6.99    8.67
  -2   5   9    2.45    6.68
   2  -5  -9   10.97   10.88
   1  -5  -9    0.54    8.11
   1  -5  -9    7.43    9.25
   1   5  -9    1.81    8.40
  -1  -5   9  -21.07   11.95
   0  -5  -9  220.83   28.51
   0  -5  -9  203.35   24.47
   0  -5   9  222.42   31.60
   0   5  -9  209.82   27.08
   1  -5   9  476.05   41.50
  -1  -5  -9  612.18   42.81
  -2  -5  -9   35.27   14.80
  -3  -5  -9   35.47   15.64
  -5   6   9   36.27   14.37
   5  -6  -9   41.02   18.49
  -5  -6   9   20.08   20.85
   5   6  -9   41.08   16.45
  -4  -6   9   85.57   26.41
  -4   6   9   76.12   18.35
   4   6  -9   90.82   20.69
   4  -6  -9   75.19   21.88
  -3  -6   9   12.88   17.12
   3  -6  -9    7.59   10.80
   3   6  -9   -0.50    7.38
  -3   6   9   -6.27    6.77
  -2  -6   9  358.05   42.98
  -2   6   9  214.01   25.99
   2   6  -9  270.82   30.84
   2  -6  -9  298.65   35.13
   1  -6  -9  150.27   24.42
  -1  -6   9  173.74   31.47
   1  -6  -9  196.23   29.68
   1   6  -9  110.93   20.37
   0   6  -9   -2.04    8.60
   0  -6  -9   13.50    9.82
   0  -6   9   -6.18   16.14
   0  -6  -9    7.41   10.92
  -1  -6  -9    7.94   10.14
   1  -6   9  -17.31   16.41
  -1   6  -9   -8.85    8.05
  -2  -6  -9   79.51   20.28
  -3  -6  -9   48.94   17.99
   5  -7  -9   -0.99   12.96
  -5   7   9    1.95    9.92
   5   7  -9    4.53   10.81
  -5  -7   9    2.67   19.80
   4  -7  -9  234.19   37.99
   4   7  -9  127.79   24.69
  -4   7   9  121.30   22.39
  -4  -7   9  181.29   38.01
   3   7  -9  111.18   22.27
   3  -7  -9   95.09   22.68
  -3  -7   9   88.82   28.96
  -3   7   9  100.67   20.74
   2   7  -9   70.22   17.10
  -2  -7   9   78.62   26.87
   2  -7  -9   74.31   19.49
   1  -7  -9   12.26   12.35
   1   7  -9    0.90    9.93
  -1  -7   9  -23.08   17.62
   1  -7  -9   25.98   13.03
   0  -7   9  220.20   36.35
   0   7  -9  251.23   29.72
   0  -7  -9  236.54   33.16
   0  -7  -9  255.45   30.03
  -1   7  -9  116.03   21.98
  -1  -7  -9  191.03   30.47
   1  -7   9  137.00   32.15
  -2  -7  -9   23.72   15.27
  -3  -7  -9   10.01   13.45
   4  -8  -9   48.76   18.82
  -4   8   9    7.16   10.30
   4   8  -9   14.21   12.45
  -4  -8   9   -0.11   23.22
  -3  -8   9  -33.30   15.26
   3  -8  -9    6.91   11.60
   3   8  -9    3.52    9.47
  -3   8   9    8.31    9.40
   2   8  -9  148.65   24.94
   2  -8  -9  130.42   26.03
  -2  -8   9  149.51   35.36
   1   8  -9  214.72   29.09
   1  -8  -9  162.90   29.75
   1  -8  -9  293.43   36.09
  -1  -8   9  233.15   42.11
   0  -8  -9  109.67   24.58
   0  -8  -9   83.46   19.96
   0  -8   9  103.51   32.64
   0   8  -9   68.95   17.94
   1  -8   9  -12.89   20.21
  -1   8  -9   -1.84   10.76
  -1  -8  -9   16.06   15.12
  -2  -8  -9  137.03   30.26
   2   9  -9   -0.45    9.86
   2  -9  -9   22.95   15.62
  -2  -9   9    0.79   25.23
  -1  -9   9    9.83   24.50
   1   9  -9   30.13   13.99
   1  -9  -9   20.77   15.02
   1  -9  -9   62.48   20.69
   0  -9   9  -15.97   22.21
   0  -9  -9   -0.98   13.26
  -6   0  10  187.88   28.58
   6   0 -10  207.31   28.16
  -6   0  10  229.48   36.72
  -5   0  10   23.52   14.77
  -5   0  10   52.42   15.56
   5   0 -10   20.52   11.80
   4   0 -10  141.31   21.92
  -4   0  10  247.73   32.61
  -4   0  10  206.23   24.24
  -3   0  10  114.69   17.92
  -3   0  10  131.36   23.87
   3   0 -10  134.23   21.47
  -2   0  10  493.28   37.42
   2   0 -10  477.94   34.79
  -2   0  10  514.93   30.59
   1   0 -10    3.36    8.77
  -1   0  10   37.56   13.56
   0   0  10  137.57   19.47
   6   1 -10  113.90   22.88
  -6   1  10  161.77   30.55
   6  -1 -10  113.25   21.17
  -6  -1  10  154.74   27.14
  -6   1  10  115.44   23.51
  -6  -1  10  164.06   32.42
  -5  -1  10   74.35   18.24
  -5   1  10   71.28   20.21
   5   1 -10   61.03   15.99
  -5  -1  10   56.40   20.77
   5  -1 -10   58.04   16.02
  -5   1  10   54.99   15.75
   4   1 -10   81.95   17.73
   4  -1 -10   90.19   18.84
  -4   1  10  126.21   24.53
  -4  -1  10  122.67   25.80
  -4  -1  10  111.59   19.27
  -4   1  10   79.97   16.71
  -3  -1  10   81.97   15.35
  -3   1  10  109.48   21.42
   3   1 -10   61.31   15.84
  -3   1  10   85.68   16.47
  -3  -1  10   63.75   19.06
   3  -1 -10   90.81   18.28
   2   1 -10   84.15   18.04
  -2   1  10   99.57   15.79
   2  -1 -10   96.89   19.11
  -2  -1  10  108.40   21.41
  -2   1  10   95.71   19.08
  -1  -1  10  204.31   25.47
   1   1 -10  215.76   26.59
  -1   1  10  223.25   18.78
  -1   1  10  196.79   24.05
   0   1  10  127.59   18.17
   0  -1  10   87.71   17.79
  -6  -2  10   52.23   20.24
  -6   2  10   91.71   23.16
  -6   2  10   89.18   21.11
   6  -2 -10  109.25   20.75
   6   2 -10   82.29   20.49
  -6  -2  10   73.04   20.91
  -5   2  10    9.90   10.49
  -5  -2  10    4.22   11.49
   5   2 -10   16.42   10.34
  -5   2  10   21.19   12.61
   5  -2 -10   -0.15    8.77
  -5  -2  10   14.48   14.12
   4  -2 -10  247.54   27.34
  -4   2  10  238.87   31.64
   4   2 -10  225.96   28.82
  -4   2  10  193.82   24.73
  -4  -2  10  234.16   35.20
  -4  -2  10  237.18   25.54
  -3   2  10  623.27   39.25
   3  -2 -10  732.28   42.65
  -3   2  10  739.37   46.99
   3   2 -10  744.64   44.63
  -3  -2  10  665.21   48.72
  -2  -2  10  107.38   22.14
  -2   2  10  121.42   17.48
  -2   2  10  132.29   21.49
   2   2 -10  102.84   19.43
  -1   2  10  170.81   18.59
  -1   2  10  172.88   21.96
   1   2 -10  179.90   25.74
  -1  -2  10  198.89   27.07
   0   2  10   44.48   11.52
   0   2 -10   51.00   15.70
   0   2  10   41.90   10.43
   0  -2  10   28.06   14.13
  -6   3  10   64.12   19.59
  -6   3  10   63.29   18.54
   6   3 -10   48.62   16.14
  -6  -3  10   90.17   23.19
  -6  -3  10   51.72   22.15
   5  -3 -10  172.59   23.73
  -5   3  10  159.47   27.54
  -5  -3  10  144.91   24.73
  -5   3  10  143.84   23.49
   5   3 -10  183.40   28.20
  -5  -3  10  160.36   31.81
  -4  -3  10    2.74   11.97
   4  -3 -10   -2.06    8.26
   4   3 -10   11.95   10.36
  -4   3  10    2.49    7.83
  -4   3  10   17.33   10.18
   3  -3 -10    0.22    8.68
  -3   3  10   13.42    9.48
  -3  -3  10   10.80   13.17
   3   3 -10   32.73   12.76
  -3   3  10    5.91    8.82
  -2  -3  10   -5.91   10.65
  -2   3  10    1.18    6.38
   2   3 -10  -10.43    6.74
  -2   3  10   11.21    7.67
   1   3 -10  172.39   24.69
  -1   3  10  200.10   23.14
  -1  -3  10  218.64   29.70
  -1   3  10  186.37   20.64
   0   3 -10  101.01   20.45
   0  -3  10   73.19   20.02
   0   3  10  102.83   16.33
  -1  -3 -10   39.11   13.65
   5   4 -10    1.92   10.40
  -5  -4  10   -3.12   15.21
  -5   4  10    9.89   10.95
  -5   4  10   17.35   11.58
  -4   4  10   15.35    9.15
  -4  -4  10   35.06   18.81
   4   4 -10   10.42   10.85
  -4   4  10   -4.87    7.30
  -3   4  10  149.39   23.54
  -3  -4  10  170.78   31.69
  -3   4  10  122.87   20.17
   3   4 -10  124.69   22.50
   2   4 -10   22.42   13.75
  -2   4  10   30.92   10.38
  -2   4  10   41.14   12.68
  -2  -4  10   13.23   15.47
   1   4 -10    0.73    9.25
  -1  -4  10    4.51   13.84
  -1   4  10   27.08    9.72
  -1   4  10   19.56    9.52
   0  -4  10  144.79   26.77
   0   4 -10  187.48   26.87
   0  -4 -10  202.53   27.17
   0   4  10  167.30   19.52
  -1  -4 -10   12.22   10.05
  -5   5  10  212.22   30.02
  -5   5  10  249.67   33.08
   5   5 -10  153.79   27.24
   5  -5 -10  186.85   36.04
  -5  -5  10  236.42   40.65
   4   5 -10    0.87   10.15
  -4   5  10   10.60    8.92
  -4   5  10   -0.46    9.37
   4  -5 -10    2.33   10.92
  -4  -5  10    1.45   15.26
  -3   5  10   -2.75    7.59
  -3  -5  10   -4.41   15.13
  -3   5  10   30.70   10.93
   3  -5 -10    7.24   11.25
   3   5 -10   -0.25    8.68
  -2   5  10  124.49   20.49
   2  -5 -10  135.76   26.02
   2   5 -10  106.77   21.31
  -2  -5  10  117.34   28.68
  -1   5  10   93.26   16.05
   1   5 -10   14.37   11.16
  -1  -5  10   49.80   21.88
   1  -5 -10   56.17   16.67
   0   5 -10   39.52   14.84
   0  -5  10   39.02   20.65
   0  -5 -10   39.45   15.02
  -1  -5 -10    7.66   11.22
  -2  -5 -10  374.74   37.76
   4   6 -10    3.17   10.23
  -4   6  10    7.93   10.41
  -4  -6  10   -8.28   16.30
   4  -6 -10   -7.14   11.54
   3   6 -10   35.51   14.93
   3  -6 -10   27.81   16.81
  -3  -6  10   51.53   23.79
  -3   6  10   24.12   12.73
  -2   6  10   20.60   11.22
  -2  -6  10   24.95   20.54
   2   6 -10   33.04   14.02
   2  -6 -10   25.27   14.98
   1  -6 -10   13.35   11.59
  -1  -6  10   -7.97   17.18
   1   6 -10    9.73   10.21
   0  -6  10   -4.85   18.71
   0   6 -10   21.51   12.24
   0  -6 -10   10.94   11.77
  -1  -6 -10   17.16   13.30
  -2  -6 -10    3.99   12.11
   3   7 -10    6.53   10.80
  -3   7  10    1.20    9.54
  -3  -7  10    1.98   21.17
   3  -7 -10   15.15   14.50
  -2   7  10   19.89   10.96
   2  -7 -10   36.49   16.47
  -2  -7  10  -20.43   18.04
   2   7 -10   19.36   12.26
   1  -7 -10   96.65   22.67
   1   7 -10   20.85   12.65
  -1  -7  10   20.21   24.70
   1  -7 -10   55.05   19.66
   0   7 -10   17.38   13.30
   0  -7  10   -8.94   19.13
   0  -7 -10    2.29   12.47
   1  -7  10  -45.02   17.46
  -1  -7 -10   15.17   14.02
  -1  -8  10   -0.47   24.06
   1  -8 -10   24.89   15.16
   1  -8 -10   38.38   17.84
  -5   0  11    4.04   12.51
  -5   0  11   -1.44    9.58
   5   0 -11    1.60   10.43
   4   0 -11    1.64    8.80
  -4   0  11    6.71   10.01
  -4   0  11    8.50   11.79
  -3   0  11   -2.85    9.58
   3   0 -11   -8.83    8.10
  -2   0  11   -0.57    9.67
   2   0 -11   -2.78    8.22
  -1   0  11    2.27   10.21
  -5  -1  11    4.83   13.07
  -5   1  11   32.41   16.31
   5   1 -11   14.84   12.18
   5  -1 -11    6.07   11.08
  -5   1  11    2.92   10.08
  -4   1  11   13.89   11.11
  -4  -1  11   27.47   15.54
   4  -1 -11    8.12   11.39
  -4   1  11   21.15   12.60
   4   1 -11   19.61   11.83
   3  -1 -11   11.27   10.85
   3   1 -11   12.71   11.27
  -3   1  11    3.66    8.68
  -3  -1  11   14.39   13.74
  -3   1  11   40.87   14.86
   2  -1 -11    1.71    9.11
   2   1 -11   -7.94    7.20
  -2   1  11    6.33    9.82
  -2  -1  11    5.51   11.09
   1   1 -11   -3.10    8.50
  -1   1  11    9.01    9.77
  -1  -1  11   14.34   12.34
  -5  -2  11   34.19   17.89
  -5   2  11   26.47   13.34
   5  -2 -11   31.27   14.31
   5   2 -11   23.57   13.87
  -5   2  11   28.38   14.92
  -4   2  11   17.44   12.10
   4  -2 -11   18.81   12.83
  -4   2  11   50.55   16.24
   4   2 -11   26.50   13.23
  -4  -2  11   18.57   15.70
   3  -2 -11    9.19   12.06
  -3  -2  11   26.78   16.50
   3   2 -11    1.51    8.96
  -3   2  11   29.54   12.45
  -3   2  11   29.85   11.91
  -2   2  11   78.54   15.71
  -2  -2  11   91.94   23.08
  -2   2  11   86.46   18.92
   2   2 -11   73.76   18.37
   1   2 -11    1.30    9.06
  -1   2  11   23.25   10.47
  -1  -2  11    5.81   13.30
  -5  -3  11   -0.80   14.92
   5   3 -11    3.38   11.34
  -5   3  11   10.64   11.39
  -5   3  11    1.74   10.73
   5  -3 -11    2.50   11.40
  -4   3  11    8.70   10.46
   4  -3 -11   -0.51   10.14
   4   3 -11    7.90   10.84
  -4  -3  11   10.13   14.77
  -4   3  11   15.13   10.35
  -3  -3  11    1.90   13.30
   3   3 -11   -4.92    8.63
  -3   3  11    8.52    9.40
  -3   3  11   16.92    9.61
  -2  -3  11  432.67   43.56
   2   3 -11  393.78   37.91
  -2   3  11  454.31   32.19
  -2   3  11  386.20   32.53
  -1   3  11   17.19    9.12
  -1  -3  11   -8.10   13.44
  -1   3  11   17.46    9.35
   1   3 -11   -2.19    9.39
   0  -3  11   88.98   22.72
  -4   4  11    5.10   10.31
  -4   4  11   48.03   14.94
   4   4 -11   35.01   15.79
  -4  -4  11   32.45   19.83
  -3   4  11   96.74   19.45
  -3   4  11  102.48   20.11
  -3  -4  11   93.89   27.28
   3   4 -11   85.19   20.61
  -2   4  11  232.38   25.90
  -2  -4  11  178.92   32.35
   2   4 -11  190.65   28.84
  -2   4  11  234.37   27.42
  -1   4  11   13.40   10.10
   1   4 -11    4.72   11.59
  -1  -4  11  -11.82   14.59
  -1   4  11   33.23   11.04
   0   4 -11   86.54   21.23
   0  -4  11   48.85   21.65
   4   5 -11   82.56   21.73
  -4   5  11  128.49   24.68
  -4  -5  11   67.45   26.06
  -4   5  11   76.23   18.13
  -3  -5  11  134.94   31.93
  -3   5  11  171.04   25.54
  -3   5  11  188.36   26.17
   3   5 -11   88.13   21.01
   2   5 -11   17.59   12.26
  -2  -5  11    8.80   20.07
  -2   5  11   34.47   10.90
  -2   5  11   22.51   11.29
  -1   5  11   -1.08    7.56
  -1   5  11   22.33    8.60
   1   5 -11   -7.47    8.68
  -1  -5  11  -27.06   14.34
   0  -5  11    5.28   19.24
   0  -5 -11   37.23   14.94
   0   5 -11   15.57   12.89
   3  -6 -11   62.27   20.90
  -3   6  11   92.45   18.71
  -3  -6  11   53.11   26.43
  -2   6  11  174.92   24.44
  -2   6  11   85.42   18.45
   2  -6 -11  134.75   27.58
  -2  -6  11   87.40   30.75
  -1  -6  11  352.08   45.05
   0  -6 -11   55.55   18.28
   0  -6  11   34.44   25.07
   0   6 -11   35.08   15.81
  -4   0  12   16.85   14.41
   4   0 -12   36.06   15.21
  -3   0  12  162.74   29.32
   3   0 -12  102.65   22.02
  -2   0  12   42.32   15.99
   2   0 -12   19.06   14.21
  -4   1  12   94.64   23.11
   4  -1 -12   75.45   19.44
  -4  -1  12   61.29   21.61
   4   1 -12   83.77   20.24
  -3   1  12   13.03   12.15
  -3  -1  12    5.50   13.83
   3  -1 -12    2.46   11.48
   3   1 -12   -0.72   10.72
   2   1 -12  180.18   28.60
  -2  -1  12  128.00   25.82
  -2   1  12  216.12   30.21
  -4   2  12   36.41   15.70
  -4  -2  12    4.95   14.84
  -3   2  12   83.24   20.26
  -3  -2  12   67.29   22.11
   3   2 -12   18.17   13.57
  -2  -2  12   35.09   19.16
  -2   2  12   81.18   18.80
   2   2 -12   23.16   13.89
  -1  -2  12   -5.02   13.74
   1   2 -12   -4.96   10.78
  -3   3  12   49.14   15.24
  -3  -3  12    4.96   16.68
   3   3 -12   -4.99    9.73
   2   3 -12  141.76   26.38
  -2   3  12  201.45   27.64
  -2  -3  12  139.61   29.89
   1   3 -12   53.94   19.76
  -1  -3  12   63.90   23.09
  -2  -4  12   93.16   28.01
   2   4 -12   93.41   22.36
  -2   4  12   56.70   15.30
   1   4 -12   -2.78   12.04
  -1  -4  12   -8.82   16.57
   0   0   0    0.00    0.00
;
_shelx_hkl_checksum              35664
loop_
_space_group_symop_operation_xyz
'x, y, z'
'-x, y+1/2, -z+1/2'
'-x, -y, -z'
'x, -y-1/2, z-1/2'
loop_
_atom_site_label
_atom_site_type_symbol
_atom_site_fract_x
_atom_site_fract_y
_atom_site_fract_z
_atom_site_U_iso_or_equiv
_atom_site_adp_type
_atom_site_occupancy
_atom_site_site_symmetry_order
_atom_site_calc_flag
_atom_site_refinement_flags_posn
_atom_site_refinement_flags_adp
CL1 Cl 0.62719(8) 0.28355(5) 0.99095(5) 0.0277(2) Uani 1 1 d . .
N1 N 0.3994(3) 0.18076(18) 0.7232(2) 0.0220(5) Uani 1 1 d . .
H11 H 0.450(3) 0.220(2) 0.796(2) 0.019(6) Uiso 1 1 d . .
H12 H 0.480(3) 0.187(2) 0.663(2) 0.033(6) Uiso 1 1 d . .
C1 C 0.3492(3) 0.0424(2) 0.7502(2) 0.0272(5) Uani 1 1 d . .
H1A H 0.412463 -0.019454 0.698361 0.033 Uiso 1 1 calc R U
H1B H 0.376928 0.020798 0.846119 0.033 Uiso 1 1 calc R U
C2 C 0.1415(3) 0.0493(2) 0.7009(2) 0.0257(5) Uani 1 1 d . .
H2 H 0.061898 -0.028649 0.703991 0.031 Uiso 1 1 calc R U
C3 C 0.0866(3) 0.1772(2) 0.7619(2) 0.0264(5) Uani 1 1 d . .
H3A H 0.135847 0.188527 0.857661 0.032 Uiso 1 1 calc R U
H3B H -0.047419 0.199466 0.740982 0.032 Uiso 1 1 calc R U
C4 C 0.2100(3) 0.2342(2) 0.6657(2) 0.0211(5) Uani 1 1 d . .
C5 C 0.1355(3) 0.1246(2) 0.5686(2) 0.0235(5) Uani 1 1 d . .
H5A H 0.008960 0.138815 0.518213 0.028 Uiso 1 1 calc R U
H5B H 0.223967 0.094090 0.510600 0.028 Uiso 1 1 calc R U
C6 C 0.2147(3) 0.3687(2) 0.6297(2) 0.0232(5) Uani 1 1 d . .
C7 C 0.2140(3) 0.4778(3) 0.5977(2) 0.0285(6) Uani 1 1 d . .
H7 H 0.212(3) 0.563(2) 0.571(2) 0.042(7) Uiso 1 1 d . .
loop_
_atom_site_aniso_label
_atom_site_aniso_U_11
_atom_site_aniso_U_22
_atom_site_aniso_U_33
_atom_site_aniso_U_23
_atom_site_aniso_U_13
_atom_site_aniso_U_12
CL1 0.0262(3) 0.0322(4) 0.0243(4) -0.0044(2) 0.0023(3) -0.0025(2)
N1 0.0208(11) 0.0268(11) 0.0175(11) -0.0040(9) -0.0004(9) -0.0021(8)
C1 0.0313(13) 0.0245(12) 0.0252(13) 0.0015(10) 0.0028(10) 0.0033(10)
C2 0.0257(13) 0.0241(12) 0.0264(13) 0.0006(10) 0.0016(10) -0.0044(10)
C3 0.0245(13) 0.0320(13) 0.0231(13) 0.0001(10) 0.0052(10) 0.0000(10)
C4 0.0188(12) 0.0233(12) 0.0201(12) -0.0004(9) -0.0010(10) -0.0001(9)
C5 0.0230(12) 0.0260(12) 0.0194(13) -0.0037(10) -0.0029(10) -0.0042(10)
C6 0.0204(12) 0.0275(14) 0.0204(13) -0.0040(10) -0.0007(10) -0.0019(10)
C7 0.0275(14) 0.0270(15) 0.0296(14) -0.0017(11) 0.0006(11) 0.0003(11)
loop_
_atom_type_symbol
_atom_type_description
_atom_type_scat_dispersion_real
_atom_type_scat_dispersion_imag
_atom_type_scat_source
C C 0.0033 0.0016 'International Tables Vol C Tables 4.2.6.8 and 6.1.1.4'
H H 0.0000 0.0000 'International Tables Vol C Tables 4.2.6.8 and 6.1.1.4'
N N 0.0061 0.0033 'International Tables Vol C Tables 4.2.6.8 and 6.1.1.4'
Cl Cl 0.1484 0.1585 'International Tables Vol C Tables 4.2.6.8 and 6.1.1.4'
loop_
_geom_angle_atom_site_label_1
_geom_angle_atom_site_label_2
_geom_angle_atom_site_label_3
_geom_angle
C4 N1 C1 100.92(16)
C2 C1 N1 98.56(16)
C1 C2 C3 102.33(17)
C1 C2 C5 101.68(17)
C3 C2 C5 86.49(16)
C1 C2 C4 81.10(14)
C3 C2 C4 48.79(11)
C5 C2 C4 48.98(11)
C2 C3 C4 82.28(15)
C6 C4 N1 113.40(17)
C6 C4 C3 124.75(18)
N1 C4 C3 101.30(17)
C6 C4 C5 124.80(18)
N1 C4 C5 100.37(17)
C3 C4 C5 86.64(16)
C6 C4 C2 167.18(18)
N1 C4 C2 79.42(13)
C3 C4 C2 48.93(11)
C5 C4 C2 49.03(12)
C2 C5 C4 81.99(15)
C7 C6 C4 178.1(2)
loop_
_geom_bond_atom_site_label_1
_geom_bond_atom_site_label_2
_geom_bond_distance
N1 C4 1.512(3)
N1 C1 1.523(3)
C1 C2 1.514(3)
C2 C3 1.548(3)
C2 C5 1.551(3)
C2 C4 2.034(3)
C3 C4 1.545(3)
C4 C6 1.451(3)
C4 C5 1.550(3)
C6 C7 1.182(3)
