#------------------------------------------------------------------------------
#$Date: 2019-11-11 19:40:07 +0200 (Mon, 11 Nov 2019) $
#$Revision: 227112 $
#$URL: file:///home/coder/svn-repositories/cod/cif/4/03/56/4035664.cif $
#------------------------------------------------------------------------------
#
# This file is available in the Crystallography Open Database (COD),
# http://www.crystallography.net/
#
# All data on this site have been placed in the public domain by the
# contributors.
#
data_4035664
loop_
_publ_author_name
'Levterov, Vadym V.'
'Michurin, Oleg'
'Borysko, Petro O.'
'Zozulya, Sergey'
'Sadkova, Iryna V.'
'Tolmachev, Andrey A.'
'Mykhailiuk, Pavel K.'
_publ_section_title
;
 Photochemical In-Flow Synthesis of 2,4-Methanopyrrolidines: Pyrrolidine
 Analogues with Improved Water Solubility and Reduced Lipophilicity.
;
_journal_issue                   23
_journal_name_full               'The Journal of organic chemistry'
_journal_page_first              14350
_journal_page_last               14361
_journal_paper_doi               10.1021/acs.joc.8b02071
_journal_volume                  83
_journal_year                    2018
_chemical_formula_moiety         'C6 H9 F3 N, Cl'
_chemical_formula_sum            'C6 H9 Cl F3 N'
_chemical_formula_weight         187.59
_space_group_crystal_system      orthorhombic
_space_group_IT_number           33
_space_group_name_Hall           'P 2c -2n'
_space_group_name_H-M_alt        'P n a 21'
_atom_sites_solution_hydrogens   mixed
_audit_creation_method           SHELXL-2016/4
_cell_angle_alpha                90
_cell_angle_beta                 90
_cell_angle_gamma                90
_cell_formula_units_Z            4
_cell_length_a                   14.266(2)
_cell_length_b                   7.0245(11)
_cell_length_c                   7.9744(13)
_cell_measurement_reflns_used    708
_cell_measurement_temperature    173(2)
_cell_measurement_theta_max      24.06
_cell_measurement_theta_min      2.86
_cell_volume                     799.1(2)
_computing_cell_refinement       'Bruker SMART'
_computing_data_collection       'Bruker SMART'
_computing_data_reduction        'Bruker SAINT'
_computing_molecular_graphics    'Bruker SHELXTL'
_computing_publication_material  'Bruker SHELXTL'
_computing_structure_refinement  'SHELXL-2016/4 (Sheldrick, 2016)'
_computing_structure_solution    'Bruker SHELXTL'
_diffrn_ambient_temperature      173(2)
_diffrn_measured_fraction_theta_full 1.000
_diffrn_measured_fraction_theta_max 0.999
_diffrn_measurement_device_type  'CCD area detector'
_diffrn_measurement_method       'omega scans'
_diffrn_radiation_monochromator  graphite
_diffrn_radiation_source         'sealed tube'
_diffrn_radiation_type           MoK\a
_diffrn_radiation_wavelength     0.71073
_diffrn_reflns_av_R_equivalents  0.0330
_diffrn_reflns_av_unetI/netI     0.0317
_diffrn_reflns_Laue_measured_fraction_full 1.000
_diffrn_reflns_Laue_measured_fraction_max 0.999
_diffrn_reflns_limit_h_max       17
_diffrn_reflns_limit_h_min       -17
_diffrn_reflns_limit_k_max       8
_diffrn_reflns_limit_k_min       -8
_diffrn_reflns_limit_l_max       9
_diffrn_reflns_limit_l_min       -9
_diffrn_reflns_number            5596
_diffrn_reflns_point_group_measured_fraction_full 0.932
_diffrn_reflns_point_group_measured_fraction_max 0.910
_diffrn_reflns_theta_full        25.242
_diffrn_reflns_theta_max         26.342
_diffrn_reflns_theta_min         2.856
_exptl_absorpt_coefficient_mu    0.464
_exptl_absorpt_correction_T_max  0.93
_exptl_absorpt_correction_T_min  0.77
_exptl_absorpt_correction_type   numerical
_exptl_absorpt_process_details   SADABS
_exptl_crystal_colour            colourless
_exptl_crystal_density_diffrn    1.559
_exptl_crystal_description       prizm
_exptl_crystal_F_000             384
_exptl_crystal_size_max          0.340
_exptl_crystal_size_mid          0.200
_exptl_crystal_size_min          0.160
_refine_diff_density_max         0.212
_refine_diff_density_min         -0.143
_refine_diff_density_rms         0.041
_refine_ls_abs_structure_details
;
 Flack x determined using 513 quotients [(I+)-(I-)]/[(I+)+(I-)]
 (Parsons, Flack and Wagner, Acta Cryst. B69 (2013) 249-259).
;
_refine_ls_abs_structure_Flack   0.22(3)
_refine_ls_extinction_method     none
_refine_ls_goodness_of_fit_ref   1.065
_refine_ls_hydrogen_treatment    mixed
_refine_ls_matrix_type           full
_refine_ls_number_parameters     108
_refine_ls_number_reflns         1476
_refine_ls_number_restraints     1
_refine_ls_restrained_S_all      1.065
_refine_ls_R_factor_all          0.0328
_refine_ls_R_factor_gt           0.0280
_refine_ls_shift/su_max          0.009
_refine_ls_shift/su_mean         0.001
_refine_ls_structure_factor_coef Fsqd
_refine_ls_weighting_details
'w=1/[\s^2^(Fo^2^)+(0.0327P)^2^+0.0728P] where P=(Fo^2^+2Fc^2^)/3'
_refine_ls_weighting_scheme      calc
_refine_ls_wR_factor_gt          0.0631
_refine_ls_wR_factor_ref         0.0648
_reflns_Friedel_coverage         0.697
_reflns_Friedel_fraction_full    0.853
_reflns_Friedel_fraction_max     0.807
_reflns_number_gt                1344
_reflns_number_total             1476
_reflns_threshold_expression     'I > 2\s(I)'
_cod_data_source_file            jo8b02071_si_003.cif
_cod_data_source_block           xray81
_cod_database_code               4035664
_shelx_shelxl_version_number     2016/4
_shelx_space_group_comment
;
The symmetry employed for this shelxl refinement is uniquely defined
by the following loop, which should always be used as a source of
symmetry information in preference to the above space-group names.
They are only intended as comments.
;
_shelx_estimated_absorpt_t_min   0.858
_shelx_estimated_absorpt_t_max   0.929
_shelx_res_file
;
TITL xray81 in Pna2(1)
 xray81.res created by SHELXL-2016/4 at 19:13:22 on 25-Jul-2018
CELL 0.71073  14.2664   7.0245   7.9744  90.000  90.000  90.000
ZERR    4.00   0.0021   0.0011   0.0013   0.000   0.000   0.000
LATT -1
SYMM -X, -Y, 0.5+Z
SYMM 0.5+X, 0.5-Y, Z
SYMM 0.5-X, 0.5+Y, 0.5+Z
SFAC C  H  F  Cl N
UNIT 24  36  12  4  4
L.S. 4
ACTA
BOND
FMAP 2
PLAN 20
SIZE 0.160 0.200 0.340
FREE C4   C2
TEMP -100
WGHT    0.032700    0.072800
FVAR       1.00253
MOLE 1
CL1   4    0.204238    0.933572    0.156172    11.00000    0.03708    0.02914 =
         0.02718    0.00729    0.00100   -0.00829
F1    3    0.069156    0.455014    0.494372    11.00000    0.04593    0.02278 =
         0.06415   -0.00510   -0.01187   -0.00230
F3    3   -0.053408    0.626875    0.524215    11.00000    0.02564    0.05099 =
         0.06069   -0.00480    0.00278   -0.01222
F2    3    0.032669    0.662320    0.308602    11.00000    0.06070    0.05316 =
         0.02678   -0.00222   -0.00905   -0.02068
N1    5    0.191790    0.780060    0.518422    11.00000    0.02403    0.01854 =
         0.01985    0.00266    0.00149    0.00230
H11   2    0.200962    0.807677    0.415232    11.00000    0.02981
H12   2    0.217292    0.668086    0.545559    11.00000    0.02484
C1    1    0.226289    0.938771    0.633676    11.00000    0.02771    0.02281 =
         0.03151   -0.00066   -0.00665   -0.00255
AFIX  23
H1A   2    0.273780    0.892861    0.714659    11.00000   -1.20000
H1B   2    0.251695    1.048131    0.569907    11.00000   -1.20000
AFIX   0
C2    1    0.134054    0.986285    0.718264    11.00000    0.03486    0.02546 =
         0.03061   -0.00746   -0.00258    0.00289
AFIX  13
H2    2    0.131204    1.088950    0.804987    11.00000   -1.20000
AFIX   0
C3    1    0.095518    0.784624    0.758189    11.00000    0.03209    0.03543 =
         0.02192    0.00013    0.00530   -0.00092
AFIX  23
H3A   2    0.141281    0.696334    0.809773    11.00000   -1.20000
H3B   2    0.034313    0.782405    0.816664    11.00000   -1.20000
AFIX   0
C4    1    0.089922    0.775685    0.566837    11.00000    0.01876    0.02266 =
         0.02629    0.00187    0.00218    0.00079
C5    1    0.066001    0.989410    0.567758    11.00000    0.02743    0.02313 =
         0.03830   -0.00392    0.00012    0.00411
AFIX  23
H5A   2    0.000127    1.020037    0.595966    11.00000   -1.20000
H5B   2    0.088399    1.061494    0.468889    11.00000   -1.20000
AFIX   0
C6    1    0.034877    0.629942    0.472968    11.00000    0.02887    0.02750 =
         0.02945    0.00156    0.00113   -0.00102
HKLF 4




REM  xray81 in Pna2(1)
REM R1 =  0.0280 for    1344 Fo > 4sig(Fo)  and  0.0328 for all    1476 data
REM    108 parameters refined using      1 restraints

END

WGHT      0.0319      0.0828

REM Highest difference peak  0.212,  deepest hole -0.143,  1-sigma level  0.041
Q1    1   0.0670  0.8594  0.5413  11.00000  0.05    0.21
Q2    1   0.0859  0.7428  0.6568  11.00000  0.05    0.19
Q3    1   0.0822  0.5913  0.3097  11.00000  0.05    0.18
Q4    1   0.1048  0.4721  0.3884  11.00000  0.05    0.18
Q5    1   0.1995  1.0663  0.1603  11.00000  0.05    0.17
Q6    1   0.2400  1.0179  0.0488  11.00000  0.05    0.17
Q7    1   0.2035  1.0127  0.2703  11.00000  0.05    0.15
Q8    1   0.0597  0.7277  0.5289  11.00000  0.05    0.15
Q9    1   0.2583  1.0374  0.1910  11.00000  0.05    0.15
Q10   1   0.2634  0.8937  0.1682  11.00000  0.05    0.14
Q11   1   0.1237  0.7778  0.5393  11.00000  0.05    0.14
Q12   1   0.2776  0.9255  0.1074  11.00000  0.05    0.14
Q13   1   0.0068  0.9718  0.6126  11.00000  0.05    0.14
Q14   1   0.2090  1.0219  0.0573  11.00000  0.05    0.13
Q15   1   0.1116  0.9011  0.7615  11.00000  0.05    0.13
Q16   1   0.2035  0.8452  0.0373  11.00000  0.05    0.13
Q17   1   0.2109  0.8439  0.2886  11.00000  0.05    0.13
Q18   1   0.2404  0.9012  0.2973  11.00000  0.05    0.13
Q19   1   0.0630  0.7771  0.7868  11.00000  0.05    0.12
Q20   1   0.1390  1.0020  0.1526  11.00000  0.05    0.12
;
_shelx_res_checksum              56010
_shelx_hkl_file
;
   0   1   0   -1.82    0.80
   0  -1   0   -2.26    0.74
   0   1   0   -0.85    0.85
   0  -1   0    1.62    1.09
   0   1   0   -1.41    0.94
   0  -1   0   -2.60    0.86
   0   2   0 1961.99   62.42
   0  -2   0 1917.76   62.55
   0   2   0 1940.34   60.70
   0  -2   0 1881.07   58.28
   0   2   0 1926.89   58.39
   0  -2   0 2003.60   60.96
   0  -3   0   -0.92    1.76
   0   3   0   -1.91    1.97
   0   3   0   -0.04    2.38
   0  -3   0   -1.25    2.29
   0   3   0    1.38    2.07
   0  -3   0    3.03    2.49
   0   4   0  126.86    8.72
   0  -4   0  132.80    9.22
   0  -4   0  129.34    9.85
   0   4   0  151.13   10.07
   0   5   0   -0.27    3.02
   0  -5   0   -1.98    2.87
   0   5   0   -1.72    3.27
   0  -5   0    4.25    4.49
   0  -6   0  147.38   11.61
   0  -6   0  109.47   12.25
   0   6   0  143.83   10.76
   0   7   0    0.76    3.69
   0  -7   0    1.51    4.51
   0  -7   0    2.69    5.10
   0  -8   0   82.38   11.81
   0   8   0  103.91   11.38
   0   0  -1  -11.55    0.75
   0   0   1   -9.84    0.90
   0   1   1 5466.73  165.58
   0  -1  -1 5318.72  165.55
   0  -1   1 5195.01  154.32
   0   1  -1 5083.25  163.20
   0   1  -1 5894.48  168.72
   0   1  -1 5289.12  154.18
   0  -1  -1 5329.12  162.07
   0   1   1 5319.96  162.25
   0  -2   1    0.64    0.67
   0  -2  -1    0.48    2.57
   0  -2   1    1.86    1.56
   0   2  -1    1.55    1.60
   0   2   1    0.49    2.17
   0   2   1   -2.04    2.15
   0  -2  -1    4.77    2.28
   0   2  -1   -2.39    1.40
   0  -2   1   -1.66    1.61
   0  -2  -1    1.88    2.18
   0   2  -1   -0.86    1.14
   0   3  -1 2483.25   78.89
   0   3  -1 2431.13   74.14
   0  -3   1 2652.46   77.17
   0  -3   1 2433.04   73.97
   0   3   1 2502.84   80.84
   0  -3  -1 2273.05   80.60
   0  -3   1 2431.01   79.18
   0   3   1 2437.15   78.52
   0  -3  -1 2456.15   75.59
   0   3  -1 2410.33   76.35
   0   4  -1   -0.40    2.01
   0  -4  -1   -1.85    2.73
   0   4  -1   -1.29    2.43
   0  -4   1    0.05    3.10
   0  -4   1   -1.19    1.94
   0   4  -1   -1.43    2.51
   0  -4  -1    1.72    3.61
   0   4   1    2.21    3.44
   0   4   1    0.35    2.82
   0   5   1  757.80   32.49
   0  -5   1  720.95   31.13
   0   5  -1  785.43   30.88
   0  -5   1  769.23   29.25
   0   5   1  759.04   30.65
   0  -5  -1  759.64   30.66
   0   5  -1  735.03   28.48
   0  -5  -1  780.66   33.43
   0  -6  -1   -4.80    4.64
   0   6  -1    6.71    4.30
   0   6   1    6.84    4.26
   0  -6   1    3.91    3.69
   0  -6  -1    2.90    4.40
   0  -6   1    3.92    4.61
   0   6  -1    0.87    2.92
   0  -7  -1  171.58   15.48
   0  -7   1  146.15   12.16
   0   7   1  134.44   11.86
   0  -7   1  154.71   14.10
   0  -7  -1  134.67   13.60
   0   7  -1  129.34   10.60
   0   8   1    2.05    4.12
   0  -8  -1   -4.04    4.76
   0  -8   1    4.02    6.56
   0  -8   1    1.14    4.68
   0   0  -2 8967.90  263.97
   0   0   2 8640.17  264.38
   0  -1   2    3.72    1.49
   0   1  -2   -1.07    1.17
   0  -1  -2   -3.58    2.04
   0   1   2   -1.23    2.33
   0   1   2   -2.36    2.31
   0  -1   2   -2.63    1.14
   0   1  -2   -2.40    1.15
   0  -1  -2   -2.62    2.25
   0  -2  -2 2824.43   91.57
   0  -2   2 2670.78   88.43
   0  -2   2 2828.48   83.30
   0   2  -2 2926.86   88.58
   0  -2   2 3028.29   86.69
   0   2  -2 2867.80   83.38
   0   2   2 2871.05   89.80
   0   2   2 2610.38   91.08
   0   2  -2 2844.41   86.46
   0  -3  -2    2.73    3.33
   0   3  -2   -0.33    1.30
   0   3   2   -2.40    2.91
   0  -3   2    2.02    1.91
   0   3  -2   -1.61    1.68
   0  -3  -2   -0.03    2.70
   0   3   2   -0.49    2.80
   0  -3   2    0.91    1.69
   0   3  -2    0.82    1.76
   0  -3   2    3.19    1.84
   0  -4  -2  264.23   15.94
   0   4  -2  279.10   12.99
   0   4  -2  265.68   12.94
   0  -4   2  256.11   13.19
   0   4   2  232.60   14.42
   0   4   2  251.37   15.41
   0   4  -2  253.38   11.56
   0  -4  -2  264.73   14.56
   0  -4   2  230.69   11.90
   0  -5   2    1.61    2.70
   0   5  -2    4.82    3.23
   0   5   2    4.34    4.47
   0   5   2   -1.20    3.37
   0  -5  -2    3.12    3.79
   0  -5   2    2.24    3.66
   0   5  -2   -0.77    1.98
   0  -5  -2    4.15    4.96
   0  -6  -2  422.16   24.64
   0   6   2  406.79   21.80
   0   6  -2  416.50   20.45
   0  -6   2  410.46   21.28
   0   6  -2  410.89   18.52
   0  -6  -2  423.39   22.65
   0  -6   2  412.83   19.76
   0   7  -2   -0.90    2.83
   0  -7   2   -5.01    4.77
   0   7   2    3.42    4.68
   0  -7   2   -0.02    3.62
   0  -7  -2   -4.03    4.04
   0  -8   2  199.64   14.67
   0  -8  -2  205.20   17.14
   0   8   2  129.99   14.22
   0   0   3   -3.39    1.92
   0   0  -3    0.90    1.95
   0   1   3 1486.64   48.14
   0  -1   3 1381.81   44.90
   0   1  -3 1372.85   42.99
   0   1   3 1381.40   47.33
   0   1  -3 1423.76   44.65
   0  -2   3   -0.03    1.27
   0  -2   3    0.62    1.25
   0  -2   3   -3.27    1.09
   0  -2  -3   -2.53    2.68
   0   2  -3   -0.71    1.42
   0  -2   3   -2.51    1.06
   0   2   3   -2.08    2.58
   0   2   3   -0.06    2.74
   0  -3   3   50.15    4.73
   0  -3   3   44.83    4.09
   0  -3  -3   51.85    7.32
   0   3  -3   59.29    5.34
   0   3   3   40.73    6.92
   0   3   3   42.89    6.76
   0  -3   3   42.56    3.73
   0  -3   3   47.77    4.44
   0   4  -3   -1.39    1.99
   0   4   3   -0.70    3.85
   0  -4   3   -0.79    1.76
   0  -4  -3    3.14    4.31
   0   4  -3    1.42    1.90
   0   4   3   -4.65    2.90
   0  -4   3   -1.24    1.83
   0   4  -3   -1.77    2.22
   0  -4   3    0.11    2.20
   0  -4  -3   -0.21    3.65
   0  -5   3   56.94    6.86
   0   5  -3   63.31    5.52
   0   5   3   42.19    8.04
   0  -5   3   58.08    6.67
   0  -5  -3   74.87   10.78
   0   5  -3   60.59    6.56
   0  -5  -3   47.04    8.59
   0   6   3   -0.24    4.24
   0  -6   3    2.14    3.43
   0   6  -3    1.71    3.10
   0   6  -3    0.04    2.56
   0  -6  -3   -4.11    5.04
   0  -6   3   -1.93    3.83
   0  -6  -3   -4.40    4.16
   0  -7  -3  150.25   15.69
   0   7   3  120.55   13.55
   0  -7   3  126.75   11.45
   0   8   3    2.65    5.22
   0   0   4 1525.94   51.29
   0   0   4 1550.67   51.44
   0  -1   4    1.99    2.26
   0   1  -4    1.89    1.83
   0   1   4   -1.20    2.76
   0   1   4    3.64    3.31
   0   1  -4    1.50    1.69
   0   2   4 2207.84   74.32
   0  -2   4 2326.96   68.87
   0  -2   4 2124.56   68.41
   0  -2   4 2117.74   69.31
   0   2  -4 2160.23   66.27
   0   2   4 2157.29   73.13
   0  -3   4    1.02    1.85
   0   3   4    0.52    3.87
   0   3  -4   -1.15    1.93
   0   3   4    1.79    4.24
   0  -3   4   -0.03    1.67
   0  -3   4   -2.34    1.57
   0  -3   4    0.48    1.76
   0  -4   4   45.36    5.43
   0  -4   4   42.87    4.46
   0  -4   4   42.14    4.20
   0   4   4   33.86    7.26
   0  -4   4   38.13    4.86
   0   4  -4   40.32    5.58
   0  -4  -4   37.02    8.26
   0  -5  -4   -6.50    4.32
   0  -5   4    0.30    3.01
   0  -5   4    1.66    2.16
   0   5   4   -2.77    4.21
   0  -5  -4    4.34    4.95
   0  -5   4   -0.21    2.55
   0   6   4  266.19   19.12
   0  -6  -4  281.90   19.60
   0  -6   4  294.77   15.56
   0  -7  -4   -1.18    5.71
   0   7   4    4.53    4.98
   0   8   4  221.17   18.63
   0   0   5    2.20    3.05
   0   0   5    1.10    3.02
   0  -1   5 1568.44   54.19
   0   1   5 1656.18   56.99
   0   1  -5 1620.21   51.46
   0   1   5 1688.59   57.37
   0   2   5    1.09    4.05
   0  -2   5    1.28    2.54
   0   2   5    3.54    4.32
   0   2  -5    1.11    2.23
   0  -2   5    0.51    1.80
   0  -3   5  159.84    8.33
   0  -3   5  160.53    8.66
   0   3  -5  160.25    9.40
   0   3   5  161.24   13.20
   0   3   5  102.40   11.56
   0  -4   5   -0.43    2.47
   0   4   5    3.48    4.96
   0  -4   5    0.01    2.33
   0   4  -5   -4.19    2.61
   0  -4   5   -0.18    2.14
   0  -5   5  889.48   32.23
   0  -5  -5  866.39   38.16
   0   5   5  841.03   38.86
   0  -6   5    0.89    3.43
   0  -6  -5   -1.20    5.73
   0   6   5   -3.68    4.55
   0   7   5   50.60   10.70
   0   0   6 1432.31   50.49
   0   0   6 1410.91   50.77
   0  -1   6    0.84    3.10
   0   1   6   -4.57    3.45
   0  -1   6   -3.06    3.20
   0   1   6   -0.66    4.06
   0   2   6  262.29   17.30
   0  -2   6  296.54   14.52
   0   2   6  283.06   17.50
   0  -3   6    3.76    2.23
   0   3   6    1.18    5.00
   0  -3   6   -4.01    2.70
   0   4   6  351.41   21.97
   0  -5  -6    5.69    6.14
   0   5   6    0.28    4.94
   0   6   6  191.73   17.19
   0  -6  -6  173.60   18.11
   0   0   7    1.11    4.38
   0   0   7    1.53    4.31
   0  -1   7  141.08   10.38
   0   1   7  136.83   12.84
   0   1   7  158.23   12.82
   0  -1   7  136.09   11.18
   0  -2   7   -0.56    3.76
   0   2   7   -3.44    4.44
   0   3   7  371.06   22.76
   0   4   7   -3.00    5.00
   0  -5  -7  111.69   14.34
   0   5   7  164.22   17.32
   0   6   7   -4.99    5.04
   0   0   8  415.07   22.43
   0   1   8   -4.25    4.51
   0  -1   8   -5.40    4.20
   0   2   8   12.26    6.82
   0   3   8   -5.63    4.52
   0   4   8    8.62    6.79
   0   5   8    3.11    6.58
   0   0   9    0.15    5.56
   0   1   9   41.89    9.76
   0   2   9    1.25    5.85
   0   3   9  185.73   18.52
  -1   0   0   -0.29    0.38
   1   0   0   -1.42    0.18
  -1   0   0   -0.80    0.28
   1   0   0   -1.39    0.18
   1   1   0  179.40    7.25
  -1  -1   0  184.12    7.34
   1  -1   0  180.24    6.82
   1  -1   0  177.66    7.20
   1   1   0  168.31    6.94
  -1   1   0  182.15    6.88
   1   1   0  176.36    7.51
  -1  -1   0  175.24    7.53
  -1  -1   0  173.64    6.94
  -1   1   0  182.01    7.26
   1  -2   0 5104.29  148.33
   1   2   0 5235.12  159.11
  -1  -2   0 5008.31  148.60
  -1   2   0 5062.95  155.13
  -1  -2   0 4986.65  159.05
  -1   2   0 5263.72  158.84
   1   2   0 4938.42  148.51
   1   2   0 5065.32  155.56
   1  -2   0 5407.16  155.40
   1  -2   0 4874.27  158.68
  -1  -2   0 5425.87  155.89
   1  -3   0 1956.27   58.72
   1   3   0 1792.48   56.68
   1  -3   0 1794.09   56.06
   1   3   0 1776.16   58.45
  -1   3   0 1795.06   57.96
   1   3   0 1836.27   60.48
  -1   3   0 1836.24   60.10
   1  -3   0 1720.71   60.08
  -1  -3   0 1774.17   56.49
  -1  -3   0 1769.03   60.69
   1   4   0 1335.05   44.39
   1   4   0 1326.11   46.91
  -1   4   0 1307.62   46.29
   1  -4   0 1315.09   43.54
  -1  -4   0 1306.14   47.42
   1  -4   0 1302.32   46.90
  -1   4   0 1234.00   43.90
   1   4   0 1248.91   44.63
  -1  -4   0 1329.89   44.09
   1   5   0  502.62   23.45
   1  -5   0  450.93   22.88
  -1   5   0  495.89   23.00
   1   5   0  481.63   21.59
  -1  -5   0  502.17   22.12
  -1  -5   0  499.62   24.26
  -1   5   0  487.50   21.09
   1  -5   0  487.92   21.50
   1  -6   0 1000.12   37.72
   1  -6   0  983.12   40.76
  -1  -6   0  965.64   41.28
   1   6   0  943.86   37.63
  -1  -6   0  954.71   38.05
  -1   6   0  991.56   37.31
  -1  -7   0  174.18   15.73
   1   7   0  210.68   14.10
  -1  -7   0  189.03   14.78
   1  -7   0  206.11   14.84
  -1   7   0  199.38   13.54
   1  -7   0  198.15   16.26
  -1   8   0   48.89    8.40
  -1  -8   0   52.45   10.29
   1   8   0   53.93    9.09
   1  -8   0   60.26   10.62
   1   0   1   -7.79    0.85
   1   0  -1   -5.32    1.03
  -1   0  -1   -7.66    0.81
  -1   0   1   -6.81    0.94
   1   0   1   -8.15    0.76
  -1   0  -1   -6.66    0.94
  -1   1   1   48.14    4.19
  -1  -1  -1   64.10    4.60
  -1   1  -1   55.62    2.74
   1   1   1   48.22    4.10
  -1   1  -1   59.80    2.75
  -1  -1   1   58.68    3.63
   1  -1  -1   62.05    4.36
   1   1  -1   62.97    3.70
  -1   1   1   49.16    4.14
   1   1  -1   61.22    3.70
  -1  -1  -1   56.35    3.93
  -1  -1   1   51.52    3.45
   1   1  -1   58.70    3.76
   1  -1   1   51.20    2.62
   1  -1   1   53.57    2.78
  -1  -1  -1   56.90    4.36
   1   1   1   49.22    3.97
  -1  -1   1   45.38    3.46
   1  -2   1 1614.17   48.15
  -1  -2   1 1521.83   50.50
   1  -2   1 1519.13   46.36
  -1   2   1 1595.72   51.75
  -1  -2  -1 1523.63   51.74
  -1   2  -1 1503.31   47.88
  -1  -2  -1 1534.46   48.32
   1   2  -1 1502.76   50.25
   1   2   1 1418.94   51.22
  -1  -2   1 1523.08   47.27
  -1  -2  -1 1643.88   50.86
  -1  -2   1 1640.54   49.32
   1   2  -1 1499.61   47.32
   1  -2  -1 1588.33   50.43
   1  -2  -1 1506.89   51.49
  -1   2  -1 1583.99   49.63
  -1   2  -1 1594.60   46.61
   1   2  -1 1546.32   48.95
  -1   2   1 1533.60   50.21
  -1   3   1  230.59   11.97
  -1   3  -1  251.18   11.31
   1  -3   1  249.24   11.62
   1  -3   1  227.31   10.34
   1   3  -1  234.92   10.86
  -1   3  -1  255.52   11.07
  -1  -3  -1  249.10   13.34
   1  -3  -1  251.40   12.21
   1   3   1  223.38   12.02
  -1  -3   1  233.26   11.94
  -1   3  -1  231.97   10.00
  -1  -3  -1  235.92   12.12
   1   3  -1  249.97   11.60
   1   3   1  221.58   12.68
  -1   3   1  241.30   12.91
   1   3  -1  251.72   11.90
   1  -3  -1  210.66   12.52
  -1  -3   1  271.14   11.80
  -1  -3   1  231.84   11.09
   1  -4  -1  634.96   24.92
  -1   4  -1  626.62   22.82
   1  -4   1  634.29   23.24
   1  -4  -1  609.50   26.74
  -1   4   1  607.84   26.32
   1   4  -1  583.42   23.36
  -1  -4  -1  612.67   27.05
   1   4   1  598.30   26.42
  -1  -4  -1  622.08   25.13
  -1   4   1  593.05   24.80
  -1   4  -1  625.82   24.54
  -1  -4   1  623.37   25.66
  -1   4  -1  636.79   23.60
  -1  -4   1  621.68   23.86
   1   4  -1  608.29   25.03
   1   4  -1  626.23   24.26
   1  -4   1  653.95   25.32
   1   4   1  596.23   25.04
   1  -5  -1  570.45   24.42
  -1   5   1  567.66   25.83
   1   5  -1  512.49   22.16
  -1   5   1  536.82   23.74
  -1   5  -1  553.00   23.78
   1  -5   1  530.08   24.26
  -1   5  -1  513.77   21.44
  -1  -5   1  505.93   22.65
  -1  -5  -1  547.67   26.52
  -1  -5  -1  536.21   24.25
  -1  -5   1  561.48   25.20
   1   5   1  587.14   26.32
   1   5   1  511.36   23.82
   1  -5   1  544.47   22.46
   1  -5  -1  533.06   25.90
   1   5  -1  568.45   24.50
  -1  -6   1  640.74   29.75
   1  -6   1  642.32   26.82
  -1  -6   1  636.74   27.44
   1  -6  -1  676.15   31.17
  -1   6  -1  672.13   28.48
   1  -6  -1  649.82   28.60
   1   6  -1  646.41   28.77
   1   6   1  579.76   27.65
  -1   6   1  618.61   27.58
  -1   6  -1  619.33   25.57
   1   6  -1  631.70   26.46
  -1  -6  -1  619.94   28.50
  -1  -6  -1  602.77   30.85
   1  -6   1  597.84   28.48
  -1  -7  -1  116.82   13.03
  -1   7   1  110.35   11.39
  -1  -7  -1  134.90   15.11
  -1  -7   1  138.05   14.44
   1  -7   1  133.17   12.26
   1   7  -1  118.44   10.39
   1  -7   1  126.14   13.01
   1  -7  -1  130.57   14.40
   1  -7  -1  145.82   13.90
  -1   7  -1  128.38   10.16
  -1  -7   1  144.70   12.26
   1   7   1  146.30   12.19
   1  -8   1    0.31    4.53
  -1  -8   1   -2.11    4.50
   1  -8   1    8.37    6.87
   1  -8  -1   -0.05    5.42
   1   8   1    2.96    4.53
  -1  -8  -1   -5.35    4.75
  -1   8   1    4.18    4.48
   1   8  -1    8.87    4.61
  -1   0  -2   -3.81    1.81
   1   0  -2   -7.48    1.42
  -1   0   2   -5.95    1.74
   1   0   2   -3.24    1.98
   1   0   2   -5.28    1.67
   1  -1   2 3870.85  117.50
  -1   1  -2 3801.10  111.38
   1   1  -2 3810.13  112.11
  -1  -1   2 4055.06  117.59
  -1  -1  -2 3893.80  120.98
   1   1   2 3267.81  120.21
  -1   1   2 3819.40  120.98
  -1   1   2 3855.78  118.94
  -1  -1   2 3796.24  117.27
  -1  -1   2 3931.69  112.34
   1   1   2 3840.99  118.82
  -1   1  -2 3890.67  116.96
   1  -1  -2 4135.34  118.98
  -1  -1  -2 4112.38  119.08
  -1  -2   2 2445.72   72.96
   1  -2   2 2602.94   74.80
   1   2  -2 2536.89   77.49
  -1  -2   2 2356.18   77.37
   1   2   2 2173.51   79.14
  -1   2   2 2406.69   78.09
  -1   2  -2 2322.85   71.68
   1  -2   2 2484.95   76.50
  -1  -2  -2 2294.54   79.56
   1   2  -2 2509.85   73.09
  -1   2  -2 2498.98   76.35
   1  -2   2 2450.06   71.75
   1   2  -2 2479.57   75.66
  -1  -2   2 2608.57   75.96
   1   3   2   59.71    7.17
  -1   3  -2   56.33    3.70
  -1   3   2   49.11    6.39
  -1  -3  -2   65.93    6.98
  -1  -3   2   65.06    5.17
  -1  -3   2   55.15    5.07
  -1  -3  -2   44.65    6.63
   1  -3  -2   54.19    6.99
   1   3   2   63.87    7.05
   1   3  -2   52.16    5.10
   1  -3   2   52.76    4.27
   1   3  -2   53.64    4.52
   1  -3   2   57.27    4.78
  -1  -3   2   60.75    5.45
   1  -3   2   64.16    4.36
   1   3  -2   56.26    5.40
  -1   3   2   49.30    6.68
  -1   3  -2   57.06    4.91
  -1   3  -2   54.90    4.42
  -1  -4   2 1214.51   43.73
  -1   4  -2 1218.95   40.20
  -1   4  -2 1293.02   42.70
  -1  -4  -2 1254.31   44.02
  -1   4  -2 1267.20   40.85
   1   4   2 1310.04   47.00
  -1   4   2 1186.06   44.57
   1   4  -2 1207.09   43.34
   1   4  -2 1200.04   41.41
  -1  -4   2 1230.64   41.23
   1  -4   2 1286.40   40.88
  -1  -4  -2 1223.04   47.16
   1  -4  -2 1197.46   43.41
   1  -4   2 1221.11   40.15
  -1   4   2 1249.43   46.62
   1   4  -2 1260.68   41.97
   1   4   2 1199.21   44.87
   1  -4  -2 1268.47   47.01
   1  -4   2 1128.81   42.48
  -1   5   2  218.75   15.35
  -1  -5   2  220.47   12.70
  -1  -5  -2  205.56   15.63
  -1  -5   2  241.82   14.17
   1  -5  -2  200.52   14.06
   1  -5   2  222.09   13.09
  -1   5  -2  227.83   13.02
  -1   5  -2  214.70   12.32
   1  -5   2  207.29   11.74
  -1  -5  -2  210.12   14.37
  -1   5   2  208.25   13.98
   1  -5  -2  207.16   15.33
   1   5  -2  197.64   11.40
   1   5   2  221.15   14.43
  -1   5  -2  221.47   10.88
   1   5  -2  226.43   13.11
  -1   6  -2  255.90   14.69
   1  -6   2  210.91   13.15
   1  -6   2  225.13   14.79
   1   6   2  231.78   15.82
  -1  -6   2  209.30   14.93
  -1  -6  -2  225.90   17.61
  -1   6   2  247.27   16.05
   1  -6  -2  262.81   18.51
   1   6  -2  243.37   14.89
   1   6  -2  210.33   12.87
  -1  -6  -2  238.55   16.46
  -1  -6   2  229.92   14.20
   1  -6  -2  251.21   16.61
  -1   6  -2  233.85   12.26
   1  -7   2    1.15    3.66
   1   7  -2    3.51    3.31
   1  -7   2   -2.29    4.77
  -1   7   2    2.45    4.08
   1   7   2    2.11    4.44
  -1  -7   2   -9.25    4.14
  -1  -7   2   -2.13    3.43
   1  -7  -2    1.54    5.21
  -1  -7  -2    2.22    5.35
   1  -8  -2   27.02    8.66
  -1  -8  -2   18.16    7.79
   1   8   2   30.25    7.77
  -1   8   2   15.22    6.28
  -1  -8   2   25.35    7.01
   1  -8   2   29.80    7.32
  -1   0   3   -1.03    1.87
   1   0   3    2.94    2.37
   1   0  -3    0.52    1.65
   1   0   3    4.68    2.23
  -1   0  -3    2.04    2.06
   1   1  -3  628.18   21.23
  -1  -1   3  583.51   21.21
   1   1  -3  605.96   20.66
   1   1   3  583.10   22.96
  -1   1  -3  606.69   20.14
  -1  -1  -3  566.19   22.60
   1  -1   3  603.16   20.58
  -1   1   3  563.11   22.96
  -1   1  -3  580.37   19.44
  -1   1   3  620.36   23.41
   1   1   3  630.90   23.26
   1  -2   3  234.55    8.73
  -1  -2   3  228.92    9.92
   1  -2   3  229.20    8.61
  -1   2   3  211.44   12.59
   1   2   3  207.64   12.30
  -1  -2  -3  223.16   12.63
  -1  -2   3  177.15    9.52
  -1   2  -3  237.27    9.40
   1   2   3  232.98   12.78
  -1   2   3  228.16   12.82
   1  -2   3  249.85    8.84
  -1  -2   3  223.34   10.25
   1  -2   3  228.05    9.20
   1   2  -3  222.76   10.27
   1   3  -3   89.41    6.72
   1  -3   3   98.53    5.71
   1  -3   3   98.85    5.14
   1  -3   3   88.56    4.63
  -1  -3  -3  101.76    9.18
  -1   3   3  104.26    9.87
  -1  -3   3   87.58    6.41
  -1   3  -3   94.65    6.18
   1   3  -3   89.60    6.03
  -1   3   3   97.35    9.32
  -1  -3  -3  112.88    9.66
   1  -3   3  101.22    5.93
   1   3   3  110.36    9.54
   1   3   3   88.58    8.98
  -1  -4  -3   47.46    8.40
   1  -4   3   39.16    4.86
   1   4   3   28.18    6.38
  -1  -4   3   38.64    5.42
   1   4  -3   25.77    4.92
  -1   4   3   24.54    6.24
  -1   4   3   41.99    7.91
   1   4  -3   35.06    4.99
   1  -4  -3   41.58    7.86
  -1   4  -3   37.61    3.49
   1   4   3   34.13    7.08
  -1   4  -3   40.39    4.40
  -1   4  -3   32.98    4.85
   1   4  -3   39.05    4.59
  -1  -4  -3   24.81    6.25
  -1  -4   3   33.87    5.05
   1  -4   3   38.19    4.57
   1  -4   3   43.98    4.08
  -1   5  -3   43.14    4.38
   1  -5  -3   41.13    8.13
  -1  -5   3   40.17    6.23
  -1   5   3   42.15    7.98
   1   5  -3   45.77    5.43
   1  -5  -3   45.16    9.12
  -1   5  -3   47.98    5.72
  -1   5  -3   63.20    7.11
   1  -5   3   42.69    5.59
   1  -5   3   37.92    5.83
  -1  -5   3   32.79    6.08
   1   5  -3   44.27    6.08
  -1  -5  -3   47.22    8.42
  -1  -5  -3   46.18    9.51
   1   5   3   37.12    7.70
  -1  -6  -3  398.77   22.71
   1   6   3  374.75   21.86
  -1   6   3  372.70   21.77
   1   6  -3  388.63   19.36
   1  -6  -3  414.09   24.46
  -1  -6  -3  368.36   23.92
   1   6  -3  379.89   17.51
  -1   6  -3  394.84   18.56
  -1  -6   3  387.90   20.37
   1  -6   3  382.65   18.13
  -1  -6   3  336.80   18.33
   1  -6  -3  393.10   22.46
  -1  -7  -3  240.44   18.57
   1  -7  -3  242.36   18.41
   1  -7   3  241.75   14.72
  -1  -7   3  238.61   15.39
  -1   7   3  226.61   17.11
   1   7   3  245.96   18.01
   1   8   3    5.77    5.42
  -1  -8   3   -0.29    4.58
  -1   8   3   10.51    6.23
   1   0   4    0.32    2.58
   1   0   4    2.65    2.60
  -1   0   4    1.13    2.68
   1   1   4 1037.38   37.66
  -1  -1   4 1050.66   35.87
  -1   1   4 1019.56   37.94
  -1   1  -4 1048.97   33.18
   1   1   4 1051.26   37.73
   1  -1   4 1024.85   35.05
   1  -1   4 1000.30   34.47
  -1   1   4 1068.49   38.09
   1   1  -4 1063.53   34.35
  -1   1  -4 1059.47   34.47
   1   2   4  402.32   19.64
  -1   2  -4  437.02   15.96
  -1   2   4  431.33   20.44
   1  -2   4  412.57   15.09
   1  -2   4  414.28   15.67
   1  -2   4  457.06   15.87
  -1  -2  -4  422.32   19.83
   1   2  -4  426.47   16.94
  -1   2   4  443.38   20.70
   1   2   4  435.01   20.39
  -1  -2   4  415.13   16.83
  -1  -3   4  122.63    7.72
   1  -3   4  123.98    6.46
   1   3   4  132.43   11.32
   1  -3   4  127.86    7.26
  -1  -3   4  127.99    8.19
   1  -3   4  146.42    6.57
  -1  -3   4  132.89    7.60
   1   3  -4  138.68    8.77
  -1   3  -4  137.43    7.76
  -1   3   4  121.27   11.20
  -1   3   4  130.52   11.20
   1   3   4  150.26   11.74
  -1  -3  -4   93.97   10.28
   1  -3   4  121.99    6.19
   1  -4   4 1066.10   35.32
   1  -4   4 1075.92   34.33
  -1  -4  -4 1074.16   41.14
  -1   4   4 1031.48   42.07
  -1  -4   4 1032.41   35.95
  -1  -4   4 1017.49   37.68
  -1  -4   4 1040.17   36.62
   1  -4   4 1042.60   33.93
  -1   4  -4 1068.76   35.75
  -1  -4  -4 1103.67   43.88
   1   4   4 1101.84   42.74
   1  -4   4 1043.72   36.11
  -1  -5  -4  188.90   15.84
  -1   5   4  189.50   15.10
  -1  -5  -4  177.62   14.57
  -1   5  -4  186.16   11.68
  -1  -5   4  183.45   11.55
   1  -5  -4  191.05   14.72
  -1  -5   4  177.69    9.90
   1  -5   4  180.70   10.69
   1   5  -4  167.94    9.87
   1   5   4  185.82   14.88
   1  -5   4  184.86   10.52
   1  -6   4   37.34    6.10
   1   6   4   57.78   10.32
  -1  -6  -4   51.17   10.33
  -1   6   4   38.53    9.00
   1  -6  -4   35.31    8.68
  -1  -6   4   43.64    7.16
  -1  -7  -4    0.01    5.64
   1  -7  -4    1.86    6.11
  -1   7   4   -2.19    4.81
  -1  -7   4    3.89    4.34
   1   7   4   10.80    6.06
   1   8   4   17.99    7.74
  -1   8   4   19.72    7.82
  -1   0   5    1.43    3.21
   1   0   5    2.05    3.15
   1   0   5   -0.11    3.15
   1   1  -5 1059.75   35.61
  -1  -1   5 1048.89   37.45
  -1   1   5 1016.50   39.49
   1  -1   5 1014.17   35.88
   1   1   5 1069.82   39.45
   1  -1   5 1056.70   36.82
  -1   1  -5 1056.14   34.59
   1   1   5 1100.74   39.39
  -1   1   5 1047.12   39.70
   1   2   5  366.56   20.05
   1  -2   5  403.22   15.14
  -1  -2   5  395.36   16.82
  -1   2  -5  388.26   15.93
   1  -2   5  452.58   16.58
   1   2  -5  399.30   17.14
   1   2   5  417.32   20.60
  -1  -2   5  406.80   17.35
  -1   2   5  402.84   20.81
   1  -2   5  407.08   16.37
  -1   2   5  419.96   21.13
  -1  -3   5   37.82    4.91
   1   3  -5   31.24    5.03
   1   3   5   42.29    7.96
   1  -3   5   37.55    3.39
   1  -3   5   32.45    3.98
   1   3   5   28.43    7.05
  -1   3   5   30.10    7.49
  -1  -3   5   36.06    4.68
  -1   3   5   33.79    7.77
  -1   3  -5   32.91    4.55
   1  -3   5   31.41    3.50
   1  -4   5  166.81    8.31
  -1  -4   5  158.99    9.75
  -1  -4  -5  139.58   13.41
  -1  -4   5  147.38    9.96
   1   4   5  168.45   13.98
   1  -4   5  158.04    7.55
  -1   4  -5  167.31   10.11
  -1  -4   5  150.31    9.01
  -1  -4  -5  119.87   13.19
  -1   4   5  152.80   13.60
  -1  -5   5   12.72    4.28
  -1  -5  -5    7.25    6.43
   1   5   5   24.68    7.61
   1  -5   5    9.39    3.57
  -1   5   5    8.65    6.06
  -1  -5  -5    3.35    5.17
  -1   6   5  114.73   13.98
   1   6   5  115.47   14.14
   1  -6  -5  141.01   15.65
  -1  -6   5  133.44   10.71
  -1  -6  -5  120.33   14.87
  -1   7   5  161.80   17.14
   1   7   5  147.66   16.20
  -1   0   6    2.31    3.65
  -1   0   6   -4.67    3.41
   1   0   6   -4.47    3.23
   1   0   6   -2.00    3.21
  -1  -1   6  313.09   16.12
  -1   1   6  301.72   17.26
   1   1   6  276.95   16.97
  -1   1   6  304.31   17.75
  -1   1  -6  317.61   14.35
   1   1   6  304.01   16.86
   1  -1   6  309.38   15.64
   1  -1   6  327.16   14.59
   1  -2   6  295.28   13.85
   1  -2   6  267.94   11.64
   1   2   6  288.27   17.34
   1   2   6  264.71   16.83
  -1   2   6  246.43   16.95
   1  -2   6  263.27   11.93
  -1   2   6  281.50   17.60
  -1  -2   6  254.63   13.91
  -1   2  -6  273.47   13.08
   1  -3   6   60.19    4.34
  -1  -3   6   62.75    6.71
  -1   3   6   69.07   10.65
   1  -3   6   59.47    5.86
  -1  -3   6   57.98    5.92
   1   3   6   62.22    9.81
  -1   3  -6   52.29    5.98
   1   4   6  510.35   28.15
  -1   4   6  590.59   29.66
  -1  -4   6  554.59   22.12
  -1   5   6  128.08   14.97
  -1  -5  -6  129.95   15.00
   1   5   6  128.38   14.68
   1  -6  -6   87.67   14.26
  -1   6   6   85.73   13.96
  -1  -6  -6   58.09   11.57
   1   6   6  117.24   15.42
  -1   0   7    1.05    4.53
  -1   0   7    1.22    4.16
   1   0   7   -3.34    4.02
   1   0   7   -4.55    3.53
  -1  -1   7  376.38   18.57
   1   1   7  395.34   20.52
  -1  -1   7  372.06   19.58
   1   1   7  375.23   20.77
  -1   1   7  350.27   20.79
  -1   1   7  395.53   21.36
   1  -1   7  373.76   17.49
   1  -1   7  402.84   19.28
   1  -2   7    7.20    4.36
  -1   2   7    4.53    5.48
   1   2   7    7.29    5.50
  -1  -2   7    7.24    4.81
   1   3   7  147.16   14.80
  -1  -3   7  150.47   10.91
  -1   3   7  152.02   15.44
   1   4   7   52.23   10.80
  -1   4   7   59.24   11.43
   1   5   7   23.19    8.45
  -1  -5  -7   32.75    9.38
  -1   5   7   29.81    9.34
   1   6   7   33.84   10.17
  -1   6   7   23.44    9.23
   1   0   8    4.13    5.03
  -1   0   8   -2.61    4.86
  -1   1   8   17.14    7.07
   1   1   8    8.56    6.01
  -1  -1   8    9.35    6.08
   1  -1   8    7.98    5.32
  -1  -2   8  243.78   15.91
   1   2   8  262.04   18.42
  -1   2   8  268.47   19.24
   1   3   8   80.58   12.80
  -1   3   8   84.36   13.21
  -1   4   8  111.79   15.38
   1   4   8   96.85   13.73
   1   5   8   10.42    7.78
  -1   5   8   14.03    8.40
   1   0   9   -4.69    4.79
  -1   0   9  -10.79    4.54
   1   1   9  134.61   14.30
  -1   1   9  177.28   16.96
  -1  -1   9  155.18   14.60
   1   2   9   18.14    7.71
  -1   2   9   12.50    7.75
   1   3   9   35.30    9.93
  -1   3   9   31.87    9.88
   2   0   0  854.04   27.81
  -2   0   0  860.88   26.34
   2   0   0  888.15   26.37
  -2   0   0  889.03   27.81
  -2   1   0 4792.95  143.21
   2  -1   0 4724.54  142.77
   2   1   0 4406.71  136.48
  -2  -1   0 4698.38  146.59
   2   1   0 4937.92  146.66
  -2  -1   0 4925.09  143.51
  -2  -1   0 4687.14  136.81
   2   1   0 4735.55  143.51
   2   2   0  600.46   20.98
   2   2   0  589.52   22.28
  -2   2   0  606.27   20.68
  -2  -2   0  576.80   20.74
  -2  -2   0  524.89   21.99
   2  -2   0  613.51   20.58
   2   2   0  580.74   21.41
  -2  -2   0  614.11   21.88
  -2   2   0  602.71   21.69
   2   3   0  458.76   18.46
  -2  -3   0  437.26   18.15
  -2   3   0  443.62   18.74
  -2   3   0  465.42   17.72
   2  -3   0  461.75   18.97
  -2  -3   0  452.31   19.68
   2   3   0  458.23   19.58
   2   3   0  450.49   18.52
   2  -3   0  476.80   18.09
   2  -3   0  453.71   17.47
   2   4   0  194.22   11.87
   2  -4   0  168.38   11.02
   2   4   0  180.71   11.33
   2   4   0  169.65   10.60
  -2  -4   0  157.01   11.50
  -2   4   0  180.04   11.12
  -2   4   0  164.46    9.67
   2  -4   0  158.80    9.86
  -2  -4   0  181.97   10.97
   2  -5   0  276.59   15.97
   2   5   0  280.24   16.36
   2   5   0  277.34   15.21
   2  -5   0  274.39   14.72
  -2  -5   0  278.12   15.48
  -2   5   0  262.49   13.81
  -2   5   0  258.06   15.27
  -2  -5   0  273.23   16.93
   2  -6   0  735.00   32.08
   2  -6   0  754.34   29.87
  -2   6   0  675.95   28.56
  -2  -6   0  645.31   29.92
  -2   6   0  738.93   31.51
  -2  -6   0  748.15   33.86
   2   6   0  656.15   29.42
  -2   7   0   -1.37    3.47
   2  -7   0   -3.82    4.59
   2  -7   0    2.34    4.52
  -2  -7   0   -0.78    4.08
   2   7   0    6.05    4.14
  -2  -7   0   -3.20    4.92
   2  -8   0  327.89   20.58
  -2   8   0  329.52   18.83
   2   8   0  315.18   19.51
  -2  -8   0  316.09   21.15
  -2   0  -1 3458.64  104.60
   2   0   1 3562.06  107.35
  -2   0  -1 3422.55  107.27
   2   0  -1 3440.62   99.90
   2   0   1 3400.93  100.32
   2   0   1 3423.70  104.83
   2   0  -1 3444.99  104.74
  -2  -1   1  636.55   21.78
   2   1   1  630.36   22.52
  -2   1   1  622.46   21.90
  -2  -1   1  626.15   22.31
  -2   1  -1  647.89   20.85
   2   1   1  605.66   22.06
  -2  -1   1  641.11   20.96
   2   1   1  655.34   21.09
  -2  -1  -1  645.66   22.66
  -2  -1  -1  626.72   21.00
   2   1  -1  646.67   20.97
   2   1  -1  635.38   22.29
  -2   1  -1  631.01   20.86
   2   1  -1  625.10   21.70
   2  -1  -1  633.49   21.82
  -2  -1  -1  669.81   22.37
  -2  -2   1  152.22    7.74
   2  -2   1  119.45    6.25
  -2   2  -1  142.33    6.71
  -2   2   1  144.57    8.44
  -2  -2   1  139.64    7.93
   2   2   1  131.52    8.27
   2   2   1  137.06    8.00
  -2   2  -1  141.11    5.76
   2   2  -1  126.06    7.19
   2  -2   1  143.88    5.77
   2  -2  -1  150.35    8.15
   2  -2   1  136.52    5.94
  -2  -2  -1  139.10    7.73
  -2  -2  -1  132.07    8.51
   2   2  -1  140.08    7.73
   2   2   1  138.57    8.24
  -2  -2   1  137.54    7.17
  -2   2   1  141.49    8.16
   2   2  -1  139.71    7.47
   2   3  -1  818.81   29.54
   2   3   1  786.90   29.48
  -2   3   1  797.84   30.26
  -2  -3  -1  774.71   30.76
   2  -3   1  792.95   26.12
   2  -3  -1  747.49   29.97
   2   3   1  764.23   28.46
  -2   3  -1  802.99   28.06
  -2  -3   1  788.27   29.69
  -2   3   1  755.05   28.78
   2  -3   1  805.24   28.35
   2   3   1  795.92   30.58
  -2  -3   1  762.19   27.55
   2   3  -1  777.65   28.10
   2   3  -1  793.35   27.95
  -2  -3  -1  805.66   28.83
  -2   3  -1  793.83   26.31
   2  -3   1  824.74   26.73
   2  -4   1 1417.79   45.09
   2   4  -1 1493.64   49.94
   2   4   1 1405.07   50.94
  -2  -4  -1 1330.51   47.54
   2   4  -1 1382.46   46.99
   2   4   1 1349.91   48.89
   2  -4  -1 1409.11   50.72
   2  -4   1 1366.25   48.43
  -2  -4   1 1355.05   49.74
  -2   4  -1 1396.25   45.70
  -2   4   1 1445.09   50.65
   2   4  -1 1337.53   47.26
  -2  -4   1 1359.23   46.49
  -2  -4  -1 1435.07   51.72
  -2   4   1 1360.42   48.22
   2  -4  -1 1396.50   47.16
  -2   4  -1 1499.35   48.53
  -2  -5   1  660.39   27.11
   2   5   1  704.33   30.42
   2   5  -1  655.26   26.71
  -2  -5  -1  649.33   28.09
  -2  -5  -1  692.02   31.21
   2   5  -1  709.20   28.93
  -2   5   1  667.10   27.60
   2  -5  -1  688.29   30.02
  -2  -5   1  649.50   29.14
  -2   5  -1  636.59   27.10
   2  -5  -1  615.45   27.10
   2  -5   1  657.89   27.89
   2  -5   1  677.82   25.79
  -2   5  -1  629.71   24.94
   2   5   1  658.52   28.30
  -2   5   1  703.02   29.78
  -2  -6  -1   64.84    9.50
  -2  -6   1   75.02    9.38
   2   6   1   64.50    8.89
   2   6  -1   58.30    7.58
  -2   6  -1   59.01    6.75
  -2  -6   1   56.46    9.32
   2  -6   1   69.65    8.94
  -2   6  -1   60.42    8.16
  -2  -6  -1   72.21   10.92
  -2   6   1   63.99    8.53
   2  -6   1   68.76    8.19
   2  -6  -1   62.26   10.07
   2  -6  -1   62.09    9.03
   2   7   1   43.57    8.30
   2  -7  -1   34.76    8.68
  -2   7   1   47.09    8.26
   2  -7   1   48.09    8.94
   2  -7  -1   44.94    8.98
  -2   7  -1   47.42    6.88
   2  -7   1   34.92    7.16
  -2  -7   1   28.44    8.45
  -2  -7  -1   56.38   10.09
   2   7  -1   35.44    7.01
  -2  -7  -1   39.18    9.95
  -2  -7   1   48.80    8.89
  -2  -8  -1   73.94   12.34
   2  -8   1   78.20   10.61
   2   8   1   60.96   10.04
   2  -8  -1   80.30   11.82
  -2  -8   1   49.71    9.66
   2   8  -1   68.55    9.64
  -2   8   1   86.11   11.13
  -2   0  -2 6988.63  199.79
   2   0  -2 6598.81  199.86
  -2   0  -2 6504.74  203.90
   2   0   2 6863.20  200.07
  -2   0   2 6284.08  200.07
   2   0   2 6550.73  203.78
  -2   1  -2  462.14   14.88
  -2  -1  -2  493.85   18.15
   2  -1  -2  475.13   17.87
   2   1   2  494.84   18.04
  -2  -1  -2  437.43   17.74
  -2  -1   2  478.72   17.19
   2   1  -2  437.89   16.26
  -2  -1   2  450.88   16.78
  -2  -1   2  436.22   16.32
  -2   1  -2  461.07   14.24
   2  -1   2  451.82   14.97
   2   1   2  449.65   17.72
  -2  -1  -2  457.88   16.86
  -2   1   2  431.49   17.70
  -2  -2  -2 3091.27   94.78
   2  -2   2 3132.77   91.35
  -2   2   2 3197.72  101.40
  -2  -2   2 3108.91   99.68
   2   2  -2 3071.90   97.25
   2   2   2 3188.14  101.24
   2   2  -2 3084.83   93.43
   2   2   2 3109.14   99.29
   2   2  -2 3107.96   99.45
  -2  -2   2 3138.38   93.57
  -2  -2   2 3328.22   97.75
  -2   2  -2 3306.54   98.55
  -2   2  -2 3175.96   91.45
  -2   2   2 3108.08   99.18
  -2  -2  -2 3087.13  101.31
  -2  -3   2 1047.53   36.71
   2   3  -2 1081.80   37.51
  -2   3   2 1129.37   40.05
  -2   3  -2 1113.14   35.00
  -2  -3  -2 1063.79   38.53
  -2   3  -2 1102.50   34.75
   2  -3   2 1112.23   36.98
  -2   3  -2 1139.89   36.78
   2   3   2 1061.69   39.81
   2  -3   2 1117.87   34.65
   2   3  -2 1131.46   37.35
  -2   3   2 1113.87   41.23
   2   3   2 1129.88   41.30
  -2  -3  -2 1127.93   41.67
  -2  -3   2 1087.80   39.11
   2  -3   2 1125.12   34.98
   2   3  -2 1157.23   39.12
   2   4   2  220.86   14.23
   2   4  -2  192.67   11.80
  -2   4   2  217.48   13.30
   2  -4   2  214.90    9.79
   2   4  -2  216.96   12.18
  -2   4  -2  222.35   10.80
  -2   4  -2  228.18   11.11
   2   4   2  216.75   13.41
   2  -4   2  215.48   10.18
  -2  -4   2  203.37   12.30
  -2  -4  -2  219.49   13.46
  -2  -4  -2  199.81   14.22
   2  -4   2  168.47   10.18
  -2  -4   2  220.94   11.84
  -2   4   2  216.69   14.21
  -2   4  -2  210.05    9.12
   2   4  -2  216.56   11.16
   2  -5   2  575.36   23.93
  -2   5   2  551.81   25.53
  -2   5  -2  566.55   20.98
  -2   5   2  583.25   27.46
   2  -5  -2  555.31   25.45
   2   5  -2  581.09   23.35
   2   5  -2  591.91   25.14
   2  -5  -2  589.79   27.87
   2   5   2  507.34   25.40
  -2  -5  -2  554.31   25.87
  -2  -5  -2  524.82   27.65
  -2  -5   2  569.18   25.54
  -2  -5   2  566.74   23.87
  -2   5  -2  558.68   23.19
   2  -5   2  558.70   21.97
  -2   6  -2  221.69   11.50
  -2   6  -2  231.83   13.62
   2  -6   2  201.14   12.37
   2  -6  -2  221.62   15.66
   2  -6   2  226.67   14.21
  -2  -6   2  226.26   15.65
  -2  -6  -2  202.70   15.45
   2   6  -2  223.69   13.25
  -2   6   2  190.54   14.37
   2   6   2  222.61   15.61
   2   6  -2  232.31   14.92
  -2  -6  -2  192.47   16.93
  -2  -6   2  239.32   14.68
   2   7  -2   81.98    9.16
   2  -7  -2   85.89   12.01
  -2   7   2   80.06   10.49
   2   7   2   91.83   11.54
  -2  -7   2  109.00   12.68
   2  -7   2  111.73   11.50
   2  -7   2   91.98    9.41
  -2  -7   2   71.49    9.59
  -2  -7  -2   74.72   11.58
  -2   8   2  195.20   15.72
  -2  -8  -2  224.04   18.40
  -2  -8   2  225.72   16.50
   2  -8  -2  179.40   17.57
   2   8   2  190.18   16.12
   2   0   3 1658.10   53.72
   2   0   3 1666.84   53.98
  -2   0  -3 1613.71   53.72
  -2   0  -3 1784.82   53.91
  -2   0   3 1661.78   54.59
  -2   1   3  492.67   19.77
   2   1   3  467.96   19.34
  -2   1  -3  496.51   16.47
  -2  -1   3  480.71   18.31
   2   1  -3  482.52   17.76
   2  -1   3  471.38   16.72
  -2  -1  -3  492.21   19.43
  -2   1  -3  480.95   15.70
   2  -1   3  457.67   16.01
   2   1   3  488.72   19.43
   2   2   3  170.63   10.74
  -2  -2   3  168.63    9.01
  -2   2  -3  169.76    7.12
  -2  -2  -3  170.05   10.87
   2  -2   3  172.65    6.26
   2   2   3  177.97   10.96
  -2  -2   3  178.97    9.26
  -2   2   3  178.10   11.15
  -2   2   3  166.58   10.88
   2   2  -3  180.71    9.35
  -2  -2   3  158.25    8.50
   2   3   3  172.22   11.79
  -2  -3  -3  163.73   11.94
  -2   3   3  162.85   11.87
  -2   3   3  170.71   11.84
  -2  -3   3  165.29    9.42
  -2  -3  -3  157.29   10.98
   2   3  -3  162.54    8.98
  -2  -3   3  147.08    9.27
  -2   3  -3  169.29    7.94
   2  -3   3  175.04    7.63
   2   3  -3  162.82    9.54
   2   3   3  149.04   11.24
   2  -3   3  155.41    7.12
   2  -4   3  204.47   10.12
   2  -4   3  198.99    8.39
  -2  -4  -3  224.09   15.41
   2   4   3  207.40   13.74
   2   4  -3  198.85   10.85
   2   4  -3  199.52   11.60
  -2   4   3  205.37   14.85
   2   4   3  226.77   15.04
  -2   4  -3  212.76    9.75
   2  -4   3  193.12    9.66
  -2  -4   3  221.57   12.29
  -2   4   3  207.27   14.13
  -2  -4  -3  192.71   13.55
  -2  -4   3  199.35   11.53
  -2   4  -3  209.20   10.50
  -2  -5  -3  448.37   23.37
  -2  -5  -3  429.12   24.91
   2   5   3  447.73   23.47
  -2   5  -3  463.75   18.99
   2   5  -3  475.52   21.34
   2  -5  -3  458.09   23.15
   2  -5   3  486.61   18.80
  -2   5  -3  438.14   16.47
  -2   5  -3  451.96   19.32
  -2  -5   3  447.52   21.44
   2  -5   3  445.12   19.42
   2   5  -3  456.93   19.69
  -2   5   3  478.40   23.64
  -2  -5   3  451.53   20.58
  -2   6   3  186.99   14.82
  -2  -6   3  177.40   12.70
   2   6  -3  196.52   11.97
  -2  -6  -3  195.45   17.10
   2  -6   3  191.68   12.45
   2  -6  -3  182.74   15.11
  -2  -6  -3  208.96   16.03
   2   6   3  156.84   14.14
   2  -6   3  189.05   11.38
  -2  -6   3  185.79   13.76
   2   6  -3  187.90   13.09
  -2  -7   3   88.55   11.47
  -2  -7   3   91.41   10.72
  -2  -7  -3   67.13   11.62
  -2   7   3   77.07   11.27
   2   7   3   81.91   12.02
   2  -7  -3   73.11   11.73
  -2   8   3   75.55   11.96
  -2  -8   3   61.17    9.87
   2   8   3   90.28   12.90
   2   0   4 5166.43  158.09
  -2   0   4 5078.93  158.92
   2   0   4 5205.60  160.04
   2   1   4  155.00    9.59
  -2  -1   4  142.99    8.81
   2  -1   4  140.65    7.76
   2  -1   4  134.36    6.57
  -2   1  -4  140.13    6.88
   2   1  -4  143.36    8.43
  -2   1   4  145.49   10.15
   2   1   4  139.64    9.83
  -2   1  -4  167.04    7.63
  -2  -1  -4  134.05    8.95
   2   2   4  864.75   33.18
   2   2  -4  849.13   29.42
  -2  -2   4  839.18   29.76
   2  -2   4  880.01   27.13
   2   2   4  829.30   32.71
  -2   2   4  794.77   32.81
   2  -2   4  821.87   27.20
  -2   2  -4  839.99   26.83
  -2   2   4  810.86   33.27
  -2  -2  -4  784.18   32.39
  -2  -2   4  817.83   30.20
  -2  -3   4 1385.35   46.55
  -2   3   4 1349.25   51.08
   2   3   4 1462.08   52.32
  -2   3  -4 1430.87   43.45
  -2  -3  -4 1431.47   52.28
   2   3   4 1378.60   51.09
  -2  -3   4 1405.23   46.18
   2   3  -4 1414.27   46.14
  -2  -3  -4 1400.56   49.15
  -2  -3   4 1306.86   47.59
   2  -3   4 1367.17   43.41
  -2   3   4 1397.76   52.47
  -2  -4   4  177.39   10.16
  -2  -4  -4  189.02   13.84
  -2  -4   4  178.02   11.06
  -2  -4  -4  193.73   14.86
  -2   4  -4  179.42    9.77
   2  -4   4  171.85    8.98
  -2   4   4  162.67   13.73
  -2  -4   4  195.76   11.41
   2  -4   4  186.24    8.44
   2   4   4  164.69   13.42
   2   5  -4   64.11    6.74
  -2  -5   4   68.53    7.84
   2  -5   4   67.57    6.11
  -2  -5  -4   67.03   11.27
  -2  -5   4   69.84    8.07
  -2   5   4   72.01   10.50
  -2  -5  -4   73.43   10.88
   2  -5   4   63.25    6.11
   2   5   4   52.44    9.19
  -2  -6  -4  115.19   13.75
   2  -6  -4   98.06   12.56
   2  -6   4  130.04    8.96
  -2  -6   4  122.01   11.19
   2   6  -4  118.95    9.23
  -2   6   4  132.03   14.14
  -2  -6   4  108.10   10.87
   2   6   4  104.70   13.05
  -2   7   4   15.21    6.73
   2   7   4   12.73    6.78
   2  -7  -4    7.99    6.78
  -2  -7   4   25.31    6.61
  -2  -7  -4   27.71    8.98
   2   0   5 1048.92   36.69
  -2   0   5  971.18   37.23
   2   0   5 1003.24   35.79
   2  -1   5   90.13    7.41
  -2   1   5  110.25    9.86
  -2   1   5  122.04    9.82
   2  -1   5  113.15    6.58
   2   1   5  103.04    9.10
   2   1   5   94.39    8.51
  -2   1  -5  112.75    6.75
  -2  -1   5  106.73    8.51
  -2   2   5   23.85    6.49
  -2   2  -5   29.07    3.74
   2   2   5   17.41    5.71
  -2   2  -5   33.03    3.34
   2   2   5   23.79    6.02
  -2   2   5   26.01    6.90
  -2  -2   5   21.76    4.65
   2  -2   5   20.98    2.01
   2  -2   5   24.16    3.67
  -2  -2   5   24.49    4.43
   2  -2   5   23.26    2.31
  -2  -3   5  340.42   15.22
  -2  -3  -5  295.00   18.26
   2  -3   5  337.93   11.68
  -2   3   5  282.28   18.40
  -2   3  -5  316.74   13.31
   2   3   5  313.29   18.72
   2  -3   5  319.09   11.84
   2   3   5  314.60   18.72
  -2  -4  -5  219.82   16.54
   2   4   5  214.45   16.15
  -2  -4   5  209.27   12.55
  -2   4   5  227.12   16.76
  -2  -4  -5  237.31   16.28
  -2  -4   5  222.16   11.91
  -2  -5  -5  220.96   17.58
  -2  -5  -5  194.26   15.89
  -2  -5   5  188.90   11.08
  -2  -5   5  198.43   12.84
  -2   5   5  175.29   15.60
   2   5   5  173.63   15.52
   2  -5   5  190.53   10.36
   2   6   5   67.24   11.53
  -2   6   5   46.12   10.29
   2  -6  -5   47.46   10.31
  -2  -6   5   53.13    8.07
  -2  -6  -5   36.74    9.59
   2   7   5    6.98    6.29
  -2   7   5   -4.15    4.84
  -2   0   6  187.45   13.06
   2   0   6  171.64   10.73
   2   0   6  162.56   11.47
   2   1   6   22.54    6.02
   2  -1   6   21.74    4.05
  -2   1   6   42.60    7.70
  -2   1   6   27.06    6.78
   2   1   6   21.30    5.70
  -2  -1   6   23.55    5.57
  -2   1  -6   23.15    4.25
   2  -1   6   19.98    4.83
   2   2   6  225.54   15.72
   2   2   6  276.12   16.48
  -2   2   6  251.36   17.06
   2  -2   6  250.38   12.36
   2  -2   6  252.91   10.02
  -2   2  -6  267.39   12.22
   2  -2   6  241.20   10.09
  -2  -2   6  261.64   14.20
  -2  -3   6  178.57   10.92
   2   3   6  190.74   14.71
  -2  -3   6  182.80   11.39
  -2   3   6  189.18   15.25
  -2   4   6  113.46   13.76
  -2  -4   6  108.37    8.53
  -2  -4  -6   83.07   11.67
   2   4   6   83.03   11.87
   2   5   6   19.67    7.65
  -2  -5  -6   29.70    8.85
  -2   5   6   33.58    8.95
  -2  -5   6   21.34    5.70
  -2   6   6  205.62   19.49
  -2  -6  -6  160.26   17.39
   2   6   6  218.83   18.68
   2  -6  -6  209.71   19.30
   2   0   7  437.56   21.24
  -2   0   7  441.19   22.72
   2   0   7  428.60   20.10
  -2   0   7  428.57   21.87
  -2   1   7   27.26    7.61
   2   1   7   26.57    6.61
  -2  -1   7   43.17    7.75
   2   1   7   40.71    7.95
   2  -1   7   32.05    6.22
   2  -2   7  106.47    8.71
  -2  -2   7   98.79    9.90
   2   2   7  114.51   12.43
  -2   2   7  119.70   13.53
  -2  -3   7  279.65   15.49
   2   3   7  256.69   18.34
  -2   3   7  263.76   19.24
  -2   4   7   15.29    7.52
   2   4   7    4.14    5.63
  -2  -4  -7   12.50    6.83
  -2   5   7  127.16   16.12
  -2  -5  -7   89.24   13.57
   2   5   7   76.51   12.62
  -2   6   7    5.71    7.00
   2   6   7    1.99    5.76
  -2   0   8  438.38   24.19
   2   0   8  437.49   22.60
  -2   1   8   39.20    9.62
  -2  -1   8   28.66    7.59
   2   1   8   37.27    8.28
   2  -1   8   32.64    6.92
   2   2   8  102.48   12.68
  -2  -2   8  104.48   11.32
  -2   2   8   85.44   12.88
  -2   3   8   18.59    8.06
   2   3   8    8.48    6.27
  -2   4   8    2.83    6.38
  -2  -4  -8   -9.81    4.95
   2   4   8    1.71    5.82
   2   5   8   79.64   13.75
  -2   5   8   32.94   10.44
  -2   0   9   45.11   10.33
   2   0   9   55.44    9.86
  -2  -1   9   71.67   11.38
   2   1   9   64.99   10.86
  -2   1   9   56.07   11.10
   2   2   9  152.82   16.14
  -2   2   9  194.76   18.75
  -2   3   9   77.98   13.52
   2   3   9   80.08   12.95
  -3   0   0   -1.68    0.93
  -3   0   0   -3.92    0.90
   3   0   0   -3.24    0.89
   3   0   0   -2.06    1.13
  -3  -1   0 9191.77  290.89
  -3  -1   0 9378.41  271.74
   3  -1   0 9340.32  285.03
  -3   1   0 9347.49  285.79
   3   1   0 9920.05  271.78
   3   1   0 9165.94  290.75
   3   1   0 9634.31  285.34
  -3  -1   0 9999.74  285.22
   3   2   0  140.03    7.64
  -3  -2   0  139.22    7.76
   3  -2   0  139.53    6.79
  -3   2   0  146.91    7.82
   3   2   0  133.81    8.20
   3   2   0  127.55    7.58
  -3  -2   0  123.70    8.18
  -3   2   0  140.53    7.17
   3   3   0  314.55   14.49
  -3   3   0  310.77   14.44
   3   3   0  308.94   14.42
   3   3   0  312.28   15.31
   3  -3   0  321.96   13.37
  -3   3   0  318.52   13.47
  -3  -3   0  295.99   14.15
  -3  -3   0  286.04   15.15
   3  -3   0  316.72   13.27
  -3   4   0  164.38   10.65
  -3  -4   0  157.08   10.41
   3  -4   0  142.32    9.36
  -3  -4   0  158.09   11.41
   3   4   0  140.21    9.84
  -3   4   0  143.49    9.10
   3   4   0  151.75   10.94
  -3   5   0    8.80    3.76
   3   5   0    6.40    4.40
   3  -5   0   20.32    5.18
  -3   5   0   10.19    4.73
  -3  -5   0    7.85    4.32
  -3  -5   0    7.16    5.13
   3   5   0    5.26    3.58
   3  -6   0   42.83    7.55
   3   6   0   42.66    7.42
  -3  -6   0   40.68    9.03
  -3  -6   0   41.87    7.84
  -3   6   0   31.51    7.06
  -3   6   0   42.04    6.46
  -3  -7   0  167.83   15.11
  -3   7   0  161.59   11.90
  -3  -7   0  134.36   15.27
   3   7   0  175.45   13.32
   3  -7   0  152.71   12.56
   3  -8   0    9.76    6.01
  -3  -8   0   14.14    7.00
   3   8   0   19.13    6.25
  -3   0   1   -2.14    1.40
   3   0   1   -0.29    1.09
  -3   0   1   -0.91    1.26
   3   0  -1   -2.78    1.05
   3   0  -1   -1.24    1.44
   3   0   1   -2.49    1.28
  -3   0  -1   -2.07    1.41
  -3   0   1   -0.32    1.52
  -3   0  -1   -1.77    0.41
   3   0   1   -0.52    1.42
  -3   0  -1   -4.09    1.09
   3   1  -1 2383.03   73.47
  -3  -1   1 2557.05   79.08
  -3  -1  -1 2411.00   73.34
   3   1   1 2521.33   73.44
   3  -1  -1 2465.97   76.75
  -3   1  -1 2549.35   75.65
  -3  -1   1 2573.67   77.36
   3   1   1 2235.27   78.41
  -3   1  -1 2517.11   75.48
  -3   1   1 2482.99   76.96
  -3  -1   1 2505.50   73.73
  -3  -1  -1 2330.55   78.63
   3   1  -1 2495.61   77.25
   3  -1   1 2562.43   76.80
  -3  -1  -1 2619.71   77.54
   3   1   1 2402.87   77.24
   3   2  -1 1759.57   57.22
   3   2  -1 1725.28   53.55
   3  -2   1 1694.75   52.86
   3   2  -1 1723.70   55.62
   3  -2   1 1727.19   51.00
   3   2   1 1841.79   58.02
  -3   2   1 1769.38   57.24
  -3  -2   1 1722.56   57.26
  -3   2  -1 1721.22   53.27
  -3  -2  -1 1597.02   53.47
  -3  -2   1 1729.12   53.52
   3   2   1 1638.48   56.14
  -3   2  -1 1692.86   54.93
  -3   2   1 1732.50   55.72
   3  -2  -1 1801.19   55.65
  -3  -2  -1 1652.00   57.62
   3   2   1 1774.70   53.88
  -3   3  -1   96.83    5.58
  -3   3   1   93.71    7.93
  -3  -3   1   86.77    7.45
   3  -3   1   97.37    5.83
  -3   3  -1  103.28    6.78
   3   3  -1  112.13    7.91
  -3   3   1  100.55    7.88
   3   3   1   91.79    7.95
  -3  -3   1  104.75    7.13
  -3  -3  -1   84.85    7.27
  -3  -3  -1   86.69    7.92
   3   3  -1   92.44    6.98
   3   3   1   89.16    7.56
   3   3  -1   95.35    6.99
   3  -3   1  101.93    5.59
   3   3   1  102.85    8.04
   3   4   1  706.04   30.13
   3  -4   1  751.38   25.70
   3   4  -1  732.72   29.25
  -3   4   1  731.11   29.78
  -3   4   1  685.64   27.74
  -3  -4   1  676.42   29.30
  -3   4  -1  721.19   27.39
   3   4   1  731.37   29.12
   3   4  -1  726.46   27.82
   3  -4  -1  691.14   27.32
  -3  -4   1  706.66   27.47
  -3  -4  -1  718.74   28.42
   3  -4   1  707.51   25.31
  -3   4  -1  709.27   25.22
  -3  -4  -1  744.11   31.18
   3   5  -1   39.02    6.37
  -3   5  -1   49.74    5.55
  -3   5   1   52.94    7.42
  -3  -5  -1   54.96    9.53
   3   5   1   64.83    9.10
   3   5   1   46.65    7.33
  -3   5   1   51.18    8.03
  -3  -5  -1   60.17    8.42
   3  -5  -1   65.19    8.33
   3   5  -1   58.52    7.90
  -3  -5   1   65.26    8.99
  -3  -5   1   43.35    6.82
   3  -5   1   59.73    6.54
  -3   5  -1   52.65    6.81
   3  -6   1   82.60    8.33
   3   6  -1   70.75    8.55
   3  -6  -1   77.63    9.66
  -3   6   1   72.13    8.98
  -3   6  -1   73.63    7.25
  -3  -6  -1   71.66   10.19
  -3  -6  -1   82.89   12.04
  -3   6  -1   72.33    8.71
  -3  -6   1   66.48    9.14
   3   6   1   63.12    9.11
  -3  -6   1   67.62   10.19
   3  -7   1   31.98    6.68
  -3   7  -1   37.73    6.23
  -3  -7   1   27.86    8.09
  -3   7   1   35.08    7.10
  -3  -7  -1   39.46    8.73
  -3  -7   1   27.17    6.98
   3   7  -1   23.64    6.19
   3  -7  -1   42.57    8.51
   3   7   1   32.45    7.43
  -3  -8  -1    8.20    6.42
  -3  -8   1   11.06    6.50
   3   8  -1   12.74    5.62
   3  -8  -1   12.06    6.65
  -3   8   1   18.09    6.14
   3   8   1   21.87    6.66
   3   0  -2   -2.10    1.36
   3   0  -2   -0.19    1.41
  -3   0  -2    2.77    1.81
   3   0   2   -0.58    1.53
  -3   0   2   -2.25    1.24
   3   0   2   -1.62    1.23
  -3   0  -2    0.09    1.02
  -3   0  -2   -0.87    1.66
  -3   1  -2  871.07   30.21
  -3  -1   2  971.67   31.99
  -3   1   2  898.52   32.00
  -3  -1   2  910.82   31.38
  -3  -1  -2  903.08   30.15
  -3  -1  -2 1002.67   32.36
  -3   1  -2  949.50   29.11
  -3  -1   2  924.36   30.39
   3   1   2  917.13   32.20
   3   1  -2  889.89   30.16
   3  -1   2  946.46   29.19
  -3  -1  -2  892.39   32.21
   3   1   2  937.20   32.03
  -3   2  -2 1466.68   43.53
  -3   2   2 1421.92   47.58
  -3  -2   2 1379.43   46.55
   3   2   2 1363.07   46.52
  -3  -2  -2 1390.67   44.53
  -3   2   2 1362.26   46.37
  -3  -2  -2 1263.24   47.12
   3   2  -2 1359.23   45.12
  -3  -2   2 1386.50   43.77
   3  -2   2 1250.77   40.14
   3   2  -2 1330.71   43.51
   3   2   2 1379.46   47.39
   3   3  -2  639.77   25.06
   3   3   2  629.73   26.54
   3   3  -2  629.78   23.99
  -3   3  -2  641.51   20.13
  -3  -3  -2  615.12   26.72
  -3  -3   2  632.14   25.29
   3  -3   2  618.86   20.48
  -3  -3   2  653.08   23.98
   3   3  -2  632.94   23.99
  -3   3   2  650.93   26.63
  -3   3  -2  636.63   22.02
  -3  -3  -2  626.56   25.03
  -3   3   2  586.19   25.24
   3   3   2  615.62   25.80
   3   4  -2 1252.37   44.05
   3  -4   2 1215.20   38.36
  -3  -4  -2 1133.58   42.98
  -3  -4   2 1183.13   44.13
  -3   4   2 1227.51   45.89
  -3   4  -2 1195.42   38.18
  -3   4  -2 1207.40   40.93
   3   4  -2 1159.83   41.91
   3   4   2 1219.18   46.18
  -3  -4  -2 1219.85   46.86
  -3   4   2 1219.46   44.18
   3  -4   2 1217.21   38.36
  -3  -4   2 1115.27   41.18
   3   4   2 1239.01   44.91
  -3   5  -2  108.34    6.42
  -3  -5  -2  112.80   11.27
  -3  -5   2   97.64    9.99
   3   5  -2  108.08   10.15
  -3  -5   2  106.44    9.72
   3  -5   2   93.69    6.94
   3  -5  -2  104.85   10.72
  -3   5  -2  113.02    8.26
   3   5   2   91.61   10.29
  -3  -5  -2   98.61   11.96
   3   5  -2   98.79    8.47
   3  -5   2   96.18    7.24
  -3   5   2  108.74   10.60
  -3   6   2   96.92   10.90
   3   6   2   69.27    9.89
   3  -6   2   82.89    7.99
   3  -6  -2   85.66   10.87
  -3   6  -2  108.04    8.95
   3   6  -2   87.88    8.95
  -3  -6  -2  123.50   14.36
  -3  -6   2   86.14   10.85
  -3  -6   2   90.78    9.88
  -3   6  -2   94.34    6.88
  -3  -6  -2  113.70   12.53
   3  -7   2  217.42   13.49
   3   7  -2  228.06   14.83
   3   7   2  226.04   16.76
  -3  -7   2  246.39   18.17
  -3  -7  -2  260.21   18.60
   3  -7  -2  241.46   17.60
  -3  -7   2  189.01   14.86
  -3   7   2  230.82   16.15
   3   8   2   50.38    9.72
  -3  -8   2   31.41    8.21
   3  -8  -2   46.86   10.72
  -3   8   2   33.50    8.30
   3   0   3   -1.16    1.43
  -3   0   3    0.54    2.14
   3   0  -3    0.86    1.65
  -3   0  -3   -2.37    1.73
  -3   0  -3   -0.51    1.87
   3   0   3   -0.22    1.78
  -3   1  -3  449.03   15.23
  -3  -1  -3  414.50   17.82
  -3  -1   3  431.71   17.46
   3  -1   3  439.14   15.25
   3  -1   3  421.69   14.51
  -3   1   3  421.86   18.50
  -3  -1  -3  459.95   17.43
   3   1  -3  431.84   16.96
   3   1   3  421.69   17.81
   3   1   3  454.07   18.38
  -3   2   3  354.42   17.67
   3   2   3  381.83   17.40
  -3  -2   3  374.33   15.78
  -3  -2  -3  359.87   16.52
  -3   2  -3  387.05   12.22
   3   2  -3  366.40   15.63
  -3   2   3  360.80   17.57
  -3  -2   3  360.63   16.22
  -3  -2   3  365.46   15.58
  -3  -2  -3  351.08   17.34
   3   2   3  392.99   17.72
   3   3  -3  667.05   24.98
  -3   3  -3  600.74   20.94
  -3   3   3  632.21   28.03
  -3   3   3  669.68   27.74
  -3  -3  -3  685.17   26.86
   3  -3   3  655.48   20.80
   3   3   3  679.10   27.71
   3   3   3  713.65   28.63
   3   3  -3  616.51   24.52
  -3  -3   3  623.68   25.57
  -3  -3   3  621.91   24.47
  -3  -4   3  272.94   14.90
  -3   4   3  263.93   17.20
   3   4   3  292.93   17.55
  -3  -4  -3  285.71   17.83
  -3   4   3  306.71   17.17
  -3   4  -3  298.72   11.73
  -3   4  -3  250.38   11.80
   3   4  -3  304.46   15.25
   3  -4   3  284.02   11.58
   3   4  -3  276.77   14.03
  -3  -4  -3  281.03   16.53
  -3  -4   3  282.83   14.70
   3   4   3  258.11   16.36
  -3   5   3    9.25    5.32
   3   5   3   11.32    5.46
  -3  -5  -3   12.22    6.74
  -3  -5   3    8.33    4.55
   3  -5   3    8.83    2.99
  -3   5  -3   18.67    3.67
  -3  -5   3   16.02    4.75
   3   5  -3   18.99    5.24
  -3  -5  -3   16.12    5.95
   3   5  -3   14.43    4.35
   3  -6  -3   12.65    6.23
  -3  -6  -3   10.32    7.01
   3  -6   3   18.81    4.45
   3   6  -3   15.96    4.68
  -3  -6  -3   16.00    6.64
  -3  -6   3   16.81    5.44
  -3   6   3    7.58    5.35
   3   6   3   19.96    6.61
  -3  -6   3   31.61    7.44
  -3  -7   3  150.11   13.99
  -3  -7  -3  139.77   15.79
   3  -7  -3  142.40   15.44
  -3  -7   3  136.89   14.07
   3   7  -3  154.38   11.69
  -3   7   3  139.82   14.22
   3   7   3  138.84   15.09
  -3   8   3   79.26   11.79
   3   8   3   50.83   10.55
  -3  -8   3   57.82   10.33
   3   0  -4   -2.14    1.75
   3   0   4   -0.53    2.24
   3   0   4   -0.62    1.92
  -3   0   4    1.62    2.75
  -3   1  -4  309.50   12.04
   3   1  -4  287.20   13.46
   3  -1   4  300.72   12.20
  -3  -1  -4  293.25   14.27
  -3  -1   4  292.42   14.16
  -3   1   4  311.97   15.65
   3   1   4  284.71   14.05
   3   1   4  311.74   14.97
   3  -1   4  275.70   10.63
  -3  -2   4 1099.89   39.98
  -3  -2   4 1122.01   38.31
  -3  -2  -4 1114.55   39.67
   3  -2   4 1134.67   35.23
  -3   2   4 1130.71   42.10
  -3   2   4 1120.31   42.67
  -3  -2  -4 1101.22   41.78
  -3  -2   4 1089.41   39.03
   3   2  -4 1122.00   38.25
  -3   2  -4 1165.87   34.46
   3   2   4 1127.17   41.70
   3   2   4 1154.32   41.88
  -3  -3  -4  580.48   26.41
   3   3   4  622.03   28.16
  -3  -3   4  632.39   25.60
  -3   3   4  639.13   28.51
  -3   3   4  678.51   29.40
  -3  -3   4  643.65   24.96
   3   3   4  631.99   28.04
  -3  -3   4  647.25   24.72
  -3  -3  -4  632.66   28.52
  -3   3  -4  616.40   20.85
  -3  -4   4  644.01   26.71
  -3   4  -4  635.11   22.19
   3  -4   4  647.56   21.69
  -3  -4  -4  606.07   28.33
  -3  -4   4  622.99   25.04
  -3  -4  -4  687.24   31.20
   3   4   4  612.75   29.14
  -3   4   4  605.59   29.16
  -3  -4   4  651.38   25.97
   3   5   4  117.99   12.80
  -3  -5  -4  148.54   15.33
  -3  -5   4  115.66   10.15
  -3   5   4  113.02   12.47
   3  -5   4  132.58    7.79
  -3  -5   4  145.83   10.81
  -3  -5  -4  105.27   12.29
   3   5  -4  139.58    9.83
  -3  -6   4  193.32   13.56
   3   6   4  177.51   15.58
  -3   6   4  188.06   15.77
  -3  -6  -4  154.61   15.94
  -3  -6   4  177.98   13.56
   3  -6  -4  183.67   15.74
   3   6  -4  187.30   12.17
  -3  -7   4   70.69   10.15
  -3  -7  -4   89.53   14.09
   3   7   4   65.06   11.80
  -3   7   4   70.08   12.07
   3  -7  -4   95.83   14.32
   3   0   5   -1.29    2.37
  -3   0   5   -2.48    3.14
   3   0   5   -1.79    2.65
   3   1   5   66.07    7.63
   3  -1   5   66.22    5.83
   3   1   5   64.80    7.11
  -3   1   5   60.04    8.14
  -3  -1   5   54.12    6.81
   3  -1   5   58.59    4.31
  -3  -2   5  498.14   21.85
  -3   2  -5  528.64   17.86
   3   2   5  505.95   23.92
  -3   2  -5  518.69   18.09
   3   2   5  498.81   23.59
   3  -2   5  489.97   18.19
  -3   2   5  523.38   24.97
  -3  -2  -5  518.84   23.66
  -3   2   5  552.99   25.46
  -3  -2   5  529.89   22.07
  -3  -3  -5   57.08    8.55
  -3  -3  -5   51.50    8.72
   3   3   5   63.49    9.04
  -3  -3   5   59.30    6.87
  -3   3   5   46.61    8.58
  -3  -3   5   42.36    6.20
   3   3   5   57.82    8.96
  -3  -3   5   58.29    6.62
  -3   3  -5   57.65    4.81
  -3  -4   5  269.86   14.07
  -3   4   5  307.38   19.24
  -3  -4  -5  259.04   18.25
  -3  -4  -5  248.00   17.19
  -3  -4   5  258.98   14.66
  -3  -4   5  279.23   15.22
   3   4   5  256.09   17.74
  -3  -5   5  206.42   13.42
  -3  -5   5  193.95   11.78
  -3  -5  -5  194.78   17.13
  -3  -5   5  203.51   13.21
  -3  -5  -5  144.78   14.91
   3   5   5  194.73   15.71
  -3   5   5  203.02   16.48
  -3  -6  -5  101.98   13.60
   3   6   5  120.31   14.60
  -3  -6   5  110.24   11.21
   3  -6  -5   85.60   12.69
  -3   6   5  123.23   14.62
  -3   7   5   54.02   11.50
   3   7   5   40.91   10.24
  -3  -7   5   55.21    9.14
   3   0   6   -1.49    3.28
   3   0   6   -1.00    2.85
  -3   0   6    6.41    4.47
   3   1   6  648.10   27.49
   3  -1   6  688.86   23.90
   3  -1   6  668.87   25.71
  -3   1  -6  646.05   23.71
  -3  -1   6  675.06   28.17
  -3   1   6  673.12   29.80
  -3   1   6  655.42   29.74
   3   1   6  640.42   28.15
   3   2   6  563.91   26.96
  -3   2  -6  589.87   21.15
  -3   2   6  540.87   27.81
   3  -2   6  585.89   21.64
   3   2   6  599.19   26.86
  -3  -2   6  606.14   25.40
  -3  -3  -6   31.01    7.56
  -3  -3   6   23.82    5.47
  -3   3   6   16.08    7.23
  -3  -3   6   29.07    5.57
  -3  -3  -6   36.13    7.94
   3   3   6   39.80    8.43
   3   4   6   57.40   10.53
  -3  -4  -6   49.62    9.98
  -3  -4   6   58.51    7.31
  -3  -4  -6   58.43   10.19
  -3   4   6   30.48    8.58
  -3  -5   6   80.00    9.51
  -3   5   6   58.48   11.05
  -3  -5  -6   56.92   10.96
   3   5   6   71.25   12.06
  -3  -6   6  100.41   10.85
  -3   6   6  103.40   14.82
  -3  -6  -6   74.79   13.10
   3   6   6   63.15   11.86
  -3   0   7   -6.39    3.91
   3   0   7    2.63    3.74
   3   0   7    2.05    3.38
   3   1   7  246.63   14.67
   3  -1   7  233.04   13.15
  -3  -1   7  213.15   14.66
   3   1   7  217.01   14.94
  -3   1   7  204.24   15.75
  -3  -2   7  176.88   13.04
   3   2   7  188.48   14.52
  -3   2   7  170.38   15.23
  -3  -3  -7   33.21    8.09
  -3  -3   7   72.15    8.74
   3   3   7   66.34   10.96
  -3   3   7   64.42   11.58
   3   4   7  154.31   15.92
  -3   4   7  116.82   14.88
  -3  -4  -7  126.79   14.23
   3   5   7  162.59   17.53
  -3   5   7  172.28   18.39
  -3  -5  -7  127.50   15.29
  -3   6   7   10.49    7.74
   3   6   7   18.72    8.62
   3   0   8   -2.26    3.86
  -3   0   8   -8.26    4.40
  -3  -1   8  100.87   11.78
  -3   1   8  115.30   13.55
   3   1   8  118.60   12.38
   3   2   8   53.11   10.05
  -3   2   8   40.81    9.87
  -3  -2   8   64.51    9.95
  -3   3   8   -4.90    5.29
  -3  -3  -8    2.77    5.80
   3   3   8    2.04    5.64
  -3   4   8   89.11   14.66
   3   4   8  114.12   15.14
  -3  -4  -8  101.17   14.16
  -3   5   8   -0.35    6.70
   3   5   8   16.39    7.77
  -3   0   9    0.42    6.00
  -3   1   9  115.18   14.72
   3   1   9  117.01   13.33
  -3  -1   9   93.04   12.50
   3   2   9   26.26    8.46
  -3   2   9   44.33   11.19
   3   3   9   11.84    7.00
  -3  -3  -9    0.16    6.79
  -3   3   9    7.39    7.79
   4   0   0 1159.49   35.07
   4   0   0 1109.07   37.32
  -4   0   0 1114.35   34.97
  -4   0   0 1164.27   37.38
   4   1   0  479.36   18.63
  -4  -1   0  488.69   18.32
  -4  -1   0  457.44   16.94
  -4  -1   0  461.75   18.64
   4  -1   0  469.40   15.60
   4   1   0  472.18   18.12
  -4   1   0  483.34   17.08
  -4   1   0  481.17   16.97
   4   1   0  478.85   17.09
   4  -1   0  464.74   16.76
   4   2   0  128.17    8.25
   4   2   0  117.12    7.51
  -4   2   0  116.05    6.58
  -4  -2   0  119.36    7.42
  -4  -2   0  114.65    8.02
   4  -2   0  122.82    6.41
   4   2   0  110.91    7.57
   4  -3   0 3149.68   94.28
   4   3   0 3226.51   99.56
  -4   3   0 3072.74   94.64
   4   3   0 3011.55   96.55
   4   3   0 3010.11   92.73
  -4  -3   0 2920.66   92.44
  -4  -3   0 2798.48   98.92
  -4   3   0 3058.90   97.43
  -4  -4   0  878.51   35.11
   4  -4   0  881.26   30.50
   4   4   0  855.35   34.26
   4   4   0  823.46   32.62
  -4   4   0  865.12   32.87
  -4  -4   0  788.08   31.73
  -4   4   0  854.05   30.85
  -4   5   0 1257.24   45.13
  -4  -5   0 1179.35   47.32
   4   5   0 1163.41   44.26
  -4   5   0 1130.49   41.78
  -4  -5   0 1174.22   43.79
   4  -5   0 1186.54   41.52
   4   5   0 1248.89   46.93
  -4   6   0   56.88    7.28
  -4  -6   0   35.74    7.45
  -4   6   0   60.54    8.96
   4   6   0   37.93    7.31
  -4  -6   0   30.52    8.21
   4  -6   0   46.22    7.53
   4   7   0   55.57    9.06
  -4  -7   0   55.68    9.76
  -4   7   0   71.59    8.74
  -4  -7   0   57.63   11.42
   4  -7   0   61.36    9.31
  -4  -8   0   93.54   13.58
   4   8   0   85.35   11.63
   4  -8   0   62.72   10.04
  -4   0   1 2513.27   76.66
  -4   0   1 2637.47   81.02
  -4   0   1 2442.66   80.53
  -4   0  -1 2693.66   80.15
   4   0  -1 2584.93   76.70
  -4   0  -1 2606.31   81.78
   4   0   1 2599.84   80.20
   4   0   1 2617.84   81.67
   4   0   1 2588.60   75.68
   4  -1   1 1240.16   36.49
  -4   1  -1 1214.73   38.68
   4   1   1 1235.61   38.59
  -4  -1   1 1218.70   39.02
   4   1  -1 1220.05   41.01
   4   1   1 1158.19   41.49
  -4  -1   1 1132.48   41.68
   4  -1   1 1270.31   39.02
  -4  -1  -1 1312.25   41.26
   4   1  -1 1239.25   39.05
  -4   1  -1 1240.40   38.81
  -4  -1  -1 1237.93   38.64
  -4  -1  -1 1203.64   41.70
   4  -1  -1 1246.41   40.36
  -4   1   1 1276.81   40.66
   4   2  -1 2633.74   82.86
   4   2   1 2686.71   79.42
   4  -2   1 2624.12   79.57
  -4   2  -1 2564.25   79.81
   4   2   1 2493.84   83.04
  -4  -2   1 2506.73   84.73
   4   2   1 2533.81   84.93
  -4  -2  -1 2633.57   79.43
  -4  -2   1 2651.10   79.38
   4   2  -1 2787.96   85.24
  -4   2   1 2519.99   82.11
  -4  -2  -1 2689.01   85.48
   4   2  -1 2630.10   79.28
   4   3   1   99.58    7.75
  -4  -3   1  104.34    7.66
   4  -3   1   91.43    5.27
   4   3  -1  101.73    7.98
  -4  -3  -1   97.32    7.81
  -4   3   1   91.32    7.88
   4  -3   1  110.53    5.97
   4   3  -1   85.55    7.13
  -4   3  -1   97.31    6.81
  -4  -3  -1   76.70    8.21
  -4  -3   1  109.76    8.45
  -4   3  -1   96.44    5.70
   4   3  -1   96.44    7.75
   4   3   1  103.67    8.42
  -4   3   1   90.02    7.51
   4   3   1  100.65    8.09
  -4   4   1  335.30   16.19
   4  -4   1  338.00   13.57
   4   4   1  342.69   18.15
  -4   4   1  332.96   17.42
  -4  -4   1  319.81   17.42
  -4   4  -1  308.36   13.40
   4   4  -1  330.92   17.19
  -4  -4  -1  317.94   16.68
  -4   4  -1  319.01   15.19
   4   4   1  322.01   16.95
  -4  -4   1  315.91   16.01
  -4  -4  -1  299.21   17.91
   4  -4   1  314.75   13.67
   4   4  -1  333.50   16.24
   4   5   1   79.80    9.31
  -4  -5  -1   85.41   10.96
  -4  -5   1   82.03    9.93
  -4   5  -1   83.95    6.65
  -4  -5   1   94.46    9.53
   4   5  -1   79.67    8.49
   4  -5   1   79.79    7.24
   4  -5  -1   77.35    8.86
  -4   5   1   82.19    9.80
  -4  -5  -1   82.39    9.41
  -4   5  -1   97.81    8.48
   4   5  -1   89.50    9.71
  -4   5   1   73.54    8.29
  -4   6   1  196.27   13.37
  -4  -6  -1  247.81   16.10
   4   6  -1  205.51   13.74
  -4  -6   1  224.68   16.52
   4  -6  -1  206.78   14.27
  -4  -6   1  203.61   14.47
   4   6   1  187.03   14.12
   4  -6   1  201.99   12.39
  -4   6  -1  191.30   13.31
  -4   6  -1  210.47   11.70
  -4  -6  -1  201.19   16.87
  -4  -7   1   23.97    7.17
   4  -7  -1    6.56    5.29
   4  -7   1   16.44    5.50
   4   7  -1   17.29    5.63
  -4   7   1    9.91    5.21
  -4  -7   1   16.73    7.31
  -4  -7  -1   13.85    6.57
   4   7   1   13.95    5.59
   4   8   1   72.87   11.21
  -4   8   1  101.93   11.46
  -4  -8   1  118.16   14.44
   4   8  -1   72.47   10.64
   4  -8  -1  102.51   12.93
   4   0   2  271.77   11.40
   4   0  -2  287.32   11.99
  -4   0  -2  276.38   11.48
  -4   0  -2  292.79   11.75
   4   0   2  283.58   11.67
  -4   0   2  273.66   12.47
  -4   0  -2  283.40   10.32
  -4   1  -2 2628.02   79.42
   4   1   2 2480.56   81.51
   4   1   2 2460.91   80.26
  -4  -1  -2 2596.95   76.30
  -4   1  -2 2624.81   77.64
  -4  -1   2 2406.01   79.97
  -4  -1  -2 2572.52   81.80
  -4  -1   2 2480.73   76.75
   4  -1   2 2619.19   77.85
  -4   1   2 2521.12   80.55
   4   1  -2 2467.35   76.58
   4   1   2 2603.66   76.18
   4   2  -2  623.55   23.26
  -4  -2   2  603.10   23.94
   4   2   2  617.75   22.77
  -4   2  -2  625.32   20.11
  -4  -2  -2  600.99   24.41
   4   2   2  572.45   24.02
  -4  -2  -2  569.97   22.53
  -4  -2   2  585.69   22.30
   4   2   2  597.04   23.97
  -4   2   2  566.57   23.38
   4   2  -2  601.22   22.40
  -4  -3  -2 1347.92   46.22
  -4   3   2 1364.80   48.99
   4   3  -2 1401.29   48.13
  -4  -3   2 1345.25   48.23
  -4   3  -2 1355.57   42.26
   4   3   2 1366.69   49.30
   4   3  -2 1381.36   46.58
  -4   3   2 1338.63   47.47
  -4  -3  -2 1300.47   49.34
   4   3  -2 1392.09   45.49
  -4   3  -2 1370.00   44.09
   4   3   2 1331.17   48.10
   4  -3   2 1338.78   40.52
   4   3   2 1357.45   46.00
  -4  -3   2 1297.97   45.01
  -4   4  -2   22.22    3.91
  -4  -4  -2   24.72    5.74
  -4  -4   2   24.04    5.24
  -4   4  -2   19.20    2.35
  -4   4   2   13.68    5.26
   4   4  -2   22.95    4.78
  -4  -4  -2   24.54    6.67
   4   4   2   24.45    5.96
  -4  -4   2   12.96    4.50
   4   4  -2   20.14    4.97
   4   4   2   29.43    6.58
  -4   4   2   24.48    6.60
   4  -4   2   24.11    3.32
   4  -4   2   18.66    2.31
  -4  -5   2   94.40    9.66
  -4   5  -2  117.80    8.44
   4  -5   2  104.59    7.24
  -4   5  -2  101.67    6.15
   4   5   2   85.70   10.28
  -4  -5  -2   96.93   10.60
  -4  -5  -2  123.99   13.29
   4   5  -2  105.90    9.16
  -4  -5   2  112.15   11.13
  -4   5   2  107.21   10.78
   4   5  -2  122.83   10.37
  -4  -6   2  163.23   13.83
   4   6  -2  179.18   12.61
   4  -6   2  186.51   10.82
  -4  -6   2  203.27   14.04
  -4   6  -2  176.38   11.59
   4   6   2  193.13   14.65
   4  -6  -2  162.82   13.59
  -4  -6  -2  164.02   16.65
  -4  -6  -2  191.20   15.01
  -4   6   2  156.39   12.95
  -4   7   2    4.55    4.79
  -4  -7   2    8.43    5.25
   4  -7  -2   11.31    6.08
   4   7  -2    6.21    4.47
   4   7   2    4.71    4.78
  -4  -7   2    9.65    6.37
  -4  -7  -2   13.89    6.77
   4   8   2  121.55   14.45
   4   8  -2  130.12   12.94
   4  -8  -2  125.52   14.93
  -4   8   2  120.57   13.47
  -4  -8   2   87.82   12.35
  -4   0   3 1492.64   51.76
  -4   0  -3 1521.53   50.37
   4   0   3 1552.42   50.33
   4   0   3 1590.24   50.39
  -4   0  -3 1589.18   47.38
  -4   0  -3 1609.79   50.42
   4   0  -3 1481.71   48.98
  -4  -1   3   25.71    4.44
   4   1   3   21.45    4.14
   4  -1   3   29.09    2.84
  -4   1  -3   24.13    2.92
  -4  -1   3   22.91    4.01
  -4  -1  -3   20.64    3.85
  -4   1   3   28.88    4.87
   4   1  -3   29.20    4.30
  -4   1  -3   25.12    2.28
  -4   1  -3   28.83    2.30
   4   1   3   23.03    4.03
  -4  -1  -3   21.63    4.24
  -4  -2  -3  263.21   14.06
  -4  -2   3  245.39   13.00
  -4  -2   3  229.88   12.27
   4   2  -3  261.83   12.75
  -4  -2   3  243.83   12.45
   4   2   3  254.33   13.67
  -4   2   3  259.92   14.13
   4   2   3  252.26   13.72
  -4  -2  -3  258.45   13.14
   4   3  -3  259.94   13.42
  -4  -3   3  282.73   13.92
  -4   3   3  251.96   15.09
  -4  -3  -3  250.13   14.46
   4   3   3  249.76   15.06
  -4  -3   3  264.38   14.16
  -4   3   3  264.71   15.82
   4   3   3  273.91   15.56
  -4  -3  -3  257.73   15.74
   4   4   3  262.99   16.37
  -4   4   3  260.93   16.20
   4   4  -3  259.17   14.61
  -4   4   3  254.74   16.89
  -4  -4  -3  274.11   17.55
   4  -4   3  263.50   10.28
   4   4   3  245.71   16.36
   4   4  -3  244.28   13.77
  -4  -4   3  251.23   14.14
  -4  -4   3  257.29   14.99
  -4  -4  -3  255.61   15.77
  -4   4  -3  266.84   10.69
   4   5  -3   43.29    6.64
  -4  -5   3   30.74    6.29
  -4   5  -3   46.75    4.91
  -4  -5  -3   42.07    8.57
  -4  -5   3   53.11    7.95
   4   5   3   44.57    8.42
  -4   5   3   36.61    7.91
  -4  -5  -3   33.37    8.49
   4   5  -3   48.04    7.43
   4  -5   3   44.97    4.68
  -4  -6   3  109.65   11.24
   4   6   3  101.04   12.53
  -4   6   3   94.32   11.54
  -4  -6  -3  117.30   13.71
  -4  -6   3  100.17   11.31
   4  -6  -3  124.09   13.55
  -4  -6  -3  127.24   15.39
   4   6  -3  116.42   10.05
  -4  -7   3   22.93    7.99
   4   7   3   33.78    8.47
   4  -7  -3   26.54    8.61
  -4  -7   3   37.21    8.08
  -4  -7  -3   36.57    9.26
  -4   7   3   20.41    7.11
   4   7  -3   33.44    7.18
  -4  -8   3   65.50   11.27
   4   8   3   55.83   10.87
  -4   8   3   50.76   10.08
  -4   0  -4  503.53   18.93
   4   0   4  497.83   19.58
  -4   0   4  476.18   21.10
   4   0   4  482.89   18.65
  -4  -1   4  172.73   10.83
   4   1   4  200.83   11.49
  -4  -1  -4  190.58   10.55
   4   1   4  201.64   10.98
   4  -1   4  182.27    7.39
  -4   1  -4  187.39    8.90
   4  -1   4  197.38    8.93
  -4  -1  -4  185.05   11.02
  -4   1   4  191.27   12.23
  -4  -2  -4  189.49   11.71
  -4  -2   4  187.42   10.94
  -4  -2  -4  187.02   12.24
  -4  -2   4  186.56   11.17
  -4   2  -4  180.01    6.77
   4   2   4  180.10   11.80
  -4   2   4  192.36   12.97
  -4  -2   4  186.25   10.98
   4   2   4  170.98   11.89
   4   3   4  303.72   17.17
  -4  -3   4  271.28   14.87
  -4  -3   4  272.19   14.56
  -4  -3  -4  277.70   15.95
  -4   3   4  290.50   17.57
  -4  -3   4  278.74   14.37
  -4  -3  -4  272.60   16.93
  -4   3   4  300.63   17.54
  -4   3  -4  273.57    9.77
   4   3   4  260.42   16.22
  -4  -4  -4   60.18    9.01
  -4  -4   4   61.46    7.02
  -4  -4   4   53.55    7.34
  -4  -4   4   77.14    8.35
  -4   4   4   66.89   10.05
   4   4   4   52.22    8.87
  -4  -4  -4   43.68    9.09
   4   5  -4  264.34   15.05
   4   5   4  280.80   18.77
  -4   5   4  276.09   18.50
  -4  -5  -4  297.64   20.71
  -4  -5  -4  276.41   18.38
  -4  -5   4  268.68   15.97
  -4  -5   4  264.08   16.29
  -4   6   4  176.49   15.23
  -4  -6  -4  140.34   15.02
  -4  -6   4  163.62   13.32
   4   6   4  160.58   16.09
   4  -6  -4  143.69   15.12
  -4  -6   4  145.20   12.46
   4   6  -4  141.19   11.27
   4   7   4   81.62   12.83
  -4   7   4   83.21   12.96
   4  -7  -4   77.81   12.99
  -4  -7   4   73.65   10.75
  -4   0   5  599.29   25.59
   4   0   5  568.45   23.23
   4   0   5  582.32   22.26
  -4  -1  -5  188.17   11.23
  -4  -1   5  169.42   11.46
  -4   1   5  183.81   12.90
   4   1   5  164.35   11.33
   4  -1   5  189.28    9.46
   4  -1   5  157.18    7.32
   4   1   5  179.03   10.99
  -4  -2   5  418.10   19.53
  -4  -2  -5  428.09   21.08
  -4   2  -5  415.86   14.63
   4  -2   5  435.29   15.04
   4   2   5  441.83   21.06
  -4  -2   5  415.00   19.78
  -4  -2  -5  416.44   19.99
  -4   2   5  441.21   22.50
   4   2   5  408.34   20.96
  -4   2  -5  420.94   14.70
  -4   2   5  423.63   22.06
  -4   3  -5   85.62    4.94
  -4  -3   5   86.67    8.63
  -4   3   5  113.93   12.29
   4   3   5  105.42   11.18
  -4  -3  -5  103.86   11.45
   4   3   5   96.89   10.73
  -4  -3   5   83.52    8.57
  -4  -3  -5   82.34    9.89
  -4  -3   5   85.07    8.36
  -4  -4   5  188.62   12.17
   4   4   5  199.75   15.47
  -4   4   5  185.69   15.66
  -4  -4   5  202.71   13.16
  -4  -4  -5  208.59   16.23
  -4  -4   5  215.65   13.46
  -4  -4  -5  188.86   14.93
  -4  -5   5   46.87    7.88
  -4   5   5   63.29   11.39
  -4  -5  -5   29.73    9.39
   4   5   5   41.69    9.14
  -4  -5  -5   73.99   11.47
  -4  -5   5   62.75    8.59
  -4  -5   5   48.61    7.02
  -4  -6   5  111.69   11.66
   4   6   5   86.87   12.89
  -4   6   5  106.12   13.85
  -4  -6  -5  117.32   14.87
   4   7   5    5.27    6.11
  -4  -7   5    2.44    5.43
  -4   7   5    0.64    6.32
  -4   0   6  891.29   36.88
   4   0   6  923.43   34.74
   4   0   6  932.49   33.45
   4   1   6  490.61   22.19
  -4  -1   6  518.27   23.69
  -4   1  -6  504.47   18.65
  -4   1   6  502.12   24.99
   4  -1   6  495.61   18.09
   4   1   6  482.01   23.08
   4  -1   6  479.50   20.10
  -4  -2  -6   16.25    5.91
   4   2   6   21.70    6.19
   4   2   6   34.88    7.41
  -4  -2  -6   29.43    6.64
  -4   2   6   19.21    7.11
   4  -2   6   28.03    3.58
  -4  -2   6   26.70    5.97
   4   3   6  193.66   15.15
  -4  -3  -6  234.29   15.69
  -4  -3  -6  202.83   15.47
  -4  -3   6  223.86   13.66
  -4   3   6  198.33   16.45
  -4  -3   6  204.78   13.36
   4   4   6   -1.90    4.04
  -4  -4   6    1.16    3.62
  -4  -4  -6    5.16    5.20
  -4  -4   6    5.72    3.74
  -4   4   6   -3.26    5.24
  -4  -4  -6    2.81    5.52
  -4  -5   6  634.87   27.48
  -4  -5  -6  663.87   33.15
   4   5   6  663.09   33.88
  -4  -5   6  666.28   29.22
  -4   5   6  618.55   33.58
   4   6   6   28.85    9.00
  -4  -6   6    8.68    5.31
  -4   6   6    4.54    6.70
  -4   0   7   76.83   10.53
   4   0   7   78.27    8.78
   4  -1   7   19.60    4.75
   4   1   7   24.41    5.74
  -4   1   7   18.98    7.14
  -4  -1   7   25.34    6.93
   4   1   7   26.65    6.66
   4   2   7  423.88   22.89
  -4  -2   7  387.43   21.08
  -4   2   7  420.06   24.51
  -4  -2  -7  445.29   22.18
  -4   3   7   51.86   10.93
  -4  -3   7   47.95    8.05
   4   3   7   68.17   11.05
  -4  -3   7   63.02    8.29
  -4  -3  -7   65.04   10.27
  -4  -4  -7   51.69   10.45
  -4  -4   7   47.79    7.82
  -4   4   7   50.50   11.49
   4   4   7   43.33    9.38
   4   5   7    9.05    6.11
  -4   5   7   12.12    7.81
  -4  -5  -7    4.51    6.65
  -4   0   8   99.07   12.49
   4   0   8   78.01    9.61
  -4   1   8  243.46   18.27
   4   1   8  201.68   15.13
  -4  -1   8  212.39   16.35
  -4   2   8   66.60   12.01
   4   2   8   82.77   11.50
  -4  -2   8   72.62   10.25
  -4  -2  -8   70.51   10.32
  -4  -3  -8  189.38   15.99
   4   3   8  211.04   17.02
  -4  -3   8  195.54   14.90
  -4   3   8  203.16   19.46
   4   4   8    5.85    6.16
  -4  -4  -8    4.46    6.87
  -4   4   8    6.65    7.90
  -4   0   9  270.36   20.16
   4   1   9   18.22    6.58
  -4   1   9   23.55    9.45
  -4  -1   9   15.10    7.97
  -4   2   9   13.67    8.23
  -4  -2  -9   11.29    7.00
   4   2   9   24.66    8.00
  -4  -2   9    9.36    7.39
  -4   3   9    5.72    7.81
   4   3   9   16.23    7.45
  -4  -3  -9    3.84    6.58
  -5   0   0   -1.26    1.40
   5   0   0    0.04    1.37
  -5   0   0    3.68    1.71
   5   0   0    1.77    1.84
  -5   0   0   -0.09    1.78
  -5   1   0 1537.90   48.84
  -5   1   0 1511.78   48.65
  -5  -1   0 1535.31   51.40
   5   1   0 1476.21   47.11
   5   1   0 1503.77   50.08
   5   1   0 1507.42   51.16
   5  -1   0 1557.56   45.83
  -5  -1   0 1497.86   47.31
   5   2   0  379.34   15.63
   5   2   0  360.86   16.68
  -5  -2   0  342.94   16.65
   5  -2   0  362.70   14.18
   5   2   0  354.75   16.15
  -5  -2   0  356.79   15.30
  -5   2   0  349.71   14.35
   5   3   0  552.60   23.72
  -5   3   0  584.33   23.23
  -5  -3   0  580.70   25.24
   5   3   0  619.62   23.69
  -5  -3   0  544.02   22.85
  -5   3   0  580.43   21.93
   5   3   0  585.03   25.03
  -5  -4   0  627.10   28.14
  -5   4   0  612.46   25.77
   5  -4   0  603.67   23.39
   5   4   0  577.10   25.77
  -5   4   0  604.93   23.93
   5   4   0  631.18   27.56
  -5  -4   0  651.05   26.04
   5  -5   0  336.67   16.67
  -5  -5   0  362.32   20.82
   5   5   0  335.31   18.36
  -5   5   0  337.09   16.43
  -5   5   0  363.86   18.64
  -5  -5   0  338.14   18.59
  -5   6   0   77.18    8.25
   5   6   0   63.65    9.18
  -5  -6   0   68.29   10.97
  -5  -6   0   71.15    9.99
   5  -6   0   54.72    7.83
  -5   7   0  435.86   21.06
   5  -7   0  413.70   21.69
   5   7   0  416.84   23.37
  -5  -7   0  450.94   24.82
   5   8   0    0.98    4.48
   5   0   1   -0.02    1.62
  -5   0   1   -2.01    1.77
  -5   0   1    0.27    1.58
   5   0   1    1.21    1.46
  -5   0  -1    0.53    1.61
   5   0  -1   -1.65    1.35
  -5   0  -1   -0.52    1.06
  -5   0  -1   -2.67    1.55
  -5  -1   1  140.92    7.95
   5  -1  -1  146.56    7.38
   5   1   1  151.03    8.62
   5   1   1  134.97    8.32
   5  -1   1  144.60    5.76
   5   1  -1  142.62    8.62
  -5   1  -1  137.44    6.76
  -5   1   1  140.85    8.10
  -5  -1   1  124.94    8.42
  -5  -1  -1  132.74    8.38
   5   1  -1  148.63    7.98
   5   1   1  154.21    7.88
   5  -1   1  138.48    7.00
  -5  -1  -1  141.09    7.52
  -5   1  -1  142.35    6.96
   5   2  -1  895.96   32.27
   5   2  -1  836.81   31.00
  -5   2  -1  822.47   27.71
  -5  -2  -1  832.12   29.57
  -5   2   1  852.19   30.25
   5   2   1  808.18   31.04
   5   2  -1  896.15   30.02
   5   2   1  854.39   29.61
  -5  -2   1  832.31   29.69
  -5  -2   1  799.35   31.79
  -5  -2  -1  860.30   32.34
   5   2   1  850.29   32.05
  -5   2  -1  844.05   27.82
  -5  -3  -1  344.33   18.39
  -5   3  -1  368.17   14.33
   5   3   1  388.70   18.63
   5   3   1  362.59   17.67
   5  -3   1  373.38   13.87
  -5   3   1  360.01   17.46
  -5  -3  -1  374.43   17.22
   5  -3   1  372.16   13.83
  -5   3  -1  365.77   15.65
   5   3   1  391.74   17.50
  -5  -3   1  391.06   17.20
   5   3  -1  365.85   17.19
  -5  -3   1  335.35   17.81
  -5   3   1  360.20   16.70
   5   3  -1  382.97   18.25
   5   4   1  816.84   31.37
   5  -4   1  731.29   25.87
  -5   4   1  764.11   31.14
  -5   4   1  755.78   29.56
  -5  -4   1  734.36   29.37
   5  -4   1  772.92   26.21
   5   4   1  742.86   32.11
  -5   4  -1  755.63   28.78
  -5   4  -1  723.16   26.31
   5   4  -1  733.06   29.91
  -5  -4  -1  728.64   29.98
  -5  -4  -1  748.26   32.60
   5   4  -1  712.23   31.05
  -5  -4   1  766.33   32.09
  -5   5   1    7.36    4.34
  -5   5  -1    6.77    4.23
  -5  -5  -1    8.03    5.49
   5  -5   1    3.57    3.19
   5   5   1    0.98    3.37
   5  -5  -1   -2.16    3.39
  -5   5   1    8.32    5.28
  -5  -5   1    6.97    4.80
  -5   5  -1    3.42    2.88
  -5  -5  -1    2.42    3.85
  -5  -5   1    6.61    4.23
   5   5  -1    1.34    3.23
   5  -6   1  210.07   12.29
   5   6   1  194.99   14.52
   5  -6  -1  185.50   13.88
  -5  -6   1  189.79   15.55
  -5   6   1  203.43   13.69
  -5  -6   1  209.16   14.85
  -5   6  -1  196.56   11.36
   5   6  -1  183.38   13.52
  -5  -6  -1  191.50   16.75
  -5  -6  -1  214.14   15.60
  -5   6  -1  204.74   13.58
  -5  -7   1   15.64    6.35
   5  -7   1   17.24    5.44
   5  -7  -1   17.65    6.65
   5   7   1   17.47    6.37
  -5  -7  -1   10.83    6.40
   5   7  -1   15.52    5.69
  -5   7   1   18.82    6.27
   5   8   1   30.05    8.07
   5  -8  -1   42.44    9.77
   5   8  -1   30.37    7.81
  -5   0  -2   -0.12    1.76
   5   0   2    0.95    1.63
  -5   0  -2   -0.60    1.62
  -5   0  -2   -0.19    1.26
   5   0   2   -0.06    1.67
  -5   0   2   -1.72    1.61
   5   0  -2   -0.79    1.73
   5   0   2   -0.56    1.62
   5   1   2 1423.64   47.87
  -5  -1   2 1406.01   45.96
   5   1   2 1394.48   44.82
   5  -1   2 1467.16   45.32
  -5   1  -2 1474.53   45.20
  -5  -1  -2 1446.29   48.68
   5   1  -2 1401.83   45.83
  -5  -1  -2 1394.18   44.84
   5   1  -2 1414.91   48.21
   5   1   2 1388.72   48.35
  -5   1   2 1459.21   48.31
  -5   1  -2 1445.70   46.04
  -5  -1   2 1408.53   47.87
  -5  -2  -2 1149.69   39.13
  -5  -2   2 1215.22   39.60
  -5  -2  -2 1113.95   42.09
  -5   2  -2 1203.79   36.41
   5   2   2 1188.56   39.28
   5   2   2 1159.72   41.48
   5   2   2 1159.29   42.15
   5   2  -2 1130.78   39.07
  -5  -2   2 1118.60   41.89
  -5   2   2 1153.42   41.01
   5   2  -2 1158.61   40.87
  -5   2  -2 1189.30   36.39
   5   3   2  109.50    9.36
  -5   3  -2  117.53    6.62
  -5  -3   2  110.57    8.44
  -5   3   2  113.70    9.33
  -5   3  -2  101.16    4.75
  -5  -3  -2  114.90    8.86
   5   3   2  114.67    9.62
  -5  -3   2  106.13    8.80
  -5  -3  -2  109.03    9.81
  -5   3   2  106.35    9.49
   5   3  -2  111.50    8.94
  -5   3  -2  111.88    4.67
   5  -3   2  109.18    4.76
   5   3  -2  104.04    8.31
   5   4  -2   57.76    7.54
  -5  -4  -2   56.28    7.92
   5  -4   2   57.32    4.43
   5   4   2   40.78    7.24
   5   4   2   59.50    8.80
  -5   4  -2   58.40    5.56
  -5  -4  -2   60.48    9.34
  -5  -4   2   56.05    7.86
  -5   4   2   58.55    8.64
   5   4  -2   62.67    7.44
  -5   4   2   60.10    8.07
  -5   4  -2   58.52    3.80
  -5  -4   2   42.86    6.64
   5  -4   2   57.77    3.58
  -5   5  -2  398.85   15.19
  -5  -5   2  406.75   20.61
   5   5  -2  404.85   20.14
   5  -5   2  403.66   16.16
  -5  -5  -2  408.10   23.91
  -5   5   2  416.00   21.18
  -5  -5   2  372.21   21.33
  -5   5  -2  425.61   18.34
   5   5   2  410.77   22.08
  -5  -5  -2  437.21   22.21
  -5   6   2   13.29    5.90
   5  -6   2   20.10    4.52
   5  -6  -2   20.06    6.73
  -5  -6   2   20.28    6.64
   5   6  -2   27.99    6.27
  -5  -6  -2   31.45    7.67
   5   6   2   14.59    5.76
  -5  -6   2   31.67    7.27
  -5  -6  -2   20.48    8.36
  -5   7   2  206.69   15.44
  -5  -7   2  205.73   17.50
  -5  -7   2  211.64   16.28
  -5  -7  -2  205.51   17.29
   5   7  -2  189.00   14.40
   5  -7  -2  245.96   17.76
   5   7   2  224.21   17.04
   5  -8  -2   62.55   11.51
  -5   8   2   52.83    9.95
   5   8   2   74.48   12.46
   5   8  -2   62.80   10.03
  -5   0  -3    2.02    1.76
  -5   0  -3   -0.27    1.98
   5   0  -3   -1.63    1.81
   5   0   3   -2.68    1.29
  -5   0   3   -0.46    2.34
   5   0   3   -1.17    1.65
   5   1   3  627.06   24.47
  -5   1  -3  592.12   20.89
   5   1  -3  620.18   23.59
   5   1   3  632.39   24.29
  -5  -1   3  597.42   24.39
  -5   1  -3  592.73   18.96
  -5   1   3  604.43   25.02
  -5   1  -3  635.97   21.50
  -5  -1   3  634.94   23.78
   5  -1   3  652.03   21.58
  -5  -1  -3  624.86   24.43
  -5  -1  -3  644.14   22.84
  -5  -2   3  500.80   22.59
  -5  -2   3  488.09   21.54
   5   2   3  547.78   23.24
  -5  -2   3  534.94   21.72
   5   2   3  547.76   23.15
  -5   2   3  559.58   23.36
  -5  -2  -3  528.54   23.32
  -5  -2  -3  532.01   21.66
  -5   3   3  463.22   21.78
  -5  -3   3  414.64   19.86
  -5  -3  -3  400.96   19.48
  -5  -3   3  377.98   18.35
  -5   3   3  413.13   20.48
   5   3   3  382.80   20.13
   5   3  -3  409.74   18.87
   5   3   3  407.10   20.55
  -5  -3  -3  409.25   21.00
  -5   4  -3   60.41    4.26
  -5  -4  -3   59.15    9.70
   5   4  -3   72.23    7.89
  -5  -4  -3   60.58    8.71
  -5  -4   3   56.12    7.70
   5  -4   3   59.00    3.60
  -5  -4   3   65.64    8.47
   5   4   3   56.10    8.60
  -5   4   3   58.73    8.79
   5  -5   3    6.49    2.34
  -5  -5  -3    7.76    5.00
   5   5   3   10.72    5.56
  -5  -5  -3    3.50    5.92
   5   5  -3    6.55    3.87
  -5  -5   3   11.42    5.12
  -5   5   3    0.77    4.97
  -5  -5   3    1.59    3.58
   5  -6  -3   75.71   11.12
  -5  -6   3  100.75   11.82
   5   6  -3  119.57   11.22
  -5   6   3   86.18   11.36
  -5  -6  -3   91.61   12.43
  -5  -6   3  103.70   11.41
   5   6   3   91.11   12.00
  -5   7   3   51.37    9.74
   5  -7  -3   47.69   10.35
  -5  -7   3   46.42    9.11
   5   7  -3   55.03    8.67
   5   7   3   45.21    9.64
  -5  -7   3   48.61    9.82
  -5  -7  -3   45.34   10.56
  -5   0   4   -0.90    2.82
   5   0   4   -1.16    2.18
   5   0   4   -0.48    1.88
  -5   0  -4    1.99    2.52
  -5   0  -4    0.32    2.12
  -5   1  -4 1099.14   33.51
   5   1   4 1067.42   39.38
   5  -1   4 1141.06   36.33
  -5   1   4 1079.21   40.84
  -5  -1  -4 1051.47   39.35
  -5  -1   4 1131.90   40.19
  -5  -1  -4 1102.69   37.22
  -5   1  -4 1109.89   36.34
   5   1   4 1068.18   39.13
  -5  -2  -4    1.42    3.19
  -5  -2   4    7.28    3.57
  -5  -2  -4   -0.17    3.82
  -5  -2   4    0.40    2.33
  -5  -2   4    2.58    2.58
   5  -2   4    2.50    0.89
   5   2   4    3.93    3.41
   5   2   4    0.05    3.19
  -5   2   4    0.29    3.90
   5   3   4   21.08    5.94
  -5  -3  -4   41.85    7.92
  -5  -3  -4   33.66    6.70
   5   3   4   24.13    6.02
  -5  -3   4   32.63    6.22
  -5  -3   4   30.08    5.64
  -5   3   4   29.47    7.23
  -5  -3   4   21.44    5.22
   5   4  -4    6.23    3.76
  -5  -4  -4    1.76    5.41
  -5  -4   4    3.87    3.51
  -5  -4   4   14.91    4.48
  -5   4   4    5.07    5.61
  -5  -4  -4    9.95    5.18
  -5  -4   4    7.55    3.92
   5   4   4   13.58    5.36
  -5  -5  -4   65.27   11.54
   5   5  -4   80.40    8.90
  -5  -5   4  100.13   10.78
  -5   5   4   84.72   11.87
   5   5   4   88.43   12.00
  -5  -5   4   81.42    9.61
  -5  -5  -4   91.42   11.81
  -5  -6   4    1.47    4.16
   5   6   4    3.91    4.95
  -5   6   4   -1.79    5.13
  -5  -6   4    0.66    4.34
  -5  -6  -4   -0.99    5.02
   5   6  -4    2.56    4.08
   5   7   4  194.20   17.17
  -5   7   4  150.60   15.82
   5  -7  -4  135.16   15.85
  -5  -7   4  179.83   14.96
   5   0   5    0.20    2.15
  -5   0   5   -3.28    2.95
  -5   0  -5   -0.19    2.23
   5   0   5   -4.65    1.96
  -5   0  -5    1.06    2.69
  -5   1   5  484.66   23.74
   5   1   5  536.98   22.76
  -5  -1   5  481.83   22.64
   5  -1   5  501.58   19.27
   5  -1   5  487.03   17.34
  -5  -1  -5  517.91   21.15
  -5  -1  -5  493.62   21.71
   5   1   5  489.97   21.41
  -5   2   5  187.77   14.56
  -5  -2  -5  208.94   14.03
   5   2   5  216.08   14.28
  -5  -2   5  210.49   13.21
  -5   2  -5  208.99    8.16
   5  -2   5  228.46    8.46
  -5  -2   5  220.84   13.46
   5   2   5  217.18   13.64
  -5  -2  -5  199.44   13.14
  -5   2  -5  215.42    7.71
  -5  -3   5   22.30    5.44
  -5  -3   5   36.23    6.58
  -5   3   5   44.89    8.91
   5   3   5   37.23    7.58
  -5  -3   5   41.35    6.86
  -5  -3  -5   31.36    7.89
  -5  -3  -5   40.31    7.76
  -5  -4  -5  511.43   25.86
  -5   4   5  458.17   26.47
  -5  -4   5  529.64   23.54
  -5  -4   5  512.71   23.88
  -5  -4  -5  501.98   27.41
   5   4   5  537.63   27.19
  -5  -4   5  509.04   24.35
  -5  -5   5   74.62    9.91
  -5  -5   5   59.24    8.34
   5   5   5   68.90   11.50
  -5  -5  -5   66.76   10.92
  -5   5   5   62.71   11.56
  -5  -5   5   80.65    9.95
   5   6   5    0.22    4.87
  -5  -6  -5    0.50    5.78
  -5   6   5    4.90    6.33
  -5  -6   5   -0.68    3.71
  -5  -6   5    3.42    4.69
   5   7   5    9.93    6.68
  -5   7   5    2.04    6.18
  -5  -7   5   17.60    7.29
  -5   0   6    1.37    4.03
   5   0   6    0.81    3.15
   5   0   6   -0.12    2.29
  -5  -1  -6  753.01   29.85
   5  -1   6  762.07   27.55
   5   1   6  718.85   30.42
  -5  -1   6  733.13   31.50
  -5   1   6  696.86   32.45
  -5  -1  -6  749.60   29.13
   5  -1   6  745.85   25.16
   5   1   6  723.25   29.57
  -5   2   6  107.67   12.51
  -5  -2  -6   96.19   10.00
   5   2   6   97.41    9.97
   5   2   6   90.99   10.49
  -5  -2  -6  107.40   10.87
  -5  -2   6  104.27   10.20
  -5  -2   6   84.41    9.55
  -5   3   6  110.51   13.44
  -5  -3   6  164.48   12.05
  -5  -3   6  149.76   11.63
  -5  -3  -6  168.17   13.82
   5   3   6  152.38   13.32
  -5  -3  -6  172.60   13.49
  -5  -4  -6  138.69   14.16
  -5   4   6  147.76   15.81
  -5  -4  -6  147.67   15.47
  -5  -4   6  141.19   11.48
   5   4   6  111.84   13.42
  -5  -4   6  144.68   11.68
  -5   5   6   18.96    8.61
  -5  -5   6   33.90    7.10
  -5  -5   6   23.73    6.92
  -5  -5  -6   38.86    9.85
   5   5   6   32.84    9.23
  -5  -6   6   43.72    9.05
   5   6   6   62.55   12.18
  -5   6   6   57.95   12.13
   5   0   7   -2.14    2.89
  -5   0   7   -1.44    4.66
  -5   1   7   33.73    8.34
   5  -1   7   49.38    6.24
   5   1   7   45.13    7.82
  -5  -1   7   67.70    9.96
  -5  -1  -7   40.00    7.28
  -5  -2  -7   50.27    8.57
   5   2   7   55.84    9.17
  -5  -2   7   55.73    8.56
  -5  -2   7   62.87    9.31
  -5   2   7   65.07   10.86
  -5  -3  -7   43.81    9.25
  -5  -3   7   56.86    8.67
  -5  -3  -7   48.68    9.14
   5   3   7   53.48    9.89
  -5   3   7   59.84   11.93
  -5  -3   7   53.54    8.67
   5   4   7  449.34   26.37
  -5  -4   7  418.75   22.25
  -5  -4  -7  449.34   25.65
  -5   4   7  446.37   27.67
  -5  -5  -7    5.00    6.92
  -5   5   7   -0.86    6.55
   5   5   7    6.59    6.18
   5   0   8    3.37    4.04
  -5   0   8   -6.24    4.57
  -5  -1  -8  316.21   18.50
   5   1   8  336.89   19.82
  -5  -1   8  382.91   22.27
   5   2   8   77.46   10.88
  -5  -2  -8   84.62   11.12
  -5   2   8   70.81   12.56
  -5  -2   8   79.72   11.13
  -5  -3   8    6.60    6.07
  -5   3   8    9.68    7.49
  -5  -3  -8   18.65    7.45
   5   3   8   14.67    6.85
  -5  -4  -8   10.02    7.29
   5   4   8   17.09    7.41
  -5   4   8   13.96    8.57
  -5   0   9   -6.24    5.58
  -5   1   9    6.77    7.55
  -5  -1   9    5.48    7.12
   5   1   9   19.51    6.91
  -5  -2   9  112.13   13.84
   5   2   9  125.07   14.39
  -5   2   9  151.50   17.97
   6   0   0 1895.26   62.75
  -6   0   0 1892.84   58.83
  -6   0   0 1936.77   64.14
   6   0   0 2038.82   59.14
  -6  -1   0 1062.52   36.28
   6   1   0 1152.20   36.48
   6  -1   0 1125.41   34.81
  -6  -1   0 1120.90   39.85
  -6   1   0 1135.47   37.38
   6   1   0 1053.65   38.57
   6   2   0  154.43   10.13
  -6   2   0  166.72    8.92
   6   2   0  166.66   10.57
   6   2   0  182.47   10.24
  -6  -2   0  161.97   10.68
  -6  -2   0  163.90    9.63
  -6   3   0  451.20   18.26
   6   3   0  453.13   21.38
   6   3   0  467.18   20.68
  -6  -3   0  435.96   21.41
  -6  -3   0  421.91   19.39
  -6  -4   0   50.20    8.22
   6   4   0   58.61    8.45
   6   4   0   72.56    8.58
  -6   4   0   49.74    7.00
  -6   4   0   60.23    6.67
  -6  -4   0   47.37    7.06
   6   5   0  156.33   12.27
  -6  -5   0  122.91   13.18
  -6   5   0  170.94   12.65
  -6  -5   0  163.04   12.23
   6  -5   0  175.07   11.16
  -6   5   0  143.62   10.41
   6  -6   0   15.75    5.28
  -6  -6   0   17.94    6.20
  -6  -6   0    8.56    6.08
  -6   6   0   13.05    4.91
   6   6   0   11.99    5.24
  -6  -7   0   24.11    7.59
   6   7   0   19.33    6.47
   6  -7   0    9.46    5.26
   6   8   0    3.86    5.04
  -6   0  -1 4456.35  131.88
  -6   0   1 4451.50  133.13
   6   0   1 4632.60  139.83
  -6   0   1 4534.69  140.24
  -6   0  -1 4537.85  142.39
   6   0   1 4579.29  131.91
   6   0  -1 4617.25  133.26
   6   1   1  597.95   21.60
  -6  -1  -1  595.68   21.60
   6   1   1  579.64   23.70
   6   1  -1  620.27   22.44
  -6   1   1  605.09   22.96
   6  -1   1  632.18   21.94
  -6   1  -1  638.20   21.81
   6   1  -1  596.69   23.73
  -6   1  -1  609.62   21.47
  -6  -1   1  560.40   22.03
   6  -1  -1  625.62   21.44
   6  -1   1  556.72   19.27
  -6  -1   1  601.35   24.44
  -6  -1  -1  568.55   23.66
   6   1   1  605.92   23.49
  -6   2  -1  239.09   10.14
  -6  -2   1  238.77   13.26
   6   2   1  201.55   12.29
  -6  -2  -1  213.87   12.89
   6  -2   1  239.97    8.77
   6   2   1  219.02   11.83
  -6  -2   1  220.27   11.92
   6   2  -1  240.25   12.22
   6   2  -1  237.17   13.21
   6   2  -1  227.85   12.56
   6   2   1  237.33   13.16
  -6  -2  -1  227.60   11.77
  -6   2   1  233.72   11.88
  -6   2  -1  246.94   10.27
  -6   3  -1   13.72    3.03
  -6   3   1   14.06    4.14
   6   3   1    9.03    3.52
   6   3  -1    7.05    3.41
  -6  -3  -1    6.00    3.93
  -6  -3   1   16.03    4.31
   6   3   1    3.26    3.26
   6   3  -1   24.95    5.55
  -6  -3  -1   11.59    3.92
   6  -3   1   10.78    2.44
  -6  -3   1    8.04    3.95
  -6   3  -1   14.87    3.72
  -6  -4  -1  174.36   13.55
  -6   4   1  190.83   12.19
   6  -4   1  170.31    9.22
  -6   4  -1  185.54   11.26
  -6   4   1  175.15   12.56
  -6  -4   1  176.48   11.96
   6   4  -1  183.12   12.18
  -6  -4   1  173.07   13.11
   6   4  -1  189.75   13.03
  -6   4  -1  173.02    9.52
   6   4   1  198.33   13.76
   6   4   1  181.51   12.64
  -6  -4  -1  183.57   12.54
  -6   5   1   51.20    7.64
  -6   5  -1   76.05    8.26
   6  -5   1   69.89    6.55
  -6   5  -1   67.60    6.36
  -6   5   1   63.84    9.29
   6   5   1   50.73    8.43
  -6  -5  -1   49.78    8.21
  -6  -5  -1   64.85   10.47
   6   5  -1   51.91    7.97
  -6  -5   1   66.63   10.03
  -6  -5   1   70.54    9.30
  -6  -6   1  119.60   13.67
   6   6   1   78.59   10.74
   6  -6  -1   89.47   10.27
   6  -6   1  114.90    8.81
  -6  -6  -1  104.63   14.06
  -6  -6  -1  117.64   13.02
  -6   6   1  101.40   10.35
   6   6  -1  102.65   11.12
  -6  -6   1   96.98   11.55
  -6   6  -1  111.59    8.39
  -6   6  -1  102.66   10.35
  -6  -7  -1   31.95    8.90
  -6  -7   1   12.38    6.33
   6   7  -1   17.20    6.18
  -6   7   1   17.68    6.11
   6   7   1   19.78    7.01
   6  -7  -1   14.80    6.48
   6   8   1   58.81   11.00
   6   8  -1   48.21    9.40
  -6   0  -2 1240.20   38.54
  -6   0   2 1284.90   43.49
   6   0  -2 1276.36   41.07
   6   0   2 1205.83   42.15
  -6   0  -2 1212.21   42.32
   6   0   2 1256.35   41.99
   6   0   2 1276.78   38.74
   6   1   2   58.02    6.03
  -6   1   2   59.58    6.45
  -6  -1  -2   53.37    5.90
  -6  -1  -2   60.99    5.46
  -6  -1   2   59.14    6.76
   6  -1   2   66.80    4.80
   6   1  -2   57.67    6.51
   6  -1   2   65.37    3.38
  -6  -1   2   67.94    6.39
   6   1   2   72.27    6.72
  -6   1  -2   56.12    4.48
   6   1  -2   58.46    5.98
  -6  -1   2   62.80    6.52
  -6   1  -2   62.09    4.70
   6  -1  -2   57.21    5.58
   6   1   2   56.10    5.26
  -6   2  -2  658.24   22.59
  -6  -2   2  686.22   26.21
   6   2   2  678.23   27.37
  -6  -2   2  643.33   27.74
  -6   2   2  692.26   27.15
  -6   2  -2  671.49   22.78
   6   2   2  729.83   26.09
   6   2   2  720.32   28.15
   6   2  -2  664.69   27.06
  -6  -2  -2  690.09   25.84
  -6  -2  -2  696.71   28.21
   6  -3   2 1236.10   36.82
   6   3   2 1234.66   46.64
  -6   3   2 1266.59   44.96
   6   3  -2 1229.29   44.74
  -6  -3  -2 1237.62   43.63
  -6  -3  -2 1252.80   47.16
  -6  -3   2 1167.67   45.96
  -6  -3   2 1273.19   43.59
   6   3   2 1243.28   45.66
  -6   3  -2 1259.90   41.42
  -6   3  -2 1229.79   38.87
  -6   3  -2 1238.02   39.12
  -6  -4  -2   13.89    6.10
   6   4   2   11.66    4.71
  -6  -4  -2   15.04    4.94
   6   4  -2   17.24    4.85
  -6   4   2   23.90    6.40
  -6  -4   2    9.04    4.61
   6  -4   2   21.15    2.73
  -6   4  -2   19.82    2.37
  -6   4  -2   22.30    4.36
  -6  -4   2   15.58    4.60
  -6   4  -2   14.95    2.44
   6   4  -2   12.26    4.72
  -6   4   2   20.29    5.92
  -6   5   2  639.03   29.20
   6   5   2  663.49   30.65
  -6   5  -2  679.73   26.44
  -6  -5   2  694.55   29.55
  -6  -5  -2  691.98   30.72
   6   5  -2  600.21   28.38
  -6  -5   2  687.82   31.58
  -6  -5  -2  686.12   33.43
   6  -5   2  674.36   23.36
  -6  -6   2   30.44    7.96
  -6   6   2   28.12    7.49
  -6  -6  -2   30.91    7.92
  -6  -6   2   30.50    7.41
  -6  -6  -2   22.63    8.78
   6   6   2   30.36    7.64
   6  -6  -2   17.80    6.64
   6   6  -2   35.90    7.30
   6  -7  -2   21.14    7.92
  -6  -7   2   36.82    8.88
   6   7  -2   38.87    8.20
  -6  -7  -2   40.47    9.76
  -6   7   2   19.88    6.68
   6   7   2   37.38    8.78
   6   8   2   -0.70    4.58
  -6   8   2    5.96    5.61
   6  -8  -2   -9.51    5.23
   6   8  -2    9.00    5.59
  -6   0  -3  973.27   31.40
   6   0   3 1004.49   34.33
  -6   0  -3  947.08   34.23
   6   0   3 1007.51   34.50
  -6   0   3  999.04   36.53
  -6  -1   3   17.48    4.35
  -6   1  -3   13.86    1.38
  -6   1   3   13.97    4.18
  -6   1  -3   19.52    3.15
  -6  -1   3   19.69    4.25
  -6  -1  -3   13.18    4.00
   6   1   3   11.38    3.58
  -6   1  -3   15.67    2.58
   6   1   3   19.28    4.51
   6  -1   3   11.94    2.61
  -6  -1  -3   12.28    3.24
  -6  -2   3  598.65   24.68
  -6  -2  -3  615.13   23.79
  -6   2  -3  584.93   19.17
  -6  -2   3  595.41   24.13
  -6   2  -3  604.24   19.44
   6   2   3  618.64   25.62
  -6  -2   3  555.08   25.27
  -6   2  -3  567.16   19.56
  -6   2   3  575.42   25.36
   6   2   3  606.82   25.39
  -6  -2  -3  564.89   25.33
  -6   3   3  172.43   12.77
   6   3   3  195.51   13.36
  -6  -3  -3  170.99   11.80
   6   3  -3  184.00   11.85
  -6  -3   3  177.05   11.68
  -6  -3   3  166.39   12.12
  -6   3  -3  182.79    7.20
  -6  -3  -3  192.68   13.71
   6   3   3  149.47   11.69
  -6  -4  -3  362.76   19.61
   6   4   3  338.62   20.00
   6   4  -3  319.23   17.99
  -6  -4  -3  397.88   22.16
  -6  -4   3  367.76   19.98
  -6   4  -3  382.71   14.00
  -6   4   3  358.07   20.02
  -6  -4   3  376.60   19.03
  -6  -5  -3  265.93   19.39
  -6  -5   3  231.71   16.34
   6   5   3  268.95   17.86
  -6   5   3  241.82   17.01
  -6  -5   3  240.58   15.76
   6   5  -3  257.08   15.64
  -6  -5  -3  252.51   17.12
  -6   6   3  220.02   16.73
  -6  -6  -3  241.21   18.04
   6   6   3  234.55   17.66
   6   6  -3  252.37   16.14
  -6  -6   3  201.48   16.41
  -6  -6   3  247.34   16.72
  -6  -7   3   23.07    7.45
  -6   7   3   19.87    7.46
   6   7  -3   22.34    6.49
   6  -7  -3   27.48    9.31
  -6  -7  -3   11.84    7.50
   6   7   3   22.53    7.45
   6   0   4  297.15   13.97
  -6   0   4  296.88   16.18
   6   0   4  297.73   13.24
  -6   0  -4  277.59   13.27
  -6   0  -4  302.79   12.42
  -6  -1   4  102.64    8.97
  -6   1  -4  106.51    5.77
  -6  -1  -4   97.90    7.50
  -6   1  -4   97.92    6.96
   6   1   4   92.04    8.08
  -6   1  -4  104.19    4.78
   6  -1   4  106.26    6.45
  -6  -1  -4   94.51    8.23
   6   1   4   92.41    7.67
  -6   1   4  105.73   10.06
  -6  -2   4   45.31    6.68
  -6  -2  -4   48.75    7.39
  -6  -2   4   34.40    6.48
   6   2   4   52.18    7.24
   6   2   4   36.08    6.47
  -6  -2   4   40.53    6.54
  -6  -2  -4   36.98    6.02
  -6   2   4   36.95    6.99
  -6   3   4 1182.80   46.83
  -6  -3  -4 1255.40   48.00
  -6  -3   4 1204.39   44.73
   6   3   4 1291.88   47.40
  -6  -3   4 1227.56   46.53
  -6  -3  -4 1174.83   44.31
   6   3   4 1196.91   46.98
  -6  -3   4 1198.06   43.84
  -6  -4  -4   38.77    7.99
   6   4   4   26.52    6.76
  -6   4   4   34.04    8.32
  -6  -4   4   38.31    6.94
  -6  -4   4   39.85    6.85
  -6  -4   4   45.35    7.74
   6   4  -4   41.72    7.03
  -6  -4  -4   55.50    9.97
  -6  -5  -4  428.19   26.04
   6   5  -4  413.91   21.40
  -6  -5   4  417.50   22.81
  -6   5   4  408.93   23.76
  -6  -5  -4  443.88   24.25
  -6  -5   4  402.62   21.69
  -6   6   4    2.43    5.72
  -6  -6   4    6.36    5.14
  -6  -6   4    1.19    4.67
   6   6  -4    3.14    4.26
  -6  -6  -4    0.54    4.85
   6   6   4   -5.95    3.47
  -6   7   4   39.16    9.91
   6  -7  -4   37.15   10.69
  -6  -7   4   32.78    8.27
   6   7  -4   32.46    7.69
   6   7   4   41.52    9.80
   6   0   5  178.21    9.54
  -6   0  -5  179.56    9.46
  -6   0   5  169.24   12.53
   6   0   5  156.04   10.14
  -6   0  -5  161.82    9.66
  -6  -1  -5  183.40   11.84
  -6  -1   5  175.41   12.59
  -6  -1  -5  172.91   10.84
  -6   1  -5  177.88    8.11
   6   1   5  187.73   12.29
  -6   1   5  197.82   14.01
   6  -1   5  183.43    9.54
   6   1   5  189.54   11.44
  -6  -2   5  403.36   20.14
  -6  -2   5  418.61   20.88
   6  -2   5  399.80   13.85
  -6  -2  -5  381.35   18.98
   6   2   5  394.78   20.07
  -6   2   5  394.26   21.82
  -6  -2  -5  395.06   20.59
   6   2   5  389.01   20.47
  -6  -3   5   44.36    7.30
  -6  -3   5   46.88    7.74
  -6  -3  -5   62.88    8.87
  -6   3   5   56.73    9.75
   6   3   5   58.01    9.28
  -6  -3   5   59.25    8.15
  -6  -3  -5   65.43   10.00
  -6   4   5   21.78    7.53
   6   4   5   17.01    6.13
  -6  -4   5   19.37    6.02
  -6  -4   5   20.06    5.98
  -6  -4   5   18.00    5.77
  -6  -4  -5   13.21    6.00
  -6  -4  -5   20.61    7.75
   6   5   5   82.67   12.59
  -6  -5   5   73.64    9.25
  -6  -5   5   68.46    9.87
  -6   5   5   77.78   12.22
  -6  -5   5   91.70   11.15
  -6  -5  -5   87.54   12.51
  -6  -6   5   91.78   10.63
  -6  -6  -5   97.81   14.21
  -6  -6   5   63.37   10.21
   6   6   5   75.96   12.72
  -6   6   5   78.40   13.30
   6   0   6  152.95    9.41
  -6   0  -6  156.12    9.74
  -6   0   6  170.44   13.45
   6   0   6  167.80   11.00
   6  -1   6  461.25   18.29
   6   1   6  416.33   20.94
  -6  -1  -6  445.06   19.85
  -6   1  -6  422.43   16.30
  -6   1   6  420.81   23.30
  -6  -1  -6  390.53   19.85
   6   1   6  434.13   20.11
  -6  -1   6  441.95   22.46
  -6   2   6  120.16   13.08
  -6  -2  -6  106.54   11.01
  -6  -2   6  100.19   10.68
  -6  -2   6   99.44   10.64
  -6  -2  -6  117.06   10.95
   6   2   6  113.79   10.34
   6   2   6   80.06    9.95
  -6  -3  -6  438.02   24.33
  -6  -3   6  444.75   22.60
  -6  -3   6  439.16   22.96
  -6  -3  -6  452.82   23.33
   6   3   6  435.25   23.99
   6   4   6   57.85   10.05
  -6  -4  -6   78.85   11.47
  -6  -4   6   96.93   10.93
  -6  -4   6   83.87   10.12
  -6   4   6   84.52   13.34
  -6  -4  -6   65.57   11.86
  -6  -4   6   80.51   10.32
   6   5   6  135.95   15.64
  -6  -5  -6  122.30   14.75
  -6   5   6  160.59   17.60
  -6  -5   6  121.09   12.62
  -6  -5   6  137.02   12.03
  -6   6   6    9.09    7.72
   6   6   6   -0.98    4.91
  -6  -6   6    3.07    5.26
   6   0   7  388.58   18.50
  -6   0   7  305.48   20.28
  -6   0  -7  343.52   16.52
  -6  -1   7   12.65    6.17
   6   1   7   13.07    5.24
  -6   1   7   18.57    7.20
  -6  -1  -7   18.91    5.40
  -6  -2   7  111.25   12.05
  -6  -2   7  112.90   12.12
   6   2   7   97.65   11.56
  -6  -2  -7  128.62   12.16
  -6   2   7   88.41   12.72
  -6  -2  -7  123.62   11.97
  -6  -3   7   59.81    9.44
   6   3   7   54.06   10.11
  -6  -3   7   58.41    9.24
  -6   3   7   43.15   10.30
  -6  -3  -7   51.97    9.65
  -6  -3  -7   51.56    9.87
  -6   4   7  124.40   16.03
   6   4   7  162.49   16.64
  -6  -4   7  145.96   12.92
  -6  -4  -7  133.40   14.47
  -6   5   7   -5.40    6.25
   6   5   7   18.09    7.40
  -6  -5  -7    9.72    7.32
  -6   0   8   -1.38    5.48
   6   1   8   46.72    8.59
  -6  -1   8   46.04    9.93
  -6   1   8   46.11   10.49
   6   2   8    7.22    5.36
  -6  -2  -8    0.06    5.06
  -6  -2   8    4.53    6.18
  -6  -2   8   11.26    5.61
  -6   2   8    0.38    5.89
  -6  -3   8  101.63   12.43
  -6   3   8   44.17   11.20
  -6  -3  -8   68.74   11.03
   6   3   8  109.32   13.83
   6   4   8   21.98    8.33
  -6  -4  -8   21.35    8.54
  -6   4   8    2.70    7.06
  -6   0   9  146.90   16.90
  -6  -1   9   19.19    8.76
  -6   1   9   22.78    9.19
  -6  -2   9   44.59   10.55
  -6   2   9   15.18    9.08
   6   2   9   53.29   10.29
   7   0   0    2.91    2.44
  -7   0   0    1.60    1.85
   7   0   0   -0.24    1.70
  -7   0   0   -2.05    1.87
  -7  -1   0  144.84    8.76
   7  -1   0  163.55    8.04
   7   1   0  150.74    9.91
   7   1   0  165.31    9.29
  -7   1   0  152.51    8.99
  -7  -1   0  166.16   10.45
   7   2   0    8.38    3.31
  -7  -2   0    6.27    3.58
   7   2   0    3.68    3.04
  -7  -2   0    9.22    3.26
   7  -2   0   12.88    2.72
   7   2   0    2.41    2.67
  -7   2   0    9.80    2.95
   7   3   0    0.84    2.94
  -7  -3   0   -0.87    2.56
  -7  -3   0   -1.51    3.01
  -7   3   0    1.88    2.70
   7   3   0   -0.59    2.61
   7   4   0  279.49   17.01
  -7  -4   0  344.11   19.54
  -7   4   0  300.40   16.37
  -7   4   0  321.29   15.46
  -7  -4   0  332.26   17.49
   7   5   0   -3.88    2.64
  -7  -5   0    1.53    3.28
  -7   5   0   -1.78    4.40
  -7   5   0    0.27    3.76
  -7  -5   0    2.46    4.35
   7  -5   0   -2.22    3.27
  -7  -6   0   35.91    7.93
   7   6   0   19.99    6.00
  -7  -6   0   34.05    9.05
   7  -6   0   30.74    6.59
  -7   6   0   28.00    6.11
   7   7   0  430.29   24.93
  -7  -7   0  472.26   26.54
   7   8   0    3.75    5.12
   7   0  -1    1.47    1.97
  -7   0   1   -0.90    2.07
   7   0   1   -0.06    1.62
  -7   0  -1   -0.27    1.41
  -7   0   1    1.33    1.91
   7   0   1   -0.36    1.93
  -7   0  -1   -1.15    1.88
   7   1   1  233.05   12.63
  -7  -1   1  228.86   11.78
  -7  -1  -1  237.50   11.36
  -7  -1  -1  226.72   12.66
   7  -1   1  233.61    9.46
   7   1  -1  211.49   12.52
   7   1   1  236.56   12.64
  -7  -1   1  240.87   13.36
  -7   1   1  239.18   12.29
  -7   1  -1  251.54   11.20
   7   1  -1  229.33   11.79
   7   1   1  244.64   11.44
   7  -1  -1  236.84   11.11
   7  -1   1  239.87   11.36
  -7   1  -1  214.38   11.23
   7   2  -1  246.46   13.94
  -7   2  -1  240.25   11.07
   7  -2   1  263.16    9.77
  -7   2  -1  253.09   11.38
  -7   2   1  251.87   12.94
  -7  -2   1  260.68   13.37
  -7  -2  -1  267.49   13.12
  -7  -2  -1  230.73   14.01
   7   2   1  265.05   13.26
  -7  -2   1  238.69   14.30
   7   2   1  235.00   13.89
   7   2   1  251.21   14.02
  -7   3   1  258.30   14.08
  -7   3  -1  277.11   12.09
   7   3  -1  230.21   14.44
  -7  -3  -1  261.22   16.03
   7   3  -1  283.50   16.07
  -7  -3   1  273.18   14.71
  -7  -3  -1  273.05   14.62
  -7  -3   1  268.90   16.04
   7   3   1  247.45   14.81
   7   3   1  274.58   15.99
   7  -4   1  261.73   11.91
  -7   4  -1  251.58   12.45
   7   4  -1  259.00   15.54
  -7   4   1  266.85   16.05
  -7   4   1  267.69   14.97
  -7  -4  -1  282.21   15.86
  -7  -4   1  272.68   17.10
  -7  -4   1  241.74   15.08
  -7   4  -1  261.49   14.23
   7   4   1  279.58   16.51
  -7  -4  -1  264.51   17.43
  -7  -5   1    7.01    5.14
   7   5   1    8.53    4.86
  -7   5  -1    8.84    4.85
  -7  -5   1    9.11    4.58
   7  -5   1   10.43    3.61
  -7   5   1    5.21    4.81
  -7   5  -1    9.90    3.75
  -7  -5  -1    6.18    4.74
   7   5  -1    5.23    4.19
  -7  -5  -1    7.26    5.46
   7   6   1  170.79   14.55
   7   6  -1  183.28   14.23
  -7  -6  -1  209.98   15.93
  -7   6   1  190.68   13.75
  -7  -6   1  200.52   16.78
  -7  -6   1  212.10   15.61
   7  -6   1  200.28   11.70
   7  -6  -1  172.82   13.72
  -7  -7  -1  120.05   14.51
   7   7  -1   88.38   11.52
  -7   7   1  109.04   11.40
   7  -7  -1  107.08   12.13
   7   7   1   92.55   12.70
  -7  -7   1  118.59   13.75
   7   8   1   14.64    6.48
   7   8  -1   14.43    6.45
   7   0  -2    2.15    2.31
  -7   0  -2    0.60    2.14
   7   0   2    1.29    2.10
  -7   0   2   -2.49    2.23
   7   0   2    0.10    1.81
  -7   0  -2    0.80    1.38
   7   1   2 1342.41   43.35
   7  -1   2 1351.88   40.26
  -7   1  -2 1427.34   44.37
   7   1  -2 1382.76   44.95
  -7  -1  -2 1267.29   46.98
   7   1   2 1341.95   46.69
  -7  -1   2 1346.89   47.03
  -7   1  -2 1308.11   44.92
  -7   1   2 1326.19   46.88
   7  -1  -2 1347.99   44.01
   7  -1   2 1343.38   44.26
   7   1  -2 1337.89   47.37
  -7  -1   2 1299.48   44.73
  -7  -1   2 1287.00   48.32
  -7  -1  -2 1336.41   43.31
   7   1   2 1372.71   47.36
  -7   2  -2  566.34   20.08
   7   2   2  593.77   23.14
  -7  -2  -2  595.24   23.11
  -7  -2  -2  559.61   25.01
   7   2   2  552.42   24.41
   7   2  -2  587.97   24.77
  -7  -2   2  552.61   25.17
  -7   2  -2  591.01   20.43
  -7  -2   2  544.01   23.25
   7   2   2  572.85   25.03
  -7   2   2  562.32   24.09
  -7  -3  -2  184.18   13.52
   7   3  -2  184.75   12.47
  -7   3   2  192.86   12.83
   7   3   2  160.04   12.34
  -7   3  -2  197.29    9.99
  -7  -3   2  210.85   13.71
   7  -3   2  199.92    6.69
  -7   3  -2  195.23    8.65
  -7   3  -2  206.10    8.56
  -7  -3   2  173.32   11.95
  -7  -3  -2  203.41   12.62
   7   3   2  181.19   13.02
  -7   4  -2  118.85    6.38
  -7  -4  -2  107.48   11.88
  -7  -4   2   95.40    9.96
   7   4  -2  117.23   10.31
  -7   4   2  118.22   11.66
  -7  -4  -2   88.04    9.89
  -7  -4   2  132.21   11.53
   7   4   2   78.34    9.83
  -7   4  -2  129.28    8.56
   7  -4   2  117.83    5.66
  -7   4   2  109.33   10.58
  -7   5  -2  169.03   11.03
   7  -5   2  167.91    8.39
  -7  -5   2  163.73   13.97
   7   5  -2  172.93   12.92
  -7  -5  -2  188.14   15.92
  -7  -5   2  163.45   13.04
  -7  -5  -2  175.28   13.95
   7   5   2  156.66   13.64
  -7   5   2  161.47   13.09
  -7   6   2    7.20    5.64
  -7  -6  -2   14.08    6.61
  -7  -6   2   21.55    7.28
   7   6  -2   23.64    6.70
  -7  -6   2   27.62    7.18
   7   6   2   27.41    7.59
  -7   7   2  263.58   18.12
   7  -7  -2  276.47   19.07
  -7  -7  -2  301.19   21.43
   7   7  -2  262.59   18.40
   7   7   2  288.08   20.41
  -7  -7   2  300.39   20.39
  -7   0  -3   -2.36    1.47
   7   0   3   -0.53    1.97
   7   0   3    2.79    2.28
  -7   0  -3    0.62    2.50
  -7   0   3   -0.31    2.88
  -7  -1  -3  488.82   22.09
  -7  -1  -3  517.23   20.28
  -7  -1   3  536.26   22.12
  -7  -1   3  531.36   23.15
   7   1   3  545.71   22.50
  -7   1   3  525.01   23.50
  -7   1  -3  513.10   19.57
   7   1   3  520.32   22.32
  -7   1  -3  547.53   19.95
  -7   1  -3  508.51   16.36
   7  -1   3  559.82   20.05
  -7  -2  -3  261.11   13.68
   7   2   3  244.67   14.58
  -7   2   3  249.60   15.17
  -7  -2   3  260.38   14.68
  -7  -2   3  254.86   14.23
   7   2   3  260.99   14.76
  -7   2  -3  264.40   10.08
  -7   2  -3  251.13   10.36
  -7  -2   3  259.12   15.38
  -7  -2  -3  239.82   14.70
  -7   2  -3  264.67   10.38
   7   3   3   40.03    7.26
  -7   3  -3   34.96    3.02
  -7  -3  -3   35.02    6.52
   7   3  -3   29.98    5.98
  -7  -3   3   28.11    6.31
  -7   3  -3   35.32    3.58
  -7   3   3   32.42    6.95
  -7  -3  -3   26.98    6.84
   7   3   3   23.58    5.85
  -7  -3   3   35.89    6.48
  -7  -4   3  527.71   26.19
  -7  -4   3  553.79   24.97
  -7   4   3  535.60   25.82
  -7  -4  -3  530.71   27.63
  -7   4  -3  519.28   19.14
   7   4  -3  527.06   24.72
  -7  -4  -3  511.09   24.98
   7   4   3  521.14   26.22
   7   5  -3   -1.46    3.49
  -7  -5   3    5.98    4.47
  -7   5   3    4.22    5.53
   7   5   3    1.42    4.09
  -7  -5   3   13.01    5.40
  -7  -5  -3   -6.34    3.54
  -7  -5  -3    6.98    6.15
   7   6   3  277.85   19.98
  -7  -6   3  311.65   19.63
  -7  -6   3  331.84   21.20
   7   6  -3  262.27   17.78
  -7   6   3  283.52   19.44
  -7  -6  -3  327.78   21.42
   7   7   3   42.16    9.84
   7  -7  -3   70.40   12.73
  -7   7   3   47.33   10.04
  -7  -7   3   66.37   11.51
   7   7  -3   55.98    9.56
   7   0   4   -0.04    1.99
  -7   0  -4   -0.11    2.81
   7   0   4   -1.12    2.06
  -7   0   4    1.82    3.46
  -7   0  -4    1.36    1.95
  -7  -1  -4 1309.75   48.05
  -7   1   4 1339.72   49.76
  -7   1  -4 1324.70   44.25
   7   1   4 1343.71   47.85
  -7   1  -4 1373.57   40.14
   7  -1   4 1421.26   44.81
  -7  -1  -4 1345.70   44.49
  -7  -1   4 1344.28   49.17
   7   1   4 1338.38   47.89
  -7  -2   4   29.25    6.27
  -7  -2   4   29.70    5.90
  -7   2  -4   26.05    3.08
   7   2   4   20.73    5.57
  -7  -2  -4   19.89    5.71
  -7  -2   4   27.22    6.17
  -7   2   4   31.30    7.03
   7   2   4   34.40    6.32
  -7  -2  -4   31.96    5.92
  -7  -3  -4  146.17   11.44
  -7   3   4  143.12   12.61
  -7  -3   4  139.25   11.04
  -7  -3   4  139.69   11.60
  -7  -3   4  131.96   10.96
   7   3   4   87.23   10.48
  -7  -3  -4  148.10   12.93
  -7  -4  -4   16.71    7.16
  -7  -4   4    9.51    5.00
  -7  -4  -4   19.12    6.07
  -7   4   4   19.75    6.84
  -7  -4   4   15.33    5.19
   7   4  -4   10.77    4.81
  -7  -4   4   14.14    5.36
   7   4   4    9.20    5.30
  -7   5   4  403.01   24.20
   7   5  -4  383.92   21.71
   7   5   4  426.74   24.92
  -7  -5   4  431.40   24.03
  -7  -5  -4  436.90   24.32
  -7  -5  -4  467.34   27.21
  -7  -5   4  427.07   22.83
   7   6   4   35.43    9.29
  -7  -6  -4   42.68    9.99
  -7  -6   4   50.97    9.82
   7   6  -4   41.21    8.31
  -7   6   4   53.35   10.92
  -7  -6   4   47.49    9.70
  -7   7   4  105.52   14.47
   7  -7  -4  105.43   15.61
   7   7  -4  109.03   12.77
   7   7   4   97.50   14.02
   7   0   5   -1.33    2.62
  -7   0  -5   -2.39    2.97
  -7   0  -5    1.68    2.36
  -7   0   5   -2.34    3.33
   7   0   5    0.82    2.35
   7  -1   5  217.47   10.84
   7   1   5  208.08   13.11
  -7  -1  -5  217.95   13.17
  -7  -1   5  218.95   14.58
  -7  -1  -5  211.88   11.97
  -7   1  -5  218.11    8.49
  -7   1  -5  205.91    9.32
  -7   1   5  221.12   15.34
   7   1   5  187.88   12.10
  -7  -2   5  156.93   12.13
  -7  -2  -5  131.72   10.60
  -7  -2  -5  156.05   12.43
   7   2   5  144.21   11.40
  -7   2   5  150.86   13.09
  -7  -2   5  129.15   11.30
   7   2   5  147.87   11.75
  -7  -3  -5   14.18    6.30
  -7  -3   5   11.32    4.86
   7   3   5   13.14    5.22
  -7  -3   5    7.10    4.49
  -7  -3  -5    9.11    4.86
  -7   3   5    9.80    6.03
  -7  -3   5   11.39    4.88
  -7  -4   5   63.09    9.07
   7   4   5   54.38    9.75
  -7  -4   5   60.45    9.11
  -7   4   5   59.88   11.04
  -7  -4   5   67.33    9.77
  -7  -4  -5   50.02    9.29
  -7  -4  -5   54.66   10.55
  -7  -5   5   76.68   10.91
  -7  -5   5   91.49   10.78
  -7  -5   5   74.93   10.66
  -7  -5  -5  104.29   13.21
  -7   5   5   67.38   11.88
   7   5   5   53.61   10.37
  -7   6   5   73.92   12.84
   7   6   5   71.24   12.35
  -7  -6   5   78.57   10.52
  -7  -6   5   86.54   12.07
  -7  -6  -5   85.96   13.38
   7   0   6   -1.16    2.80
  -7   0   6    2.13    4.55
  -7   0  -6    0.80    3.03
  -7   0  -6    0.22    2.66
   7   1   6  177.14   11.85
  -7  -1  -6  196.15   11.92
  -7  -1  -6  181.76   12.58
  -7   1   6  188.56   15.06
  -7  -1   6  179.44   14.05
   7  -1   6  187.53   10.52
   7   1   6  203.84   13.27
  -7   2   6  104.43   12.73
  -7  -2  -6  149.38   11.46
   7   2   6  140.24   11.62
  -7  -2  -6  145.87   12.42
  -7  -2   6  159.39   13.05
  -7  -2   6  160.10   12.94
   7   2   6  140.65   12.03
  -7  -3  -6    4.96    4.94
  -7   3   6   17.77    7.56
  -7  -3   6    9.42    5.07
  -7  -3   6    2.22    4.77
  -7  -3  -6   -0.65    5.43
   7   3   6    3.28    4.72
  -7  -4   6   46.72    8.66
   7   4   6   35.55    8.47
  -7  -4   6   31.99    7.43
  -7  -4   6   31.28    7.59
  -7   4   6   37.96   10.02
  -7  -4  -6   24.70    8.89
  -7  -4  -6   28.52    8.09
  -7  -5  -6  127.71   14.98
  -7   5   6   85.77   14.05
  -7  -5   6  100.86   12.24
  -7  -5   6   95.18   11.32
   7   5   6   94.99   13.85
  -7  -5   6   80.96   11.11
  -7   6   6  119.64   16.71
   7   0   7    0.00    3.07
  -7   0   7   -5.89    4.64
  -7   1   7   56.14   10.85
   7   1   7   60.42    8.69
  -7  -1  -7   62.92    8.01
  -7  -1   7   64.72   10.47
   7   2   7  127.54   12.86
  -7   2   7  116.54   14.87
  -7  -2   7  116.50   12.94
  -7  -2   7  104.49   12.16
  -7  -2  -7  119.72   11.72
  -7  -2  -7  136.74   12.85
   7   3   7  195.64   16.06
  -7  -3  -7  200.71   16.05
  -7   3   7  205.20   19.28
  -7  -3   7  171.85   14.68
  -7  -3   7  204.19   15.65
  -7  -3  -7  197.81   15.50
  -7  -4  -7   60.05   10.79
  -7   4   7   53.67   12.36
   7   4   7   53.28   10.79
  -7  -4   7   69.12   10.69
  -7   5   7   48.27   12.12
   7   5   7   27.18    8.69
  -7   0   8    6.45    6.44
  -7   1   8  223.69   18.89
  -7  -1   8  212.64   17.48
   7   1   8  229.86   15.91
  -7  -2   8   87.30   12.80
   7   2   8   76.90   11.49
  -7   2   8   66.10   12.60
  -7  -2   8  107.75   13.23
  -7   3   8   55.65   12.87
   7   3   8   73.60   11.88
  -7  -3  -8   65.17   10.81
  -7  -3   8   49.12    9.98
  -7   0   9   -2.59    6.54
  -7   1   9   23.07    9.91
  -7  -1   9   23.85    9.37
  -8   0   0 4015.01  127.54
  -8   0   0 3970.39  117.65
   8   0   0 3979.25  117.59
   8   0   0 3924.51  124.91
   8  -1   0  308.97   12.72
  -8  -1   0  283.97   13.66
   8   1   0  305.15   13.90
  -8  -1   0  260.48   15.04
   8   1   0  283.94   15.10
  -8   1   0  288.18   13.92
  -8  -2   0  131.85   10.31
  -8   2   0  131.76    8.78
  -8  -2   0  128.31    9.23
   8   2   0  136.37   10.59
   8   2   0  135.93   10.33
   8  -2   0  146.35    7.84
   8   3   0   54.88    7.80
  -8  -3   0   65.73    8.89
  -8   3   0   52.07    6.11
  -8  -3   0   62.56    7.75
   8   3   0   60.71    8.51
  -8  -4   0    3.19    3.51
  -8   4   0   -1.14    3.60
  -8   4   0    0.83    3.33
   8   4   0   -1.87    2.88
  -8  -4   0   -0.35    3.84
   8   5   0  640.23   29.54
   8  -5   0  595.66   24.87
  -8   5   0  600.96   25.75
  -8   5   0  625.30   28.37
  -8  -5   0  653.78   29.26
  -8  -5   0  603.11   31.42
   8   6   0   53.46    9.21
   8  -6   0   76.18    8.77
  -8   6   0   66.38    8.31
  -8  -6   0   89.41   12.01
   8   7   0    9.14    5.64
  -8  -7   0   27.35    8.54
  -8   0   1  103.13    7.43
  -8   0   1  126.56    9.06
   8   0   1  114.93    7.18
  -8   0  -1  106.87    8.30
   8   0  -1  121.18    8.12
   8   0   1  128.69    8.79
  -8   0  -1  121.89    7.09
   8   1   1  344.50   16.78
   8  -1   1  338.32   12.96
  -8  -1   1  341.57   15.63
  -8   1  -1  335.23   14.71
   8   1   1  325.13   16.39
   8  -1   1  333.57   15.06
   8   1  -1  346.82   15.67
  -8   1   1  348.10   16.16
  -8  -1  -1  346.07   16.96
   8  -1  -1  319.77   14.38
  -8   1  -1  314.60   15.18
  -8  -1   1  318.34   17.06
   8   1  -1  314.40   16.59
   8   1   1  337.13   14.95
  -8  -1  -1  318.73   14.65
  -8   2   1  651.20   26.47
   8   2  -1  660.48   27.91
  -8   2  -1  676.60   24.61
  -8  -2  -1  651.37   28.61
  -8  -2  -1  652.77   25.82
   8   2   1  664.57   28.54
   8  -2   1  672.85   22.11
  -8  -2   1  665.95   26.52
   8   2   1  668.27   27.97
   8  -2  -1  714.53   24.74
  -8  -2   1  644.12   28.81
  -8   3  -1  518.35   20.88
  -8  -3   1  524.28   23.82
  -8  -3   1  549.58   26.25
   8   3  -1  572.71   26.28
   8   3  -1  521.11   24.68
  -8   3   1  552.14   23.48
   8   3   1  527.17   25.01
  -8  -3  -1  556.06   23.97
   8  -3   1  580.02   19.02
   8   3   1  589.58   26.49
  -8  -3  -1  543.89   26.28
  -8   4  -1  134.91    8.85
  -8   4   1  136.57   11.70
  -8   4   1  108.83    9.92
  -8  -4  -1  106.09   12.27
  -8  -4   1  131.38   12.04
  -8  -4   1  130.29   10.72
  -8   4  -1  132.44   10.10
   8   4   1  136.06   11.76
   8   4  -1  141.56   11.46
  -8  -4  -1  143.32   11.61
  -8   5  -1  316.41   17.41
  -8   5  -1  331.44   15.37
  -8  -5   1  339.27   19.63
  -8  -5  -1  350.12   19.78
  -8  -5  -1  315.31   21.14
  -8  -5   1  319.07   20.84
   8   5  -1  314.30   18.98
   8  -5   1  307.75   14.34
  -8   5   1  302.17   17.45
   8  -6  -1   38.64    8.05
  -8   6   1   63.93    9.12
   8   6   1   51.53    9.55
  -8  -6   1   75.04   11.36
  -8  -6  -1   55.98   10.47
   8   6  -1   53.61    9.42
   8   7  -1   89.42   12.35
  -8   7   1   73.66   10.07
  -8  -7   1   96.10   13.66
  -8  -7  -1   85.70   13.39
   8   7   1   87.47   12.45
  -8   0   2 2606.93   85.17
  -8   0  -2 2509.13   84.70
   8   0   2 2638.37   77.91
   8   0   2 2626.94   83.67
  -8  -1   2  806.17   32.00
  -8  -1   2  811.40   33.22
  -8   1   2  817.91   31.85
   8   1   2  818.98   28.92
  -8  -1  -2  847.94   32.23
   8  -1   2  829.68   25.90
  -8  -1   2  747.72   29.94
  -8  -1  -2  820.29   28.75
   8   1   2  832.84   31.94
   8   1   2  811.53   31.50
   8  -1   2  803.53   29.27
  -8   1  -2  801.90   29.82
  -8   2  -2   54.65    4.77
  -8  -2  -2   51.92    6.40
   8   2   2   39.89    6.55
  -8   2  -2   56.34    5.03
  -8  -2  -2   67.98    8.20
  -8  -2   2   44.25    6.61
  -8   2   2   56.76    7.48
   8  -2   2   58.32    3.14
   8   2  -2   63.48    7.85
  -8   2  -2   62.73    5.22
  -8  -2   2   49.85    7.58
   8   2   2   40.98    6.68
  -8   3   2  508.58   23.37
  -8  -3  -2  472.49   24.61
   8   3  -2  524.64   24.03
   8   3   2  511.26   24.28
   8   3   2  502.57   24.71
  -8  -3  -2  495.51   22.63
  -8   3  -2  516.29   18.53
  -8  -3   2  505.11   24.87
  -8  -3   2  510.18   22.98
   8  -3   2  492.75   15.54
  -8   3  -2  491.35   18.41
   8  -4   2   70.11    4.02
  -8   4   2   68.30    9.16
  -8  -4   2   75.58    9.36
  -8  -4  -2   97.21   11.90
   8   4  -2   65.94    9.04
  -8  -4  -2   60.88    8.94
  -8   4  -2   73.37    7.33
   8   4   2   76.27   10.20
   8  -4   2   65.18    4.02
  -8   4  -2   66.38    5.56
  -8  -4   2   72.07   10.00
  -8  -5   2  186.98   15.43
   8   5   2  179.21   14.82
  -8   5   2  185.60   14.22
  -8  -5  -2  182.80   16.48
  -8  -5  -2  207.96   15.47
   8   5  -2  195.28   14.36
  -8  -5   2  219.66   15.22
   8   6   2   30.39    8.26
   8   6  -2   34.08    7.81
  -8  -6   2   45.36    9.29
  -8   6   2   35.32    8.46
  -8  -6  -2   50.70   10.33
   8  -7  -2   -4.23    5.60
  -8   7   2   -2.55    5.26
   8   7   2    7.24    6.20
   8   7  -2    5.10    5.12
  -8  -7   2    9.02    6.39
  -8   0  -3 1171.63   41.49
   8   0   3 1178.99   41.24
  -8   0   3 1180.53   43.67
  -8   0  -3 1156.74   37.19
  -8   1  -3  500.81   19.68
   8   1   3  516.61   22.17
   8   1   3  493.13   20.08
  -8  -1  -3  487.02   19.71
   8  -1   3  518.53   19.83
  -8   1  -3  491.30   16.06
  -8  -1   3  514.77   22.09
  -8  -1   3  521.04   23.29
  -8   1   3  494.46   23.25
  -8  -1  -3  530.79   22.63
   8   1   3  458.40   21.69
  -8  -2   3   55.50    8.23
  -8  -2  -3   40.24    7.14
  -8   2  -3   47.80    4.36
  -8   2   3   44.92    7.66
  -8  -2  -3   41.81    6.19
  -8   2  -3   49.18    4.19
   8   2   3   53.62    7.63
  -8  -2   3   31.57    5.89
  -8   2  -3   49.17    4.40
  -8  -2   3   45.20    7.20
   8   2   3   54.48    7.67
  -8  -3   3   54.14    8.68
  -8   3   3   60.57    8.75
   8   3  -3   74.05    9.20
  -8   3  -3   60.48    5.12
  -8   3  -3   57.87    3.89
  -8  -3  -3   68.70    8.58
   8   3   3   47.14    8.03
  -8  -3  -3   65.27    9.31
  -8   3  -3   58.48    4.41
  -8  -3   3   64.76    8.57
   8   4  -3    0.77    3.55
  -8  -4   3    0.46    3.99
  -8  -4  -3    3.43    5.39
   8   4   3    2.26    3.61
  -8   4   3    3.75    5.30
  -8  -4  -3    6.78    4.45
  -8  -4   3    4.26    3.90
  -8  -5  -3   33.94    9.48
  -8  -5   3   54.05    9.29
   8   5  -3   45.46    8.66
   8   5   3   58.29   10.34
  -8  -5   3   52.25    9.77
  -8  -5  -3   49.32    9.70
  -8   5   3   47.60    9.58
  -8  -6   3   21.50    6.86
   8   6  -3   31.25    7.87
   8   6   3   25.98    8.10
  -8  -6  -3   38.59    9.54
  -8   6   3   55.59   10.69
   8  -7  -3  -10.34    6.22
  -8   7   3    8.31    6.72
   8   7   3   13.00    6.56
   8   7  -3    9.34    5.95
  -8   0  -4  139.78    7.72
  -8   0   4  163.81   12.26
   8   0   4  150.34    9.14
   8   0   4  141.71    9.63
  -8   0  -4  147.94    9.48
  -8   1   4   18.34    5.77
  -8  -1  -4   16.33    4.09
  -8  -1  -4   18.50    5.13
   8   1   4   19.94    4.93
  -8  -1   4   19.71    5.70
  -8   1  -4   23.22    3.69
   8   1   4   16.62    4.73
   8  -1   4   19.36    3.76
  -8   2  -4   87.45    4.72
   8   2   4   89.11    9.84
  -8  -2  -4  100.56    8.99
  -8  -2   4   78.53    9.38
  -8  -2   4   86.43    9.34
   8   2   4   82.84    9.12
  -8   2   4   89.37   10.50
  -8  -2  -4   93.72   10.05
  -8  -2   4   94.51   10.60
  -8  -3   4  532.40   25.82
  -8  -3  -4  563.71   27.91
  -8  -3  -4  541.76   25.14
  -8  -3   4  552.19   27.40
  -8  -3   4  596.40   26.22
  -8   3   4  545.08   27.39
   8   3   4  569.04   27.17
  -8  -4   4   18.07    5.98
  -8  -4   4   20.10    6.21
   8   4  -4    6.55    4.55
  -8  -4  -4    6.02    4.83
   8   4   4    4.26    4.56
  -8  -4   4    9.22    4.81
  -8  -4  -4    9.61    6.63
  -8   4   4   10.52    6.18
  -8  -5   4   74.31   10.40
  -8  -5   4   71.01   10.94
  -8   5   4   65.03   11.14
  -8  -5  -4   70.52   11.08
  -8  -5   4   52.53    8.97
   8   5   4   81.67   12.12
   8   5  -4   71.37    9.96
  -8  -6   4   60.63   10.91
  -8   6   4   45.76   10.59
  -8  -6  -4   32.08    9.18
   8   6  -4   48.24    9.20
   8   0   5  891.96   33.02
  -8   0  -5  836.45   32.21
  -8   0  -5  855.79   29.34
  -8   0   5  841.26   36.45
   8   0   5  899.20   32.21
   8   1   5  173.09   11.61
  -8  -1   5  192.07   13.99
  -8   1  -5  180.50    9.03
  -8  -1  -5  185.94   12.48
  -8  -1  -5  185.68   10.92
  -8   1   5  181.24   14.40
   8   1   5  181.00   12.31
   8  -1   5  176.15    9.95
  -8  -2   5   15.69    5.76
  -8  -2  -5   10.38    4.66
  -8   2   5   21.39    6.62
   8   2   5   17.48    5.27
  -8  -2   5   16.41    5.60
  -8  -2  -5    5.85    5.58
   8   2   5   12.87    4.79
  -8  -3  -5  172.13   14.61
   8   3   5  177.55   14.26
  -8   3   5  175.28   15.40
  -8  -3   5  213.33   14.59
  -8  -3  -5  193.07   13.87
  -8  -3   5  169.11   13.41
  -8  -3   5  171.78   13.83
  -8   4   5    9.38    6.87
  -8  -4   5   -3.87    3.46
  -8  -4  -5   -4.08    4.06
   8   4   5    0.54    4.46
  -8  -4   5    5.47    5.05
  -8  -4   5    2.23    4.30
  -8  -4  -5   -2.99    5.87
   8   5   5  179.00   17.64
  -8  -5   5  150.50   14.90
  -8  -5   5  169.99   15.00
  -8  -5  -5  142.40   15.39
  -8   5   5  179.07   17.65
  -8  -5   5  168.77   13.87
  -8   6   5  119.11   15.86
  -8  -6   5   89.22   11.87
   8   6   5  112.03   15.78
  -8  -6   5   87.83   12.42
  -8   0   6  423.67   23.98
   8   0   6  446.20   20.24
   8   1   6   74.60    9.01
  -8   1   6   82.12   11.53
  -8  -1  -6   89.17    8.31
  -8  -1   6   74.40   10.43
  -8  -1  -6   88.42    9.33
  -8  -2   6  104.58   11.97
  -8   2   6  103.00   13.32
   8   2   6   87.55   10.67
  -8  -2  -6  111.02   11.69
  -8  -2   6   99.45   11.60
  -8  -2  -6  117.29   10.59
  -8  -3  -6  287.69   19.66
   8   3   6  263.38   18.31
  -8  -3   6  282.70   18.29
  -8  -3   6  272.49   18.55
  -8  -3  -6  283.72   17.78
  -8  -4   6    8.77    5.49
  -8  -4  -6   -6.17    4.36
  -8   4   6   -5.58    5.66
   8   4   6    8.09    5.24
  -8  -4   6   -0.30    4.32
  -8  -5  -6  123.79   15.10
   8   5   6  128.16   15.87
  -8  -5   6  143.28   14.07
  -8   5   6  112.66   16.09
  -8  -5   6  106.27   13.04
   8   0   7   27.92    6.06
  -8   0   7   21.50    7.85
   8   1   7   33.43    7.05
  -8  -1   7   24.59    7.81
  -8   1   7   33.00    9.25
   8   2   7   29.51    7.34
  -8  -2   7   42.65    8.93
  -8  -2   7   31.51    8.18
  -8  -2  -7   42.64    7.99
  -8   2   7   16.90    7.75
  -8  -3  -7  132.41   14.47
  -8  -3   7  189.63   15.41
  -8  -3   7  151.86   14.95
  -8  -3  -7  137.91   13.54
   8   3   7  174.43   14.99
  -8   3   7  111.75   15.38
  -8  -4   7   41.92    9.31
  -8  -4  -7   26.33    8.45
  -8   4   7   29.33   10.00
   8   4   7   41.23    9.46
  -8   0   8  234.99   19.28
  -8  -1   8   88.81   13.26
  -8   1   8  106.36   15.17
   8   2   8   32.10    7.94
  -8  -2   8   40.83   10.02
  -8   2   8   36.35   10.54
   8   3   8  144.15   15.39
  -8  -3   8  108.82   13.71
  -8   3   8  129.50   17.46
  -9   0   0    3.06    2.32
   9   0   0    4.45    3.27
   9   0   0    4.30    2.59
  -9   0   0    3.00    2.93
  -9   1   0 1694.23   56.87
   9   1   0 1664.81   58.54
  -9  -1   0 1704.59   60.09
   9   1   0 1683.27   54.57
  -9  -1   0 1585.79   54.36
   9  -1   0 1750.34   53.15
   9  -2   0 1615.10   49.43
  -9   2   0 1561.45   53.08
  -9  -2   0 1498.61   52.46
  -9  -2   0 1502.90   57.12
   9   2   0 1625.59   56.32
   9  -3   0   63.18    5.77
  -9  -3   0   62.43    9.16
  -9   3   0   53.35    6.53
  -9  -3   0   45.67    7.14
   9   3   0   52.79    8.43
   9   4   0    4.96    4.28
  -9   4   0    4.58    4.12
  -9  -4   0    3.56    4.74
  -9   4   0   13.77    5.24
  -9  -4   0   -1.75    3.47
  -9  -5   0  164.13   13.60
  -9   5   0  148.53   11.47
  -9  -5   0  142.98   15.22
   9   5   0  175.36   14.05
   9   6   0  268.92   19.03
  -9  -6   0  321.05   20.68
   9   7   0   83.37   11.95
  -9   0   1   -2.49    2.61
  -9   0  -1   -3.27    2.13
  -9   0   1   -1.27    2.26
  -9   0   1    0.79    2.93
   9   0   1   -0.36    2.47
  -9   0  -1   -1.38    1.78
   9   0   1    2.22    2.33
   9   0  -1   -1.37    2.24
  -9   1   1  898.72   34.43
   9  -1   1  909.48   30.02
  -9  -1   1  858.15   36.24
   9   1   1  928.72   32.37
  -9  -1   1  920.84   33.38
  -9   1  -1  906.06   34.22
   9   1  -1  828.28   35.09
   9   1   1  957.46   35.60
  -9  -1  -1  936.60   36.04
  -9   1  -1  926.07   33.13
  -9  -1  -1  892.18   32.19
   9  -1  -1  939.10   32.11
  -9  -2   1  104.66    8.88
   9  -2   1  103.01    6.06
   9  -2  -1   91.94    7.56
   9   2  -1   70.33    8.75
   9   2   1  108.34    9.67
  -9  -2  -1  101.68   10.25
  -9  -2   1   98.51   10.35
  -9   2  -1   88.74    7.12
  -9   2   1  105.26    9.01
   9   2   1  108.65   10.26
  -9  -2  -1   94.14    8.75
  -9  -3   1  422.31   21.05
   9   3   1  401.18   21.71
  -9  -3   1  414.16   22.82
  -9   3  -1  425.56   18.22
  -9  -3  -1  453.05   21.10
  -9   3   1  457.71   20.84
   9  -3   1  453.92   16.11
   9   3  -1  405.55   21.48
  -9  -3  -1  471.93   23.79
  -9   4   1  148.73   11.47
   9   4   1  144.51   12.61
  -9  -4   1  152.47   13.44
  -9   4  -1  137.26    9.51
   9   4  -1  138.11   12.09
  -9  -4  -1  120.72   13.39
  -9  -4   1  149.36   12.12
  -9   4  -1  150.58   10.86
  -9  -4  -1  149.52   12.15
  -9  -5  -1  173.93   14.24
  -9  -5   1  172.39   13.98
  -9   5  -1  170.09   13.03
  -9  -5   1  170.38   15.32
   9   5  -1  167.44   13.91
   9   5   1  168.07   14.25
  -9   5   1  161.84   12.69
  -9  -5  -1  147.35   15.88
  -9   5  -1  178.72   11.14
  -9  -6   1   95.91   12.50
   9   6   1   80.37   11.95
  -9   6   1   99.10   11.13
   9  -6  -1  110.16   11.68
  -9  -6  -1  129.53   14.67
   9   6  -1   97.53   12.31
   9   7   1   37.91    9.42
   9   7  -1   35.19    8.59
  -9   0   2   -0.20    2.97
   9   0   2   -0.40    2.12
   9   0   2   -1.51    2.37
  -9   0  -2   -0.20    0.89
  -9   0  -2    2.44    2.94
  -9   1   2  251.98   14.62
  -9  -1  -2  246.01   14.26
   9  -1   2  239.08   10.08
  -9   1  -2  240.87   12.63
  -9  -1   2  218.93   14.70
   9   1   2  251.57   14.27
   9   1   2  236.01   12.57
  -9  -1  -2  253.45   12.54
  -9  -1   2  247.11   14.66
   9   1   2  231.82   13.78
  -9  -1   2  245.81   13.73
   9  -1   2  243.19   12.56
  -9  -2   2   33.60    6.80
  -9   2  -2   41.54    5.06
   9  -2   2   40.15    3.16
  -9  -2   2   32.51    5.99
  -9  -2  -2   34.52    6.93
  -9   2   2   49.52    7.41
   9   2   2   29.34    6.10
   9   2   2   40.71    7.17
   9   2  -2   36.90    6.86
  -9  -2  -2   37.62    6.13
  -9   2  -2   39.06    4.63
  -9  -3   2   44.28    8.23
  -9  -3  -2   31.48    6.54
   9   3   2   35.95    7.48
   9   3  -2   36.64    7.26
  -9  -3  -2   43.35    8.17
  -9  -3   2   32.92    6.58
  -9   3   2   45.99    7.60
  -9   3  -2   32.28    4.24
   9  -3   2   33.64    2.45
  -9   4  -2  201.27   10.22
  -9  -4  -2  188.85   15.79
  -9  -4  -2  212.90   14.67
  -9   4   2  199.18   14.23
  -9  -4   2  176.95   13.70
   9   4   2  194.71   14.89
  -9   4  -2  209.25   12.03
  -9  -4   2  226.03   16.22
   9   4  -2  184.52   14.16
  -9  -5   2   93.34   11.53
   9   5   2   76.64   11.43
  -9  -5  -2  100.74   13.61
   9   5  -2   98.69   11.72
  -9  -5  -2  101.36   11.98
  -9  -5   2   94.16   12.44
  -9   5   2  108.11   11.65
  -9   6   2  107.25   12.39
   9   6   2   84.00   12.03
   9   6  -2  107.30   13.02
  -9  -6  -2  140.88   15.42
  -9  -6   2  100.56   12.66
   9  -7  -2  114.05   14.07
   9   7  -2  111.79   13.57
   9   7   2  141.71   16.12
  -9   7   2  107.05   12.92
   9   0   3   -0.46    2.48
  -9   0  -3   -1.47    1.64
  -9   0  -3   -4.63    2.31
   9   0   3   -0.67    2.30
  -9   0   3   -3.87    2.98
  -9   1   3  312.26   17.67
  -9  -1  -3  305.30   16.49
  -9   1  -3  295.80   10.89
   9  -1   3  322.26   14.61
  -9  -1   3  318.24   16.56
  -9   1  -3  292.86   14.14
  -9  -1   3  321.82   17.60
   9   1   3  298.46   14.69
   9   1   3  300.00   16.39
   9   1   3  328.15   16.60
  -9  -1  -3  297.59   14.20
  -9  -1   3  309.88   18.10
  -9   2  -3  125.72    7.76
  -9  -2   3  155.13   11.38
   9   2   3  152.40   11.45
  -9   2   3  133.03   11.47
   9   2   3  121.68   10.73
  -9  -2   3  126.81   11.51
  -9  -2  -3  135.42    9.77
  -9   2  -3  139.82    7.61
  -9  -2   3  130.49   11.13
  -9  -2  -3  128.47   11.06
   9   3   3   32.99    7.22
  -9  -3   3   46.72    8.38
  -9  -3  -3   44.06    7.47
  -9   3  -3   40.21    4.28
   9   3  -3   28.48    6.67
  -9  -3   3   42.14    7.76
  -9  -3   3   37.78    7.33
  -9   3  -3   40.97    3.83
  -9   3   3   61.24    9.12
  -9  -3  -3   33.70    7.89
  -9  -4   3    0.80    3.73
  -9  -4   3    2.55    3.63
   9   4  -3   -0.08    3.75
  -9  -4  -3    0.36    3.95
   9   4   3   -0.39    4.08
  -9   4   3   -3.96    4.41
  -9  -4  -3    4.18    5.50
  -9   5   3  100.69   12.63
   9   5  -3  147.00   14.05
  -9  -5   3  135.65   13.87
  -9  -5   3  161.32   14.49
  -9  -5  -3  124.01   13.29
   9   5   3   89.63   12.16
   9   6   3   30.17    8.48
  -9  -6   3   31.76    8.17
  -9  -6  -3   25.33    8.26
   9   6  -3   41.91    8.77
  -9   6   3   39.94    9.68
   9   7  -3   96.10   12.95
   9   7   3  111.19   15.61
   9  -7  -3  117.59   15.64
  -9   7   3  123.39   14.91
  -9   0  -4   -2.67    2.95
  -9   0  -4   -2.97    1.66
   9   0   4    0.72    2.63
  -9   0   4   -1.04    3.49
  -9  -1  -4   68.27    6.80
  -9  -1   4   81.01    9.83
   9  -1   4   76.93    6.68
   9   1   4   83.22    8.81
  -9   1   4   92.45   10.80
   9   1   4   75.34    8.09
  -9  -1  -4   68.64    8.14
  -9   1  -4   66.24    6.12
  -9  -2   4   10.64    5.01
  -9  -2   4    3.07    4.26
  -9   2   4    1.43    4.39
  -9  -2  -4   -0.12    4.25
   9   2   4   -0.22    3.22
  -9   2  -4    5.61    2.22
  -9  -2   4    4.77    4.05
  -9  -2  -4    1.02    3.34
  -9   2  -4    4.86    2.28
   9   2   4    6.89    3.97
  -9  -3   4  140.97   12.64
   9   3   4  123.56   12.64
  -9  -3  -4  125.13   13.01
  -9   3   4  134.70   13.69
  -9  -3  -4  142.89   11.80
  -9  -3   4  133.02   11.75
  -9  -3   4  144.23   12.18
  -9  -4   4  486.62   25.46
  -9   4   4  492.26   27.04
  -9  -4   4  515.04   25.87
   9   4   4  524.22   27.35
  -9  -4  -4  515.38   25.90
  -9  -4   4  468.82   26.43
  -9  -4  -4  516.48   28.36
  -9  -5  -4   30.64    8.32
   9   5   4   24.73    8.02
  -9  -5   4   40.23    8.52
  -9   5   4   33.69    9.40
  -9  -5   4   16.83    6.45
   9   5  -4   26.52    7.54
  -9  -6   4    3.24    5.34
   9   6  -4    7.11    5.88
   9   6   4    4.31    5.33
  -9   6   4    3.45    6.91
   9   0   5    2.34    2.81
  -9   0  -5    2.15    3.52
  -9   0   5    1.97    4.65
  -9   0  -5   -0.06    2.30
   9   0   5   -0.87    2.52
  -9  -1   5  280.76   18.06
   9   1   5  287.03   15.79
   9   1   5  291.68   16.36
  -9   1   5  267.67   18.26
  -9  -1  -5  279.39   16.08
   9  -1   5  282.92   13.68
   9   2   5   89.71   10.12
  -9  -2  -5   93.79    9.48
  -9  -2   5   76.23   10.55
  -9  -2   5   66.38    9.65
   9   2   5   77.98    9.98
  -9   2   5   65.54   10.74
  -9  -2  -5   86.66   10.58
  -9  -3  -5  218.40   16.87
  -9  -3   5  215.21   16.17
  -9  -3   5  211.52   15.09
  -9  -3   5  170.44   14.50
  -9   3   5  226.69   17.41
  -9  -3  -5  221.24   14.87
   9   3   5  199.18   15.40
  -9   4   5   30.47    9.07
  -9  -4   5   26.29    7.57
  -9  -4   5   36.47    7.83
  -9  -4  -5   18.54    8.40
  -9  -4  -5   18.08    6.82
  -9  -4   5   50.30   10.06
   9   4   5   47.62    9.67
  -9  -5   5   14.34    6.32
  -9  -5   5   15.81    6.99
  -9   5   5   23.71    8.85
  -9  -5  -5   16.64    7.60
   9   5   5    7.46    5.66
  -9  -6   5   99.51   12.99
  -9   6   5   53.12   12.39
   9   6   5   87.92   14.33
   9   0   6    0.74    3.12
  -9   0   6    2.54    5.37
   9   1   6  275.75   16.31
  -9  -1   6  258.65   18.29
  -9  -1  -6  261.17   16.00
  -9   1   6  259.68   19.03
  -9   2   6  252.43   19.15
  -9  -2  -6  273.52   17.60
  -9  -2   6  237.54   17.79
  -9  -2  -6  273.79   15.70
   9   2   6  228.01   16.35
  -9  -2   6  268.38   18.41
  -9   3   6   40.95   10.35
   9   3   6   22.60    7.03
  -9  -3  -6   33.52    7.57
  -9  -3   6   42.62    8.92
  -9  -3   6   35.90    8.52
  -9  -3  -6   37.91    9.16
  -9  -4  -6  132.06   14.07
   9   4   6  185.33   17.60
  -9   4   6  155.91   17.52
  -9  -4   6  176.73   14.95
  -9  -5  -6   50.31   10.85
   9   5   6   60.79   11.96
  -9  -5   6   54.89   10.29
  -9   5   6   60.42   13.16
  -9   0   7   -0.28    5.03
  -9   1   7  118.19   14.91
   9   1   7  139.33   11.95
  -9  -1   7  160.52   15.76
  -9  -2   7   34.92    8.63
   9   2   7   32.23    7.80
  -9   2   7   20.34    8.18
   9   3   7   13.59    5.69
  -9  -3  -7    5.92    5.69
  -9  -3   7   18.98    7.43
  -9   3   7    6.30    7.18
  -9   4   7   12.31    8.90
  -9  -4  -7   10.86    6.53
  -9  -4   7    9.55    6.80
   9   4   7   30.63    8.37
  -9   0   8   -7.37    5.57
  -9   1   8   93.25   14.70
  -9  -1   8   75.05   12.74
   9   2   8   33.26    7.93
  -9  -2   8   48.27   11.12
  -9   2   8   42.12   11.78
 -10   0   0  128.83    9.88
 -10   0   0  109.93    9.64
  10   0   0  132.83    8.89
  10   0   0  115.02    9.74
 -10   0   0  117.14    8.10
  10  -1   0  180.93   10.03
  10   1   0  179.29   12.50
 -10   1   0  169.82   11.17
 -10  -1   0  157.51   10.48
 -10  -1   0  158.80   12.16
  10   2   0   99.71   10.53
 -10  -2   0   75.72    9.74
 -10   2   0   86.30    8.22
 -10  -2   0   68.05    8.11
  10  -2   0   92.97    6.98
  10   3   0  645.68   30.57
 -10  -3   0  711.73   29.69
  10  -3   0  689.26   25.17
 -10   3   0  704.97   27.98
 -10  -3   0  694.02   32.51
  10   4   0  230.97   16.32
 -10  -4   0  230.71   17.45
 -10   4   0  227.52   13.86
 -10  -4   0  224.30   15.63
  10   5   0    0.06    4.20
 -10  -5   0   -1.58    3.71
 -10   5   0   -0.36    4.22
 -10  -6   0  309.11   21.27
  10   6   0  320.01   21.25
  10   7   0   35.80    9.07
  10   0   1  182.05   10.23
 -10   0   1  190.29   12.60
 -10   0   1  176.57   10.84
 -10   0  -1  184.00   12.14
 -10   0   1  190.68   13.06
  10   0   1  199.14   12.53
 -10   0  -1  188.58   10.19
 -10  -1  -1   15.85    4.04
 -10  -1  -1   26.09    5.87
 -10   1  -1   38.60    5.87
 -10  -1   1   22.66    5.98
 -10   1   1   31.87    6.14
  10   1  -1   17.19    5.34
  10  -1   1   26.95    4.13
  10   1   1   25.70    5.81
 -10  -1   1   26.00    5.42
 -10   1  -1   28.91    5.46
 -10   2  -1  156.57    9.73
 -10  -2   1  138.60   12.02
  10   2   1  127.42   11.31
 -10  -2   1  145.22   10.88
  10   2  -1  133.74   11.49
  10   2   1  159.48   12.38
 -10  -2  -1  148.59   10.64
 -10   2   1  135.42   10.51
 -10  -2  -1  138.20   11.74
  10  -2   1  122.48    7.53
 -10  -3  -1 1135.65   43.50
 -10  -3  -1 1248.87   48.55
  10  -3   1 1183.00   37.55
 -10  -3   1 1214.95   44.50
  10   3  -1 1218.20   46.74
 -10   3  -1 1171.59   41.28
  10   3   1 1119.65   45.89
 -10  -3   1 1195.49   48.23
 -10   3   1 1133.38   43.62
 -10   4  -1  224.00   12.87
 -10   4  -1  237.11   14.45
  10   4  -1  220.52   16.02
 -10  -4  -1  216.60   17.27
  10   4   1  224.33   16.32
 -10  -4   1  270.68   16.87
 -10   4   1  224.55   14.82
 -10  -4  -1  247.82   16.13
  10   5   1  138.51   14.34
 -10   5   1  110.84   11.51
 -10  -5   1  164.51   15.00
 -10  -5  -1  133.19   13.76
  10   5  -1  117.76   13.18
 -10  -6  -1   22.09    7.67
  10   6   1   17.45    6.99
  10   6  -1   19.08    6.89
 -10  -6   1   24.05    7.35
 -10   6   1   29.42    7.92
  10   7   1   25.35    8.20
  10   7  -1   16.29    7.17
  10   0   2  742.98   26.43
 -10   0  -2  705.93   29.86
  10   0   2  736.47   29.73
 -10   0   2  786.79   31.70
  10   1   2   36.79    6.66
 -10  -1   2   34.65    7.12
  10  -1   2   39.58    5.83
  10   1   2   34.86    5.73
  10  -1   2   41.68    4.28
 -10  -1   2   32.71    6.62
 -10   1  -2   30.66    5.29
 -10   1   2   41.99    7.28
 -10  -1   2   32.32    6.20
 -10  -1  -2   40.04    5.53
 -10  -1  -2   39.77    6.89
  10  -2   2  187.00    8.11
 -10   2  -2  205.29   10.75
  10   2   2  196.17   13.73
 -10  -2  -2  190.64   13.88
 -10  -2   2  211.75   14.90
  10   2   2  201.33   13.87
 -10   2   2  191.16   13.59
 -10   2  -2  180.49   11.01
 -10  -2   2  197.95   13.33
 -10  -2  -2  185.46   11.97
  10   2  -2  164.31   13.23
 -10  -3  -2  204.34   13.63
 -10  -3  -2  205.89   15.42
 -10  -3   2  199.07   14.00
  10   3   2  200.77   14.76
  10   3  -2  151.89   13.38
 -10  -3   2  202.49   15.54
 -10   3  -2  213.15   10.71
 -10   3   2  198.45   13.99
 -10  -4   2   67.54   10.79
 -10   4   2   80.66   10.23
 -10  -4  -2   70.55   11.16
 -10  -4   2   72.64   10.42
 -10  -4  -2   56.29    9.11
  10   4  -2   80.12   10.82
  10   4   2   71.16   10.59
  10   5   2   49.83    9.64
 -10   5   2   40.46    8.86
 -10  -5   2   54.46   10.01
  10   5  -2   31.85    7.97
 -10  -5  -2   58.96   10.18
 -10  -6  -2  146.08   16.18
  10   6  -2  122.64   14.12
  10   6   2  104.46   13.99
 -10   6   2  115.55   13.08
 -10  -6   2  157.71   16.08
  10   7  -2   -0.22    4.87
  10   7   2    2.34    5.41
 -10   0  -3  223.96   10.70
 -10   0  -3  223.82   13.21
 -10   0   3  218.37   14.80
  10   0   3  230.78   11.31
  10   0   3  232.00   13.51
 -10  -1  -3  124.18   10.37
 -10   1  -3  106.11    8.29
 -10   1   3  107.28   11.02
  10   1   3  115.26    9.97
 -10  -1  -3  125.82    8.69
  10   1   3  105.97    8.94
  10  -1   3  116.23    8.80
  10   1   3  133.45   10.35
 -10  -1   3  131.20   10.99
 -10  -1   3  130.23   11.66
 -10  -2  -3   17.95    5.97
 -10   2   3   35.81    7.69
 -10  -2   3   37.18    7.07
  10   2   3   28.44    6.69
 -10  -2   3   28.87    6.86
 -10  -2   3   24.91    6.53
  10   2   3   19.80    5.63
 -10   2  -3   35.58    4.48
 -10  -2  -3   25.32    5.68
 -10   2  -3   36.28    4.87
 -10  -3  -3  148.35   13.89
 -10  -3  -3   96.61   10.34
 -10  -3   3  129.59   12.52
 -10  -3   3  111.12   12.77
  10   3  -3  138.04   12.20
 -10   3  -3  129.10    7.88
  10   3   3   96.90   11.52
 -10   3   3  135.71   13.19
 -10  -3   3  108.72   11.61
 -10  -4  -3  202.01   14.86
 -10  -4   3  199.60   16.05
 -10  -4  -3  199.88   16.79
 -10  -4   3  165.97   13.93
 -10   4   3  165.14   14.43
  10   4   3  185.89   15.24
  10   4  -3  166.52   14.11
  10   5  -3  357.17   22.22
  10   5   3  383.85   23.79
 -10  -5   3  400.54   23.20
 -10   5   3  384.01   23.07
 -10  -5  -3  396.59   23.28
  10   6   3   19.25    7.26
 -10   6   3    1.91    6.59
 -10  -6  -3   14.57    7.16
  10   6  -3   20.96    7.26
 -10   0  -4  521.97   19.35
 -10   0  -4  516.31   22.72
 -10   0   4  525.99   26.07
  10   0   4  512.29   22.80
 -10   1  -4    9.74    3.67
 -10  -1  -4   11.26    3.79
  10   1   4    6.40    4.16
  10   1   4    4.38    3.42
 -10  -1   4   10.94    5.07
 -10   1   4    9.68    5.43
  10  -1   4    7.76    3.49
 -10  -1   4    7.97    4.88
 -10  -1  -4    5.36    4.44
 -10  -2   4  537.67   27.70
  10   2   4  592.88   27.81
 -10   2   4  586.45   29.15
 -10  -2  -4  624.55   28.58
 -10  -2   4  608.54   27.65
 -10  -2   4  576.11   29.54
 -10  -2  -4  574.86   24.93
 -10   2  -4  617.63   21.95
  10   3   4   25.50    7.07
 -10  -3   4   23.13    6.87
 -10  -3  -4   26.89    6.53
 -10   3   4   42.16    9.07
 -10  -3  -4   33.86    8.57
 -10  -3   4   22.41    6.66
 -10  -3   4   32.23    7.54
 -10  -4   4  110.40   12.50
 -10  -4  -4  126.92   14.82
  10   4   4  146.97   14.98
 -10  -4   4  112.48   12.56
 -10  -4   4  131.17   14.18
 -10  -4  -4   93.22   11.54
 -10   4   4  123.97   14.19
  10   5   4   70.54   11.88
 -10  -5   4   86.60   12.45
  10   5  -4   56.15   10.11
 -10  -5   4   75.90   11.02
 -10  -5  -4   56.92   10.81
 -10   5   4   86.12   13.12
  10   6  -4   11.03    6.48
 -10  -6   4   12.83    6.61
  10   6   4   25.74    8.26
 -10   6   4   21.19    9.17
  10   0   5   22.34    5.31
 -10   0   5   41.17    8.78
 -10   0  -5   27.89    5.65
  10   1   5  263.90   15.88
  10  -1   5  251.07   13.11
  10   1   5  235.94   14.78
 -10  -1   5  242.51   17.20
 -10  -1  -5  251.66   15.56
 -10   1   5  244.41   17.77
 -10  -2  -5   25.79    5.99
 -10  -2   5   20.46    7.02
 -10  -2  -5    8.58    5.85
  10   2   5   20.00    6.08
 -10   2   5   24.87    7.92
 -10  -2   5   23.34    6.87
 -10   3   5   51.15   10.87
 -10  -3   5   44.74    8.66
 -10  -3  -5   45.25    8.24
 -10  -3   5   67.24   10.62
  10   3   5   43.68    8.70
 -10  -3   5   72.77   11.54
 -10  -3  -5   44.74    9.62
 -10  -4   5   28.34    7.68
  10   4   5   20.84    7.28
 -10   4   5   17.14    8.07
 -10  -4  -5   23.31    7.56
 -10  -4   5   12.94    6.09
 -10  -5   5  202.51   16.71
  10   5   5  225.45   18.54
 -10  -5  -5  205.63   17.64
 -10   5   5  190.54   19.16
 -10   0   6   53.12   10.30
  10   0   6   83.41    8.69
 -10  -1   6  170.14   14.89
  10   1   6  150.32   12.22
 -10   1   6  145.98   15.48
 -10   2   6  283.64   20.56
 -10  -2  -6  239.51   15.22
 -10  -2  -6  286.69   18.40
 -10  -2   6  265.13   18.91
  10   2   6  246.95   17.08
  10   3   6   54.19   10.16
 -10  -3  -6   50.77   10.87
 -10  -3  -6   57.45    9.28
 -10  -3   6   70.38   11.34
 -10   3   6   52.93   11.43
 -10  -4   6   -0.96    5.16
  10   4   6    9.34    5.77
 -10  -4  -6    2.94    5.37
 -10   4   6    9.69    7.83
 -10   0   7   68.60   11.95
 -10  -1   7   11.43    6.76
  10   1   7   16.75    5.64
 -10   1   7   11.87    7.38
 -10   2   7    5.44    6.69
 -10  -2   7    1.40    5.29
  10   2   7    2.18    4.38
 -10  -3   7   94.36   13.05
  10   3   7  101.97   13.24
 -10   0   8  176.65   18.85
 -10  -1   8    2.52    6.84
 -10   1   8   -1.22    6.31
 -11   0   0   -0.16    2.57
  11   0   0    3.07    3.62
 -11   0   0    2.18    3.36
 -11   0   0   -3.99    2.52
  11  -1   0   38.10    5.47
 -11  -1   0   36.12    7.38
 -11   1   0   41.27    6.91
  11   1   0   43.87    7.88
 -11  -1   0   41.44    6.48
 -11   1   0   39.18    6.70
  11   2   0   -0.14    3.54
 -11  -2   0   -2.46    2.80
 -11   2   0    0.33    3.59
 -11  -2   0   -2.32    3.70
  11  -2   0    1.41    2.85
  11  -3   0  545.13   21.77
 -11  -3   0  597.62   26.67
  11   3   0  560.79   27.73
 -11   3   0  554.06   24.53
 -11   4   0  166.34   11.99
 -11  -4   0  164.36   13.59
  11   4   0  122.35   13.53
 -11  -4   0  145.03   15.32
  11   5   0   20.54    6.81
 -11  -5   0   26.20    7.40
 -11   5   0   13.25    5.70
 -11  -6   0   90.37   13.40
  11   6   0   92.93   13.56
  11   0   1    5.52    3.82
  11   0   1   -0.39    2.60
 -11   0   1    2.69    3.60
 -11   0   1    1.57    3.41
 -11   0  -1   -2.65    2.68
 -11   0  -1    0.51    2.29
  11   1  -1  371.38   21.03
 -11  -1   1  402.30   19.54
 -11  -1   1  410.22   21.21
 -11   1  -1  419.05   19.45
  11   1   1  413.81   21.15
 -11   1  -1  409.39   20.10
 -11  -1  -1  389.91   21.04
 -11  -1   1  387.57   21.64
 -11  -1  -1  410.22   18.71
  11  -1   1  430.08   17.09
 -11   1   1  428.57   20.83
 -11   2  -1  206.77   12.51
 -11  -2   1  232.16   14.46
 -11  -2  -1  199.50   13.21
  11   2  -1  215.86   15.41
 -11   2   1  207.59   13.91
  11   2   1  228.97   15.51
 -11  -2  -1  233.33   15.80
  11  -2   1  229.13   10.79
 -11  -2   1  215.28   15.84
 -11   2  -1  228.39   13.52
 -11  -3   1  144.43   14.27
 -11   3   1  128.22   11.14
 -11   3  -1  142.07    9.93
  11   3  -1  140.38   13.75
 -11  -3   1  140.26   11.67
  11   3   1  119.59   12.83
 -11  -3  -1  113.98   12.70
 -11  -3  -1  145.91   11.83
 -11  -4   1  134.86   14.89
  11   4  -1  138.83   14.11
 -11  -4  -1  126.39   12.81
 -11  -4   1  135.55   13.24
 -11   4   1  134.01   11.71
  11   4   1  152.52   14.62
 -11  -4  -1  190.08   15.82
 -11   4  -1  157.96   10.68
  11   5  -1   75.77   11.24
 -11  -5   1   81.84   11.90
  11   5   1  104.94   13.25
 -11   5   1   93.75   11.05
 -11  -5  -1   85.61   12.02
  11   6   1   15.23    6.85
  11   6  -1   10.26    5.95
 -11   0  -2   -0.58    2.93
  11   0   2   -1.71    2.86
 -11   0   2    0.53    3.78
  11   0   2   -0.61    2.57
 -11   0  -2    0.48    1.79
  11  -1   2  149.59    8.54
 -11   1  -2  150.55   10.70
  11   1   2  156.89   12.08
 -11  -1  -2  153.21   12.00
 -11  -1   2  149.60   11.42
 -11   1  -2  153.87   10.46
 -11  -1   2  161.79   13.34
 -11   1   2  160.97   12.52
 -11  -1  -2  161.20   10.43
 -11  -1   2  167.67   12.55
  11  -1   2  157.07   10.81
 -11   2  -2  413.54   18.63
 -11  -2   2  437.68   22.87
 -11  -2  -2  428.61   20.34
  11   2  -2  413.57   22.79
 -11   2   2  442.94   22.40
 -11  -2   2  464.30   22.18
 -11   2  -2  405.39   19.50
 -11  -2   2  407.55   23.59
 -11  -2  -2  448.75   23.44
  11   2   2  439.45   22.74
  11   3   2    3.92    4.44
 -11   3  -2   11.26    4.11
  11   3  -2    5.68    4.68
 -11  -3  -2    8.33    5.58
 -11   3   2    6.31    5.02
 -11  -3   2   16.49    6.25
 -11  -3  -2    6.69    4.44
 -11   3  -2   14.65    4.06
 -11  -3   2   14.52    5.41
  11   4  -2  329.78   21.06
 -11  -4   2  329.30   20.54
  11   4   2  355.80   21.95
 -11  -4  -2  394.31   24.01
 -11  -4   2  379.56   23.56
 -11  -4  -2  342.59   20.40
 -11   4   2  354.29   20.72
  11   5   2   27.63    8.13
 -11   5   2   10.61    6.47
 -11  -5   2   22.83    7.13
  11   5  -2    2.72    4.67
 -11  -5  -2   20.76    7.24
  11   6  -2   47.09    9.85
 -11   6   2   44.41   10.05
  11   6   2   52.73   10.94
 -11   0  -3    1.09    3.18
 -11   0  -3   -1.61    1.96
 -11   0   3    4.72    3.95
  11   0   3   -1.55    2.74
  11   0   3    2.54    3.42
 -11  -1  -3  477.60   23.38
 -11  -1  -3  460.57   20.04
  11  -1   3  488.63   21.16
 -11  -1   3  472.79   25.45
 -11   1  -3  468.27   21.06
 -11   1   3  478.54   24.42
  11   1   3  448.67   22.76
 -11  -1   3  474.02   24.39
 -11  -2   3  113.75   11.42
 -11  -2  -3  110.59    9.38
 -11  -2  -3   97.48   11.18
 -11  -2   3   89.91   10.88
 -11  -2   3  134.99   13.63
 -11   2   3  128.96   12.70
  11   2   3  110.72   11.63
 -11   2  -3  106.37    8.09
 -11   2  -3  100.76    7.64
  11   3  -3   59.19    9.95
 -11  -3   3   56.70    9.58
 -11  -3   3   41.10    8.69
 -11  -3  -3   50.14    8.23
 -11  -3   3   61.36   10.58
 -11  -3  -3   63.55   10.45
  11   3   3   48.90    9.14
 -11   3   3   61.40   10.09
 -11  -4  -3   14.84    6.08
  11   4  -3   18.11    6.58
  11   4   3   27.14    7.46
 -11   4   3   13.65    6.81
 -11  -4   3   19.91    6.69
 -11  -5  -3    1.81    5.42
 -11   5   3    6.10    6.72
  11   5   3   15.20    6.78
  11   5  -3    7.30    5.63
 -11  -5   3   12.63    6.47
 -11   6   3   16.42    8.50
  11   6  -3   19.59    7.36
  11   6   3   26.88    8.69
 -11   0   4   -2.14    3.90
 -11   0  -4   -2.42    3.28
  11   0   4    1.79    3.40
 -11   0  -4   -1.23    2.02
  11   1   4  109.82   10.02
 -11   1   4  104.41   12.17
  11  -1   4  116.79    8.91
 -11  -1   4  110.47   12.28
 -11  -1   4   86.39   11.59
 -11  -1  -4  121.77   10.81
  11   1   4  118.03   11.32
 -11  -1  -4  102.88    8.14
 -11   1  -4  124.27    8.87
 -11  -2  -4  337.36   20.06
  11   2   4  314.97   19.35
 -11  -2   4  354.56   21.05
 -11   2   4  350.36   21.39
 -11  -2   4  324.30   21.41
 -11  -2   4  342.20   19.91
 -11  -2  -4  342.51   17.76
  11   3   4   97.92   12.03
 -11  -3  -4  159.71   15.30
 -11  -3   4  133.57   13.64
 -11  -3   4  126.80   13.19
 -11   3   4  160.61   15.42
 -11  -3  -4  102.35   11.02
  11   4   4  245.62   19.05
 -11  -4   4  320.46   20.40
 -11  -4   4  317.03   20.31
 -11   4   4  274.58   20.22
 -11  -4  -4  267.93   18.26
 -11  -5   4   17.91    6.72
  11   5   4   25.90    7.97
 -11  -5  -4   26.83    8.36
  11   5  -4   13.81    6.43
 -11   5   4   12.43    7.90
 -11   0   5   -1.92    4.45
  11   0   5   -0.17    3.10
 -11  -1  -5  109.01   11.06
 -11  -1   5   77.41   11.54
 -11   1   5  116.00   13.77
  11   1   5  103.92   10.71
 -11  -2   5  108.02   13.02
 -11  -2  -5  102.41   12.17
 -11   2   5   65.19   11.28
  11   2   5   87.65   11.13
 -11  -2  -5  118.61   10.62
 -11  -3  -5   48.85   10.25
 -11  -3  -5   64.71    9.58
 -11   3   5   62.36   11.82
 -11  -3   5   69.29   10.77
 -11  -3   5   45.79    9.73
  11   3   5   55.33    9.51
 -11  -4   5   10.45    5.69
 -11  -4   5   21.97    7.71
 -11   4   5   12.46    7.76
 -11  -4  -5   -0.12    4.81
  11   4   5   13.75    6.35
  11   5   5   58.89   11.66
 -11  -5  -5   81.77   12.91
 -11   5   5   50.02   12.26
 -11  -5   5   64.05   11.65
 -11   0   6    7.18    5.72
 -11  -1   6    8.89    6.09
 -11   1   6   19.26    7.78
  11   1   6   10.53    5.04
 -11  -2   6   11.29    6.42
  11   2   6   17.84    6.33
 -11   2   6   25.69    8.87
 -11  -3  -6    8.46    5.57
 -11   3   6    7.01    7.39
 -11  -3   6    8.26    6.20
  11   3   6   11.65    6.26
  11   4   6  117.03   14.83
 -11  -4   6  102.51   13.58
 -11  -4  -6  116.87   13.56
 -11   4   6  120.87   16.62
 -11   0   7    7.56    6.67
 -11  -1   7   44.99   10.40
 -11   1   7   57.10   12.24
  11   2   7    4.23    4.79
 -11  -2   7    2.20    6.26
 -11   2   7   -1.98    6.48
 -11   3   7   21.67    9.45
  11   3   7   51.74   10.46
 -11  -3   7   29.94    9.58
 -12   0   0  767.40   28.90
 -12   0   0  738.10   31.63
  12   0   0  751.20   32.32
 -12   0   0  721.18   32.68
  12   1   0  596.97   28.08
 -12   1   0  591.59   27.42
 -12  -1   0  577.22   28.50
 -12  -1   0  586.04   25.23
 -12   1   0  591.31   26.35
  12   2   0  202.07   15.08
 -12  -2   0  177.53   14.64
 -12   2   0  184.17   12.88
 -12  -2   0  183.76   13.05
 -12   3   0    3.08    4.02
  12   3   0    3.22    4.66
 -12  -3   0    2.95    5.11
 -12  -3   0    6.93    4.85
 -12   4   0  175.96   13.20
 -12  -4   0  194.63   15.36
  12   4   0  203.35   16.33
 -12  -5   0    4.97    5.41
  12   5   0   -3.26    4.37
  12   6   0   21.08    7.76
 -12   0  -1  118.48   11.29
 -12   0  -1  110.25    8.38
 -12   0   1   99.82   10.86
  12   0   1  129.63   11.18
 -12   0   1  100.36   11.28
  12   1   1  189.28   13.97
 -12   1   1  178.84   13.31
 -12   1  -1  195.72   12.82
  12   1  -1  182.76   14.14
 -12  -1  -1  196.85   12.12
 -12  -1  -1  189.30   14.17
 -12   1  -1  179.40   12.89
 -12  -1   1  197.44   14.22
 -12  -1   1  161.31   12.01
 -12  -1   1  175.63   14.14
  12  -1   1  182.16   10.70
 -12  -2   1  717.30   33.83
 -12   2   1  682.21   30.24
  12   2  -1  654.13   31.88
 -12  -2   1  653.84   29.68
 -12  -2  -1  755.23   29.98
 -12   2  -1  756.35   29.06
 -12   2  -1  677.53   29.61
 -12  -2  -1  672.74   32.50
  12   2   1  687.08   31.92
  12   3  -1   68.58   10.54
 -12   3  -1   85.70    8.73
 -12  -3   1   87.28   12.07
 -12   3   1   89.89   10.31
 -12  -3  -1   82.03   10.34
 -12  -3   1  100.19   11.17
 -12  -3  -1   92.80   12.19
  12   3   1   90.18   12.03
  12   4  -1   62.63   10.46
 -12   4  -1   72.44    8.42
  12   4   1   70.78   11.61
 -12  -4   1   69.18   10.83
 -12  -4  -1   99.06   12.23
 -12   4   1   77.42   10.01
  12   5  -1  135.17   15.28
  12   5   1  116.78   14.63
 -12  -5  -1  115.39   13.92
 -12  -5   1  100.34   13.34
 -12   5   1  128.18   13.05
  12   6   1    8.80    6.23
  12   6  -1    9.71    6.38
 -12   0  -2  145.69    9.57
 -12   0   2  189.55   14.26
  12   0   2  203.85   13.44
 -12   0  -2  203.07   13.60
 -12   0   2  202.34   15.15
  12   0   2  184.78   10.99
 -12  -1  -2   72.57    9.56
 -12  -1   2   78.08    9.58
 -12   1  -2   74.10    8.42
 -12   1   2   77.53   10.22
 -12  -1   2   57.66    9.97
 -12  -1   2   65.40    9.77
 -12   1  -2   74.00    8.04
 -12  -1  -2   62.49    7.37
  12   1   2   79.59    9.98
 -12   2   2  341.15   19.94
  12   2   2  351.73   20.56
 -12  -2  -2  352.40   20.95
 -12   2  -2  343.29   16.87
 -12  -2   2  360.50   22.12
 -12  -2  -2  328.01   18.05
 -12  -2   2  365.02   21.00
 -12  -2   2  377.35   20.25
  12   2  -2  323.43   20.53
 -12   2  -2  347.60   17.80
 -12  -3   2   13.34    6.45
  12   3  -2   16.68    6.48
 -12  -3  -2   17.80    6.05
 -12   3  -2   17.10    4.68
 -12   3  -2   16.68    4.58
  12   3   2   15.86    6.13
 -12   3   2    6.66    5.34
 -12  -3   2   16.34    6.05
 -12  -3  -2   10.49    6.23
  12   4   2   74.20   11.89
 -12  -4   2   62.37   10.57
 -12  -4  -2   57.12    9.79
  12   4  -2   48.80    9.80
 -12   4   2   88.49   11.39
  12   5  -2    1.18    5.03
 -12  -5   2    7.21    5.83
  12   5   2    9.63    6.28
 -12   5   2    0.02    6.20
 -12  -5  -2    6.79    5.93
  12   6  -2   64.94   11.94
 -12   6   2   62.09   11.26
  12   6   2   90.02   14.08
  12   0   3  176.89   12.92
 -12   0   3  201.21   15.22
 -12   0  -3  212.67   10.79
 -12   0  -3  175.94   12.78
  12   1   3   90.26   10.56
 -12  -1   3   84.53   11.18
  12  -1   3   94.79    9.20
 -12  -1  -3   96.79   10.64
 -12   1  -3  100.81    8.82
 -12  -1   3   91.44   12.04
 -12  -1  -3  104.30    8.49
 -12   1   3  109.28   12.25
  12   2   3   44.77    8.62
 -12   2   3   32.41    8.01
 -12  -2   3   41.70    8.15
 -12  -2  -3   38.60    6.96
 -12  -2   3   31.25    7.67
 -12  -2   3   43.56    9.19
 -12   2  -3   37.73    5.94
 -12  -2  -3   41.66    8.67
 -12   2  -3   47.69    5.97
 -12  -3   3  351.63   21.28
 -12  -3   3  307.57   19.90
 -12  -3  -3  329.33   21.57
  12   3  -3  312.22   20.64
 -12  -3  -3  323.96   18.79
  12   3   3  342.85   21.16
 -12   3   3  332.32   20.91
 -12  -4  -3   -4.10    4.39
 -12   4   3    1.08    5.82
  12   4   3    1.11    4.47
 -12  -4   3    5.22    5.28
 -12  -4   3    2.17    4.66
  12   4  -3   -0.65    4.27
 -12   5   3   96.90   13.53
 -12  -5  -3  133.32   15.34
  12   5   3   85.43   13.17
  12   5  -3  117.01   14.61
 -12   0   4  201.36   15.84
 -12   0  -4  174.69   12.46
  12   0   4  183.78   12.89
  12   1   4  184.73   13.93
 -12  -1  -4  184.17   13.94
 -12   1   4  201.20   16.18
 -12  -1   4  179.29   15.64
 -12  -1   4  181.93   15.24
  12  -1   4  194.29   12.28
  12   2   4   72.08   10.45
 -12  -2   4   93.09   12.23
 -12  -2  -4   98.29    9.69
 -12   2   4   95.01   12.61
 -12  -2  -4   82.61   11.15
 -12  -3  -4   37.31    9.06
 -12  -3   4   33.06    8.32
 -12  -3  -4   28.48    7.06
 -12  -3   4   41.17    9.08
 -12   3   4   19.09    7.72
  12   3   4   44.05    9.09
 -12  -4  -4   34.11    8.43
 -12   4   4   27.00    9.28
 -12  -4   4   18.99    6.99
  12   4   4   34.73    9.17
 -12  -4   4   20.09    7.42
  12   5   4   16.39    7.28
 -12  -5  -4    8.41    6.53
 -12  -5   4   -1.03    5.08
 -12   5   4    9.37    8.03
 -12   0   5  188.35   16.43
  12   0   5  198.48   13.42
 -12   1   5   58.82   10.62
 -12  -1   5   51.29    9.69
  12   1   5   46.00    8.19
 -12  -2  -5   51.35    9.83
 -12   2   5   72.62   12.42
  12   2   5   52.32    9.40
 -12  -2   5   46.05    9.54
 -12   3   5  166.19   17.50
 -12  -3  -5  189.02   14.25
  12   3   5  173.45   15.35
  12   4   5    0.98    5.14
 -12  -4  -5   22.96    7.77
 -12  -4   5    7.35    6.10
 -12   4   5   12.50    8.40
 -12   0   6  415.61   26.07
 -12  -1   6   20.45    7.99
 -12   1   6   10.66    7.26
  12   1   6   20.87    6.36
  12   2   6    7.90    5.10
 -12   2   6   -0.31    5.80
 -12  -2   6    1.51    5.47
 -12   3   6   28.85   10.20
  12   3   6   33.46    8.48
 -12  -3   6   42.56   10.15
 -12   0   7    9.95    7.62
 -12   1   7    7.46    7.05
 -12  -1   7    1.85    6.03
 -12  -2   7   -2.73    6.04
 -12   2   7   14.98    8.93
 -13   0   0    5.66    4.46
 -13   0   0    4.06    3.46
 -13   0   0    4.66    4.08
  13   1   0   -0.33    3.71
 -13  -1   0    1.23    3.52
 -13   1   0   -0.10    3.42
 -13   1   0    4.03    4.19
 -13  -1   0    2.36    4.10
 -13   2   0  454.16   22.44
  13   2   0  449.52   24.82
 -13  -2   0  421.04   22.14
 -13  -2   0  457.48   25.63
 -13   3   0   69.96    9.10
 -13  -3   0   58.50    9.58
  13   3   0   53.54   10.09
 -13   4   0  339.14   18.76
 -13  -4   0  311.72   20.37
  13   4   0  286.78   20.95
  13   5   0    6.29    5.51
 -13  -5   0   11.21    6.46
 -13   0   1    2.79    3.92
  13   0   1   -0.85    3.60
 -13   0  -1   -0.78    3.42
 -13   0  -1    2.89    3.91
 -13   0  -1   -2.59    2.66
 -13   0   1    2.67    4.09
  13   1  -1   34.20    8.01
 -13   1   1   31.36    7.38
 -13   1   1   32.66    7.22
 -13   1  -1   31.97    6.70
 -13  -1   1   32.30    7.50
 -13  -1   1   36.82    7.24
  13   1   1   26.65    6.85
 -13   1  -1   22.62    6.12
 -13  -1  -1   22.47    6.37
 -13  -1   1   18.32    6.42
 -13  -1  -1   26.75    5.64
 -13  -2  -1  226.42   14.48
 -13   2  -1  195.24   13.19
  13   2   1  186.56   15.30
 -13   2  -1  189.39   13.43
 -13  -2  -1  215.03   16.54
 -13   2   1  194.75   14.36
 -13  -2   1  198.60   14.33
  13   2  -1  186.44   15.40
 -13  -2   1  196.82   16.25
 -13   3  -1   70.74    8.45
 -13  -3  -1   63.37    9.65
 -13  -3   1   71.79   10.37
 -13   3   1   56.91    9.15
  13   3   1   65.43   11.00
  13   3  -1   64.79   10.91
 -13  -4  -1  273.99   18.61
  13   4   1  265.40   19.65
  13   4  -1  238.03   18.72
 -13  -4   1  272.41   18.91
 -13   4   1  244.34   16.84
 -13  -5  -1    9.41    6.47
 -13  -5   1   23.21    8.00
  13   5  -1   14.11    6.94
  13   5   1   14.92    6.88
 -13   5   1   13.96    6.99
  13   0   2    7.94    4.63
 -13   0   2   -0.09    3.69
 -13   0  -2    2.33    2.64
 -13   0  -2   -1.10    3.40
 -13   0   2   -1.41    3.74
 -13   1  -2   27.97    6.57
 -13   1  -2   26.66    6.19
 -13  -1   2   27.03    7.41
 -13  -1  -2   20.28    5.12
 -13   1   2   16.66    6.39
 -13  -1   2   18.56    6.40
 -13  -1  -2   26.27    6.85
 -13  -1   2   36.29    7.43
  13   1   2   19.49    6.35
 -13   2  -2  135.05   10.19
 -13   2   2  136.87   13.46
 -13  -2  -2  116.36   13.09
 -13  -2   2  138.92   14.01
 -13  -2   2  106.85   11.96
 -13  -2   2  133.14   14.78
 -13   2  -2  134.93   10.77
 -13  -2  -2  135.37   11.25
  13   2  -2  125.18   13.98
  13   2   2  115.63   12.96
 -13  -3   2   17.02    6.35
 -13  -3  -2   20.07    6.51
 -13   3   2   18.61    7.21
  13   3   2   13.37    6.06
  13   3  -2   16.07    6.93
 -13   4   2  239.20   17.50
 -13  -4  -2  269.31   18.28
  13   4  -2  225.82   18.18
  13   4   2  218.92   18.21
 -13  -4   2  255.08   18.52
 -13   5   2   43.15   10.41
  13   5  -2   44.91   10.08
 -13  -5  -2   38.73    9.80
  13   5   2   38.41   10.12
  13   0   3   -1.75    3.71
 -13   0   3    2.24    4.51
 -13   0   3   -0.75    4.08
 -13   0  -3    2.90    3.96
 -13   1  -3   90.83    8.95
 -13  -1   3   78.26   11.16
 -13   1   3   72.24   11.18
  13   1   3   85.32   10.66
 -13   1  -3   87.42    9.25
  13  -1   3   77.38    8.79
 -13  -1  -3   91.97    8.77
 -13  -1  -3   89.71   10.76
 -13  -2  -3   39.09    7.07
  13   2   3   23.55    7.18
 -13  -2  -3   29.53    7.68
 -13  -2   3   27.77    7.50
 -13  -2   3   40.85    8.95
 -13   2   3   36.80    8.56
 -13  -3  -3    7.49    5.27
 -13  -3   3   12.47    6.45
 -13  -3   3   11.91    5.92
 -13   3   3    6.86    5.68
  13   3   3    9.71    5.78
 -13  -4   3   14.63    6.79
 -13  -4  -3    8.03    6.06
 -13   4   3   16.02    7.51
  13   4  -3   25.31    7.99
 -13  -4   3   11.11    5.92
  13   4   3    9.73    6.31
  13   5   3  126.76   16.05
 -13  -5  -3  111.87   14.41
 -13   5   3   95.91   14.06
  13   5  -3  140.42   16.51
 -13   0   4   -3.62    4.10
  13   0   4   -0.14    3.80
 -13   1   4   87.07   12.66
 -13  -1  -4   69.34    9.80
  13  -1   4   58.54    7.94
 -13  -1   4   80.37   12.09
  13   1   4   83.63   10.62
 -13  -2   4   15.16    6.78
 -13  -2  -4   35.83    8.76
  13   2   4   34.30    8.23
 -13   2   4   33.02    9.02
 -13  -2  -4   18.93    6.01
 -13   3   4   24.73    8.66
 -13  -3   4   23.63    7.97
 -13  -3  -4   24.99    6.80
 -13  -3   4   21.50    7.50
  13   3   4   20.84    7.51
  13   4   4   31.10    8.75
 -13  -4  -4   50.92   10.16
 -13  -4   4   43.35    9.67
 -13   4   4   42.30   11.06
 -13   0   5    6.93    5.73
  13   0   5    0.52    3.74
 -13  -1   5  158.63   16.46
 -13   1   5  156.29   16.51
  13   1   5  147.26   12.99
 -13   2   5   59.82   11.54
 -13  -2   5   43.66    9.60
  13   2   5   91.63   12.14
 -13  -3   5   76.53   12.76
 -13   3   5   70.55   13.29
  13   3   5   67.66   11.96
  13   4   5   47.21   10.52
 -13  -4   5   77.03   13.00
 -13   4   5   54.42   12.37
 -13  -4  -5   88.72   12.69
 -13   0   6   -3.80    5.33
 -13  -1   6   53.19   11.28
 -13   1   6   32.81   10.15
 -13   2   6  120.72   16.61
  13   2   6  120.81   13.73
 -14   0   0  142.11   12.45
 -14   0   0  127.36   13.30
 -14  -1   0   28.10    6.34
 -14   1   0   27.80    6.99
 -14   1   0   43.13    8.52
 -14  -1   0   49.17    9.77
  14   1   0   22.33    7.10
 -14  -1   0   36.74    7.62
  14   2   0  424.96   24.73
 -14   2   0  414.14   22.01
 -14   2   0  421.95   23.22
 -14  -2   0  419.05   22.24
 -14   3   0   34.25    7.76
  14   3   0   50.14   10.57
 -14  -3   0   47.75    9.09
  14   4   0   43.18    9.83
 -14   4   0   37.17    8.19
 -14  -4   0   25.40    7.76
  14   5   0   60.67   11.99
  14   0   1  333.90   20.12
 -14   0  -1  328.61   16.75
 -14   0   1  352.97   21.86
 -14   0  -1  300.95   19.63
 -14   0   1  375.48   21.31
 -14   0  -1  366.52   20.30
 -14   1  -1   76.57    9.81
 -14  -1  -1   88.98   11.53
 -14   1   1   74.54   10.57
 -14  -1   1   80.65   11.30
 -14   1  -1   56.64    9.06
 -14   1   1   41.59    8.43
  14   1   1   49.49    9.29
 -14  -1   1   60.87    8.89
 -14  -1   1   61.94   10.82
 -14  -1  -1   44.96    7.43
 -14   2  -1   10.02    5.21
  14   2   1    9.30    5.60
  14   2  -1   29.51    7.94
 -14  -2   1   16.11    6.06
 -14   2   1   15.77    6.12
 -14  -2  -1   18.64    6.76
 -14  -2   1   14.25    6.21
 -14  -2  -1    9.11    5.20
 -14   2  -1   16.12    5.39
 -14   3  -1   58.65    8.42
 -14   3   1   76.04   10.71
  14   3  -1   40.95    9.45
 -14  -3   1   71.22   11.26
 -14   3  -1   58.35    8.73
  14   3   1   85.43   12.71
 -14  -3  -1   69.14   10.36
 -14  -4   1   37.94    9.22
  14   4  -1   34.30    9.49
 -14  -4  -1   47.35    9.83
  14   4   1   59.43   11.57
 -14   4   1   41.58    9.16
  14   5   1   46.25   10.79
  14   5  -1   41.63   10.29
 -14   0  -2  245.15   13.58
  14   0   2  256.39   17.14
 -14   0   2  278.98   18.75
 -14   0  -2  277.04   17.68
  14   1   2    1.29    4.38
 -14   1  -2    2.02    3.80
 -14   1   2    2.95    5.08
 -14  -1  -2   -2.74    2.86
 -14  -1   2    1.69    4.85
 -14   1  -2   -2.75    3.21
 -14  -1  -2    1.55    4.20
 -14  -2  -2   51.30   10.04
 -14  -2   2   52.79    9.63
  14   2   2   73.56   11.26
 -14   2  -2   65.38    8.28
 -14   2   2   73.17   11.16
 -14  -2   2   77.13   11.75
 -14  -2  -2   54.22    8.52
  14   3  -2  157.25   16.30
 -14  -3   2  148.45   14.95
 -14   3   2  146.08   14.65
 -14  -3  -2  142.08   13.74
 -14  -3   2  159.46   15.99
  14   3   2  153.50   16.25
  14   4   2    7.61    6.38
 -14   4   2   -1.80    5.89
 -14  -4  -2    6.94    6.08
 -14  -4   2   14.15    6.76
  14   4  -2   12.83    6.54
 -14   5   2   10.00    7.83
  14   5  -2   12.21    7.36
  14   5   2   26.16    9.02
  14   0   3  185.47   13.89
 -14   0  -3  159.28   13.30
 -14   0   3  194.86   15.99
 -14   1  -3    1.10    3.51
  14   1   3    0.43    4.45
 -14  -1   3   -0.98    4.11
 -14  -1  -3    1.98    4.47
 -14   1   3   -3.96    4.08
 -14  -2   3   44.04    9.21
 -14  -2  -3   48.65    9.93
 -14  -2   3   34.25    8.36
 -14  -2  -3   35.22    7.09
 -14   2   3   40.06    9.58
  14   2   3   29.81    8.44
 -14  -3   3    6.55    5.70
 -14  -3  -3    8.91    5.55
 -14  -3   3    8.31    6.38
 -14   3   3   16.57    7.43
  14   3   3    3.87    5.49
 -14   4   3   26.76    8.94
 -14  -4  -3   34.68    9.07
  14   4  -3   26.90    8.33
  14   4   3   25.36    8.49
 -14  -4   3   32.03    8.60
 -14   0   4  139.77   15.77
  14   0   4  126.35   12.42
 -14  -1  -4   80.02   10.96
 -14   1   4   74.03   12.45
  14   1   4   88.61   11.37
 -14  -1   4   59.45   10.84
 -14   2   4   10.24    7.04
  14   2   4   16.45    6.61
 -14  -2  -4    5.08    5.80
 -14  -2   4    6.89    5.69
 -14  -3   4   49.87   10.06
 -14   3   4   55.94   11.42
  14   3   4   50.62   10.57
 -14  -3  -4   59.44    9.62
  14   4   4   31.14    8.84
 -14   4   4    7.82    7.82
 -14  -4   4   12.43    6.69
 -14  -4  -4   14.30    6.87
 -14   0   5   63.27   11.75
  14   1   5   32.33    7.93
 -14   1   5   30.83    9.55
 -14  -1   5   22.87    8.59
 -14  -2   5  195.23   18.97
 -14   2   5  160.64   18.24
  14   2   5  198.48   16.13
 -14   3   5   84.19   14.13
  14   3   5   82.87   12.71
 -14  -3   5   75.51   12.64
 -14   0   6   14.37    7.62
 -14  -1   6   42.03   10.57
 -14   1   6   57.06   12.64
 -15   0   0   11.94    6.02
 -15   0   0    8.54    5.27
 -15  -1   0  199.68   15.78
  15   1   0  170.90   15.40
 -15   1   0  202.46   15.86
 -15   1   0  196.16   15.10
 -15  -1   0  220.72   14.79
  15   2   0    2.96    5.17
 -15   2   0   -1.41    4.34
 -15  -2   0    3.61    4.74
 -15   2   0    6.03    4.74
 -15   3   0   24.28    7.02
  15   3   0   23.06    8.32
 -15  -3   0   24.51    7.53
 -15  -4   0   49.79   10.45
  15   4   0   37.30   10.06
 -15   0  -1    4.62    4.43
 -15   0   1    2.54    4.72
 -15   0  -1    5.91    4.61
 -15   1   1   27.57    7.79
 -15  -1  -1   40.04    8.91
  15   1   1   33.50    8.54
 -15  -1   1   27.03    6.89
 -15  -1   1   36.58    8.86
 -15  -1  -1   35.77    6.87
 -15   1  -1   31.98    7.32
 -15   1  -1   36.95    7.78
  15   2  -1  111.98   14.24
 -15  -2  -1  131.77   12.71
 -15  -2   1  152.48   14.14
 -15   2  -1  133.16   11.97
  15   2   1  106.00   13.44
 -15   2  -1  146.91   12.83
 -15   2   1  140.53   14.09
 -15  -2   1  128.48   14.57
 -15  -3   1   11.23    6.64
 -15   3   1   10.75    6.35
  15   3   1   19.08    7.85
 -15  -3  -1    9.21    5.91
  15   3  -1   10.10    6.73
 -15   4   1   31.10    8.64
  15   4   1   39.00   10.38
  15   4  -1   38.22   10.09
 -15  -4  -1   51.48   10.39
 -15   0  -2    9.62    4.88
  15   0   2    1.91    4.49
 -15   0  -2    2.07    4.11
 -15   0   2   -2.16    4.52
 -15   1   2  135.33   14.66
 -15  -1   2  127.86   14.52
 -15   1  -2  138.73   12.11
 -15   1  -2  142.19   12.46
 -15  -1  -2  149.20   14.93
 -15  -1  -2  127.92   10.93
  15   1   2  123.29   13.72
  15   2   2   55.38   10.52
 -15  -2  -2   66.74    9.65
 -15  -2   2   76.86   11.54
 -15  -2   2   72.24   11.87
 -15   2  -2   51.65    8.34
 -15   2   2   47.61    9.96
  15   3   2  111.73   15.08
 -15  -3  -2  119.24   12.96
  15   3  -2  118.00   15.27
 -15  -3   2  100.86   13.09
 -15   3   2   93.70   12.67
 -15  -3   2   97.48   13.72
 -15   4   2    4.38    6.40
 -15  -4  -2   14.85    6.55
  15   4   2    9.29    6.74
 -15  -4   2    9.12    5.67
  15   4  -2    1.11    5.70
 -15   0   3    3.12    5.52
  15   0   3    0.66    4.36
 -15  -1   3    0.93    4.92
 -15  -1  -3    9.89    5.76
 -15   1  -3    7.48    4.49
  15   1   3   -5.62    3.91
 -15   1   3    2.06    5.43
 -15   2   3  121.11   14.66
  15   2   3  128.55   14.65
 -15  -2   3  101.17   13.53
 -15  -3   3    3.07    5.49
 -15  -3  -3    8.64    5.60
 -15   3   3    6.61    6.76
  15   3   3    7.23    6.01
 -15   0   4    7.20    5.99
  15   0   4    0.56    4.56
 -15   1   4   46.42   10.71
 -15  -1   4   80.21   13.15
  15   1   4   44.59    8.87
 -15   2   4   70.16   12.73
  15   2   4   82.93   12.64
 -15  -2   4   62.66   12.37
 -15   3   4   -1.25    6.47
  15   3   4    3.87    5.82
 -15  -3   4    6.23    6.17
 -15   0   5    1.15    6.14
 -15  -1   5    3.16    6.46
 -15   1   5    8.37    7.54
  15   1   5    7.13    5.70
 -16   0   0   -0.95    4.47
 -16  -1   0   74.91   11.55
 -16   1   0   64.85   10.55
 -16  -1   0   62.43    9.60
  16   2   0   79.72   13.16
 -16   2   0   65.46   10.51
 -16  -2   0   65.85   10.81
  16   3   0   37.39    9.95
 -16   3   0   48.72    9.74
 -16  -3   0   23.46    7.84
 -16   0   1   58.74   11.01
 -16   0  -1   76.90   11.09
 -16   1  -1   -2.98    4.28
 -16   1   1    5.06    5.66
  16   1   1    1.66    5.04
 -16  -1   1    0.50    4.67
 -16  -1  -1   -1.56    3.97
 -16  -1  -1    2.34    4.83
 -16   1  -1    7.85    5.44
 -16  -2   1   52.08    9.89
 -16   2  -1   45.91    8.52
 -16  -2  -1   46.93    8.70
 -16  -2   1   55.28   11.04
  16   2  -1   50.52   11.26
  16   2   1   39.70    9.85
 -16   2   1   73.31   11.32
 -16  -3   1   22.47    7.67
  16   3   1   13.93    7.45
 -16   3   1   19.39    7.76
 -16  -3   1   11.61    6.53
  16   3  -1   16.75    7.76
 -16  -3  -1   20.08    7.46
 -16   0  -2   90.88   11.81
  16   0   2   93.51   12.12
 -16   0  -2   89.20   11.52
 -16   0   2   92.25   13.67
  16   1   2   37.69    9.45
 -16   1   2   36.53    9.24
 -16  -1   2   25.15    8.51
 -16   1  -2   42.99    8.56
  16   2   2   11.11    6.96
 -16   2   2   13.48    7.24
 -16  -2   2   16.05    6.72
 -16  -2   2    6.74    5.55
 -16  -2  -2    8.52    5.52
 -16  -3  -2   79.04   11.42
  16   3   2   86.41   14.27
 -16  -3   2   53.09   10.84
 -16   3   2   92.18   13.33
 -16   0   3  275.92   20.80
  16   0   3  245.59   17.65
 -16   1   3    7.46    6.79
  16   1   3   11.85    6.15
 -16  -1   3    8.65    6.57
  16   2   3   69.89   11.95
 -16  -2   3   79.52   13.18
 -16   2   3   79.84   13.10
 -16   0   4   43.11   10.88
  16   1   4   -0.76    5.00
 -16   1   4   -3.28    6.33
 -16  -1   4    3.29    6.08
 -17   0   0    3.52    5.53
 -17  -1   0   43.53    8.53
 -17  -1   0   65.64   11.72
 -17   1   0   65.27   10.99
 -17  -2   0    2.76    5.52
 -17   2   0    3.18    5.86
  17   2   0    3.43    6.50
 -17  -2   0    4.08    5.87
 -17   0  -1    0.16    4.75
 -17   0   1    8.22    6.42
 -17   1   1    8.29    6.40
 -17  -1   1    0.88    5.49
 -17   1  -1   14.74    6.33
 -17  -1  -1   14.86    6.71
  17   1   1    6.47    6.26
 -17  -2   1   34.06    9.69
 -17   2   1   18.96    8.17
  17   2   1   23.54    8.76
 -17   2  -1   21.12    7.06
 -17  -2  -1   30.99    7.92
 -17  -2   1   24.09    7.78
 -17   0  -2    8.09    5.31
 -17   0   2    1.69    5.51
 -17   1   2   87.99   13.86
  17   1   2   65.58   11.90
 -17  -1   2   73.86   13.04
 -17   1  -2   43.96    8.95
   0   0   0    0.00    0.00
;
_shelx_hkl_checksum              64539
loop_
_space_group_symop_operation_xyz
'x, y, z'
'-x, -y, z+1/2'
'x+1/2, -y+1/2, z'
'-x+1/2, y+1/2, z+1/2'
loop_
_atom_site_label
_atom_site_type_symbol
_atom_site_fract_x
_atom_site_fract_y
_atom_site_fract_z
_atom_site_U_iso_or_equiv
_atom_site_adp_type
_atom_site_occupancy
_atom_site_site_symmetry_order
_atom_site_calc_flag
_atom_site_refinement_flags_posn
_atom_site_refinement_flags_adp
CL1 Cl 0.20424(5) 0.93357(8) 0.15617(12) 0.0311(2) Uani 1 1 d . .
F1 F 0.06916(12) 0.4550(2) 0.4944(3) 0.0443(5) Uani 1 1 d . .
F3 F -0.05341(12) 0.6269(3) 0.5242(3) 0.0458(5) Uani 1 1 d . .
F2 F 0.03267(14) 0.6623(3) 0.3086(2) 0.0469(5) Uani 1 1 d . .
N1 N 0.19179(15) 0.7801(3) 0.5184(4) 0.0208(5) Uani 1 1 d . .
H11 H 0.201(2) 0.808(4) 0.415(5) 0.030(9) Uiso 1 1 d . .
H12 H 0.217(2) 0.668(4) 0.546(4) 0.025(8) Uiso 1 1 d . .
C1 C 0.22629(19) 0.9388(3) 0.6337(5) 0.0273(8) Uani 1 1 d . .
H1A H 0.273780 0.892861 0.714659 0.033 Uiso 1 1 calc R U
H1B H 0.251695 1.048131 0.569907 0.033 Uiso 1 1 calc R U
C2 C 0.1341(2) 0.9863(5) 0.7183(4) 0.0303(7) Uani 1 1 d . .
H2 H 0.131204 1.088950 0.804987 0.036 Uiso 1 1 calc R U
C3 C 0.0955(2) 0.7846(5) 0.7582(4) 0.0298(8) Uani 1 1 d . .
H3A H 0.141281 0.696334 0.809773 0.036 Uiso 1 1 calc R U
H3B H 0.034313 0.782405 0.816664 0.036 Uiso 1 1 calc R U
C4 C 0.08992(18) 0.7757(4) 0.5668(4) 0.0226(7) Uani 1 1 d . .
C5 C 0.0660(2) 0.9894(4) 0.5678(4) 0.0296(7) Uani 1 1 d . .
H5A H 0.000127 1.020037 0.595966 0.036 Uiso 1 1 calc R U
H5B H 0.088399 1.061494 0.468889 0.036 Uiso 1 1 calc R U
C6 C 0.0349(2) 0.6299(4) 0.4730(4) 0.0286(7) Uani 1 1 d . .
loop_
_atom_site_aniso_label
_atom_site_aniso_U_11
_atom_site_aniso_U_22
_atom_site_aniso_U_33
_atom_site_aniso_U_23
_atom_site_aniso_U_13
_atom_site_aniso_U_12
CL1 0.0371(4) 0.0291(3) 0.0272(4) 0.0073(4) 0.0010(4) -0.0083(3)
F1 0.0459(11) 0.0228(8) 0.0642(14) -0.0051(10) -0.0119(11) -0.0023(7)
F3 0.0256(9) 0.0510(11) 0.0607(15) -0.0048(11) 0.0028(9) -0.0122(8)
F2 0.0607(12) 0.0532(12) 0.0268(12) -0.0022(10) -0.0090(10) -0.0207(10)
N1 0.0240(11) 0.0185(12) 0.0199(15) 0.0027(11) 0.0015(11) 0.0023(10)
C1 0.0277(14) 0.0228(12) 0.032(2) -0.0007(14) -0.0067(15) -0.0025(12)
C2 0.0349(16) 0.0255(15) 0.0306(18) -0.0075(12) -0.0026(13) 0.0029(14)
C3 0.0321(17) 0.0354(18) 0.022(2) 0.0001(14) 0.0053(14) -0.0009(15)
C4 0.0188(15) 0.0227(16) 0.026(2) 0.0019(13) 0.0022(12) 0.0008(12)
C5 0.0274(15) 0.0231(15) 0.0383(19) -0.0039(13) 0.0001(15) 0.0041(12)
C6 0.0289(15) 0.0275(15) 0.029(2) 0.0016(15) 0.0011(14) -0.0010(12)
loop_
_atom_type_symbol
_atom_type_description
_atom_type_scat_dispersion_real
_atom_type_scat_dispersion_imag
_atom_type_scat_source
C C 0.0033 0.0016 'International Tables Vol C Tables 4.2.6.8 and 6.1.1.4'
H H 0.0000 0.0000 'International Tables Vol C Tables 4.2.6.8 and 6.1.1.4'
F F 0.0171 0.0103 'International Tables Vol C Tables 4.2.6.8 and 6.1.1.4'
Cl Cl 0.1484 0.1585 'International Tables Vol C Tables 4.2.6.8 and 6.1.1.4'
N N 0.0061 0.0033 'International Tables Vol C Tables 4.2.6.8 and 6.1.1.4'
loop_
_geom_angle_atom_site_label_1
_geom_angle_atom_site_label_2
_geom_angle_atom_site_label_3
_geom_angle
C4 N1 C1 99.9(2)
C2 C1 N1 98.6(2)
C1 C2 C5 101.7(3)
C1 C2 C3 101.4(2)
C5 C2 C3 87.1(2)
C4 C3 C2 81.4(2)
C6 C4 N1 113.2(2)
C6 C4 C3 123.8(3)
N1 C4 C3 101.8(2)
C6 C4 C5 123.7(2)
N1 C4 C5 101.3(2)
C3 C4 C5 88.1(3)
C4 C5 C2 81.4(2)
F3 C6 F2 106.5(2)
F3 C6 F1 107.1(2)
F2 C6 F1 107.0(3)
F3 C6 C4 110.9(3)
F2 C6 C4 112.9(2)
F1 C6 C4 112.0(2)
loop_
_geom_bond_atom_site_label_1
_geom_bond_atom_site_label_2
_geom_bond_distance
F1 C6 1.333(3)
F3 C6 1.324(3)
F2 C6 1.331(4)
N1 C4 1.504(3)
N1 C1 1.526(4)
C1 C2 1.516(4)
C2 C5 1.544(4)
C2 C3 1.553(4)
C3 C4 1.529(4)
C4 C6 1.492(4)
C4 C5 1.540(4)
