#------------------------------------------------------------------------------
#$Date: 2019-11-11 19:49:34 +0200 (Mon, 11 Nov 2019) $
#$Revision: 227143 $
#$URL: file:///home/coder/svn-repositories/cod/cif/4/03/56/4035695.cif $
#------------------------------------------------------------------------------
#
# This file is available in the Crystallography Open Database (COD),
# http://www.crystallography.net/
#
# All data on this site have been placed in the public domain by the
# contributors.
#
data_4035695
loop_
_publ_author_name
'Wang, Qiang'
'Jin, Jia-Ni'
'Chen, Xi'
'Wang, Xin-Gang'
'Zhang, Bo-Sheng'
'Ma, Jun-Wei'
'Liang, Yong-Min'
_publ_section_title
;
 Synthesis of Difluoroalkyl Unsaturated \b-Amino Acid Derivatives
 Exclusively through Alkyne Difunctionalization.
;
_journal_issue                   23
_journal_name_full               'The Journal of organic chemistry'
_journal_page_first              14626
_journal_page_last               14636
_journal_paper_doi               10.1021/acs.joc.8b02440
_journal_volume                  83
_journal_year                    2018
_chemical_formula_moiety         'C12 H17 F2 N O5'
_chemical_formula_sum            'C12 H17 F2 N O5'
_chemical_formula_weight         293.26
_space_group_crystal_system      triclinic
_space_group_IT_number           2
_space_group_name_Hall           '-P 1'
_space_group_name_H-M_alt        'P -1'
_atom_sites_solution_hydrogens   geom
_atom_sites_solution_primary     iterative
_audit_creation_date             2018-03-05
_audit_creation_method
;
Olex2 1.2
(compiled 2017.03.28 svn.r3405 for OlexSys, GUI svn.r5337)
;
_cell_angle_alpha                74.167(8)
_cell_angle_beta                 81.776(9)
_cell_angle_gamma                84.811(9)
_cell_formula_units_Z            2
_cell_length_a                   5.3680(6)
_cell_length_b                   8.8589(9)
_cell_length_c                   15.7536(14)
_cell_measurement_reflns_used    1233
_cell_measurement_temperature    293(2)
_cell_measurement_theta_max      69.2910
_cell_measurement_theta_min      5.2030
_cell_volume                     712.28(13)
_computing_cell_refinement       'CrysAlisPro 1.171.38.41 (Rigaku OD, 2015)'
_computing_data_collection       'CrysAlisPro 1.171.38.41 (Rigaku OD, 2015)'
_computing_data_reduction        'CrysAlisPro 1.171.38.41 (Rigaku OD, 2015)'
_computing_molecular_graphics    'Olex2 (Dolomanov et al., 2009)'
_computing_publication_material  'Olex2 (Dolomanov et al., 2009)'
_computing_structure_refinement  'ShelXL (Sheldrick, 2015)'
_computing_structure_solution
;
Superflip (Palatinus & Chapuis, 2007;Palatinus & van der Lee, 2008;
Palatinus et al., 2012)
;
_diffrn_ambient_temperature      293(2)
_diffrn_detector                 'CCD plate'
_diffrn_detector_area_resol_mean 16.0733
_diffrn_detector_type            Eos
_diffrn_measured_fraction_theta_full 0.989
_diffrn_measured_fraction_theta_max 0.965
_diffrn_measurement_details
;
List of Runs (angles in degrees, time in seconds):

  # Type    Start    End  Width  t~exp~   \w     \q     \k     \f   Frames
--------------------------------------------------------------------------
  1  \w    -17.00  80.00   1.00    1.00    --   54.00 -38.00 150.00   97
  2  \w     76.00 113.00   1.00    1.00    --  108.00-111.00 120.00   37
  3  \w    103.00 130.00   1.00    1.00    --  108.00 -91.00  60.00   27
  4  \w     63.00 129.00   1.00    1.00    --  108.00 -50.00 -60.00   66
  5  \w     66.00 116.00   1.00    1.00    --  108.00-111.00 -30.00   50
  6  \w     67.00 132.00   1.00    1.00    --  108.00 -38.00   0.00   65
  7  \w     95.00 170.00   1.00    1.00    --  108.00  63.00 -60.00   75
  8  \w    146.00 173.00   1.00    1.00    --  108.00 111.00-120.00   27
  9  \w    113.00 140.00   1.00    1.00    --  108.00 111.00-120.00   27
 10  \w     41.00 111.00   1.00    1.00    --   54.00  57.00  90.00   70
 11  \w    108.00 177.00   1.00    1.00    --  108.00 111.00 120.00   69
 12  \w     59.00 128.00   1.00    1.00    --  108.00 -50.00 120.00   69
 13  \w     52.00  85.00   1.00    1.00    --  108.00 -91.00  60.00   33
 14  \w     42.00  69.00   1.00    1.00    --  108.00 -63.00 120.00   27
 15  \w     43.00 177.00   1.00    1.00    --  108.00   0.00  90.00  134
 16  \w     59.00 109.00   1.00    1.00    --  108.00-111.00-120.00   50
 17  \w     42.00 130.00   1.00    1.00    --  108.00 -50.00-150.00   88
 18  \w     24.00 123.00   1.00    1.00    --   54.00  77.00 -60.00   99
 19  \w      6.00  65.00   1.00    1.00    --   54.00 -57.00 -30.00   59
 20  \w      1.00  54.00   1.00    1.00    --    0.00  57.00   0.00   53
 21  \w    -26.00  13.00   1.00    1.00    --    0.00 -57.00-150.00   39
 22  \w    -62.00 -35.00   1.00    1.00    --    0.00 -57.00-150.00   27
 23  \w     29.00 109.00   1.00    1.00    --   54.00-125.00 150.00   80
;
_diffrn_measurement_device       'four-circle diffractometer'
_diffrn_measurement_device_type  'SuperNova, Dual, Cu at zero, Eos'
_diffrn_measurement_method       '\w scans'
_diffrn_orient_matrix_type
'CrysAlisPro convention (1999,Acta A55,543-557)'
_diffrn_orient_matrix_UB_11      0.0234550000
_diffrn_orient_matrix_UB_12      0.1190424000
_diffrn_orient_matrix_UB_13      0.0533786000
_diffrn_orient_matrix_UB_21      0.0522074000
_diffrn_orient_matrix_UB_22      0.1292562000
_diffrn_orient_matrix_UB_23      -0.0874150000
_diffrn_orient_matrix_UB_31      -0.2846989000
_diffrn_orient_matrix_UB_32      0.0434812000
_diffrn_orient_matrix_UB_33      0.0012758000
_diffrn_radiation_monochromator  mirror
_diffrn_radiation_probe          x-ray
_diffrn_radiation_type           CuK\a
_diffrn_radiation_wavelength     1.54184
_diffrn_reflns_av_R_equivalents  0.0236
_diffrn_reflns_av_unetI/netI     0.0345
_diffrn_reflns_Laue_measured_fraction_full 0.989
_diffrn_reflns_Laue_measured_fraction_max 0.965
_diffrn_reflns_limit_h_max       4
_diffrn_reflns_limit_h_min       -6
_diffrn_reflns_limit_k_max       10
_diffrn_reflns_limit_k_min       -10
_diffrn_reflns_limit_l_max       18
_diffrn_reflns_limit_l_min       -19
_diffrn_reflns_number            4165
_diffrn_reflns_point_group_measured_fraction_full 0.989
_diffrn_reflns_point_group_measured_fraction_max 0.965
_diffrn_reflns_theta_full        67.684
_diffrn_reflns_theta_max         69.963
_diffrn_reflns_theta_min         5.254
_diffrn_source                   'micro-focus sealed X-ray tube'
_diffrn_source_type              'SuperNova (Cu) X-ray Source'
_exptl_absorpt_coefficient_mu    1.061
_exptl_absorpt_correction_T_max  1.00000
_exptl_absorpt_correction_T_min  0.78078
_exptl_absorpt_correction_type   multi-scan
_exptl_absorpt_process_details
;
CrysAlisPro 1.171.38.41 (Rigaku Oxford Diffraction, 2015)
Empirical absorption correction using spherical harmonics,
 implemented in SCALE3 ABSPACK scaling algorithm.
;
_exptl_crystal_colour            'clear light colourless'
_exptl_crystal_colour_lustre     clear
_exptl_crystal_colour_modifier   light
_exptl_crystal_colour_primary    colourless
_exptl_crystal_density_diffrn    1.367
_exptl_crystal_description       block
_exptl_crystal_F_000             308
_exptl_crystal_size_max          0.22
_exptl_crystal_size_mid          0.17
_exptl_crystal_size_min          0.14
_refine_diff_density_max         0.690
_refine_diff_density_min         -0.385
_refine_diff_density_rms         0.067
_refine_ls_extinction_method     none
_refine_ls_goodness_of_fit_ref   1.084
_refine_ls_hydrogen_treatment    constr
_refine_ls_matrix_type           full
_refine_ls_number_parameters     184
_refine_ls_number_reflns         2617
_refine_ls_number_restraints     24
_refine_ls_restrained_S_all      1.121
_refine_ls_R_factor_all          0.0921
_refine_ls_R_factor_gt           0.0760
_refine_ls_shift/su_max          0.000
_refine_ls_shift/su_mean         0.000
_refine_ls_structure_factor_coef Fsqd
_refine_ls_weighting_details
'w=1/[\s^2^(Fo^2^)+(0.1569P)^2^+0.1789P] where P=(Fo^2^+2Fc^2^)/3'
_refine_ls_weighting_scheme      calc
_refine_ls_wR_factor_gt          0.2293
_refine_ls_wR_factor_ref         0.2588
_reflns_Friedel_coverage         0.000
_reflns_number_gt                1948
_reflns_number_total             2617
_reflns_threshold_expression     'I > 2\s(I)'
_iucr_refine_instructions_details
;

    liangym_0305.res created by SHELXL-2014/7

TITL liangym_0305 in P-1
CELL 1.54184 5.368017 8.858896 15.753646 74.1672 81.7758 84.8107
ZERR 2 0.000609 0.000854 0.001359 0.0083 0.0085 0.0085
LATT 1
SFAC C H F N O
UNIT 24 34 4 2 10
ISOR 0.01 0.02 C11 C12 O4 O5
 
L.S. 10
PLAN  20
HTAB
CONF
bond $H
fmap 2
acta
REM <olex2.extras>
REM <HklSrc "%.\\liangym_0305.hkl">
REM </olex2.extras>
 
WGHT    0.156900    0.178900
FVAR      11.10286
F1    3    0.100425    0.497883    0.795741    11.00000    0.11872    0.05050 =
         0.07408   -0.01734    0.00782   -0.00814
F2    3    0.381810    0.321547    0.770441    11.00000    0.05786    0.10791 =
         0.07234   -0.01959   -0.00437   -0.00138
O1    5    0.508313    0.047058    1.108019    11.00000    0.06357    0.06106 =
         0.07104   -0.02998   -0.02476    0.03301
O2    5   -0.248493    0.397491    1.039985    11.00000    0.04983    0.04930 =
         0.04902   -0.01881   -0.01143    0.01820
O3    5   -0.380792    0.418830    0.909089    11.00000    0.05034    0.06399 =
         0.05405   -0.02522   -0.01913    0.02413
AFIX 147
H3    2   -0.504507    0.461898    0.931548    11.00000   -1.50000
AFIX   0
O4    5    0.006666    0.510675    0.639003    11.00000    0.23447    0.09596 =
         0.10140    0.01541   -0.08327   -0.01553
O5    5    0.031993    0.251281    0.665838    11.00000    0.17515    0.09275 =
         0.06029   -0.02948   -0.03885   -0.00112
N1    4    0.160373    0.206639    1.079051    11.00000    0.04777    0.04353 =
         0.04541   -0.01207   -0.00872    0.01739
AFIX  43
H1    2    0.046113    0.267106    1.099035    11.00000   -1.20000
AFIX   0
C1    1    0.520001    0.180768    1.352779    11.00000    0.14041    0.13223 =
         0.07880   -0.04603   -0.04127    0.00612
AFIX 137
H1A   2    0.426551    0.279553    1.348958    11.00000   -1.50000
H1B   2    0.683447    0.186771    1.369293    11.00000   -1.50000
H1C   2    0.431316    0.099380    1.396754    11.00000   -1.50000
AFIX   0
C2    1    0.549586    0.143725    1.263071    11.00000    0.08026    0.12904 =
         0.07053   -0.04274   -0.02553    0.01516
AFIX  23
H2A   2    0.675407    0.209596    1.223222    11.00000   -1.20000
H2B   2    0.612176    0.035268    1.270608    11.00000   -1.20000
AFIX   0
C3    1    0.315218    0.167200    1.221027    11.00000    0.07077    0.07085 =
         0.05140   -0.01963   -0.01726    0.02298
AFIX  23
H3A   2    0.251634    0.275327    1.214243    11.00000   -1.20000
H3B   2    0.190134    0.100439    1.260663    11.00000   -1.20000
AFIX   0
C4    1    0.343208    0.132859    1.132428    11.00000    0.04896    0.03899 =
         0.04973   -0.00824   -0.00986    0.01235
C5    1    0.152683    0.188144    0.996575    11.00000    0.04513    0.03306 =
         0.04698   -0.01291   -0.00719    0.00997
AFIX  43
H5    2    0.276582    0.121306    0.976403    11.00000   -1.20000
AFIX   0
C6    1   -0.019323    0.258427    0.941355    11.00000    0.04325    0.03489 =
         0.04576   -0.01270   -0.00724    0.00655
C7    1   -0.223181    0.363626    0.967903    11.00000    0.04042    0.03616 =
         0.04358   -0.01077   -0.00797    0.00769
C8    1   -0.005605    0.230626    0.850720    11.00000    0.05129    0.04216 =
         0.05114   -0.02009   -0.01071    0.01249
AFIX  23
H8A   2   -0.175491    0.226279    0.837561    11.00000   -1.20000
H8B   2    0.081167    0.129378    0.851650    11.00000   -1.20000
AFIX   0
C9    1    0.128690    0.355706    0.777190    11.00000    0.06198    0.05386 =
         0.05108   -0.01781   -0.01059    0.00912
C10   1    0.052831    0.383460    0.685387    11.00000    0.10514    0.07532 =
         0.05576   -0.00149   -0.02352   -0.00580
C11   1   -0.017437    0.256055    0.574463    11.00000    0.16514    0.17936 =
         0.08347   -0.02840   -0.04366   -0.01378
AFIX  23
H11A  2    0.067017    0.342501    0.531609    11.00000   -1.20000
H11B  2    0.047586    0.159068    0.560069    11.00000   -1.20000
AFIX   0
C12   1   -0.264545    0.274631    0.570617    11.00000    0.21134    0.24525 =
         0.13422   -0.03995   -0.02293   -0.05465
AFIX 137
H12A  2   -0.300423    0.256620    0.516313    11.00000   -1.50000
H12B  2   -0.321727    0.379696    0.572422    11.00000   -1.50000
H12C  2   -0.349877    0.200989    0.620342    11.00000   -1.50000
AFIX   0
HKLF 4
 
REM  liangym_0305 in P-1
REM R1 =  0.0760 for    1948 Fo > 4sig(Fo)  and  0.0921 for all    2617 data
REM    184 parameters refined using     24 restraints
 
END  
     
WGHT      0.1574      0.1745 

REM Instructions for potential hydrogen bonds
EQIV $1 -x-1, -y+1, -z+2
HTAB O3 O2_$1
HTAB N1 O2
EQIV $2 -x, -y+1, -z+2
HTAB C3 F1_$2
EQIV $3 -x+1, -y, -z+2
HTAB C5 O1_$3
HTAB C8 O1_$3

REM Highest difference peak  0.690,  deepest hole -0.385,  1-sigma level  0.067
Q1    1  -0.0287  0.1574  0.5449  11.00000  0.05    0.69
Q2    1  -0.0357  0.4753  0.7581  11.00000  0.05    0.38
Q3    1   0.2968  0.2845  0.6404  11.00000  0.05    0.30
Q4    1  -0.1161  0.3368  0.6625  11.00000  0.05    0.28
Q5    1  -0.1264  0.3029  0.6786  11.00000  0.05    0.28
Q6    1   0.2373  0.4402  0.6264  11.00000  0.05    0.27
Q7    1   0.1296  0.2340  0.9774  11.00000  0.05    0.25
Q8    1   0.1984  0.1967  1.2394  11.00000  0.05    0.24
Q9    1   0.3231  0.3995  0.7914  11.00000  0.05    0.19
Q10   1  -0.3067  0.4763  0.8391  11.00000  0.05    0.19
Q11   1   0.4629  0.2135  1.2304  11.00000  0.05    0.17
Q12   1   0.1783  0.2684  0.5644  11.00000  0.05    0.17
Q13   1   0.2900  0.2889  0.7587  11.00000  0.05    0.17
Q14   1   0.2111  0.2965  0.5408  11.00000  0.05    0.16
Q15   1   0.3825  0.2803  0.7757  11.00000  0.05    0.16
Q16   1   0.3180  0.1271  1.3864  11.00000  0.05    0.15
Q17   1  -0.0419  0.1492  1.0681  11.00000  0.05    0.15
Q18   1   0.0012  0.1413  0.7200  11.00000  0.05    0.15
Q19   1   0.2560  0.2036  0.5596  11.00000  0.05    0.15
Q20   1  -0.5374  0.3947  0.8783  11.00000  0.05    0.15

  REM The information below was added by Olex2.
  REM
  REM R1 = 0.0760 for 1948 Fo > 4sig(Fo) and 0.0921 for all 4165 data
  REM n/a parameters refined using n/a restraints
  REM Highest difference peak 0.69, deepest hole -0.38
  REM Mean Shift 0, Max Shift 0.000.

  REM +++ Tabular Listing of Refinement Information +++
  REM R1_all = 0.0921
  REM R1_gt = 0.0760
  REM wR_ref = 0.2588
  REM GOOF = 1.084
  REM Shift_max = 0.000
  REM Shift_mean = 0
  REM Reflections_all = 4165
  REM Reflections_gt = 1948
  REM Parameters = n/a
  REM Hole = -0.38
  REM Peak = 0.69
  REM Flack = n/a

  
;
_cod_data_source_file            jo8b02440_si_002.cif
_cod_data_source_block           liangym_0305
_cod_original_cell_volume        712.29(13)
_cod_database_code               4035695
_shelx_shelxl_version_number     2014/7
_shelx_space_group_comment
;
The symmetry employed for this shelxl refinement is uniquely defined
by the following loop, which should always be used as a source of
symmetry information in preference to the above space-group names.
They are only intended as comments.
;
_reflns_odcompleteness_completeness 99.06
_reflns_odcompleteness_iscentric 1
_reflns_odcompleteness_theta     66.97
_olex2_refinement_description
;
1. Fixed Uiso
 At 1.2 times of:
  All C(H) groups, All C(H,H) groups, All N(H) groups
 At 1.5 times of:
  All C(H,H,H) groups, All O(H) groups
2. Uiso/Uaniso restraints and constraints
Uanis(C11) \\sim Ueq, Uanis(C12) \\sim Ueq, Uanis(O4) \\sim Ueq, Uanis(O5)
\\sim Ueq: with sigma of 0.01 and sigma for terminal atoms of 0.02
3.a Secondary CH2 refined with riding coordinates:
 C2(H2A,H2B), C3(H3A,H3B), C8(H8A,H8B), C11(H11A,H11B)
3.b Aromatic/amide H refined with riding coordinates:
 N1(H1), C5(H5)
3.c Idealised Me refined as rotating group:
 C1(H1A,H1B,H1C), C12(H12A,H12B,H12C)
3.d Idealised tetrahedral OH refined as rotating group:
 O3(H3)
;
_olex2_date_sample_data_collection 2018-03-05
_olex2_submission_special_instructions 'No special instructions were received'
_oxdiff_exptl_absorpt_empirical_details
;
Empirical correction (ABSPACK) includes:
- Absorption correction using spherical harmonics
- Frame scaling
;
_oxdiff_exptl_absorpt_empirical_full_max 1.815
_oxdiff_exptl_absorpt_empirical_full_min 0.719
loop_
_space_group_symop_operation_xyz
'x, y, z'
'-x, -y, -z'
loop_
_atom_site_label
_atom_site_type_symbol
_atom_site_fract_x
_atom_site_fract_y
_atom_site_fract_z
_atom_site_U_iso_or_equiv
_atom_site_adp_type
_atom_site_occupancy
_atom_site_site_symmetry_order
_atom_site_calc_flag
_atom_site_refinement_flags_posn
_atom_site_refinement_flags_adp
F1 F 0.1004(5) 0.4979(2) 0.79574(15) 0.0827(7) Uani 1 1 d . .
F2 F 0.3818(4) 0.3215(3) 0.77044(15) 0.0808(7) Uani 1 1 d . .
O1 O 0.5083(4) 0.0471(3) 1.10802(16) 0.0634(7) Uani 1 1 d . .
O2 O -0.2485(4) 0.3975(2) 1.03999(13) 0.0490(6) Uani 1 1 d . .
O3 O -0.3808(4) 0.4188(3) 0.90909(13) 0.0547(6) Uani 1 1 d . .
H3 H -0.5045 0.4619 0.9315 0.082 Uiso 1 1 calc GR .
O4 O 0.0067(11) 0.5107(5) 0.6390(3) 0.1454(19) Uani 1 1 d . U
O5 O 0.0320(8) 0.2513(4) 0.66584(19) 0.1055(12) Uani 1 1 d . U
N1 N 0.1604(4) 0.2066(3) 1.07905(15) 0.0465(6) Uani 1 1 d . .
H1 H 0.0461 0.2671 1.0990 0.056 Uiso 1 1 calc R .
C1 C 0.5200(12) 0.1808(8) 1.3528(3) 0.1116(18) Uani 1 1 d . .
H1A H 0.4266 0.2796 1.3490 0.167 Uiso 1 1 calc GR .
H1B H 0.6834 0.1868 1.3693 0.167 Uiso 1 1 calc GR .
H1C H 0.4313 0.0994 1.3968 0.167 Uiso 1 1 calc GR .
C2 C 0.5496(8) 0.1437(7) 1.2631(3) 0.0897(14) Uani 1 1 d . .
H2A H 0.6754 0.2096 1.2232 0.108 Uiso 1 1 calc R .
H2B H 0.6122 0.0353 1.2706 0.108 Uiso 1 1 calc R .
C3 C 0.3152(7) 0.1672(5) 1.2210(2) 0.0644(9) Uani 1 1 d . .
H3A H 0.2516 0.2753 1.2142 0.077 Uiso 1 1 calc R .
H3B H 0.1901 0.1004 1.2607 0.077 Uiso 1 1 calc R .
C4 C 0.3432(5) 0.1329(3) 1.13243(19) 0.0471(7) Uani 1 1 d . .
C5 C 0.1527(5) 0.1881(3) 0.99657(18) 0.0419(6) Uani 1 1 d . .
H5 H 0.2766 0.1213 0.9764 0.050 Uiso 1 1 calc R .
C6 C -0.0193(5) 0.2584(3) 0.94136(18) 0.0413(6) Uani 1 1 d . .
C7 C -0.2232(5) 0.3636(3) 0.96790(17) 0.0403(6) Uani 1 1 d . .
C8 C -0.0056(5) 0.2306(3) 0.85072(19) 0.0472(7) Uani 1 1 d . .
H8A H -0.1755 0.2263 0.8376 0.057 Uiso 1 1 calc R .
H8B H 0.0812 0.1294 0.8516 0.057 Uiso 1 1 calc R .
C9 C 0.1287(6) 0.3557(4) 0.7772(2) 0.0553(8) Uani 1 1 d . .
C10 C 0.0528(9) 0.3835(5) 0.6854(3) 0.0804(12) Uani 1 1 d . .
C11 C -0.0174(17) 0.2561(11) 0.5745(4) 0.141(2) Uani 1 1 d . U
H11A H 0.0670 0.3425 0.5316 0.169 Uiso 1 1 calc R .
H11B H 0.0476 0.1591 0.5601 0.169 Uiso 1 1 calc R .
C12 C -0.265(2) 0.2746(14) 0.5706(6) 0.196(4) Uani 1 1 d . U
H12A H -0.3004 0.2566 0.5163 0.294 Uiso 1 1 calc GR .
H12B H -0.3217 0.3797 0.5724 0.294 Uiso 1 1 calc GR .
H12C H -0.3499 0.2010 0.6203 0.294 Uiso 1 1 calc GR .
loop_
_atom_site_aniso_label
_atom_site_aniso_U_11
_atom_site_aniso_U_22
_atom_site_aniso_U_33
_atom_site_aniso_U_23
_atom_site_aniso_U_13
_atom_site_aniso_U_12
F1 0.1187(19) 0.0505(11) 0.0741(14) -0.0173(10) 0.0078(12) -0.0081(11)
F2 0.0579(12) 0.1079(18) 0.0723(14) -0.0196(12) -0.0044(10) -0.0014(11)
O1 0.0636(13) 0.0611(14) 0.0710(14) -0.0300(11) -0.0248(11) 0.0330(11)
O2 0.0498(11) 0.0493(11) 0.0490(11) -0.0188(9) -0.0114(8) 0.0182(9)
O3 0.0503(11) 0.0640(13) 0.0540(12) -0.0252(10) -0.0191(9) 0.0241(10)
O4 0.234(5) 0.096(3) 0.101(3) 0.015(2) -0.083(3) -0.016(3)
O5 0.175(3) 0.093(2) 0.0603(16) -0.0295(15) -0.0388(19) -0.001(2)
N1 0.0478(12) 0.0435(13) 0.0454(12) -0.0121(10) -0.0087(9) 0.0174(10)
C1 0.140(5) 0.132(4) 0.079(3) -0.046(3) -0.041(3) 0.006(4)
C2 0.080(3) 0.129(4) 0.071(2) -0.043(3) -0.026(2) 0.015(3)
C3 0.071(2) 0.071(2) 0.0514(18) -0.0196(15) -0.0173(15) 0.0230(17)
C4 0.0490(14) 0.0390(14) 0.0497(15) -0.0082(11) -0.0099(11) 0.0123(11)
C5 0.0451(13) 0.0331(13) 0.0470(14) -0.0129(10) -0.0072(11) 0.0100(10)
C6 0.0432(13) 0.0349(13) 0.0458(14) -0.0127(10) -0.0072(10) 0.0066(10)
C7 0.0404(13) 0.0362(13) 0.0436(14) -0.0108(10) -0.0080(10) 0.0077(10)
C8 0.0513(15) 0.0422(14) 0.0511(15) -0.0201(12) -0.0107(12) 0.0125(11)
C9 0.0620(17) 0.0539(17) 0.0511(17) -0.0178(13) -0.0106(13) 0.0091(14)
C10 0.105(3) 0.075(3) 0.056(2) -0.0015(19) -0.024(2) -0.006(2)
C11 0.165(6) 0.179(6) 0.083(3) -0.028(4) -0.044(4) -0.014(5)
C12 0.211(10) 0.245(11) 0.134(7) -0.040(7) -0.023(7) -0.055(8)
loop_
_atom_type_symbol
_atom_type_description
_atom_type_scat_dispersion_real
_atom_type_scat_dispersion_imag
_atom_type_scat_source
C C 0.0181 0.0091 'International Tables Vol C Tables 4.2.6.8 and 6.1.1.4'
H H 0.0000 0.0000 'International Tables Vol C Tables 4.2.6.8 and 6.1.1.4'
F F 0.0727 0.0534 'International Tables Vol C Tables 4.2.6.8 and 6.1.1.4'
N N 0.0311 0.0180 'International Tables Vol C Tables 4.2.6.8 and 6.1.1.4'
O O 0.0492 0.0322 'International Tables Vol C Tables 4.2.6.8 and 6.1.1.4'
loop_
_geom_angle_atom_site_label_1
_geom_angle_atom_site_label_2
_geom_angle_atom_site_label_3
_geom_angle
C7 O3 H3 109.5
C10 O5 C11 118.9(5)
C4 N1 H1 118.4
C5 N1 H1 118.4
C5 N1 C4 123.2(2)
H1A C1 H1B 109.5
H1A C1 H1C 109.5
H1B C1 H1C 109.5
C2 C1 H1A 109.5
C2 C1 H1B 109.5
C2 C1 H1C 109.5
C1 C2 H2A 108.7
C1 C2 H2B 108.7
H2A C2 H2B 107.6
C3 C2 C1 114.4(4)
C3 C2 H2A 108.7
C3 C2 H2B 108.7
C2 C3 H3A 108.6
C2 C3 H3B 108.6
C2 C3 C4 114.7(3)
H3A C3 H3B 107.6
C4 C3 H3A 108.6
C4 C3 H3B 108.6
O1 C4 N1 121.4(3)
O1 C4 C3 123.9(3)
N1 C4 C3 114.7(2)
N1 C5 H5 117.2
C6 C5 N1 125.7(2)
C6 C5 H5 117.2
C5 C6 C7 121.0(2)
C5 C6 C8 120.8(2)
C7 C6 C8 118.2(2)
O2 C7 O3 122.2(2)
O2 C7 C6 123.5(2)
O3 C7 C6 114.3(2)
C6 C8 H8A 108.8
C6 C8 H8B 108.8
C6 C8 C9 113.6(2)
H8A C8 H8B 107.7
C9 C8 H8A 108.8
C9 C8 H8B 108.8
F1 C9 F2 104.4(3)
F1 C9 C8 111.7(2)
F1 C9 C10 106.0(3)
F2 C9 C8 110.2(2)
F2 C9 C10 106.9(3)
C10 C9 C8 116.9(3)
O4 C10 O5 124.9(4)
O4 C10 C9 123.4(4)
O5 C10 C9 111.6(3)
O5 C11 H11A 109.9
O5 C11 H11B 109.9
H11A C11 H11B 108.3
C12 C11 O5 109.1(8)
C12 C11 H11A 109.9
C12 C11 H11B 109.9
C11 C12 H12A 109.5
C11 C12 H12B 109.5
C11 C12 H12C 109.5
H12A C12 H12B 109.5
H12A C12 H12C 109.5
H12B C12 H12C 109.5
loop_
_geom_bond_atom_site_label_1
_geom_bond_atom_site_label_2
_geom_bond_distance
F1 C9 1.360(4)
F2 C9 1.360(4)
O1 C4 1.205(3)
O2 C7 1.238(3)
O3 H3 0.8200
O3 C7 1.310(3)
O4 C10 1.191(5)
O5 C10 1.307(5)
O5 C11 1.489(6)
N1 H1 0.8600
N1 C4 1.385(3)
N1 C5 1.360(4)
C1 H1A 0.9600
C1 H1B 0.9600
C1 H1C 0.9600
C1 C2 1.520(6)
C2 H2A 0.9700
C2 H2B 0.9700
C2 C3 1.477(5)
C3 H3A 0.9700
C3 H3B 0.9700
C3 C4 1.492(4)
C5 H5 0.9300
C5 C6 1.352(4)
C6 C7 1.462(4)
C6 C8 1.504(4)
C8 H8A 0.9700
C8 H8B 0.9700
C8 C9 1.515(4)
C9 C10 1.508(5)
C11 H11A 0.9700
C11 H11B 0.9700
C11 C12 1.330(11)
C12 H12A 0.9600
C12 H12B 0.9600
C12 H12C 0.9600
loop_
_geom_torsion_atom_site_label_1
_geom_torsion_atom_site_label_2
_geom_torsion_atom_site_label_3
_geom_torsion_atom_site_label_4
_geom_torsion
F1 C9 C10 O4 7.2(6)
F1 C9 C10 O5 -169.4(4)
F2 C9 C10 O4 -103.7(6)
F2 C9 C10 O5 79.6(4)
N1 C5 C6 C7 -0.9(4)
N1 C5 C6 C8 179.0(3)
C1 C2 C3 C4 179.3(4)
C2 C3 C4 O1 23.5(5)
C2 C3 C4 N1 -157.2(4)
C4 N1 C5 C6 -179.2(3)
C5 N1 C4 O1 0.1(5)
C5 N1 C4 C3 -179.2(3)
C5 C6 C7 O2 1.6(4)
C5 C6 C7 O3 -177.7(2)
C5 C6 C8 C9 -95.8(3)
C6 C8 C9 F1 -30.2(3)
C6 C8 C9 F2 85.4(3)
C6 C8 C9 C10 -152.4(3)
C7 C6 C8 C9 84.0(3)
C8 C6 C7 O2 -178.2(3)
C8 C6 C7 O3 2.4(4)
C8 C9 C10 O4 132.4(5)
C8 C9 C10 O5 -44.3(5)
C10 O5 C11 C12 -86.1(9)
C11 O5 C10 O4 9.2(9)
C11 O5 C10 C9 -174.2(5)
loop_
_refln_index_h
_refln_index_k
_refln_index_l
_refln_F_squared_meas
_refln_F_squared_sigma
_refln_scale_group_code
0 0 -2 22702.2 332.082 20
0 0 -3 52033.5 617.583 20
0 0 -4 4276.41 220.193 18
0 0 -4 4764.19 219.887 20
0 0 5 14481.3 456.169 10
0 0 -5 13240.2 438.389 18
0 0 -5 13369 421.832 20
0 0 -6 36953.3 816.206 18
0 0 6 39291.3 831.849 10
0 0 7 120367 1620.75 10
0 0 -7 121488 1636.33 18
0 0 8 75.2008 74.5147 10
0 0 -8 114.313 72.7502 18
0 0 9 83755.8 1613.43 10
0 0 -9 85785 1622.22 18
0 0 -10 3419.21 349.829 18
0 0 -11 10157.1 645.233 18
0 0 -12 -267.161 114.235 6
0 0 12 -19.3288 78.6856 15
0 0 -12 -189.23 105.553 18
0 0 13 -2.771 114.534 15
0 0 -13 62.6747 72.1613 18
0 0 -14 3222.43 420.031 7
0 0 14 2891.34 436.496 15
0 0 -14 2908.94 359.975 6
0 0 -15 491.781 168.864 7
0 0 15 445.533 187.862 15
0 0 -16 1493.6 267.487 7
0 0 -17 585.474 176.35 9
0 0 -17 802.402 166.031 7
0 1 -17 1520.5 272.92 9
0 -1 16 1159.47 235.628 15
0 1 -15 1121.63 227.883 7
0 -1 15 1334.63 288.498 15
0 1 -14 316.313 135.373 7
0 -1 14 155.791 134.888 15
0 1 -13 223.19 115.232 7
0 -1 13 235.997 107.854 15
0 1 -12 12472.2 715.923 6
0 -1 12 13226.8 893.107 15
0 -1 11 11169.5 702.37 10
0 -1 11 11595.6 799.126 15
0 1 -10 19329.7 817.643 18
0 -1 10 19200.2 856.281 10
0 -1 9 623.405 156.502 10
0 1 -9 550.883 134.754 18
0 1 -8 23982.3 781.714 18
0 -1 8 24258.7 830.157 10
0 1 -7 13613.2 544.58 18
0 -1 7 14312.6 574.185 10
0 1 -6 711.818 110.941 20
0 -1 6 906.221 135.978 10
0 1 -6 933.679 127.322 21
0 1 -6 912.54 129.478 18
0 1 -5 94139 1114.79 21
0 1 -5 95620.7 1191.25 18
0 1 -4 17.0983 24.2084 21
0 1 -4 68.5604 38.5184 18
0 1 -3 64710.5 689.752 21
0 1 -2 52161.1 538.622 21
0 -1 1 102819 660.047 21
0 1 1 58033.4 553.75 20
0 1 2 24431.7 407.617 20
0 1 3 5471.24 230.052 20
0 -1 -4 138006 1267.27 20
0 1 4 139270 1258.81 20
0 -1 -5 25791.7 606.865 20
0 -1 -5 25895.4 622.237 18
0 -1 -6 1236.6 147.65 20
0 -1 -6 1402.53 160.778 18
0 -1 -7 332037 2707.03 18
0 -1 -8 57031.3 1226.54 18
0 -1 -9 2824.23 300.03 18
0 -1 -10 28775.5 1026.1 18
0 -1 -11 299.494 128.399 18
0 1 12 177.993 96.084 15
0 -1 -12 -123.869 92.374 18
0 -1 -13 956.949 240.603 7
0 -1 -13 859.794 194.942 6
0 1 13 875.719 241.998 15
0 -1 -13 908.849 215.057 18
0 -1 -14 3469.23 402.571 6
0 1 14 3212.88 461.24 15
0 -1 -14 3464.73 459.783 7
0 -1 -15 3882.48 419.067 6
0 -1 -15 4795.26 514.182 7
0 -1 -16 551.291 175.96 7
0 -1 -17 404.046 124.684 7
0 -1 -18 133.484 79.9866 7
0 -2 16 -98.3754 117.077 15
0 -2 15 -151.487 174.914 15
0 -2 14 261.823 125.384 15
0 -2 13 3400.77 484.882 15
0 -2 12 18518.3 1083.66 15
0 2 -11 7708.21 564.368 6
0 -2 11 8606.12 723.764 15
0 -2 11 7717.05 604.824 10
0 -2 10 36131.7 1224.13 10
0 -2 9 3928.65 387.271 10
0 -2 8 23721.1 871.034 10
0 -2 7 69652.3 1363.67 10
0 -2 6 371.827 95.8312 10
0 -2 5 3915.67 285.526 10
0 2 -4 848.191 99.7318 18
0 -2 4 1174.22 142.741 10
0 -2 3 30133.1 720.492 1
0 -2 3 32665.7 661.377 10
0 2 -2 9101.08 294.174 22
0 -2 2 9544.52 341.016 10
0 -2 2 9442.78 351.353 1
0 2 -1 590208 2612.81 19
0 -2 0 248028 1464.8 22
0 2 0 245583 1691.14 19
0 2 2 80528.3 927.426 20
0 -2 -3 2125.23 144.43 18
0 2 3 2280.63 169.606 20
0 -2 -4 39400.7 700.038 18
0 2 4 38481.8 738.313 20
0 -2 -5 44768.6 875.23 20
0 -2 -5 44126.7 843.383 18
0 -2 -6 285.68 78.834 18
0 2 6 29.7298 37.2704 20
0 -2 -7 61876.3 1197.01 18
0 -2 -8 166275 2136.98 18
0 -2 -9 102.284 81.1226 18
0 -2 -10 10855.8 644.161 18
0 -2 -11 12919.7 753.599 18
0 -2 -12 11452.3 769.532 7
0 2 12 11368.4 795.642 15
0 -2 -12 13576.7 822.172 18
0 -2 -13 8884.88 698.843 7
0 -2 -13 10007.9 738.394 18
0 -2 -13 8659.25 639.044 6
0 -2 -14 18672.9 1033.64 7
0 -2 -14 17219.7 917.419 6
0 -2 -15 6084.79 585.454 7
0 -2 -15 5310.6 502.371 6
0 -2 -16 -40.9703 90.2998 7
0 -2 -16 -20.7896 54.0426 6
0 -2 -17 503.659 146.678 7
0 -2 -18 670.242 152.489 7
0 -3 16 1194.9 193.452 15
0 3 -16 1055.08 213.778 9
0 -3 15 5266.91 469.305 15
0 -3 14 17948.8 964.592 15
0 -3 13 3278.53 448.714 15
0 -3 12 384.966 203.398 15
0 -3 11 21598.4 1167.4 15
0 3 -11 19480.5 910.568 6
0 3 -10 2006.09 290.449 6
0 -3 10 2071.72 361.035 15
0 -3 10 1560.04 266.95 10
0 -3 9 13076 857.083 15
0 -3 9 12386.5 721.178 10
0 -3 8 2949.28 335.805 10
0 -3 7 10003.6 571.731 10
0 -3 6 10822.1 559.338 10
0 -3 5 14409.4 597.466 10
0 -3 4 9995.53 507.398 1
0 -3 4 11235.5 494.271 10
0 -3 3 16450.6 604.334 1
0 -3 3 16788.2 556.95 10
0 -3 3 16557.2 499.246 21
0 -3 2 3552.27 220.29 21
0 -3 2 3366.01 238.189 10
0 -3 2 3325.45 249.047 1
0 3 -2 3066.49 215.019 22
0 -3 1 33077.7 722.124 1
0 3 -1 34619.8 782.343 19
0 3 0 66009.5 1074.52 19
0 -3 0 66533.6 975.234 1
0 -3 -1 38114.3 739.514 1
0 3 1 37771.5 822.519 19
0 -3 -1 38991.1 752.93 22
0 3 2 12615.6 481.397 19
0 -3 -2 13313.3 455.986 1
0 3 2 12793.3 457.025 20
0 -3 -2 12941.4 451.084 22
0 -3 -3 17594.4 557.642 1
0 3 3 17856.6 610.863 19
0 3 3 18092.4 560.279 20
0 -3 -3 18211 461.501 18
0 -3 -4 36049.2 726.797 18
0 3 4 34751.2 820.969 20
0 -3 -5 5788.22 319.172 18
0 -3 -6 14747.7 556.482 18
0 -3 -7 4465.64 331.643 18
0 -3 -8 72621.4 1474.75 18
0 -3 -9 27661.3 979.032 18
0 -3 -10 25038.4 1000.33 18
0 -3 -11 10067.3 678.948 18
0 -3 -12 269.976 108.305 6
0 3 12 499.706 164.543 17
0 -3 -12 675.496 195.282 7
0 -3 -12 632.658 197.528 18
0 -3 -13 734.036 201.247 18
0 -3 -13 627.282 172.91 6
0 -3 -13 604.093 184.323 7
0 3 13 444.042 151.851 17
0 -3 -14 77.772 98.9556 7
0 -3 -14 27.7215 90.8367 6
0 -3 -15 3314.98 432.759 7
0 -3 -16 -35.4892 102.744 7
0 -3 -17 909.253 204.478 7
0 -3 -18 899.03 180.938 7
0 4 -15 176.308 89.4484 9
0 -4 15 199.963 89.6553 15
0 -4 14 1767.96 276.263 15
0 -4 13 848.607 216.648 15
0 -4 12 4981.63 546.471 15
0 -4 11 9848.09 797.996 15
0 -4 10 695.117 224.005 15
0 4 -10 767.937 193.107 6
0 4 -9 2731.21 343.855 6
0 -4 9 2873.56 428.354 15
0 -4 9 2075.02 304.921 10
0 4 -8 805.708 216.789 4
0 -4 8 543.115 148.069 10
0 -4 8 1106.39 243.869 15
0 -4 7 13652.5 728.306 10
0 -4 6 19035.3 820.147 10
0 -4 5 11345.2 598.829 10
0 -4 4 28233.7 885.572 10
0 -4 3 2767.41 280.103 1
0 -4 3 3651.08 300.99 10
0 -4 2 1019.58 158.119 10
0 -4 2 817.361 144.741 1
0 -4 1 56497.7 1096.9 1
0 -4 1 56880.2 1105.34 10
0 -4 0 3903.65 276.859 1
0 4 0 4258.91 313.934 19
0 4 1 -65.8759 50.7681 19
0 -4 -1 -30.4053 43.3876 1
0 4 2 29800.1 856.82 19
0 -4 -2 29389.7 764.835 1
0 4 3 55257.6 1194.56 19
0 -4 -3 55087.2 1112.02 1
0 -4 -4 81369.9 1412.42 1
0 4 4 81772.6 1531.26 19
0 -4 -5 50560.5 991.244 18
0 -4 -5 51763.7 1213.89 1
0 -4 -6 132884 1781.79 18
0 -4 -7 2767.19 277.397 18
0 -4 -8 26040.9 912.655 18
0 -4 -9 12952.9 692.605 18
0 -4 -10 8700.06 617.145 18
0 -4 -11 27.9405 88.9472 18
0 -4 -12 11.2458 102.112 18
0 4 12 164.314 94.9802 17
0 -4 -12 202.923 93.4868 7
0 4 13 5049.98 498.646 17
0 -4 -13 5904.03 568.23 7
0 4 14 3155.01 397.836 17
0 -4 -14 3156.31 418.16 7
0 4 15 6631.16 543.544 17
0 -4 -15 8270.74 665.31 7
0 -4 -16 -0.7201 67.0615 7
0 -4 -17 125.062 77.3599 7
0 -4 -18 909.303 172.007 7
0 5 -13 2022.76 319.069 9
0 -5 13 1981.24 281.702 15
0 -5 12 3838.26 423.846 15
0 -5 11 2866.07 409.466 15
0 -5 10 1265.81 279.883 15
0 5 -9 -59.6811 130.133 6
0 -5 9 -1.15407 113.621 15
0 -5 8 2067.11 358.273 15
0 -5 7 224.963 110.738 10
0 -5 7 631.58 195.522 15
0 5 -7 483.865 183.639 4
0 -5 6 1117.82 227.49 10
0 5 -6 1041.09 241.467 4
0 -5 6 1042.28 245.157 15
0 -5 5 750.717 184.651 10
0 -5 4 112.334 70.528 10
0 -5 3 4003.44 350.794 10
0 -5 2 36811.5 1026.18 10
0 -5 1 17666.6 697.91 10
0 5 0 9063.82 514.715 19
0 5 1 76649.6 1512.4 19
0 5 2 53049.4 1283.15 19
0 5 3 56687.8 1375.24 19
0 5 4 98.6135 55.1611 19
0 -5 -5 34281.6 1066.71 1
0 5 5 50384.3 1399.23 19
0 -5 -6 482.82 125.069 1
0 5 6 714.539 191.562 19
0 5 7 6278.49 560.108 19
0 -5 -7 4132.95 415.509 1
0 -5 -8 547.675 146.651 18
0 5 8 188.58 101.923 19
0 -5 -8 531.831 185.124 1
0 -5 -9 621.502 163.848 18
0 -5 -9 586.503 168.89 1
0 -5 -10 2528.45 330.2 18
0 -5 -10 2631.43 402.957 1
0 5 11 10268.5 729.269 17
0 -5 -11 11300.5 734.626 18
0 -5 -12 721.986 221.192 18
0 -5 -12 775.664 204.244 7
0 5 12 737.3 222.879 17
0 -5 -13 201.276 118.447 7
0 5 13 210.539 143.425 17
0 -5 -14 6592.35 584.705 7
0 5 14 6191.6 554.791 17
0 5 15 178.252 88.2667 17
0 -5 -15 186.717 108.144 7
0 -5 -16 119.28 85.9807 7
0 5 16 33.0908 62.1034 17
0 5 16 162.442 128.854 11
0 -5 -17 114.34 76.1762 7
0 5 17 102.951 82.3218 11
0 -5 -18 323.81 99.6655 7
0 -6 12 32.6588 66.7132 15
0 -6 11 64.8307 82.7195 15
0 -6 10 108.434 79.7412 15
0 6 -9 27.5439 47.5473 6
0 -6 9 19.8728 87.9551 15
0 -6 8 342.061 180.385 15
0 -6 7 3682.61 468.922 15
0 6 -7 3320.59 443.835 4
0 6 -6 1566.4 305.525 4
0 -6 6 1814.91 335.416 15
0 6 -5 32560.7 1345.35 4
0 -6 5 34774 1379.93 15
0 -6 5 32012.6 1172.44 10
0 -6 4 17790.7 970.49 15
0 -6 4 16797.5 825.443 10
0 6 -4 16556.8 923.375 4
0 -6 3 596.925 163.948 10
0 -6 3 448.052 147.204 15
0 6 -3 554.957 179.506 4
0 -6 2 7251.18 503.862 10
0 -6 1 3233.59 328.698 10
0 -6 0 1541.88 230.616 10
0 6 1 1065.22 187.443 19
0 6 2 50273.6 1370.97 19
0 6 3 30798.6 1101.98 19
0 6 4 7338.86 563.878 19
0 6 5 14349.3 817.229 19
0 6 6 85.4365 102.349 19
0 6 7 -2.14959 70.7707 19
0 6 8 33594 1422.5 19
0 6 9 33006.1 1299.97 17
0 6 9 29846.3 1375.54 19
0 6 10 9084.84 784.204 19
0 6 10 9784.35 705.776 17
0 6 11 1009.55 241.784 17
0 6 11 1220.3 294.932 19
0 6 12 8673.24 684.744 17
0 6 13 206.969 115.73 17
0 6 14 2940.04 375.841 17
0 6 15 476.557 207.195 11
0 6 16 1790.02 342.615 11
0 6 17 828.415 202.525 11
0 -7 10 352.4 109.43 15
0 -7 9 836.533 191.244 15
0 -7 8 252.16 118.522 15
0 -7 7 1352.02 283.531 15
0 7 -6 1125.29 259.528 4
0 -7 6 1480.94 301.041 15
0 7 -5 6450.81 595.801 4
0 -7 5 6871.88 619.142 15
0 -7 4 170.53 137.14 15
0 7 -4 272.121 120.597 4
0 7 -3 1381.13 273.562 4
0 -7 3 1630.54 302.764 15
0 7 -2 677.376 202.693 4
0 -7 2 226.076 80.8442 15
0 -7 1 706.029 197.752 15
0 7 -1 808.725 195.18 4
0 7 0 8385.71 618.585 4
0 -7 0 8851.92 668.805 15
0 7 1 11228.2 703.653 4
0 -7 -1 10309.5 721.198 15
0 -7 -2 227.755 69.4654 15
0 7 2 689.642 176.673 4
0 7 3 5993.97 508.998 4
0 -7 -3 4514.52 483.243 15
0 -7 -4 9188.02 691.367 15
0 7 4 10782.4 687.519 4
0 7 5 288.931 123.167 4
0 -7 -5 422.429 146.884 15
0 -7 -6 -44.7684 77.9289 15
0 7 6 -220.11 110.433 4
0 -7 -7 3668.06 466.75 15
0 7 7 3836.92 491.362 19
0 7 8 6310.92 723.248 11
0 -7 -8 6655.93 639.831 15
0 7 8 6616.07 639.977 19
0 7 9 679.424 253.843 11
0 -7 -9 768.014 242.234 15
0 -7 -10 408.777 168.588 15
0 7 10 438.897 218.945 11
0 -7 -11 2080.75 372.576 15
0 7 11 2156.65 431.821 11
0 -7 -12 257.096 93.9404 15
0 7 12 296.382 191.267 11
0 -7 -13 595.785 185.986 15
0 7 13 741.36 275.923 11
0 7 14 332.187 168.755 11
0 -7 -14 159.386 90.5375 15
0 7 15 139.3 98.5822 11
0 -7 -15 226.911 111.607 15
0 7 16 344.836 147.309 11
0 -7 -16 301.324 105.263 15
0 7 17 539.345 143.681 11
0 -8 8 -49.5746 64.5903 15
0 -8 7 -71.9754 80.1715 15
0 -8 6 1183.86 228.51 15
0 8 -5 407.279 145.102 4
0 -8 5 322.709 135.13 15
0 -8 4 1706.89 297.128 15
0 8 -4 1544.94 273.451 4
0 8 -3 629.588 190.218 4
0 -8 3 584.501 194.554 15
0 8 -2 19.514 72.01 4
0 -8 2 126.323 111.866 15
0 8 -1 1659.14 290.02 4
0 -8 1 1556.08 290.997 15
0 -8 0 5962.92 563.381 15
0 8 0 6947.67 574.785 4
0 -8 -1 1643.31 302.07 15
0 8 1 1600.66 273.701 4
0 8 2 6020.23 528.953 4
0 -8 -2 5459.83 546.775 15
0 8 3 992.283 218.316 4
0 -8 -3 687.227 203.39 15
0 8 4 1120.85 229.096 4
0 -8 -4 651.156 163.262 15
0 -8 -5 457.566 162.115 15
0 8 5 472.902 153.435 4
0 -8 -6 255.967 102.381 15
0 -8 -7 567.581 181.28 15
0 -8 -8 10764.6 794.825 15
0 -8 -9 18015.9 1028.57 15
0 -8 -10 22180.1 1123.91 15
0 8 10 14799.8 1079.37 11
0 8 11 17246.2 1153.06 11
0 -8 -11 16747.9 962.301 15
0 -8 -12 3173.13 401.016 15
0 8 12 3188.92 486.183 11
0 -8 -13 529.254 163.915 15
0 8 13 649.843 218.462 11
0 -8 -14 -49.8192 67.7208 15
0 8 14 37.1756 70.8296 11
0 -8 -15 288.147 97.0479 15
0 8 15 453.056 159.477 11
0 -9 5 2842.82 282.565 15
0 -9 4 1768.98 247.313 15
0 -9 3 1410.82 232.455 15
0 9 -3 893.968 186.061 4
0 9 -2 26.1375 65.9361 4
0 -9 2 78.8518 91.6739 15
0 -9 1 695.759 180.823 15
0 9 -1 749.029 178.24 4
0 -9 0 2265.26 332.058 15
0 9 0 2308.75 311.887 4
0 -9 -1 -42.3012 96.6358 15
0 9 1 -26.9317 57.5703 4
0 -9 -2 -351.298 142.572 15
0 9 2 8.46221 58.3968 4
0 9 3 357.97 128.615 4
0 -9 -3 280.605 97.8304 15
0 -9 -4 -304.699 140.076 15
0 -9 -5 66.4357 81.5208 15
0 -9 -6 4738.82 488.046 15
0 -9 -7 11118.6 745.299 15
0 -9 -8 1910.54 313.277 15
0 -9 -9 292.655 130.237 15
0 -9 -10 151.132 88.7125 15
0 -9 -11 394.052 137.356 15
0 9 12 104.875 84.8042 11
0 -9 -12 40.5253 50.797 15
0 9 13 477.062 146.249 11
0 -9 -13 663.866 138.162 15
0 -10 0 102.74 71.1091 15
0 -10 -1 20.6309 67.4688 15
0 -10 -2 -38.5691 53.3601 15
0 -10 -3 -115.006 76.9395 15
0 -10 -4 -191.777 92.4192 15
0 -10 -5 125.876 80.1933 15
0 -10 -6 -3.23118 53.5018 15
0 -10 -7 789.768 167.092 15
0 -10 -8 990.556 176.934 15
0 -10 -9 87.4269 56.6509 15
0 -10 -10 274.365 87.9775 15
-1 10 7 545.897 123.899 4
-1 10 6 3180.38 301.938 4
-1 10 5 4845.73 372.999 4
-1 10 4 2383.13 264.424 4
-1 10 3 138.952 71.5388 4
-1 10 2 13.4491 48.2126 4
-1 10 1 95.4089 65.3261 4
-1 10 0 259.956 94.4643 4
-1 9 12 86.0679 50.1462 11
-1 9 11 816.162 156.284 4
-1 9 11 612.38 171.047 11
-1 9 10 328.44 116.922 4
-1 9 10 312.576 121.864 11
-1 9 9 89.3482 75.1622 4
-1 9 8 342.28 125.427 4
-1 9 7 149.709 94.263 4
-1 9 6 178.142 102.515 4
-1 9 5 1011.7 213.131 4
-1 9 4 294.514 119.68 4
-1 9 3 0.65787 66.8363 4
-1 9 2 2493.58 335.567 4
-1 9 1 3949.72 416.201 4
-1 9 0 73.176 74.039 4
-1 9 -1 4551.79 440.295 4
-1 9 -2 8030.89 563.608 4
-1 9 -3 9889.41 603.383 4
-1 9 -4 5302.84 414.946 4
-1 9 -5 1885.39 203.561 6
-1 8 15 1201.18 206.214 11
-1 8 14 523.49 126.556 4
-1 8 14 440.617 151.093 11
-1 8 13 88.809 96.445 11
-1 8 12 61.8371 96.7061 11
-1 8 11 700.357 227.274 11
-1 8 10 187.45 137.309 11
-1 8 9 5711.92 553.105 4
-1 8 9 6238.56 700.609 11
-1 8 8 170.822 110.943 4
-1 8 8 -145.032 119.144 11
-1 8 7 1771.97 316.48 4
-1 8 6 77.6005 59.179 4
-1 8 5 65.3999 89.1734 4
-1 8 4 58.9679 79.8006 4
-1 8 3 -55.1588 62.2151 4
-1 8 2 6557.43 576.033 4
-1 8 1 951.64 222.884 4
-1 8 0 3541.33 425.058 4
-1 8 -1 45.5348 72.3372 4
-1 8 -2 1935.39 322.492 4
-1 8 -3 1599.88 292.841 4
-1 8 -4 1862.56 311.392 4
-1 8 -5 8.19948 81.8959 4
-1 8 -6 655.592 166.862 4
-1 8 -7 272.955 90.3221 6
-1 7 16 104.87 70.7824 11
-1 7 15 413.829 147.239 11
-1 7 14 480.403 189.471 11
-1 7 13 506.441 219.658 11
-1 7 12 994.092 310.136 11
-1 7 11 4285.31 636.41 11
-1 7 10 139.596 102.7 11
-1 7 9 2513.59 488.294 11
-1 7 8 14781 1150.67 11
-1 7 7 13865.6 1091.9 11
-1 7 7 12905.7 943.248 19
-1 7 6 3710.47 483.726 19
-1 7 6 4095.16 573.546 11
-1 7 5 -190.267 129.291 19
-1 7 5 -61.5806 119.436 4
-1 7 4 494.467 155.347 4
-1 7 4 507.987 185.507 19
-1 7 3 917.187 215.628 4
-1 7 3 1230.54 264.447 19
-1 7 2 21059.7 1057.84 19
-1 7 2 20675.2 1013.22 4
-1 7 1 2695.55 372.322 19
-1 7 1 2941.26 379.164 4
1 -7 -1 2885.58 371.265 10
1 -7 0 704.5 188.853 10
-1 7 0 931.934 224.853 4
1 -7 1 863.407 203.856 10
-1 7 -1 838.559 206.489 4
-1 7 -2 1885.31 320.276 4
-1 7 -3 8051.72 664.237 4
-1 7 -4 17033 984.808 4
-1 7 -5 1469.26 288.222 4
-1 7 -6 110.84 121.987 4
-1 7 -7 3465.27 427.277 4
-1 7 -8 722.278 164.826 6
-1 7 -9 52.8225 68.7805 6
-1 7 -10 191.56 70.8136 6
-1 6 16 890.912 212.388 11
-1 6 15 -37.7071 76.8273 17
-1 6 15 64.0275 88.3422 11
-1 6 14 2005.25 398.977 11
-1 6 14 2282.49 331.78 17
-1 6 13 5887.29 549.774 17
-1 6 13 5543.52 683.992 11
-1 6 12 3616.08 436.808 17
-1 6 12 3658.39 579.805 11
-1 6 11 36130.1 1398.51 17
-1 6 11 34908.2 1768.59 11
-1 6 10 73216.5 2580.55 11
-1 6 10 72164.6 1959.75 17
-1 6 9 24534.6 1130.8 17
-1 6 9 22692.3 1281.81 19
-1 6 9 25239 1472.51 11
-1 6 8 1375.71 348.758 11
-1 6 8 1260.48 291.892 19
-1 6 8 1642.37 288.683 17
-1 6 7 -91.944 84.6196 17
-1 6 7 73.8515 98.2172 11
-1 6 7 141.997 136.439 19
-1 6 6 5966.27 604.544 19
-1 6 5 893.408 232.666 19
-1 6 4 5930 563.587 19
-1 6 3 63.0474 69.0007 19
-1 6 2 112.993 92.9288 19
-1 6 1 138.099 95.4117 19
-1 6 0 1894.44 294.588 19
1 -6 1 1158.08 227.231 10
1 -6 2 27.535 56.7266 10
-1 6 -2 6.50546 51.9782 4
1 -6 3 1564.5 263.13 10
-1 6 -3 1607.58 289.966 4
1 -6 4 927.32 190.845 10
-1 6 -4 661.638 200.16 4
-1 6 -5 1494.24 295.993 4
1 -6 5 1957.38 311.935 10
-1 6 -6 998.063 255.984 4
-1 6 -7 6441.16 623.857 4
1 -6 7 6703.36 590.849 15
-1 6 -8 120.73 86.4849 4
1 -6 8 93.9381 79.1943 15
-1 6 -9 -25.3517 93.7492 6
1 -6 9 -31.2995 77.1613 15
-1 6 -10 1129.54 213.674 6
1 -6 10 939.477 202.185 15
-1 6 -11 3634.39 323.76 6
-1 5 17 513.8 124.181 17
-1 5 16 83.8292 71.7091 17
1 -5 -16 -66.9423 64.4646 7
-1 5 16 206.752 113.946 11
-1 5 15 439.643 183.803 11
-1 5 15 577.389 175.006 17
-1 5 14 737.017 212.768 17
-1 5 14 705.85 243.69 11
-1 5 13 354.233 171.593 11
-1 5 13 427.642 173.199 17
-1 5 12 118.76 117.886 17
-1 5 12 151.158 156.285 11
-1 5 11 3085.06 514.666 11
-1 5 11 2752 389.312 17
-1 5 11 2000.48 390.266 19
-1 5 10 7230.72 780.666 11
-1 5 10 6974.36 607.743 17
-1 5 10 5915.19 650.195 19
-1 5 9 38061.4 1744.33 11
-1 5 9 37339.1 1353.8 17
-1 5 9 35942.2 1566.63 19
-1 5 8 17208.2 1044.46 19
-1 5 7 5409.66 568.603 19
-1 5 6 6222.26 580.031 19
-1 5 5 2668.62 361.114 19
-1 5 4 3157.14 381.245 19
-1 5 3 34773.1 1227.25 19
-1 5 2 63933.2 1617.63 19
-1 5 1 15837.9 786.026 19
-1 5 0 14716.6 752.163 19
-1 5 -1 7689.3 549.021 19
1 -5 2 183.329 87.6212 10
1 -5 3 1947.7 268.821 10
1 -5 4 4018.21 400.736 10
1 -5 5 1909.23 287.276 10
-1 5 -5 1393.78 273.283 4
1 -5 6 1418.08 256.581 10
-1 5 -6 1368.39 281.382 4
1 -5 7 15257.9 861.384 10
1 -5 7 14862.9 887.992 15
-1 5 -7 14869.3 954.787 4
1 -5 8 1572.68 300.56 15
-1 5 -8 1764.92 335.541 4
1 -5 9 24.4677 103.789 15
-1 5 -9 -46.8547 86.6677 9
-1 5 -9 241.604 132.428 6
1 -5 10 212.307 116.13 15
-1 5 -10 133.828 100.489 6
-1 5 -10 223.081 145.317 9
1 -5 11 144.154 108.1 15
-1 5 -11 299.851 129.099 6
-1 5 -11 169.991 121.808 9
-1 5 -12 917.83 183.628 6
1 -5 12 641.588 163.78 15
-1 5 -12 645.812 211.78 9
-1 5 -13 -52.1646 51.6752 6
-1 5 -13 -11.5304 50.0813 9
1 -5 13 105.984 75.9512 15
-1 4 17 1319.87 200.617 17
1 -4 -17 1481.24 223.176 7
1 -4 -16 2251.88 302.867 7
-1 4 16 2253.22 295.102 17
-1 4 15 -101.831 97.777 11
-1 4 15 -30.948 64.6154 17
1 -4 -15 -2.23099 77.1605 7
-1 4 14 384.498 149.095 17
-1 4 14 132.919 128.74 11
1 -4 -14 503.335 164.029 7
-1 4 13 -8.0276 88.6078 17
1 -4 -13 18.7658 62.5569 7
-1 4 13 -29.5442 93.7749 11
-1 4 12 83.8811 108.281 11
1 -4 -12 89.3935 117.251 18
1 -4 -12 140.791 84.3509 7
-1 4 12 54.6321 118.554 17
1 -4 -11 1832.61 308.21 18
-1 4 11 1554.94 292.631 17
1 -4 -10 30738.6 1151.42 18
1 -4 -9 24879.9 973.924 18
1 -4 -8 2728.43 297.167 18
1 -4 -7 25312.7 852.473 18
-1 4 6 8055.84 617.502 19
-1 4 5 19365.7 901.389 19
-1 4 4 16833.8 787.094 19
-1 4 3 47337.1 1272.55 19
-1 4 2 1059.37 199.707 19
-1 4 1 -55.4797 92.8487 19
-1 4 0 115254 1903.13 19
-1 4 -1 4983.45 394.941 19
-1 4 -1 4689.37 355.191 23
-1 4 -2 34778 1067.03 19
1 -4 3 46909.6 1181.33 10
1 -4 4 61224.1 1394.74 10
1 -4 5 5588.11 439.492 10
1 -4 6 80.3435 67.7068 10
1 -4 7 4978.36 467.658 10
1 -4 8 580.255 187.807 10
-1 4 -8 782.59 231.36 4
1 -4 8 896.081 229.918 15
1 -4 9 1289.06 270.856 10
1 -4 9 1262.14 258.347 15
-1 4 -9 1423.93 303.812 4
-1 4 -10 1005.9 211.424 6
1 -4 10 1403.35 291.63 15
1 -4 11 167.187 108.907 15
-1 4 -11 0.50456 89.0884 6
-1 4 -12 332.073 163.441 9
-1 4 -12 449.498 147.031 6
1 -4 12 157.928 129.181 15
-1 4 -13 2175.61 400.554 9
1 -4 13 1556.51 271.913 15
-1 4 -13 2311.3 295.214 6
-1 4 -14 87.5126 82.1082 9
-1 4 -14 -8.93758 53.6136 6
1 -4 14 -76.3512 79.1971 15
-1 4 -15 146.828 88.8957 9
1 -3 -18 100.374 45.8581 7
-1 3 17 2329.49 260.859 17
1 -3 -17 2189.07 282.592 7
-1 3 16 1357.93 230.854 17
1 -3 -16 1564.98 265.153 7
1 -3 -15 124.851 102.07 7
-1 3 15 165.952 104.088 17
-1 3 14 9.35521 67.3381 17
1 -3 -14 -95.1662 88.5576 7
-1 3 13 346.973 133.25 17
1 -3 -13 463.772 152.46 7
1 -3 -12 11158.3 762.005 18
-1 3 12 10782.8 752.678 17
1 -3 -11 5310.2 499.696 18
-1 3 11 3946.56 448.405 17
1 -3 -10 8049.96 579.224 18
1 -3 -9 2637.76 314.378 18
1 -3 -8 15089.3 693.413 18
1 -3 -7 22236.6 784.113 18
1 -3 -6 -32.3073 45.1087 18
1 -3 -5 2564.34 222.494 18
1 -3 -4 10434.8 406.049 18
-1 3 4 10245 570.486 19
1 -3 -3 20539.8 500.172 18
-1 3 3 21278.4 682.358 20
-1 3 3 20244.7 752.269 19
-1 3 2 87472.5 1505.83 19
-1 3 2 91341.8 1324.84 20
-1 3 2 87708.7 1074.26 23
-1 3 1 356734 2362.29 23
-1 3 1 357184 2449.05 20
-1 3 1 351134 2986.37 19
1 -3 0 162444 1406.42 22
-1 3 0 160212 1533.97 20
-1 3 0 163245 2021.86 19
-1 3 -1 25689.6 594.258 20
-1 3 -1 27068.9 817.238 19
-1 3 -2 14342.6 614.656 19
1 -3 3 468.867 104.612 10
1 -3 4 1273.61 178.338 10
1 -3 5 1497.76 205.808 10
1 -3 6 11940.1 611.329 10
1 -3 7 18026.8 798.803 10
1 -3 8 6453.44 505.174 10
-1 3 -9 509.616 163.15 6
-1 3 -9 407.377 165.581 4
1 -3 9 431.514 156.292 10
1 -3 10 463.253 161.202 10
-1 3 -10 445.167 145.032 6
1 -3 10 722.476 211.937 15
1 -3 11 30903.5 1344.45 15
-1 3 -11 32851.3 1270.17 6
1 -3 12 7610.27 670.336 15
-1 3 -12 8337.5 640.176 6
-1 3 -13 708.176 189.292 6
1 -3 13 795.329 233.196 15
1 -3 14 -23.7275 62.8498 15
-1 3 -14 53.5528 89.2562 9
-1 3 -14 -30.3492 90.2931 6
-1 3 -15 3435.46 461.915 9
1 -3 15 2988.99 336.475 15
-1 3 -15 3452.9 329.03 6
-1 3 -16 207.33 103.049 9
1 -2 -18 594.7 130.716 7
1 -2 -17 1478.42 235.383 7
1 -2 -16 653.789 181.653 7
1 -2 -15 82.9647 89.9819 7
-1 2 15 114.073 98.0487 17
1 -2 -14 34.1932 87.1073 7
-1 2 14 -57.7302 101.608 17
1 -2 -13 295.419 134.916 18
-1 2 13 90.0225 69.2363 17
1 -2 -12 5831.35 547.846 18
-1 2 12 4348.88 473.3 17
1 -2 -11 911.936 211.022 18
1 -2 -10 125.069 100.977 18
1 -2 -9 12832.8 680.266 18
1 -2 -8 1196.75 205.663 18
1 -2 -7 113648 1755.92 18
1 -2 -6 4626.43 326.421 18
1 -2 -5 50858.4 997.541 18
1 -2 -4 53206.3 927.598 18
-1 2 3 14526 504.136 20
1 -2 -3 15177.4 442.223 18
-1 2 3 14445 404.037 23
1 -2 -3 16090.7 530.949 20
-1 2 2 15576.7 477.884 20
1 -2 -2 15785.5 476.409 20
1 -2 -2 15867.5 394.985 18
-1 2 2 15636.2 567.915 19
-1 2 2 15018.6 409.462 23
-1 2 1 79826 999.198 23
-1 2 1 81242.3 1219.52 19
-1 2 1 82340.3 1011.91 20
1 -2 -1 80350 965.51 20
-1 2 0 10611.7 443.535 19
-1 2 0 11129.1 339.095 20
-1 2 0 10347.8 380.702 23
-1 2 -1 3494.81 251.909 19
1 -2 1 3125.06 140.771 22
-1 2 -1 3199.26 166.527 20
1 -2 2 103.42 18.5174 21
-1 2 -2 47.6428 23.4925 20
-1 2 -2 15.0656 26.8389 19
1 -2 3 19255.4 568.595 10
1 -2 4 17846.3 574.799 10
1 -2 5 121110 1608.65 10
1 -2 6 45899.7 1058.74 10
1 -2 7 13334.7 616.505 10
1 -2 8 17914.8 756.261 10
1 -2 9 20957.6 877.86 10
1 -2 10 388.711 146.56 10
-1 2 -11 705.582 189.529 6
1 -2 11 566.074 166.13 15
1 -2 11 372.381 157.122 10
1 -2 12 23407.4 1176.58 15
-1 2 -12 24685.9 1088.67 6
-1 2 -13 5753.04 525.228 6
1 -2 13 5216.54 559.451 15
1 -2 14 93.0565 96.6999 15
-1 2 -14 136.857 91.4919 6
-1 2 -15 1607.61 353.438 9
1 -2 15 1552.72 301.838 15
-1 2 -15 1864.29 273.367 6
-1 2 -16 -41.7946 66.4774 9
-1 2 -16 -45.7628 76.2327 6
-1 2 -17 5.59362 35.8328 9
1 -1 -18 -6.77481 38.1988 7
1 -1 -17 36.882 65.1085 7
1 -1 -16 55.5357 96.6847 7
1 -1 -15 306.5 140.949 7
-1 1 14 -286.077 129.887 17
-1 1 14 -13.9656 85.7019 15
-1 1 13 4822.47 505.117 17
1 -1 -13 5832.72 562.388 18
-1 1 13 5348.81 561.239 15
-1 1 12 1013.97 251.37 15
1 -1 -12 972.983 241.122 18
-1 1 12 766.591 201.5 17
1 -1 -11 263.621 94.741 18
1 -1 -10 39359.6 1269.38 18
1 -1 -9 40882.2 1230.15 18
1 -1 -8 7973.14 509.24 18
1 -1 -7 29659.9 897.577 18
1 -1 -6 869.269 144.141 18
1 -1 -5 8177.49 403.29 18
1 -1 -4 14600.7 494.166 18
1 -1 -4 13152.7 504.2 20
1 -1 -3 39593.7 721.633 18
-1 1 3 37283.2 675.052 23
1 -1 -2 10203.5 327.086 18
1 -1 -2 10464.7 373.346 20
-1 1 1 744910 2766.9 23
-1 1 1 745782 3071.26 19
1 -1 0 81181.8 747.252 20
-1 1 0 73884.5 924.081 23
-1 1 -1 281659 1891.15 19
1 -1 1 282026 1089.55 20
-1 1 -2 1773.47 152.988 19
1 -1 3 14388.9 404.629 10
1 -1 4 54235.2 856.218 10
-1 1 -4 53967.1 739.503 18
-1 1 -5 9346.76 359.164 18
1 -1 5 9099.46 378.245 10
1 -1 6 39163.9 866.035 10
-1 1 -6 38596.6 816.4 18
1 -1 7 53109.7 1088.2 10
-1 1 -7 53855.8 1066.46 18
1 -1 8 -152.852 78.679 10
1 -1 9 356.346 127.651 10
1 -1 10 12392 686.841 10
1 -1 11 740.239 180.743 10
-1 1 -11 804.611 186.893 6
1 -1 12 31859.2 1277.03 10
1 -1 12 33849.9 1411.92 15
-1 1 -13 61117 1708.78 6
1 -1 13 59561 1891.83 15
1 -1 14 19759.5 1096.85 15
-1 1 -14 20268 982.528 6
1 -1 15 2093.42 345.379 15
-1 1 -15 2044.98 304.433 6
-1 1 -15 2129.16 418.655 9
-1 1 -16 7.04896 64.9822 9
-1 1 -16 -10.5933 56.1588 6
-1 1 -17 913.402 169.472 6
-1 1 -17 1260.4 253.32 9
1 0 -17 58.5663 50.1475 7
1 0 -16 1687.16 265.992 7
1 0 -15 4730.43 493.337 7
-1 0 15 4514.29 483.705 15
-1 0 14 4781.4 520.753 15
-1 0 13 1524.21 316.052 15
1 0 -12 718.894 196.459 18
-1 0 12 687.122 214.754 15
1 0 -11 8807.07 647.661 18
-1 0 11 8957.41 687.244 15
1 0 -10 10769.2 670.126 18
1 0 -9 15433.1 760.893 18
1 0 -8 56881.4 1358.87 18
1 0 -7 16228 677.442 18
1 0 -6 5339.77 357.151 18
1 0 -5 24318.6 707.424 18
1 0 -4 4503.3 280.65 18
-1 0 3 343651 2174.5 1
-1 0 2 72551.4 874.816 1
1 0 -1 36812.8 564.284 21
1 0 0 122045 901.415 21
1 0 1 3182.03 123.994 21
-1 0 -1 3400.88 128.383 21
-1 0 -2 2422.51 92.8196 21
1 0 3 36673.4 326.599 20
-1 0 -3 46028.7 620.312 18
1 0 4 2538.22 157.272 10
-1 0 -4 2214.34 105.138 22
-1 0 -4 2310.4 165.299 18
-1 0 -5 72353.4 1049.36 18
1 0 5 73363.5 954.979 10
1 0 6 328347 2232.53 10
-1 0 -6 327661 2477.42 18
1 0 7 15405.3 541.507 10
-1 0 -7 14627.1 571.314 18
1 0 8 75661.4 1337.55 10
-1 0 -8 74842.6 1412.85 18
1 0 9 5467.52 400.541 10
-1 0 -9 5673.32 421.879 18
-1 0 -10 -52.8136 54.6698 18
1 0 10 131.004 104.2 10
1 0 11 667.07 163.584 10
-1 0 -11 91.7713 80.1571 18
-1 0 -12 255.296 137.716 6
1 0 12 79.2159 90.0799 15
-1 0 -12 93.8093 96.1313 7
1 0 13 698.356 201.152 15
-1 0 -13 663.259 186.887 6
-1 0 -13 670.954 187.456 7
-1 0 -14 679.217 199.034 6
1 0 14 418.782 154.272 15
-1 0 -14 566.167 169 7
-1 0 -15 -35.6681 71.6833 9
1 0 15 -76.898 146.169 15
-1 0 -15 105.822 60.2522 7
-1 0 -15 43.587 84.3834 6
-1 0 -16 -74.9405 85.0049 9
-1 0 -16 6.61218 83.4198 6
-1 0 -17 1581.6 296.46 9
-1 0 -17 1391.03 230.506 6
-1 0 -18 -35.7608 65.5392 6
1 1 -16 763.911 159.944 7
-1 -1 15 1687.19 293.143 15
1 1 -15 1354.89 249.249 7
-1 -1 14 799.482 223.372 15
-1 -1 13 5630.45 576.426 15
-1 -1 12 -1.09586 72.5661 15
1 1 -11 10460.4 690.117 18
-1 -1 11 9709.71 746.656 15
1 1 -10 6835.89 533.293 18
1 1 -9 53512.9 1413.81 18
-1 -1 8 41167.1 1148.52 10
1 1 -8 43649.6 1198.31 18
-1 -1 7 2836.87 275.886 10
1 1 -7 2702.83 283.133 18
1 1 -6 18285.2 672.692 18
-1 -1 6 18447.7 661.198 10
1 1 -5 12235.9 512.914 18
-1 -1 5 12983.7 500.774 10
-1 -1 4 22512.9 606.087 10
1 1 -4 21692.4 640.494 21
1 1 -4 23053.2 648.585 18
-1 -1 4 23307.5 708.24 1
1 1 -3 28857.9 666.635 21
-1 -1 3 30074.4 727.058 1
-1 -1 2 586609 2389.78 10
1 1 -2 593986 2719.01 21
1 1 -1 61441.9 809.698 21
1 1 0 404656 1970.03 21
-1 -1 -1 45616.3 612.608 21
1 1 2 114446 1007.49 22
-1 -1 -3 116081 1015.85 22
1 1 4 50106.5 639.796 20
-1 -1 -4 48270.2 704.221 22
1 1 5 99902.5 994.603 20
1 1 5 100299 1066.13 10
1 1 6 104603 1229.4 10
1 1 6 106600 1110.16 20
1 1 7 136968 1590.48 10
-1 -1 -7 138155 1816.23 18
1 1 8 7604.13 418.8 10
-1 -1 -8 8551.05 492.97 18
-1 -1 -9 36303.4 1096.42 18
-1 -1 -10 2244.39 302.976 18
-1 -1 -11 10107.2 665.164 18
-1 -1 -12 12754.6 795.076 7
1 1 12 11754.4 803.519 15
-1 -1 -12 12552.6 741.014 6
-1 -1 -12 13964 814.584 18
-1 -1 -13 -64.9831 76.1217 18
-1 -1 -13 -66.6265 112.967 6
-1 -1 -13 -96.7083 93.4515 7
1 1 14 12618.8 873.296 15
-1 -1 -14 13379.3 852.133 7
-1 -1 -14 12955.6 803.854 6
-1 -1 -15 1164.62 250.126 7
-1 -1 -15 958.559 228.606 6
-1 -1 -16 77.0962 67.7171 7
-1 -1 -16 191.423 110.868 6
-1 -1 -17 909.218 190.338 6
-1 -1 -17 1016.61 199.676 7
-1 -1 -18 1395.71 202.455 7
-1 -1 -18 1199.65 196.473 6
-1 -2 16 -39.2122 75.925 15
-1 -2 15 318.614 130.552 15
-1 -2 14 327.986 140.448 15
-1 -2 13 1059.58 258.23 15
-1 -2 12 5331.5 580.503 15
-1 -2 11 149.175 137.032 15
-1 -2 10 1219.38 258.164 15
-1 -2 9 775.524 191.901 10
1 2 -8 5794.35 444.796 18
-1 -2 8 6649.69 490.591 10
-1 -2 7 4200.45 360.958 10
1 2 -7 4686.42 372.683 18
-1 -2 6 56.2949 62.9312 10
1 2 -6 167.907 81.1471 18
1 2 -5 34681.2 890.01 18
-1 -2 5 37061.1 881.212 10
-1 -2 5 36836.1 1058.88 1
-1 -2 4 65764 1050.16 10
1 2 -4 62881.9 1121.72 18
-1 -2 4 63849.2 1302.29 1
-1 -2 3 95305.1 1466.19 1
-1 -2 3 93811.7 1142.37 10
-1 -2 2 856751 4076.77 1
-1 -2 2 853599 3676.42 21
-1 -2 2 850102 3134.52 10
-1 -2 1 999999 4140.9 1
-1 -2 1 999071 2928.65 10
1 2 0 342112 2148.53 22
1 2 1 139784 1363.26 22
1 2 2 320027 2073.31 22
-1 -2 -3 8566.72 343.076 22
-1 -2 -3 6859.92 290.139 18
-1 -2 -4 17365.2 508.341 22
1 2 4 16911.9 482.902 20
1 2 5 201961 1725.63 20
-1 -2 -5 205368 1850.43 22
1 2 6 9415 390.996 20
-1 -2 -6 9410.16 445.904 18
-1 -2 -6 9312.19 420.464 22
-1 -2 -7 164436 2048 18
1 2 7 167005 1792.76 20
-1 -2 -8 13310.2 634.624 18
-1 -2 -9 2221.59 281.032 18
-1 -2 -10 128.817 71.5551 18
-1 -2 -11 1872.9 284.42 18
-1 -2 -12 264.353 133.857 7
-1 -2 -12 -16.0193 63.223 18
-1 -2 -13 141.584 118.817 18
-1 -2 -13 29.2524 67.5912 7
-1 -2 -13 177.753 107.759 6
-1 -2 -14 23.7216 111.018 6
-1 -2 -14 94.2304 81.5635 7
-1 -2 -15 259.736 120.799 7
-1 -2 -15 240.704 115.682 6
-1 -2 -16 1967.28 318.931 7
-1 -2 -16 1849.4 305.317 6
-1 -2 -17 959.825 200.85 6
-1 -2 -17 1140.52 229.458 7
-1 -2 -18 141.495 83.5018 7
-1 -3 15 8.64915 67.0195 15
-1 -3 14 3791.57 423.37 15
-1 -3 13 102.063 101.14 15
-1 -3 12 4015.1 497.279 15
-1 -3 11 3752.48 490.722 15
-1 -3 10 6551.37 631.588 15
-1 -3 10 5490.49 504.007 10
-1 -3 9 1801.35 278.786 10
-1 -3 9 1357.66 284.238 15
-1 -3 8 1726.73 271.991 10
-1 -3 7 15757.9 740.105 10
-1 -3 6 542.273 139.156 10
-1 -3 5 30220.4 858.472 10
-1 -3 5 30981.5 1073.69 1
-1 -3 4 9276.48 552.995 1
-1 -3 4 10984.2 476.709 10
-1 -3 3 130156 1920.12 1
-1 -3 3 131519 1524.3 10
-1 -3 2 218.326 54.2481 10
-1 -3 2 183.922 73.2255 1
-1 -3 1 2453.09 178.862 10
-1 -3 1 2625.58 248.37 1
-1 -3 0 50.3569 33.122 10
1 3 0 29.0046 41.6947 22
-1 -3 0 -48.0668 69.6903 1
-1 -3 -1 63326.9 1150.65 1
1 3 1 59710 1064.69 22
-1 -3 -2 126272 1671.48 1
-1 -3 -3 7248.13 410.754 1
1 3 3 5409.85 285.325 19
-1 -3 -4 2026.26 184.715 18
-1 -3 -4 2724.8 266.777 1
-1 -3 -5 1782.84 177.789 18
-1 -3 -5 1938.77 242.173 1
-1 -3 -6 20567.7 668.548 18
-1 -3 -7 108313 1694.37 18
-1 -3 -8 39452.1 1114.69 18
-1 -3 -9 6421.98 485.163 18
-1 -3 -10 399.795 140.359 18
-1 -3 -11 6949.14 566.762 18
-1 -3 -12 5980.85 553.252 18
-1 -3 -12 4707.11 491.2 7
-1 -3 -12 4624.9 484.377 6
-1 -3 -13 6381.21 572.535 18
-1 -3 -13 5708.66 558.607 7
-1 -3 -13 5665.02 555.882 6
-1 -3 -14 105.502 88.4646 6
-1 -3 -14 -34.2713 121.861 7
-1 -3 -15 2215.86 362.493 7
-1 -3 -15 1930.71 337.043 6
-1 -3 -16 6757.71 602.352 7
-1 -3 -16 5825.55 536.089 6
-1 -3 -17 1409.89 262.583 7
-1 -3 -18 12.3032 57.544 7
-1 -3 -19 131.363 62.3996 7
-1 -4 14 3171.61 335.145 15
-1 -4 13 67.5538 93.8575 15
-1 -4 12 494.686 183.304 15
-1 -4 11 157.378 113.205 15
-1 -4 10 -2.04776 95.0033 15
-1 -4 9 832.4 250.435 15
-1 -4 9 1180.03 235.498 10
-1 -4 8 1336.33 238.267 10
-1 -4 8 1120.4 278.452 15
-1 -4 7 32.7878 60.6294 10
-1 -4 7 -60.4317 79.9934 15
-1 -4 7 23.4377 74.0648 12
-1 -4 6 3735.81 357.431 10
-1 -4 5 10712.7 556.413 10
-1 -4 5 11789 722.984 1
-1 -4 4 15254.2 781.441 1
-1 -4 4 13912.8 594.224 10
-1 -4 3 16612.3 620.555 10
-1 -4 3 17248.1 779.266 1
-1 -4 2 11704.8 610.669 1
-1 -4 2 11662.4 477.581 10
-1 -4 1 4498 285.11 10
-1 -4 1 5487 400.334 1
-1 -4 0 109154 1728.52 1
-1 -4 -1 5403.99 375.559 1
-1 -4 -2 35191 965.277 1
-1 -4 -3 57305.6 1274.87 1
-1 -4 -4 1321.61 202.907 1
-1 -4 -5 51.5239 67.733 1
1 4 5 139.815 64.5536 19
-1 -4 -6 1016.54 207.405 1
-1 -4 -6 800.772 141.316 18
-1 -4 -7 17496.2 683.687 18
-1 -4 -7 20649.2 927.001 1
-1 -4 -8 18522.3 744.116 18
-1 -4 -9 13880.5 712.104 18
-1 -4 -10 4594.5 433.892 18
-1 -4 -11 16231.3 853.265 18
-1 -4 -12 19789.7 987.913 18
-1 -4 -12 19463 1024.17 7
-1 -4 -12 19114.8 1031.44 6
-1 -4 -13 819.679 203.648 18
-1 -4 -13 592.33 194.475 7
-1 -4 -13 745.373 216.555 6
-1 -4 -14 8514.64 701.698 7
-1 -4 -15 9638.65 739.778 7
-1 -4 -16 1659.41 298.269 7
-1 -4 -17 -13.3032 59.9585 7
-1 -4 -18 -128.505 84.6293 7
-1 -4 -19 16.6958 35.1862 7
-1 -5 13 3376.89 326.652 15
-1 -5 12 801.668 193.619 15
-1 -5 11 155.023 111.238 15
-1 -5 10 -29.4488 120.084 15
-1 -5 9 -70.5258 131.072 15
-1 -5 8 1173.39 289.643 15
-1 -5 7 126.602 123.325 15
-1 -5 6 327.615 145.753 15
-1 -5 6 129.206 109.261 12
-1 -5 5 -18.426 61.5419 15
-1 -5 4 -105.318 83.4383 1
-1 -5 3 17370.6 863.58 1
-1 -5 2 130.444 83.3724 1
-1 -5 1 10458.1 610.081 1
-1 -5 0 2827.95 309.63 1
-1 -5 -1 -26.4619 55.4153 1
-1 -5 -2 5099.75 408.304 1
-1 -5 -3 721.633 146.929 1
-1 -5 -4 19845.9 849.455 1
-1 -5 -5 9146.47 596.873 1
-1 -5 -6 7660.27 569.71 1
-1 -5 -7 62492.8 1699.79 1
-1 -5 -8 55354.4 1674.44 1
-1 -5 -9 25492.7 1195.81 1
-1 -5 -9 21073.5 900.962 18
-1 -5 -10 14858.3 960.306 1
-1 -5 -10 12207.8 710.422 18
-1 -5 -11 13582.1 797.696 18
1 5 11 13501.3 807.94 17
-1 -5 -11 16580.7 1067.63 1
-1 -5 -11 15506.8 894.988 7
-1 -5 -12 413.432 156.742 18
1 5 12 300.063 146.969 17
-1 -5 -12 360.996 219.011 1
-1 -5 -12 325.64 140.261 7
-1 -5 -13 16983.5 981.97 7
-1 -5 -14 1232.52 263.665 7
-1 -5 -15 3069.8 406.068 7
-1 -5 -16 993.703 224.447 7
-1 -5 -17 87.2098 71.6982 7
1 5 18 373.184 136.949 11
-1 -5 -18 294.606 91.7636 7
-1 -6 11 -69.916 90.3695 15
-1 -6 10 43.1206 74.8703 15
-1 -6 9 605.59 196.165 15
-1 -6 8 5304.92 575.427 15
-1 -6 7 385.732 186.607 15
-1 -6 6 426.759 194.535 15
-1 -6 5 5926.26 584.033 15
-1 -6 5 4761.55 495.87 12
1 6 -5 5321.61 547.084 4
1 6 -4 2046.56 329.476 4
-1 -6 4 2206.47 352.301 15
-1 -6 4 1730.9 289.02 12
-1 -6 3 445.539 167.287 15
-1 -6 3 296.59 132.573 12
-1 -6 2 19.5136 79.9095 15
-1 -6 2 70.8665 81.8502 1
-1 -6 1 2097.07 302.29 1
-1 -6 0 241.15 95.7207 1
-1 -6 -1 19280.3 879.409 1
-1 -6 -2 3142.03 359.146 1
-1 -6 -3 7712.68 560.758 1
-1 -6 -4 2233.58 311.83 1
-1 -6 -5 1070.57 236.221 1
-1 -6 -6 20.0322 72.7074 1
-1 -6 -7 8130.27 652.955 1
-1 -6 -8 5886.65 583.962 1
-1 -6 -9 2602.93 400.531 1
-1 -6 -10 6494.87 656.538 1
-1 -6 -11 3678.83 508.037 1
-1 -6 -11 3222.99 409.935 7
-1 -6 -12 10999.8 769.588 7
-1 -6 -13 1015.72 231.756 7
-1 -6 -14 5.09055 53.4368 7
-1 -6 -15 140.802 101.891 7
-1 -6 -16 990.186 205.927 7
-1 -6 -17 1340.9 214.276 7
1 6 18 1034.47 195.651 11
-1 -6 -18 1306.68 194.726 15
-1 -7 10 -5.64129 59.319 15
-1 -7 9 454.204 143.368 15
-1 -7 8 717.998 195.269 15
-1 -7 7 789.529 207.253 15
-1 -7 6 -73.4158 104.822 15
-1 -7 5 6343.23 604.719 15
-1 -7 4 3795.64 481.232 15
-1 -7 3 431.188 176.082 15
-1 -7 2 45.9002 91.7617 15
-1 -7 1 188.556 129.92 15
-1 -7 0 36075.8 1369.71 15
-1 -7 -1 36364.1 1400.56 15
-1 -7 -2 18.7291 127.075 15
-1 -7 -3 992.88 222.067 15
-1 -7 -4 422.182 150.647 15
-1 -7 -5 2012.7 330.318 15
-1 -7 -6 -49.4238 115.535 15
-1 -7 -7 931.732 238.04 15
-1 -7 -8 383.411 172.418 15
-1 -7 -9 153.625 148.47 15
-1 -7 -10 3352.51 481.054 15
-1 -7 -11 2003.55 367.028 15
-1 -7 -12 8125.37 728.148 15
-1 -7 -13 3.93535 93.5131 15
-1 -7 -14 84.0842 85.3095 15
-1 -7 -15 109.093 87.1005 15
-1 -7 -16 353.208 127.475 15
1 7 16 426.944 171.896 11
1 7 17 768.809 181.955 11
-1 -7 -17 735.29 151.891 15
-1 -8 8 -89.2077 63.5475 15
-1 -8 7 2138.98 283.88 15
-1 -8 6 1225.67 231.576 15
-1 -8 5 206.399 107.495 15
-1 -8 4 639.469 185.175 15
-1 -8 3 -42.0402 85.1405 15
-1 -8 2 284.929 158.931 15
-1 -8 1 -47.3166 110.912 15
-1 -8 0 15976.1 926.04 15
-1 -8 -1 3293.16 427.01 15
-1 -8 -2 1194.83 258.746 15
-1 -8 -3 -57.1469 127.804 15
-1 -8 -4 -429.526 169.212 15
-1 -8 -5 -1.33724 117.732 15
-1 -8 -6 384.872 139.968 15
-1 -8 -7 12969.2 878.793 15
-1 -8 -8 17709.5 1040.02 15
-1 -8 -9 1725.16 336.047 15
-1 -8 -10 970.204 252.787 15
1 8 11 90.5367 103.459 11
-1 -8 -11 427.052 179.667 15
-1 -8 -12 -4.56108 72.3529 15
1 8 12 16.8076 84.2964 11
1 8 13 187.277 97.6746 11
-1 -8 -13 261.776 137.052 15
1 8 14 231.986 121.48 11
-1 -8 -14 355.042 125.024 15
1 8 15 1150.87 238.323 11
-1 -8 -15 1249.1 216.137 15
1 8 16 853.831 179.432 11
-1 -8 -16 952.655 165.438 15
-1 -9 5 109.471 71.5597 15
-1 -9 4 3.3592 56.0863 15
-1 -9 3 -36.4933 74.9677 15
-1 -9 2 265.926 131.933 15
-1 -9 1 -10.6715 78.4636 15
-1 -9 0 40.5434 68.7564 15
-1 -9 -1 3006.2 393.978 15
-1 -9 -2 3768.91 440.675 15
-1 -9 -3 383.829 161.627 15
-1 -9 -4 51.8429 97.0655 15
-1 -9 -5 -54.3035 129.408 15
-1 -9 -6 -32.7684 105.251 15
-1 -9 -7 87.2545 95.9925 15
-1 -9 -8 -14.2265 82.6042 15
-1 -9 -9 225.139 136.683 15
-1 -9 -10 114.783 94.0601 15
-1 -9 -11 10.9943 63.4937 15
-1 -9 -12 83.783 81.1523 15
-1 -9 -13 219.7 104.861 15
-1 -9 -14 69.7951 64.1357 15
-1 -10 1 15.3858 43.5534 15
-1 -10 0 47.6776 82.6985 15
-1 -10 -1 -0.21065 74.8366 15
-1 -10 -2 50.4435 64.6561 15
-1 -10 -3 -117.451 81.0061 15
-1 -10 -4 185.603 98.188 15
-1 -10 -5 157.494 94.8801 15
-1 -10 -6 -45.9897 92.2372 15
-1 -10 -7 710.235 172.423 15
-1 -10 -8 6147.19 479.573 15
-1 -10 -9 7762.47 521.022 15
-1 -10 -10 8378.2 517.295 15
-1 -10 -11 4133.34 339.388 15
-2 9 10 3722.34 314.09 4
-2 9 9 2698.97 319.679 11
-2 9 9 2408.63 272.854 4
-2 9 8 640.405 152.97 4
-2 9 7 151.129 86.2269 4
-2 9 6 1370.22 231.615 4
-2 9 5 2500.57 313.75 4
-2 9 4 682.207 173.951 4
-2 9 3 1130.05 216.945 4
-2 9 2 2574.24 323.319 4
-2 9 1 771.352 173.418 4
-2 9 0 2270.51 295.156 4
-2 9 -1 4731.84 410.378 4
-2 9 -2 2029.14 261.948 4
-2 9 -3 86.5385 70.098 4
-2 9 -3 17.6042 41.1851 13
-2 8 13 1086.59 204.626 11
-2 8 13 830.292 149.237 4
-2 8 12 3420.38 399.525 11
-2 8 12 2775.94 296.759 4
-2 8 11 1677.49 306.367 11
-2 8 11 1410.92 235.142 4
-2 8 10 -11.0647 72.0668 11
-2 8 10 34.7769 66.0626 4
-2 8 9 28.1076 85.3261 11
-2 8 9 47.3132 69.5276 4
-2 8 8 617.988 188.703 4
-2 8 8 861.672 262.482 11
-2 8 7 2873.19 441.95 11
-2 8 7 4006.81 459.75 4
-2 8 6 3630.47 492.091 11
-2 8 6 5129.45 522.066 4
-2 8 5 3620.99 441.992 4
-2 8 4 2003.54 332.896 4
-2 8 3 1155.34 249.609 4
-2 8 2 1909.69 315.877 4
-2 8 1 5446.97 520.42 4
-2 8 0 -7.2928 84.1652 4
-2 8 -1 421.39 163.102 4
-2 8 -2 370.067 147.703 4
-2 8 -3 6.29492 75.9804 4
-2 8 -4 2278.52 315.52 4
-2 8 -5 2795.06 327.657 4
-2 8 -5 2618.43 266.79 13
-2 8 -6 1021.25 187.867 4
-2 8 -6 1010.52 176.696 6
-2 8 -7 1215.84 166.837 6
-2 7 14 3.31003 50.7196 11
-2 7 13 172.86 101.212 11
-2 7 12 104.708 84.2898 11
-2 7 11 4876.68 615.142 11
-2 7 10 -43.5536 130.269 11
-2 7 9 2859.47 497.376 11
-2 7 8 480.622 219.359 11
-2 7 7 676.078 233.275 11
-2 7 6 4249.57 592.734 11
-2 7 5 1167.86 314.766 11
-2 7 5 1268.04 268.954 4
-2 7 4 8464.65 795.179 11
-2 7 4 8935.75 713.62 4
-2 7 3 14171.8 889.46 4
-2 7 2 -116.624 114.875 4
-2 7 1 188.113 102.982 4
-2 7 0 138.009 98.2018 4
-2 7 -1 12797 814.479 4
-2 7 -2 31039.1 1277.5 4
-2 7 -3 42751.4 1513.14 4
-2 7 -4 21591.6 1064.94 4
-2 7 -5 23.8347 97.9745 4
-2 7 -6 722.012 202.227 4
-2 7 -6 657.158 150.965 13
-2 7 -7 331.941 125.265 4
-2 7 -8 20.3339 77.2574 6
-2 7 -9 -66.969 71.3396 6
-2 6 15 96.3838 69.651 11
-2 6 15 228.216 88.0798 17
-2 6 14 1311.63 269.352 11
-2 6 14 1445.25 230.304 17
-2 6 13 2866.7 438.734 11
-2 6 13 2400.44 320.238 17
-2 6 12 338.304 176.093 11
-2 6 12 279.865 122.149 17
-2 6 11 3270.48 405.091 17
-2 6 11 4282.12 605.303 11
-2 6 10 1819.78 408.966 11
-2 6 10 2240.38 345.372 17
-2 6 9 139.248 110.945 11
-2 6 9 617.335 194.184 17
-2 6 8 2440.45 470.323 11
-2 6 8 2739.99 365.585 17
-2 6 7 766.632 233.152 19
-2 6 7 651.37 247.841 11
-2 6 6 2851.81 453.393 19
-2 6 6 2195.04 422.831 11
-2 6 5 1128.3 271.96 19
-2 6 5 1240.79 314.801 11
-2 6 4 13889.2 1036.79 11
-2 6 4 15205.6 968.498 19
-2 6 3 2098.09 403.398 11
-2 6 3 2010.1 326.628 4
-2 6 3 1902 333.862 19
-2 6 2 3041.51 423.141 19
-2 6 2 2409.26 358.669 4
-2 6 1 60.3325 95.3543 4
-2 6 1 71.0824 107.53 19
-2 6 0 2729.51 385.101 19
-2 6 0 2868.01 386.983 4
2 -6 1 896.676 236.904 10
-2 6 -1 927.107 215.774 4
2 -6 2 2124.28 326.927 10
-2 6 -2 2632.59 374.129 4
2 -6 3 237.047 121.103 10
-2 6 -3 5.09531 64.7364 4
-2 6 -4 3454.63 434.348 4
-2 6 -5 -32.194 109.608 4
-2 6 -6 96.2864 82.9696 4
-2 6 -7 633.226 177.99 4
-2 6 -8 427.419 162.492 4
-2 6 -8 607.99 169.066 6
-2 6 -9 1188.17 225.107 6
-2 6 -10 1982.33 261.005 6
-2 6 -11 2516.05 257.022 6
-2 5 16 922.726 158.733 17
-2 5 15 200.909 96.2131 17
-2 5 15 36.7023 61.2812 11
-2 5 14 1963.73 288.647 17
-2 5 14 1742.95 327.822 11
-2 5 13 356.394 148.993 17
-2 5 13 335.358 173.405 11
-2 5 12 208.039 153.522 11
-2 5 12 17.7377 70.4465 17
-2 5 11 2829.69 507.597 11
-2 5 11 2786.55 397.539 17
-2 5 10 784.227 280.547 11
-2 5 10 1131.88 273.381 17
-2 5 9 5714.06 733.038 11
-2 5 9 5010.23 603.918 19
-2 5 9 5915.83 564.452 17
-2 5 8 19587.7 1281.56 11
-2 5 8 18778.9 1149.75 19
-2 5 8 20505.7 1012.46 17
-2 5 7 29246.8 1539.25 11
-2 5 7 28931.1 1380.49 19
-2 5 6 6913.42 660.536 19
-2 5 5 10519.1 793.384 19
-2 5 4 15926.7 943.554 19
-2 5 3 5774.52 553.981 19
-2 5 2 6216.84 561.587 19
-2 5 1 1399.73 266.178 19
-2 5 0 1079.42 229.095 19
-2 5 -1 2334.8 339.87 19
2 -5 2 4485.77 433.367 10
2 -5 3 17873.1 879.422 10
-2 5 -3 18268.8 927.047 4
-2 5 -4 15419.9 877.377 4
2 -5 4 16170.6 843.524 10
2 -5 5 10311.5 687.65 10
-2 5 -5 9505.78 712.633 4
-2 5 -5 8735.98 714.656 23
-2 5 -6 3002.65 445.593 23
2 -5 6 3749.07 428.572 10
-2 5 -6 3429.02 448.222 4
-2 5 -7 1850.36 344.469 4
-2 5 -8 2530.7 389.761 4
-2 5 -9 193.321 117.784 6
-2 5 -9 84.192 96.4428 9
-2 5 -10 1712.93 354.256 9
-2 5 -10 2187.18 322.051 6
-2 5 -11 777.59 193.075 6
-2 5 -11 483.579 184.419 9
-2 5 -12 445.909 132.307 6
-2 5 -12 325.898 135.523 9
-2 5 -13 524.657 119.431 6
-2 4 16 607.996 145.204 17
-2 4 15 -6.11909 76.461 17
-2 4 14 105.287 115.112 17
-2 4 13 7853.43 738.403 11
-2 4 13 9518.35 687.692 17
-2 4 12 28702.7 1488.35 11
-2 4 12 29729.4 1261.78 17
-2 4 11 40042 1472.95 17
-2 4 11 40755.5 1818.2 11
-2 4 10 19089.3 1251.53 11
-2 4 10 16135.8 1071.02 19
-2 4 10 19130.1 1020.59 17
-2 4 9 1794.6 354.924 19
-2 4 9 1827.17 403.489 11
-2 4 9 2296.01 350.444 17
-2 4 8 2241.37 383.016 19
-2 4 7 704.412 205.671 19
-2 4 6 2796.19 394.683 19
-2 4 5 833.663 214.243 19
-2 4 4 776.654 194.788 19
-2 4 3 1210.76 236.724 19
-2 4 2 1150.68 219.864 19
-2 4 1 27.3274 79.6625 19
-2 4 0 9881.42 634.443 19
-2 4 0 9276.49 529.897 23
-2 4 -1 5745.21 489.037 19
-2 4 -1 4753.15 407.241 23
-2 4 -2 7339.77 553.253 19
-2 4 -2 6896.94 512.259 23
-2 4 -3 65.7279 90.1438 23
2 -4 3 -36.1467 104.511 10
2 -4 4 3300.5 352.931 10
-2 4 -4 3135.39 387.03 23
2 -4 5 15348.4 783.417 10
-2 4 -5 14374.4 876.035 23
-2 4 -6 14701.5 877.978 4
2 -4 6 14608.6 787.368 10
-2 4 -6 13129.1 874.095 23
-2 4 -7 279.701 141.485 23
2 -4 7 455.939 146.187 10
-2 4 -7 479.142 211.241 9
-2 4 -7 266.881 123.482 4
2 -4 8 197.714 122.534 10
-2 4 -8 -84.3886 91.7061 23
-2 4 -8 220.858 147.219 9
-2 4 -8 114.58 113.442 4
-2 4 -9 574.935 181.151 6
-2 4 -9 551.53 226.918 9
-2 4 -9 571.642 219.981 4
-2 4 -10 6440.62 760.199 9
-2 4 -10 7003.99 597.707 6
-2 4 -11 3745.24 562.61 9
-2 4 -11 3874.46 433.441 6
-2 4 -12 3393.85 520.521 9
-2 4 -12 3245.42 377.709 6
-2 4 -13 1740.21 335.205 9
-2 4 -13 1571.9 240.911 6
-2 4 -14 87.6493 74.4452 9
-2 4 -14 -15.4297 60.5898 6
-2 3 16 32.3289 56.0509 17
2 -3 -16 73.0524 47.5421 7
-2 3 15 810.284 198.163 17
2 -3 -15 797.571 174.685 7
-2 3 14 -11.5401 80.3217 17
2 -3 -14 -34.0495 72.908 7
-2 3 13 683.49 206.115 17
-2 3 12 704.679 216.649 17
2 -3 -11 11808.3 765.489 18
-2 3 11 10548.8 766.448 17
-2 3 10 35800.5 1617.19 11
-2 3 10 35575.7 1392.88 17
2 -3 -9 16363.4 835.488 18
2 -3 -8 101.298 78.0439 18
-2 3 7 -147.384 95.8467 19
2 -3 -7 84.6111 70.1937 18
-2 3 6 128.11 87.3744 19
2 -3 -6 132.043 69.1917 18
-2 3 5 5606.91 496.069 19
2 -3 -5 4151.95 333.112 18
-2 3 4 42734.3 1278.25 19
-2 3 3 95240.6 1878.67 19
-2 3 3 89875.7 1457.39 23
-2 3 2 3846.53 302.387 23
-2 3 2 3847.45 367.252 19
-2 3 1 8372.57 528.89 19
-2 3 1 7520.92 428.523 23
-2 3 0 205.664 103.14 19
-2 3 0 181.779 95.924 23
-2 3 -1 5556.22 410.593 23
-2 3 -1 5460.55 420.733 19
-2 3 -2 5672.04 430.848 19
-2 3 -2 5836.13 435.455 23
2 -3 3 179.933 86.6257 10
-2 3 -3 451.142 139.129 23
2 -3 4 13967.4 652.1 10
-2 3 -4 14457 780.819 23
2 -3 5 27455.1 932.339 10
-2 3 -5 26619.3 1105.56 23
-2 3 -6 52760.1 1651.63 23
2 -3 6 56044.6 1399.09 10
2 -3 7 2531.39 329.489 10
-2 3 -7 2796.85 401.375 23
2 -3 8 2480.32 333.906 10
-2 3 -8 2941.71 511.445 9
-2 3 -8 2570.35 402.748 23
-2 3 -9 585.178 164.367 6
-2 3 -9 554.379 196.197 23
2 -3 9 628.971 185.089 10
-2 3 -9 597.447 238.987 9
-2 3 -10 1135.88 254.502 6
-2 3 -10 1116.3 297.886 23
2 -3 10 825.619 225.557 10
-2 3 -10 843.697 301.518 9
-2 3 -11 9526.62 949.213 9
-2 3 -11 10399.6 732.827 6
-2 3 -12 831.866 294.553 9
-2 3 -12 1495 282.076 6
-2 3 -13 5115.54 644.018 9
-2 3 -13 4790.84 466.843 6
-2 3 -14 183.321 121.586 9
-2 3 -14 191.173 85.9421 6
-2 3 -15 78.2561 85.7407 9
-2 3 -15 84.1067 68.28 6
2 -2 -17 -34.7999 52.8142 7
-2 2 16 336.905 109.52 17
2 -2 -16 517.092 131.581 7
-2 2 15 -9.0335 66.4645 17
2 -2 -15 79.9187 61.3645 7
-2 2 14 8.51945 66.0714 17
-2 2 13 36.3272 83.2204 17
-2 2 12 -21.8211 89.9517 17
-2 2 11 7924.46 686.992 17
2 -2 -11 9684.23 708.016 18
2 -2 -10 15446.6 865.008 18
-2 2 10 13397.5 857.653 17
2 -2 -9 13548.9 770.413 18
2 -2 -8 29315.4 1068.28 18
2 -2 -7 49.7547 66.5705 18
2 -2 -6 22321.3 824.011 18
2 -2 -5 947.815 162.97 18
-2 2 4 206.322 85.6192 19
2 -2 -4 386.525 95.2178 18
-2 2 4 388.647 108.316 23
-2 2 3 487.455 101.813 23
-2 2 3 476.46 121.783 19
2 -2 -3 281.074 65.9681 18
-2 2 2 18780.3 710.933 19
-2 2 2 17922.8 612.432 23
2 -2 -2 17762.9 564.879 18
2 -2 -1 40696.3 879.422 20
-2 2 1 44155.9 976.873 23
-2 2 0 1001.32 166.9 19
-2 2 0 1028.74 151.831 23
-2 2 -1 67386.5 1304.95 19
-2 2 -1 69352.2 1328 23
-2 2 -2 25998.2 829.705 19
-2 2 -2 27190.5 871.999 23
-2 2 -3 16698.8 716.785 23
2 -2 4 73961.8 1322.63 10
-2 2 -4 76269.3 1622.66 23
2 -2 5 45412.7 1055.64 10
-2 2 -5 45815 1336.9 23
2 -2 6 86.4505 85.6905 10
-2 2 -6 33.3053 56.3114 23
2 -2 7 2646.84 295.02 10
-2 2 -7 2446.99 351.847 23
2 -2 8 2185.82 285.327 10
-2 2 -8 2037.63 343.828 23
2 -2 9 1889.54 278.561 10
-2 2 -9 2058.48 369.177 23
-2 2 -10 44.9745 95.969 6
-2 2 -10 256.113 154.486 23
2 -2 10 137.665 95.294 10
-2 2 -10 189.864 141.268 9
-2 2 -11 12546.2 1094.22 9
2 -2 11 11299.1 725.249 10
-2 2 -11 12511.4 799.478 6
-2 2 -11 12275.4 912.95 23
-2 2 -12 449.25 166.029 6
-2 2 -12 385.316 199.364 9
-2 2 -13 22.2722 85.2074 6
-2 2 -13 111.471 130.967 9
-2 2 -14 83.3135 60.9107 9
-2 2 -14 70.4797 89.8902 6
-2 2 -15 1780.22 356.837 9
-2 2 -15 1855.77 266.783 6
-2 2 -16 53.1608 65.0481 6
-2 2 -16 119.626 82.7881 9
2 -1 -17 399.685 102.997 7
-2 1 16 -33.6772 61.6345 17
2 -1 -16 -95.0532 72.3579 7
-2 1 15 8.1588 79.2563 17
2 -1 -15 39.8855 55.3209 7
-2 1 14 864.617 218.698 17
-2 1 13 3097.57 426.818 17
-2 1 12 195.816 153.771 17
2 -1 -11 2281.47 349.352 18
-2 1 11 2005.33 347.385 17
2 -1 -10 297.068 157.869 18
-2 1 10 -14.4971 65.9008 17
2 -1 -9 22017.1 1001.87 18
2 -1 -8 12308.1 705.381 18
2 -1 -7 12428.7 671.095 18
2 -1 -6 758.44 164.032 18
2 -1 -5 8986.01 500.922 18
2 -1 -4 2955.49 268.619 18
-2 1 4 2974.23 273.847 23
-2 1 3 76066.3 1333 19
-2 1 3 77848.2 1293.04 23
-2 1 2 234414 2182.96 19
-2 1 2 237532 2170.6 23
2 -1 -1 273670 2063.9 21
2 -1 -1 266856 2279 20
-2 1 1 275623 2293.11 23
-2 1 1 271213 2263.77 19
2 -1 0 47589.5 863.876 20
-2 1 0 45974.6 934.143 19
-2 1 0 49105 987.465 23
2 -1 0 48237.8 781.895 21
2 -1 1 5323.96 224.849 21
2 -1 1 5247 245.889 20
-2 1 -1 5487.46 310.572 19
-2 1 -1 5740.15 351.111 23
-2 1 -2 9780.37 424.739 19
-2 1 -2 10135.5 497.825 23
2 -1 3 1730.32 177.106 10
-2 1 -3 2227.91 240.144 23
-2 1 -4 18143.9 728.231 23
2 -1 4 16345.7 519.995 10
-2 1 -5 70522.4 1502.83 23
2 -1 5 65748 1091.87 10
2 -1 6 14241.5 548.913 10
-2 1 -6 13681 724.179 23
-2 1 -7 694.918 179.199 23
2 -1 7 365.555 89.8083 10
-2 1 -8 6263.2 550.704 23
2 -1 8 3588.02 315.988 10
2 -1 9 21404 845.458 10
-2 1 -10 4371.45 515.396 23
2 -1 10 3294.54 365.831 10
-2 1 -11 19864.8 1320.8 9
-2 1 -11 21340.8 1151.55 23
-2 1 -11 20592.9 994.531 6
-2 1 -12 17643.5 1071.39 23
-2 1 -12 19098.4 1327.89 9
-2 1 -12 17683.7 944.193 6
-2 1 -13 1528.44 290.49 6
-2 1 -13 1453.33 369.043 9
-2 1 -14 3716.51 580.499 9
-2 1 -14 2890.08 374.207 6
-2 1 -15 83.199 109.13 9
-2 1 -15 170.658 102.761 6
-2 1 -16 3081.19 439.157 9
-2 1 -16 2948.79 342.866 6
-2 1 -17 187.087 91.99 9
-2 1 -17 144.72 85.452 6
2 0 -16 -23.4467 49.0398 7
-2 0 15 228.028 100.913 17
-2 0 14 430.661 148.476 17
-2 0 13 870.058 229.213 17
-2 0 12 1025.34 252.395 17
2 0 -11 2160.6 340.647 18
-2 0 11 1801.99 328.036 17
2 0 -10 4592.75 486.153 18
-2 0 10 3264.54 433.882 17
2 0 -9 7731.53 612.863 18
2 0 -8 3469.25 376.834 18
2 0 -7 4351.88 409.803 18
2 0 -6 683.617 158.693 18
2 0 -5 3198.8 316.737 18
-2 0 3 2401.83 239.272 23
-2 0 3 2460.81 226.352 1
2 0 -2 88319.6 1328.01 21
-2 0 2 90395 1232.66 1
-2 0 2 91916.8 1360.02 23
2 0 -1 87147.8 1204.48 21
-2 0 1 87357.3 1103.98 1
-2 0 1 90541.5 1289.57 23
2 0 0 70061.4 995.226 21
-2 0 0 70692.5 1117.07 23
-2 0 0 70391.7 920.795 1
2 0 1 4525.36 240.66 21
-2 0 -1 4599.54 233.224 1
-2 0 -1 4917.64 307.157 23
-2 0 -2 33803.7 647.797 1
-2 0 -2 35588.8 838.905 23
-2 0 -3 1316.3 138.562 1
-2 0 -3 1531.38 188.523 23
-2 0 -4 209788 2243.62 23
-2 0 -4 199244 1887.59 1
-2 0 -5 171237 2179.95 23
-2 0 -6 406.308 113.047 23
-2 0 -7 146.856 81.256 23
-2 0 -8 6485.71 520.802 23
-2 0 -9 -22.4795 82.9598 23
-2 0 -10 1466.46 272.382 23
-2 0 -11 24908.4 1183.22 23
-2 0 -11 24434.1 1404.45 9
-2 0 -11 27071.9 1090.08 6
-2 0 -12 5271.22 564.983 23
-2 0 -12 4888.22 677.624 9
-2 0 -12 5460.04 528.138 6
-2 0 -13 1014.43 239.642 6
-2 0 -13 1041.9 328.546 9
-2 0 -14 985.377 290.86 9
-2 0 -14 574.983 158.084 6
-2 0 -15 2137.03 416.192 9
-2 0 -15 2460.48 345.573 6
-2 0 -16 2313.99 388.911 9
-2 0 -16 2203.38 309.795 6
-2 0 -17 103.223 78.0751 9
-2 0 -17 271.844 111.61 6
-2 0 -18 179.82 88.8594 6
2 1 -16 116.184 63.5623 7
-2 -1 14 686.523 172.071 17
-2 -1 13 428.784 155.707 17
-2 -1 13 294.201 123.943 15
-2 -1 12 241.535 133.412 17
-2 -1 11 979.411 263.36 17
2 1 -10 18309.2 974.409 18
-2 -1 10 17723.1 994.148 17
2 1 -9 11555.7 749.964 18
-2 -1 9 11380.9 769.238 17
2 1 -8 934.158 202.544 18
2 1 -7 386.143 137.956 18
2 1 -6 999.694 193.822 18
2 1 -5 5826.91 434.797 18
-2 -1 4 388.108 111.326 1
-2 -1 3 27702.8 829.528 1
-2 -1 2 526.118 119.575 23
-2 -1 2 522.017 115.197 1
-2 -1 1 7582.95 395.953 23
2 1 -1 6989.33 369.227 21
-2 -1 1 7406.03 381.432 1
2 1 0 1025.57 138.901 21
-2 -1 0 1041.42 143.414 23
-2 -1 0 1063.82 138.055 1
-2 -1 -1 14422.2 468.142 21
-2 -1 -1 12804.1 468.965 23
-2 -1 -1 13075.2 478.016 1
2 1 2 10043.2 386.558 22
-2 -1 -2 11049.6 387.367 21
-2 -1 -2 10555 426.674 23
-2 -1 -2 10449.6 436.608 1
-2 -1 -3 9746.58 352.329 21
2 1 3 8812.85 353.193 22
-2 -1 -3 9299.14 426.615 1
-2 -1 -3 9558.39 422.801 23
-2 -1 -4 5229.45 254.146 21
-2 -1 -4 5864.92 362.464 1
-2 -1 -4 6126.48 357.914 23
-2 -1 -5 1497.48 196.056 1
-2 -1 -5 1353.42 182.878 23
-2 -1 -6 4972.51 362.082 23
-2 -1 -7 69161.8 1440.59 23
-2 -1 -8 22857.9 891.809 23
-2 -1 -9 610.366 164.477 23
-2 -1 -9 944.908 176.664 18
-2 -1 -10 568.516 146.3 18
-2 -1 -10 688.779 187.655 23
-2 -1 -11 51260.7 1450.59 18
-2 -1 -12 88029.1 2089.76 7
-2 -1 -12 92113.7 2064.92 6
-2 -1 -13 26853.4 1481.05 9
-2 -1 -13 24835.5 1138.06 7
-2 -1 -13 24717.7 1111.2 6
-2 -1 -14 10968.5 948.701 9
-2 -1 -14 10747.1 742.613 7
-2 -1 -14 10797.9 746.413 6
-2 -1 -15 4005.12 438.426 7
-2 -1 -15 3805.57 454.112 6
-2 -1 -16 1168.24 223.462 7
-2 -1 -16 1375.12 254.197 6
-2 -1 -17 -87.7034 98.9071 6
-2 -1 -18 483.195 129.294 6
2 2 -15 1206.77 179.729 7
-2 -2 14 240.627 98.6567 15
-2 -2 13 543.689 161.359 15
-2 -2 12 331.007 144.898 17
-2 -2 12 564.636 170.626 15
-2 -2 11 91.4626 92.5627 15
-2 -2 11 82.8519 77.7016 17
-2 -2 10 11123.9 799.036 17
-2 -2 10 12302.4 801.263 15
2 2 -9 12745.8 779.226 18
-2 -2 9 12655.8 854.302 17
2 2 -8 5848.39 512.674 18
2 2 -7 125.028 97.5656 18
2 2 -6 15092.1 756.705 18
2 2 -5 10845 614.835 18
-2 -2 5 11470.6 674.988 1
-2 -2 4 105.924 61.0549 1
-2 -2 3 21004.3 799.006 1
-2 -2 2 42205.9 1076.14 1
-2 -2 1 13177.8 576.514 1
-2 -2 0 533.803 114.794 23
-2 -2 0 556.655 120.026 1
-2 -2 -1 18690.7 646.849 1
-2 -2 -1 18189.6 568.185 23
-2 -2 -2 26882 666.07 23
-2 -2 -2 26403.2 775.351 1
2 2 3 36028.8 848.521 22
-2 -2 -3 37066 772.882 23
-2 -2 -4 128565 1817.53 1
-2 -2 -4 126964 1466.99 23
-2 -2 -5 22.8598 53.0647 1
-2 -2 -5 -74.4911 46.1728 23
-2 -2 -6 260.738 80.3287 23
-2 -2 -6 -7.31928 65.2512 1
-2 -2 -9 510.202 134.706 18
-2 -2 -10 18438.9 849.807 18
-2 -2 -11 2140.78 308.052 18
-2 -2 -12 16827.3 888.601 18
-2 -2 -12 16307.9 927.975 7
-2 -2 -12 17412.2 917.246 6
-2 -2 -13 26.5512 87.1391 6
-2 -2 -13 -178.541 119.537 7
-2 -2 -14 2845.33 397.754 7
-2 -2 -14 2923.21 398.234 6
-2 -2 -15 -70.1299 129.655 6
-2 -2 -15 34.441 81.2494 7
-2 -2 -16 638.641 181.279 6
-2 -2 -16 938.7 212.751 7
-2 -2 -17 24.4437 75.5337 6
-2 -2 -17 30.8432 61.559 7
-2 -2 -18 1.07561 46.3398 7
-2 -3 14 27.4716 61.6658 15
-2 -3 13 -76.8997 82.7464 15
-2 -3 12 137.34 112.415 15
-2 -3 11 79.8105 71.5312 17
-2 -3 11 174.467 99.5825 15
-2 -3 10 3892.3 467.536 17
-2 -3 10 3814.98 463.029 15
-2 -3 9 3036.67 403.424 15
-2 -3 9 2628.95 402.938 17
-2 -3 8 73.343 125.308 17
-2 -3 8 87.5422 72.6585 15
-2 -3 8 109.742 86.2628 12
-2 -3 7 251.56 115.533 12
2 3 -6 5299.68 452.985 18
2 3 -5 2801.53 322.701 18
-2 -3 5 3751.46 420.22 1
-2 -3 4 14522.8 784.216 1
-2 -3 3 1393.21 240.642 1
-2 -3 2 38399.4 1142.08 1
-2 -3 1 65550.6 1437.12 1
-2 -3 0 14960.1 662.735 1
-2 -3 -1 30437.5 929.686 1
-2 -3 -2 11448.6 573.866 1
-2 -3 -3 1525.48 211.869 1
-2 -3 -4 7541.63 498.175 1
-2 -3 -5 214.751 100.191 1
-2 -3 -6 884.339 199.068 1
-2 -3 -7 17953.3 871.719 1
-2 -3 -8 8891.82 641.229 1
-2 -3 -9 3518.81 419.561 1
-2 -3 -12 1124.52 250.859 7
-2 -3 -12 940.573 222.305 6
-2 -3 -13 4286.14 498.837 7
-2 -3 -13 3819.97 476.634 6
-2 -3 -14 2276.11 367.021 7
-2 -3 -14 1823.86 324.821 6
-2 -3 -15 483.129 188.113 6
-2 -3 -15 598.713 184.449 7
-2 -3 -16 1066.08 235.24 6
-2 -3 -16 1386.46 273.564 7
-2 -3 -17 1782.56 277.15 7
-2 -3 -18 439.207 130.007 7
-2 -4 13 17.9617 55.7471 15
-2 -4 12 1191.79 224.888 15
-2 -4 11 115.559 102.682 15
-2 -4 10 -77.0983 107.005 15
-2 -4 9 -5.26268 66.2964 17
-2 -4 9 76.8597 104.944 15
-2 -4 8 -112.2 102.004 17
-2 -4 8 39.6015 84.0587 15
-2 -4 7 6665.12 595.894 15
-2 -4 7 5805.27 565.958 12
-2 -4 6 4720.11 483.473 15
-2 -4 6 3980.4 453.624 12
-2 -4 5 2303.55 356.479 1
-2 -4 4 4834.35 490.213 1
-2 -4 3 47023.4 1460.17 1
-2 -4 2 72421.2 1737.05 1
-2 -4 1 94470.3 1915.72 1
-2 -4 0 169292 2487.78 1
-2 -4 -1 39128.6 1177.38 1
-2 -4 -2 6078.19 465.747 1
-2 -4 -3 3847.23 370.891 1
-2 -4 -4 14588 746.677 1
-2 -4 -5 -137.419 91.4391 1
-2 -4 -6 13668.5 789.332 1
-2 -4 -7 2132.79 322.258 1
-2 -4 -8 122.843 96.638 1
-2 -4 -9 4745.89 520.565 1
-2 -4 -10 14680.5 952.078 1
-2 -4 -11 4175.1 533.019 1
-2 -4 -11 3510.06 438.2 7
-2 -4 -11 3124.21 407.725 6
-2 -4 -12 13086.3 968.509 1
-2 -4 -12 12243.1 841.192 7
-2 -4 -12 10696 805.044 6
-2 -4 -13 267.592 140.266 6
-2 -4 -13 255.441 149.405 7
-2 -4 -14 3470.72 454.73 7
-2 -4 -14 3196.91 427.866 6
-2 -4 -15 274.722 155.398 7
-2 -4 -16 770.929 210.024 7
-2 -4 -17 269.621 126.687 7
-2 -4 -18 -17.8936 51.2622 7
-2 -5 12 739.571 151.522 15
-2 -5 11 413.049 133.284 15
-2 -5 10 119.079 90.1283 15
-2 -5 9 653.158 186.49 15
-2 -5 8 885.261 227.459 15
-2 -5 7 581.087 201.505 15
-2 -5 7 318.903 136.492 12
-2 -5 6 -70.7527 111.147 15
-2 -5 6 -24.5539 71.2105 12
-2 -5 5 5834.41 553.745 15
-2 -5 5 5134.15 521.35 12
-2 -5 5 4992.86 556.551 1
-2 -5 4 5590.88 524.43 15
-2 -5 4 4967.76 499.847 12
-2 -5 4 4732.98 528.436 1
-2 -5 3 108.255 92.8941 1
-2 -5 2 507.487 171.901 1
-2 -5 1 11471.2 729.226 1
-2 -5 0 19757.4 932.003 1
-2 -5 -1 11452.8 700.291 1
-2 -5 -2 11326.5 689.631 1
-2 -5 -3 1684 289.357 1
-2 -5 -4 7735.51 584.511 1
-2 -5 -5 1978.17 309.003 1
-2 -5 -6 12520.8 796.777 1
-2 -5 -7 29278.1 1251.79 1
-2 -5 -8 5507.86 562.55 1
-2 -5 -9 2504.06 392.942 1
-2 -5 -10 1137.29 286.302 1
-2 -5 -10 871.48 210.083 7
-2 -5 -11 5794.76 633.305 1
-2 -5 -11 5070.1 541.701 7
-2 -5 -12 63.6999 109.298 1
-2 -5 -12 -21.9093 110.701 7
-2 -5 -13 7807.01 685.676 7
-2 -5 -14 625.143 200.758 7
-2 -5 -15 3272.23 425.03 7
-2 -5 -16 695.346 193.822 7
-2 -5 -17 -56.4704 61.0027 7
-2 -5 -18 108.752 70.6687 7
-2 -6 10 36.5086 67.2814 15
-2 -6 9 29.4571 83.4613 15
-2 -6 8 -93.7538 106.226 15
-2 -6 7 851.452 226.289 15
-2 -6 6 468.347 165.812 15
-2 -6 6 193.837 85.3003 12
-2 -6 5 1434.32 282.065 15
-2 -6 5 1213.24 260.805 12
-2 -6 4 2830.06 400.986 15
-2 -6 4 2662.79 377.162 12
-2 -6 3 1167.98 262.366 1
-2 -6 3 1478.54 283.315 15
-2 -6 3 1267.89 266.691 12
-2 -6 2 125.483 107.552 15
-2 -6 2 175.678 108.337 1
-2 -6 2 22.8724 66.2501 12
-2 -6 1 10504.7 753.76 1
-2 -6 1 10777.2 724.027 15
-2 -6 1 10034.6 690.321 12
-2 -6 0 11867.4 790.979 1
-2 -6 0 12468.3 767.703 15
-2 -6 0 11756.2 736.092 12
-2 -6 -1 2416.06 346.221 1
-2 -6 -2 483.213 174.4 1
-2 -6 -3 3765.56 437.547 1
-2 -6 -4 3002.59 402.863 1
-2 -6 -5 1693.41 306.314 1
-2 -6 -6 4340.1 494.714 1
-2 -6 -7 2667.9 395.044 15
-2 -6 -7 2961.99 419.986 1
-2 -6 -8 2149.44 344.553 7
-2 -6 -8 1637.46 304.075 15
-2 -6 -8 2526.36 404.412 1
-2 -6 -9 6660.61 621.933 15
-2 -6 -9 7642.41 656.301 7
-2 -6 -9 7781.37 719.454 1
-2 -6 -10 1383.45 315.044 1
-2 -6 -10 1137.65 265.405 7
-2 -6 -11 4976.6 547.209 7
-2 -6 -12 13583.3 905.427 7
-2 -6 -13 23575.2 1175.38 7
-2 -6 -14 4152.8 481.181 7
-2 -6 -15 995.316 230.731 7
-2 -6 -16 195.792 98.8512 7
-2 -6 -17 -13.4941 47.8045 7
-2 -6 -17 -53.4841 63.7605 15
-2 -7 9 44.4941 59.4602 15
-2 -7 8 357.48 121.466 15
-2 -7 7 -48.6193 93.9642 15
-2 -7 6 31.6184 62.0638 15
-2 -7 5 102.892 97.1598 15
-2 -7 4 474.409 160.015 15
-2 -7 4 563.997 173.064 12
-2 -7 3 2.16713 88.2273 15
-2 -7 3 82.8453 82.1653 12
-2 -7 2 244.369 136.384 15
-2 -7 2 150.061 119.338 12
-2 -7 1 2032.06 336.011 15
-2 -7 1 1949.86 311.88 12
-2 -7 0 617.809 192.544 15
-2 -7 0 338.772 146.948 1
-2 -7 0 389.109 150.337 12
-2 -7 -1 5590.2 556.956 1
-2 -7 -1 5710.46 560.336 15
-2 -7 -1 5235.84 501.986 12
-2 -7 -2 22.5472 85.7663 15
-2 -7 -2 76.859 90.2021 12
-2 -7 -3 2731.91 389.373 1
-2 -7 -3 2121.19 329.673 15
-2 -7 -3 2754.68 358.606 12
-2 -7 -4 2316.15 376.818 1
-2 -7 -4 1516.42 281.181 15
-2 -7 -5 337.636 155.346 1
-2 -7 -5 195.062 95.1918 15
-2 -7 -6 13692.9 900.147 1
-2 -7 -6 11853.1 800.005 15
-2 -7 -7 11695.4 817.609 15
-2 -7 -7 14149.5 927.499 1
-2 -7 -8 2011.01 346.131 15
-2 -7 -9 520.018 183.865 15
-2 -7 -10 2827.93 444.566 15
-2 -7 -11 214.641 117.547 7
-2 -7 -11 243.956 148.983 15
-2 -7 -12 315.285 134.027 7
-2 -7 -12 320.844 157.472 15
-2 -7 -13 146.077 98.7243 7
-2 -7 -13 350.472 159.672 15
-2 -7 -14 493.405 148.666 7
-2 -7 -14 508.699 171.172 15
-2 -7 -15 -103.038 80.7163 7
-2 -7 -15 92.3043 81.2298 15
-2 -7 -16 2.8515 42.7883 7
-2 -7 -16 -36.803 47.5149 15
2 7 17 129.364 77.377 11
-2 -8 6 944.593 175.88 15
-2 -8 5 26.1157 70.3812 15
-2 -8 4 23.3443 61.1625 15
-2 -8 3 17.9131 78.2879 15
-2 -8 2 742.534 205.955 15
-2 -8 2 461.836 140.116 12
-2 -8 1 2321.28 354.832 15
-2 -8 1 762.975 185.351 12
-2 -8 0 1400.15 272.298 15
-2 -8 -1 1914.21 313.623 15
-2 -8 -2 561.236 177.528 15
-2 -8 -3 358.237 129.14 15
-2 -8 -4 -175.462 122.714 15
-2 -8 -5 1348.23 276.694 15
-2 -8 -6 3919.98 471.401 15
-2 -8 -7 94.1654 111.064 15
-2 -8 -8 2524.29 397.819 15
-2 -8 -9 111.933 99.9338 15
-2 -8 -10 1338.3 280.116 15
-2 -8 -11 -134.374 103.491 15
-2 -8 -12 39.5534 62.221 15
-2 -8 -13 181.093 106.128 15
-2 -8 -14 815.227 191.712 15
2 8 15 534.258 154.017 11
-2 -8 -15 746.321 158.086 15
-2 -9 4 23.7442 43.0006 15
-2 -9 3 2.089 51.165 15
-2 -9 2 2009.61 268.406 15
-2 -9 1 2920.82 337.021 15
-2 -9 0 370.427 138.03 15
-2 -9 -1 875.738 203.733 15
-2 -9 -2 1277.16 251.465 15
-2 -9 -3 256.914 125.886 15
-2 -9 -4 -110.81 122.7 15
-2 -9 -5 674.107 198.098 15
-2 -9 -6 384.696 148.715 15
-2 -9 -7 1283.12 255.763 15
-2 -9 -8 771.063 204.253 15
-2 -9 -9 67.8541 94.8272 15
-2 -9 -10 277.76 127.515 15
-2 -9 -11 1406.13 240.418 15
-2 -9 -12 -2.40263 79.7524 15
-2 -9 -13 -46.406 68.7481 15
-2 -10 0 -24.1666 42.8203 15
-2 -10 -1 -18.8049 53.1636 15
-2 -10 -2 341.523 113.248 15
-2 -10 -3 23.8142 53.1112 15
-2 -10 -4 -31.8707 72.8771 15
-2 -10 -5 280.828 100.616 15
-2 -10 -6 1430.58 223.669 15
-2 -10 -7 1771.48 241.854 15
-2 -10 -8 3095.28 318.198 15
-2 -10 -9 1535.01 221.899 15
-2 -10 -10 89.8298 67.5353 15
-3 9 5 1045.96 166.396 4
-3 9 4 3079.3 279.545 4
-3 9 3 1809.29 223.078 4
-3 9 2 308.933 94.7936 4
-3 8 10 405.968 126.964 11
-3 8 10 262.013 87.3113 4
-3 8 9 230.163 106.46 11
-3 8 9 147.337 66.3427 4
-3 8 8 139.989 95.7244 11
-3 8 8 -45.0693 60.0293 4
-3 8 7 1353.65 266.962 11
-3 8 7 1148.57 204.843 4
-3 8 6 1660.94 291.543 11
-3 8 6 1940.6 271.154 4
-3 8 5 -110.767 95.1084 11
-3 8 5 48.4237 74.567 4
-3 8 4 319.325 125.404 4
-3 8 3 1900.17 281.313 4
-3 8 2 2742.22 337.325 4
-3 8 1 887.455 190.961 4
-3 8 0 1974.2 278.569 4
-3 8 -1 4027.98 382.723 4
-3 8 -2 3565.18 346.77 4
-3 8 -2 2575.87 289.106 13
-3 8 -3 49.5012 69.2719 4
-3 8 -3 -75.2402 89.3604 13
-3 8 -4 2016.47 232.01 4
-3 8 -4 1902.62 222.364 13
-3 7 12 3190.85 292.268 4
-3 7 12 4753.73 421.54 11
-3 7 11 7589.19 604.381 11
-3 7 11 5893.54 442.995 4
-3 7 10 6967.16 624.239 11
-3 7 10 5751.87 472.555 4
-3 7 9 2026.6 362.031 11
-3 7 9 1867.1 291.412 4
-3 7 8 496.44 188.042 11
-3 7 8 423.716 149.789 4
-3 7 7 4887.4 598.74 11
-3 7 7 4436.41 480.334 4
-3 7 6 5384.77 625.482 11
-3 7 6 4675.69 489.1 4
-3 7 5 332.244 175.544 11
-3 7 5 251.169 100.438 4
-3 7 4 13.0548 93.618 11
-3 7 4 -26.395 72.4632 4
-3 7 3 74.9497 99.4423 11
-3 7 3 68.7039 94.4717 4
-3 7 2 4800.88 490.038 4
-3 7 2 2493.63 411.261 11
-3 7 1 9341.17 684.751 4
-3 7 0 5949.46 525.578 4
-3 7 -1 2255.26 329.083 4
-3 7 -2 849.017 194.823 4
-3 7 -3 4450.26 438.723 4
-3 7 -4 393.507 146.398 4
-3 7 -4 391.887 132.577 13
-3 7 -5 885.615 186.84 4
-3 7 -5 761.982 169.648 13
-3 7 -6 2172.47 266.682 4
-3 7 -6 1893.64 235.316 13
-3 7 -6 2145.39 251.122 6
-3 7 -7 129.767 68.4773 6
-3 6 13 566.94 154.423 11
-3 6 13 468.149 108.624 17
-3 6 12 2507.76 356.381 11
-3 6 12 2374.65 264.055 17
-3 6 11 3718.16 474.902 11
-3 6 11 3400.69 335.724 17
-3 6 10 1427.72 322.017 11
-3 6 9 164.977 96.4419 11
-3 6 8 109.946 132.961 11
-3 6 7 2643.86 492.557 11
-3 6 6 21473.7 1337.34 11
-3 6 5 11060.4 962.509 11
-3 6 4 4953.31 637.407 11
-3 6 4 4818.66 516.095 4
-3 6 3 7898.12 805.41 11
-3 6 3 7721.17 648.63 4
-3 6 2 152.442 125.666 11
-3 6 2 -62.573 85.6611 4
-3 6 1 1055.91 287.7 11
-3 6 1 858.241 218.221 4
-3 6 0 234.036 140.119 11
-3 6 0 149.174 97.1909 4
-3 6 -1 9.97367 69.927 4
-3 6 -2 287.078 135.824 4
-3 6 -3 1204.96 253.66 4
-3 6 -4 1371.25 260.148 4
-3 6 -5 15902.2 870.591 4
-3 6 -5 17657.9 899.008 13
-3 6 -6 9803.6 659.205 4
-3 6 -6 9678.73 631.135 13
-3 6 -7 586.115 152.738 6
-3 6 -7 340.236 117.191 13
-3 6 -8 282.855 111.099 6
-3 6 -9 105.717 54.3686 6
-3 6 -10 1.65646 48.3846 6
-3 5 14 16.2657 41.936 17
-3 5 13 1277.28 240.12 11
-3 5 13 1810.38 240.954 17
-3 5 12 329.779 145.522 11
-3 5 12 251.739 111.003 17
-3 5 11 541.825 194.218 11
-3 5 11 522.168 154.975 17
-3 5 10 1392.84 337.442 11
-3 5 10 1447.35 262.116 17
-3 5 9 816.425 267.063 11
-3 5 8 3086.86 513.98 11
-3 5 7 107.612 126.506 11
-3 5 6 3563.51 567.613 11
-3 5 6 3149.71 452.745 19
-3 5 5 1217.28 340.826 11
-3 5 5 1517.04 317.243 19
-3 5 4 -145.731 125.973 11
-3 5 4 -175.119 111.67 19
-3 5 4 107.225 86.9515 5
-3 5 3 5332.06 658.954 11
-3 5 3 4992.93 512.426 5
-3 5 3 5509.66 566.621 19
-3 5 2 14124.7 1048.14 11
-3 5 2 14638.3 867.109 5
-3 5 2 14612.9 905.325 19
-3 5 2 12617.9 822.52 4
-3 5 1 1340.24 333.068 11
-3 5 1 977.862 231.281 19
-3 5 1 1796.01 311.086 5
-3 5 1 834.872 195.406 4
-3 5 0 19067.9 1023.48 19
-3 5 0 18259.5 950.44 5
-3 5 0 17986 924.97 4
-3 5 0 17565.2 1162.45 11
-3 5 -1 68387.3 1827.94 5
-3 5 -1 65391.4 1765.48 4
-3 5 -2 73274.3 1921.6 5
3 -5 2 73099.2 1850.46 10
-3 5 -2 76978.8 1893.06 4
3 -5 3 23064.9 1049.79 10
-3 5 -6 194.201 106.636 13
-3 5 -7 1464.84 266.961 13
-3 5 -7 1797.8 285.979 6
-3 5 -8 6.78677 94.8826 6
-3 5 -8 86.0973 86.5069 13
-3 5 -9 234.758 121.759 6
-3 5 -10 696.559 162.547 6
-3 5 -11 72.8154 59.417 6
-3 5 -11 124.771 71.2748 8
-3 4 15 911.049 146.013 17
-3 4 14 378.445 121.157 17
-3 4 13 15.0954 71.2701 17
-3 4 12 -84.4602 70.0884 17
-3 4 11 202.437 174.019 11
-3 4 11 56.5706 101.826 17
-3 4 10 222.178 143.528 11
-3 4 10 65.7335 80.0214 17
-3 4 9 954.052 297.344 11
-3 4 9 1011.87 230.007 17
-3 4 8 134.623 124.201 11
-3 4 8 85.2576 78.3898 17
-3 4 7 6862.39 754.27 11
-3 4 7 5878.51 615.396 19
-3 4 6 2249.14 426.999 11
-3 4 6 1727.27 329.666 19
-3 4 6 1878.9 333.726 5
-3 4 5 2232.16 436.238 11
-3 4 5 2761.75 408.575 19
-3 4 5 1974.62 334.523 5
-3 4 4 151.823 132.776 11
-3 4 4 -38.9924 67.7289 19
-3 4 4 112.657 92.3797 5
-3 4 3 5717.27 668.719 11
-3 4 3 6465.33 578.582 19
-3 4 2 6586.87 580.243 19
-3 4 1 101.466 64.6944 19
-3 4 0 2915.97 377.185 19
-3 4 0 2466.56 305.314 23
-3 4 -1 3071.34 391.522 19
-3 4 -1 3338.45 378.501 23
-3 4 -2 652.363 165.731 5
3 -4 2 873.031 211.089 10
-3 4 -2 536.948 160.978 23
-3 4 -3 8398.17 777.968 11
-3 4 -3 9757.98 689.091 5
3 -4 3 10771.1 693.332 10
-3 4 -3 9898.56 704.927 23
-3 4 -4 6835.53 586.162 5
3 -4 4 6640.58 530 10
-3 4 -4 7105.2 629.88 23
-3 4 -5 1214.44 268.844 23
3 -4 5 1216.51 243.916 10
-3 4 -6 390.745 156.944 23
-3 4 -6 -10.8556 81.5012 13
-3 4 -7 271.784 124.477 6
-3 4 -7 469.091 166.15 13
-3 4 -8 -391.092 154.445 6
-3 4 -8 -14.0195 63.5197 13
-3 4 -9 1768.27 290.401 6
-3 4 -10 11544.8 700.953 6
-3 4 -11 534.902 160.573 6
-3 4 -12 591.79 146.027 6
-3 4 -13 143.258 68.0568 6
-3 3 15 60.3245 59.4795 17
-3 3 14 229.098 103.664 17
-3 3 13 651.317 180.52 17
-3 3 12 6258.68 546.335 17
-3 3 11 2524.99 365.745 17
-3 3 10 5475.35 547.384 17
-3 3 9 12359 958.676 11
-3 3 9 11978.9 816.148 17
-3 3 8 6757.08 731.112 11
-3 3 8 7357.38 625.093 17
-3 3 7 1601.95 377.111 11
-3 3 7 1733.02 301.56 17
-3 3 6 152.367 129.79 11
-3 3 6 95.1801 78.794 16
-3 3 5 2441.55 355.353 19
-3 3 4 16846.1 900.479 19
-3 3 3 14722.1 814.293 19
-3 3 3 13412.4 695.492 23
-3 3 2 3600.37 388.459 19
-3 3 2 3051.31 328.111 23
-3 3 1 721.927 166.106 19
-3 3 1 841.063 179.76 23
-3 3 0 281.377 119.549 19
-3 3 0 57.645 57.842 23
-3 3 -1 8213.19 580.131 19
-3 3 -1 8145.13 566.034 23
-3 3 -2 7077.67 545.465 23
3 -3 3 21203 869.892 10
-3 3 -3 23443.5 1038.29 23
3 -3 4 18343.7 813.625 10
-3 3 -4 19256.8 986.388 23
-3 3 -5 7391.51 607.742 5
-3 3 -5 9074.17 711.067 23
-3 3 -5 7962.52 603.769 13
-3 3 -6 8940.47 747.377 23
-3 3 -6 9362.06 858.123 9
-3 3 -6 7947.68 612.036 13
-3 3 -7 3256.22 463.545 23
-3 3 -7 3525.09 573.062 9
-3 3 -7 3215.58 396.765 13
-3 3 -7 3921.18 427.752 6
-3 3 -8 2309.32 483.547 9
-3 3 -8 2148.37 394.207 23
-3 3 -8 2253.31 323.626 13
-3 3 -8 2371.77 327.202 6
-3 3 -9 235.018 126.679 6
-3 3 -9 317.487 186.976 9
-3 3 -9 260.67 84.12 13
-3 3 -10 257.416 128.018 6
-3 3 -10 436.561 218.269 9
-3 3 -11 5744.49 716.739 9
-3 3 -11 5492.56 505.566 6
-3 3 -12 3072.52 514.508 9
-3 3 -12 3057.41 361.107 6
-3 3 -13 802.497 174.465 6
-3 3 -14 -62.9487 63.2059 6
-3 2 15 1408.21 197.364 17
3 -2 -15 864.159 144.723 7
-3 2 14 1774.74 264.929 17
3 -2 -14 1513.85 223.872 7
-3 2 13 5069.01 482.851 17
-3 2 12 10447.7 732.484 17
-3 2 11 14375.3 883.364 17
-3 2 10 7210.54 638.631 17
3 -2 -9 892.609 211.73 18
-3 2 9 629.355 218.887 17
-3 2 8 321.988 143.043 17
3 -2 -8 225.723 84.5027 18
3 -2 -7 29.8825 112.639 18
-3 2 7 116.228 71.0771 17
3 -2 -6 328.325 126.751 18
3 -2 -5 1041.51 189.809 18
3 -2 -4 718.651 159.14 18
-3 2 4 816.859 170.363 23
3 -2 -3 2314.84 263.784 18
-3 2 3 4216.15 386.813 23
-3 2 2 4118.04 377.246 23
-3 2 1 3661.32 352.307 23
-3 2 0 69386.4 1539.13 23
-3 2 -1 5014.79 406.137 19
-3 2 -1 5857.07 467.593 23
-3 2 -2 21965 912.27 23
-3 2 -3 -155.773 94.0852 23
-3 2 -4 46051.7 1451.34 23
-3 2 -5 13426.5 815.647 23
-3 2 -6 297.367 138.016 23
-3 2 -7 -29.9479 65.6846 23
-3 2 -7 57.6348 83.2873 9
-3 2 -8 1293.62 297.334 23
-3 2 -8 1405.06 361.98 9
-3 2 -8 1301.65 245.183 13
-3 2 -9 3503.6 571.349 9
-3 2 -9 3218.12 473.68 23
-3 2 -9 3243.49 389.596 13
-3 2 -9 3641.4 418.662 6
-3 2 -10 8370.48 905.313 9
-3 2 -10 8543.36 639.769 6
-3 2 -11 39417.5 1880.3 9
-3 2 -11 35228.6 1295.88 6
-3 2 -12 1374.16 260.556 6
-3 2 -12 1182.31 338.378 9
-3 2 -13 181.397 103.571 6
-3 2 -13 391.271 191.85 9
-3 2 -14 1192.09 212.919 6
-3 2 -15 42.7704 54.1515 6
-3 1 15 -46.9264 51.9561 17
3 -1 -15 30.6527 52.6592 7
-3 1 14 12.1136 60.6797 17
-3 1 13 133.506 100.644 17
-3 1 12 9491.08 697.493 17
-3 1 11 24618 1159.25 17
-3 1 10 2965.74 426.506 17
3 -1 -9 904.345 218.251 18
-3 1 9 959.194 244.053 17
3 -1 -8 4484.24 477.708 18
-3 1 8 4756.21 511.149 17
3 -1 -7 388.073 145.983 18
-3 1 7 235.321 112.416 17
3 -1 -6 11547 704.611 18
3 -1 -5 30276.4 1091.12 18
3 -1 -4 16666.2 770.409 18
-3 1 3 66.0927 80.3502 23
-3 1 2 1373.15 222.742 23
-3 1 1 27346.1 928.52 23
-3 1 0 351.547 145.315 23
-3 1 -1 26482.8 931.908 23
-3 1 -2 854.527 182.757 23
-3 1 -3 190.28 89.5745 23
-3 1 -4 25884.3 1024.81 23
-3 1 -5 37591.9 1298.62 23
-3 1 -6 9816.97 696.487 23
-3 1 -7 79.4185 85.7487 23
-3 1 -8 271.233 126.697 23
-3 1 -9 4932.35 651.066 9
-3 1 -9 4417.99 441 13
-3 1 -9 4359.34 514.288 23
-3 1 -10 1185.66 282.952 23
-3 1 -10 1281.91 247.605 6
-3 1 -10 1433.38 372.453 9
-3 1 -11 5578.67 723.681 9
-3 1 -11 5644.38 530.083 6
-3 1 -12 1009.98 247.018 6
-3 1 -12 861.652 286.562 9
-3 1 -13 134.979 91.9818 6
-3 1 -13 38.2799 67.0233 9
-3 1 -14 104.334 82.1978 6
-3 1 -14 146.514 117.213 9
-3 1 -15 -113.965 89.117 6
-3 1 -16 1023.27 182.453 6
-3 0 15 118.371 58.7281 17
3 0 -15 92.1111 56.5087 7
-3 0 14 -13.4682 54.5483 17
-3 0 13 58.8234 86.9135 17
-3 0 12 78.9092 98.194 17
-3 0 11 9883.2 734.787 17
-3 0 10 15559.6 959.818 17
3 0 -9 512.995 171.6 18
-3 0 9 455.567 187.1 17
3 0 -8 1248.19 266.142 18
-3 0 8 1154.32 280.147 17
3 0 -7 4.56361 85.7357 18
-3 0 7 82.7477 115.467 17
3 0 -6 2638 348.066 18
3 0 -5 317.708 116.22 18
3 0 -4 4286.84 414.62 18
-3 0 3 18572.5 824.111 23
-3 0 2 510.282 139.205 23
-3 0 1 58664.9 1356.96 23
-3 0 0 5448.36 409.895 23
-3 0 -1 11033 571.465 23
-3 0 -2 35389 1044.28 23
-3 0 -3 117346 1943.98 23
-3 0 -4 48977.5 1307.1 23
-3 0 -5 118.811 74.6113 23
-3 0 -6 3953.74 411.812 23
-3 0 -7 297.84 124.372 23
-3 0 -8 13914.1 842.652 23
-3 0 -9 356.649 148.85 23
-3 0 -9 397.792 183.131 9
-3 0 -10 59.6347 95.0557 6
-3 0 -10 104.44 115.218 9
-3 0 -10 -32.7578 80.2769 23
-3 0 -11 9513.75 765.78 23
-3 0 -11 10540.7 996.904 9
-3 0 -11 9088.79 650.476 6
-3 0 -12 767.557 203.808 6
-3 0 -12 771.55 281.202 9
-3 0 -13 501.786 168.021 6
-3 0 -13 836.977 268.694 9
-3 0 -14 815.614 208.137 6
-3 0 -14 1200.73 324.048 9
-3 0 -15 -127.829 94.5711 6
-3 0 -16 180.491 100.07 6
-3 0 -17 119.777 59.729 6
-3 -1 14 308.783 100.519 17
-3 -1 13 620.486 163.704 17
-3 -1 12 171.571 120.449 17
-3 -1 11 7183.25 638.757 17
-3 -1 10 3582.81 468.535 17
-3 -1 9 511.102 191.101 17
3 1 -8 67.9183 92.1637 18
-3 -1 8 172.608 153.681 17
3 1 -7 2030.78 337.693 18
-3 -1 7 2067.03 354.824 17
3 1 -6 4163.32 454.058 18
3 1 -5 1003.95 211.546 18
-3 -1 3 59599.5 1412.8 1
-3 -1 2 4696.08 371.463 1
-3 -1 1 19588.9 719.941 1
-3 -1 1 18592.2 774.02 23
-3 -1 0 48359 1200.18 23
-3 -1 -1 580.482 179.637 23
-3 -1 -2 480.845 118.878 23
-3 -1 -3 18065.2 724.708 23
-3 -1 -4 58614.7 1351.28 23
-3 -1 -5 9284 557.672 23
-3 -1 -6 4056.45 383.389 23
-3 -1 -7 117.865 69.5614 23
-3 -1 -8 2304.94 315.557 23
-3 -1 -9 16912.7 882.781 23
-3 -1 -10 16471.3 1132.21 9
-3 -1 -11 28258.4 1584.39 9
-3 -1 -11 22979.8 1017.47 6
-3 -1 -12 112.891 107.672 6
-3 -1 -12 104.979 89.4605 9
-3 -1 -13 2510.48 367.191 6
-3 -1 -14 646.03 187.135 6
-3 -1 -15 2928.87 374.15 6
-3 -1 -16 -40.4314 74.1405 6
-3 -1 -17 113.09 78.9887 6
-3 -2 13 -13.4739 59.7344 17
-3 -2 12 195.582 122.907 17
-3 -2 11 133.153 124.488 17
-3 -2 10 1274.15 284.859 17
-3 -2 9 1099.03 274.821 17
3 2 -8 -168.681 106.205 18
-3 -2 8 -2.06369 86.4942 17
3 2 -7 1926.71 322.309 18
-3 -2 7 1846.24 346.612 17
3 2 -6 65.4525 84.9327 18
-3 -2 6 74.7582 87.1749 17
3 2 -5 3757.04 428.707 18
-3 -2 4 17234.9 871.233 1
-3 -2 3 12549 708.358 1
-3 -2 2 167.885 96.3115 1
-3 -2 1 4343.89 389.421 1
-3 -2 0 6423.11 452.822 1
-3 -2 0 6441.79 457.15 23
-3 -2 -1 284.746 104.196 23
-3 -2 -1 366.735 110.402 1
-3 -2 -2 410.819 117.938 23
-3 -2 -2 456.682 112.222 1
-3 -2 -3 49721.4 1171.37 23
-3 -2 -3 50305.2 1238.75 1
-3 -2 -4 40365.9 1061.9 23
-3 -2 -4 40702.8 1139.71 1
-3 -2 -5 4560.84 401.756 1
-3 -2 -5 3269.5 305.096 23
-3 -2 -6 1726.44 261.086 1
-3 -2 -6 1428.45 213.457 23
-3 -2 -7 643.235 179.341 1
-3 -2 -8 4814.78 476.504 1
-3 -2 -9 1383.58 263.067 1
-3 -2 -10 16442.4 923.709 7
-3 -2 -11 423.176 169.692 7
-3 -2 -12 138.86 101.017 6
-3 -2 -12 265.031 126.389 7
-3 -2 -13 356.614 116.734 6
-3 -2 -13 401.217 151.807 7
-3 -2 -14 3475.21 428.126 7
-3 -2 -14 2526.46 357.501 6
-3 -2 -15 1385.69 256.226 6
-3 -2 -15 1770.77 285.665 7
-3 -2 -16 332.445 133.522 6
-3 -2 -17 5.57162 60.5544 6
-3 -3 12 1248.49 208.737 17
-3 -3 11 1431.57 261.71 17
-3 -3 10 196.346 124.237 17
-3 -3 9 547.351 204.98 17
-3 -3 8 405.843 158.288 17
3 3 -7 445.608 159.744 18
-3 -3 7 223.928 144.445 17
-3 -3 7 265.07 129.695 12
3 3 -6 -221.597 113.42 18
-3 -3 6 58.3881 77.1968 12
3 3 -5 415.225 135.971 18
-3 -3 5 658.919 195.802 1
-3 -3 5 549.458 170.145 12
-3 -3 4 97.5358 88.8156 1
-3 -3 3 1926.48 312.847 1
-3 -3 2 -45.2695 69.3775 1
-3 -3 1 157.363 96.3508 1
-3 -3 0 197.57 100.953 1
-3 -3 -1 7350.36 526.631 1
-3 -3 -2 1252.92 222.092 1
-3 -3 -2 804.199 164.217 23
-3 -3 -3 167.282 100.287 1
-3 -3 -4 2170.69 293.403 1
-3 -3 -5 -182.162 97.6745 1
-3 -3 -6 20414.4 944.712 1
-3 -3 -7 14572.1 827.56 1
-3 -3 -8 3697.18 437.033 1
-3 -3 -9 94.5976 96.7492 1
-3 -3 -10 12649 813.709 3
-3 -3 -10 11275.7 816.748 1
-3 -3 -10 11799.2 804.553 7
-3 -3 -11 62113 1778.65 3
-3 -3 -11 65503.3 2018.14 1
-3 -3 -11 65474.5 1939.52 7
-3 -3 -12 35644.7 1446.75 7
-3 -3 -12 31052.5 1267.11 6
-3 -3 -13 12182.9 845.254 7
-3 -3 -13 10626.9 749.981 6
-3 -3 -14 14010.2 886.853 7
-3 -3 -14 11821.1 776.905 6
-3 -3 -15 430.498 150.54 6
-3 -3 -15 583.799 179.548 7
-3 -3 -16 0.09258 53.9373 7
-3 -3 -17 261.871 94.5053 7
-3 -3 -17 102.955 90.6621 14
-3 -4 11 588.504 146.257 17
-3 -4 10 1668.91 270.697 17
-3 -4 9 1409.99 281.946 17
-3 -4 8 -79.5897 121.03 17
-3 -4 7 381.814 167.702 17
-3 -4 7 210.066 108.434 12
-3 -4 6 128.119 114.792 12
-3 -4 5 652.133 191.734 12
3 4 -4 3093.59 386.503 18
-3 -4 4 3512.16 427.466 12
-3 -4 4 3542.12 460.33 1
-3 -4 3 5605.63 571.046 1
-3 -4 3 6297.4 558.866 12
-3 -4 2 2266.98 349.999 1
-3 -4 1 355.26 149.836 1
-3 -4 0 622.451 172.219 1
-3 -4 -1 59.4988 62.6048 1
-3 -4 -2 9542.11 647.658 1
-3 -4 -3 10180.7 676.467 1
-3 -4 -4 4265.87 445.526 1
-3 -4 -5 1147.65 242.805 1
-3 -4 -6 16792.2 906.804 1
-3 -4 -7 1434.97 278.159 1
-3 -4 -8 4065.02 476.954 7
-3 -4 -8 4140.23 489.382 1
-3 -4 -9 8705.51 699.849 3
-3 -4 -9 8278.21 698.455 7
-3 -4 -9 9230.59 744.65 1
-3 -4 -10 786.272 207.986 3
-3 -4 -10 939.496 244.389 7
-3 -4 -10 723.911 228.072 1
-3 -4 -10 1251.47 389.413 14
-3 -4 -11 701.619 205.096 3
-3 -4 -11 883.246 251.061 1
-3 -4 -11 850.249 234.984 7
-3 -4 -11 1526.13 418.859 14
-3 -4 -12 1236.5 279.576 7
-3 -4 -12 1233.95 370.128 14
-3 -4 -13 4889.79 548.086 7
-3 -4 -13 7266.92 846.603 14
-3 -4 -14 627.695 187.271 7
-3 -4 -14 1073.91 312.626 14
-3 -4 -15 298.429 142.619 7
-3 -4 -15 527.694 220.06 14
-3 -4 -16 523.341 159.915 7
-3 -4 -16 400.426 158.347 14
-3 -4 -17 51.0162 66.457 7
-3 -5 10 163.743 86.2498 17
-3 -5 9 241.802 118.709 17
-3 -5 8 857.665 221.387 17
-3 -5 7 144.376 97.7658 17
-3 -5 7 29.0405 66.7719 12
-3 -5 6 916.589 230.263 12
-3 -5 5 240.694 119.58 12
-3 -5 4 940.635 234.432 12
-3 -5 3 5583.24 546.043 12
-3 -5 3 4716.84 538.796 1
-3 -5 2 2987.36 419.115 1
-3 -5 2 2682.14 373.238 12
-3 -5 1 94.971 90.3685 1
-3 -5 1 -78.4438 88.2606 12
-3 -5 0 -17.4461 80.6878 1
-3 -5 0 -23.5535 69.5734 12
-3 -5 -1 1181.1 235.7 12
-3 -5 -1 1182.71 267.104 1
-3 -5 -2 79.7382 82.5798 1
-3 -5 -2 54.6881 85.5426 12
-3 -5 -3 623.15 181.678 1
-3 -5 -4 2735.97 380.169 1
-3 -5 -5 5138.11 548.348 3
-3 -5 -5 3961.89 458.356 1
-3 -5 -6 7731.87 669.664 3
-3 -5 -6 6542.79 614.841 7
-3 -5 -6 6873.02 617.179 1
-3 -5 -6 8015.69 870.069 14
-3 -5 -7 -20.6248 68.3485 1
-3 -5 -7 47.8938 74.2018 7
-3 -5 -7 62.5412 114.429 14
-3 -5 -8 733.934 215.088 3
-3 -5 -8 632.507 196.853 1
-3 -5 -8 930.847 243.88 7
-3 -5 -8 966.442 313.662 14
-3 -5 -9 -173.419 139.909 3
-3 -5 -9 119.481 108.39 1
-3 -5 -9 31.9418 84.4175 7
-3 -5 -9 -164.342 159.622 14
-3 -5 -10 10024.1 771.186 3
-3 -5 -10 9964.25 803.077 7
-3 -5 -10 10345.9 831.643 1
-3 -5 -11 5453.79 604.367 7
-3 -5 -11 8541.65 895.189 14
-3 -5 -12 7277.52 689.644 7
-3 -5 -12 10215.2 966.636 14
-3 -5 -13 209.496 138.079 7
-3 -5 -13 301.055 183.625 14
-3 -5 -14 2159.36 352.071 7
-3 -5 -15 516.353 166.363 7
-3 -5 -16 1483.97 253.956 7
-3 -5 -17 1467.82 226.507 7
-3 -6 8 651.416 148.941 17
-3 -6 7 -28.3261 90.3849 17
-3 -6 6 452.93 173.923 17
-3 -6 6 406.122 142.595 12
-3 -6 5 2.54038 81.8729 12
-3 -6 4 1115.79 243.545 12
-3 -6 3 6346.19 582.364 12
-3 -6 2 14199.4 861.546 12
-3 -6 1 22526.6 1090.07 12
-3 -6 0 5532.36 578.746 1
-3 -6 0 9243.73 696.382 12
-3 -6 -1 428.532 165.581 1
-3 -6 -1 194.549 111.06 12
-3 -6 -2 1012.72 229.349 1
-3 -6 -2 1145.38 253.408 12
-3 -6 -3 472.354 168.978 12
-3 -6 -3 462.476 177.046 1
-3 -6 -4 68.5065 77.4718 1
-3 -6 -4 168.917 113.595 12
-3 -6 -5 -303.092 136.532 1
-3 -6 -5 7.86966 76.1539 12
-3 -6 -6 41.9713 76.4003 12
-3 -6 -6 -55.0453 81.4008 1
-3 -6 -7 565.87 193.984 1
-3 -6 -8 284.725 143.353 1
-3 -6 -8 159.469 134.701 7
-3 -6 -9 269.093 134.218 7
-3 -6 -10 69.4073 92.9909 7
-3 -6 -11 1671.13 330.026 7
-3 -6 -12 843.873 221.358 7
-3 -6 -13 6.6904 111.492 7
-3 -6 -14 38.9926 66.1016 7
-3 -6 -15 -94.4877 83.1152 7
-3 -6 -16 290.957 106.712 7
-3 -6 -17 483.285 120.213 7
-3 -7 6 522.451 141.023 17
-3 -7 5 76.0102 90.2015 17
-3 -7 4 302.057 121.091 12
-3 -7 3 480.349 163.006 12
-3 -7 2 1642.3 285.977 12
-3 -7 1 6480.63 572.25 12
-3 -7 0 4200.17 465.399 12
-3 -7 -1 0.53825 77.0374 12
-3 -7 -2 74.5927 87.4088 12
-3 -7 -3 7.54591 86.3781 12
-3 -7 -4 96.5895 95.1729 12
-3 -7 -5 1067.61 239.645 12
-3 -7 -6 5230.91 530.61 12
-3 -7 -7 6441.8 583.463 12
-3 -7 -8 543.174 179.31 12
-3 -7 -9 1846.86 308.514 12
-3 -7 -10 170.354 109.451 12
-3 -7 -10 19.9255 58.9063 15
-3 -7 -11 369.523 134.686 12
-3 -7 -11 714.806 194.489 15
-3 -7 -12 -167.386 95.2593 12
-3 -7 -12 19.1553 66.7988 7
-3 -7 -12 10.8368 49.186 15
-3 -7 -13 218.089 96.4188 12
-3 -7 -13 356.482 152.909 7
-3 -7 -14 61.2591 61.7067 12
-3 -7 -14 472.961 147.03 7
-3 -8 4 250.187 93.3691 17
-3 -8 3 143.752 84.7098 12
-3 -8 2 677.217 156.706 15
-3 -8 2 453.091 133.888 12
-3 -8 1 161.418 101.857 15
-3 -8 1 163.101 88.794 12
-3 -8 0 2531.16 318.218 15
-3 -8 0 2149.72 305.925 12
-3 -8 -1 2173.47 298.219 15
-3 -8 -1 2667.61 341.335 12
-3 -8 -2 -74.0359 81.6461 15
-3 -8 -2 86.9192 94.1245 12
-3 -8 -3 -9.68031 75.2256 15
-3 -8 -3 22.9506 65.2438 12
-3 -8 -4 36.5151 65.8621 15
-3 -8 -4 142.686 89.7987 12
-3 -8 -5 -13.6015 75.1767 15
-3 -8 -5 -85.8316 76.6784 12
-3 -8 -6 474.882 151.62 12
-3 -8 -6 517.042 155.549 15
-3 -8 -7 330.753 130.425 15
-3 -8 -7 226.569 108.437 12
-3 -8 -8 -48.915 66.4811 15
-3 -8 -8 53.2838 61.0714 12
-3 -8 -9 -28.9024 59.3576 15
-3 -8 -9 85.1222 74.3335 12
-3 -8 -10 94.2552 71.2838 15
-3 -8 -11 1835.82 271.785 15
-3 -8 -12 3936.23 366.486 15
-3 -8 -13 1036.78 172.793 15
-3 -9 0 -34.8566 49.8091 15
-3 -9 0 -78.5795 59.5411 12
-3 -9 -1 210.496 78.4722 15
-3 -9 -1 248.528 91.879 12
-3 -9 -2 143.408 75.97 15
-3 -9 -3 31.8447 60.185 15
-3 -9 -4 99.0139 72.208 15
-3 -9 -5 203.714 95.4808 15
-3 -9 -6 183.03 82.226 15
-3 -9 -7 2650.93 301.64 15
-3 -9 -8 2792.7 304.322 15
-3 -9 -9 81.6152 73.2483 15
-3 -9 -10 148.477 75.2701 15
-3 -9 -11 299.467 97.1838 15
-4 7 8 624.78 158.603 11
-4 7 7 727.397 183.024 11
-4 7 6 55.6998 69.626 11
-4 7 5 5964.67 553.506 11
-4 7 4 5107.03 519.561 11
-4 7 1 917.037 173.433 13
-4 7 0 872.255 168.194 13
-4 7 -1 687.445 149.171 13
-4 7 -2 912.485 168.196 13
-4 7 -3 -10.8122 46.1152 13
-4 7 -4 348.974 105.425 13
-4 6 10 96.9598 70.963 11
-4 6 9 65.3586 93.7537 11
-4 6 8 330.488 150.88 11
-4 6 7 88.0767 85.6954 11
-4 6 6 29.9437 72.3325 11
-4 6 5 1250.68 305.65 11
-4 6 4 1769.11 363.186 11
-4 6 3 952.032 288.982 11
-4 6 3 526.936 152.479 5
-4 6 2 1070.69 284.884 11
-4 6 2 1058.08 216.157 5
-4 6 1 2396.32 418.311 11
-4 6 1 3165.11 376.62 5
-4 6 1 2703 327.265 13
-4 6 0 6550.03 519.831 13
-4 6 -1 4186.81 416.962 13
-4 6 -2 778.789 183.897 13
-4 6 -3 2532.51 317.105 13
-4 6 -4 94.61 77.0503 13
-4 6 -5 277.959 113.677 13
-4 6 -6 120.647 72.6273 13
-4 6 -7 169.352 79.6834 13
-4 5 11 4151.58 378.995 11
-4 5 10 464.883 149.406 11
-4 5 9 -75.2717 84.6269 11
-4 5 9 128.803 75.0003 5
-4 5 8 31.6189 75.486 11
-4 5 8 73.2454 69.961 5
-4 5 7 2085.46 386.993 11
-4 5 7 1399.75 249.844 5
-4 5 6 10224.6 891.811 11
-4 5 6 6180.48 541.347 5
-4 5 5 2376.2 447.755 11
-4 5 5 2009.74 330.411 5
-4 5 4 3321.11 418.336 5
-4 5 4 3998.51 570.381 11
-4 5 3 9653.51 902.67 11
-4 5 3 9417.1 706.738 5
-4 5 2 4765.99 636.643 11
-4 5 2 4254.02 480.154 5
-4 5 1 701.769 264.97 11
-4 5 1 1014.77 243.331 5
-4 5 1 554.004 153.299 13
-4 5 0 947.683 283.165 11
-4 5 0 1308.73 270.704 5
-4 5 0 798.588 196.466 13
-4 5 -1 443.072 154.924 5
-4 5 -1 523.104 155.025 13
-4 5 -2 875.251 223.46 5
-4 5 -2 652.269 172.188 13
-4 5 -3 5501 512.675 13
-4 5 -4 4727.79 466.662 13
-4 5 -5 297.589 135.811 13
-4 5 -6 199.301 107.239 13
-4 5 -7 -57.2276 61.5341 13
-4 5 -8 79.1897 72.9489 13
-4 4 11 341.697 105.354 5
-4 4 10 -160.493 102.119 11
-4 4 10 56.288 63.3109 5
-4 4 9 201.143 129.08 11
-4 4 9 189.483 81.7212 5
-4 4 8 6189.77 666.766 11
-4 4 8 4853.75 490.482 5
-4 4 7 7051.79 734.751 11
-4 4 7 5518.83 547.325 5
-4 4 6 71.303 79.0137 11
-4 4 6 101.608 91.831 5
-4 4 5 438.813 197.682 11
-4 4 5 412.722 160.054 5
-4 4 4 29.2845 87.8803 11
-4 4 4 61.4568 80.9988 5
-4 4 3 222.695 160.271 11
-4 4 3 98.1244 73.9564 5
-4 4 2 745.817 263.57 11
-4 4 2 542.285 188.405 5
-4 4 1 914.197 292.051 11
-4 4 1 889.081 234.355 5
-4 4 0 2317.88 462.346 11
-4 4 0 1977.92 340.002 5
-4 4 0 1911.47 299.785 13
-4 4 -1 12411.2 1038.93 11
-4 4 -1 13742.4 866.019 5
-4 4 -1 12071.9 773.042 13
-4 4 -2 3381.72 434.293 5
-4 4 -2 2888.45 382.692 13
-4 4 -3 10143 737.756 5
-4 4 -3 9661.3 698.832 13
-4 4 -4 20972.8 1077.69 5
-4 4 -4 20212.2 1013.62 13
-4 4 -5 5030.86 478.964 8
-4 4 -5 5471.84 523.041 13
-4 4 -6 2085.56 312.294 8
-4 4 -6 2601.87 356.535 13
-4 4 -7 2930.54 365.392 8
-4 4 -7 3420.8 397.432 13
-4 4 -8 257.439 93.1841 8
-4 4 -8 368.584 138.19 13
-4 4 -9 420.108 134.628 8
-4 4 -9 475.388 131.712 13
-4 4 -10 378.332 116.975 8
-4 4 -11 200.336 79.1261 8
-4 3 12 22.1831 44.0931 17
-4 3 12 -65.6707 56.4429 5
-4 3 11 413.779 118.007 17
-4 3 11 261.322 112.326 5
-4 3 10 256.436 108.231 17
-4 3 8 329.84 156.512 11
-4 3 7 655.626 240.415 11
-4 3 7 830.625 223.424 5
-4 3 6 -202.258 138.201 11
-4 3 6 -71.5504 86.9908 5
-4 3 5 5077.29 639.887 11
-4 3 5 4264.91 522.86 5
-4 3 5 5347.35 484.965 16
-4 3 4 8181.74 841.668 11
-4 3 4 8244.38 716.949 5
-4 3 4 8101.48 606.078 16
-4 3 3 1813.1 399.967 11
-4 3 3 2049.15 355.738 5
-4 3 3 2163.44 317.244 16
-4 3 2 1178.94 239.079 23
-4 3 2 881.596 293.876 11
-4 3 2 1079.15 265.942 5
-4 3 2 1128.48 227.747 16
-4 3 1 2408.62 462.923 11
-4 3 1 1959.84 350.076 5
-4 3 1 2593.46 346.445 16
-4 3 1 2317.55 332.489 23
-4 3 0 17862.7 1002.59 5
-4 3 0 17489.5 1214.25 11
-4 3 0 17934.6 898.646 16
-4 3 0 16680 862.568 13
-4 3 0 15235.4 852.946 23
-4 3 -1 67574 2428.51 11
-4 3 -1 67955.3 1934.09 5
-4 3 -1 66546.2 1725.66 16
-4 3 -1 67181.8 1769.49 13
-4 3 -1 63661.9 1758.57 23
-4 3 -2 52852.8 1697.37 5
-4 3 -2 52093.3 1570.41 8
-4 3 -2 52767.6 1613.69 13
-4 3 -2 50781 1596.13 23
-4 3 -3 14344 885.492 5
-4 3 -3 14406.4 839.785 8
-4 3 -3 14678.6 857.64 13
-4 3 -3 15631.1 910.877 23
-4 3 -4 2160.52 346.205 5
-4 3 -4 2149.33 328.017 8
-4 3 -4 1965.66 322.722 13
-4 3 -5 265.051 154.787 5
-4 3 -5 162.008 109.617 8
-4 3 -5 222.351 105.684 13
-4 3 -6 -2.41054 58.6089 8
-4 3 -6 13.5808 77.1792 13
-4 3 -7 1092.79 246.285 8
-4 3 -7 1344.78 266.148 13
-4 3 -8 122.846 102.148 8
-4 3 -8 492.147 163.978 13
-4 3 -9 114.243 94.8455 8
-4 3 -9 -21.1441 64.5015 13
-4 3 -10 2448.08 337.491 8
-4 3 -11 -44.6668 52.5196 8
-4 3 -12 -52.7388 58.7805 8
-4 3 -13 47.8895 54.0551 8
-4 2 13 53.8 59.8465 17
-4 2 13 -26.0858 48.6045 5
-4 2 12 1287 201.031 17
-4 2 11 491.395 150.252 17
-4 2 10 63.6109 77.7899 17
-4 2 9 1652.49 277.391 17
-4 2 8 630.521 181.581 17
-4 2 7 541.471 165.387 16
-4 2 6 345.732 138.751 16
-4 2 5 939.883 283.012 11
-4 2 5 1200.83 240.933 16
-4 2 4 2357.56 445.764 11
-4 2 4 2279.7 328.079 16
-4 2 3 -112.165 89.983 23
-4 2 3 -10.0974 69.2875 11
-4 2 3 15.4125 56.5991 16
-4 2 3 -135.822 104.021 5
-4 2 2 44.7396 56.2999 23
-4 2 2 152.79 146.844 11
-4 2 2 109.727 111.122 5
-4 2 2 153.337 116.495 16
-4 2 1 2550.79 460.138 11
-4 2 1 2458.02 378.854 5
-4 2 1 2096.48 309.994 16
-4 2 1 2359.32 301.594 2
-4 2 1 2083.2 318.084 23
-4 2 0 403.341 145.136 23
-4 2 0 562.143 225.615 11
-4 2 0 332.05 138.741 5
-4 2 0 774.92 196.925 16
-4 2 0 229.334 86.3944 2
-4 2 -1 4024.76 576.648 11
-4 2 -1 3720.31 447.205 5
-4 2 -1 4404.45 442.265 16
-4 2 -1 3889.74 417.027 13
-4 2 -1 3557.77 410.784 23
-4 2 -2 18721.3 988.169 5
-4 2 -2 19594.2 910.626 16
-4 2 -2 19018.2 957.362 8
-4 2 -2 19289.2 941.949 13
-4 2 -2 19605.7 978.038 23
-4 2 -3 6217.51 583.727 5
-4 2 -3 6160.07 553.451 8
-4 2 -3 6152.44 560.952 23
-4 2 -3 6301.27 549.778 13
-4 2 -4 29.4201 65.2182 23
-4 2 -4 62.6091 86.5454 5
-4 2 -4 68.6588 64.8419 8
-4 2 -4 95.9858 97.5004 13
-4 2 -5 423.122 180.861 5
-4 2 -5 763.907 214.759 23
-4 2 -5 505.636 156.023 8
-4 2 -5 637.855 199.127 13
-4 2 -6 4291.59 494.104 5
-4 2 -6 4171.63 475.525 8
-4 2 -6 4499.47 485.549 13
-4 2 -6 4613.78 522.997 23
-4 2 -7 227.767 112.999 8
-4 2 -7 317.775 148.341 13
-4 2 -8 14787.6 907.138 8
-4 2 -8 16800.3 914.207 13
-4 2 -9 3479.58 435.21 8
-4 2 -9 4151.64 449.65 13
-4 2 -10 114.518 95.7359 8
-4 2 -11 203.43 107.344 8
-4 2 -12 6.05588 53.9983 8
-4 2 -13 147.517 86.4975 8
-4 2 -14 29.6285 39.6549 8
-4 1 13 324.162 91.4542 17
-4 1 12 194.515 100.818 17
-4 1 11 41.1065 71.1154 17
-4 1 10 287.881 122.186 17
-4 1 9 3962.69 441.222 17
-4 1 8 5716.97 541.494 17
-4 1 7 -142.803 106.51 17
-4 1 7 -0.97255 73.0492 16
-4 1 6 3557.66 385.03 16
4 -1 -5 4600.66 472.331 18
-4 1 5 4285.44 426.433 16
4 -1 -4 21.8977 72.3671 18
-4 1 4 91.3442 78.9626 16
4 -1 -3 60.3977 96.259 18
-4 1 3 281.38 123.34 16
-4 1 2 9472.35 847.23 11
4 -1 -2 9287.66 626.645 18
-4 1 2 8866.8 709.437 5
-4 1 2 10126.3 630.435 2
-4 1 2 9606.73 641.096 16
-4 1 2 9844.13 693.972 23
-4 1 1 46.1041 70.9684 23
-4 1 1 282.446 156.715 11
-4 1 1 -9.99692 84.0073 5
-4 1 1 -68.7933 77.7972 16
-4 1 1 -305.848 127.812 2
-4 1 0 5115.1 485.262 23
-4 1 0 4644.08 493.922 5
-4 1 0 5315.67 479.259 16
-4 1 -1 1800.64 297.643 23
-4 1 -2 33733.3 1294.75 5
-4 1 -2 35061.2 1268.95 23
-4 1 -2 34144.3 1278.93 8
-4 1 -3 28660.4 1192.18 5
-4 1 -3 28654.6 1176.98 8
-4 1 -3 29910.8 1161.33 13
-4 1 -3 28731 1163.65 23
-4 1 -4 4400.16 472.157 5
-4 1 -4 4513.84 480.52 23
-4 1 -4 4612.43 476.645 8
-4 1 -4 4694.29 479.571 13
-4 1 -5 152.97 108.25 23
-4 1 -5 141.883 122.26 5
-4 1 -5 140.256 74.8779 8
-4 1 -5 314.416 147.606 13
-4 1 -6 60.2111 79.7111 23
-4 1 -6 63.6957 93.4219 5
-4 1 -6 -14.3021 60.4682 8
-4 1 -6 167.505 132.813 13
-4 1 -7 7299.31 629.485 8
-4 1 -7 7871.4 630.393 13
-4 1 -7 8055.55 684.48 23
-4 1 -8 743.754 206.198 8
-4 1 -8 796.211 227.609 13
-4 1 -9 6156.98 591.178 8
-4 1 -9 6520.33 568.835 13
-4 1 -10 2100.55 339.001 8
-4 1 -11 557.508 173.462 8
-4 1 -12 389.014 142.556 8
-4 1 -13 8.55495 54.3986 8
-4 1 -14 15.2408 53.9574 8
-4 1 -15 80.6439 49.401 8
-4 1 -15 100.963 103.22 14
-4 0 13 2673.36 247.947 17
-4 0 12 1200.98 198.95 17
-4 0 11 1045.71 214.051 17
-4 0 10 2341.34 330.295 17
-4 0 9 2347.01 348.158 17
-4 0 8 679.283 209.451 17
-4 0 7 197.781 122.418 17
-4 0 6 632.293 187.767 17
-4 0 6 350.833 124.403 16
4 0 -5 661.679 193.943 18
-4 0 5 866.072 214.951 17
-4 0 5 610.48 165.475 16
4 0 -4 5521.38 531.652 18
-4 0 4 6018.89 503.026 16
4 0 -3 2633.63 357.652 18
-4 0 3 2018.85 300.077 2
-4 0 3 2282.34 322.589 16
-4 0 2 11565.4 684.346 2
-4 0 2 10460.7 671.55 16
-4 0 2 11343 745.146 23
-4 0 1 822.72 217.658 23
-4 0 1 770.679 185.591 16
-4 0 0 56.903 82.977 23
-4 0 -1 254.854 101.415 23
-4 0 -2 9921.89 659.052 23
-4 0 -3 14116.8 794.175 23
-4 0 -4 77.8516 89.1966 23
-4 0 -4 -82.0211 80.9533 8
-4 0 -5 1669.75 283.939 23
-4 0 -5 1847.34 303.579 8
-4 0 -5 1922.27 306.796 13
-4 0 -6 7915.67 634.861 8
-4 0 -6 7847.01 619.687 13
-4 0 -6 7778.88 626.897 23
-4 0 -7 12278.5 801.789 8
-4 0 -7 12540.1 788.093 13
-4 0 -7 13203.8 842.326 23
-4 0 -8 1342.69 283.909 23
-4 0 -8 1021.47 235.863 8
-4 0 -9 16741.4 963.741 8
-4 0 -10 15412 919.828 8
-4 0 -11 881.774 212.317 8
-4 0 -12 1649.39 287.76 8
-4 0 -13 2411.49 329.608 8
-4 0 -14 604.492 155.79 8
-4 0 -15 938.402 163.454 8
-4 -1 12 1243.94 190.442 17
-4 -1 11 4436.44 406.328 17
-4 -1 10 6243.16 530.555 17
-4 -1 9 1403.07 283.767 17
-4 -1 8 3241.11 424.762 17
-4 -1 7 5917.88 576.954 17
-4 -1 6 685.285 214.782 17
4 1 -5 376.458 154.756 18
-4 -1 5 432.867 158.437 17
4 1 -4 878.189 216.852 18
-4 -1 4 1060.09 242.112 17
-4 -1 4 704.956 175.503 16
-4 -1 3 20528.9 928.678 16
-4 -1 2 267.156 127.563 16
-4 -1 2 450.304 185.066 2
-4 -1 1 8548.35 599.008 2
-4 -1 1 8680.15 612.686 16
-4 -1 1 8340.39 625.835 23
-4 -1 0 555.066 164.659 23
-4 -1 -1 4034.33 423.678 23
-4 -1 -2 755.227 196.932 23
-4 -1 -3 195.859 100.997 23
-4 -1 -4 105.449 88.3242 23
-4 -1 -5 5364.22 504.364 8
-4 -1 -5 5190.79 464.521 2
-4 -1 -5 5458.06 493.127 23
-4 -1 -6 24923.5 1103.39 8
-4 -1 -6 25647.5 1045.34 2
-4 -1 -6 25539.6 1074.12 23
-4 -1 -7 249.618 122.215 23
-4 -1 -7 191.653 113.042 8
-4 -1 -7 2.93932 137.504 14
-4 -1 -7 68.4021 77.2717 2
-4 -1 -8 3655.3 438.265 8
-4 -1 -8 3772.34 411.065 2
-4 -1 -8 3547.25 419.224 23
-4 -1 -9 961.718 232.737 8
-4 -1 -10 1247.46 269.904 8
-4 -1 -11 136.925 98.4113 8
-4 -1 -12 163.232 112.472 3
-4 -1 -12 382.496 128.712 8
-4 -1 -13 446.239 139.647 8
-4 -1 -14 168.353 80.7507 8
-4 -1 -15 39.666 131.687 14
-4 -1 -16 44.8513 138.452 14
-4 -2 11 263.725 106.104 17
-4 -2 10 42.7758 77.2991 17
-4 -2 9 351.487 158.993 17
-4 -2 8 1758.57 319.074 17
-4 -2 7 220.124 134.112 17
-4 -2 6 956.296 241.279 17
-4 -2 5 1337.61 300.978 17
4 2 -4 4289.35 510.725 18
-4 -2 4 6085.67 592.08 17
-4 -2 3 8447.65 675.467 17
-4 -2 3 5729.5 498.111 16
-4 -2 2 -1.63289 107.197 16
-4 -2 1 3324.44 398.083 2
-4 -2 1 3380.37 388.186 16
-4 -2 0 34.7302 109.42 2
-4 -2 -1 17061.4 858.123 2
-4 -2 -1 17146.3 872.555 23
-4 -2 -2 18430.6 894.797 23
-4 -2 -3 6147.13 517.018 23
-4 -2 -4 170.948 105.955 23
-4 -2 -5 5505.76 485.532 2
-4 -2 -5 5910.83 699.625 14
-4 -2 -5 4958.38 452.337 23
-4 -2 -6 3916.57 405.841 2
-4 -2 -6 4112.43 439.674 8
-4 -2 -6 3408.94 560.783 14
-4 -2 -7 906.296 215.478 8
-4 -2 -7 735.116 279.481 14
-4 -2 -8 19.6879 57.2586 8
-4 -2 -8 -33.6 84.1993 7
-4 -2 -8 64.0151 194.81 14
-4 -2 -9 1371.16 245.302 8
-4 -2 -9 1192.57 269.144 7
-4 -2 -9 891.083 337.646 14
-4 -2 -10 12590.7 852.511 3
-4 -2 -10 11753.3 754.091 8
-4 -2 -11 548.384 192.226 3
-4 -2 -12 1535.49 292.222 3
-4 -2 -13 -17.6585 196.183 14
-4 -2 -14 54.2879 135.749 14
-4 -2 -15 -10.8937 105.581 14
-4 -2 -16 -62.6621 110.731 14
-4 -3 11 27.3671 43.8644 17
-4 -3 10 172.172 101.673 17
-4 -3 9 1621.96 271.861 17
-4 -3 8 600.84 197.251 17
-4 -3 7 160.132 99.5509 17
-4 -3 6 2763.82 408.53 17
-4 -3 5 927.362 257.381 17
-4 -3 4 284.813 150.697 17
-4 -3 4 201.41 131.688 12
-4 -3 3 5626.87 502.006 16
-4 -3 3 7939.83 615.633 12
-4 -3 2 13134.5 754.661 16
-4 -3 2 15156.9 833.469 12
-4 -3 2 13630.4 844.392 1
-4 -3 1 3430.81 414.073 1
-4 -3 1 3254.94 387.926 12
-4 -3 0 1477.33 266.537 12
-4 -3 -1 179.877 143.098 2
-4 -3 -1 87.9681 89.251 12
-4 -3 -2 597.65 203.038 2
-4 -3 -2 164.637 75.7475 12
-4 -3 -3 9623.25 664.94 2
-4 -3 -3 9014.34 637.686 12
-4 -3 -4 8361.73 733.36 3
-4 -3 -4 6118.32 536.612 2
-4 -3 -4 8016.9 864.186 14
-4 -3 -5 2148.59 368.828 3
-4 -3 -5 1779.04 300.412 2
-4 -3 -5 1918.76 445.476 14
-4 -3 -6 1045.32 259.427 3
-4 -3 -6 1061.95 331.337 14
-4 -3 -7 3262.18 442.958 3
-4 -3 -7 3165.84 539.389 14
-4 -3 -8 1686.57 354.308 3
-4 -3 -8 1258.32 276.521 7
-4 -3 -8 1374.88 411.457 14
-4 -3 -9 5096.76 561.592 3
-4 -3 -9 4883.54 550.549 7
-4 -3 -9 5571.5 759.379 14
-4 -3 -10 7595.3 672.534 3
-4 -3 -10 8340.11 715.41 7
-4 -3 -10 8100.88 919.269 14
-4 -3 -11 4467.93 506.181 3
-4 -3 -11 4439.98 517.609 7
-4 -3 -11 3835.9 654.255 14
-4 -3 -12 56.686 108.176 3
-4 -3 -12 21.3286 73.7585 7
-4 -3 -12 10.304 192.984 14
-4 -3 -13 698.078 191.983 3
-4 -3 -13 1835.49 310.909 7
-4 -3 -13 1404.64 473.807 14
-4 -3 -14 2195.9 314.396 7
-4 -3 -14 1347.54 359.846 14
-4 -3 -15 16.3707 53.0487 7
-4 -3 -15 62.7311 105.679 14
-4 -3 -16 109.12 111.548 14
-4 -4 9 66.0566 57.7292 17
-4 -4 8 52.2265 80.9056 17
-4 -4 7 -28.2856 102.123 17
-4 -4 6 571.029 190.348 17
-4 -4 6 426.396 142.394 12
-4 -4 5 143.282 110.446 17
-4 -4 5 59.9281 86.6773 12
-4 -4 4 1123 247.386 12
-4 -4 3 2793.61 374.744 12
-4 -4 2 2231.51 341.496 12
-4 -4 1 546.519 185.372 1
-4 -4 1 330.285 132.646 12
-4 -4 0 520.711 176.703 1
-4 -4 0 734.088 196.835 12
-4 -4 -1 2094.16 322.775 12
-4 -4 -1 1621.19 310.757 1
-4 -4 -2 6059.84 565.277 1
-4 -4 -2 5802.49 534.472 12
-4 -4 -3 3501.81 463.8 3
-4 -4 -3 2309.6 366.789 1
-4 -4 -3 2625.24 369.231 12
-4 -4 -4 2044.63 338.608 1
-4 -4 -4 2115.35 339.371 12
-4 -4 -5 1745.9 296.185 12
-4 -4 -5 1622.67 305.734 1
-4 -4 -6 578.379 236.596 3
-4 -4 -6 529.417 136.684 1
-4 -4 -6 598 263.657 14
-4 -4 -7 114.719 156.149 3
-4 -4 -7 131.441 148.611 14
-4 -4 -7 177.614 107.824 1
-4 -4 -8 574.845 233.463 3
-4 -4 -8 903.843 308.5 14
-4 -4 -9 2878.63 434.147 3
-4 -4 -9 2983.11 436.835 7
-4 -4 -10 4291.58 512.659 3
-4 -4 -10 5494.35 597.637 7
-4 -4 -11 2700.71 402.925 3
-4 -4 -11 3202.22 445.004 7
-4 -4 -11 3698.49 608.559 14
-4 -4 -12 3394.23 430.133 3
-4 -4 -12 4273.15 491.273 7
-4 -4 -12 4691.4 658.371 14
-4 -4 -13 421.084 170.898 3
-4 -4 -13 442.137 165.838 7
-4 -4 -13 532.219 213.13 14
-4 -4 -14 426.291 149.471 7
-4 -4 -14 561.366 249.835 14
-4 -4 -15 272.876 121.352 7
-4 -4 -15 292.381 148.2 14
-4 -4 -16 190.014 117.048 14
-4 -5 8 -63.762 59.4884 17
-4 -5 7 -108.496 96.0868 17
-4 -5 6 -54.4699 107.254 17
-4 -5 5 85.8855 111.646 17
-4 -5 5 112.878 70.3299 12
-4 -5 4 90.4073 95.2369 12
-4 -5 3 137.394 108.354 12
-4 -5 2 1111.32 243.583 12
-4 -5 1 89.3835 94.2939 12
-4 -5 0 3584.2 431.859 12
-4 -5 -1 2834.13 386.863 12
-4 -5 -2 919.969 230.242 12
-4 -5 -3 372.51 162.974 12
-4 -5 -4 1071.01 249.375 12
-4 -5 -5 4614.94 535.331 3
-4 -5 -5 3711.57 453.63 12
-4 -5 -6 920.879 237.768 12
-4 -5 -6 872.316 264.514 3
-4 -5 -7 236.971 122.115 12
-4 -5 -7 404.327 195.059 3
-4 -5 -8 -20.866 131.139 3
-4 -5 -9 1635 323.482 3
-4 -5 -9 3035.19 546.055 14
-4 -5 -10 3409.1 460.439 3
-4 -5 -10 6979.24 809.891 14
-4 -5 -11 43283.9 1967.91 14
-4 -5 -12 20867.6 1105.19 7
-4 -5 -12 31006.6 1616.59 14
-4 -5 -13 6973.62 729.927 14
-4 -5 -14 402.333 177.957 14
-4 -5 -15 182.01 120.596 14
-4 -6 6 185.833 91.6026 17
-4 -6 5 746.134 179.371 17
-4 -6 5 466.81 127.382 12
-4 -6 4 736.105 190.731 17
-4 -6 4 464.344 151.231 12
-4 -6 3 118.809 106.56 12
-4 -6 2 -50.4435 100.028 12
-4 -6 1 79.7812 78.4627 12
-4 -6 0 2707.84 364.557 12
-4 -6 -1 488.976 166.417 12
-4 -6 -2 262.63 124.911 12
-4 -6 -3 -17.5617 73.251 12
-4 -6 -4 1145.87 255.47 12
-4 -6 -5 1449.81 292.868 12
-4 -6 -6 144.11 104.884 12
-4 -6 -7 777.091 211.768 12
-4 -6 -8 3733.85 456.083 12
-4 -6 -9 356.77 160.717 12
-4 -6 -10 195.485 121.636 12
-4 -6 -11 3206.64 403.647 12
-4 -6 -14 111.626 60.8068 12
-4 -6 -15 11.717 45.3391 12
-4 -7 4 508.35 132.876 17
-4 -7 3 318.273 131.005 17
-4 -7 3 120.396 70.7115 12
-4 -7 2 196.576 96.7662 12
-4 -7 1 1279.65 233.977 12
-4 -7 0 204.248 121.564 12
-4 -7 -1 2044.08 304.138 12
-4 -7 -2 840.211 209.079 12
-4 -7 -3 4.60058 71.4078 12
-4 -7 -4 1007.59 218.377 12
-4 -7 -5 501.255 168.333 12
-4 -7 -6 105.201 99.2846 12
-4 -7 -7 271.044 122.191 12
-4 -7 -8 171.782 101.919 12
-4 -7 -9 106.295 97.1311 12
-4 -7 -10 22.5271 75.6718 12
-4 -7 -11 84.6278 75.2235 12
-4 -7 -12 179.628 83.605 12
-4 -7 -13 328.087 93.1428 12
-4 -8 2 2262.85 239.045 17
-4 -8 1 125.814 72.5278 12
-4 -8 0 72.2324 55.9531 12
-4 -8 -1 370.828 125.373 12
-4 -8 -2 65.5208 81.122 12
-4 -8 -3 16.4048 68.9639 12
-4 -8 -4 21.0794 59.5427 12
-4 -8 -5 40.566 63.6604 12
-4 -8 -6 718.254 161.6 12
-4 -8 -7 130.834 84.8831 12
-4 -8 -8 898.323 175.384 12
-4 -8 -9 426.99 118.652 12
-4 -8 -10 -54.8961 55.4434 12
-4 -8 -11 -12.6028 37.9243 12
-5 5 6 885.987 148.459 5
-5 5 5 1338.83 194.308 5
-5 5 4 445.564 114.219 5
-5 5 3 -48.0902 64.9688 5
-5 5 2 564.93 142.197 5
-5 5 1 1890.22 265.021 5
-5 5 0 4793.93 428.013 5
-5 5 -1 2000.84 245.424 13
-5 5 -2 41.6692 53.2814 13
-5 5 -3 74.4565 56.2241 13
-5 5 -4 445.044 108.817 2
-5 5 -4 484.249 123.158 13
-5 5 -5 1726.56 192.976 2
-5 5 -5 1829.88 219.424 13
-5 4 8 224.714 77.0154 5
-5 4 7 103.537 65.8114 5
-5 4 6 79.1827 62.9191 5
-5 4 5 673.813 172.457 5
-5 4 4 1158.26 221.341 5
-5 4 3 1398.24 253.803 5
-5 4 2 1263.52 243.813 5
-5 4 1 2114.26 314.908 5
-5 4 0 1711.37 293.042 5
-5 4 -1 435.659 162.407 5
-5 4 -1 366.238 126.061 13
-5 4 -2 71.8845 88.3256 5
-5 4 -2 92.4639 63.0071 2
-5 4 -2 73.7129 67.4082 13
-5 4 -3 157.392 89.4233 2
-5 4 -3 243.116 107.973 13
-5 4 -4 189.906 85.9677 2
-5 4 -4 199.578 89.9102 13
-5 4 -5 208.998 94.667 2
-5 4 -5 305.11 124.53 13
-5 4 -6 1314.91 195.142 2
-5 4 -6 1427.68 220.288 13
-5 4 -7 -27.3288 60.4174 2
-5 4 -8 542.746 115.612 2
-5 3 9 8.5797 40.6887 5
-5 3 8 1712.15 238.514 5
-5 3 7 4081.26 400.561 5
-5 3 6 432.717 147.819 5
-5 3 5 1020.51 225.934 5
-5 3 4 1435.34 269.731 5
-5 3 3 435.634 154.631 5
-5 3 2 862.171 217.046 5
-5 3 2 1244.92 238.376 16
-5 3 1 2285.43 354.505 5
-5 3 1 2371.16 319.881 16
-5 3 0 134.914 120.172 5
-5 3 0 403.653 144.425 16
-5 3 0 305.816 130.211 2
-5 3 -1 2523.13 363.059 5
-5 3 -1 2309.82 307.337 16
-5 3 -1 2002.2 281.729 2
-5 3 -1 1761.22 264.815 13
-5 3 -2 4361.86 468.568 5
-5 3 -2 3324.41 370.944 2
-5 3 -2 3373.46 375.202 13
-5 3 -3 295.158 151.915 5
-5 3 -3 376.055 143.914 2
-5 3 -3 445.216 150.463 13
-5 3 -4 74.6188 88.5389 5
-5 3 -4 -198.007 103.527 2
-5 3 -4 -5.24019 71.101 13
-5 3 -5 369.328 142.105 13
-5 3 -5 164.999 80.1694 2
-5 3 -6 101.555 91.5425 13
-5 3 -6 -66.6856 99.0903 2
-5 3 -7 202.672 86.4929 2
-5 3 -8 194.358 80.2635 2
-5 3 -9 191.268 76.2925 2
-5 3 -10 38.4203 46.7643 2
-5 2 9 106.447 71.23 5
-5 2 8 487.904 138.897 5
-5 2 7 652.834 175.744 5
-5 2 6 217.013 103.592 5
-5 2 5 -4.39826 57.8637 5
-5 2 5 43.9992 105.975 16
-5 2 4 205.818 104.291 5
-5 2 4 446.561 146.709 16
-5 2 3 141.822 114.791 5
-5 2 3 112.445 95.7822 16
-5 2 2 72.2669 114.065 5
-5 2 2 -15.1279 89.7309 16
-5 2 1 1876.5 321.613 5
-5 2 1 1954.69 288.958 2
-5 2 1 1851.32 297.923 16
-5 2 0 6487.92 595.179 5
-5 2 0 6358.7 533.696 16
-5 2 0 5757.15 486.078 2
-5 2 -1 2366.94 370.077 5
-5 2 -1 2794.25 353.192 16
-5 2 -1 2515.66 329.656 2
-5 2 -2 1314.92 267.131 5
-5 2 -2 1300.51 235.944 16
-5 2 -2 1238.4 241.643 2
-5 2 -2 1414.89 258.64 13
-5 2 -3 4161.68 462.416 5
-5 2 -3 4040.28 419.29 2
-5 2 -3 3786.73 413.937 13
-5 2 -4 9759.44 703.562 5
-5 2 -4 8222.2 599.969 2
-5 2 -4 8764.6 636.62 13
-5 2 -5 13040.7 801.936 5
-5 2 -5 11323.4 698.938 2
-5 2 -5 12012.2 743.384 13
-5 2 -6 783.397 194.283 2
-5 2 -7 301.1 144.586 8
-5 2 -7 96.9676 63.3874 2
-5 2 -8 56.2532 85.5658 8
-5 2 -8 -46.3485 83.0323 2
-5 2 -9 208.809 112.785 8
-5 2 -9 114.21 63.327 2
-5 2 -10 380.545 122.817 8
-5 2 -10 304.911 99.3453 2
-5 2 -11 235.629 95.3544 8
-5 2 -11 139.777 65.7067 2
-5 1 10 117.235 62.9835 5
-5 1 9 -18.7143 45.5793 5
-5 1 8 66.0293 68.1721 5
-5 1 7 612.206 171.716 5
-5 1 6 1892.68 305.023 5
-5 1 6 1902.22 264.636 16
-5 1 5 163.239 102.756 5
-5 1 5 256.508 110.197 16
-5 1 4 -28.1621 67.2038 5
-5 1 4 -93.2846 83.9486 16
-5 1 3 116.663 99.3266 5
-5 1 3 154.667 98.6904 16
-5 1 2 -28.8446 60.2451 5
-5 1 2 87.4256 91.2754 16
-5 1 2 93.7642 84.9538 2
-5 1 1 7060.28 622.241 5
-5 1 1 7283.89 567.063 2
-5 1 1 8071.48 607.31 16
-5 1 0 26483.7 1193.73 5
-5 1 0 26300.6 1066.5 2
-5 1 0 28032.9 1139.2 16
-5 1 -1 25755.2 1161.03 5
-5 1 -1 26662.4 1107.11 16
-5 1 -1 26688 1094.26 2
-5 1 -2 11400.7 770.829 5
-5 1 -2 11221.8 719.324 16
-5 1 -2 11393.2 729.64 2
-5 1 -3 4088.35 461.085 5
-5 1 -3 4348.84 443.823 16
-5 1 -3 4172.32 446.718 2
-5 1 -4 3009.87 385.802 5
-5 1 -4 2654.36 357.51 2
-5 1 -5 45.8156 73.828 5
-5 1 -5 46.0184 77.1232 2
-5 1 -6 424.288 148.735 2
-5 1 -7 -18.7311 75.7319 8
-5 1 -7 34.1366 60.6545 2
-5 1 -8 2411.21 344.748 8
-5 1 -8 2194.61 303.467 2
-5 1 -9 1188.57 233.843 8
-5 1 -9 1153.57 210.981 2
-5 1 -10 3.48189 63.904 8
-5 1 -10 -141.309 82.5739 2
-5 1 -11 104.243 73.372 8
-5 1 -11 5.11037 56.883 2
-5 1 -12 385.615 121.642 3
-5 1 -12 568.647 134.877 8
-5 0 9 62.7581 62.0204 17
-5 0 9 5.00175 36.2745 5
-5 0 8 -17.0077 48.1982 5
-5 0 7 -37.7068 56.9531 5
-5 0 6 142.082 99.9383 16
-5 0 6 96.2406 80.5221 5
-5 0 5 -17.5835 62.1301 5
-5 0 5 -72.5296 89.701 16
-5 0 4 748.485 197.645 5
-5 0 4 1005.31 207.022 16
-5 0 3 248.375 122.894 5
-5 0 3 458.714 164.842 16
-5 0 2 -43.1836 72.694 5
-5 0 2 53.4146 70.48 16
-5 0 2 -7.40151 116.446 2
-5 0 1 81.792 75.4135 5
-5 0 1 149.411 96.8003 16
-5 0 1 -11.8238 121.371 2
-5 0 0 1552.82 287.986 5
-5 0 0 1794.61 297.433 16
-5 0 0 1196.93 268.066 2
-5 0 -1 5076.64 502.78 5
-5 0 -1 4730.58 477.771 2
-5 0 -1 5206.65 501.979 16
-5 0 -2 5401.32 514.475 5
-5 0 -2 5974.26 538.911 2
-5 0 -2 5068.87 493.07 16
-5 0 -3 6569.78 556.447 16
-5 0 -3 6173.83 545.616 2
-5 0 -4 3533.71 404.109 16
-5 0 -4 3881.25 431.414 2
-5 0 -5 439.652 152.61 2
-5 0 -6 2388.6 339.013 2
-5 0 -7 401.612 153.943 8
-5 0 -7 318.747 127.537 2
-5 0 -8 638.347 185.456 8
-5 0 -8 705.862 176.98 2
-5 0 -9 2490.94 347.349 8
-5 0 -9 2209.19 295.125 2
-5 0 -10 2014.04 262.245 2
-5 0 -10 2449.27 329.734 8
-5 0 -11 46.979 96.859 3
-5 0 -11 85.8121 87.2727 8
-5 0 -12 1234.31 216.61 3
-5 0 -12 1152.04 195.507 8
-5 -1 9 407.084 104.951 17
-5 -1 9 182.696 69.6192 5
-5 -1 8 83.2317 64.2782 17
-5 -1 8 20.0327 39.4814 5
-5 -1 7 14.8929 66.8011 17
-5 -1 7 3.61262 40.5652 5
-5 -1 6 16.8832 49.0638 5
-5 -1 5 234.867 97.5691 16
-5 -1 5 528.987 165.177 5
-5 -1 4 1983.94 284.873 16
-5 -1 4 1138.27 231.252 5
-5 -1 3 93.3079 80.6396 5
-5 -1 3 109.73 99.7023 16
-5 -1 2 1717.26 281.222 16
-5 -1 1 863.16 216.839 16
-5 -1 1 774.249 211.473 2
-5 -1 0 4010.81 437.851 2
-5 -1 0 4976.83 490.23 16
-5 -1 -1 12221.9 765.9 2
-5 -1 -1 14894.8 847.489 16
-5 -1 -2 6155.76 556.564 2
-5 -1 -2 4835.2 490.908 16
-5 -1 -3 3022.12 401.046 2
-5 -1 -3 374.99 158.69 16
-5 -1 -4 1989.02 326.955 2
-5 -1 -4 1753.83 297.609 16
-5 -1 -5 4204.56 440.04 16
-5 -1 -5 4928.53 477.573 2
-5 -1 -6 328.434 153.14 2
-5 -1 -7 669.171 183.229 2
-5 -1 -7 42.7994 133.576 14
-5 -1 -8 370.176 147.542 2
-5 -1 -8 28.9826 148.355 14
-5 -1 -9 175.98 80.9299 2
-5 -1 -9 116.381 166.175 14
-5 -1 -10 -112.194 115.865 3
-5 -1 -10 -1.96461 122.187 14
-5 -1 -11 958.453 217.141 3
-5 -1 -11 240.038 167.284 14
-5 -1 -12 662.829 177.628 3
-5 -1 -12 146.218 157.061 14
-5 -1 -13 63.3328 71.5466 3
-5 -1 -13 66.1759 102.844 14
-5 -2 8 230.902 88.3769 17
-5 -2 7 511.443 142.449 17
-5 -2 6 54.8293 77.3365 17
-5 -2 5 594.338 168.861 17
-5 -2 4 45.8931 51.7091 16
-5 -2 3 -1.53647 83.9146 16
-5 -2 2 -112.828 88.5902 16
-5 -2 1 1457.49 265.495 16
-5 -2 0 1313.15 261.014 16
-5 -2 -1 589.795 181.923 16
-5 -2 -1 599.9 184.867 2
-5 -2 -2 -251.763 137.708 16
-5 -2 -2 162.24 135.009 2
-5 -2 -3 -306.769 146.251 16
-5 -2 -3 -110.776 108.5 2
-5 -2 -4 4806.82 524.786 3
-5 -2 -4 4177.18 449.27 2
-5 -2 -4 4003.26 446.963 16
-5 -2 -5 4446.94 526.302 3
-5 -2 -5 3848.08 432.117 2
-5 -2 -5 3549.58 411.486 16
-5 -2 -6 176.573 162.454 3
-5 -2 -6 1.92255 88.7697 16
-5 -2 -6 105.207 110.841 2
-5 -2 -7 744.954 242.495 3
-5 -2 -7 683.594 181.251 2
-5 -2 -7 153.37 117.902 14
-5 -2 -8 1263.9 288.027 3
-5 -2 -8 866.818 195.545 2
-5 -2 -9 1517.69 303.479 3
-5 -2 -9 493.934 244.53 14
-5 -2 -10 4313.06 477.973 3
-5 -2 -10 1374.45 383.204 14
-5 -2 -11 5804.47 524.453 3
-5 -2 -11 1057.94 329.936 14
-5 -2 -12 834.156 201.12 3
-5 -2 -12 265.424 201.535 14
-5 -2 -13 -71.5818 112.093 3
-5 -2 -13 -49.823 88.8224 14
-5 -2 -14 22.0632 79.4165 14
-5 -3 7 17.2099 46.3947 17
-5 -3 6 496.612 137.116 17
-5 -3 5 1697.21 263.131 17
-5 -3 4 457.487 156.415 17
-5 -3 3 276.293 137.856 17
-5 -3 3 188.73 99.725 16
-5 -3 2 15.8615 69.5452 16
-5 -3 1 3145.55 372.823 16
-5 -3 0 464.736 161.24 16
-5 -3 -1 1404.27 268.944 16
-5 -3 -2 1322.48 261.465 16
-5 -3 -3 765.473 209.58 16
-5 -3 -4 5130.57 526.347 3
-5 -3 -4 4406.73 467.942 2
-5 -3 -4 4892.96 497.824 16
-5 -3 -5 1651.22 332.929 3
-5 -3 -5 1526.56 285.312 2
-5 -3 -5 1432.47 270.586 16
-5 -3 -6 170.006 163.391 3
-5 -3 -6 147.773 95.8992 16
-5 -3 -6 379.3 159.906 2
-5 -3 -6 54.7489 71.8525 12
-5 -3 -7 40.361 66.7577 12
-5 -3 -7 171.632 154.429 3
-5 -3 -7 188.907 110.555 16
-5 -3 -7 396.743 135.918 2
-5 -3 -8 197.887 106.328 12
-5 -3 -8 229.549 140.613 3
-5 -3 -8 -8.43688 149.944 14
-5 -3 -9 1000.57 243.588 3
-5 -3 -9 1260.9 345.367 14
-5 -3 -10 1038.99 250.529 3
-5 -3 -10 1281.08 351.497 14
-5 -3 -11 -60.6012 106.925 3
-5 -3 -11 122.76 168.639 14
-5 -3 -12 -98.8368 113.78 3
-5 -3 -12 52.901 133.968 14
-5 -3 -13 29.0954 89.1835 3
-5 -3 -13 193.584 137.68 14
-5 -3 -14 51.652 73.1305 14
-5 -4 6 686.892 145.865 17
-5 -4 5 627.833 156.424 17
-5 -4 4 121.177 88.7478 17
-5 -4 3 -13.5407 71.724 17
-5 -4 2 283.207 122.327 17
-5 -4 2 141.669 83.6054 16
-5 -4 1 35.2449 62.6605 16
-5 -4 1 -1.18192 75.6891 12
-5 -4 0 -1.90483 67.2765 16
-5 -4 0 -59.1107 71.8913 12
-5 -4 -1 921.721 208.968 16
-5 -4 -1 591.701 158.546 12
-5 -4 -2 1906.76 305.813 16
-5 -4 -2 1819.19 280.963 12
-5 -4 -3 2397.15 326.674 12
-5 -4 -4 1084.34 248.155 3
-5 -4 -4 1254.5 243.4 12
-5 -4 -5 559.513 199.56 3
-5 -4 -5 206.419 119.537 12
-5 -4 -6 73.497 120.88 3
-5 -4 -6 230.447 126.518 12
-5 -4 -7 440.906 177.391 3
-5 -4 -7 276.882 125.363 12
-5 -4 -8 977.817 216.865 12
-5 -4 -8 867.427 236.268 3
-5 -4 -8 1217.96 224.509 16
-5 -4 -9 0.3608 67.8831 12
-5 -4 -9 -83.7463 86.5584 3
-5 -4 -10 237.895 95.569 12
-5 -4 -10 201.117 124.566 3
-5 -4 -11 213.007 95.3304 12
-5 -4 -11 209.728 110.716 3
-5 -4 -12 52.7594 70.0119 12
-5 -4 -13 613.873 136.894 12
-5 -5 5 330.461 101.062 17
-5 -5 4 1420.8 211.255 17
-5 -5 3 545.552 144.795 17
-5 -5 3 516.434 119.535 12
-5 -5 2 -22.1605 80.7351 17
-5 -5 2 39.2887 56.068 12
-5 -5 1 93.3313 63.5094 16
-5 -5 1 148.065 78.5786 12
-5 -5 0 227.784 117.847 17
-5 -5 0 100.983 76.4555 16
-5 -5 0 139.198 83.2816 12
-5 -5 -1 705.118 174.604 16
-5 -5 -1 504.781 153.656 12
-5 -5 -2 2302.29 307.06 16
-5 -5 -2 2056.96 289.637 12
-5 -5 -3 706.133 185.679 12
-5 -5 -4 104.81 119.127 12
-5 -5 -5 81.5302 81.7826 12
-5 -5 -6 124.858 100.359 12
-5 -5 -7 37.8574 94.8472 12
-5 -5 -8 3367.11 377.838 12
-5 -5 -9 3219.01 360.986 12
-5 -5 -10 84.1762 88.2806 12
-5 -5 -11 45.3172 69.893 12
-5 -5 -12 -14.2624 46.9831 12
-5 -5 -13 43.0369 47.603 12
-5 -6 2 213.069 90.8466 17
-5 -6 2 228.552 83.4434 12
-5 -6 1 86.5729 56.184 17
-5 -6 1 126.769 81.6594 12
-5 -6 0 -104.974 82.0461 17
-5 -6 0 -90.201 60.0027 16
-5 -6 0 0.96876 53.9669 12
-5 -6 -1 -64.8291 59.862 16
-5 -6 -1 28.091 61.1114 12
-5 -6 -2 657.815 160.878 16
-5 -6 -2 649.99 155.275 12
-5 -6 -3 1673.1 249.774 12
-5 -6 -4 750.429 188.975 12
-5 -6 -5 222.374 116.793 12
-5 -6 -6 260.813 111.771 12
-5 -6 -7 -9.98062 65.0294 12
-5 -6 -8 1006.33 192.392 12
-5 -6 -9 334.547 122.418 12
-5 -6 -10 3.40339 46.1445 16
-5 -6 -10 21.4686 51.0073 12
-5 -6 -11 36.5471 64.0303 12
-5 -6 -12 69.9773 39.4524 12
-5 -7 -1 26.1694 50.9806 12
-5 -7 -2 104.48 59.4371 16
-5 -7 -2 188.706 75.1516 12
-5 -7 -3 251.15 87.9395 16
-5 -7 -3 336.75 102.595 12
-5 -7 -4 16.8347 46.7742 12
-5 -7 -5 63.7194 63.9722 12
-5 -7 -6 -23.1078 48.3997 12
-5 -7 -7 681.045 139.981 12
-5 -7 -8 149.426 96.6912 12
-5 -7 -9 2538.35 256.478 12
-6 3 2 757.539 139.681 5
-6 3 1 3092.18 278.109 5
-6 3 0 2754.61 270.627 5
-6 2 3 531.637 119.588 5
-6 2 2 327.685 97.1693 5
-6 2 1 145.412 74.8247 5
-6 2 0 333.685 108.122 5
-6 2 -1 106.64 74.7359 5
-6 2 -1 124.7 84.2837 2
-6 2 -2 285.711 101.849 5
-6 2 -2 254.273 103.104 2
-6 2 -3 307.643 98.2541 2
-6 2 -4 -7.96715 51.8512 2
-6 2 -5 476.976 116.49 2
-6 2 -6 194.278 79.6774 2
-6 1 4 62.5493 47.9289 5
-6 1 3 212.74 82.377 5
-6 1 2 718.648 148.206 5
-6 1 2 899.958 160.171 16
-6 1 1 -61.5784 73.239 5
-6 1 1 -87.938 70.1705 16
-6 1 0 669.871 145.153 5
-6 1 0 984.351 177.601 16
-6 1 -1 553.979 136.207 5
-6 1 -1 492.347 127.723 16
-6 1 -1 494.262 143.739 2
-6 1 -2 190.9 94.8662 5
-6 1 -2 140.503 80.6725 16
-6 1 -2 263.87 121.36 2
-6 1 -3 23.7514 52.0591 16
-6 1 -3 54.1832 61.4231 2
-6 1 -4 119.992 85.2982 3
-6 1 -4 -35.5831 71.5089 2
-6 1 -5 23.1422 72.1827 3
-6 1 -5 23.1658 57.6793 2
-6 1 -6 218.842 97.4808 3
-6 1 -6 88.5804 74.0916 2
-6 1 -7 46.6935 94.1989 3
-6 1 -7 98.3362 74.9222 2
-6 1 -8 668.708 147.591 3
-6 0 4 -32.6518 44.6606 16
-6 0 3 73.2371 51.9634 5
-6 0 3 34.4216 46.7277 16
-6 0 2 812.663 155.082 16
-6 0 1 1202.16 192.091 16
-6 0 0 1345.42 208.627 16
-6 0 -1 108.203 88.4871 16
-6 0 -2 671.044 154.682 16
-6 0 -2 763.157 185.44 2
-6 0 -3 3852.17 368.317 2
-6 0 -3 3658.85 335.109 16
-6 0 -4 3865.17 366.653 2
-6 0 -4 3120.3 293.489 16
-6 0 -5 1319.06 236.318 3
-6 0 -5 878.701 180.297 2
-6 0 -6 347.564 137.347 3
-6 0 -6 56.0381 77.8156 2
-6 0 -7 204.881 109.177 3
-6 0 -7 112.145 62.0651 2
-6 0 -8 251.737 117.791 3
-6 0 -8 75.2308 68.6216 2
-6 0 -9 209.254 86.0419 3
-6 -1 3 -6.94161 41.6119 16
-6 -1 2 1062.19 171.826 16
-6 -1 1 3881.01 338.703 16
-6 -1 0 4211.82 365.144 16
-6 -1 -1 4191.85 374.798 16
-6 -1 -2 3850.3 357.437 16
-6 -1 -3 2037.15 290.308 2
-6 -1 -3 1040.8 192.771 16
-6 -1 -4 175.597 85.8627 16
-6 -1 -4 911.296 198.936 2
-6 -1 -5 -4.38897 110.503 3
-6 -1 -5 63.3474 53.0667 16
-6 -1 -5 105.84 88.3361 2
-6 -1 -6 358.222 140.147 3
-6 -1 -6 415.034 127.607 2
-6 -1 -7 89.7205 89.2806 3
-6 -1 -7 198.848 92.3848 2
-6 -1 -8 83.0161 80.1918 3
-6 -1 -8 232.967 99.3394 2
-6 -1 -9 20.8207 67.1914 3
-6 -2 3 33.7376 49.2627 16
-6 -2 2 -11.5733 46.4199 16
-6 -2 1 351.709 105.258 16
-6 -2 0 2238.06 258.781 16
-6 -2 -1 3816.95 347.713 16
-6 -2 -2 3111.23 319.905 16
-6 -2 -3 732.365 157.751 16
-6 -2 -4 182.164 88.4431 16
-6 -2 -5 235.013 119.874 3
-6 -2 -5 -39.5601 59.9871 16
-6 -2 -6 -125.681 107.117 3
-6 -2 -6 -7.56534 58.7854 16
-6 -2 -7 290.871 134.754 3
-6 -2 -8 1265.95 214.709 3
-6 -2 -9 843.739 177.063 3
-6 -2 -10 -119.992 90.4051 3
-6 -3 1 243.741 85.0187 16
-6 -3 0 714.159 139.184 16
-6 -3 -1 590.514 141.949 16
-6 -3 -2 1310.57 206.204 16
-6 -3 -3 1161.25 193.399 16
-6 -3 -4 233.363 94.9896 16
-6 -3 -5 93.733 69.0689 16
-6 -3 -6 90.8244 83.5829 3
-6 -3 -6 37.5495 53.9086 16
-6 -3 -7 282.046 118.689 3
-6 -3 -8 20.733 69.9908 3
-6 -3 -9 -78.3811 96.1109 3
-6 -4 0 -5.8633 43.6968 16
-6 -4 -1 75.9958 53.7347 16
-6 -4 -2 330.489 96.5293 16
-6 -4 -3 771.054 150.183 16
-6 -4 -4 163.574 88.6113 16
-6 -4 -5 59.2911 53.2083 16
-6 -4 -6 115.212 67.7414 16
-6 -4 -7 201.442 81.079 16
-6 -5 -3 38.1656 51.3388 16
-6 -5 -4 86.6168 56.6575 16
-6 -5 -5 244.655 85.5529 16
