#------------------------------------------------------------------------------
#$Date: 2019-11-11 19:40:25 +0200 (Mon, 11 Nov 2019) $
#$Revision: 227113 $
#$URL: file:///home/coder/svn-repositories/cod/cif/4/03/56/4035665.cif $
#------------------------------------------------------------------------------
#
# This file is available in the Crystallography Open Database (COD),
# http://www.crystallography.net/
#
# All data on this site have been placed in the public domain by the
# contributors.
#
data_4035665
loop_
_publ_author_name
'Levterov, Vadym V.'
'Michurin, Oleg'
'Borysko, Petro O.'
'Zozulya, Sergey'
'Sadkova, Iryna V.'
'Tolmachev, Andrey A.'
'Mykhailiuk, Pavel K.'
_publ_section_title
;
 Photochemical In-Flow Synthesis of 2,4-Methanopyrrolidines: Pyrrolidine
 Analogues with Improved Water Solubility and Reduced Lipophilicity.
;
_journal_issue                   23
_journal_name_full               'The Journal of organic chemistry'
_journal_page_first              14350
_journal_page_last               14361
_journal_paper_doi               10.1021/acs.joc.8b02071
_journal_volume                  83
_journal_year                    2018
_chemical_formula_moiety         'C6 H10 F2 N, Cl'
_chemical_formula_sum            'C6 H10 Cl F2 N'
_chemical_formula_weight         169.60
_space_group_crystal_system      monoclinic
_space_group_IT_number           14
_space_group_name_Hall           '-P 2ybc'
_space_group_name_H-M_alt        'P 1 21/c 1'
_atom_sites_solution_hydrogens   mixed
_audit_creation_method           SHELXL-2016/4
_cell_angle_alpha                90
_cell_angle_beta                 102.906(6)
_cell_angle_gamma                90
_cell_formula_units_Z            4
_cell_length_a                   7.0766(13)
_cell_length_b                   7.9156(14)
_cell_length_c                   14.040(3)
_cell_measurement_reflns_used    639
_cell_measurement_temperature    173(2)
_cell_measurement_theta_max      26.23
_cell_measurement_theta_min      2.97
_cell_volume                     766.6(3)
_computing_cell_refinement       'Bruker SMART'
_computing_data_collection       'Bruker SMART'
_computing_data_reduction        'Bruker SAINT'
_computing_molecular_graphics    'Bruker SHELXTL'
_computing_publication_material  'Bruker SHELXTL'
_computing_structure_refinement  'SHELXL-2016/4 (Sheldrick, 2016)'
_computing_structure_solution    'Bruker SHELXTL'
_diffrn_ambient_temperature      173(2)
_diffrn_measured_fraction_theta_full 1.000
_diffrn_measured_fraction_theta_max 0.999
_diffrn_measurement_device_type  'CCD area detector'
_diffrn_measurement_method       'omega scans'
_diffrn_radiation_monochromator  graphite
_diffrn_radiation_source         'sealed tube'
_diffrn_radiation_type           MoK\a
_diffrn_radiation_wavelength     0.71073
_diffrn_reflns_av_R_equivalents  0.0325
_diffrn_reflns_av_unetI/netI     0.0229
_diffrn_reflns_Laue_measured_fraction_full 1.000
_diffrn_reflns_Laue_measured_fraction_max 0.999
_diffrn_reflns_limit_h_max       8
_diffrn_reflns_limit_h_min       -8
_diffrn_reflns_limit_k_max       9
_diffrn_reflns_limit_k_min       -9
_diffrn_reflns_limit_l_max       17
_diffrn_reflns_limit_l_min       -17
_diffrn_reflns_number            8901
_diffrn_reflns_point_group_measured_fraction_full 1.000
_diffrn_reflns_point_group_measured_fraction_max 0.999
_diffrn_reflns_theta_full        25.242
_diffrn_reflns_theta_max         26.612
_diffrn_reflns_theta_min         2.953
_exptl_absorpt_coefficient_mu    0.457
_exptl_absorpt_correction_T_max  0.93
_exptl_absorpt_correction_T_min  0.76
_exptl_absorpt_correction_type   multi-scan
_exptl_absorpt_process_details   SADABS
_exptl_crystal_colour            colourless
_exptl_crystal_density_diffrn    1.469
_exptl_crystal_description       block
_exptl_crystal_F_000             352
_exptl_crystal_size_max          0.370
_exptl_crystal_size_mid          0.270
_exptl_crystal_size_min          0.160
_refine_diff_density_max         0.288
_refine_diff_density_min         -0.184
_refine_diff_density_rms         0.043
_refine_ls_extinction_method     none
_refine_ls_goodness_of_fit_ref   1.041
_refine_ls_hydrogen_treatment    mixed
_refine_ls_matrix_type           full
_refine_ls_number_parameters     99
_refine_ls_number_reflns         1606
_refine_ls_number_restraints     0
_refine_ls_restrained_S_all      1.041
_refine_ls_R_factor_all          0.0374
_refine_ls_R_factor_gt           0.0294
_refine_ls_shift/su_max          0.000
_refine_ls_shift/su_mean         0.000
_refine_ls_structure_factor_coef Fsqd
_refine_ls_weighting_details
'w=1/[\s^2^(Fo^2^)+(0.0299P)^2^+0.3365P] where P=(Fo^2^+2Fc^2^)/3'
_refine_ls_weighting_scheme      calc
_refine_ls_wR_factor_gt          0.0687
_refine_ls_wR_factor_ref         0.0737
_reflns_Friedel_coverage         0.000
_reflns_number_gt                1348
_reflns_number_total             1606
_reflns_threshold_expression     'I > 2\s(I)'
_cod_data_source_file            jo8b02071_si_002.cif
_cod_data_source_block           xray82
_cod_original_cell_volume        766.6(2)
_cod_original_sg_symbol_H-M      'P 21/c'
_cod_database_code               4035665
_shelx_shelxl_version_number     2016/4
_shelx_space_group_comment
;
The symmetry employed for this shelxl refinement is uniquely defined
by the following loop, which should always be used as a source of
symmetry information in preference to the above space-group names.
They are only intended as comments.
;
_shelx_estimated_absorpt_t_min   0.849
_shelx_estimated_absorpt_t_max   0.930
_shelx_res_file
;
TITL xray82 in P2(1)/c
 xray82.res created by SHELXL-2016/4 at 19:21:53 on 25-Jul-2018
CELL 0.71073   7.0766   7.9156  14.0402  90.000 102.906  90.000
ZERR    4.00   0.0013   0.0014   0.0026   0.000   0.006   0.000
LATT 1
SYMM -X, 0.5+Y, 0.5-Z
SFAC C  H  N  F  Cl
UNIT 24  40  4  8  4
L.S. 4
ACTA
BOND
FMAP 2
PLAN 20
SIZE 0.16 0.27 0.37

FREE C2   C4
TEMP -100
WGHT    0.029900    0.336500
FVAR       0.94849
CL1   5    0.408233    1.200711    0.128527    11.00000    0.04370    0.02362 =
         0.02244   -0.00038    0.00323   -0.00412
F1    4   -0.122547    0.863285    0.159218    11.00000    0.02759    0.07467 =
         0.06119   -0.00884    0.01299    0.00620
F2    4    0.121079    0.858964    0.285070    11.00000    0.05643    0.09347 =
         0.02948   -0.00353    0.01483    0.03266
N1    3    0.394791    0.819552    0.164212    11.00000    0.02420    0.02227 =
         0.02119    0.00170    0.00356   -0.00139
H11   2    0.423634    0.926963    0.155323    11.00000    0.03562
H12   2    0.443167    0.790438    0.229188    11.00000    0.03255
C1    1    0.466012    0.698119    0.096318    11.00000    0.02858    0.03457 =
         0.02532   -0.00079    0.01078    0.00268
AFIX  23
H1A   2    0.536560    0.756989    0.052597    11.00000   -1.20000
H1B   2    0.548634    0.607725    0.132583    11.00000   -1.20000
AFIX   0
C2    1    0.271561    0.631641    0.041523    11.00000    0.03572    0.03199 =
         0.02766   -0.00809    0.00868   -0.00176
AFIX  13
H2    2    0.264755    0.545196   -0.011075    11.00000   -1.20000
AFIX   0
C3    1    0.167456    0.600281    0.125583    11.00000    0.03175    0.02612 =
         0.03641   -0.00176    0.01061   -0.00635
AFIX  23
H3A   2    0.034600    0.553976    0.105143    11.00000   -1.20000
H3B   2    0.245301    0.539381    0.182621    11.00000   -1.20000
AFIX   0
C4    1    0.179219    0.793524    0.132454    11.00000    0.02223    0.02506 =
         0.02355    0.00002    0.00442   -0.00118
C5    1    0.150864    0.796387    0.020579    11.00000    0.02860    0.03690 =
         0.02346   -0.00101    0.00077   -0.00148
AFIX  23
H5A   2    0.215963    0.890822   -0.005475    11.00000   -1.20000
H5B   2    0.015450    0.780913   -0.016341    11.00000   -1.20000
AFIX   0
C6    1    0.068373    0.899852    0.188986    11.00000    0.02731    0.04183 =
         0.03222   -0.00209    0.00697    0.00597
AFIX  13
H6    2    0.091937    1.022544    0.179223    11.00000   -1.20000

AFIX   0
HKLF 4




REM  xray82 in P2(1)/c
REM R1 =  0.0294 for    1348 Fo > 4sig(Fo)  and  0.0374 for all    1606 data
REM     99 parameters refined using      0 restraints

END

WGHT      0.0317      0.3349

REM Highest difference peak  0.288,  deepest hole -0.184,  1-sigma level  0.043
Q1    1   0.1599  0.8107  0.0813  11.00000  0.05    0.29
Q2    1   0.1657  0.7029  0.1402  11.00000  0.05    0.29
Q3    1   0.1231  0.8378  0.1584  11.00000  0.05    0.28
Q4    1   0.5300  1.1739  0.1344  11.00000  0.05    0.26
Q5    1   0.2215  0.7102  0.0205  11.00000  0.05    0.25
Q6    1   0.2613  0.8071  0.1440  11.00000  0.05    0.24
Q7    1   0.2148  0.5947  0.0848  11.00000  0.05    0.20
Q8    1   0.5020  1.2151  0.1963  11.00000  0.05    0.19
Q9    1   0.3660  0.6709  0.0693  11.00000  0.05    0.19
Q10   1   0.4699  1.1818  0.1988  11.00000  0.05    0.19
Q11   1   0.0626  0.6105  0.0945  11.00000  0.05    0.17
Q12   1   0.1954  0.5053  0.1781  11.00000  0.05    0.17
Q13   1   0.4409  0.7576  0.1273  11.00000  0.05    0.16
Q14   1   0.3802  1.0867  0.1007  11.00000  0.05    0.15
Q15   1   0.1629  0.8833  0.0019  11.00000  0.05    0.15
Q16   1   0.2803  0.5868  0.0186  11.00000  0.05    0.14
Q17   1   0.1249  0.9868  0.2188  11.00000  0.05    0.14
Q18   1   0.2254  1.2171  0.0985  11.00000  0.05    0.14
Q19   1   0.3605  1.2266  0.1778  11.00000  0.05    0.13
Q20   1   0.3611  1.1894  0.0777  11.00000  0.05    0.13
;
_shelx_res_checksum              69496
_shelx_hkl_file
;
   1   0   0   -0.02    0.51
  -1   0   0    1.27    0.62
   1   0   0    0.65    0.56
   1   0   0    1.33    0.73
  -1   0   0   -0.38    0.65
  -1   0   0    0.39    0.58
  -2   0   0  364.75   12.31
  -2   0   0  385.71   11.91
  -2   0   0  367.61   12.19
   2   0   0  384.84   11.95
   2   0   0  378.49   12.23
   2   0   0  380.53   12.16
   2   0   0  409.72   12.53
   3   0   0 2945.51   77.59
   3   0   0 2940.76   79.99
  -3   0   0 2950.43   77.23
  -3   0   0 2823.41   77.66
  -3   0   0 3004.68   75.37
  -4   0   0 3115.27   83.56
  -4   0   0 3036.66   82.92
   4   0   0 3085.21   85.61
  -4   0   0 3186.42   80.96
  -5   0   0  136.60    8.07
  -5   0   0  131.03    8.11
   5   0   0  136.89    8.00
  -5   0   0  133.87    8.84
  -6   0   0  185.27   11.07
  -6   0   0  215.92   12.47
  -6   0   0  199.63   11.02
   6   0   0  215.70   11.21
  -7   0   0  283.13   15.76
  -7   0   0  293.69   15.18
   7   0   0  312.70   14.98
  -7   0   0  304.96   15.00
   8   0   0    2.78    3.79
  -8   0   0    4.54    4.24
  -8   0   0    3.05    3.76
  -8   0   0    9.09    4.43
   0  -1   0  -10.71    0.69
   0   1   0  -10.71    0.70
   0   1   0   -9.39    0.77
   0   1   0  -11.57    0.44
   0  -1   0  -10.04    0.74
   0  -1   0  -11.88    0.42
   1  -1   0 2610.34   67.91
   1  -1   0 2679.31   66.70
   1  -1   0 2576.62   65.17
   1   1   0 2656.43   67.05
  -1   1   0 2578.74   66.78
  -1  -1   0 2681.34   65.49
  -1   1   0 2615.12   68.06
  -1  -1   0 2494.13   67.01
  -1  -1   0 2571.09   67.73
   2   1   0 3218.47   84.14
  -2   1   0 3216.11   83.63
   2  -1   0 3246.61   85.18
  -2   1   0 3243.45   82.07
   2   1   0 3317.49   87.19
   2   1   0 3248.53   81.81
   2  -1   0 3249.16   88.14
  -2  -1   0 3242.85   81.77
  -2   1   0 3242.19   85.33
  -2  -1   0 3240.38   84.40
   2  -1   0 3309.76   83.53
  -2  -1   0 3254.17   84.37
   2  -1   0 3262.76   82.02
  -3  -1   0  302.46   10.91
  -3   1   0  323.95   11.42
   3   1   0  309.61   10.85
   3   1   0  313.05   10.56
   3  -1   0  305.47   11.84
  -3  -1   0  317.32   11.00
  -3   1   0  304.96   11.36
  -3  -1   0  313.29   12.19
  -3   1   0  310.02   11.92
   4   1   0   -1.38    1.36
   4  -1   0   -0.19    1.76
  -4  -1   0    0.14    1.68
  -4   1   0    3.83    2.22
  -4   1   0    3.00    2.06
  -4  -1   0   -0.55    2.42
  -4   1   0    1.34    2.19
  -4  -1   0   -1.31    1.52
  -5   1   0   26.47    4.72
   5  -1   0   17.39    3.78
  -5  -1   0   20.82    4.98
  -5  -1   0   19.43    3.71
  -5   1   0   13.18    3.26
   5   1   0   20.57    3.41
  -5  -1   0   20.87    3.84
  -5   1   0   24.89    4.62
  -6   1   0   10.61    3.74
  -6  -1   0   13.47    3.73
  -6  -1   0    7.69    4.31
   6   1   0   13.74    3.60
  -6  -1   0    7.31    3.23
  -6   1   0   17.65    4.48
  -6   1   0   12.14    4.05
   6  -1   0    5.06    3.26
  -7   1   0  254.95   14.31
  -7   1   0  231.77   13.20
   7  -1   0  228.69   13.30
  -7  -1   0  238.25   12.88
  -7  -1   0  237.01   14.67
   7   1   0  228.87   12.10
  -7  -1   0  235.41   12.92
  -7   1   0  227.57   13.41
  -8  -1   0    5.65    4.17
  -8  -1   0   -1.46    4.58
  -8  -1   0    1.81    3.41
  -8   1   0    5.64    4.35
  -8   1   0    2.42    4.29
  -8   1   0    1.88    3.77
   8  -1   0    0.51    3.65
   0  -2   0 9217.11  228.05
   0  -2   0 9610.61  230.30
   0   2   0 8892.14  232.99
   0  -2   0 9614.72  234.80
   0   2   0 9714.43  236.98
   0   2   0 8029.07  227.58
  -1   2   0 2059.79   59.07
  -1  -2   0 2262.66   58.11
  -1   2   0 2197.42   56.37
  -1  -2   0 2291.10   58.16
  -1  -2   0 2225.14   61.17
   1  -2   0 2294.17   56.39
  -1   2   0 2152.24   57.69
   1  -2   0 2164.72   59.09
   1  -2   0 2344.43   57.85
  -1  -2   0 2225.18   58.57
  -2  -2   0  434.50   15.26
   2  -2   0  484.74   15.57
  -2   2   0  453.69   14.15
  -2   2   0  421.16   15.21
  -2   2   0  446.75   14.18
  -2  -2   0  464.04   13.65
  -2  -2   0  449.79   13.60
  -3  -2   0  259.14    9.36
   3   2   0  264.29    8.28
   3  -2   0  251.10   10.93
  -3   2   0  257.87   10.10
   3   2   0  256.96    9.23
  -3  -2   0  246.72   11.12
  -3   2   0  255.55   10.15
  -3   2   0  244.19   10.94
  -3  -2   0  242.71    9.45
  -4   2   0  562.93   19.44
  -4  -2   0  587.18   18.88
  -4   2   0  554.88   19.47
   4   2   0  609.21   17.97
  -4   2   0  578.78   20.95
   4  -2   0  584.30   20.92
  -4  -2   0  539.84   20.81
  -4  -2   0  603.41   18.93
  -5   2   0  365.20   15.44
  -5   2   0  368.12   15.27
  -5  -2   0  372.88   16.82
   5  -2   0  369.78   16.23
   5   2   0  409.08   13.80
  -5  -2   0  377.73   14.69
  -5  -2   0  387.73   14.74
  -5   2   0  363.97   16.42
  -6  -2   0   51.24    5.61
   6  -2   0   46.80    6.54
  -6   2   0   47.91    6.86
  -6   2   0   44.86    5.91
  -6  -2   0   45.34    5.77
   6   2   0   43.63    4.68
  -6   2   0   45.70    6.11
  -6  -2   0   47.30    7.59
  -7   2   0   89.99    8.53
  -7  -2   0   87.04    7.51
  -7   2   0   79.93    9.14
  -7  -2   0   88.02   10.36
  -7   2   0   73.23    8.12
  -7  -2   0  104.24    8.78
   7  -2   0   68.31    8.09
  -8   2   0   -0.30    3.53
  -8   2   0    2.06    3.65
  -8  -2   0   -6.48    4.38
  -8  -2   0    2.87    3.85
   8  -2   0    3.28    3.77
   0   3   0   -1.30    1.23
   0   3   0   -1.12    1.32
   0  -3   0    2.12    1.42
   0  -3   0    1.44    1.05
   0   3   0    4.21    1.24
  -1  -3   0  495.71   15.00
  -1   3   0  516.68   16.96
   1  -3   0  531.94   16.95
  -1  -3   0  513.47   14.72
  -1   3   0  498.43   15.10
   1   3   0  495.74   15.71
  -1   3   0  485.31   15.87
  -1  -3   0  492.37   15.47
  -2   3   0  191.59    8.06
  -2  -3   0  180.12    7.31
   2  -3   0  177.48    8.72
  -2  -3   0  191.68    9.20
  -2  -3   0  198.49    7.49
  -2  -3   0  185.52    7.20
  -2   3   0  174.74    8.86
  -2   3   0  190.65    7.86
   3  -3   0   81.86    6.33
  -3  -3   0   93.00    5.02
  -3   3   0  102.60    7.00
  -3   3   0   90.41    5.79
  -3   3   0   93.92    5.78
  -3  -3   0   93.58    7.11
  -3  -3   0   95.81    5.37
  -4   3   0   -3.23    1.44
  -4  -3   0    1.20    1.92
  -4   3   0    0.67    2.03
  -4  -3   0    1.72    1.93
  -4  -3   0    0.41    3.00
   4   3   0   -2.64    1.11
   4  -3   0   -1.61    2.03
  -4   3   0    1.48    2.55
   5   3   0   46.54    3.77
  -5  -3   0   55.67    5.12
  -5   3   0   57.69    7.13
  -5   3   0   41.70    5.47
  -5   3   0   52.51    5.73
  -5  -3   0   57.46    7.40
   5  -3   0   48.10    6.42
  -5  -3   0   56.17    5.45
   6  -3   0   36.81    6.26
  -6  -3   0   48.70    5.40
  -6  -3   0   42.54    7.48
  -6   3   0   36.12    6.58
  -6   3   0   41.77    5.77
  -6   3   0   41.61    6.14
  -6  -3   0   38.77    5.41
   7  -3   0   31.98    6.50
  -7   3   0   38.59    6.21
  -7  -3   0   39.26    8.26
  -7   3   0   24.46    6.32
  -7  -3   0   45.01    6.41
  -7   3   0   38.44    6.47
  -8   3   0   53.22    9.15
  -8  -3   0   52.46    9.85
  -8   3   0   31.66    6.77
   8  -3   0   37.30    7.40
  -8  -3   0   35.36    6.35
   0   4   0  856.68   26.63
   0  -4   0  874.30   26.04
   0   4   0  856.03   26.35
   0   4   0  869.87   24.09
  -1   4   0 1075.49   29.27
  -1  -4   0 1057.89   29.68
  -1  -4   0 1042.98   30.24
  -1   4   0 1015.82   30.66
  -1  -4   0 1059.48   30.23
   1  -4   0 1053.23   31.86
   1   4   0 1003.93   30.54
  -1   4   0 1055.89   32.00
  -1  -4   0 1039.24   28.07
  -2  -4   0   82.01    4.97
  -2   4   0   86.59    6.49
  -2  -4   0   78.20    6.53
  -2  -4   0   90.84    5.00
   2  -4   0   82.45    6.06
  -2   4   0   82.10    5.30
  -2   4   0   87.26    5.64
  -3  -4   0   74.12    7.26
  -3   4   0   85.24    5.98
  -3  -4   0   91.64    5.62
   3  -4   0   78.81    6.69
  -3   4   0   82.25    6.94
  -3   4   0   79.05    5.75
  -3  -4   0   82.30    5.05
  -3  -4   0   87.00    5.28
  -4   4   0   72.10    5.91
   4  -4   0   55.89    6.42
  -4   4   0   79.44    7.86
  -4  -4   0   61.22    5.14
  -4   4   0   56.21    5.74
  -4  -4   0   77.58    8.19
  -4  -4   0   63.30    4.85
   5  -4   0  244.30   13.65
  -5   4   0  260.69   14.54
  -5   4   0  231.02   11.79
  -5   4   0  245.81   12.70
  -5  -4   0  248.08   11.49
  -5  -4   0  260.47   11.18
  -5  -4   0  282.27   15.33
  -6   4   0    1.87    3.48
  -6  -4   0   -0.08    2.56
   6  -4   0    5.12    3.46
  -6   4   0    1.73    2.76
  -6   4   0    3.84    3.26
  -6  -4   0    4.82    4.76
  -7  -4   0    7.29    3.81
  -7   4   0    9.50    4.19
   7  -4   0    7.87    4.40
  -7  -4   0    4.98    5.48
  -7   4   0    6.98    4.62
   0  -5   0   -2.17    1.38
   0   5   0   -0.63    1.82
   0   5   0   -1.49    1.59
  -1   5   0   29.38    4.58
   1  -5   0   32.01    4.15
  -1  -5   0   29.13    3.02
   1   5   0   35.95    4.40
  -1   5   0   36.68    4.60
  -1   5   0   27.31    3.35
  -2   5   0   74.04    5.57
   2  -5   0   77.75    6.38
  -2  -5   0   81.23    5.30
  -2   5   0   57.91    6.39
  -2  -5   0   87.75    7.91
  -2  -5   0   83.08    4.36
  -2   5   0   79.79    6.21
  -2  -5   0   81.24    3.68
  -3   5   0    2.46    2.25
  -3  -5   0    2.98    3.32
  -3  -5   0   -1.49    1.93
  -3   5   0    0.98    2.59
  -3   5   0    2.40    2.20
  -3  -5   0    0.95    1.78
   3  -5   0    2.35    2.57
   4  -5   0    5.74    3.44
  -4  -5   0   10.86    3.10
  -4  -5   0    8.85    2.76
  -4  -5   0    2.92    3.96
  -4   5   0   13.33    4.35
  -4   5   0   10.95    3.48
  -4   5   0   12.35    3.58
  -5  -5   0    8.78    3.28
  -5   5   0    1.12    3.30
   5  -5   0    3.45    3.20
  -5  -5   0    9.86    3.01
  -5   5   0   11.87    3.66
  -5   5   0    4.35    3.00
  -5  -5   0    6.71    4.62
  -6   5   0    0.67    2.85
  -6   5   0    5.63    3.15
  -6  -5   0    7.51    3.57
   6  -5   0    1.14    3.15
  -6  -5   0    1.44    4.47
  -6   5   0    5.84    4.13
  -7   5   0   17.61    6.31
  -7  -5   0   15.57    4.56
   7  -5   0   13.79    5.51
  -7   5   0    8.65    4.54
  -7  -5   0    5.41    5.56
   0   6   0  204.67   10.97
   0  -6   0  208.85    9.81
   0   6   0  208.31   11.15
  -1   6   0  155.32    8.06
  -1   6   0  150.45    9.76
   1   6   0  163.54    9.21
  -1  -6   0  156.74    7.47
   1  -6   0  144.93    8.65
  -1   6   0  147.58    9.16
  -2  -6   0   25.87    2.62
  -2  -6   0   24.10    5.60
  -2   6   0   22.21    4.89
  -2  -6   0   25.24    3.82
  -2   6   0   32.82    4.97
  -2   6   0   21.39    3.79
   2  -6   0   19.76    4.44
  -3  -6   0    0.07    1.94
  -3  -6   0    0.84    3.32
  -3  -6   0   -1.76    2.28
  -3   6   0   -0.92    2.14
   3  -6   0   -3.63    2.14
  -3   6   0    0.23    2.73
  -3   6   0    3.21    2.77
  -4   6   0   52.85    7.89
  -4  -6   0   54.70    5.44
  -4  -6   0   60.43    5.39
  -4   6   0   52.70    6.26
   4  -6   0   51.97    6.90
  -4   6   0   57.71    6.44
  -4  -6   0   57.82    8.53
  -5   6   0   16.34    4.46
  -5  -6   0   11.36    5.55
   5  -6   0   13.47    4.63
  -5   6   0    9.35    3.64
  -5   6   0    5.71    4.31
  -5  -6   0    0.53    2.73
  -6   6   0   36.83    7.61
   6  -6   0   37.92    7.37
  -6   6   0   43.57    6.90
  -6  -6   0   43.56    8.69
   0  -7   0   -3.17    1.92
   0   7   0    1.67    2.91
   0   7   0    0.67    2.52
  -1  -7   0   35.42    6.72
  -1  -7   0   29.86    3.87
  -1   7   0   27.64    5.43
   1   7   0   23.74    4.84
   1  -7   0   33.04    5.05
  -1   7   0   37.95    6.29
  -1   7   0   28.44    4.26
   2  -7   0    3.14    2.93
  -2   7   0    0.28    2.97
  -2   7   0    1.46    2.22
  -2   7   0    8.31    3.73
  -2  -7   0   -2.30    3.20
  -2  -7   0   -1.47    2.02
  -3   7   0    4.27    3.28
   3  -7   0   10.82    3.98
  -3  -7   0    8.74    3.10
  -3   7   0   10.25    4.53
  -3   7   0    9.99    3.53
  -3  -7   0   10.48    5.03
  -3  -7   0    6.70    3.18
  -4  -7   0    2.39    4.39
  -4   7   0    0.95    2.75
   4  -7   0    4.63    3.68
  -4   7   0    0.18    2.94
  -4   7   0    3.05    3.60
  -5   7   0   10.79    5.11
   5  -7   0    6.72    4.38
  -5   7   0   11.07    4.25
  -5  -7   0   11.94    6.13
  -5   7   0    5.43    3.44
  -6  -7   0   -5.36    4.50
  -6   7   0    3.03    3.79
   6  -7   0    1.05    3.55
  -6   7   0    0.37    3.95
   0   8   0  260.70   14.97
   0  -8   0  297.28   13.52
  -1   8   0  356.39   17.36
  -1  -8   0  342.88   18.14
  -1   8   0  328.91   17.43
   1  -8   0  353.69   16.26
   1   8   0  359.49   17.02
  -2   8   0   87.52    8.85
  -2  -8   0   79.37    6.95
  -2   8   0   92.90    7.61
  -2  -8   0   82.93   10.14
   2  -8   0   95.69    8.96
  -2   8   0   94.67   10.06
  -3   8   0    2.89    3.18
  -3   8   0    2.07    3.75
   3  -8   0    0.88    3.50
  -3   8   0    3.41    3.60
  -3  -8   0   -1.67    4.29
  -4   8   0   80.19   10.83
   4  -8   0   80.20    9.53
  -4  -8   0   61.60   10.58
  -4   8   0   57.77    7.34
  -4   8   0   69.53    8.33
   5  -8   0  199.84   14.50
  -5  -8   0  188.80   16.00
  -5   8   0  193.55   13.01
  -5   8   0  204.37   15.83
   0  -9   0    2.80    4.15
   0   9   0    1.47    3.59
  -1   9   0   -0.03    3.67
  -1  -9   0   -2.64    3.83
  -1   9   0    1.23    3.57
   1  -9   0    0.22    2.78
  -2   9   0  251.86   15.11
  -2  -9   0  225.24   15.92
   2  -9   0  242.51   14.28
  -2   9   0  241.42   13.09
  -2   9   0  224.38   15.48
  -3   9   0   22.61    6.27
   3  -9   0   26.11    6.05
  -3  -9   0   36.43    8.49
  -3   9   0   26.00    7.07
  -3   9   0   22.92    5.57
  -8   0   1    2.51    4.22
  -8   0   1    4.77    3.91
  -8   0   1    3.55    3.71
   8   0  -1    1.54    3.28
  -7   0   1   -2.13    2.78
  -7   0   1    0.98    3.64
   7   0  -1   -2.98    2.37
  -7   0   1   -2.63    2.68
  -6   0   1   -1.39    2.63
  -6   0   1    0.83    2.50
  -6   0   1   -3.03    3.06
   6   0  -1    2.88    2.62
  -5   0   1   -0.37    1.81
  -5   0   1   -4.84    2.36
  -5   0   1   -3.32    1.90
   5   0  -1   -2.09    1.45
   4   0  -1   -2.27    1.44
  -4   0   1   -2.06    1.31
  -4   0   1   -0.59    1.99
  -4   0   1   -0.67    1.76
  -3   0   1    1.13    1.62
  -3   0   1   -1.69    1.62
  -3   0   1   -0.88    1.18
   3   0  -1    3.39    1.74
   2   0  -1   -0.29    1.02
   2   0  -1    0.61    0.92
  -2   0   1    1.68    1.36
  -2   0   1    0.73    1.28
   2   0  -1   -0.83    1.24
  -2   0   1    0.19    0.86
   1   0  -1   -8.56    0.84
   1   0  -1   -9.17    0.81
  -1   0   1  -10.10    0.59
  -1   0   1   -9.41    0.81
  -1   0   1   -8.72    0.68
   1   0  -1  -10.11    0.57
   1   0  -1  -10.26    0.56
   0   0  -1    0.06    0.27
   0   0   1   -0.76    0.26
   0   0  -1   -0.60    0.37
   0   0   1   -0.96    0.23
   0   0   1   -0.71    0.17
   0   0  -1   -0.94    0.20
   1   0   1   -1.67    0.95
   1   0   1   -1.60    0.64
  -1   0  -1   -1.66    0.58
  -1   0  -1   -1.61    0.91
   1   0   1    0.27    0.84
   1   0   1   -1.67    0.52
  -1   0  -1   -0.23    0.77
  -1   0  -1   -1.16    0.69
   2   0   1   -6.57    0.95
   2   0   1   -6.35    1.12
  -2   0  -1   -5.94    1.04
   2   0   1   -4.87    1.23
  -2   0  -1   -5.42    1.09
  -2   0  -1   -6.14    1.69
  -2   0  -1   -3.68    1.21
   3   0   1    1.84    1.57
  -3   0  -1    0.64    1.41
   3   0   1   -1.70    1.12
  -3   0  -1    0.89    1.34
  -3   0  -1    1.82    2.12
  -4   0  -1    1.54    1.93
  -4   0  -1   -1.24    1.69
  -4   0  -1   -0.74    2.47
   4   0   1   -3.41    1.77
  -5   0  -1   -2.57    1.82
  -5   0  -1   -1.49    2.97
   5   0   1    0.86    2.22
  -5   0  -1   -0.21    2.05
   6   0   1   -3.82    2.26
  -6   0  -1   -3.94    2.79
  -6   0  -1   -1.46    2.34
  -6   0  -1   -1.85    2.35
  -7   0  -1   -2.36    2.70
  -7   0  -1    0.04    2.83
   7   0   1    0.57    3.06
  -7   0  -1    1.48    3.62
  -8   0  -1    7.53    5.16
  -8   0  -1   -1.82    3.09
   8   0   1   -1.18    3.61
  -8   0  -1   -1.27    3.30
   8  -1  -1    7.31    4.15
  -8   1   1    9.91    4.46
  -8  -1   1    0.08    4.53
  -8  -1   1    6.51    4.25
  -8   1   1    6.46    4.32
  -8   1   1    4.02    4.16
  -8  -1   1    0.25    3.34
  -7   1   1   11.39    4.21
  -7  -1   1   11.50    4.85
  -7  -1   1   11.10    3.75
  -7  -1   1    6.28    3.65
   7   1  -1   14.26    3.98
   7  -1  -1   10.15    3.94
  -7   1   1   11.58    4.01
  -7   1   1    9.66    4.48
  -6   1   1    1.81    3.05
  -6  -1   1    0.61    3.78
  -6   1   1    0.47    2.55
   6  -1  -1    1.75    2.75
  -6  -1   1   -2.43    2.24
  -6   1   1    4.10    3.33
  -6  -1   1    4.30    2.73
   6   1  -1   -1.35    2.26
   5   1  -1   93.28    5.97
  -5  -1   1   85.53    6.38
  -5   1   1   94.15    6.83
  -5   1   1  102.73    7.09
   5  -1  -1   95.62    6.86
  -5   1   1  113.55    7.89
  -5  -1   1   81.35    6.58
  -5  -1   1   94.00    7.65
   4   1  -1  301.18   10.93
  -4  -1   1  285.09   12.37
  -4  -1   1  305.08   12.04
   4  -1  -1  286.83   12.19
  -4   1   1  310.53   11.99
  -4  -1   1  294.26   11.23
  -4   1   1  294.26   11.58
  -4   1   1  284.05   12.53
  -3  -1   1  615.18   19.34
   3  -1  -1  647.95   18.74
   3   1  -1  603.54   19.15
  -3   1   1  626.62   19.05
  -3   1   1  620.90   20.25
  -3  -1   1  651.60   18.54
  -3  -1   1  602.26   19.71
  -3   1   1  617.00   18.70
  -2   1   1   35.55    2.72
  -2  -1   1   38.29    3.38
   2   1  -1   39.40    2.89
   2   1  -1   33.51    2.51
   2   1  -1   36.57    3.20
   2  -1  -1   32.11    2.75
  -2   1   1   32.30    2.79
   2  -1  -1   33.57    2.82
  -2  -1   1   44.80    3.08
   2  -1  -1   22.59    2.77
  -2   1   1   38.37    3.20
   2   1  -1   42.94    2.86
  -2  -1   1   36.85    2.58
   1  -1  -1  138.28    5.38
  -1  -1   1  139.74    4.28
  -1  -1   1  130.75    5.04
   1   1  -1  145.14    4.68
  -1  -1   1  134.46    5.11
  -1   1   1  140.17    4.95
  -1   1   1  135.28    4.46
  -1   1   1  128.64    5.36
  -1  -1   1  138.47    4.66
   1   1  -1  144.90    4.38
   1   1  -1  138.53    5.11
   1  -1  -1  141.86    4.51
   1   1  -1  130.18    5.09
   1  -1  -1  132.63    4.92
   0   1   1   65.81    2.98
   0   1  -1   62.92    2.94
   0  -1  -1   63.24    2.97
   0   1  -1   67.14    2.83
   0  -1  -1   65.03    2.59
   0   1   1   66.35    2.54
   0  -1   1   65.12    2.80
   0  -1   1   66.26    2.98
   0  -1  -1   62.91    2.80
   0   1   1   66.36    2.89
   0   1  -1   66.66    2.98
   0  -1   1   66.17    2.21
   0  -1   1   65.95    2.96
   0  -1  -1   68.20    2.54
   1   1   1   80.59    3.42
   1  -1   1   77.67    3.55
  -1   1  -1   73.16    3.46
   1   1   1   78.14    2.71
  -1   1  -1   70.28    3.82
   1   1   1   79.42    4.41
  -1  -1  -1   80.34    3.25
  -1   1  -1   80.84    4.04
  -1  -1  -1   77.35    2.74
   1  -1   1   72.27    3.89
  -1  -1  -1   75.73    4.25
   1  -1   1   80.72    4.01
  -1   1  -1   70.87    3.85
   1  -1   1   82.92    4.09
  -2   1  -1  688.69   19.73
   2  -1   1  732.10   20.70
  -2  -1  -1  697.74   19.71
  -2  -1  -1  700.84   19.70
  -2  -1  -1  696.73   19.14
   2   1   1  643.92   18.92
   2  -1   1  677.53   21.06
   2   1   1  682.58   19.82
  -2  -1  -1  669.45   20.86
  -2   1  -1  637.19   20.36
   2   1   1  701.06   19.91
  -2   1  -1  659.45   20.29
  -3  -1  -1  652.26   19.32
  -3  -1  -1  655.32   19.87
  -3   1  -1  620.88   19.83
  -3   1  -1  630.61   20.59
  -3  -1  -1  644.19   21.31
   3   1   1  670.60   19.89
   3  -1   1  632.03   21.07
  -3   1  -1  664.18   20.77
  -4  -1  -1  295.74   11.83
  -4   1  -1  283.29   11.86
   4  -1   1  276.35   12.33
   4   1   1  291.27   11.24
  -4   1  -1  286.68   12.49
  -4  -1  -1  295.74   13.40
  -4  -1  -1  270.90   11.00
  -4   1  -1  278.76   12.09
   4   1   1  299.02   11.21
  -5   1  -1   -1.40    1.73
  -5  -1  -1    2.29    2.23
  -5   1  -1    0.59    2.65
   5  -1   1   -0.83    2.18
  -5  -1  -1    5.42    3.74
   5   1   1   -2.14    1.71
  -5  -1  -1   -2.31    1.85
  -5   1  -1    0.02    2.29
  -6   1  -1  111.24    8.53
  -6   1  -1   97.77    8.98
  -6  -1  -1   95.94    7.66
  -6  -1  -1  104.54    7.51
   6  -1   1   93.97    8.04
   6   1   1   99.13    7.29
  -6  -1  -1  104.09    9.89
  -6   1  -1   95.86    7.90
  -7  -1  -1    9.54    5.25
   7   1   1   13.86    4.27
  -7   1  -1   13.74    4.58
  -7   1  -1    9.01    4.66
  -7   1  -1   12.46    4.41
  -7  -1  -1    9.57    4.04
  -7  -1  -1   12.30    3.97
   7  -1   1    3.80    3.37
  -8  -1  -1    1.09    4.48
  -8  -1  -1    0.04    3.74
  -8   1  -1    1.89    3.76
  -8   1  -1    5.09    4.22
  -8   1  -1    7.23    4.66
   8  -1   1    2.43    3.83
  -8  -2   1   37.82    7.91
  -8   2   1   43.49    7.23
  -8  -2   1   49.72    7.17
   8  -2  -1   43.09    7.16
  -8   2   1   41.74    8.39
  -7  -2   1   47.80    6.21
  -7   2   1   54.47    6.74
   7  -2  -1   40.48    6.37
  -7   2   1   52.65    8.08
  -7   2   1   33.42    6.09
  -7  -2   1   50.56    8.21
  -7  -2   1   57.18    6.82
  -6   2   1  142.91   10.26
   6  -2  -1  130.54    9.36
  -6   2   1  130.89    8.61
  -6   2   1  130.48    9.18
  -6  -2   1  135.12   10.67
  -6  -2   1  140.28    8.81
  -6  -2   1  123.07    8.11
   6   2  -1  134.77    7.52
   5   2  -1  174.31    7.71
   5  -2  -1  164.97    9.80
  -5   2   1  157.33    8.68
  -5  -2   1  167.82   10.40
  -5  -2   1  169.86    8.61
  -5  -2   1  170.62    9.11
  -5   2   1  152.96    9.14
  -5   2   1  175.64   10.48
  -4   2   1  886.88   27.72
  -4  -2   1  935.41   27.90
   4   2  -1  931.07   26.40
  -4  -2   1  903.70   26.54
   4   2  -1  900.21   26.80
  -4   2   1  929.41   29.81
  -4  -2   1  900.87   29.24
  -4   2   1  915.56   27.26
   3   2  -1   31.61    2.02
   3   2  -1   31.30    3.13
  -3   2   1   24.55    3.71
  -3   2   1   30.31    3.40
  -3  -2   1   28.22    3.96
  -3  -2   1   24.16    2.63
   3   2  -1   29.51    2.45
  -3  -2   1   32.04    3.28
  -3   2   1   25.02    2.87
   2   2  -1   -1.49    0.96
  -2  -2   1   -3.24    1.41
  -2   2   1   -0.76    1.31
   2  -2  -1   -0.12    1.39
  -2  -2   1    0.39    0.98
  -2   2   1    0.27    1.15
  -2   2   1   -1.86    0.90
  -2  -2   1    1.58    1.23
   2  -2  -1    0.89    1.34
   1  -2  -1 7480.42  187.97
   1   2  -1 7226.60  185.37
  -1   2   1 7132.95  188.15
   1  -2  -1 7309.45  180.97
  -1  -2   1 7326.46  187.70
   1  -2  -1 7544.07  184.63
  -1  -2   1 7324.20  187.63
  -1   2   1 7223.66  184.92
   1   2  -1 7687.11  197.45
  -1   2   1 7051.37  181.21
  -1  -2   1 7553.00  199.09
   0  -2  -1 1347.05   36.62
   0  -2   1 1395.82   35.06
   0  -2  -1 1399.66   36.96
   0  -2  -1 1364.32   38.49
   0  -2   1 1413.21   37.18
   0   2   1 1365.61   36.81
   0   2  -1 1449.66   38.30
   0  -2  -1 1366.46   35.51
   0   2  -1 1358.33   37.15
   0   2   1 1402.54   37.13
   0   2  -1 1365.10   37.73
   0  -2   1 1399.45   38.26
   0  -2   1 1352.98   37.51
  -1   2  -1  557.32   15.71
   1   2   1  535.76   16.03
  -1  -2  -1  562.47   16.09
   1  -2   1  564.11   15.72
  -1   2  -1  562.45   16.76
  -1  -2  -1  556.59   17.19
   1  -2   1  546.93   17.34
   1  -2   1  538.89   17.21
  -1  -2  -1  557.60   15.43
  -1   2  -1  548.33   17.28
  -2   2  -1   58.77    4.32
  -2   2  -1   56.82    4.44
   2   2   1   64.10    3.26
  -2  -2  -1   81.52    5.47
  -2  -2  -1   60.33    3.02
  -2   2  -1   53.77    3.74
   2   2   1   61.33    3.02
  -2  -2  -1   51.54    3.84
   2  -2   1   58.00    4.24
  -2  -2  -1   62.52    2.74
  -3  -2  -1  369.38   14.85
   3   2   1  386.50   12.05
  -3  -2  -1  377.08   12.13
  -3  -2  -1  372.44   13.17
  -3   2  -1  380.23   14.48
  -3   2  -1  368.46   13.86
   3  -2   1  373.67   14.53
   3   2   1  382.89   12.11
  -3   2  -1  384.38   13.53
   4   2   1  282.08   11.61
   4  -2   1  347.15   14.69
  -4   2  -1  350.50   13.81
  -4   2  -1  351.84   14.73
  -4  -2  -1  379.67   12.62
   4   2   1  364.92   12.23
  -4  -2  -1  348.08   15.36
  -4  -2  -1  355.38   13.38
  -4   2  -1  345.81   14.06
  -5   2  -1  405.88   17.14
  -5   2  -1  362.75   15.96
   5  -2   1  381.74   16.81
  -5  -2  -1  398.70   14.57
   5   2   1  394.82   14.28
  -5   2  -1  382.37   15.95
  -5  -2  -1  408.35   17.95
  -5  -2  -1  384.49   15.34
   6  -2   1   54.57    6.95
  -6  -2  -1   60.23    6.56
  -6   2  -1   60.67    7.34
  -6   2  -1   56.92    6.91
  -6  -2  -1   60.95    5.80
  -6  -2  -1   48.51    8.05
  -6   2  -1   61.41    7.04
   6   2   1   60.12    5.49
  -7  -2  -1    9.74    5.34
  -7   2  -1   12.08    4.59
   7  -2   1   11.44    4.68
  -7   2  -1    4.35    3.37
  -7   2  -1   11.56    4.44
  -7  -2  -1    8.45    4.09
   8  -2   1    5.88    4.21
  -8   2  -1    1.96    3.94
  -8   2  -1    0.18    3.52
  -8  -2  -1    8.41    4.51
  -8  -2  -1   -3.47    4.65
  -8   2  -1   -2.31    3.10
  -8  -3   1   43.73    8.79
  -8   3   1   51.48    7.86
   8  -3  -1   59.66    8.79
  -8  -3   1   50.26    7.17
  -8   3   1   50.62    8.89
  -7  -3   1    4.02    3.38
  -7  -3   1    4.18    3.15
  -7  -3   1    1.25    4.53
  -7   3   1    4.39    3.54
  -7   3   1    3.88    4.25
  -7   3   1    8.34    3.58
   7  -3  -1    2.64    3.12
   6  -3  -1   35.43    6.07
  -6  -3   1   36.54    5.12
  -6   3   1   32.87    6.54
  -6   3   1   33.21    5.81
  -6  -3   1   37.65    6.91
  -6   3   1   36.32    5.19
  -6  -3   1   37.94    5.37
   5   3  -1  329.22   10.74
   5  -3  -1  315.44   15.32
  -5  -3   1  337.75   13.15
  -5  -3   1  353.62   16.33
  -5   3   1  316.94   14.39
  -5  -3   1  352.23   13.96
  -5   3   1  349.82   13.82
  -5   3   1  333.07   16.12
  -4   3   1 1413.75   40.71
  -4   3   1 1424.42   39.94
  -4  -3   1 1413.96   42.91
  -4  -3   1 1461.57   38.94
   4  -3  -1 1302.86   43.34
  -4   3   1 1445.35   43.65
  -4  -3   1 1420.41   40.46
  -3   3   1  484.77   18.70
  -3   3   1  517.30   16.62
  -3  -3   1  512.60   15.71
  -3   3   1  493.58   17.08
  -3  -3   1  512.83   18.74
  -3  -3   1  503.91   16.72
   3   3  -1  583.37   17.27
  -2  -3   1  267.13    9.90
  -2  -3   1  281.60    9.02
  -2  -3   1  268.46   11.41
  -2  -3   1  265.57   10.09
  -2   3   1  280.23    9.90
  -2   3   1  263.15   10.12
  -2   3   1  271.72   11.36
  -1   3   1  517.35   16.87
  -1   3   1  504.79   15.75
   1  -3  -1  523.61   16.67
  -1   3   1  489.39   15.33
  -1  -3   1  511.26   16.15
   1   3  -1  490.67   16.51
  -1  -3   1  522.14   15.03
  -1  -3   1  491.01   13.82
   0  -3   1 1407.72   39.56
   0   3  -1 1415.16   39.59
   0  -3  -1 1387.84   36.74
   0   3   1 1388.55   38.75
   0  -3  -1 1454.89   38.62
   0  -3   1 1440.87   36.18
   0  -3  -1 1384.59   39.95
   0  -3   1 1376.77   39.17
   0   3   1 1419.67   38.61
   0   3  -1 1395.76   38.93
   1  -3   1  849.05   23.21
  -1   3  -1  850.15   25.87
   1  -3   1  821.68   25.61
  -1   3  -1  861.56   23.28
   1   3   1  854.47   23.85
  -1   3  -1  821.75   24.80
  -1  -3  -1  762.04   25.03
  -1  -3  -1  881.23   23.68
  -1  -3  -1  839.09   24.20
  -2   3  -1  759.28   23.45
  -2  -3  -1  778.17   21.66
   2  -3   1  725.40   24.53
  -2   3  -1  754.32   22.39
  -2  -3  -1  791.02   21.36
  -2  -3  -1  773.24   21.56
  -2  -3  -1  767.37   24.60
  -3   3  -1  912.93   28.93
  -3  -3  -1  915.28   25.15
   3   3   1  880.94   24.79
  -3   3  -1  864.97   27.05
  -3  -3  -1  872.34   28.71
  -3  -3  -1  891.69   26.09
   3  -3   1  857.31   28.77
  -3   3  -1  855.35   26.41
  -4   3  -1  147.27    8.45
  -4  -3  -1  138.26    6.68
  -4  -3  -1  142.34    7.76
   4   3   1  130.79    5.81
  -4  -3  -1  134.69    9.54
  -4   3  -1  127.27    7.88
   4   3   1  145.75    6.66
  -4   3  -1  127.23    8.84
   4  -3   1  142.44    9.00
   5  -3   1  204.62   12.06
  -5   3  -1  219.62   11.42
   5   3   1  210.15    8.60
  -5  -3  -1  221.92    9.63
  -5   3  -1  216.38   11.32
  -5  -3  -1  207.20   10.57
  -5   3  -1  227.90   12.75
  -5  -3  -1  201.49   12.59
  -6   3  -1  215.53   13.32
  -6   3  -1  212.47   12.32
  -6   3  -1  212.13   12.09
  -6  -3  -1  181.23   13.39
  -6  -3  -1  224.58   10.43
  -6  -3  -1  222.47   11.66
   6  -3   1  199.83   12.74
  -7   3  -1  141.35   11.54
  -7   3  -1  165.45   11.50
  -7  -3  -1  124.23   12.36
   7  -3   1  136.20   11.23
  -7   3  -1  137.37   10.43
  -7  -3  -1  145.60   10.28
  -8   3  -1   50.46    8.20
  -8  -3  -1   26.08    7.95
  -8  -3  -1   53.82    7.54
  -8   3  -1   45.98    8.25
   8  -3   1   48.37    8.21
  -8   4   1    0.24    3.80
  -8  -4   1    0.77    3.71
  -8   4   1    3.19    4.69
  -8  -4   1   -2.89    5.55
  -7  -4   1   50.85    9.12
  -7   4   1   47.74    7.34
  -7  -4   1   55.45    6.52
  -7   4   1   66.69    9.65
   7  -4  -1   53.29    8.12
  -6  -4   1   40.59    7.50
   6  -4  -1   32.63    6.11
  -6  -4   1   46.62    5.54
  -6   4   1   47.07    6.45
  -6  -4   1   52.83    5.96
  -6   4   1   60.22    8.33
  -6   4   1   55.49    6.04
  -5  -4   1   96.88    6.82
  -5   4   1   87.29    8.99
  -5   4   1   95.96    7.76
  -5  -4   1   75.25    8.66
  -5  -4   1   95.70    6.50
   5  -4  -1   97.08    8.19
  -5   4   1   89.92    6.85
   4  -4  -1   30.67    5.02
  -4  -4   1   36.22    4.15
  -4  -4   1   39.30    3.98
  -4   4   1   33.99    4.77
  -4   4   1   43.65    4.57
  -4   4   1   53.24    6.59
  -4  -4   1   39.93    6.31
  -3   4   1   93.06    6.26
  -3   4   1   82.43    6.92
  -3  -4   1   85.63    5.51
  -3   4   1  100.27    6.02
  -3  -4   1   87.85    7.23
  -3  -4   1   96.27    5.23
  -2   4   1 1795.50   51.16
  -2   4   1 1754.27   48.51
  -2  -4   1 1730.25   50.65
  -2   4   1 1744.88   47.80
  -2  -4   1 1770.57   48.76
  -2  -4   1 1807.64   48.48
   1   4  -1  538.17   18.27
  -1  -4   1  542.90   15.28
  -1   4   1  500.97   18.35
  -1   4   1  580.28   18.00
  -1   4   1  521.33   16.89
   1   4  -1  558.59   18.77
  -1  -4   1  543.77   16.63
   0   4   1   -1.13    1.28
   0  -4  -1    0.98    1.44
   0  -4   1    0.85    1.05
   0  -4   1   -0.15    1.31
   0   4   1   -1.05    1.23
   0   4  -1    1.18    0.99
   0   4  -1    0.95    1.54
   0   4  -1   -0.16    1.53
  -1  -4  -1  738.99   22.07
  -1   4  -1  684.06   22.77
  -1   4  -1  735.97   24.04
   1   4   1  741.44   22.01
  -1   4  -1  713.52   21.00
  -1  -4  -1  715.32   21.53
   1  -4   1  717.73   23.35
   2  -4   1  103.48    6.79
  -2  -4  -1   94.75    4.96
  -2  -4  -1   95.75    4.87
  -2  -4  -1   93.70    7.13
  -2  -4  -1   94.06    4.10
  -2   4  -1   87.38    5.44
  -2   4  -1   99.49    7.03
  -2   4  -1   97.01    6.29
  -3   4  -1  685.64   22.55
  -3  -4  -1  645.10   21.00
  -3  -4  -1  671.30   20.00
  -3   4  -1  636.13   21.45
   3  -4   1  696.04   24.21
  -3  -4  -1  648.55   24.04
  -3  -4  -1  656.20   19.95
  -3   4  -1  698.98   24.44
  -4  -4  -1   -2.79    1.95
  -4   4  -1    0.36    1.93
  -4  -4  -1    1.74    1.68
  -4  -4  -1   -5.94    2.36
  -4   4  -1   -0.51    2.18
   4  -4   1    0.60    2.35
  -4   4  -1   -2.51    1.99
  -4  -4  -1   -1.24    1.45
   5  -4   1  250.90   14.42
  -5  -4  -1  291.22   13.03
  -5   4  -1  295.60   13.97
  -5  -4  -1  272.23   15.60
  -5  -4  -1  304.37   11.60
  -5   4  -1  286.73   13.70
  -5   4  -1  299.08   15.72
  -6   4  -1  135.25    9.86
  -6  -4  -1  108.85   11.12
  -6   4  -1  147.44   11.36
  -6   4  -1  122.82    9.15
  -6  -4  -1  131.73    9.01
   6  -4   1  119.34   10.13
  -7  -4  -1   24.33    7.15
  -7   4  -1   15.97    5.09
  -7   4  -1   17.92    4.77
   7  -4   1   10.18    4.82
  -7  -4  -1   17.88    4.81
  -7   4  -1   26.28    6.83
   7  -5  -1    5.81    4.21
  -7   5   1    3.91    4.54
  -7   5   1    9.21    4.26
  -7  -5   1    2.36    4.92
  -6   5   1    5.41    3.55
  -6  -5   1   -1.46    3.94
   6  -5  -1   10.00    4.22
  -6   5   1   16.79    4.18
  -6  -5   1    9.79    3.51
  -6   5   1   14.11    5.07
   5  -5  -1  150.53   10.76
  -5  -5   1  149.72   11.77
  -5  -5   1  156.88    8.43
  -5   5   1  168.96    9.44
  -5  -5   1  170.55    9.24
  -5   5   1  141.17   11.33
  -5   5   1  136.16    9.56
   4  -5  -1 1112.97   38.12
  -4   5   1 1142.51   34.62
  -4  -5   1 1136.87   34.25
  -4  -5   1 1176.37   32.53
  -4  -5   1 1130.74   38.34
  -4   5   1 1080.42   34.93
  -4   5   1 1160.98   38.78
  -3   5   1  140.36    8.26
  -3   5   1  133.65    7.84
  -3  -5   1  142.43    6.84
  -3  -5   1  130.94    7.34
  -3   5   1  127.55    9.21
  -3  -5   1  141.33    9.92
   3  -5  -1  141.15    9.15
  -2   5   1  521.36   18.25
  -2  -5   1  514.59   17.71
  -2  -5   1  524.79   15.70
  -2   5   1  490.39   19.58
  -2  -5   1  501.45   20.11
  -2  -5   1  531.14   15.36
  -2   5   1  499.05   17.60
   1   5  -1  161.22    8.94
  -1   5   1  176.88    9.01
  -1   5   1  167.82    9.36
  -1   5   1  175.74    8.26
   1   5  -1  171.72    9.54
  -1  -5   1  178.59    7.61
   0   5  -1 1267.51   38.44
   0  -5   1 1297.73   38.13
   0   5  -1 1269.30   38.99
   0   5   1 1324.36   38.42
   0   5  -1 1294.36   34.78
   0   5   1 1261.65   38.15
   1   5   1 1057.28   31.39
  -1  -5  -1 1037.44   33.06
  -1   5  -1 1025.17   32.25
   1  -5   1 1026.57   32.66
  -1   5  -1 1051.19   29.72
  -1   5  -1 1066.82   33.71
  -2  -5  -1   91.85    4.06
  -2   5  -1   84.24    7.13
  -2   5  -1   89.23    5.82
  -2   5  -1   87.22    6.57
  -2  -5  -1   88.71    7.62
  -2  -5  -1   86.39    5.21
  -2  -5  -1   83.04    4.81
   2  -5   1  100.42    7.16
  -3   5  -1  364.76   14.15
  -3  -5  -1  358.75   12.40
  -3   5  -1  316.46   14.27
  -3  -5  -1  324.23   16.12
  -3  -5  -1  356.81   13.57
   3  -5   1  361.01   15.96
  -3  -5  -1  333.32   12.32
  -3   5  -1  346.89   16.32
  -4   5  -1    7.72    3.29
  -4  -5  -1    7.63    3.26
  -4  -5  -1    8.86    4.45
  -4   5  -1    4.93    3.43
  -4   5  -1    6.35    3.00
   4  -5   1    0.75    2.89
  -4  -5  -1    8.28    2.62
  -5  -5  -1  494.65   23.19
  -5  -5  -1  552.71   19.72
  -5   5  -1  527.85   23.43
  -5   5  -1  531.40   20.86
  -5   5  -1  531.10   20.91
   5  -5   1  489.93   22.40
  -6  -5  -1   72.75   10.04
  -6   5  -1   68.39    8.04
   6  -5   1   52.38    7.98
  -6   5  -1   64.44    7.51
  -6  -5  -1   54.41    6.48
  -6   5  -1   66.23    9.35
  -7  -5  -1  244.11   17.32
  -7   5  -1  270.40   17.55
  -7   5  -1  255.84   15.48
  -7  -5  -1  253.21   13.94
   7  -5   1  250.56   16.45
  -7   6   1   26.44    6.37
  -7  -6   1   19.73    7.79
  -6  -6   1  185.79   14.51
   6  -6  -1  159.83   12.56
  -6   6   1  170.69   13.90
  -6   6   1  204.13   12.81
  -5   6   1   99.55    7.69
  -5  -6   1  103.42   11.25
  -5   6   1   84.88    8.32
  -5   6   1   94.03   10.49
   5  -6  -1   85.03    9.15
  -4  -6   1   25.88    4.22
  -4  -6   1   25.80    3.78
   4  -6  -1   16.95    4.56
  -4  -6   1   30.06    6.41
  -4   6   1   30.57    6.24
  -4   6   1   23.97    4.65
  -4   6   1   31.39    5.05
  -3   6   1  166.83   11.39
  -3   6   1  186.80   10.16
   3  -6  -1  178.10   11.03
  -3   6   1  189.54   10.24
  -3  -6   1  194.50    9.57
  -3  -6   1  183.98    8.48
  -3  -6   1  179.62   12.08
  -2   6   1 1416.30   41.87
  -2  -6   1 1452.42   44.79
  -2  -6   1 1436.09   39.16
   2  -6  -1 1372.50   43.76
  -2  -6   1 1382.89   41.15
  -2   6   1 1425.79   40.66
  -2   6   1 1272.84   43.42
  -1   6   1    1.21    2.47
  -1   6   1   -2.09    1.58
  -1   6   1    0.70    2.26
   1   6  -1    1.20    2.31
  -1  -6   1   -0.09    1.75
   1  -6  -1   -1.80    1.86
   1   6  -1    1.47    2.26
   0   6  -1  393.94   16.91
   0  -6   1  398.69   15.29
   0   6   1  403.95   16.28
   0   6  -1  395.48   16.73
   0  -6  -1  385.48   14.94
  -1  -6  -1  206.98    8.80
  -1   6  -1  207.23   11.18
  -1   6  -1  204.05    9.20
   1  -6   1  204.55   10.64
  -1  -6  -1  184.92   11.40
   1   6   1  198.49   10.13
  -1   6  -1  204.94   11.76
  -2   6  -1  114.42    8.26
   2  -6   1   94.66    7.82
  -2   6  -1  118.23    7.16
  -2  -6  -1  110.06    5.16
  -2  -6  -1  103.48    8.99
  -2  -6  -1   97.73    6.20
  -2   6  -1  118.26    9.20
   3  -6   1  239.85   13.26
  -3   6  -1  232.79   11.54
  -3  -6  -1  226.00   10.99
  -3  -6  -1  239.24   10.21
  -3   6  -1  261.32   12.89
  -3   6  -1  261.61   14.46
  -3  -6  -1  255.32   14.54
  -4   6  -1  170.08   10.31
   4  -6   1  161.58   11.43
  -4  -6  -1  178.79    9.68
  -4  -6  -1  169.50   12.68
  -4   6  -1  191.54   12.88
  -4   6  -1  166.34   10.43
  -5   6  -1  116.03    8.98
  -5   6  -1  131.81   12.16
  -5  -6  -1   86.23   10.58
   5  -6   1   96.29   10.09
  -5  -6  -1  111.49    8.13
  -5   6  -1  118.97    9.17
  -6   6  -1   16.65    4.87
  -6  -6  -1   11.98    5.96
  -6   6  -1   10.83    5.27
   6  -6   1    9.86    4.85
  -6   6  -1   15.98    4.82
  -6   7   1    3.91    3.63
   6  -7  -1    3.61    3.87
  -6   7   1    4.73    4.50
  -6  -7   1    0.86    5.54
  -5  -7   1   42.85    8.71
   5  -7  -1   47.23    7.70
  -5   7   1   53.86    7.48
  -5   7   1   61.28    9.59
  -4   7   1  170.81   12.97
  -4   7   1  195.33   11.40
  -4  -7   1  186.22   13.82
  -4  -7   1  204.95   10.65
  -4   7   1  176.88   11.10
   4  -7  -1  183.72   12.43
  -3  -7   1   84.33    9.86
  -3   7   1  112.79    8.36
  -3   7   1  116.26    9.93
  -3  -7   1  118.34    7.82
   3  -7  -1  111.54    9.18
  -3   7   1  120.42    8.64
  -2   7   1  116.50    9.49
  -2   7   1  115.69    8.63
   2  -7  -1  108.80    8.34
  -2  -7   1  113.84   10.68
  -2   7   1  112.45    7.91
  -2  -7   1  101.70    7.49
  -1   7   1   21.68    4.70
   1   7  -1   16.70    4.25
  -1   7   1   23.36    4.98
   1  -7  -1   19.08    4.20
  -1  -7   1   20.81    3.52
   0  -7  -1  315.67   13.40
   0   7  -1  299.97   15.23
   0  -7   1  312.63   13.69
   0   7  -1  303.37   15.43
   0   7   1  316.47   14.95
  -1   7  -1  289.44   14.67
   1   7   1  303.79   13.96
  -1  -7  -1  294.26   11.85
   1  -7   1  292.52   13.95
  -1   7  -1  284.92   12.15
  -1  -7  -1  264.93   15.01
  -1   7  -1  299.81   15.51
  -2   7  -1   30.52    5.68
   2  -7   1   36.62    5.87
  -2  -7  -1   34.04    4.45
  -2   7  -1   29.09    4.46
  -2  -7  -1   31.16    6.57
  -2   7  -1   27.35    5.80
  -3   7  -1   64.08    6.47
  -3   7  -1   70.96    8.85
  -3  -7  -1   67.68    6.40
  -3  -7  -1   62.70    5.53
  -3   7  -1   58.42    7.09
  -3  -7  -1   61.13    8.79
   3  -7   1   74.15    8.15
  -4  -7  -1   -3.41    3.69
  -4   7  -1   -0.40    3.18
  -4   7  -1   -2.66    2.41
  -4  -7  -1   -0.15    2.85
  -4   7  -1    0.16    2.56
   4  -7   1    3.17    3.38
  -5   7  -1   64.32    8.01
  -5   7  -1   55.68    7.40
  -5   7  -1   74.51   10.30
   5  -7   1   74.50    9.52
  -5  -7  -1   64.87   10.45
  -6  -7  -1   52.18   10.02
  -6   7  -1   59.69    8.28
  -5   8   1    6.64    4.89
   5  -8  -1    9.59    4.69
  -5  -8   1   -2.45    5.27
  -5   8   1   13.73    4.79
  -4   8   1    5.30    4.27
  -4   8   1    4.01    3.50
  -4  -8   1    0.92    4.91
  -4   8   1    4.01    3.55
   4  -8  -1   12.29    4.75
  -3   8   1   40.00    7.51
  -3   8   1   47.43    6.60
  -3   8   1   48.96    7.16
   3  -8  -1   33.64    6.26
  -3  -8   1   28.40    7.33
  -3  -8   1   48.39    6.02
  -2  -8   1  198.36   14.02
  -2   8   1  178.04   11.75
  -2   8   1  177.56   10.71
  -2   8   1  185.36   12.84
  -2  -8   1  173.99   10.46
   2  -8  -1  165.98   11.27
  -1   8   1   80.50    8.77
  -1   8   1   80.58    8.59
   1  -8  -1   91.86    7.71
   0  -8  -1   90.98    7.06
   0   8  -1   92.91    9.46
   0  -8  -1   85.73    9.25
   0  -8   1   74.53    7.06
   0   8   1   81.08    8.34
   0   8  -1   95.46    9.75
  -1   8  -1   48.47    7.62
  -1  -8  -1   63.17    8.83
   1   8   1   42.02    6.18
  -1   8  -1   52.30    7.54
   1  -8   1   37.26    5.98
  -2   8  -1   44.61    7.65
  -2  -8  -1   50.23    5.72
  -2   8  -1   52.52    7.57
  -2  -8  -1   59.23    9.00
   2  -8   1   74.75    8.18
  -2   8  -1   66.59    6.70
  -3  -8  -1   44.46    8.60
  -3   8  -1   35.93    7.52
  -3   8  -1   41.47    6.99
   3  -8   1   41.76    7.30
  -3   8  -1   42.42    6.17
  -4   8  -1  137.73   10.81
  -4   8  -1   96.86   11.64
  -4  -8  -1   88.49   12.03
  -4   8  -1  131.80    9.72
  -5  -8  -1   41.45    9.70
  -5   8  -1   40.84    7.36
  -5   8  -1   21.96    5.50
   3  -9  -1   11.28    4.57
  -3  -9   1   15.74    6.47
  -3   9   1    6.89    4.44
  -3   9   1    5.45    3.59
  -3   9   1    4.60    4.60
   2  -9  -1    3.42    3.50
  -2   9   1   -0.72    3.58
  -2  -9   1    2.91    4.75
  -2  -9   1    4.31    3.29
  -2   9   1    0.01    4.10
   1  -9  -1    5.05    3.41
  -1  -9   1   -0.65    4.17
  -1   9   1   -3.15    2.80
   0   9   1    7.56    4.15
   0  -9  -1   15.85    5.64
   0   9  -1    6.07    4.37
  -1   9  -1    0.87    3.69
  -1   9  -1   -3.30    3.53
  -1  -9  -1    0.45    4.04
   1  -9   1    2.55    3.21
  -2  -9  -1    5.93    5.06
   2  -9   1   -1.13    3.30
  -2   9  -1    3.73    3.96
  -2   9  -1    5.97    4.74
  -3   9  -1    8.89    5.11
  -3  -9  -1   -2.09    4.47
  -3   9  -1   -1.78    3.49
  -3   9  -1   -1.57    3.10
   3  -9   1    1.18    3.85
  -8   0   2  192.96   12.19
  -8   0   2  176.37   12.26
  -8   0   2  190.57   13.21
   8   0  -2  164.58   11.27
  -7   0   2   47.28    6.81
  -7   0   2   33.16    5.54
  -7   0   2   32.92    6.11
   7   0  -2   32.82    5.41
  -6   0   2  723.94   25.34
  -6   0   2  724.27   26.53
  -6   0   2  731.27   24.77
   6   0  -2  726.47   25.25
  -5   0   2  434.99   16.13
  -5   0   2  406.21   15.42
  -5   0   2  396.15   16.61
  -4   0   2  107.93    6.87
  -4   0   2  108.83    6.14
  -4   0   2  109.65    6.49
  -3   0   2 1807.16   47.37
  -3   0   2 1760.67   49.87
   3   0  -2 1833.30   47.80
   3   0  -2 1852.61   49.82
  -3   0   2 1771.93   47.99
  -2   0   2 8087.31  204.17
   2   0  -2 8196.71  202.79
   2   0  -2 8346.25  210.69
  -2   0   2 8406.62  211.11
   2   0  -2 8274.97  209.78
   2   0  -2 8084.99  218.39
  -2   0   2 8363.36  208.97
   1   0  -2 2744.38   70.18
   1   0  -2 2623.76   70.41
  -1   0   2 2688.44   73.12
  -1   0   2 2685.96   70.29
   1   0  -2 2711.69   72.96
   1   0  -2 2692.53   67.28
  -1   0   2 2721.00   67.52
  -1   0   2 2745.97   69.92
   0   0  -2  582.48   16.34
   0   0   2  556.71   16.26
   0   0  -2  591.77   17.44
   0   0   2  596.26   16.38
   0   0   2  586.95   17.58
   0   0  -2  592.93   16.29
   1   0   2 9592.40  229.49
   1   0   2 9095.38  248.59
  -1   0  -2 9994.79  248.12
  -1   0  -2 8704.79  234.39
   1   0   2 9457.17  234.29
  -1   0  -2 9328.55  242.01
  -1   0  -2 9116.63  231.93
  -2   0  -2 1363.39   37.98
   2   0   2 1343.95   36.66
  -2   0  -2 1385.98   36.78
   2   0   2 1351.66   38.61
  -2   0  -2 1345.31   36.51
  -3   0  -2  783.67   25.80
   3   0   2  836.46   24.34
  -3   0  -2  843.38   24.46
  -3   0  -2  822.16   24.68
   3   0   2  835.16   25.71
  -4   0  -2 3997.88  107.88
   4   0   2 4182.89  111.32
  -4   0  -2 3969.42  106.80
  -4   0  -2 4048.28  104.62
  -5   0  -2   62.56    7.26
   5   0   2   70.40    6.09
  -5   0  -2   80.66    6.19
  -5   0  -2   77.33    6.51
  -6   0  -2   57.16    6.27
  -6   0  -2   67.86    8.21
  -6   0  -2   75.80    7.51
   6   0   2   66.47    6.97
   7   0   2    2.84    3.49
  -7   0  -2   11.56    5.10
  -7   0  -2    6.16    3.51
  -7   0  -2    3.53    3.59
  -8   0  -2  176.97   14.09
   8   0   2  166.93   12.02
  -8  -1   2   11.07    5.49
  -8  -1   2    8.02    4.57
  -8   1   2   11.92    5.10
  -8   1   2    4.47    4.00
   8  -1  -2   13.52    4.62
  -8  -1   2    5.59    3.84
  -7   1   2   39.68    6.15
   7   1  -2   32.93    4.95
  -7   1   2   38.06    5.86
  -7  -1   2   31.74    6.54
  -7  -1   2   38.59    6.46
  -7   1   2   30.58    6.48
   7  -1  -2   32.25    5.81
  -7  -1   2   33.48    5.40
  -6  -1   2  551.48   20.08
  -6  -1   2  577.79   22.10
  -6  -1   2  593.58   22.12
  -6   1   2  562.79   20.43
   6  -1  -2  557.56   21.55
  -6   1   2  545.68   20.79
  -6   1   2  553.00   22.55
   6   1  -2  571.93   20.17
  -5  -1   2  178.46    8.94
  -5   1   2  183.65   10.53
   5   1  -2  186.07    8.69
  -5  -1   2  182.20    9.89
  -5  -1   2  180.69   10.20
  -5   1   2  188.17    9.57
  -5   1   2  183.23    9.08
  -4  -1   2  109.41    6.80
  -4  -1   2  101.97    6.77
  -4   1   2  107.59    7.17
  -4   1   2  107.17    6.36
  -4  -1   2   93.44    5.54
  -4   1   2  103.14    5.80
  -3   1   2  262.45   10.84
   3   1  -2  255.61   10.03
  -3  -1   2  242.13    8.84
  -3   1   2  258.21    8.82
  -3  -1   2  245.26   10.05
  -3  -1   2  259.35   10.09
  -3   1   2  263.14    9.72
   3  -1  -2  261.38    8.77
  -2   1   2  322.93   11.71
  -2  -1   2  335.11   10.86
   2   1  -2  328.09   11.21
  -2   1   2  344.75    9.67
  -2  -1   2  324.80   10.92
  -2  -1   2  341.00    9.86
   2  -1  -2  330.14   11.59
   2   1  -2  334.13    9.92
   2  -1  -2  337.50    9.62
   2  -1  -2  312.67   10.61
  -2  -1   2  343.71   11.38
  -2   1   2  333.14   10.74
  -2  -1   2  340.60   10.77
   1   1  -2  773.17   21.15
  -1  -1   2  804.74   20.39
   1  -1  -2  779.31   20.71
   1  -1  -2  784.47   20.82
  -1   1   2  772.50   20.77
  -1   1   2  744.51   21.72
   1   1  -2  763.02   20.12
   1  -1  -2  771.59   21.68
  -1   1   2  724.87   22.91
   1  -1  -2  757.73   22.96
  -1  -1   2  773.42   22.15
  -1  -1   2  782.19   21.18
  -1  -1   2  796.11   21.79
   1   1  -2  768.64   21.71
   0   1  -2 2064.44   55.26
   0  -1  -2 2127.97   54.32
   0  -1  -2 2092.52   54.81
   0  -1   2 2094.73   54.34
   0   1  -2 2125.96   56.94
   0   1   2 2202.73   54.30
   0   1  -2 1985.39   54.29
   0  -1  -2 2070.12   57.20
   0  -1   2 2179.05   52.95
   0   1   2 2061.85   55.00
   0  -1   2 2104.20   57.07
   0   1   2 2062.57   57.39
   1  -1   2 2417.69   59.37
  -1  -1  -2 2419.93   63.41
   1  -1   2 2242.97   63.92
  -1   1  -2 2339.90   61.31
   1   1   2 2436.36   61.55
   1   1   2 2365.14   63.81
  -1  -1  -2 2307.13   61.39
   1  -1   2 2292.16   61.64
  -1   1  -2 2248.15   61.66
  -1   1  -2 2262.00   59.26
   1  -1   2 2438.44   61.38
   2  -1   2  140.43    6.41
   2  -1   2  130.18    6.61
  -2  -1  -2  143.51    5.90
  -2  -1  -2  128.37    4.78
  -2   1  -2  131.12    6.30
   2   1   2  139.26    4.90
  -2  -1  -2  141.70    6.42
   2   1   2  131.51    5.92
  -2  -1  -2  131.94    7.07
  -2   1  -2  136.63    6.16
  -2   1  -2  137.33    6.84
  -3  -1  -2 2038.42   54.57
   3  -1   2 2015.20   58.48
  -3   1  -2 2060.27   56.43
  -3  -1  -2 2027.88   57.18
  -3   1  -2 2025.50   54.77
   3   1   2 2084.11   57.30
  -3   1  -2 2056.25   56.60
   3   1   2 2117.76   54.55
  -3  -1  -2 2063.54   54.81
   4   1   2   -1.10    0.97
  -4  -1  -2   -2.53    2.33
   4  -1   2   -2.91    1.70
  -4   1  -2   -0.19    2.52
  -4  -1  -2   -1.06    1.47
  -4  -1  -2    0.61    1.99
  -4   1  -2   -0.41    1.85
  -4   1  -2    0.26    1.93
   4   1   2    0.18    1.92
  -5   1  -2  239.59   11.72
  -5  -1  -2  236.22   10.43
   5   1   2  232.70   10.94
   5  -1   2  231.02   11.91
  -5   1  -2  233.87   12.45
  -5  -1  -2  251.39   13.61
  -5  -1  -2  229.72   11.44
  -5   1  -2  224.41   11.49
  -6   1  -2  106.17    8.47
  -6  -1  -2  108.67    7.46
   6   1   2  103.59    7.82
  -6   1  -2  105.77    8.41
   6  -1   2  104.04    8.61
  -6  -1  -2   90.76    9.67
  -6  -1  -2  113.06    8.67
  -6   1  -2  112.80    9.25
  -7  -1  -2    3.39    4.54
  -7  -1  -2   -1.68    3.05
  -7   1  -2   -0.96    2.89
   7   1   2    0.59    3.12
  -7  -1  -2    0.03    2.88
   7  -1   2   -3.32    2.91
  -7   1  -2   -2.91    3.23
  -7   1  -2    0.14    3.06
  -8   1  -2    0.50    3.62
  -8   1  -2    5.78    4.31
  -8  -1  -2    1.22    4.62
   8  -1   2    2.38    3.91
  -8  -1  -2    0.27    3.66
  -8   1  -2   12.79    5.54
  -8  -2   2   49.07    6.79
  -8  -2   2   56.13    7.72
   8  -2  -2   46.98    7.43
  -8  -2   2   36.83    8.11
  -8   2   2   66.66    8.47
  -8   2   2   49.42    8.55
  -7   2   2    2.34    3.03
  -7   2   2    2.83    3.65
   7  -2  -2    8.08    3.73
  -7  -2   2   13.69    5.42
  -7  -2   2    3.11    3.48
  -7   2   2   12.25    3.78
  -7  -2   2    5.07    3.16
   6  -2  -2  107.47    8.37
  -6   2   2  100.24    7.28
  -6   2   2  100.67    8.04
  -6  -2   2  113.93    8.46
  -6   2   2  117.16    9.57
   6   2  -2  107.72    6.58
  -6  -2   2  111.04    9.44
  -6  -2   2  100.69    7.30
  -5   2   2   -0.65    2.05
  -5   2   2   -3.66    2.00
  -5  -2   2    1.26    1.90
   5   2  -2    0.05    1.56
  -5  -2   2    0.32    2.54
  -5  -2   2    0.07    2.86
  -5   2   2    3.75    2.46
  -4   2   2  735.69   23.45
  -4  -2   2  751.27   23.81
   4   2  -2  738.21   22.55
  -4   2   2  737.29   22.11
  -4  -2   2  743.17   21.94
  -4  -2   2  735.12   24.54
  -4   2   2  741.03   25.39
   3   2  -2  434.59   13.57
   3   2  -2  440.65   13.59
  -3  -2   2  429.37   15.50
   3   2  -2  451.57   14.94
  -3  -2   2  429.49   13.23
  -3  -2   2  434.72   14.91
  -3   2   2  424.53   13.29
   3  -2  -2  445.71   13.50
  -3   2   2  428.37   16.06
  -3   2   2  432.10   14.69
  -2  -2   2 1890.22   51.98
  -2  -2   2 1893.12   52.06
   2  -2  -2 1935.73   52.79
   2   2  -2 1976.10   52.16
   2  -2  -2 1967.83   50.00
  -2  -2   2 1934.11   52.63
   2   2  -2 1940.94   52.33
   2   2  -2 1984.25   48.93
  -2   2   2 1822.98   50.32
  -2  -2   2 2005.14   48.84
  -2   2   2 1891.94   52.91
  -2   2   2 1933.12   50.00
  -1  -2   2 1864.41   49.70
  -1   2   2 1801.84   47.61
  -1  -2   2 1899.94   50.36
  -1   2   2 1819.69   47.75
  -1   2   2 1781.27   49.45
   1  -2  -2 1891.34   47.70
  -1  -2   2 1850.59   49.46
   1  -2  -2 1855.74   47.50
   1   2  -2 1858.47   49.03
   1  -2  -2 1856.68   49.44
  -1  -2   2 1803.04   50.74
   0   2  -2   78.74    4.55
   0  -2   2   90.40    3.28
   0   2  -2   92.85    4.79
   0  -2  -2   82.73    4.01
   0  -2   2   85.51    4.44
   0   2   2   88.61    3.89
   0  -2  -2   89.44    3.87
   0   2  -2   86.51    3.19
   0  -2   2   91.88    4.70
   0  -2  -2   81.40    4.40
   0   2  -2   89.44    4.51
   0   2   2   81.77    4.73
   0  -2  -2   84.21    4.79
   1   2   2  584.85   17.41
  -1  -2  -2  569.88   17.18
  -1   2  -2  567.75   16.16
  -1   2  -2  587.97   18.13
  -1  -2  -2  571.56   15.53
   1  -2   2  548.81   17.84
  -1   2  -2  548.79   17.54
  -1  -2  -2  548.77   17.84
   1  -2   2  562.76   18.14
   1  -2   2  584.56   16.27
  -2  -2  -2 1734.54   46.02
  -2  -2  -2 1835.95   47.25
   2   2   2 1745.17   47.79
   2  -2   2 1685.98   49.42
  -2   2  -2 1697.19   47.37
  -2   2  -2 1725.59   45.63
  -2   2  -2 1603.78   47.79
  -2  -2  -2 1776.48   45.38
  -2  -2  -2 1690.62   48.03
  -3   2  -2 1204.12   36.72
   3  -2   2 1267.94   38.46
  -3   2  -2 1256.41   35.57
  -3  -2  -2 1253.77   33.96
   3   2   2 1258.25   35.94
  -3  -2  -2 1367.03   35.65
  -3   2  -2 1227.64   37.26
   3   2   2 1261.98   33.81
  -3  -2  -2 1224.44   35.48
  -3  -2  -2 1242.35   37.80
  -4   2  -2  941.76   30.48
  -4  -2  -2  970.94   31.86
   4   2   2  972.89   27.32
  -4   2  -2  973.77   30.90
   4   2   2  963.00   28.87
   4  -2   2  879.68   31.08
  -4  -2  -2  970.30   27.46
  -4   2  -2  946.68   29.41
  -4  -2  -2  964.58   29.26
  -5  -2  -2   24.64    5.57
  -5  -2  -2   18.94    4.28
  -5   2  -2   19.37    4.57
  -5   2  -2   23.39    4.68
  -5   2  -2   17.58    4.04
   5  -2   2   27.32    5.13
  -5  -2  -2   18.97    3.16
   5   2   2   18.93    3.51
  -6  -2  -2    2.47    4.21
  -6   2  -2   -0.95    2.62
  -6   2  -2    1.84    3.11
  -6  -2  -2    2.64    2.84
   6  -2   2    1.05    3.13
  -6   2  -2   -0.18    2.45
  -6  -2  -2   -0.75    1.99
   6   2   2   -2.73    2.52
  -7   2  -2   22.29    5.49
  -7   2  -2   21.63    5.39
  -7   2  -2   36.37    6.78
  -7  -2  -2   25.00    7.06
  -7  -2  -2   27.11    5.89
   7  -2   2   24.03    6.01
   8  -2   2   58.83    8.66
  -8  -2  -2   59.42    8.26
  -8   2  -2   68.58    9.22
  -8   2  -2   61.62    8.68
  -8  -2  -2   52.06   10.01
  -8   2  -2   72.38    9.39
   8  -3  -2    0.42    3.43
  -8   3   2   -1.74    3.30
  -8  -3   2    5.54    3.62
  -8   3   2    4.63    4.54
  -8  -3   2   -4.78    4.47
  -7  -3   2   37.88    6.14
  -7  -3   2   36.74    7.44
   7  -3  -2   45.66    7.05
  -7   3   2   46.83    6.74
  -7  -3   2   30.29    4.99
  -7   3   2   43.10    7.78
   6  -3  -2  139.24   10.21
  -6  -3   2  134.87   10.56
  -6   3   2  142.42    9.70
  -6   3   2  138.13   10.84
  -6  -3   2  160.15    9.76
  -6  -3   2  150.97    8.57
  -6   3   2  138.25    8.32
   5   3  -2    0.87    1.38
  -5   3   2    4.04    2.67
  -5  -3   2    2.39    2.67
  -5  -3   2    6.62    2.47
  -5   3   2   -1.71    2.50
  -5  -3   2    2.95    3.61
  -5   3   2    4.71    2.42
   4   3  -2  233.93    7.25
  -4  -3   2  256.61    9.44
  -4  -3   2  226.72   11.89
  -4   3   2  253.20    9.73
  -4  -3   2  236.24   10.67
  -4   3   2  237.49   12.25
  -4   3   2  230.95   10.86
  -3   3   2  322.55   13.55
  -3  -3   2  324.11   10.38
  -3  -3   2  310.61   12.03
  -3  -3   2  315.62   13.37
  -3   3   2  336.72   11.16
  -3   3   2  319.87   12.32
  -2  -3   2  507.54   13.94
  -2  -3   2  484.82   14.69
  -2  -3   2  500.93   16.74
  -2  -3   2  487.12   16.38
  -2   3   2  490.72   15.31
   2  -3  -2  537.72   15.53
  -2   3   2  494.54   17.48
   2   3  -2  527.79   14.44
  -2   3   2  499.95   16.20
   1   3  -2   10.55    2.40
  -1   3   2   15.06    2.57
  -1  -3   2   13.71    1.85
   1   3  -2   12.74    1.71
  -1   3   2   10.19    1.95
  -1  -3   2   12.27    2.45
  -1  -3   2   12.79    1.08
  -1   3   2   13.75    2.22
   1  -3  -2    9.94    2.18
   0  -3  -2 1410.52   38.51
   0   3  -2 1387.00   40.24
   0  -3   2 1473.37   36.36
   0   3  -2 1470.35   36.47
   0  -3  -2 1338.72   38.91
   0  -3   2 1457.18   40.10
   0  -3   2 1407.38   40.24
   0   3  -2 1369.31   39.47
   0   3   2 1448.89   38.87
   1  -3   2    7.77    2.13
   1   3   2    8.96    1.50
   1   3   2    7.13    1.81
  -1   3  -2    5.11    2.17
   1  -3   2    7.60    1.72
  -1  -3  -2    7.23    1.37
  -1   3  -2    8.68    1.72
  -1  -3  -2    8.43    2.08
  -1  -3  -2   11.31    2.72
  -1   3  -2    7.28    2.22
  -2  -3  -2   68.77    3.72
   2  -3   2   61.77    4.98
  -2   3  -2   75.27    4.74
  -2  -3  -2   72.03    3.21
   2   3   2   74.19    4.08
  -2   3  -2   73.93    5.72
  -2   3  -2   67.25    5.27
  -2  -3  -2   70.12    5.97
  -2  -3  -2   70.13    3.18
   3   3   2   23.54    2.70
  -3  -3  -2   25.27    2.10
  -3   3  -2   17.52    3.67
  -3   3  -2   19.11    3.29
  -3  -3  -2   23.26    3.80
   3  -3   2   22.07    3.94
  -3   3  -2   17.91    3.86
  -3  -3  -2   16.29    4.13
  -3  -3  -2   20.20    2.08
  -4   3  -2  133.81    8.03
  -4   3  -2  129.99    8.36
  -4   3  -2  130.57    8.75
  -4  -3  -2  127.05    5.79
   4   3   2  129.25    5.80
   4  -3   2  123.14    8.64
  -4  -3  -2  122.93    7.66
   4   3   2  114.54    6.30
  -4  -3  -2  125.65    9.41
  -5  -3  -2   78.22    6.86
   5   3   2   66.33    5.41
  -5   3  -2   67.14    7.08
  -5  -3  -2   70.27    4.85
   5  -3   2   76.61    7.83
  -5   3  -2   53.03    6.34
  -5   3  -2   71.57    7.70
  -5  -3  -2   72.26    8.61
  -6   3  -2  153.34   10.44
  -6   3  -2  127.27    9.56
  -6  -3  -2  127.94    9.24
   6  -3   2  125.26   10.13
  -6  -3  -2  138.06   11.84
  -6   3  -2  128.10   10.27
  -7  -3  -2    1.80    4.71
  -7  -3  -2    0.52    3.42
  -7   3  -2    3.13    3.73
  -7   3  -2    4.82    3.74
  -7   3  -2    3.81    3.44
   7  -3   2   -4.78    2.91
  -8   3  -2   -3.60    3.45
  -8   4   2    0.75    3.60
   8  -4  -2    4.58    4.14
  -8  -4   2   -6.77    5.09
  -8   4   2   -3.21    3.77
  -7   4   2   27.49    5.87
  -7   4   2   34.46    7.52
   7  -4  -2   23.84    5.59
  -7  -4   2   21.42    4.59
  -7  -4   2   19.88    6.49
  -6  -4   2   13.11    5.21
   6  -4  -2    6.76    3.70
  -6  -4   2    9.20    3.70
  -6   4   2   10.26    3.33
  -6   4   2   12.04    4.60
  -6  -4   2   14.06    3.53
  -6   4   2   10.22    3.78
  -5   4   2  103.98    7.85
  -5  -4   2   96.98    7.25
  -5  -4   2   98.97    9.65
  -5   4   2   93.40    6.44
   5  -4  -2   97.80    8.29
  -5  -4   2   95.10    6.15
  -5   4   2   84.34    8.83
  -4  -4   2  533.74   18.46
  -4   4   2  480.32   20.62
  -4  -4   2  532.96   16.34
  -4   4   2  518.74   18.94
  -4   4   2  510.60   17.31
  -4  -4   2  511.73   20.60
  -3  -4   2   32.53    3.93
  -3   4   2   27.26    4.61
  -3  -4   2   31.66    5.18
  -3   4   2   28.91    3.47
  -3   4   2   33.26    4.28
  -3  -4   2   33.17    2.85
  -2  -4   2  212.12    7.58
  -2  -4   2  230.04    7.51
  -2  -4   2  223.91    9.64
  -2  -4   2  220.51    7.09
  -2   4   2  215.18    9.47
  -2   4   2  228.20    9.18
  -2   4   2  217.99   10.55
  -1   4   2  735.17   23.73
   1   4  -2  738.92   24.01
  -1   4   2  741.38   22.39
   1   4  -2  735.24   24.01
  -1  -4   2  750.34   22.39
  -1  -4   2  765.12   19.85
  -1   4   2  747.80   22.78
   0   4  -2  324.15   12.87
   0  -4   2  319.75   12.03
   0  -4   2  328.29   10.14
   0   4  -2  312.32   10.07
   0   4  -2  330.46   13.28
   0  -4  -2  327.66   11.65
   0   4   2  302.48   11.72
   0  -4  -2  327.64   12.62
   1   4   2   42.75    3.35
  -1  -4  -2   27.53    4.22
  -1   4  -2   39.31    3.29
  -1   4  -2   25.47    4.08
   1  -4   2   41.31    4.28
  -1   4  -2   37.42    4.41
  -1  -4  -2   34.83    2.97
  -2  -4  -2   58.51    3.42
  -2   4  -2   63.43    5.40
  -2  -4  -2   60.58    3.93
  -2  -4  -2   55.94    3.44
  -2   4  -2   60.32    4.43
   2  -4   2   66.39    5.72
  -2  -4  -2   63.07    6.36
  -2   4  -2   56.51    5.93
  -3   4  -2  627.07   20.83
   3  -4   2  627.42   23.27
  -3   4  -2  616.86   21.98
  -3  -4  -2  635.15   20.93
  -3   4  -2  637.28   23.49
  -3  -4  -2  665.59   18.49
  -3  -4  -2  617.31   18.26
  -3  -4  -2  616.81   23.45
  -4   4  -2   28.54    4.99
  -4  -4  -2   29.07    2.92
   4  -4   2   27.19    5.01
  -4  -4  -2   26.94    6.06
  -4   4  -2   25.95    5.25
  -4  -4  -2   27.85    4.42
  -4   4  -2   20.65    4.17
  -5   4  -2    1.75    2.73
   5  -4   2   -3.29    2.50
  -5  -4  -2   -0.59    3.70
  -5   4  -2    0.63    3.01
  -5  -4  -2    2.37    2.92
  -5   4  -2   -0.63    2.16
  -6  -4  -2   19.96    6.27
   6  -4   2   16.80    5.15
  -6  -4  -2   23.74    5.26
  -6   4  -2   20.85    5.07
  -6   4  -2   20.03    5.59
  -6   4  -2   25.58    5.54
   7  -4   2   10.10    4.92
  -7   4  -2   26.75    6.71
  -7   4  -2   17.34    5.20
  -7   4  -2   24.53    5.52
  -7  -4  -2    8.30    5.58
  -7  -4  -2   14.75    4.78
  -7   5   2   -3.28    2.98
  -7   5   2    2.20    4.30
   7  -5  -2    3.00    3.69
  -7  -5   2   -3.32    4.57
  -6   5   2    0.39    2.60
  -6  -5   2   -1.34    2.95
   6  -5  -2    1.98    3.10
  -6  -5   2    2.08    4.22
  -6   5   2   -1.02    3.43
  -5   5   2   10.92    4.64
  -5   5   2   12.09    3.36
  -5  -5   2   13.32    5.18
  -5  -5   2   13.99    3.86
   5  -5  -2   12.68    4.20
  -5  -5   2   14.16    3.13
  -5   5   2    9.55    3.59
  -4  -5   2   29.09    6.13
  -4   5   2   41.77    4.72
  -4  -5   2   34.96    4.66
  -4   5   2   45.25    6.70
  -4   5   2   37.54    5.26
  -4  -5   2   48.71    4.02
  -3  -5   2   93.51    4.99
  -3   5   2   94.78    7.80
  -3   5   2   96.93    6.32
  -3  -5   2   92.06    6.37
  -3  -5   2   98.25    8.37
  -3   5   2   92.65    6.82
  -2  -5   2    7.07    1.84
  -2   5   2    2.05    2.11
  -2  -5   2    6.03    1.45
  -2  -5   2    9.46    2.67
  -2   5   2    5.23    2.40
  -2   5   2    6.77    3.08
  -1   5   2    7.29    2.71
   1   5  -2    7.05    2.82
  -1   5   2   10.47    2.65
   1   5  -2    5.50    2.73
  -1  -5   2    8.56    1.65
  -1  -5   2    5.35    2.18
  -1   5   2    5.45    2.46
   0  -5  -2   99.84    7.21
   0   5  -2  100.23    5.04
   0   5   2  104.08    6.60
   0  -5   2  113.73    6.73
   0   5  -2  110.73    7.66
   0   5  -2  100.98    7.25
   1   5   2    2.33    1.77
  -1   5  -2   -1.14    1.95
  -1  -5  -2   -0.88    2.41
  -1   5  -2    2.25    1.62
  -1   5  -2   -3.23    1.53
   1  -5   2    0.75    2.06
  -2  -5  -2   15.20    2.49
  -2  -5  -2    9.02    3.84
  -2   5  -2   18.48    4.36
  -2  -5  -2   15.20    2.43
  -2  -5  -2   15.64    2.81
   2  -5   2   15.68    3.79
  -2   5  -2   19.33    3.26
  -2   5  -2   11.32    3.43
  -3  -5  -2   30.73    2.98
  -3   5  -2   28.73    5.03
  -3   5  -2   21.42    4.83
   3  -5   2   28.74    5.24
  -3  -5  -2   25.49    4.21
  -3  -5  -2   19.12    5.29
  -3   5  -2   25.11    4.18
  -3  -5  -2   25.85    2.78
  -4  -5  -2   19.42    4.24
   4  -5   2   26.32    5.62
  -4  -5  -2   20.28    5.66
  -4   5  -2   30.71    5.21
  -4   5  -2   30.03    4.89
  -4   5  -2   21.00    5.22
  -5   5  -2    2.66    3.48
   5  -5   2    5.62    3.88
  -5   5  -2    7.73    3.63
  -5   5  -2   12.12    3.82
  -5  -5  -2    3.95    4.39
  -5  -5  -2    5.77    3.50
  -6   5  -2   25.59    5.66
  -6   5  -2   10.75    4.20
  -6  -5  -2    7.89    5.51
  -6   5  -2   13.44    5.40
  -6  -5  -2    9.58    4.28
   6  -5   2   11.47    4.80
  -7  -5  -2    4.35    3.99
  -7   5  -2   11.59    4.56
   7  -5   2    2.57    4.46
  -7   5  -2    2.26    3.33
  -7   5  -2    0.40    4.18
  -7  -5  -2    4.84    5.52
  -7   6   2   23.46    5.97
  -7   6   2   18.07    6.78
  -7  -6   2   20.89    7.42
   7  -6  -2   21.72    6.31
  -6   6   2    4.82    3.67
   6  -6  -2   -0.54    3.18
  -6  -6   2    2.17    4.83
  -6   6   2    8.31    4.89
  -5  -6   2    4.66    3.14
  -5   6   2    1.87    3.12
  -5   6   2   14.40    5.25
  -5  -6   2   16.04    6.14
  -5   6   2   12.75    3.70
   5  -6  -2   11.84    4.38
   4  -6  -2    3.98    3.28
  -4   6   2    6.49    3.80
  -4   6   2    7.59    3.45
  -4   6   2   10.05    3.31
  -4  -6   2    3.63    4.07
  -4  -6   2    5.08    2.92
  -3   6   2   37.58    5.18
  -3   6   2   33.82    5.96
  -3  -6   2   29.24    4.49
  -3   6   2   40.15    5.14
  -3  -6   2   37.47    6.71
  -3  -6   2   40.14    3.59
  -2   6   2  448.82   16.86
  -2   6   2  435.54   16.56
  -2  -6   2  419.74   14.08
  -2   6   2  407.10   17.94
  -2  -6   2  391.40   16.14
  -1   6   2    7.49    2.71
   1   6  -2    5.85    3.01
  -1   6   2    6.19    2.92
   1   6  -2    3.74    2.88
  -1  -6   2    1.54    2.03
  -1   6   2    3.80    2.65
   0   6  -2   10.86    3.79
   0  -6   2   11.67    3.16
   0  -6  -2   13.69    4.11
   0   6   2   14.42    3.46
   0   6  -2    9.03    3.37
   0   6  -2   11.20    2.22
  -1  -6  -2   -1.14    2.89
  -1   6  -2   -0.93    1.51
   1   6   2    0.19    1.91
   1  -6   2   -1.26    2.26
  -1   6  -2   -0.38    2.20
  -1   6  -2   -0.36    2.40
   2  -6   2  303.74   14.45
  -2   6  -2  291.72   12.21
  -2   6  -2  290.69   15.20
  -2  -6  -2  284.24   15.06
  -2  -6  -2  288.24   11.20
  -2   6  -2  270.20   13.70
  -3   6  -2   38.24    4.95
  -3   6  -2   30.38    5.31
  -3   6  -2   38.77    6.59
   3  -6   2   51.91    6.86
  -3  -6  -2   38.06    7.15
  -3  -6  -2   41.44    3.86
  -4   6  -2   92.82    7.39
  -4  -6  -2  114.42   11.26
  -4  -6  -2   89.42    7.40
  -4   6  -2   78.73    9.27
  -4   6  -2   93.89    8.05
   4  -6   2   77.64    8.60
  -5   6  -2   23.10    4.93
  -5   6  -2   33.08    6.12
   5  -6   2   30.07    6.29
  -5   6  -2   26.22    6.45
  -5  -6  -2   17.82    6.40
  -5  -6  -2   29.09    5.49
  -6   6  -2   -4.84    2.45
  -6  -6  -2    4.77    5.38
  -6  -6  -2   -2.76    3.09
   6  -6   2   -0.98    3.35
  -6   6  -2   -1.33    3.36
  -6   6  -2    3.29    3.50
  -6   7   2   29.56    7.60
  -6  -7   2   38.63    9.43
   6  -7  -2   38.03    7.44
  -6   7   2   24.70    5.87
  -5   7   2    8.88    4.62
  -5   7   2    3.84    3.08
   5  -7  -2    7.03    3.92
  -5  -7   2    2.32    4.92
  -4  -7   2   20.38    4.52
   4  -7  -2   14.14    4.44
  -4   7   2   24.11    4.90
  -4   7   2   13.22    4.08
  -4  -7   2   19.31    6.38
  -4   7   2   24.75    5.99
  -3  -7   2    3.74    2.68
  -3   7   2    1.71    2.53
  -3   7   2    3.58    3.11
  -3  -7   2    2.86    4.10
   3  -7  -2   -1.22    2.62
  -3   7   2   -0.58    2.77
   2  -7  -2   70.52    7.18
  -2  -7   2   50.02    5.94
  -2   7   2   52.47    6.38
  -2   7   2   63.38    7.61
  -2   7   2   50.72    5.86
  -2  -7   2   67.60    8.83
   1   7  -2    3.64    2.95
  -1  -7   2   -0.58    2.25
   1  -7  -2    0.05    2.32
  -1   7   2   -1.93    2.23
   0   7  -2  127.28    9.76
   0  -7  -2  122.21    7.76
   0   7  -2  129.46    9.77
   0  -7   2  114.62    7.98
   0  -7  -2  130.20    9.72
   0   7   2  118.31    8.50
  -1   7  -2   -0.36    1.91
   1   7   2   -0.98    2.04
  -1   7  -2    1.81    2.86
  -1  -7  -2    3.47    2.19
  -1   7  -2    2.15    2.92
  -1  -7  -2   -0.60    2.96
   1  -7   2    0.75    2.61
  -2   7  -2    1.95    2.88
  -2  -7  -2    5.49    4.08
  -2  -7  -2    7.01    2.60
   2  -7   2    5.30    3.35
  -2   7  -2    6.79    3.77
  -2   7  -2    6.00    2.95
  -3   7  -2    2.14    3.10
   3  -7   2    3.66    3.54
  -3  -7  -2    5.90    4.64
  -3   7  -2    2.99    2.77
  -3   7  -2    7.58    3.82
  -4  -7  -2   16.03    6.38
   4  -7   2    7.75    4.35
  -4   7  -2   10.24    4.96
  -4   7  -2    4.80    3.27
  -4   7  -2    9.99    4.19
  -4  -7  -2    6.63    3.97
  -5  -7  -2    3.92    5.47
  -5   7  -2    4.70    3.50
  -5   7  -2    5.11    4.20
  -5   7  -2    2.17    3.40
   5  -7   2    4.55    4.03
  -5   8   2    4.51    4.49
  -5  -8   2   -2.02    4.63
  -5   8   2   -3.29    3.16
   5  -8  -2   -0.01    3.41
  -4  -8   2  249.22   17.15
  -4   8   2  247.80   16.44
   4  -8  -2  252.49   15.34
  -4   8   2  245.42   14.15
  -3  -8   2  160.90   10.36
  -3   8   2  172.72   11.26
  -3   8   2  167.26   12.67
  -3  -8   2  163.82   13.54
  -3   8   2  184.51   11.32
   3  -8  -2  147.79   11.14
  -2   8   2  107.67    8.33
  -2   8   2  103.42    8.95
  -2   8   2   76.00    9.05
  -2  -8   2  103.76   11.11
  -2  -8   2   99.21    8.00
   2  -8  -2  112.55    9.07
  -1   8   2  285.20   15.20
   1  -8  -2  266.27   13.51
   1   8  -2  246.92   15.14
   1  -8  -2  255.86   14.28
   0   8   2   -3.06    2.37
   0   8  -2   -2.70    2.90
   0  -8   2   -2.58    2.39
   0   8  -2    0.15    3.14
   0  -8  -2   -5.61    2.84
   0  -8  -2    0.55    2.40
  -1  -8  -2   52.12    8.20
  -1   8  -2   59.47    5.66
   1  -8   2   39.39    6.08
  -1   8  -2   46.52    7.37
   1   8   2   57.23    6.74
  -1   8  -2   40.28    7.31
   2  -8   2  219.26   13.37
  -2   8  -2  192.10   12.90
  -2  -8  -2  205.48   14.25
  -2   8  -2  221.75   14.70
  -2   8  -2  216.38   11.28
  -3   8  -2  453.78   20.92
  -3   8  -2  408.11   22.18
   3  -8   2  427.99   21.01
  -3   8  -2  480.71   19.01
  -3  -8  -2  438.91   22.73
   4  -8   2  122.49   11.78
  -4   8  -2   86.22   11.29
  -4   8  -2  113.05    9.35
  -4  -8  -2  113.80   12.81
  -4   8  -2  133.97   11.05
  -3   9   2   49.49    7.21
  -3   9   2   58.10    9.37
  -3  -9   2   77.85   11.52
   3  -9  -2   48.81    7.45
  -3   9   2   72.15    8.87
  -2  -9   2   42.33    8.59
  -2   9   2   46.09    8.33
  -2  -9   2   36.11    6.27
   2  -9  -2   31.51    6.27
  -1   9   2  106.56   10.59
   1  -9  -2  123.06    9.23
   1  -9  -2  144.01   11.05
   0  -9  -2   32.87    6.97
   0   9   2   20.62    5.15
   0   9  -2   28.12    6.96
   0   9  -2   20.41    6.09
  -1   9  -2   72.06    9.40
  -1   9  -2   77.69   10.17
   1  -9   2   68.53    7.90
  -1  -9  -2   67.71    9.78
  -2   9  -2    3.74    4.50
  -2   9  -2    4.43    4.32
   2  -9   2    2.11    3.79
  -2  -9  -2   10.93    5.79
  -3  -9  -2   30.84    8.32
  -3   9  -2   30.13    7.70
   3  -9   2   14.30    5.39
  -3   9  -2   14.02    5.24
  -8   0   3   -1.58    2.90
  -8   0   3    0.69    3.70
   8   0  -3   -0.48    3.03
  -7   0   3   -2.48    3.09
   7   0  -3   -3.12    2.30
  -7   0   3   -2.16    3.14
  -7   0   3    5.86    3.28
  -6   0   3   -0.01    2.32
  -6   0   3   -2.10    2.85
  -6   0   3    2.28    3.38
  -5   0   3    3.02    2.21
  -5   0   3   -0.34    2.34
  -5   0   3    0.49    2.39
  -4   0   3   -0.67    1.73
  -4   0   3    2.27    1.59
  -4   0   3    1.72    2.03
  -3   0   3    1.00    1.13
  -3   0   3   -1.27    1.30
  -3   0   3    1.79    1.74
  -2   0   3    1.46    1.55
  -2   0   3    0.82    0.97
  -2   0   3   -0.63    1.56
  -2   0   3   -0.06    0.86
   2   0  -3    0.15    0.89
   2   0  -3   -2.95    1.45
   2   0  -3    1.68    1.35
  -2   0   3   -0.34    0.67
  -1   0   3    0.85    0.77
   1   0  -3    0.47    1.58
  -1   0   3   -0.02    1.58
   1   0  -3   -1.00    0.85
  -1   0   3    0.25    1.00
   1   0  -3   -0.08    0.70
  -1   0   3   -0.36    0.51
   1   0  -3   -0.13    0.59
   0   0  -3   -0.64    1.49
   0   0   3   -2.59    1.13
   0   0  -3    1.57    1.07
   0   0  -3   -3.56    1.08
   0   0   3   -3.30    0.75
   0   0   3   -1.50    1.53
   1   0   3   -1.18    0.56
  -1   0  -3   -1.29    1.17
  -1   0  -3    2.24    1.36
  -1   0  -3   -1.63    0.70
  -1   0  -3    0.04    1.41
   1   0   3    1.52    1.56
   2   0   3   -3.32    1.49
  -2   0  -3   -3.71    0.91
  -2   0  -3   -5.56    1.65
  -2   0  -3   -3.71    1.20
   2   0   3   -1.74    1.12
   3   0   3   -0.21    1.36
  -3   0  -3   -3.52    2.07
   3   0   3   -2.01    1.65
  -3   0  -3   -0.88    1.17
  -3   0  -3   -0.17    1.60
  -4   0  -3   -1.85    1.73
  -4   0  -3    1.32    2.85
   4   0   3   -0.53    2.02
  -4   0  -3    0.42    1.66
  -5   0  -3    1.83    3.33
  -5   0  -3   -0.79    1.94
  -5   0  -3   -4.10    1.86
   5   0   3   -1.23    2.24
   6   0   3   -1.28    2.73
  -6   0  -3   -0.17    3.51
  -6   0  -3    2.54    2.93
  -6   0  -3    0.16    2.44
  -7   0  -3   -0.24    3.21
  -7   0  -3   -3.61    3.73
  -7   0  -3    0.61    2.92
   7   0   3   -1.61    3.14
  -8   0  -3   -0.59    4.56
  -8   0  -3   -0.22    3.74
  -8  -1   3   -2.68    2.91
  -8  -1   3    2.03    3.81
  -8  -1   3   -1.71    4.05
  -8   1   3    3.50    4.11
   8  -1  -3    1.74    3.13
  -8   1   3    0.94    3.42
  -7   1   3    7.14    3.41
  -7   1   3    6.17    4.21
  -7  -1   3    0.85    3.75
  -7  -1   3    8.75    4.13
   7  -1  -3    4.52    3.36
  -7  -1   3    4.72    3.07
   7   1  -3    4.36    2.87
  -7   1   3    5.70    3.46
  -6  -1   3  427.10   18.32
  -6  -1   3  419.24   16.33
  -6  -1   3  421.71   17.68
  -6   1   3  407.68   18.79
   6   1  -3  437.70   16.37
  -6   1   3  406.49   16.88
  -6   1   3  421.31   16.08
  -5  -1   3   10.54    2.75
  -5  -1   3    9.50    3.43
  -5   1   3    8.34    2.82
  -5  -1   3    9.89    3.68
  -5   1   3   10.64    2.96
  -5   1   3    8.02    3.48
   4  -1  -3   17.44    2.57
  -4   1   3   21.23    3.29
  -4   1   3   17.61    3.78
  -4  -1   3   22.05    3.59
  -4  -1   3   14.88    3.34
  -4  -1   3   17.11    2.64
  -4   1   3   17.30    2.48
  -3   1   3  264.32    9.85
  -3   1   3  266.47   11.16
  -3   1   3  257.98    8.23
   3   1  -3  262.34    9.05
  -3  -1   3  255.59    8.88
  -3  -1   3  263.25   10.69
  -3  -1   3  262.24    9.91
   3  -1  -3  261.91    8.22
   2   1  -3 1538.68   42.76
   2  -1  -3 1581.21   42.97
   2   1  -3 1542.66   41.22
  -2   1   3 1559.54   45.15
  -2  -1   3 1601.75   39.78
  -2  -1   3 1549.36   43.79
  -2   1   3 1546.40   40.94
  -2  -1   3 1601.77   41.35
   2   1  -3 1571.78   43.84
   2   1  -3 1541.18   39.65
  -2  -1   3 1538.99   42.89
  -2   1   3 1553.31   43.24
  -1   1   3  198.72    5.84
  -1  -1   3  177.06    7.19
   1  -1  -3  191.02    5.82
   1   1  -3  202.75    7.70
  -1   1   3  186.30    6.73
   1   1  -3  186.27    5.47
   1   1  -3  192.55    7.33
  -1  -1   3  204.66    6.96
   1  -1  -3  188.27    6.63
  -1   1   3  174.28    7.92
   1   1  -3  177.12    6.68
  -1   1   3  186.55    7.17
   1  -1  -3  187.94    7.05
  -1  -1   3  194.89    7.81
   1  -1  -3  182.69    8.24
   0   1  -3 1325.48   35.84
   0  -1   3 1333.11   36.28
   0   1   3 1262.07   37.96
   0  -1   3 1357.56   37.72
   0   1   3 1388.42   35.65
   0   1  -3 1407.51   37.70
   0   1  -3 1164.55   33.94
   0  -1  -3 1353.61   35.16
   0  -1  -3 1361.22   38.02
   0   1   3 1340.57   35.30
   0  -1  -3 1359.72   35.60
  -1  -1  -3  748.04   21.54
   1   1   3  697.84   19.58
  -1   1  -3  695.52   19.89
  -1   1  -3  695.05   20.83
   1   1   3  738.67   21.94
  -1   1  -3  689.92   21.23
   1  -1   3  730.34   20.13
   1  -1   3  707.48   20.84
   1   1   3  721.78   19.58
   1  -1   3  685.40   21.81
  -1  -1  -3  688.75   21.30
  -2   1  -3  202.22    9.43
  -2   1  -3  210.83    8.63
   2  -1   3  238.08    9.10
  -2   1  -3  218.10    8.79
  -2  -1  -3  217.11    6.89
  -2  -1  -3  219.96    9.11
   2   1   3  215.46    8.87
   2   1   3  220.73    6.94
   2  -1   3  222.09    9.47
  -2  -1  -3  215.62    9.92
   3   1   3   85.62    4.39
  -3  -1  -3   88.47    7.02
   3   1   3   87.77    5.57
   3  -1   3   89.02    6.27
  -3  -1  -3   80.94    4.21
  -3   1  -3   83.81    5.51
  -3   1  -3   77.57    6.21
  -3  -1  -3   83.35    5.80
  -3   1  -3   82.47    5.57
  -4  -1  -3  178.90    9.35
   4   1   3  188.82    9.11
   4   1   3  172.50    7.68
  -4   1  -3  169.99    8.87
   4  -1   3  171.32    9.59
  -4   1  -3  172.60    9.21
  -4  -1  -3  161.64   10.40
  -4  -1  -3  170.29    7.56
  -4   1  -3  161.62    9.90
  -5   1  -3   -1.05    2.93
  -5   1  -3   -2.04    1.89
  -5  -1  -3   -2.82    1.50
   5  -1   3   -0.51    2.47
  -5   1  -3   -1.58    2.06
  -5  -1  -3   -0.17    2.43
  -5  -1  -3    5.07    3.89
   5   1   3    1.24    2.59
  -6  -1  -3   36.49    7.34
  -6   1  -3   37.38    5.90
  -6  -1  -3   47.60    5.22
  -6   1  -3   34.61    6.52
  -6  -1  -3   43.73    6.31
  -6   1  -3   42.85    6.02
   6   1   3   43.33    5.72
   6  -1   3   34.79    5.98
  -7   1  -3    5.15    3.39
   7   1   3    5.07    3.82
  -7   1  -3    0.07    2.92
  -7  -1  -3   -0.04    3.17
  -7  -1  -3    5.27    4.96
   7  -1   3   -1.65    3.33
  -7   1  -3    0.34    3.89
  -8  -1  -3    8.28    4.86
  -8   1  -3    7.37    4.64
   8  -1   3    0.92    4.19
  -8  -1  -3    1.01    5.36
  -8   1  -3   10.55    5.55
  -8  -2   3    1.49    3.76
  -8  -2   3    4.78    3.36
   8  -2  -3    5.59    3.88
  -8   2   3    2.20    3.78
  -8   2   3    5.79    4.57
  -8  -2   3   -0.82    4.81
  -7  -2   3   -0.45    4.01
  -7   2   3   -0.32    3.68
   7  -2  -3    0.05    2.69
  -7   2   3    1.73    3.20
  -7  -2   3   -1.24    3.03
  -7  -2   3   -0.17    2.45
  -6  -2   3  467.45   19.38
   6   2  -3  478.74   16.70
  -6   2   3  478.00   18.95
  -6   2   3  468.12   16.80
  -6   2   3  443.30   20.55
  -6  -2   3  497.13   20.09
  -6  -2   3  475.02   17.41
  -5   2   3  368.33   16.57
  -5   2   3  343.77   14.50
  -5  -2   3  360.94   13.23
  -5  -2   3  360.09   15.22
  -5  -2   3  363.66   15.61
  -5   2   3  351.84   12.72
  -4  -2   3  517.09   16.03
  -4  -2   3  503.34   18.26
  -4   2   3  507.49   15.57
  -4  -2   3  498.18   18.31
  -4   2   3  526.76   17.86
   4  -2  -3  519.16   15.67
  -4   2   3  524.93   19.70
  -3  -2   3  283.43   11.37
  -3   2   3  290.94   12.33
  -3  -2   3  285.57   11.49
  -3   2   3  285.17    8.86
   3  -2  -3  284.12    8.96
  -3  -2   3  303.13    9.34
   3   2  -3  290.67   10.41
   3   2  -3  291.13    9.53
  -3   2   3  275.84   10.88
  -2  -2   3 2105.17   58.07
   2   2  -3 2187.16   57.47
   2  -2  -3 2123.62   54.29
   2  -2  -3 2145.79   57.59
   2   2  -3 2105.63   56.25
  -2  -2   3 2121.41   53.21
  -2  -2   3 2039.94   57.16
  -2   2   3 2032.67   57.73
   2   2  -3 2142.71   53.21
  -2   2   3 2154.46   54.47
   2   2  -3 2178.87   57.81
  -2   2   3 2080.00   55.21
  -1  -2   3  262.73    9.98
   1  -2  -3  251.29    9.23
  -1   2   3  251.25    9.03
   1   2  -3  268.28    9.22
   1  -2  -3  259.54    8.11
   1   2  -3  265.02    9.66
  -1   2   3  263.20   10.70
   1  -2  -3  256.42    8.33
  -1   2   3  255.27    9.40
  -1  -2   3  262.24    9.44
   0  -2   3 4006.46  103.50
   0   2   3 4184.52  101.71
   0   2   3 3836.06  107.25
   0  -2  -3 3982.37  101.89
   0   2   3 3895.02  102.13
   0  -2  -3 4059.72  107.23
   0   2  -3 3871.18  101.97
   0  -2   3 3891.87  106.69
   0   2  -3 3898.38  103.68
   0  -2  -3 3948.01  101.59
   0  -2   3 4105.64   98.40
   0   2  -3 3889.37   98.41
  -1   2  -3  814.11   24.71
  -1  -2  -3  842.11   24.55
   1  -2   3  845.14   22.69
  -1   2  -3  784.85   24.32
  -1   2  -3  775.08   22.40
   1   2   3  820.82   24.80
  -1  -2  -3  818.52   24.62
   1  -2   3  791.96   25.10
   1  -2   3  848.17   24.73
   2  -2   3  449.22   16.65
  -2   2  -3  484.97   16.52
   2   2   3  477.29   15.77
  -2   2  -3  443.90   14.98
  -2  -2  -3  458.54   15.73
  -2   2  -3  466.71   16.57
  -2  -2  -3  490.27   15.17
  -2  -2  -3  472.91   17.00
   3  -2   3  664.42   23.47
  -3   2  -3  698.02   22.90
  -3  -2  -3  672.50   21.94
  -3  -2  -3  635.17   23.44
  -3   2  -3  670.90   23.04
  -3   2  -3  688.24   21.78
   3   2   3  703.92   21.85
   3   2   3  700.87   18.91
  -3  -2  -3  701.34   19.00
  -4  -2  -3   68.67    4.07
   4   2   3   69.59    5.51
  -4  -2  -3   60.82    7.14
  -4   2  -3   74.09    6.27
   4   2   3   75.31    4.23
  -4   2  -3   72.52    7.02
  -4   2  -3   59.72    5.77
   4  -2   3   71.42    6.75
  -4  -2  -3   71.57    5.99
  -5  -2  -3  203.40    8.69
  -5  -2  -3  191.39   12.62
   5   2   3  212.87   10.31
  -5  -2  -3  212.84   11.12
  -5   2  -3  197.64   11.31
  -5   2  -3  171.20   11.14
   5  -2   3  199.48   11.80
  -5   2  -3  187.56   10.76
  -6   2  -3   12.48    4.20
  -6  -2  -3    9.14    3.89
   6   2   3   17.00    4.36
  -6   2  -3   17.89    5.09
   6  -2   3   13.62    4.49
  -6  -2  -3   15.54    5.99
  -6   2  -3    8.11    3.81
   7  -2   3   53.22    8.03
  -7  -2  -3   41.02    8.54
  -7   2  -3   47.11    7.85
  -7   2  -3   50.78    7.64
  -7   2  -3   47.78    7.50
  -7  -2  -3   43.07    6.93
  -8  -2  -3    0.65    5.54
  -8   2  -3    1.21    3.85
  -8   2  -3    6.26    4.73
  -8  -2  -3   -1.83    3.88
  -8  -3   3   30.64    7.70
  -8   3   3   34.84    7.91
  -8  -3   3   24.38    6.37
  -8   3   3   22.74    5.91
   8  -3  -3   18.24    5.35
  -8  -3   3   35.56    6.10
   7  -3  -3   57.32    7.50
  -7  -3   3   61.29    7.51
  -7   3   3   52.08    8.12
  -7   3   3   46.84    7.12
  -7  -3   3   67.51    8.96
  -7  -3   3   45.95    5.77
  -6  -3   3  641.40   25.24
  -6   3   3  665.34   21.22
  -6   3   3  681.72   26.91
  -6   3   3  647.52   24.06
  -6  -3   3  645.36   24.09
  -6  -3   3  614.52   21.23
  -5  -3   3  338.09   12.36
  -5  -3   3  317.94   15.25
  -5   3   3  326.55   12.00
  -5   3   3  322.41   14.30
  -5  -3   3  330.17   14.36
  -5   3   3  326.79   16.18
   5   3  -3  337.03   10.86
  -4   3   3   13.17    2.26
  -4   3   3   12.16    3.63
  -4  -3   3    9.86    2.10
  -4  -3   3   11.13    3.78
  -4  -3   3   11.02    3.03
   4   3  -3   11.74    1.99
  -4   3   3   13.22    3.17
   3   3  -3    5.62    1.31
  -3   3   3    8.44    2.50
  -3  -3   3    6.12    2.85
  -3  -3   3    4.90    1.30
  -3   3   3    6.12    1.60
  -3  -3   3    7.06    2.42
  -3   3   3    5.98    2.62
   3  -3  -3    4.86    1.68
  -2  -3   3  604.23   19.57
  -2   3   3  575.84   18.81
   2   3  -3  632.49   17.90
  -2   3   3  594.56   17.47
  -2   3   3  591.90   20.08
  -2  -3   3  608.07   15.83
   2   3  -3  606.31   19.72
  -2  -3   3  596.21   18.30
   2  -3  -3  616.03   17.52
  -1   3   3  620.46   20.03
   1  -3  -3  649.05   19.20
  -1   3   3  643.64   19.57
   1  -3  -3  670.17   20.17
   1   3  -3  633.51   20.54
  -1  -3   3  638.48   20.48
  -1  -3   3  658.41   19.95
   1   3  -3  675.21   19.84
   0   3   3 2067.62   54.31
   0  -3   3 2115.23   51.49
   0   3   3 2014.49   57.59
   0   3  -3 2039.29   51.44
   0  -3   3 1998.23   56.91
   0   3  -3 1995.16   55.31
   0  -3  -3 2011.24   54.67
   0   3  -3 2028.86   56.46
   0  -3  -3 2069.97   54.03
  -1   3  -3  689.86   21.33
  -1   3  -3  770.03   24.08
   1   3   3  798.09   23.90
  -1  -3  -3  781.82   20.98
  -1   3  -3  740.55   24.56
  -1  -3  -3  745.24   24.06
   1  -3   3  796.70   24.71
   1   3   3  799.30   21.19
  -1  -3  -3  788.27   23.76
  -2  -3  -3  205.61   10.56
   2  -3   3  209.25   10.19
  -2   3  -3  222.24    8.88
  -2   3  -3  191.29    9.99
  -2   3  -3  211.13   10.13
  -2  -3  -3  228.47    8.50
   2   3   3  221.32    8.93
   3   3   3  212.35    8.99
  -3   3  -3  204.34   10.76
  -3   3  -3  215.21    9.75
  -3   3  -3  181.36   10.14
  -3  -3  -3  201.90    6.29
  -3  -3  -3  231.18    8.32
  -3  -3  -3  208.56   11.43
  -3  -3  -3  214.39   10.13
   3  -3   3  194.11   10.67
   4   3   3  575.36   19.15
  -4   3  -3  583.25   21.68
   4  -3   3  559.72   22.20
  -4   3  -3  583.92   21.98
  -4  -3  -3  571.12   20.38
  -4   3  -3  557.49   20.22
  -4  -3  -3  563.41   22.63
  -4  -3  -3  577.53   16.54
  -5  -3  -3  135.02    6.06
   5   3   3  132.76    7.97
  -5  -3  -3  132.78    8.81
  -5   3  -3  136.13    9.66
  -5   3  -3  131.54    9.45
  -5  -3  -3   88.46    9.65
  -5   3  -3  117.14    8.61
   5  -3   3  119.19    9.47
  -6   3  -3   14.62    4.72
   6  -3   3   23.27    5.79
  -6  -3  -3   16.46    4.63
  -6  -3  -3   21.47    6.73
  -6   3  -3   15.04    4.60
  -6   3  -3   27.95    5.90
  -7   3  -3    1.24    3.47
  -7   3  -3    3.29    3.73
  -7   3  -3    3.17    3.85
  -7  -3  -3   -4.94    3.90
   7  -3   3   -1.25    3.56
  -7  -3  -3    3.53    3.91
  -8   4   3   12.82    5.09
  -8  -4   3    5.65    5.71
  -8   4   3   10.96    5.84
   8  -4  -3   11.95    4.97
  -7  -4   3    5.41    3.17
   7  -4  -3    9.43    4.25
  -7  -4   3    8.05    4.27
  -7  -4   3   11.06    5.56
  -7   4   3    8.44    5.07
  -7   4   3   13.48    4.57
  -6   4   3  385.21   19.27
  -6  -4   3  347.24   13.50
  -6  -4   3  319.73   17.30
  -6  -4   3  344.55   15.76
   6  -4  -3  325.42   16.99
  -6   4   3  337.79   16.24
  -5  -4   3   65.31    6.53
  -5  -4   3   50.30    7.35
  -5   4   3   57.57    4.75
  -5   4   3   46.76    5.95
  -5  -4   3   62.54    4.78
  -5   4   3   68.44    8.22
  -4  -4   3   27.86    5.40
  -4  -4   3   27.95    2.89
  -4   4   3   26.79    4.40
  -4   4   3   23.95    3.18
  -4   4   3   24.46    5.19
  -4  -4   3   26.52    4.21
  -3   4   3  766.55   27.06
  -3  -4   3  794.16   25.45
  -3  -4   3  797.70   27.16
  -3   4   3  803.75   25.32
  -3  -4   3  806.69   21.41
  -3   4   3  798.04   23.47
  -2   4   3  242.33   11.43
   2   4  -3  225.18   11.12
  -2  -4   3  251.98   10.87
  -2  -4   3  254.34    7.31
   2   4  -3  277.44    9.01
  -2  -4   3  257.26    7.22
  -2  -4   3  261.83    9.41
  -2   4   3  249.74   10.67
  -2   4   3  255.62    9.77
  -1  -4   3  505.55   16.69
  -1   4   3  491.28   17.41
   1   4  -3  512.39   18.20
   1  -4  -3  509.42   16.87
  -1   4   3  499.40   16.78
  -1  -4   3  530.27   13.69
   0  -4  -3  417.00   13.54
   0   4  -3  353.68   14.75
   0  -4   3  403.96   11.88
   0  -4   3  404.13   14.57
   0   4  -3  380.77   15.46
   0   4   3  405.98   13.74
   0   4  -3  417.86   11.96
   0  -4  -3  379.98   14.44
  -1   4  -3 1288.60   34.12
  -1  -4  -3 1268.18   37.64
   1  -4   3 1264.03   38.38
  -1   4  -3 1239.28   37.42
  -1  -4  -3 1280.52   34.41
   1   4   3 1278.34   34.71
  -1   4  -3 1198.82   38.32
   2  -4   3  412.75   16.86
  -2   4  -3  435.85   16.70
  -2   4  -3  411.84   17.25
  -2  -4  -3  424.12   12.49
  -2  -4  -3  433.00   17.44
  -2   4  -3  420.14   14.61
  -2  -4  -3  424.28   12.50
  -2  -4  -3  443.60   14.37
   2   4   3  440.29   14.63
  -3   4  -3  269.65   13.46
  -3  -4  -3  244.24   11.65
   3   4   3  266.84   10.01
  -3   4  -3  266.35   11.56
  -3  -4  -3  263.29   13.89
  -3  -4  -3  286.71    9.53
  -3  -4  -3  278.57    8.23
   3  -4   3  268.26   13.33
  -3   4  -3  264.76   12.76
  -4  -4  -3    0.42    3.50
   4   4   3   -0.13    1.87
  -4  -4  -3   -0.78    2.73
  -4   4  -3    5.96    3.16
   4  -4   3    0.92    2.53
  -4   4  -3   -1.72    2.29
  -4   4  -3   -1.71    1.76
  -4  -4  -3    0.75    1.01
   5  -4   3    1.90    3.22
  -5   4  -3    3.62    3.17
  -5   4  -3   -0.21    2.34
  -5   4  -3   -3.96    2.37
  -5  -4  -3   -3.09    2.32
  -5  -4  -3    3.56    4.25
  -6  -4  -3   36.85    8.12
  -6   4  -3   33.12    6.72
  -6  -4  -3   38.44    6.27
   6  -4   3   37.64    6.80
  -6   4  -3   41.52    6.95
  -6   4  -3   36.55    6.23
  -7  -4  -3   55.50   10.05
  -7   4  -3   59.87    8.53
  -7  -4  -3   44.11    7.47
  -7   4  -3   32.19    7.10
  -7   4  -3   53.16    7.87
   7  -4   3   54.23    8.95
  -7  -5   3   84.57   11.06
  -7   5   3   78.41    9.10
  -7   5   3  111.79   12.32
   7  -5  -3   70.74    9.19
  -6   5   3   80.98    8.60
  -6  -5   3   74.29    9.82
  -6  -5   3   80.06    7.79
   6  -5  -3   89.28    9.42
  -5  -5   3  983.43   31.12
  -5   5   3  836.81   30.77
  -5  -5   3  962.20   26.94
  -5   5   3  961.93   28.74
  -5  -5   3  883.26   33.47
  -5   5   3  921.61   34.48
  -4   5   3    7.11    2.59
  -4  -5   3    5.90    2.98
  -4  -5   3    1.45    3.53
  -4  -5   3    2.86    1.65
  -4   5   3    4.80    2.85
  -4   5   3    4.46    3.37
  -3  -5   3  138.72    8.19
  -3   5   3  135.37    8.22
  -3  -5   3  134.51    5.26
  -3  -5   3  130.45    5.14
  -3   5   3  138.32    7.33
  -3  -5   3  143.20    9.98
  -3   5   3  139.70    9.47
  -2  -5   3    3.37    0.98
  -2  -5   3    2.13    1.97
  -2  -5   3    0.03    2.06
  -2  -5   3    2.43    1.22
  -2   5   3    4.29    2.26
  -2   5   3    2.23    2.44
   2   5  -3    4.88    2.82
  -2   5   3    3.25    2.22
  -1  -5   3 2690.73   74.19
  -1   5   3 2666.86   73.64
  -1  -5   3 2759.59   67.06
   1  -5  -3 2625.49   72.21
   1   5  -3 2664.42   73.97
  -1   5   3 2639.46   70.81
   0  -5  -3  503.78   18.76
   0   5  -3  511.25   19.42
   0   5  -3  548.06   15.61
   0   5  -3  517.80   20.10
   0   5   3  521.59   17.88
   0  -5   3  506.16   18.42
  -1  -5  -3    9.00    2.19
  -1   5  -3   10.61    3.35
   1   5   3   13.69    2.54
  -1   5  -3   11.63    3.65
   1  -5   3    9.27    3.06
  -1   5  -3   14.33    2.48
  -1  -5  -3   12.48    3.80
  -2  -5  -3   -0.18    1.21
  -2   5  -3    1.88    2.42
  -2  -5  -3   -1.98    2.65
  -2   5  -3    1.56    1.72
  -2  -5  -3    1.75    1.50
  -2   5  -3   -0.36    2.35
   2  -5   3    0.71    2.44
  -3  -5  -3  123.73    9.89
  -3   5  -3  116.91    8.52
  -3   5  -3  107.68    8.98
  -3  -5  -3  118.55    4.91
   3  -5   3  129.32    9.24
  -3  -5  -3  101.23    7.52
  -3   5  -3  103.91    7.05
  -4  -5  -3  486.24   18.86
  -4  -5  -3  463.72   21.59
  -4   5  -3  498.76   20.42
   4  -5   3  488.97   21.41
  -4   5  -3  496.81   18.99
  -4   5  -3  484.92   21.68
  -5  -5  -3  286.90   16.87
  -5   5  -3  282.49   14.31
  -5   5  -3  273.96   14.90
   5  -5   3  295.55   16.37
  -5   5  -3  309.62   16.92
  -5  -5  -3  271.35   13.76
   6  -5   3    2.81    3.73
  -6  -5  -3    1.15    3.63
  -6   5  -3    3.47    3.64
  -6   5  -3    0.62    3.11
  -6  -5  -3   -2.47    4.52
  -6   5  -3    3.78    3.71
  -7   5  -3    1.72    3.62
  -7  -5  -3    0.77    5.93
  -7   5  -3   -1.02    3.23
  -7   6   3    8.50    5.27
  -7   6   3    6.28    4.41
   7  -6  -3    8.17    4.85
  -7  -6   3    9.75    6.47
  -6   6   3   36.06    7.95
   6  -6  -3   30.23    6.57
  -6  -6   3   35.64    8.43
  -6   6   3   32.35    6.42
  -5  -6   3  287.26   16.84
  -5   6   3  258.35   16.21
  -5   6   3  256.48   14.19
  -5  -6   3  301.96   14.14
   5  -6  -3  277.13   15.69
  -4   6   3   20.39    5.27
  -4  -6   3   19.47    5.80
  -4   6   3   20.17    4.50
  -4  -6   3   17.32    4.12
  -4   6   3   21.48    4.12
  -3  -6   3  214.85   13.28
  -3   6   3  231.61   10.73
  -3  -6   3  194.40   10.69
  -3   6   3  197.16   12.26
  -3   6   3  201.50   11.03
   2   6  -3    5.13    3.35
  -2  -6   3    7.75    2.66
  -2  -6   3   10.91    3.39
  -2   6   3    7.44    3.01
  -2   6   3    7.50    3.21
  -2   6   3   10.36    3.80
   1  -6  -3  338.23   14.51
  -1   6   3  329.45   14.66
   1   6  -3  336.64   15.62
  -1  -6   3  336.83   13.36
   0   6  -3   24.66    5.01
   0   6   3   31.26    4.44
   0  -6  -3   24.88    5.09
   0   6  -3   25.10    2.84
   0  -6   3   20.88    3.94
   0   6  -3   22.14    4.70
  -1   6  -3  619.49   23.70
   1   6   3  619.30   21.07
   1  -6   3  669.07   23.70
  -1  -6  -3  623.07   23.87
  -1   6  -3  660.29   20.20
  -2  -6  -3 1050.82   36.40
  -2  -6  -3 1055.06   30.81
  -2   6  -3 1032.61   37.03
  -2   6  -3 1101.65   35.67
   2  -6   3 1082.20   36.40
  -2   6  -3 1134.75   32.32
  -3  -6  -3   16.89    5.46
  -3   6  -3   18.27    5.01
  -3   6  -3   10.54    3.25
  -3   6  -3    9.07    3.68
   3  -6   3   15.57    4.60
   4  -6   3   -1.41    2.75
  -4   6  -3   -0.64    2.35
  -4  -6  -3   -2.00    2.93
  -4   6  -3   -0.53    3.06
  -4  -6  -3   -2.02    3.97
  -4   6  -3   -3.23    2.49
  -5   6  -3   11.79    4.38
  -5   6  -3    7.00    4.19
  -5  -6  -3    3.17    4.59
  -5  -6  -3    0.92    3.27
   5  -6   3    2.28    3.90
  -5   6  -3    6.98    3.59
  -6  -6  -3   78.96    8.60
  -6   6  -3   72.12    8.33
   6  -6   3   61.60    9.20
  -6  -6  -3   74.72   11.04
  -6   6  -3   88.71   11.24
  -6   6  -3   69.27    8.84
  -6   7   3   56.35    9.89
   6  -7  -3   73.78    9.64
  -6  -7   3   57.12   10.41
  -6   7   3   55.64    8.05
  -5  -7   3  146.32   10.23
   5  -7  -3  167.22   12.32
  -5   7   3  154.12   11.19
  -4   7   3    4.12    3.87
   4  -7  -3    3.16    3.16
  -4   7   3    2.43    2.96
  -4   7   3    0.02    2.49
  -4  -7   3   -3.84    3.59
  -4  -7   3    4.37    3.14
  -3   7   3    9.39    4.14
  -3   7   3   13.00    3.98
  -3  -7   3   16.56    4.23
  -3   7   3   16.18    4.30
  -3  -7   3   14.77    5.20
  -2   7   3  104.63    8.70
  -2  -7   3  100.19    7.78
  -2   7   3   98.75    7.67
   1   7  -3  555.95   23.14
   1  -7  -3  560.12   21.77
  -1   7   3  593.82   22.51
  -1  -7   3  563.34   20.37
   0   7  -3   60.13    7.37
   0   7  -3   70.97    8.31
   0  -7   3   68.07    6.58
   0   7   3   60.81    6.37
   0  -7  -3   64.70    7.56
  -1   7  -3    2.26    3.07
  -1  -7  -3   -2.24    3.11
  -1   7  -3    0.64    1.84
  -1   7  -3    0.68    2.92
   1   7   3    1.28    2.29
   1  -7   3   -1.00    2.55
  -2   7  -3    2.73    3.20
  -2   7  -3    1.72    2.35
  -2  -7  -3    3.68    4.09
  -2   7  -3    3.68    3.25
   2  -7   3    3.65    3.18
  -3  -7  -3  105.83   11.11
  -3   7  -3   93.07    7.41
  -3   7  -3   98.98   10.65
   3  -7   3   84.62    9.01
  -3   7  -3   88.16    9.06
  -4  -7  -3  100.13    8.49
  -4   7  -3  106.04    8.52
  -4   7  -3  128.03   12.38
  -4  -7  -3   97.03   11.72
  -4   7  -3  129.90   10.25
   4  -7   3   86.35    9.60
  -5   7  -3   74.83    8.42
  -5  -7  -3   71.26    8.03
  -5  -7  -3   67.95   11.19
  -5   7  -3   59.33    8.45
  -5   7  -3   56.70    9.60
   5  -7   3   69.96    9.73
  -5  -8   3    9.71    6.00
  -5   8   3    5.42    4.52
   5  -8  -3    3.99    3.81
  -5   8   3    4.97    3.93
  -4  -8   3  111.68   12.70
  -4  -8   3  100.55    8.59
   4  -8  -3   90.33    9.54
  -4   8   3   85.48   10.68
  -4   8   3  120.37    9.91
  -3   8   3   28.71    6.42
  -3  -8   3   34.86    5.99
  -3  -8   3   22.00    6.48
   3  -8  -3   25.01    5.75
  -3   8   3   20.33    4.95
   2  -8  -3   38.82    6.40
  -2   8   3   30.21    6.24
  -2  -8   3   36.93    6.09
   2  -8  -3   34.30    6.09
   1   8  -3   -2.55    3.02
   1  -8  -3    0.82    2.59
  -1   8   3    3.96    3.45
   1  -8  -3   11.23    4.44
   0  -8  -3   71.77    6.40
   0  -8   3   55.67    6.56
   0   8  -3   60.69    8.35
   0   8   3   62.69    7.08
   0  -8  -3   64.66    8.26
   0   8  -3   63.28    8.49
  -1   8  -3  140.30   11.03
  -1   8  -3  151.97   12.12
  -1  -8  -3  151.12   11.79
   1  -8   3  157.26   10.65
   1   8   3  151.38    9.64
  -2   8  -3  210.74   10.89
  -2   8  -3  196.06   14.19
  -2  -8  -3  198.45   14.23
  -2   8  -3  188.74   12.90
   2  -8   3  188.57   12.72
   3  -8   3    5.56    4.24
  -3   8  -3   22.21    6.35
  -3  -8  -3   11.53    6.18
  -3   8  -3   15.24    4.28
  -3   8  -3   15.83    5.22
   4  -8   3    4.51    4.48
  -4   8  -3   18.85    5.69
  -4  -8  -3   12.22    6.90
  -4   8  -3   15.27    6.04
  -4   8  -3   19.38    4.93
  -3   9   3    2.09    3.78
   3  -9  -3    2.32    3.23
  -3  -9   3    2.39    4.95
  -3   9   3   -0.75    3.75
  -3  -9   3    0.85    3.43
   2  -9  -3   30.40    6.40
   2  -9  -3   18.88    4.99
  -2   9   3   21.38    6.14
  -2  -9   3   27.16    7.38
  -2  -9   3   16.40    5.00
   1   9  -3    3.12    3.85
   1  -9  -3   -0.58    3.36
   1  -9  -3    3.83    2.80
  -1   9   3    0.28    3.25
   0  -9  -3    8.01    4.81
   0   9  -3   -0.29    3.66
   0   9  -3    3.56    4.02
  -1   9  -3   -2.64    3.31
   1  -9   3   -2.52    3.01
  -1   9  -3   -2.24    3.10
  -1  -9  -3    4.85    4.70
  -2   9  -3    6.80    4.82
   2  -9   3    5.11    4.57
  -2   9  -3    5.60    4.70
  -2  -9  -3    2.53    5.04
  -3  -9  -3   12.06    6.81
  -3   9  -3   25.43    6.67
  -8   0   4    1.45    3.15
   8   0  -4    2.89    3.18
  -8   0   4    0.99    4.00
  -7   0   4   65.65    6.91
  -7   0   4   44.45    6.17
  -7   0   4   51.66    7.74
   7   0  -4   61.37    6.76
  -6   0   4  267.92   12.36
  -6   0   4  267.44   14.20
  -6   0   4  249.47   11.93
  -5   0   4 1764.22   52.38
  -5   0   4 1807.46   48.76
  -5   0   4 1706.64   48.43
  -4   0   4  657.41   19.83
  -4   0   4  665.83   22.83
  -4   0   4  655.05   20.28
  -3   0   4   85.36    3.82
  -3   0   4   78.17    5.63
  -3   0   4   78.23    5.80
  -3   0   4   79.69    4.15
  -3   0   4   78.77    4.41
  -2   0   4  195.12    6.26
  -2   0   4  198.73    7.02
  -2   0   4  195.20    8.91
  -2   0   4  198.31    8.44
   2   0  -4  186.48    6.89
   2   0  -4  202.57    8.36
   2   0  -4  181.70    6.04
  -1   0   4 6522.74  174.05
  -1   0   4 6364.47  166.74
   1   0  -4 6448.10  160.11
   1   0  -4 6361.22  164.80
   1   0  -4 6823.00  166.69
   0   0   4 6663.38  166.09
   0   0   4 6466.67  175.72
   0   0  -4 6613.25  166.23
   0   0  -4 6632.05  167.85
   0   0   4 6481.96  168.12
  -1   0  -4 1062.88   28.75
  -1   0  -4 1083.60   29.09
   1   0   4 1087.76   31.46
   1   0   4  946.08   28.41
  -1   0  -4 1045.45   30.10
   2   0   4 3507.64   95.25
  -2   0  -4 3498.59   91.69
  -2   0  -4 3433.20   90.11
  -2   0  -4 3418.00   88.90
  -3   0  -4  212.62    9.88
  -3   0  -4  204.86    8.47
   3   0   4  218.08    8.73
   3   0   4  219.87   10.21
  -3   0  -4  209.92   10.95
   4   0   4  486.59   18.52
  -4   0  -4  463.02   19.35
  -4   0  -4  478.89   16.43
  -4   0  -4  477.91   17.99
  -5   0  -4  320.33   14.81
  -5   0  -4  326.30   16.55
   5   0   4  333.83   15.14
  -5   0  -4  333.59   13.50
   6   0   4  716.59   27.48
  -6   0  -4  749.60   29.61
  -6   0  -4  750.59   25.53
  -6   0  -4  735.18   27.09
   7   0   4   16.03    5.22
  -7   0  -4   16.67    5.95
  -7   0  -4   35.76    6.74
  -8   0  -4   21.89    6.14
  -8  -1   4   64.77    9.15
  -8   1   4   84.49    8.93
  -8  -1   4   62.94    7.37
  -8   1   4   85.89   10.50
   8  -1  -4   55.26    7.32
  -7  -1   4  513.08   22.19
  -7   1   4  482.51   20.06
  -7  -1   4  512.04   19.52
  -7  -1   4  495.58   20.59
   7  -1  -4  485.11   20.83
   7   1  -4  512.41   19.54
  -7   1   4  541.83   23.37
  -6   1   4  106.45    9.13
  -6   1   4  108.61    7.86
  -6  -1   4  106.54    7.36
  -6  -1   4  113.88    8.95
  -6  -1   4   90.13    7.94
  -6   1   4  110.76    6.94
  -5  -1   4   60.08    4.98
  -5   1   4   56.75    4.55
  -5  -1   4   63.50    6.53
  -5   1   4   47.77    5.15
  -5  -1   4   54.69    5.60
  -5   1   4   54.54    6.63
  -4   1   4  199.54    7.16
  -4  -1   4  201.30    8.25
   4  -1  -4  193.11    6.93
  -4  -1   4  201.27    9.99
  -4   1   4  194.89   10.37
  -4  -1   4  193.35    8.89
  -4   1   4  193.80    8.85
  -3   1   4 2323.10   59.95
  -3   1   4 2245.44   63.25
  -3  -1   4 2316.12   58.54
  -3  -1   4 2307.81   64.23
  -3  -1   4 2281.09   60.45
  -3  -1   4 2323.22   62.99
  -3   1   4 2260.60   59.77
   3   1  -4 2271.63   58.45
  -2   1   4   29.76    2.80
   2   1  -4   19.99    2.83
  -2  -1   4   26.16    3.21
   2  -1  -4   27.59    3.15
  -2  -1   4   28.79    2.57
  -2  -1   4   25.88    1.99
  -2   1   4   24.80    3.63
   2   1  -4   27.38    2.05
  -2  -1   4   22.33    3.13
   2   1  -4   24.94    2.40
  -2   1   4   18.88    2.93
  -1   1   4 1586.02   39.89
  -1   1   4 1472.63   44.27
   1  -1  -4 1567.97   41.42
  -1   1   4 1467.91   39.84
   1  -1  -4 1538.18   39.83
  -1  -1   4 1507.32   43.76
  -1  -1   4 1575.19   40.87
   1   1  -4 1492.31   38.58
   1   1  -4 1538.78   40.76
   1   1  -4 1603.39   42.08
   1  -1  -4 1470.71   39.69
   0  -1   4   35.95    3.18
   0   1  -4   37.10    2.77
   0  -1  -4   37.82    3.32
   0  -1   4   39.31    3.67
   0   1   4   39.38    4.07
   0  -1   4   31.13    2.98
   0   1   4   41.77    3.46
   0  -1  -4   32.73    2.34
   0   1   4   32.17    2.36
   0   1  -4   36.47    3.33
   1   1   4  535.73   14.86
   1  -1   4  559.43   16.94
  -1   1  -4  522.51   16.78
   1   1   4  515.53   14.77
  -1   1  -4  543.85   16.22
   1  -1   4  515.67   17.86
  -1   1  -4  551.90   17.67
  -1  -1  -4  534.87   17.50
   1   1   4  550.53   18.22
  -2  -1  -4  215.24    9.43
  -2   1  -4  206.14    9.88
   2  -1   4  224.55    9.94
   2   1   4  218.01    9.67
   2  -1   4  221.13    9.03
  -2  -1  -4  216.09   10.29
   2   1   4  216.13    6.94
  -2   1  -4  205.35    8.84
  -2   1  -4  217.07    8.92
  -2  -1  -4  207.78    6.86
   3  -1   4  482.11   18.28
   3   1   4  499.96   17.85
  -3  -1  -4  494.01   14.87
  -3   1  -4  492.31   16.96
   3   1   4  514.43   15.02
  -3   1  -4  510.38   18.75
  -3  -1  -4  484.94   17.48
  -3  -1  -4  492.21   18.94
  -3   1  -4  475.34   17.11
  -4  -1  -4   43.04    5.29
   4  -1   4   29.70    4.79
  -4   1  -4   23.90    3.83
   4   1   4   37.05    3.51
   4   1   4   26.73    4.39
  -4   1  -4   26.47    4.50
  -4   1  -4   37.56    5.81
  -4  -1  -4   28.19    3.04
  -4  -1  -4   39.55    6.24
  -5   1  -4   17.38    5.01
  -5  -1  -4   21.11    4.55
  -5   1  -4   20.39    4.15
   5  -1   4   20.96    4.86
  -5   1  -4   21.17    4.49
   5   1   4   26.15    4.79
  -5  -1  -4   31.70    6.56
  -5  -1  -4   20.95    3.32
  -6  -1  -4   -2.47    2.66
   6   1   4   -4.67    2.74
  -6   1  -4   -1.55    2.53
  -6   1  -4    1.64    2.68
   6  -1   4   -4.41    2.52
  -6   1  -4   -3.94    2.93
  -6  -1  -4    0.06    2.12
  -6  -1  -4    0.02    4.13
  -7   1  -4  101.75   11.15
   7   1   4  143.46   10.75
  -7  -1  -4  134.52   13.12
   7  -1   4  132.53   10.97
  -7   1  -4  135.92   10.09
  -7  -1  -4  119.72   10.23
  -7   1  -4  143.06   10.91
  -8  -2   4    5.97    3.51
  -8  -2   4    9.35    4.79
  -8  -2   4    0.29    4.77
  -8   2   4   -0.79    3.98
  -8   2   4    5.95    3.98
   8  -2  -4    9.40    4.33
  -7  -2   4   -0.27    3.80
  -7   2   4    1.43    3.36
  -7  -2   4    2.85    2.90
  -7  -2   4    0.99    3.36
  -7   2   4    1.94    3.05
  -6  -2   4   12.15    3.36
  -6   2   4   14.98    4.98
  -6   2   4   18.34    4.39
  -6  -2   4    7.49    3.81
  -6   2   4   14.35    3.04
  -6  -2   4   11.97    4.41
  -5   2   4  310.41   15.43
  -5  -2   4  321.20   14.41
  -5   2   4  317.92   10.97
  -5  -2   4  326.04   12.16
  -5  -2   4  353.08   14.65
  -5   2   4  305.13   13.49
  -4   2   4  273.87    8.69
   4  -2  -4  286.91    8.87
  -4   2   4  275.55   13.20
  -4  -2   4  265.12   11.75
  -4  -2   4  278.36    9.94
  -4   2   4  295.33   11.90
  -4  -2   4  278.89   12.41
   3   2  -4   -0.89    1.91
  -3   2   4    0.12    1.91
  -3   2   4   -0.66    1.39
  -3  -2   4   -0.22    1.60
  -3  -2   4   -1.08    1.50
  -3  -2   4   -0.57    1.72
  -3  -2   4   -0.13    0.87
   3   2  -4    1.06    1.05
   2   2  -4   76.29    4.79
   2   2  -4   87.40    3.10
   2   2  -4   84.69    5.10
  -2  -2   4   90.62    5.51
  -2  -2   4   95.88    5.61
   2  -2  -4   86.98    3.25
  -2   2   4   84.59    5.02
  -2   2   4   88.74    5.64
   2  -2  -4   85.94    3.07
  -2  -2   4   85.59    3.03
  -2   2   4   76.98    6.20
  -1   2   4 2594.73   75.22
  -1   2   4 2631.48   68.88
  -1  -2   4 2753.32   72.24
  -1   2   4 2666.97   71.16
   1   2  -4 2733.36   70.69
   1   2  -4 2663.36   69.49
  -1  -2   4 2718.12   74.05
  -1  -2   4 2644.02   71.73
   1  -2  -4 2795.90   69.34
   1  -2  -4 2700.47   70.87
   1   2  -4 2673.10   68.99
   0  -2   4 1689.35   47.61
   0  -2  -4 1683.37   44.99
   0   2   4 1682.23   44.22
   0  -2  -4 1702.63   44.04
   0   2  -4 1694.55   45.69
   0   2  -4 1537.03   42.33
   0   2  -4 1661.49   46.45
   0   2   4 1647.10   48.12
   0  -2   4 1707.96   46.30
  -1  -2  -4 1381.78   37.89
   1  -2   4 1328.36   39.13
   1   2   4 1380.24   39.17
  -1   2  -4 1329.85   37.81
  -1   2  -4 1222.23   35.01
  -1   2  -4 1296.81   37.88
  -2  -2  -4  812.50   25.77
  -2   2  -4  763.19   25.20
  -2   2  -4  776.44   24.85
  -2   2  -4  759.54   23.24
   2  -2   4  785.82   25.78
   2   2   4  816.62   25.20
  -3  -2  -4    4.65    3.28
  -3  -2  -4    3.48    0.79
  -3   2  -4    5.22    2.82
   3   2   4    7.08    2.92
  -3   2  -4    3.69    2.32
  -3   2  -4    6.01    2.33
   3  -2   4   -0.18    2.16
  -3  -2  -4   -0.66    2.11
   3   2   4    3.86    0.87
  -4   2  -4   44.81    5.39
  -4   2  -4   36.86    5.69
   4  -2   4   51.62    6.21
   4   2   4   40.00    4.76
   4   2   4   46.79    3.24
  -4  -2  -4   41.92    6.62
  -4   2  -4   43.91    5.35
  -4  -2  -4   44.44    5.47
  -4  -2  -4   43.77    2.96
  -5   2  -4  344.06   15.44
  -5  -2  -4  333.47   17.18
  -5   2  -4  337.05   16.37
   5  -2   4  295.20   15.53
  -5  -2  -4  319.27   11.50
  -5  -2  -4  305.39   14.73
   5   2   4  334.89   14.45
  -5   2  -4  341.21   15.27
  -6   2  -4  234.60   14.46
  -6   2  -4  259.15   13.76
  -6   2  -4  224.96   13.12
   6   2   4  233.37   12.48
   6  -2   4  205.88   13.36
  -6  -2  -4  230.55   13.04
  -7  -2  -4   30.91    6.49
  -7   2  -4   32.12    6.46
  -7  -2  -4   19.69    7.10
  -7   2  -4   32.66    7.25
  -7   2  -4   27.04    5.97
   7  -2   4   29.14    6.82
  -8  -3   4  101.06    8.23
  -8  -3   4   77.96    9.26
  -8   3   4   66.06    8.64
  -8   3   4   81.90   10.65
  -8  -3   4   74.19   10.10
   8  -3  -4   87.50    9.74
  -7   3   4    2.16    4.13
  -7  -3   4    0.31    2.55
  -7  -3   4   -2.36    3.92
  -7   3   4    4.28    3.61
  -7  -3   4   -1.92    3.16
   7  -3  -4    4.38    3.27
  -6  -3   4  101.00    6.56
  -6   3   4   78.36    9.17
  -6  -3   4   97.37    9.33
  -6   3   4   93.58    8.31
  -6  -3   4   77.52    7.86
  -5  -3   4   17.58    2.92
  -5   3   4   13.15    2.29
  -5  -3   4   13.79    4.15
  -5   3   4   14.72    4.54
  -5  -3   4   24.73    4.79
  -5   3   4   18.63    4.21
  -4  -3   4   48.32    5.86
  -4   3   4   46.12    6.10
  -4  -3   4   44.74    5.23
   4   3  -4   47.18    4.20
  -4   3   4   50.83    3.16
   4  -3  -4   51.81    3.66
  -4  -3   4   53.16    3.63
  -4   3   4   60.07    5.67
  -3  -3   4  345.12   13.71
  -3  -3   4  363.13   10.10
  -3   3   4  338.86   13.26
  -3   3   4  316.52   14.22
   3   3  -4  346.56   11.68
  -3  -3   4  342.86   12.02
  -3   3   4  359.16   10.58
   3  -3  -4  344.46   10.60
  -2  -3   4 1004.68   30.00
  -2  -3   4 1015.16   30.61
  -2   3   4  958.79   30.56
   2   3  -4 1060.22   29.52
   2  -3  -4 1031.09   27.42
   2  -3  -4 1033.56   27.63
  -2   3   4 1008.56   29.42
   2   3  -4  988.68   30.14
   1  -3  -4    1.30    1.46
  -1   3   4    1.22    2.04
  -1   3   4    2.32    1.59
  -1  -3   4    0.31    1.58
   1   3  -4   -0.07    1.55
   1  -3  -4    1.11    1.47
  -1   3   4    0.17    1.34
  -1  -3   4    1.65    1.66
   0   3  -4  122.23    7.20
   0   3  -4  127.84    7.11
   0  -3  -4  130.05    6.86
   0  -3  -4  124.28    5.40
   0   3   4  126.17    5.53
   0   3  -4  126.95    4.72
   0  -3   4  127.82    4.97
   0  -3   4  119.21    6.69
   0   3   4  130.25    7.39
   1   3   4   75.67    5.62
  -1   3  -4   72.92    5.63
   1  -3   4   76.04    5.66
   1   3   4   73.76    3.03
  -1  -3  -4   75.67    5.89
  -1   3  -4   68.46    4.08
  -1   3  -4   75.83    5.72
  -1  -3  -4   76.53    2.99
  -2  -3  -4   16.49    3.94
   2  -3   4   20.74    3.83
  -2   3  -4   14.28    3.36
  -2   3  -4   15.68    3.53
  -2   3  -4   17.66    2.84
   2   3   4   18.10    3.37
  -3  -3  -4   50.04    6.51
   3   3   4   67.72    5.79
  -3  -3  -4   75.92    6.28
  -3   3  -4   72.19    6.31
  -3   3  -4   72.41    6.79
   3  -3   4   55.32    6.09
  -3   3  -4   76.31    5.66
   4  -3   4  126.32    9.32
   4   3   4  130.33    8.15
  -4  -3  -4  120.51   10.02
  -4   3  -4  135.27    9.39
  -4   3  -4  144.29    9.50
  -4   3  -4  144.04    8.66
  -4  -3  -4  141.83    8.96
   5   3   4   14.04    4.05
  -5   3  -4   17.98    4.65
  -5   3  -4   27.00    5.50
  -5   3  -4   14.79    4.06
   5  -3   4   14.03    4.64
  -5  -3  -4   16.77    5.47
  -5  -3  -4   23.85    5.15
   6  -3   4   15.16    5.22
  -6   3  -4   17.96    5.04
  -6   3  -4   16.27    5.23
  -6  -3  -4   14.67    6.02
  -6   3  -4   16.32    4.77
  -6  -3  -4   13.81    4.79
  -7   3  -4   38.51    7.48
   7  -3   4   33.16    7.22
  -7  -3  -4   44.06    9.33
  -7   3  -4   56.36    8.22
  -7  -3  -4   48.06    7.67
  -7   3  -4   57.64    8.42
  -8   4   4    5.29    5.06
   8  -4  -4    0.33    3.44
  -8   4   4    0.38    4.04
  -8  -4   4   -5.08    4.85
   7  -4  -4   52.02    7.76
  -7   4   4   50.91    7.48
  -7   4   4   45.01    8.63
  -7  -4   4   40.76    8.07
  -7  -4   4   37.29    6.60
  -6   4   4  223.31   13.11
  -6  -4   4  245.90   13.28
  -6   4   4  249.57   15.50
  -6  -4   4  268.61   15.24
  -6  -4   4  263.74   10.91
  -5  -4   4   -3.22    2.28
  -5   4   4    2.05    3.35
  -5   4   4    0.45    1.75
  -5  -4   4    0.11    1.65
  -5   4   4   -2.69    2.07
  -5  -4   4   -1.33    3.37
  -4  -4   4    2.06    2.40
  -4  -4   4    2.51    3.11
  -4   4   4    3.44    2.56
  -4  -4   4    0.90    1.34
  -4   4   4    3.33    1.74
  -4   4   4    0.73    2.66
  -3  -4   4   35.74    4.55
   3   4  -4   35.69    2.92
  -3  -4   4   31.45    3.17
  -3   4   4   33.95    4.57
  -3   4   4   39.75    5.36
  -3   4   4   31.10    3.06
  -3  -4   4   34.06    1.92
  -2   4   4  101.64    6.88
   2   4  -4  108.69    7.21
  -2  -4   4  105.07    6.76
   2  -4  -4  102.88    5.66
  -2  -4   4  101.80    6.08
  -2   4   4  104.65    6.64
  -1   4   4   13.67    2.81
   1  -4  -4   17.48    3.02
  -1  -4   4   18.38    3.08
   1   4  -4   21.82    4.00
   0  -4  -4   46.41    4.77
   0   4   4   41.10    4.67
   0  -4   4   39.75    2.92
   0  -4  -4   44.07    3.57
   0   4  -4   55.75    5.71
   0   4  -4   36.37    4.70
   0   4  -4   40.27    2.71
   0  -4   4   41.36    4.47
   0   4   4   40.81    3.49
   1  -4   4  680.13   23.49
  -1  -4  -4  685.75   23.37
  -1   4  -4  680.15   23.34
  -1   4  -4  615.26   23.52
   1   4   4  704.68   19.70
   1   4   4  722.91   23.04
  -1  -4  -4  689.45   19.46
  -1   4  -4  681.88   20.03
  -2  -4  -4   61.86    6.79
  -2   4  -4   69.21    4.90
  -2   4  -4   47.43    5.91
   2   4   4   69.33    5.36
   2  -4   4   50.01    5.68
  -2   4  -4   53.25    5.94
   3  -4   4   41.83    5.78
  -3   4  -4   38.90    5.84
  -3   4  -4   33.85    4.43
  -3  -4  -4   50.80    6.99
  -3   4  -4   41.75    5.67
  -3  -4  -4   41.07    5.37
   3   4   4   45.24    4.50
   4   4   4    3.40    2.68
   4  -4   4    2.91    3.01
  -4   4  -4    1.64    2.96
  -4  -4  -4    1.43    3.75
  -4   4  -4    1.28    2.86
  -4   4  -4    1.83    2.46
  -4  -4  -4    0.38    2.91
  -5   4  -4   63.80    7.23
  -5  -4  -4   60.34    7.17
  -5   4  -4   54.58    7.51
  -5  -4  -4   47.28    8.14
  -5   4  -4   68.26    8.02
   5  -4   4   53.98    7.69
  -6   4  -4    0.14    3.13
  -6   4  -4   -0.24    3.31
  -6  -4  -4    4.18    3.80
   6  -4   4    1.24    3.71
  -6  -4  -4   -3.77    4.15
  -6   4  -4   -2.08    2.92
   7  -4   4    6.89    4.75
  -7   4  -4   18.79    5.62
  -7   4  -4   15.94    5.62
  -7  -4  -4   14.21    5.39
  -7   4  -4   17.61    5.17
  -7  -4  -4    6.19    6.07
  -7   5   4   -2.24    2.97
   7  -5  -4    3.56    3.74
  -7  -5   4    3.75    4.03
  -7   5   4   -1.46    3.98
  -7  -5   4    1.75    5.01
  -6  -5   4   12.95    4.70
  -6   5   4   25.52    5.42
  -6  -5   4   16.68    6.02
  -6   5   4   14.23    5.26
  -5  -5   4    6.40    3.46
  -5   5   4   12.50    4.02
  -5  -5   4    7.11    4.34
  -5   5   4    9.35    4.50
  -4  -5   4   22.30    2.15
  -4   5   4   19.28    4.28
  -4  -5   4   21.66    5.48
  -4   5   4   27.70    3.58
  -4   5   4   18.39    5.03
  -4  -5   4   24.27    4.61
  -3  -5   4   -0.41    1.83
  -3  -5   4    0.01    2.24
  -3   5   4    0.38    2.11
  -3   5   4   -1.61    2.46
  -3   5   4    2.27    1.96
   2  -5  -4  297.00   11.88
  -2   5   4  285.63   13.33
  -2  -5   4  303.30   11.62
   2   5  -4  308.13   14.02
  -2   5   4  290.79   12.73
  -2  -5   4  288.58   13.02
   1  -5  -4   25.78    4.09
   1   5  -4   33.57    5.23
  -1  -5   4   31.34    2.15
  -1  -5   4   25.63    3.86
  -1   5   4   29.15    4.20
   0   5  -4   -1.73    0.97
   0  -5   4   -1.40    1.15
   0  -5  -4   -0.48    2.46
   0   5   4    1.79    1.82
   0  -5   4   -1.17    1.91
   0   5  -4    0.67    2.19
   0   5  -4   -0.69    2.23
   1  -5   4   74.46    6.37
  -1   5  -4   52.80    6.49
  -1  -5  -4   70.27    4.45
   1   5   4   68.77    4.47
  -1   5  -4   71.92    7.05
  -1  -5  -4   61.02    6.71
  -1   5  -4   73.60    4.58
  -2   5  -4   28.04    5.56
  -2  -5  -4   23.55    5.34
  -2  -5  -4   29.61    2.39
  -2   5  -4   32.52    3.86
  -2   5  -4   26.57    5.00
   2  -5   4   32.42    5.26
  -2  -5  -4   28.58    2.48
  -3  -5  -4    1.86    3.70
   3  -5   4   -1.42    2.60
  -3   5  -4   -1.14    1.72
  -3   5  -4    0.12    2.51
  -3   5  -4    4.02    2.99
  -4   5  -4   32.02    5.07
  -4  -5  -4   38.72    7.55
   4  -5   4   40.20    6.81
  -4   5  -4   42.75    6.63
  -4  -5  -4   33.22    5.73
  -4   5  -4   36.77    6.72
  -5   5  -4   12.85    4.04
  -5   5  -4   14.74    4.88
  -5  -5  -4    5.60    4.82
  -5  -5  -4   12.05    4.23
   5  -5   4   15.55    4.99
  -5   5  -4    7.72    4.16
   6  -5   4   35.01    7.58
  -6   5  -4   34.41    6.81
  -6   5  -4   37.50    6.72
  -6   5  -4   30.04    7.04
  -6  -5  -4   44.67    7.13
  -6  -5  -4   16.54    6.68
   7  -6  -4    1.48    3.71
  -7   6   4    2.02    3.75
  -7  -6   4   -1.87    5.35
  -7   6   4    1.66    4.20
  -6  -6   4   -0.33    3.52
  -6   6   4    1.90    3.77
   6  -6  -4    0.26    3.26
  -6   6   4   -5.62    2.47
  -6  -6   4   -1.05    4.77
  -5   6   4    5.38    3.29
  -5  -6   4    5.16    4.28
  -5   6   4    5.71    4.08
  -5  -6   4    3.21    3.14
  -4  -6   4   58.96    6.56
  -4   6   4   56.30    5.45
  -4   6   4   49.40    7.53
  -4  -6   4   49.58    8.00
  -4   6   4   50.34    6.52
  -3  -6   4   -0.33    2.42
  -3   6   4   -0.81    2.27
  -3   6   4   -0.21    2.58
   2  -6  -4   18.27    4.04
  -2  -6   4   17.47    3.47
   2   6  -4   19.40    4.80
  -2   6   4   18.57    4.18
  -2   6   4   14.04    3.92
  -2  -6   4    7.72    3.26
   1  -6  -4  198.23   10.67
  -1  -6   4  196.15   10.00
   1   6  -4  193.79   11.54
  -1   6   4  196.61   10.57
   0   6   4   34.09    4.42
   0   6  -4   31.29    3.00
   0  -6  -4   38.44    5.77
   0   6  -4   27.65    5.29
   0   6  -4   27.06    5.51
   0  -6   4   24.07    4.35
  -1  -6  -4   97.10    8.84
   1  -6   4   84.07    7.50
  -1   6  -4   74.05    7.86
  -1   6  -4   70.18    7.91
   1   6   4   87.11    5.78
  -2  -6  -4  234.63    8.84
   2  -6   4  225.89   12.90
  -2   6  -4  248.92   10.86
  -2   6  -4  245.17   14.27
  -2  -6  -4  236.44   13.77
  -2   6  -4  247.06   13.35
  -3   6  -4   13.45    3.53
  -3   6  -4   19.09    5.41
  -3  -6  -4   10.70    4.89
  -3   6  -4   15.82    4.70
   3  -6   4   13.42    4.35
  -4   6  -4   10.15    3.49
  -4  -6  -4    1.66    3.59
  -4   6  -4    5.48    3.80
  -4   6  -4   -1.97    2.50
  -4  -6  -4    1.72    4.69
   4  -6   4    8.04    4.12
  -5  -6  -4   24.66    5.68
   5  -6   4   40.87    7.59
  -5  -6  -4   35.28    8.45
  -5   6  -4   29.91    6.19
  -5   6  -4   30.90    7.16
  -5   6  -4   35.01    6.16
  -6  -6  -4   39.39    9.27
  -6   6  -4   56.96    8.42
  -6   6  -4   70.36    8.72
  -6   6  -4   52.31    9.34
  -6  -6  -4   63.01    8.33
   6  -6   4   60.76    9.52
  -6   7   4   -1.73    3.07
  -6  -7   4    5.16    5.73
  -6   7   4    2.36    4.27
   6  -7  -4    1.68    3.33
  -5  -7   4   21.38    5.35
  -5   7   4    6.63    4.66
  -5   7   4   21.90    5.41
  -5  -7   4   12.28    5.69
   5  -7  -4    6.98    4.14
  -4   7   4   58.88    8.73
  -4   7   4   59.05    7.39
  -4  -7   4   61.08    9.29
  -4  -7   4   50.90    6.57
  -3   7   4   74.52    7.55
  -3  -7   4   88.71   10.13
  -3   7   4   66.82    8.21
  -3  -7   4   84.38    7.94
  -2   7   4   64.24    7.54
  -2   7   4   74.45    7.19
   2  -7  -4   89.06    7.39
  -2  -7   4   68.53    7.22
   2   7  -4   74.21    8.64
  -1   7   4    3.90    2.80
  -1  -7   4   -0.67    2.70
   1  -7  -4    0.08    2.75
   1   7  -4    3.83    3.20
   0  -7  -4   -5.14    2.64
   0   7   4    0.03    2.14
   0  -7   4   -0.71    2.54
   0   7  -4   -3.25    2.42
   0   7  -4   -2.67    2.47
   1   7   4  100.76    6.92
   1  -7   4  102.01    8.31
  -1   7  -4   99.02    9.42
  -1  -7  -4   87.93    9.10
  -1   7  -4  111.48   10.51
  -2  -7  -4    0.45    4.29
  -2   7  -4   -0.86    2.06
  -2   7  -4    3.63    3.36
  -2   7  -4    2.76    3.22
   2  -7   4    3.90    3.30
  -3   7  -4   14.45    4.68
  -3   7  -4   23.53    4.55
  -3   7  -4   24.74    6.42
  -3  -7  -4   13.14    5.63
   3  -7   4    8.62    4.29
  -4  -7  -4   22.05    7.04
  -4  -7  -4   22.76    5.54
  -4   7  -4   23.55    4.98
   4  -7   4   20.22    5.91
  -4   7  -4   26.52    7.12
  -4   7  -4   21.85    5.97
  -5   7  -4   13.60    4.99
  -5   7  -4   11.87    5.45
  -5   7  -4   16.82    4.93
   5  -7   4   15.62    5.56
  -5  -7  -4   14.89    7.07
  -5  -7  -4   17.89    5.56
  -5   8   4   79.33    9.39
  -5   8   4   64.41   10.14
  -5  -8   4   73.06   11.72
   5  -8  -4   65.56    9.20
   4  -8  -4   15.57    5.09
  -4  -8   4   12.78    5.87
  -4  -8   4   13.97    4.83
  -4   8   4   16.56    5.93
  -4   8   4   20.38    5.36
  -3   8   4    2.03    3.34
  -3   8   4    2.29    3.92
   3  -8  -4   12.63    4.11
  -3  -8   4   13.79    5.60
  -3  -8   4    5.49    3.97
   2   8  -4    2.99    4.09
  -2  -8   4    3.54    3.28
   2  -8  -4    1.83    3.35
  -2   8   4    1.02    3.29
   1   8  -4   90.46    9.96
  -1   8   4  100.29    8.56
   1  -8  -4  113.73    9.13
   0  -8   4  304.84   15.05
   0   8  -4  318.20   17.83
   0   8   4  299.08   14.59
   0  -8  -4  298.66   16.01
   0   8  -4  284.33   16.40
  -1   8  -4  421.66   21.83
   1  -8   4  428.90   19.70
  -1  -8  -4  440.59   20.99
  -1   8  -4  449.88   21.10
  -2   8  -4   73.44    9.00
  -2  -8  -4   93.39   10.90
  -2   8  -4   65.81    9.64
   2  -8   4   82.67    9.20
   3  -8   4    2.24    3.97
  -3   8  -4   -1.02    3.53
  -3   8  -4    0.11    2.85
  -3   8  -4    1.88    3.78
  -3  -8  -4    5.51    5.44
  -4  -8  -4    5.99    6.11
  -4   8  -4    4.01    4.03
  -4   8  -4    8.80    5.07
   4  -8   4    3.02    4.63
  -4   8  -4    3.06    3.65
  -3  -9   4  165.59   14.33
  -3   9   4  164.56   13.40
  -3  -9   4  186.69   12.45
   2  -9  -4  190.09   12.52
   2  -9  -4  181.15   12.11
  -2   9   4  182.50   13.36
  -2  -9   4  191.02   12.55
   1  -9  -4    7.09    4.18
   1   9  -4   -1.55    3.37
  -1  -9   4    4.06    4.15
  -1   9   4    1.90    3.52
   1  -9  -4    2.33    2.73
   0  -9  -4    2.62    3.93
   0   9  -4    1.81    4.25
   0   9  -4    4.21    4.07
   1  -9   4   -0.62    3.56
  -1   9  -4   -3.00    3.46
  -1  -9  -4    1.17    4.66
  -1   9  -4   -0.90    3.91
  -2   9  -4   72.27   10.69
  -2   9  -4   81.72   10.40
  -2  -9  -4   93.48   12.05
   2  -9   4   68.45    8.86
   8   0  -5    2.55    2.88
  -8   0   5   -1.75    3.69
  -8   0   5   -0.44    3.16
  -7   0   5   -2.28    2.30
  -7   0   5    1.73    3.62
  -6   0   5   -3.64    2.91
  -6   0   5    1.50    2.40
  -6   0   5   -3.16    2.75
  -5   0   5    0.91    2.86
  -5   0   5    0.52    2.30
  -5   0   5    0.06    1.94
  -4   0   5   -0.15    1.42
  -4   0   5    0.28    1.25
  -4   0   5   -0.95    1.72
  -4   0   5   -0.63    1.89
  -3   0   5    1.59    1.96
  -3   0   5    0.56    2.05
  -3   0   5   -1.59    0.99
  -3   0   5    0.54    0.83
  -3   0   5    0.37    1.05
  -2   0   5    0.18    0.94
  -2   0   5   -0.32    1.97
  -2   0   5   -0.23    1.25
   2   0  -5   -1.02    0.77
  -2   0   5    1.11    1.14
   2   0  -5    0.35    1.00
   1   0  -5   -0.36    0.78
   1   0  -5   -0.63    1.09
  -1   0   5   -0.12    1.21
  -1   0   5   -1.81    2.06
   1   0  -5    0.37    1.16
  -1   0   5    1.06    1.39
   0   0   5    2.50    2.31
   0   0   5    1.19    1.12
   0   0  -5   -0.11    1.42
  -1   0  -5   -0.15    1.86
  -1   0  -5   -0.51    1.42
   1   0   5    3.08    2.21
   1   0   5   -0.87    0.98
   2   0   5   -0.82    0.84
  -2   0  -5    1.40    1.90
   2   0   5   -0.23    2.12
  -2   0  -5   -0.92    0.99
  -2   0  -5    1.15    2.38
   3   0   5    0.25    1.05
  -3   0  -5   -0.48    1.26
  -3   0  -5   -1.77    2.30
  -3   0  -5   -0.57    1.75
   3   0   5    0.24    2.36
  -4   0  -5   -0.34    2.89
  -4   0  -5    0.69    1.67
   4   0   5    0.19    2.72
  -4   0  -5    2.35    2.58
  -5   0  -5    1.71    2.60
  -5   0  -5   -2.28    3.51
  -5   0  -5   -0.84    1.88
   5   0   5    1.51    3.09
  -6   0  -5   -0.45    2.29
   6   0   5   -2.75    3.10
  -6   0  -5    1.43    3.79
  -6   0  -5   -4.61    2.56
  -7   0  -5    2.34    3.62
   7   0   5   -0.51    3.89
  -7   0  -5    5.97    5.59
  -8   1   5   27.51    7.14
  -8  -1   5   54.99    8.71
  -8  -1   5   24.50    5.17
  -8   1   5   41.72    6.65
   8  -1  -5   39.01    6.41
  -7   1   5   -0.21    2.87
  -7   1   5    5.37    4.25
  -7  -1   5    8.75    4.25
  -7  -1   5    0.77    3.81
  -7  -1   5    8.47    3.56
  -6   1   5   37.58    6.73
  -6  -1   5   43.40    5.81
  -6   1   5   39.32    5.51
  -6  -1   5   49.61    6.87
  -6  -1   5   37.28    4.93
  -6   1   5   37.31    4.01
  -5  -1   5  281.89   12.01
  -5   1   5  290.27    9.42
  -5   1   5  267.07    9.51
  -5  -1   5  275.04   13.55
  -5   1   5  254.89   13.64
  -5   1   5  270.48   11.93
  -5  -1   5  264.84   10.98
  -4   1   5   16.20    1.46
  -4   1   5    2.15    2.40
  -4  -1   5   11.27    3.33
  -4  -1   5    8.33    2.14
  -4   1   5   10.27    1.42
  -4   1   5   11.88    2.76
  -4  -1   5   10.47    2.79
  -3   1   5    5.00    2.70
  -3   1   5    0.81    1.42
  -3  -1   5    5.64    2.18
   3   1  -5    3.52    1.40
  -3  -1   5    8.52    1.72
  -3  -1   5    8.14    2.80
  -3   1   5    3.25    2.33
   2   1  -5 2567.02   63.36
   2  -1  -5 2549.04   66.77
  -2   1   5 2441.15   71.53
  -2  -1   5 2494.82   63.40
  -2   1   5 2549.12   64.97
  -2  -1   5 2453.03   68.04
  -2  -1   5 2546.05   70.73
   2   1  -5 2557.67   65.57
  -1  -1   5  107.34    5.69
   1   1  -5   97.16    5.14
   1  -1  -5  107.89    5.34
  -1   1   5  101.57    5.35
  -1   1   5  102.12    6.88
  -1   1   5  103.44    4.69
   1  -1  -5   98.55    4.54
   1   1  -5   97.96    4.00
   1   1  -5  104.15    5.69
  -1  -1   5  105.90    6.66
   0   1   5   47.99    5.05
   0   1   5   71.81    3.71
   0  -1  -5   77.15    4.89
   0   1  -5   70.14    4.74
   0  -1   5   75.27    5.59
   0  -1   5   72.93    4.47
   0  -1   5   73.96    4.69
   0  -1  -5   71.63    3.66
  -1   1  -5  100.44    5.54
   1   1   5  103.24    4.08
   1   1   5  101.59    4.13
   1   1   5   94.80    6.83
  -1  -1  -5   92.69    6.34
   1  -1   5  100.58    5.55
  -1   1  -5  101.29    6.30
  -1   1  -5  101.56    5.43
   1  -1   5   97.91    6.53
   2   1   5  581.47   20.08
   2   1   5  592.19   16.16
  -2  -1  -5  538.22   18.74
  -2   1  -5  558.22   18.31
  -2   1  -5  567.81   19.94
  -2   1  -5  557.89   18.31
   2  -1   5  535.24   19.92
  -2  -1  -5  558.85   20.01
   3   1   5   -0.03    2.54
   3   1   5    0.63    1.27
  -3  -1  -5    0.10    1.06
   3  -1   5    1.28    2.34
  -3   1  -5    1.23    2.50
  -3  -1  -5   -1.17    2.01
  -3   1  -5    0.84    1.92
  -3  -1  -5   -0.75    2.48
  -3   1  -5   -0.02    1.72
  -4  -1  -5    0.30    1.40
  -4   1  -5   -2.58    2.64
  -4  -1  -5   -2.68    2.28
  -4   1  -5   -0.50    2.10
  -4  -1  -5    3.94    3.69
  -4   1  -5   -0.85    1.72
   4   1   5    1.62    1.69
   4  -1   5   -0.04    2.65
   4   1   5    1.66    3.09
   5  -1   5   71.44    7.51
  -5   1  -5   58.48    6.68
  -5  -1  -5   60.60    7.00
   5   1   5   83.33    7.74
  -5   1  -5   80.04    8.85
  -5  -1  -5   69.77    5.06
  -5  -1  -5   52.78    7.93
  -5   1  -5   69.08    6.45
  -6  -1  -5   51.58    8.55
  -6  -1  -5   38.93    6.55
  -6   1  -5   56.94    6.59
   6  -1   5   65.99    8.12
  -6   1  -5   62.73    8.98
   6   1   5   65.86    7.77
  -6   1  -5   41.83    6.51
   7  -1   5   36.20    7.23
  -7   1  -5   25.93    6.56
  -7  -1  -5   18.55    6.72
  -7  -1  -5   37.54    7.07
  -7   1  -5   24.63    5.94
   8  -2  -5   63.01    8.22
  -8   2   5   60.05    8.04
  -8  -2   5   87.98   10.10
  -8   2   5   62.38    9.57
  -8  -2   5   54.15    6.76
  -7   2   5    6.81    3.59
  -7  -2   5    0.80    3.95
  -7   2   5   -0.04    3.55
  -7  -2   5    7.48    4.68
  -7  -2   5    8.22    3.30
  -6  -2   5   43.61    4.82
  -6  -2   5   41.32    6.38
  -6  -2   5   42.82    6.31
  -6   2   5   54.54    7.69
  -6   2   5   37.91    5.61
  -5  -2   5    4.36    3.15
  -5  -2   5    4.24    3.07
  -5   2   5    2.01    2.58
  -5   2   5    3.90    1.21
  -5   2   5    4.65    3.26
  -5  -2   5    4.10    2.01
  -4  -2   5   74.81    5.59
  -4  -2   5   71.22    5.85
  -4   2   5   65.46    5.42
  -4   2   5   60.99    6.51
  -4  -2   5   68.82    6.52
  -4  -2   5   72.12    4.26
  -3   2   5  442.68   17.40
  -3  -2   5  474.42   17.22
  -3  -2   5  464.18   16.51
  -3   2   5  457.27   15.94
  -3  -2   5  479.22   13.47
   3   2  -5  476.61   13.54
   3   2  -5  477.28   15.77
   2   2  -5 1148.58   32.65
  -2   2   5 1179.82   32.42
  -2  -2   5 1160.88   34.57
  -2   2   5 1142.19   36.38
   2  -2  -5 1157.60   30.16
  -2   2   5 1134.20   33.89
  -2  -2   5 1105.73   33.77
   2  -2  -5 1154.95   29.88
   2   2  -5 1150.77   29.27
  -1   2   5  290.01   12.82
  -1   2   5  311.57   10.06
  -1   2   5  298.35   10.87
   1   2  -5  301.97    8.67
   1  -2  -5  295.42    9.96
   1   2  -5  302.03   11.25
   1  -2  -5  287.04   10.59
  -1  -2   5  294.50   12.05
  -1  -2   5  284.56   11.45
   0  -2  -5   78.08    5.16
   0   2   5   68.19    5.85
   0   2  -5   69.11    5.03
   0  -2  -5   76.02    3.73
   0  -2   5   68.92    5.43
   0   2   5   73.39    3.83
  -1   2  -5   31.84    4.20
  -1   2  -5   27.11    3.65
   1   2   5   34.51    4.36
  -1   2  -5   35.31    3.17
   1  -2   5   33.60    4.18
  -1  -2  -5   28.22    4.10
   1   2   5   29.90    1.63
  -2   2  -5  104.32    7.34
   2   2   5  107.94    7.24
  -2   2  -5  115.37    6.32
   2  -2   5   94.69    7.07
  -2  -2  -5  112.39    7.95
  -2   2  -5  125.27    7.13
  -3   2  -5   93.66    6.55
   3   2   5  108.30    7.63
  -3  -2  -5  106.95    7.42
  -3   2  -5  112.11    7.19
   3  -2   5   94.02    7.51
  -3  -2  -5  102.33    8.52
  -3   2  -5  112.89    8.17
  -4   2  -5  156.72   10.40
  -4  -2  -5  150.18    5.59
  -4   2  -5  144.14    8.95
   4  -2   5  141.69    9.75
  -4  -2  -5  139.31   10.63
   4   2   5  156.48    5.75
   4   2   5  152.41    9.43
  -4   2  -5  145.52    8.96
  -4  -2  -5  150.00    9.47
  -5   2  -5  235.33   13.85
  -5   2  -5  223.19   12.28
  -5   2  -5  229.15   12.51
   5   2   5  230.11   12.29
  -5  -2  -5  225.90   12.56
  -5  -2  -5  221.13   14.49
   5  -2   5  239.14   13.56
   6   2   5   57.91    7.08
  -6  -2  -5   58.74    9.44
  -6   2  -5   47.86    7.73
  -6   2  -5   53.57    6.90
   6  -2   5   48.30    7.36
  -6   2  -5   51.84    7.31
  -6  -2  -5   46.20    7.28
  -7  -2  -5    8.19    4.62
  -7  -2  -5    8.35    6.12
  -7   2  -5    4.36    4.65
   7  -2   5   10.58    5.20
  -7   2  -5   11.79    4.35
  -7   2  -5    7.31    4.19
  -8   3   5   44.87    7.43
   8  -3  -5   56.57    8.13
  -8   3   5   47.81    8.94
  -8  -3   5   69.24    9.67
  -8  -3   5   68.13    9.04
  -7   3   5   -1.62    2.98
  -7   3   5   -0.46    3.86
  -7  -3   5    0.04    3.89
  -7  -3   5    2.95    2.69
  -7  -3   5    8.59    4.32
  -6  -3   5   19.99    3.55
  -6   3   5   11.45    4.72
  -6   3   5   16.18    4.24
  -6  -3   5   24.43    5.27
  -6  -3   5   16.60    5.24
  -5   3   5  312.08   16.12
  -5  -3   5  345.10   11.78
  -5  -3   5  322.29   15.04
  -5  -3   5  324.08   15.11
  -5   3   5  318.96   14.46
  -4  -3   5  534.01   19.85
  -4  -3   5  572.75   20.13
  -4   3   5  486.76   20.54
  -4  -3   5  545.77   15.49
  -4   3   5  506.07   18.82
   4   3  -5  515.40   15.76
  -4  -3   5  531.59   17.81
   3  -3  -5  119.66    4.27
  -3   3   5  112.32    7.74
  -3   3   5  121.14    7.22
   3   3  -5  116.56    7.13
  -3  -3   5  115.18    6.70
   3  -3  -5  123.15    4.35
  -3  -3   5  120.04    4.06
  -3  -3   5  107.83    7.22
  -2   3   5 2449.72   64.38
  -2  -3   5 2439.32   67.97
  -2   3   5 2425.09   66.80
   2   3  -5 2386.06   65.61
  -2  -3   5 2421.45   66.86
   2  -3  -5 2447.30   62.29
   2  -3  -5 2407.48   62.72
  -1  -3   5  213.41    9.65
  -1   3   5  200.91   10.48
   1   3  -5  206.13    9.46
  -1   3   5  198.29    8.54
  -1  -3   5  193.84    9.34
   1  -3  -5  195.36    8.13
   1  -3  -5  197.10    8.43
   0   3   5   33.14    4.53
   0  -3  -5   36.12    4.05
   0   3  -5   36.10    4.37
   0   3   5   34.55    2.82
   0   3  -5   34.01    4.35
   0  -3  -5   33.44    2.87
   0  -3   5   35.03    2.96
   0  -3   5   37.81    4.40
   0   3  -5   33.99    2.44
   1   3   5  228.85    6.74
  -1  -3  -5  214.56   10.46
  -1   3  -5  219.16    8.47
  -1   3  -5  230.41   10.81
   1  -3   5  210.04   10.49
  -1   3  -5  219.58   10.74
   1   3   5  223.29   10.76
  -1  -3  -5  222.96    6.58
  -2   3  -5 1551.76   45.96
   2   3   5 1558.48   46.38
   2  -3   5 1566.77   47.49
  -2   3  -5 1523.30   42.66
  -2   3  -5 1589.82   46.37
  -2  -3  -5 1553.56   46.18
  -3   3  -5   13.03    4.00
  -3  -3  -5   20.08    4.14
  -3  -3  -5   19.21    5.06
   3  -3   5   16.17    4.08
  -3   3  -5   18.14    3.59
   3   3   5   18.04    3.99
  -3   3  -5   12.68    3.74
  -4   3  -5   30.41    5.16
  -4   3  -5   32.57    4.98
  -4  -3  -5   28.79    5.23
  -4  -3  -5   32.20    6.59
   4   3   5   28.80    4.95
  -4   3  -5   41.41    6.44
   4  -3   5   28.45    5.55
  -5   3  -5   18.93    4.98
  -5   3  -5   15.25    4.90
  -5  -3  -5   16.87    6.01
   5   3   5   19.02    4.88
  -5   3  -5   21.09    4.74
   5  -3   5    9.62    4.15
  -5  -3  -5   15.31    4.65
  -6   3  -5  291.64   16.54
  -6  -3  -5  248.02   16.64
  -6   3  -5  276.31   14.97
  -6  -3  -5  268.56   14.78
   6  -3   5  292.15   16.68
  -6   3  -5  246.60   14.72
  -7   3  -5   40.18    7.29
  -7  -3  -5   31.67    6.78
  -7   3  -5   47.43    8.31
  -7   3  -5   46.14    7.88
   7  -3   5   34.70    7.58
  -7  -3  -5   41.84    8.69
  -8  -4   5   11.94    6.32
  -8   4   5   19.80    6.88
   8  -4  -5   27.53    6.52
  -8  -4   5   31.49    7.52
  -8   4   5   23.70    6.23
  -7  -4   5   43.69    8.29
  -7   4   5   49.70    7.64
  -7  -4   5   39.59    7.10
  -7   4   5   40.30    8.20
  -6  -4   5  103.24   10.17
  -6   4   5   93.98   10.28
  -6  -4   5  104.26    8.83
  -6   4   5   85.60    8.54
  -5  -4   5   -0.83    2.65
  -5   4   5    1.95    3.22
  -5  -4   5    7.66    3.89
  -5  -4   5    2.00    1.66
  -5   4   5    3.34    2.95
  -4  -4   5  132.84    9.42
  -4  -4   5  126.81    8.51
  -4  -4   5  132.72    5.06
  -4  -4   5  139.90    6.47
  -4   4   5  134.48    9.72
  -4   4   5  143.11    8.76
  -3  -4   5   96.10    7.02
   3  -4  -5  103.71    5.00
   3  -4  -5   98.14    4.87
   3   4  -5  101.83    7.41
  -3   4   5   91.78    6.82
  -3  -4   5  102.01    6.31
  -3   4   5   83.66    7.18
  -2  -4   5 1808.01   53.77
  -2  -4   5 1946.36   54.17
   2  -4  -5 1883.95   50.44
   2   4  -5 1962.71   53.86
  -2   4   5 1826.93   53.66
  -1  -4   5  381.85   14.70
   1   4  -5  407.52   15.68
  -1   4   5  375.55   14.04
   1  -4  -5  385.23   13.84
  -1  -4   5  354.94   14.90
   0  -4  -5   50.93    5.24
   0  -4  -5   48.72    3.76
   0   4   5   48.24    3.76
   0   4  -5   35.61    5.07
   0  -4   5   43.54    4.85
   0  -4   5   51.48    3.43
   0   4  -5   56.14    5.78
   0   4  -5   47.17    2.99
   0   4   5   49.26    5.46
   1   4   5   22.66    2.06
   1   4   5   28.86    4.38
   1  -4   5   21.62    4.10
  -1  -4  -5   19.26    4.28
  -1   4  -5   17.91    4.08
  -1  -4  -5   21.42    1.99
  -1   4  -5   20.62    2.67
  -1   4  -5   24.40    4.48
  -2   4  -5  186.65   10.76
  -2  -4  -5  203.05   11.46
   2  -4   5  188.15   10.83
  -2   4  -5  181.73   10.88
  -2   4  -5  196.91    8.82
   2   4   5  202.95   10.12
   3  -4   5  358.25   16.47
   3   4   5  350.52   14.46
  -3  -4  -5  347.92   15.21
  -3   4  -5  355.86   16.26
  -3   4  -5  375.87   16.85
  -3  -4  -5  350.62   16.92
  -3   4  -5  341.36   14.09
  -4   4  -5  373.85   15.81
  -4   4  -5  363.98   17.34
   4   4   5  364.58   14.98
  -4   4  -5  380.17   17.78
  -4  -4  -5  384.87   16.55
  -4  -4  -5  374.56   18.76
   4  -4   5  343.14   17.50
  -5   4  -5   36.37    6.45
   5  -4   5   33.28    6.74
  -5  -4  -5   44.06    8.30
  -5   4  -5   31.96    6.61
  -5  -4  -5   37.19    6.23
  -5   4  -5   33.44    5.71
  -6  -4  -5   95.19   11.94
  -6   4  -5  126.20   11.42
   6  -4   5   97.24   10.68
  -6   4  -5   75.36    8.68
  -6  -4  -5   99.98    9.80
  -6   4  -5   97.37   10.42
  -7   4  -5   -1.88    3.18
  -7  -5   5   36.27    7.10
  -7   5   5   39.34    8.71
  -7   5   5   28.27    6.17
  -7  -5   5   39.69    8.72
  -6   5   5    5.71    4.42
  -6  -5   5    9.77    4.30
  -6   5   5    3.91    3.47
  -6  -5   5   10.48    5.14
  -5  -5   5   47.01    7.49
  -5   5   5   32.96    5.62
  -5   5   5   41.55    7.37
  -5  -5   5   28.83    5.34
  -4   5   5  731.50   26.04
  -4  -5   5  789.88   28.63
  -4  -5   5  720.89   26.12
  -4   5   5  745.59   28.42
  -3  -5   5  701.34   22.28
  -3   5   5  711.97   24.36
  -3   5   5  697.13   25.82
   3   5  -5  700.14   25.35
  -3  -5   5  710.93   24.83
   3  -5  -5  691.25   21.42
  -2  -5   5  152.71    9.23
  -2   5   5  150.59    9.22
   2  -5  -5  155.49    7.87
   2   5  -5  172.82   10.28
  -2  -5   5  168.29    8.72
  -2   5   5  151.24    8.92
  -1  -5   5  342.09   13.99
   1   5  -5  333.52   15.02
   1  -5  -5  331.49   13.49
  -1   5   5  335.52   13.67
  -1  -5   5  326.03   14.63
   0   5  -5  203.48   11.17
   0   5   5  186.55    8.76
   0  -5  -5  191.22   10.57
   0   5  -5  211.05    7.41
   0   5  -5  214.11   11.90
   0  -5   5  207.60    7.61
   0  -5   5  186.12   10.21
   1   5   5  363.90   12.12
  -1  -5  -5  352.42   15.85
   1  -5   5  380.71   16.08
  -1   5  -5  347.27   15.94
   1   5   5  366.19   15.34
  -1  -5  -5  365.49   11.93
  -1   5  -5  365.17   16.91
   2   5   5  242.02   11.36
  -2   5  -5  254.28   10.63
  -2   5  -5  262.02   13.99
  -2   5  -5  236.56   12.84
  -2  -5  -5  225.02   13.27
   2  -5   5  230.96   12.82
  -3   5  -5  242.38   11.32
  -3   5  -5  223.54   13.05
  -3   5  -5  207.28   13.25
   3  -5   5  218.55   13.22
  -3  -5  -5  239.63   14.11
   3   5   5  267.55   11.18
  -4   5  -5  120.78    9.86
  -4   5  -5   95.13    9.78
  -4  -5  -5  115.38    9.00
  -4   5  -5  122.00    8.50
  -4  -5  -5  100.29   10.68
   4  -5   5  117.99   10.02
  -5   5  -5  147.56   11.80
  -5  -5  -5  136.73   10.24
  -5   5  -5  138.94   10.11
  -5   5  -5  148.46   11.27
  -5  -5  -5  122.10   12.54
   5  -5   5  131.58   11.37
  -6   5  -5  154.04   12.29
  -6  -5  -5  155.00   11.72
   6  -5   5  165.15   13.39
  -6   5  -5  174.16   13.58
  -6   5  -5  178.46   12.16
  -6  -5  -5  120.21   13.69
  -7  -6   5  136.83   14.06
  -7   6   5  142.10   11.80
  -6   6   5   25.95    6.96
  -6   6   5   28.28    6.07
  -6  -6   5   43.36    8.67
  -6  -6   5   36.76    6.66
  -5   6   5   -1.52    3.18
  -5   6   5   -0.44    2.85
  -5  -6   5    0.24    2.82
  -5  -6   5    6.81    4.67
  -4  -6   5   24.09    6.13
  -4   6   5   24.99    5.88
  -4  -6   5   20.47    4.60
  -4   6   5   17.57    4.51
   3  -6  -5  107.39    6.90
  -3  -6   5  103.27    8.01
   3   6  -5  104.31    9.00
  -3   6   5  111.73    8.38
  -3   6   5   95.29    8.41
  -2  -6   5  299.68   12.85
  -2   6   5  299.18   13.93
  -2  -6   5  295.99   14.26
   2  -6  -5  291.85   12.81
  -2   6   5  304.51   14.55
   2   6  -5  320.00   15.56
   1   6  -5  375.75   17.36
  -1   6   5  377.33   15.71
  -1  -6   5  393.17   15.95
   1  -6  -5  382.45   15.82
   0   6   5  326.23   13.45
   0   6  -5  329.93   16.78
   0  -6  -5  335.83   15.33
   0  -6   5  332.32   15.09
   0   6  -5  361.16   16.55
   0   6  -5  349.69   11.21
  -1   6  -5   -0.84    1.33
   1  -6   5   -2.15    2.53
  -1   6  -5    4.29    3.40
  -1   6  -5   -3.50    2.10
   1   6   5    0.16    1.74
  -1  -6  -5   -0.30    3.14
  -2   6  -5   54.75    5.19
  -2   6  -5   74.72    8.74
   2  -6   5   52.30    6.88
  -2  -6  -5   73.51    8.66
  -2   6  -5   64.53    7.64
   3  -6   5  322.08   17.37
  -3   6  -5  351.01   18.57
  -3   6  -5  368.99   14.98
  -3  -6  -5  373.36   18.86
   4  -6   5  181.75   13.23
  -4   6  -5  230.48   12.17
  -4   6  -5  213.31   13.45
  -4   6  -5  223.97   14.81
  -4  -6  -5  185.47   11.89
  -4  -6  -5  201.99   14.59
  -5   6  -5    9.97    5.11
  -5   6  -5    9.46    4.03
  -5  -6  -5    8.43    6.07
  -5   6  -5    6.35    4.17
  -5  -6  -5   11.28    4.81
   5  -6   5    1.93    4.02
   6  -7  -5    4.62    3.90
  -6   7   5   -0.46    4.51
  -6  -7   5   -0.03    5.23
  -6   7   5   -2.00    3.15
  -5   7   5   68.25    8.44
  -5  -7   5   63.31   10.19
  -5   7   5   57.65    9.33
  -5  -7   5   61.24    7.92
  -4  -7   5  157.97   10.92
  -4   7   5  190.33   12.11
  -4  -7   5  174.61   13.43
  -4   7   5  181.26   13.15
   3  -7  -5  398.34   16.25
  -3   7   5  428.29   18.49
  -3  -7   5  395.88   18.19
  -3   7   5  435.31   19.97
  -2  -7   5   32.05    5.85
   2  -7  -5   34.11    5.37
  -2   7   5   26.36    5.40
   2   7  -5   32.93    6.48
   1   7  -5    0.72    2.88
  -1  -7   5   -0.71    2.52
  -1   7   5    2.73    2.88
  -1  -7   5   -1.00    2.93
   1  -7  -5   -0.27    2.91
   0   7  -5    0.73    2.98
   0   7   5    8.21    3.18
   0  -7  -5    8.29    4.13
   0  -7   5    5.33    3.53
   0   7  -5    3.96    3.42
  -1   7  -5  241.04   10.18
   1  -7   5  225.46   13.18
  -1  -7  -5  238.27   14.20
  -1   7  -5  236.86   14.94
   2  -7   5   48.23    7.17
  -2  -7  -5   61.87    9.12
  -2   7  -5   69.18    8.66
  -2   7  -5   50.09    5.34
  -2   7  -5   39.71    7.50
   3  -7   5   93.95    9.87
  -3   7  -5   88.45    7.29
  -3  -7  -5   88.10   10.83
  -3   7  -5   92.95   10.83
  -3   7  -5   74.53    9.19
  -4  -7  -5   16.59    5.45
  -4   7  -5   11.62    3.94
  -4   7  -5   18.45    6.16
   4  -7   5   12.56    5.28
  -4   7  -5   13.24    5.19
  -4  -7  -5    6.41    5.83
  -5   7  -5   85.18   11.59
  -5  -7  -5   90.12    9.59
  -5  -7  -5   76.05   11.68
   5  -7   5  106.45   11.90
  -5   7  -5   66.95    9.52
  -5   7  -5   74.65    8.57
  -5  -8   5   24.12    7.23
  -5   8   5   13.22    6.07
   5  -8  -5    9.61    4.53
  -5   8   5   14.70    5.22
  -5  -8   5   20.72    5.80
  -4   8   5   14.17    5.48
  -4   8   5   18.52    5.13
  -4  -8   5   15.51    6.58
  -4  -8   5   14.48    4.83
  -3   8   5   39.56    7.21
  -3  -8   5   81.07   11.00
  -3  -8   5   79.13    8.56
  -3   8   5   49.28    7.18
  -2   8   5    1.19    3.26
  -2  -8   5   -1.96    2.75
   2   8  -5   -0.60    3.26
   2  -8  -5    0.09    3.18
   1   8  -5  194.70   13.62
  -1   8   5  224.87   12.82
   1  -8  -5  233.69   13.30
  -1  -8   5  212.56   13.39
   0  -8   5   98.59    8.96
   0   8  -5  106.31   10.50
   0   8  -5   89.20   10.52
   0  -8  -5  115.68   10.55
  -1   8  -5    7.95    4.70
  -1   8  -5   -1.08    3.12
  -1  -8  -5   -4.35    3.75
   1  -8   5    2.59    3.50
  -2   8  -5    2.94    3.79
  -2  -8  -5    3.10    5.01
  -2   8  -5    0.82    3.82
   2  -8   5    1.56    3.53
  -3   8  -5   64.41   10.06
  -3   8  -5   58.86    8.81
   3  -8   5   67.30    9.22
  -3  -8  -5   63.73   10.17
  -3  -9   5    8.98    5.65
  -3  -9   5    7.87    4.35
  -3   9   5    9.33    4.85
  -2   9   5    8.44    4.50
   2  -9  -5    8.35    4.41
  -2  -9   5    9.53    4.60
   1  -9  -5   18.83    5.70
   1   9  -5   11.72    5.09
  -1  -9   5   14.25    5.18
   0   9  -5    0.03    3.62
   0  -9  -5   -1.26    4.25
  -1   9  -5   27.77    6.73
   1  -9   5   40.37    7.54
  -1  -9  -5   59.59    9.81
  -1   9  -5   38.76    8.41
  -2   9  -5    6.60    5.12
  -2   9  -5   11.21    5.26
   2  -9   5    8.19    5.06
  -2  -9  -5    4.77    5.51
  -8   0   6    7.00    5.20
  -8   0   6    8.98    4.13
  -7   0   6   33.23    5.60
  -7   0   6   38.60    7.22
  -6   0   6  139.42   10.48
  -6   0   6  136.18    8.48
  -6   0   6  137.88    7.75
  -5   0   6  206.23    8.75
  -5   0   6  228.01   10.12
  -5   0   6  191.67   11.66
  -4   0   6  115.14    6.41
  -4   0   6  123.66    8.19
  -4   0   6  108.99    5.41
  -4   0   6  115.71    8.42
  -4   0   6  122.40    5.21
  -3   0   6 1831.59   53.61
  -3   0   6 1913.16   49.13
  -3   0   6 1947.60   49.92
  -3   0   6 1867.40   55.94
  -2   0   6   68.26    5.09
   2   0  -6   59.45    3.32
  -2   0   6   55.80    3.50
  -2   0   6   61.98    3.82
  -2   0   6   53.59    5.53
  -1   0   6  229.53    9.09
  -1   0   6  202.44   10.57
   1   0  -6  222.94    8.97
   1   0  -6  207.65    8.14
   0   0   6 2487.07   70.95
   0   0   6 2514.86   66.05
   0   0  -6 2440.74   65.90
   1   0   6 1900.21   58.79
  -1   0  -6 1976.04   55.81
   1   0   6 2109.89   54.56
  -1   0  -6 2050.64   54.32
   1   0   6 2082.67   54.40
  -2   0  -6  368.11   12.49
  -2   0  -6  360.72   15.02
  -2   0  -6  344.69   13.76
   2   0   6  360.86   15.21
  -3   0  -6  854.08   27.85
   3   0   6  894.61   29.92
  -3   0  -6  867.85   29.82
  -3   0  -6  880.49   26.08
  -4   0  -6 2437.99   70.87
   4   0   6 2531.13   72.20
  -4   0  -6 2432.50   66.20
  -4   0  -6 2319.71   67.24
   5   0   6   -1.36    3.22
  -5   0  -6    1.84    2.19
  -5   0  -6    0.95    2.82
  -5   0  -6    1.89    4.18
  -6   0  -6    0.29    3.22
  -6   0  -6   -1.44    3.87
   6   0   6   -1.40    3.51
   7   0   6   -1.19    4.39
  -7   0  -6   -0.38    3.73
  -7   0  -6   12.44    6.07
  -8   1   6   35.64    7.84
  -8  -1   6   33.08    5.75
  -8   1   6   37.55    6.44
  -8  -1   6   48.31    8.71
  -7   1   6   30.11    6.92
  -7   1   6   28.10    5.41
  -7  -1   6   35.11    6.84
  -7  -1   6   29.99    4.92
  -6   1   6 1160.33   39.59
  -6  -1   6 1141.23   38.69
  -6  -1   6 1180.23   35.12
  -6  -1   6 1140.80   34.13
  -6   1   6 1122.27   35.43
  -5  -1   6  328.83   13.12
  -5  -1   6  338.61   12.61
  -5   1   6  313.36   15.68
  -5   1   6  325.45    9.96
  -5  -1   6  312.48   15.20
  -5   1   6  321.68   13.52
  -5   1   6  346.90    9.91
  -4  -1   6    4.82    2.16
  -4  -1   6   -0.96    2.06
  -4  -1   6    0.75    2.38
  -4   1   6    0.59    1.78
  -4  -1   6    1.00    1.52
  -4   1   6   -0.13    2.07
  -3  -1   6 1070.14   33.50
  -3   1   6 1109.87   31.23
  -3  -1   6 1160.85   29.81
   3   1  -6 1096.07   30.40
  -3  -1   6 1088.01   34.46
  -3   1   6 1071.95   33.77
  -3   1   6 1065.72   35.51
   2  -1  -6  359.92   10.43
  -2   1   6  375.38   10.75
  -2  -1   6  354.75   14.63
   2   1  -6  365.85   12.14
  -2   1   6  354.45   15.11
  -2   1   6  356.89   13.61
  -2   1   6  371.23   12.52
  -2  -1   6  351.78   13.71
   2   1  -6  365.42   11.10
   1   1  -6 2108.92   56.28
   1  -1  -6 2119.65   55.37
   1  -1  -6 2173.06   56.93
  -1   1   6 2066.80   57.05
  -1   1   6 2172.42   61.69
  -1  -1   6 2085.00   57.73
  -1  -1   6 2061.83   60.91
   0  -1  -6  235.58    8.32
   0  -1   6  222.40    9.29
   0   1   6  225.71    8.32
   0  -1  -6  224.84    9.40
   0   1   6  223.45   10.97
   0   1  -6  215.37    9.52
   0  -1   6  232.77   11.06
  -1   1  -6 1119.14   31.43
   1   1   6 1111.09   30.24
   1   1   6 1108.43   35.22
  -1  -1  -6 1114.92   33.22
  -1   1  -6 1096.11   32.40
   1   1   6 1158.00   30.43
  -1   1  -6 1106.23   33.35
   1  -1   6 1048.37   34.68
  -2   1  -6   14.35    3.19
  -2   1  -6   12.97    3.61
  -2  -1  -6   10.52    3.08
  -2  -1  -6   14.42    3.84
   2   1   6   13.25    3.94
   2   1   6   14.76    1.92
   2  -1   6   18.13    4.10
  -2   1  -6   17.06    3.04
   2   1   6   16.51    1.87
  -3  -1  -6  225.20   11.29
  -3   1  -6  221.11   10.11
  -3  -1  -6  223.03    8.16
  -3  -1  -6  215.05   12.38
  -3   1  -6  219.60   10.79
  -3   1  -6  236.59   12.40
   3   1   6  230.77    8.33
   3   1   6  237.10   12.10
   3  -1   6  222.78   11.96
  -4   1  -6   21.17    5.54
  -4  -1  -6   23.16    4.75
  -4   1  -6   25.29    4.75
   4   1   6   33.65    5.54
   4  -1   6   32.69    5.68
  -4  -1  -6   29.93    6.28
  -4   1  -6   27.22    4.13
  -4  -1  -6   25.97    2.95
   5   1   6   90.37    8.65
  -5  -1  -6   86.46    9.95
  -5  -1  -6   89.37    5.58
  -5   1  -6   81.10    7.97
  -5   1  -6   86.74    7.06
   5  -1   6   67.66    7.91
  -5  -1  -6   85.01    8.24
  -5   1  -6   80.27    9.40
  -6   1  -6   52.50    7.51
  -6   1  -6   64.08    6.82
   6  -1   6   65.54    8.63
  -6   1  -6   71.21    9.77
  -6  -1  -6   48.13    7.16
   6   1   6   49.06    7.41
  -6  -1  -6   57.72    9.47
  -7  -1  -6   23.05    7.83
   7  -1   6   19.86    6.59
  -7  -1  -6   21.40    5.97
  -7   1  -6   15.83    5.26
  -7   1  -6   32.96    7.58
  -8  -2   6   -3.34    3.86
  -8   2   6   -1.36    3.33
  -8  -2   6    2.68    3.38
  -8   2   6   -0.56    4.41
  -7   2   6  113.98    9.13
  -7  -2   6   99.78   10.02
  -7  -2   6  108.23    7.67
  -7   2   6  131.28   12.14
  -7  -2   6  102.37    9.34
  -6   2   6   23.46    4.68
  -6  -2   6   21.19    3.81
  -6  -2   6   20.57    4.84
  -6  -2   6   29.09    5.84
  -6   2   6   21.42    5.57
  -5  -2   6    2.42    2.94
  -5   2   6   -0.70    2.23
  -5  -2   6    3.18    3.03
  -5   2   6    7.17    3.72
  -5  -2   6    2.61    1.93
  -4  -2   6    0.61    1.27
  -4   2   6    0.25    2.47
  -4  -2   6    0.46    2.35
  -4  -2   6    0.73    2.40
  -4  -2   6    0.68    2.30
  -4   2   6   -3.04    1.41
  -3   2   6  672.29   23.60
  -3   2   6  697.60   25.53
  -3  -2   6  674.46   23.21
   3   2  -6  672.69   21.29
  -3   2   6  681.81   21.83
   3   2  -6  711.30   18.94
  -3  -2   6  702.00   18.91
  -3  -2   6  684.82   23.37
  -2   2   6  240.75    9.87
   2   2  -6  232.65    9.76
  -2  -2   6  244.27   10.74
   2  -2  -6  239.39    7.45
  -2   2   6  231.38   10.41
  -2  -2   6  231.32   10.96
  -2   2   6  237.98   12.18
   2   2  -6  239.02    7.25
   1  -2  -6  268.45    9.89
   1   2  -6  244.93   10.33
  -1   2   6  261.05   10.12
  -1  -2   6  234.12   10.61
  -1   2   6  264.80   12.54
  -1  -2   6  256.37   11.71
   1  -2  -6  260.37    9.39
   0   2  -6  101.58    6.40
   0   2   6   92.84    7.31
   0  -2  -6   97.64    6.21
   0  -2   6  105.47    6.27
   0  -2   6  103.35    7.13
   0   2   6  104.06    4.97
   0   2  -6   90.94    4.67
   0  -2  -6  105.29    4.76
   1   2   6  446.00   17.54
   1  -2   6  452.34   17.41
  -1   2  -6  431.08   16.25
   1   2   6  445.66   12.72
  -1   2  -6  429.68   16.59
   1   2   6  449.37   12.72
  -1  -2  -6  433.44   16.55
  -1   2  -6  451.17   14.69
  -2  -2  -6  640.31   22.46
   2   2   6  613.36   22.29
   2  -2   6  607.47   22.44
  -2   2  -6  587.52   21.86
  -2   2  -6  603.09   19.83
  -2   2  -6  610.94   21.10
  -3   2  -6  526.01   19.08
   3   2   6  543.16   20.74
  -3  -2  -6  553.39   21.85
  -3  -2  -6  533.53   20.07
  -3   2  -6  559.87   19.95
  -3   2  -6  529.96   21.20
   3  -2   6  538.65   21.27
   4   2   6  505.78   20.16
   4  -2   6  490.56   20.83
  -4  -2  -6  491.68   19.67
  -4   2  -6  490.72   19.17
  -4  -2  -6  510.27   21.98
  -4   2  -6  469.20   18.90
  -4   2  -6  482.57   20.97
  -5   2  -6  183.27   11.00
  -5  -2  -6  203.74   14.07
  -5   2  -6  168.03   12.37
  -5  -2  -6  173.41   11.31
   5   2   6  170.95   11.36
   5  -2   6  189.49   12.35
  -5   2  -6  191.16   11.51
   6  -2   6   20.97    5.85
  -6  -2  -6   24.00    7.07
  -6   2  -6   27.67    5.63
  -6   2  -6   26.18    6.56
   6   2   6   17.34    5.61
  -6   2  -6   26.21    5.72
  -6  -2  -6   31.50    6.41
  -7   2  -6    5.17    3.93
  -7   2  -6    0.50    3.62
  -7   2  -6    2.01    4.33
  -7  -2  -6    3.93    4.24
   7  -2   6    1.09    4.34
  -7  -2  -6   -3.41    4.30
  -8   3   6    1.52    3.56
  -8  -3   6    2.37    4.38
  -8   3   6    1.02    4.28
  -7  -3   6  146.28   11.34
  -7   3   6  168.91   13.24
  -7  -3   6  148.39   11.39
  -7   3   6  144.96   10.80
  -6   3   6    2.50    3.07
  -6   3   6    3.67    3.91
  -6  -3   6    2.76    3.75
  -6  -3   6    6.92    2.66
  -6  -3   6    2.67    3.74
  -5   3   6  499.61   21.44
  -5  -3   6  485.01   19.29
  -5   3   6  447.17   18.50
  -5  -3   6  486.53   15.29
  -5  -3   6  494.94   19.99
  -4   3   6  338.44   16.16
  -4   3   6  351.92   14.64
   4   3  -6  343.89   11.18
  -4  -3   6  352.56   15.49
  -4  -3   6  363.40   15.30
  -4  -3   6  360.09   14.13
  -4  -3   6  369.61   11.02
  -3  -3   6  127.76    8.07
  -3   3   6  123.85    8.31
  -3  -3   6  129.23    7.74
  -3   3   6  122.08    7.53
   3   3  -6  122.94    4.16
   3   3  -6  132.11    7.56
  -2   3   6   23.99    3.67
   2  -3  -6   25.88    2.64
  -2  -3   6   26.15    4.22
  -2   3   6   28.88    4.17
   2  -3  -6   28.07    2.36
  -2   3   6   27.13    4.93
   2   3  -6   22.92    3.78
  -2  -3   6   24.75    4.04
  -1  -3   6  287.76   12.32
   1  -3  -6  263.71   10.23
   1   3  -6  271.28    7.76
  -1   3   6  260.86   13.05
  -1   3   6  268.46   10.72
  -1  -3   6  249.95   11.58
   1  -3  -6  285.26   10.62
   1   3  -6  269.60   11.65
   0  -3  -6  574.83   19.05
   0   3   6  530.60   20.81
   0   3  -6  557.09   19.70
   0  -3  -6  565.91   16.82
   0   3  -6  562.98   16.16
   0  -3   6  553.43   20.30
   0   3   6  570.58   17.09
   1   3   6   25.88    4.77
  -1   3  -6   21.06    3.96
  -1   3  -6   22.84    4.12
   1  -3   6   19.01    3.95
  -1  -3  -6   18.85    3.98
   1   3   6   20.10    1.56
  -1   3  -6   21.47    2.79
   2   3   6  193.41   10.66
  -2  -3  -6  196.04   11.24
  -2   3  -6  191.31   10.68
  -2   3  -6  166.83    9.88
   2  -3   6  183.93   10.69
  -2   3  -6  182.55    8.75
  -3   3  -6   51.02    6.77
  -3   3  -6   54.56    5.36
   3  -3   6   51.91    6.45
  -3  -3  -6   35.82    6.31
   3   3   6   35.23    5.40
  -3  -3  -6   32.70    5.34
  -3   3  -6   33.72    5.23
  -4   3  -6  367.04   16.44
   4   3   6  327.86   15.38
  -4   3  -6  327.04   14.90
  -4  -3  -6  322.80   15.47
  -4   3  -6  375.25   17.52
  -4  -3  -6  346.37   17.77
   4  -3   6  325.65   16.61
  -5   3  -6    3.28    3.17
  -5   3  -6    4.03    3.74
   5   3   6    2.36    4.15
  -5   3  -6    7.09    3.66
  -5  -3  -6    3.05    4.38
   5  -3   6    7.54    4.28
  -5  -3  -6   10.48    4.15
  -6   3  -6    7.58    3.97
  -6  -3  -6   19.49    5.57
  -6  -3  -6    8.62    6.00
  -6   3  -6   12.71    4.52
  -6   3  -6   13.04    5.13
   6  -3   6   11.80    5.36
  -7  -3  -6   19.92    7.62
  -7  -3  -6   18.48    5.76
  -7   3  -6   23.90    6.39
  -7   3  -6   21.64    6.30
  -7   3  -6   20.29    5.83
  -8  -4   6    4.24    4.94
  -8  -4   6    5.57    5.77
  -8   4   6    1.17    4.62
  -8   4   6    5.32    4.48
  -7  -4   6   12.78    4.82
  -7  -4   6   13.49    5.73
  -7   4   6    7.18    5.01
  -7   4   6   16.19    5.21
  -6   4   6    1.57    3.70
  -6   4   6   -2.92    2.53
  -6  -4   6    0.27    3.48
  -6  -4   6    1.05    3.53
  -5  -4   6   35.36    5.79
  -5  -4   6   53.77    7.21
  -5   4   6   47.99    6.28
  -5   4   6   44.42    7.27
  -4  -4   6    4.00    2.96
  -4  -4   6    5.49    2.59
  -4   4   6    3.50    2.66
  -4  -4   6    5.95    3.78
  -4   4   6   -1.74    2.64
  -3  -4   6   -0.64    2.67
  -3   4   6    2.49    2.31
   3  -4  -6    1.01    1.59
   3   4  -6   -1.10    2.00
  -3  -4   6    1.25    2.41
  -3   4   6   -0.21    2.41
   3  -4  -6    2.81    1.37
  -2   4   6  151.15    8.74
  -2   4   6  139.81    8.31
  -2  -4   6  148.19    8.89
   2  -4  -6  146.70    6.93
   2   4  -6  142.47    8.71
  -2  -4   6  147.53    8.76
   1   4  -6   61.23    6.17
  -1  -4   6   64.83    6.14
  -1   4   6   53.77    4.66
  -1  -4   6   53.63    5.55
   1  -4  -6   57.49    5.02
  -1   4   6   64.99    6.98
   0   4   6   66.89    4.50
   0   4  -6   67.04    6.61
   0   4  -6   57.39    6.38
   0  -4  -6   70.11    4.53
   0   4   6   80.21    7.32
   0  -4  -6   76.19    6.42
   0   4  -6   71.92    3.77
   0  -4   6   62.24    6.16
   1   4   6    8.26    1.32
   1  -4   6    5.16    3.12
   1   4   6    5.60    3.35
  -1  -4  -6    8.77    3.51
  -1   4  -6    4.71    2.81
  -1  -4  -6    9.37    1.35
  -1   4  -6    9.30    2.15
  -1   4  -6    9.30    3.44
   2   4   6  382.80   15.95
  -2   4  -6  378.72   13.87
  -2   4  -6  387.64   16.87
  -2  -4  -6  372.31   16.78
  -2   4  -6  349.95   16.46
   2  -4   6  345.30   16.36
  -3  -4  -6   24.49    5.11
  -3   4  -6   20.07    4.82
   3  -4   6   18.05    4.86
   3   4   6   21.70    4.51
  -3  -4  -6   22.36    5.66
  -3   4  -6   24.23    4.14
  -3   4  -6   16.92    4.51
   4  -4   6   15.40    5.03
  -4  -4  -6    5.36    3.71
   4   4   6    6.23    3.86
  -4   4  -6    8.38    3.35
  -4   4  -6   15.32    4.74
  -4   4  -6   22.08    5.28
  -4  -4  -6   13.35    5.55
   5  -4   6  128.20   10.94
  -5   4  -6  133.36   10.73
  -5   4  -6  145.77   11.28
  -5   4  -6  133.22    9.72
  -5  -4  -6  145.39   13.24
  -5  -4  -6  156.05   10.91
  -6  -4  -6   22.69    7.48
  -6   4  -6   20.71    5.90
  -6   4  -6   25.54    6.43
   6  -4   6   15.50    5.72
  -6   4  -6   15.52    4.84
  -6  -4  -6   17.45    5.49
  -7   5   6   -1.54    4.20
  -7  -5   6   -0.60    3.60
  -7  -5   6   -0.04    4.88
  -7   5   6    1.69    3.70
  -6  -5   6   39.08    6.94
  -6   5   6   37.18    7.69
  -6   5   6   44.93    7.10
  -6  -5   6   24.66    6.37
  -5   5   6   -2.27    2.88
  -5   5   6   -0.33    2.53
  -5  -5   6    5.31    3.41
  -5  -5   6    1.19    3.51
  -4  -5   6  115.36    9.76
  -4   5   6  108.42    8.49
  -4   5   6  104.92    9.21
  -4  -5   6  131.35    9.15
  -3   5   6   45.41    6.19
  -3  -5   6   42.45    4.92
  -3  -5   6   48.23    6.04
   3   5  -6   49.82    6.40
   3  -5  -6   42.18    4.00
  -3   5   6   39.51    5.49
   2  -5  -6   28.41    3.98
  -2  -5   6   34.33    4.98
   2   5  -6   32.38    5.26
  -2  -5   6   33.33    5.18
  -2   5   6   35.77    5.18
  -1  -5   6    3.65    3.02
  -1   5   6   -0.19    1.86
  -1  -5   6   -1.33    1.99
   1  -5  -6    2.16    2.64
   1   5  -6    1.78    2.54
   0  -5   6   15.90    2.46
   0  -5   6   11.57    3.88
   0  -5  -6   10.57    3.75
   0   5   6   12.41    4.09
   0   5  -6   13.03    1.91
   0   5  -6   12.53    3.71
   0   5   6   11.44    2.69
   0   5  -6   14.77    4.16
   1   5   6   56.07    3.55
   1  -5   6   51.37    6.37
  -1   5  -6   52.95    6.73
  -1  -5  -6   53.84    6.73
  -1   5  -6   56.53    7.23
   1   5   6   56.56    6.27
  -2   5  -6  187.91    9.04
  -2   5  -6  188.54   11.54
   2  -5   6  161.15   10.90
  -2   5  -6  168.91   11.49
   2   5   6  183.89   10.38
  -2  -5  -6  172.26   11.56
  -3   5  -6    3.42    2.44
  -3   5  -6    7.55    3.72
   3  -5   6    5.87    3.74
  -3  -5  -6    3.84    4.20
  -3   5  -6    8.86    4.09
   3   5   6    8.51    3.29
  -4   5  -6   55.25    6.58
  -4  -5  -6   68.08    9.55
   4  -5   6   55.12    7.93
  -4   5  -6   40.91    7.25
  -4   5  -6   50.49    7.75
  -4  -5  -6   44.75    6.92
  -5   5  -6    9.76    4.60
   5  -5   6    9.78    4.67
  -5   5  -6    7.98    4.43
  -5  -5  -6    2.51    5.24
  -5   5  -6    3.29    3.31
  -5  -5  -6    3.24    4.16
  -6   5  -6   14.15    5.33
   6  -5   6   19.00    6.47
  -6  -5  -6   18.55    5.95
  -6  -5  -6   12.46    6.52
  -6   5  -6   10.32    5.12
  -6   5  -6   14.68    4.94
  -6   6   6   -3.35    3.09
  -6   6   6    2.12    4.12
  -6  -6   6   -1.25    4.41
  -6  -6   6    0.58    3.72
  -5   6   6    2.77    3.29
  -5  -6   6   -0.63    3.81
  -5   6   6   -2.49    2.95
  -5  -6   6    1.23    3.29
  -4   6   6   52.06    7.61
  -4   6   6   55.40    6.97
  -4  -6   6   63.42    8.93
  -4  -6   6   38.89    6.25
  -3  -6   6   95.18    8.06
   3  -6  -6  119.35    6.91
  -3   6   6   78.27    8.24
  -3   6   6  108.75    8.48
   3   6  -6  102.67    8.88
  -2  -6   6    7.15    3.82
   2   6  -6    6.67    3.69
   2  -6  -6    2.60    2.97
  -2   6   6   10.38    3.56
  -2  -6   6    8.83    3.63
  -1  -6   6   26.61    5.11
  -1   6   6   23.85    4.34
  -1  -6   6   29.89    5.08
   1   6  -6   25.65    5.39
   1  -6  -6   20.91    4.54
   0   6  -6   20.22    4.91
   0  -6   6   22.45    4.91
   0   6   6   25.74    3.77
   0   6  -6   19.28    2.37
   0  -6  -6   28.40    5.40
   0   6  -6   15.03    4.86
  -1  -6  -6   11.11    4.44
  -1   6  -6    8.09    3.71
   1  -6   6    4.61    3.59
  -1   6  -6   12.59    2.62
  -1   6  -6    3.43    3.47
  -2   6  -6   44.00    7.56
  -2   6  -6   33.69    4.35
  -2  -6  -6   36.27    6.93
   2  -6   6   29.60    5.74
  -2   6  -6   35.57    6.18
  -3   6  -6   93.18   10.06
  -3   6  -6   75.34    8.77
  -3   6  -6   84.28    6.92
  -3  -6  -6  101.47   10.66
  -4  -6  -6   11.07    4.75
  -4   6  -6   17.79    5.55
   4  -6   6   18.29    5.89
  -4   6  -6   15.85    4.29
  -4  -6  -6   20.56    7.10
  -4   6  -6   18.43    5.40
   5  -6   6   62.31    9.33
  -5   6  -6   59.92    9.27
  -5  -6  -6   77.13   11.65
  -5  -6  -6   78.33    9.33
  -5   6  -6   77.72    8.46
  -5   6  -6   79.20   10.41
  -6   7   6    4.44    4.92
  -6  -7   6    0.89    5.05
  -6   7   6    0.38    3.45
  -6  -7   6    2.29    4.17
  -5  -7   6  163.89   11.68
  -5   7   6  196.18   12.97
  -5  -7   6  148.81   14.12
  -5   7   6  187.68   14.27
  -4  -7   6   40.75    8.22
  -4  -7   6   48.45    7.19
  -4   7   6   61.89    8.86
  -4   7   6   50.40    7.37
  -3   7   6   21.97    5.34
  -3   7   6   26.75    5.58
  -3  -7   6   23.76    5.31
   3   7  -6   27.84    6.33
   2   7  -6    8.70    4.24
   2  -7  -6    7.75    3.64
  -2   7   6   10.39    3.85
  -2  -7   6   14.98    4.45
   1  -7  -6   99.11    8.44
   1   7  -6   86.74    9.37
  -1  -7   6   90.91    9.04
  -1   7   6  109.39    8.25
  -1  -7   6  108.15    8.81
   0   7  -6   80.18    9.55
   0  -7  -6   73.04    8.23
   0   7   6   85.69    6.65
   0   7  -6  100.63   10.02
   0  -7   6   75.34    7.95
   1  -7   6   18.39    5.28
  -1  -7  -6   15.66    5.31
  -1   7  -6    8.09    4.47
  -1   7  -6    8.00    4.26
   2  -7   6   -1.89    3.06
  -2  -7  -6   -5.55    3.86
  -2   7  -6   -0.38    2.76
  -2   7  -6    1.36    3.37
  -2   7  -6   -0.69    2.15
  -3  -7  -6   18.73    6.49
  -3   7  -6   12.34    5.10
  -3   7  -6    4.29    4.09
   3  -7   6   10.84    4.87
  -3   7  -6    7.00    3.26
  -4  -7  -6   76.76    9.06
  -4  -7  -6   74.30   10.82
  -4   7  -6   92.93   10.85
  -4   7  -6   74.83    7.76
  -4   7  -6   84.14   11.15
  -4   8   6    5.36    4.29
  -4  -8   6   -0.73    3.40
  -4  -8   6    3.90    4.64
  -4   8   6    1.79    3.75
  -3  -8   6   39.48    6.87
  -3   8   6   47.42    7.84
   2   8  -6  110.90   11.21
  -2   8   6   83.24    8.84
   2  -8  -6   92.80    8.64
  -2  -8   6  109.82   10.32
   1  -8  -6  154.49   11.06
  -1  -8   6  163.00   11.89
   1   8  -6  152.41   12.06
  -1   8   6  154.42   10.45
   0  -8   6    3.34    4.09
   0  -8  -6   19.92    5.75
   0   8  -6   10.18    4.64
  -1   8  -6   32.60    7.11
   1  -8   6   36.52    6.72
  -1   8  -6   41.18    8.43
  -1  -8  -6   55.15    8.70
  -2  -8  -6  174.38   13.67
  -2   8  -6  156.37   12.61
  -2   8  -6  165.64   13.89
   2  -8   6  158.30   12.36
  -3  -8  -6   98.25   12.45
  -3   8  -6   98.14   11.19
   3  -8   6   61.78    8.98
  -3   8  -6   60.96   10.11
  -3  -9   6    0.97    3.75
  -2   9   6   21.12    6.07
  -2  -9   6   18.71    5.56
   2   9  -6   21.65    6.61
   1   9  -6  103.51   11.57
  -1  -9   6  132.52   12.05
   1  -9  -6  137.94   11.26
   0   9  -6   63.61    9.76
   0  -9  -6   62.69    9.22
  -1  -9  -6   35.49    7.99
   1  -9   6   27.40    6.61
  -1   9  -6   27.58    7.06
  -1   9  -6   10.35    5.64
  -8   0   7   -1.00    3.18
  -8   0   7    2.36    4.46
  -7   0   7   -1.41    3.21
  -7   0   7    1.48    2.85
  -6   0   7   -1.00    3.30
  -6   0   7   -1.29    2.16
  -5   0   7   -0.01    1.92
  -5   0   7    0.05    1.88
  -5   0   7   -1.33    2.57
  -4   0   7    0.63    1.49
  -4   0   7    0.48    1.62
  -4   0   7   -1.85    2.54
  -4   0   7   -0.60    2.35
  -4   0   7    0.02    1.16
  -3   0   7   -0.30    2.00
  -3   0   7    0.31    2.77
  -3   0   7   -0.71    1.38
  -3   0   7    1.47    1.33
   3   0  -7   -1.12    0.88
   2   0  -7   -0.73    0.99
  -2   0   7    6.18    3.32
  -2   0   7    0.78    1.41
  -2   0   7    0.98    1.80
  -1   0   7    0.56    1.48
   1   0  -7   -1.55    1.21
  -1   0   7    0.04    2.68
   0   0   7    4.30    3.10
   0   0   7    0.34    1.35
   0   0  -7   -1.98    1.50
  -1   0  -7    0.25    2.19
   1   0   7    0.97    1.42
   1   0   7    0.96    1.38
   1   0   7   -1.00    2.74
  -1   0  -7   -2.18    1.72
   2   0   7   -0.10    2.68
   2   0   7   -0.49    1.03
  -2   0  -7   -0.95    1.84
  -2   0  -7    2.68    2.78
  -3   0  -7   -2.13    1.42
  -3   0  -7    2.57    2.54
  -3   0  -7    0.98    3.23
   3   0   7   -2.28    2.96
  -4   0  -7    0.99    1.95
  -4   0  -7    3.92    3.65
   4   0   7   -2.49    3.10
  -4   0  -7    2.25    2.86
   5   0   7    1.86    3.87
  -5   0  -7   -1.04    3.74
  -5   0  -7    2.46    2.39
  -5   0  -7   -0.63    2.97
  -6   0  -7   -2.70    3.70
   6   0   7   -6.38    3.57
  -6   0  -7   -0.68    3.22
  -7   0  -7   -1.53    3.83
   7   0   7   -8.02    4.01
  -7   0  -7    5.84    5.07
  -8  -1   7   16.39    6.00
  -8  -1   7   20.22    5.02
  -8   1   7   14.98    6.06
  -8   1   7   14.07    4.90
  -7  -1   7  163.18    9.59
  -7   1   7  141.15   12.04
  -7   1   7  157.76   10.34
  -7  -1   7  167.01   12.33
  -6  -1   7    0.59    3.20
  -6   1   7    1.64    3.44
  -6  -1   7   -1.20    2.28
  -6   1   7   -0.86    2.55
  -6  -1   7   -2.45    2.92
  -5   1   7    1.65    2.22
  -5  -1   7   -1.06    2.42
  -5   1   7    2.66    3.10
  -5  -1   7   -1.49    2.35
  -5  -1   7    1.16    1.98
  -4   1   7  237.17   12.50
  -4  -1   7  252.53    9.96
  -4   1   7  234.08   13.11
  -4  -1   7  252.35   12.53
  -4  -1   7  223.54   12.05
  -4  -1   7  243.72    9.50
  -4   1   7  245.91   10.78
   3   1  -7   -0.52    1.36
  -3  -1   7   -0.12    1.25
  -3   1   7    0.78    2.77
  -3  -1   7    3.56    2.91
  -3   1   7    4.75    2.72
  -3  -1   7    1.27    2.14
  -3   1   7   -0.66    1.62
  -2  -1   7   68.51    5.45
  -2   1   7   66.67    4.00
   2   1  -7   67.29    3.74
  -2  -1   7   47.97    5.75
   2  -1  -7   67.03    3.42
  -2   1   7   63.53    5.24
  -2   1   7   57.19    6.40
   2   1  -7   73.56    4.53
   1   1  -7   13.73    2.66
  -1   1   7   13.75    2.75
  -1  -1   7   10.32    3.69
  -1  -1   7    9.01    2.47
   1  -1  -7   11.96    2.34
  -1   1   7   14.82    4.07
   0   1   7  885.41   25.53
   0   1   7  889.22   30.02
   0  -1  -7  849.17   26.48
   0  -1   7  870.50   26.74
   0  -1  -7  926.72   25.52
   0  -1   7  834.50   29.41
   0   1  -7  870.22   27.03
   1   1   7    6.74    1.70
   1  -1   7    7.10    3.28
  -1  -1  -7    5.72    2.95
   1   1   7    6.49    1.72
  -1   1  -7    4.39    2.23
   1   1   7    3.08    3.17
  -1   1  -7    3.05    2.58
   2   1   7   11.50    4.23
   2  -1   7    8.56    3.52
   2   1   7    8.74    1.76
  -2   1  -7    9.13    2.93
   2   1   7    9.02    1.85
  -2   1  -7   12.64    3.88
  -2   1  -7    6.13    2.24
  -2  -1  -7    6.55    2.81
  -2  -1  -7    6.51    3.60
   3   1   7  122.56    5.66
  -3   1  -7  108.23    6.94
  -3  -1  -7  129.53    8.68
  -3  -1  -7  124.01    9.53
   3  -1   7  112.37    8.98
   3   1   7  120.03    9.16
  -3   1  -7  100.06    7.50
  -3   1  -7  106.92    8.76
  -4   1  -7  132.62    8.04
  -4   1  -7  130.98    9.14
   4  -1   7  130.27   10.25
  -4   1  -7  119.78   10.17
  -4  -1  -7  139.59    9.55
  -4  -1  -7  131.64    6.31
   4   1   7  149.25   10.57
  -4  -1  -7  105.13   10.22
  -5   1  -7    6.94    3.64
  -5   1  -7    7.93    4.57
  -5  -1  -7    4.94    4.69
  -5  -1  -7    0.96    3.21
   5  -1   7   -4.04    3.23
   5   1   7   -1.24    3.59
  -5   1  -7    1.38    2.75
  -6  -1  -7   32.82    7.58
  -6  -1  -7   43.09    7.27
  -6   1  -7   30.75    7.37
   6   1   7   32.92    6.94
  -6   1  -7   20.10    5.49
   6  -1   7   38.35    7.52
  -7   1  -7    2.94    4.50
  -7  -1  -7   -3.42    3.62
   7  -1   7   -4.43    4.38
  -7  -1  -7   -0.30    5.35
  -7   1  -7   -2.75    3.37
  -8   2   7    4.14    3.98
  -8  -2   7    2.34    4.47
  -8   2   7    8.90    5.77
  -7   2   7    0.26    3.97
  -7  -2   7    1.04    3.71
  -7  -2   7    0.34    3.93
  -7   2   7    3.07    3.40
  -7  -2   7    1.31    2.62
  -6  -2   7    0.06    3.48
  -6  -2   7   -0.77    3.05
  -6   2   7    0.01    2.64
  -6   2   7    0.81    3.48
  -6  -2   7   -0.38    2.09
  -5  -2   7   71.64    6.49
  -5   2   7   65.89    6.47
  -5   2   7   73.41    8.23
  -5  -2   7   77.99    5.14
  -5  -2   7   62.60    7.30
  -4   2   7  559.33   19.90
  -4  -2   7  575.67   21.44
  -4  -2   7  597.70   17.29
  -4  -2   7  589.91   21.90
  -4   2   7  558.91   22.18
  -3   2   7    0.18    2.96
  -3  -2   7    5.78    2.80
   3   2  -7    6.29    2.31
  -3  -2   7    4.12    3.05
  -3   2   7    6.08    2.40
   3   2  -7    7.38    1.51
  -3   2   7    3.65    2.58
   2   2  -7  128.55    7.12
   2  -2  -7  129.56    5.29
  -2   2   7  135.11    9.49
  -2  -2   7  140.86    8.14
  -2  -2   7  146.13    9.02
   2   2  -7  137.84    5.11
  -2   2   7  118.21    7.47
  -2   2   7  155.55    5.75
   1   2  -7   25.17    3.61
  -1   2   7   25.49    3.38
   1  -2  -7   29.71    3.29
  -1  -2   7   29.70    4.94
  -1   2   7   26.15    4.99
  -1  -2   7   27.03    3.98
   0   2  -7 1387.51   37.26
   0   2  -7 1380.97   40.30
   0   2   7 1337.45   43.39
   0  -2  -7 1459.98   37.89
   0  -2  -7 1366.99   39.45
   0  -2   7 1364.94   42.83
   0   2   7 1397.64   38.08
   0  -2   7 1339.56   40.22
  -1   2  -7    1.14    1.75
  -1  -2  -7    4.61    2.90
   1   2   7    0.45    1.06
   1   2   7    1.07    3.08
  -1   2  -7    1.16    2.23
   1  -2   7    0.13    2.53
  -1   2  -7    2.97    2.11
   1   2   7    0.03    1.01
  -2   2  -7  634.26   21.86
  -2  -2  -7  615.18   22.97
  -2   2  -7  633.93   23.13
  -2   2  -7  602.84   20.46
   2   2   7  626.66   23.54
   2  -2   7  608.89   23.48
  -3   2  -7  227.98   11.42
   3   2   7  240.44   13.17
  -3  -2  -7  244.62   13.73
  -3   2  -7  232.34   11.55
  -3  -2  -7  257.36   12.71
  -3   2  -7  233.53   13.19
   3  -2   7  230.20   13.07
  -4  -2  -7  198.72   11.85
   4   2   7  196.32   12.43
  -4   2  -7  212.32   11.28
   4  -2   7  189.35   12.48
  -4  -2  -7  206.73   13.58
  -4   2  -7  212.14   11.58
  -4   2  -7  226.25   13.58
   5   2   7    3.98    4.40
   5  -2   7   12.29    4.94
  -5  -2  -7    2.33    3.54
  -5   2  -7    2.59    3.93
  -5   2  -7    3.16    3.19
  -5   2  -7    7.44    3.36
  -5  -2  -7    6.37    5.18
  -6   2  -7   23.82    5.73
  -6  -2  -7   17.03    5.47
  -6   2  -7   17.89    6.00
  -6  -2  -7   27.20    7.64
   6  -2   7   28.79    7.03
  -6   2  -7   27.35    5.66
  -7   2  -7   10.96    4.72
  -8  -3   7   -4.07    3.92
  -8   3   7   -0.96    4.05
  -8   3   7   -2.70    3.41
  -7   3   7  246.91   16.47
  -7   3   7  296.79   15.40
  -7  -3   7  242.68   14.44
  -7  -3   7  226.61   14.85
  -6  -3   7   42.63    4.26
  -6   3   7   35.69    5.87
  -6  -3   7   42.61    6.53
  -6  -3   7   31.64    6.16
  -6   3   7   34.59    7.23
  -5  -3   7   26.59    5.48
  -5   3   7   32.72    6.48
  -5  -3   7   22.64    4.94
  -5   3   7   24.05    4.78
  -5  -3   7   23.34    2.82
  -4  -3   7  629.58   17.31
  -4   3   7  593.68   21.68
  -4  -3   7  624.34   23.30
  -4   3   7  584.32   23.66
  -4  -3   7  653.45   22.36
   3   3  -7  150.00    8.32
  -3  -3   7  141.88    8.91
   3   3  -7  142.01    4.56
  -3   3   7  145.02    9.19
  -3   3   7  149.29    8.57
  -3   3   7  137.00   10.23
  -3  -3   7  148.53    9.11
  -2  -3   7   62.88    6.38
  -2  -3   7   68.15    6.28
   2  -3  -7   62.27    4.02
  -2   3   7   51.49    5.29
   2   3  -7   59.61    5.58
  -2   3   7   58.09    7.01
   2  -3  -7   63.91    3.62
  -1  -3   7  234.50   11.87
   1   3  -7  217.87   10.73
   1   3  -7  239.03    7.40
  -1   3   7  215.16   12.39
  -1   3   7  234.38    9.97
  -1  -3   7  228.80   10.94
   1  -3  -7  229.06    9.74
   0  -3   7 2591.55   76.24
   0  -3   7 2591.04   73.33
   0   3   7 2674.61   70.13
   0   3   7 2623.61   77.25
   0   3  -7 2664.02   72.91
   0  -3  -7 2720.38   69.75
   0  -3  -7 2660.43   71.76
   0   3  -7 2664.07   67.63
  -1   3  -7   -0.12    1.32
  -1   3  -7   -1.11    1.82
   1   3   7   -2.37    2.60
   1  -3   7    0.47    2.82
   1   3   7    0.62    0.83
  -1   3  -7    1.10    2.46
  -1  -3  -7    2.30    3.03
  -2   3  -7    2.78    2.63
   2  -3   7    3.52    3.26
  -2   3  -7    6.75    3.42
  -2  -3  -7   10.34    3.99
  -2   3  -7    7.94    2.61
   2   3   7    4.54    3.67
  -3  -3  -7   44.75    6.29
   3  -3   7   53.58    7.04
  -3   3  -7   52.66    5.69
   3   3   7   58.63    6.97
  -3  -3  -7   47.37    7.42
  -3   3  -7   56.65    7.43
  -3   3  -7   68.12    7.00
   4  -3   7  315.06   16.74
   4   3   7  320.06   15.86
  -4  -3  -7  308.29   17.36
  -4   3  -7  344.36   15.36
  -4   3  -7  308.85   15.47
  -4  -3  -7  349.80   16.22
  -5   3  -7  127.77    9.78
  -5  -3  -7   89.41   10.99
   5  -3   7  104.35   10.52
  -5  -3  -7   76.78    8.57
  -5   3  -7   87.20    8.58
  -5   3  -7   90.17   10.17
   5   3   7   96.14    9.17
   6  -3   7   27.88    6.87
  -6   3  -7   41.54    6.90
  -6   3  -7   44.44    7.36
  -6  -3  -7   33.56    6.76
  -6   3  -7   36.27    7.60
  -6  -3  -7   20.70    7.24
  -7  -4   7    3.52    4.08
  -7  -4   7    0.76    4.51
  -7   4   7   -1.80    3.16
  -7   4   7   -0.71    3.21
  -6  -4   7   17.40    5.48
  -6  -4   7   15.25    5.08
  -6   4   7   13.91    5.16
  -6   4   7   18.72    4.94
  -5   4   7  205.11   11.90
  -5  -4   7  218.12   12.80
  -5  -4   7  215.45   12.56
  -5   4   7  209.52   13.51
  -4   4   7  293.51   15.25
  -4   4   7  295.09   13.92
  -4  -4   7  301.17   12.92
  -4  -4   7  274.27   14.09
   3   4  -7   41.60    5.40
  -3  -4   7   34.18    5.33
  -3  -4   7   37.18    5.26
  -3   4   7   43.92    5.53
  -3   4   7   35.42    5.57
   3  -4  -7   44.46    3.35
  -2  -4   7  145.00    9.44
   2  -4  -7  138.12    7.01
  -2  -4   7  150.23    9.28
   2   4  -7  142.45    8.83
  -2   4   7  143.13   10.48
  -2   4   7  156.19    8.97
  -1   4   7  715.83   26.86
  -1   4   7  727.52   22.93
   1   4  -7  706.41   24.53
  -1  -4   7  637.75   24.22
   1  -4  -7  706.52   22.56
  -1  -4   7  722.07   25.28
   0  -4  -7  516.75   16.25
   0   4   7  512.76   16.52
   0   4   7  487.78   20.79
   0  -4   7  527.48   20.42
   0   4  -7  537.14   20.24
   0  -4  -7  500.12   18.82
   0   4  -7  529.44   15.37
  -1   4  -7  345.45   15.75
   1   4   7  359.60   10.25
   1   4   7  366.53   16.39
  -1  -4  -7  343.00   15.38
  -1   4  -7  339.81   12.26
  -1   4  -7  327.15   15.88
   1  -4   7  330.87   15.86
  -2  -4  -7  919.53   32.26
   2  -4   7  928.40   32.98
  -2   4  -7  925.85   28.33
   2   4   7  992.68   32.55
  -2   4  -7  925.43   32.52
   3   4   7   84.61    7.91
  -3   4  -7  109.67    8.76
  -3   4  -7   76.27    8.48
  -3  -4  -7   88.59    8.29
  -3  -4  -7   78.81    9.05
  -3   4  -7  105.34    7.32
   3  -4   7   61.18    7.57
  -4  -4  -7   33.85    7.63
  -4   4  -7   54.27    7.42
   4  -4   7   29.64    6.50
  -4   4  -7   32.93    5.39
   4   4   7   34.09    5.94
  -4   4  -7   56.41    8.07
  -4  -4  -7   38.17    6.49
  -5   4  -7   10.16    4.67
  -5  -4  -7    3.70    5.39
  -5   4  -7    5.23    3.69
  -5   4  -7    9.23    3.98
   5  -4   7    7.60    4.95
  -5  -4  -7    6.09    4.24
   6  -4   7   44.12    8.45
  -6   4  -7   40.54    7.64
  -6  -4  -7   32.84    6.88
  -6  -4  -7   44.74    9.50
  -6   4  -7   45.76    7.22
  -6   4  -7   50.07    8.55
  -7   5   7    9.52    5.46
  -7  -5   7    9.61    5.39
  -7   5   7   11.26    4.96
  -7  -5   7   -0.20    4.89
  -6   5   7  181.50   13.84
  -6  -5   7  162.52   11.79
  -6   5   7  151.80   11.45
  -6  -5   7  190.12   13.17
  -5   5   7  232.46   13.50
  -5  -5   7  228.70   13.55
  -5  -5   7  261.54   14.95
  -5   5   7  265.39   15.72
  -4   5   7   59.55    7.15
  -4   5   7   55.94    7.52
  -4  -5   7   74.54    7.83
  -3  -5   7  130.24    9.38
   3  -5  -7  137.65    6.91
  -3   5   7  143.34    9.46
   3   5  -7  145.35    9.72
  -3  -5   7  139.08    9.00
  -3   5   7  150.57    9.95
  -2  -5   7  117.87    8.64
  -2  -5   7  121.95    8.73
   2   5  -7  110.76    8.48
  -2   5   7  102.79    7.76
   2  -5  -7  109.13    6.85
  -1  -5   7  424.17   17.50
   1  -5  -7  377.11   15.37
   1   5  -7  386.80   17.33
  -1   5   7  407.46   15.54
  -1  -5   7  389.23   17.20
   0   5   7 1056.88   35.54
   0  -5   7  980.53   34.13
   0   5  -7 1001.51   33.86
   0   5   7 1006.60   29.76
   0  -5  -7  943.92   32.08
   0   5  -7 1059.96   27.51
   1   5   7  112.34    4.68
   1  -5   7   73.87    7.90
  -1   5  -7  105.04    8.64
  -1   5  -7   74.97    8.38
  -1  -5  -7  111.75    8.83
   1   5   7  125.81    9.14
  -2   5  -7   18.73    4.82
   2   5   7   22.87    4.99
  -2  -5  -7   24.02    5.67
  -2   5  -7    9.48    3.98
   2  -5   7   22.41    5.26
  -2   5  -7   18.95    3.60
  -3   5  -7   28.74    5.97
  -3   5  -7   20.11    5.59
  -3   5  -7   18.54    4.04
   3   5   7   24.79    4.94
   3  -5   7   17.82    5.30
  -3  -5  -7   22.68    6.32
  -4  -5  -7  192.81   14.36
  -4   5  -7  189.86   11.27
  -4   5  -7  224.52   14.24
  -4  -5  -7  197.44   12.72
   4  -5   7  184.36   13.36
  -4   5  -7  200.68   13.61
  -5   5  -7  235.26   15.48
  -5  -5  -7  219.73   14.01
  -5   5  -7  224.01   15.07
   5  -5   7  222.00   15.60
  -5   5  -7  255.88   14.12
  -5  -5  -7  228.33   16.57
  -6  -6   7   23.65    6.13
  -6  -6   7   40.17    8.61
  -6   6   7   33.49    7.88
  -6   6   7   26.94    6.14
  -5   6   7  102.03   11.15
  -5  -6   7  115.99   11.65
  -5   6   7  118.19   10.01
  -5  -6   7  102.87    9.78
  -4  -6   7   25.34    5.61
  -4   6   7   22.64    5.82
  -4   6   7   27.89    5.68
  -3   6   7  141.95   10.34
  -3   6   7  123.77    9.29
  -3  -6   7  120.96    9.42
   3   6  -7  115.76    9.57
  -2  -6   7  233.17   12.51
  -2   6   7  219.23   12.04
   2  -6  -7  212.43   10.71
   2   6  -7  244.97   13.52
  -2  -6   7  197.10   12.21
   1  -6  -7  286.12   13.30
   1   6  -7  261.02   14.44
  -1   6   7  279.50   12.73
  -1  -6   7  282.54   14.07
  -1  -6   7  253.29   14.04
   0   6   7  249.08   10.67
   0  -6  -7  241.73   13.08
   0  -6   7  233.23   13.44
   0   6  -7  242.98   13.87
  -1   6  -7  371.69   13.04
  -1   6  -7  349.38   17.49
   1  -6   7  373.71   17.72
  -1   6  -7  341.13   18.36
  -1  -6  -7  338.29   16.98
  -2  -6  -7  439.72   20.77
   2   6   7  487.70   19.56
  -2   6  -7  437.02   20.81
  -2   6  -7  465.47   16.86
  -2   6  -7  448.83   21.92
  -3   6  -7   35.37    7.15
  -3   6  -7   31.28    4.97
   3  -6   7   22.92    5.94
  -3  -6  -7   19.29    6.50
  -3   6  -7   37.08    6.97
  -4  -6  -7   -1.66    3.74
  -4   6  -7    5.08    3.84
  -4   6  -7    3.00    4.03
   4  -6   7    0.52    3.87
  -4  -6  -7   -4.61    4.68
  -4   6  -7   -0.87    2.79
  -5  -6  -7   -1.50    3.82
  -5   6  -7    0.44    3.99
  -5  -6  -7   -1.13    5.53
  -5   6  -7    6.50    3.95
  -5   6  -7   -0.66    3.47
   5  -6   7   -8.07    2.98
  -5  -7   7  120.87   12.79
  -5   7   7  163.94   13.30
  -5  -7   7  149.60   11.64
  -5   7   7  143.98   11.52
  -4   7   7    4.12    3.66
  -4  -7   7    2.52    4.48
  -4  -7   7   -0.01    3.33
  -4   7   7    4.56    3.92
  -3  -7   7   23.74    5.61
   3   7  -7   30.93    6.53
  -3   7   7   31.42    6.26
   2   7  -7  151.98   11.80
  -2  -7   7  162.58   11.06
  -2  -7   7  167.71   11.63
  -2   7   7  176.50   11.22
   2  -7  -7  185.54   10.64
  -1  -7   7  113.82    9.51
  -1  -7   7   83.38    9.03
  -1   7   7  116.85    8.38
   1   7  -7  131.48   10.60
   1  -7  -7  107.55    8.90
   0  -7   7  147.69   11.22
   0   7  -7  149.15   11.38
   0  -7  -7  142.62   10.72
   1  -7   7  147.74   11.25
  -1  -7  -7  141.66   11.21
  -1   7  -7  133.22   11.81
  -1   7  -7  148.19   11.49
  -2   7  -7   28.16    6.40
  -2   7  -7   27.03    6.79
   2  -7   7   12.43    4.98
  -2  -7  -7   36.99    7.95
  -3   7  -7   33.66    7.79
   3  -7   7   22.12    6.24
  -3   7  -7   29.57    5.11
  -3  -7  -7   30.15    7.76
  -3   7  -7   27.32    6.72
  -4  -7  -7   74.92   11.65
   4  -7   7   70.78   10.19
  -4   7  -7   82.47   11.31
  -4   7  -7   58.49    7.19
  -4  -7  -7   67.94    8.98
  -4   7  -7   68.49    9.94
  -4  -8   7   11.88    6.29
  -4   8   7   -1.60    3.66
  -4   8   7   13.97    5.84
  -4  -8   7    7.54    4.39
  -3  -8   7   61.72    8.73
   3   8  -7   66.98    9.78
  -3   8   7   45.85    7.87
  -2   8   7   27.31    5.78
  -2  -8   7   21.66    5.83
   2   8  -7   22.45    6.49
  -1  -8   7   -4.37    3.70
   1   8  -7    1.80    3.82
  -1  -8   7   -0.30    3.10
   1  -8  -7   -4.98    3.27
   0  -8   7   82.91    9.23
   0   8  -7  108.35   11.34
   0  -8  -7   93.51    9.84
  -1  -8  -7   12.29    5.87
  -1   8  -7   27.56    6.44
   1  -8   7   31.19    6.94
  -1   8  -7   16.64    5.90
  -2   8  -7   71.44    9.91
  -2  -8  -7  100.41   11.66
  -2   8  -7   60.82    9.99
   2  -8   7   75.17    9.73
  -3  -8  -7   60.40   10.37
  -3   8  -7   61.77    9.76
   2   9  -7   31.28    8.01
  -2  -9   7   24.96    6.35
   1  -9  -7   20.87    6.34
  -1  -9   7   14.49    5.52
   1   9  -7   18.28    6.24
   0  -9  -7    3.94    5.14
   0   9  -7   18.41    6.29
  -8   0   8   61.28   10.04
  -8   0   8   64.17    7.83
  -7   0   8    9.77    5.07
  -7   0   8   -2.33    2.98
  -6   0   8   62.55    8.15
  -6   0   8   82.03    6.85
  -5   0   8  411.34   15.54
  -5   0   8  412.80   13.20
  -5   0   8  412.19   18.73
  -4   0   8  360.21   11.49
  -4   0   8  350.47   13.24
  -4   0   8  352.63   16.01
  -4   0   8  351.03   16.75
  -4   0   8  373.20   11.56
  -3   0   8  102.24    8.57
  -3   0   8  123.00    5.73
  -3   0   8  104.21    7.76
   3   0  -8  112.46    5.06
  -3   0   8  123.73    6.43
   2   0  -8   -0.12    1.37
  -2   0   8   -0.17    2.04
  -2   0   8   -2.37    2.74
   1   0  -8    0.39    1.58
  -1   0   8    4.92    2.15
  -1   0   8    1.27    3.23
   0   0   8 1048.57   30.71
   0   0   8 1034.22   35.05
   0   0  -8 1023.73   31.34
   1   0   8 2104.91   56.37
  -1   0  -8 2053.56   56.46
   1   0   8 2016.56   62.21
   2   0   8   14.61    2.73
   2   0   8   10.45    4.23
  -2   0  -8   17.21    3.87
  -2   0  -8    9.69    3.88
  -3   0  -8  213.86   11.46
   3   0   8  201.87   12.52
  -3   0  -8  193.80   12.38
  -4   0  -8   66.44    7.51
  -4   0  -8   71.16    5.49
   4   0   8   62.03    8.00
  -4   0  -8   65.00    8.64
  -5   0  -8  650.98   28.28
   5   0   8  639.33   27.30
  -5   0  -8  690.50   26.34
  -6   0  -8    9.43    4.55
  -6   0  -8   11.33    5.81
   6   0   8   11.25    5.35
  -8   1   8  119.91   12.69
  -8  -1   8  145.19   10.13
  -8  -1   8  150.49   13.12
  -8   1   8  165.52   11.49
  -7  -1   8   92.98   10.28
  -7   1   8   67.68    7.63
  -7  -1   8   57.61    6.35
  -7   1   8   58.52    9.17
  -6   1   8   22.66    5.81
  -6  -1   8   19.73    4.31
  -6  -1   8   23.61    4.12
  -6  -1   8   26.73    5.83
  -6   1   8   20.86    4.42
  -5  -1   8   69.65    5.68
  -5   1   8   59.93    7.60
  -5  -1   8   73.05    7.92
  -5   1   8   76.68    6.30
  -5  -1   8   64.61    7.31
  -5  -1   8   69.35    5.34
  -4   1   8  601.75   23.23
  -4  -1   8  649.90   19.25
  -4   1   8  594.50   20.40
  -4  -1   8  600.07   23.06
  -4  -1   8  625.48   23.82
  -4   1   8  592.71   24.45
  -3   1   8  312.19   15.49
  -3   1   8  296.60   11.92
   3   1  -8  299.21   11.03
  -3   1   8  309.08   13.78
   3  -1  -8  295.43    8.75
  -3  -1   8  296.62   13.71
  -3  -1   8  326.39   14.94
  -3   1   8  312.52    9.21
   2  -1  -8 2828.70   74.77
  -2   1   8 2897.42   79.15
  -2   1   8 3044.52   75.41
  -2  -1   8 2834.03   79.49
   2   1  -8 2871.29   76.33
  -2  -1   8 2927.34   83.88
  -2   1   8 2913.94   84.54
  -1   1   8 1000.90   30.23
  -1   1   8 1033.35   34.68
   1  -1  -8 1030.88   29.32
   1   1  -8  993.09   29.93
  -1  -1   8  998.38   31.03
  -1  -1   8 1006.55   34.12
   0  -1   8  953.14   29.55
   0   1   8  987.51   33.47
   0   1   8  966.55   28.30
   0  -1  -8  991.51   28.21
   0   1  -8  959.30   29.91
   0  -1   8  954.67   32.99
   0  -1  -8  940.78   29.35
   1  -1   8  162.20    8.25
  -1   1  -8  166.24    8.76
   1  -1   8  150.14   10.38
   1   1   8  167.18    7.07
   1   1   8  177.10    7.39
  -1  -1  -8  168.69    9.66
  -1   1  -8  166.98    9.65
   1   1   8  154.10   10.68
  -2  -1  -8  423.68   18.13
   2   1   8  456.27   14.13
   2   1   8  427.10   19.06
  -2   1  -8  420.05   16.47
  -2  -1  -8  423.63   17.13
   2   1   8  436.47   13.85
  -2   1  -8  436.42   18.29
   2  -1   8  403.56   18.57
   3   1   8  887.46   33.66
   3   1   8 1003.54   27.56
   3  -1   8  922.85   33.93
  -3  -1  -8  989.10   33.91
  -3   1  -8  957.46   30.31
  -3   1  -8  977.03   31.25
  -3  -1  -8  949.03   31.64
  -3   1  -8 1007.76   33.97
  -4  -1  -8  122.36    9.50
  -4   1  -8  132.98   10.87
   4  -1   8  125.87   10.43
   4   1   8  120.06   10.36
  -4  -1  -8  146.64   11.58
  -4   1  -8  141.39    8.49
  -4   1  -8  144.43    9.81
  -5   1  -8  155.46   10.96
  -5  -1  -8  104.49   11.58
  -5  -1  -8  163.50   11.48
   5   1   8  137.38   11.57
   5  -1   8  133.91   11.47
  -5   1  -8  157.79    9.54
  -6  -1  -8   26.41    6.32
  -6   1  -8   21.79    6.53
  -6   1  -8   14.35    5.08
   6   1   8   12.34    6.01
  -6  -1  -8   15.22    6.59
   6  -1   8   17.47    6.30
  -8   2   8    6.36    5.12
  -8   2   8   14.33    5.13
  -8  -2   8    5.49    4.95
  -7   2   8    1.72    3.23
  -7   2   8    7.29    4.65
  -7  -2   8    3.52    3.04
  -7  -2   8    2.57    4.12
  -6   2   8    7.94    3.69
  -6  -2   8    3.47    2.48
  -6  -2   8    7.31    3.95
  -6  -2   8    5.16    3.65
  -6   2   8    8.96    4.71
  -5   2   8   73.34    6.85
  -5  -2   8   73.39    7.34
  -5  -2   8   74.83    6.61
  -5   2   8   73.06    8.33
  -5  -2   8   78.85    5.28
  -5  -2   8   81.60    8.41
  -4  -2   8  143.05    9.81
   4   2  -8  140.82    7.66
  -4   2   8  147.40    8.69
  -4  -2   8  144.93    9.79
  -4   2   8  150.06   10.23
  -4  -2   8  164.34    6.87
  -4   2   8  162.45   11.58
  -3   2   8   11.32    3.07
   3   2  -8   14.03    1.96
  -3   2   8    9.07    4.21
   3   2  -8   12.85    2.89
  -3  -2   8   13.87    3.79
  -3  -2   8   17.41    4.68
  -3   2   8   14.15    3.73
  -2  -2   8   65.84    7.02
  -2   2   8   67.69    7.35
   2   2  -8   74.87    3.80
   2   2  -8   68.14    5.22
  -2   2   8   77.63    6.01
  -2   2   8   76.68    4.70
   2  -2  -8   66.84    3.98
  -2  -2   8   70.81    6.12
  -1  -2   8   16.30    3.70
  -1   2   8    0.51    1.78
  -1   2   8   -6.19    2.39
   1   2  -8   -1.43    1.58
   1  -2  -8   -1.52    1.76
  -1  -2   8    1.02    3.27
   0   2   8  932.11   26.62
   0  -2   8  877.75   28.75
   0   2   8  867.12   31.75
   0   2  -8  902.88   29.01
   0  -2  -8  962.40   26.49
   0  -2   8  853.33   31.12
   0  -2  -8  917.85   28.45
   0   2  -8  940.04   26.47
  -1  -2  -8  520.78   19.73
   1   2   8  530.90   21.74
  -1   2  -8  516.36   17.58
   1  -2   8  519.02   21.20
  -1   2  -8  517.77   19.96
   1   2   8  537.54   15.84
   1   2   8  520.50   15.66
   2   2   8   25.50    5.64
  -2   2  -8   29.74    5.53
   2   2   8   30.74    2.13
  -2  -2  -8   31.36    5.70
  -2   2  -8   29.41    4.32
  -2   2  -8   28.26    4.61
   2   2   8   22.55    1.90
   2  -2   8   26.77    5.43
   3  -2   8   44.29    6.92
   3   2   8   40.39    6.59
  -3   2  -8   43.98    6.91
  -3  -2  -8   44.78    6.38
  -3   2  -8   49.71    5.90
  -3  -2  -8   48.91    7.59
  -3   2  -8   51.66    5.93
   4   2   8   56.26    7.91
  -4   2  -8   48.45    7.72
  -4  -2  -8   58.02    7.33
  -4   2  -8   67.79    7.18
  -4   2  -8   49.57    6.26
  -4  -2  -8   55.76    8.65
   4  -2   8   49.91    7.70
  -5   2  -8  286.18   16.87
  -5  -2  -8  271.63   17.15
   5  -2   8  247.67   15.92
  -5  -2  -8  245.05   14.60
  -5   2  -8  269.66   14.71
   5   2   8  272.92   15.95
  -5   2  -8  272.56   14.01
  -6  -2  -8   82.39    9.73
   6  -2   8   68.55   10.00
  -6  -2  -8   49.75    9.63
  -6   2  -8   85.55    9.71
  -8   3   8    6.35    5.58
  -8  -3   8    3.73    4.67
  -8   3   8    3.67    4.29
  -7   3   8   87.47    9.07
  -7  -3   8   68.52    9.14
  -7   3   8   97.29   11.53
  -7  -3   8   83.43    8.94
  -6  -3   8   29.26    6.10
  -6  -3   8   15.15    4.78
  -6   3   8   17.20    5.79
  -6   3   8   20.43    5.02
  -5  -3   8   12.36    4.01
  -5   3   8    6.68    3.40
  -5   3   8    8.38    4.30
  -5  -3   8    5.91    3.93
  -5  -3   8   15.91    2.52
  -5  -3   8   18.86    4.65
  -4  -3   8  102.32    8.38
  -4  -3   8  111.94    8.40
  -4   3   8  115.32    9.26
  -4   3   8  109.07    7.97
   4   3  -8  116.51    7.55
  -3   3   8  208.88   13.13
   3   3  -8  203.01    6.31
   3   3  -8  202.23   10.24
  -3  -3   8  198.42   11.50
  -3  -3   8  210.41   11.44
  -3   3   8  200.77   11.27
  -3   3   8  226.75   10.93
  -2   3   8  419.21   19.55
  -2   3   8  430.02   16.80
   2   3  -8  428.74   12.14
   2   3  -8  425.07   16.64
  -2  -3   8  464.38   17.92
   2   3  -8  446.25   11.99
   2  -3  -8  436.40   14.00
  -2  -3   8  436.04   18.39
   1   3  -8   49.81    5.61
  -1  -3   8   31.56    5.75
  -1   3   8   28.67    3.88
  -1   3   8   29.19    5.76
   1   3  -8   35.04    2.80
   1  -3  -8   34.37    4.18
  -1  -3   8   36.62    5.03
   0  -3   8  132.69    8.53
   0  -3  -8  150.10    6.56
   0  -3   8  151.57   10.07
   0   3  -8  130.26    8.66
   0   3   8  141.93    6.71
   0  -3  -8  140.27    8.67
   0   3   8  163.73   10.80
  -1   3  -8   -2.55    2.12
  -1   3  -8    0.39    1.66
   1  -3   8    3.36    3.28
  -1  -3  -8    3.02    3.30
   1   3   8    2.20    1.09
   1   3   8   -0.16    3.35
  -2   3  -8  180.46   10.70
  -2  -3  -8  180.35   11.51
   2   3   8  178.93   11.55
  -2   3  -8  187.09   11.42
  -2   3  -8  177.06    9.19
   2  -3   8  176.11   11.62
  -3   3  -8   37.47    5.88
  -3   3  -8   30.91    4.91
  -3   3  -8   36.78    6.71
  -3  -3  -8   47.74    7.75
   3  -3   8   43.16    6.98
  -3  -3  -8   31.74    5.75
   3   3   8   41.25    6.67
  -4   3  -8   93.75    8.37
  -4   3  -8   82.68    8.27
  -4   3  -8   97.03   10.19
  -4  -3  -8   69.09    9.44
   4  -3   8   97.13    9.99
  -4  -3  -8   95.99    9.21
   4   3   8   87.87    9.16
  -5   3  -8   32.39    6.27
   5  -3   8   26.26    6.56
  -5   3  -8   36.54    7.67
  -5  -3  -8   28.65    7.89
  -5  -3  -8   23.46    5.87
  -5   3  -8   36.06    6.30
   6  -3   8   -2.58    4.49
  -6   3  -8    0.34    3.52
  -6   3  -8   14.40    5.43
  -6  -3  -8   -0.70    5.44
  -6   3  -8   -2.63    2.98
  -6  -3  -8   -2.02    3.75
  -7   4   8    1.10    3.82
  -7   4   8    6.90    4.75
  -7  -4   8    2.71    4.50
  -7  -4   8   -0.52    3.63
  -6  -4   8   21.16    5.83
  -6   4   8   37.45    7.73
  -6   4   8   30.66    6.16
  -6  -4   8   29.02    6.20
  -5   4   8    3.88    3.81
  -5  -4   8    3.54    3.44
  -5   4   8    1.17    2.98
  -5  -4   8    6.65    3.81
  -4  -4   8   39.47    5.41
   4   4  -8   36.07    5.36
  -4   4   8   37.65    5.93
  -4   4   8   39.11    6.44
  -4  -4   8   43.28    6.37
  -3  -4   8   60.65    6.80
   3  -4  -8   73.75    3.92
   3   4  -8   63.83    6.49
  -3  -4   8   68.82    7.26
  -3   4   8   60.28    6.79
  -3   4   8   57.86    6.39
  -2  -4   8   57.41    6.67
   2   4  -8   65.73    6.62
  -2   4   8   50.67    7.49
   2  -4  -8   57.93    4.75
  -2  -4   8   54.67    6.75
  -2   4   8   53.71    5.86
   1   4  -8   21.88    4.59
   1  -4  -8   16.88    3.91
   1   4  -8   20.77    1.73
  -1  -4   8   27.64    4.98
  -1   4   8   19.82    3.52
  -1   4   8   17.73    5.16
  -1  -4   8   17.93    4.95
   0  -4   8  238.46   12.36
   0   4   8  240.92    9.36
   0   4  -8  235.62    8.66
   0  -4   8  226.52   12.85
   0   4   8  223.99   13.30
   0   4  -8  232.75   12.43
   0  -4  -8  212.19   11.36
   0  -4  -8  247.23    9.22
  -1   4  -8   -2.87    1.40
   1  -4   8    1.18    3.35
   1   4   8   -0.01    3.43
  -1  -4  -8    0.55    3.28
  -1   4  -8   -0.57    2.66
  -1   4  -8    0.60    2.81
   1   4   8    0.87    0.87
  -2   4  -8    1.13    2.78
  -2   4  -8    6.98    3.57
  -2  -4  -8   -0.14    3.58
   2   4   8    4.39    3.79
   2  -4   8   -0.72    3.19
  -2   4  -8    1.27    2.27
  -3   4  -8   -1.59    2.67
  -3  -4  -8   -6.52    3.32
  -3   4  -8   -0.95    2.00
  -3  -4  -8    0.67    3.45
   3   4   8    3.77    3.75
   3  -4   8   -3.39    3.04
  -3   4  -8    2.30    3.31
   4  -4   8    3.78    4.06
  -4   4  -8   13.07    4.04
   4   4   8    4.97    4.26
  -4   4  -8    7.28    4.14
  -4   4  -8    2.08    3.37
  -4  -4  -8   -0.80    4.53
  -4  -4  -8    2.25    3.87
  -5  -4  -8   28.89    7.94
  -5  -4  -8   32.89    6.66
  -5   4  -8   32.34    6.04
   5  -4   8   28.83    6.96
  -5   4  -8   49.09    8.73
  -5   4  -8   27.48    6.16
  -6   4  -8   42.39    8.21
  -6  -4  -8   37.35    9.06
  -6   4  -8   35.90    6.86
  -7  -5   8   30.68    7.48
  -7   5   8   15.52    6.21
  -7  -5   8   16.75    6.14
  -7   5   8   14.72    5.74
  -6  -5   8    8.27    4.44
  -6   5   8   13.86    5.66
  -6   5   8   25.88    6.03
  -6  -5   8   24.65    6.50
  -5   5   8    8.76    4.29
  -5  -5   8   15.81    5.31
  -5   5   8   11.16    4.92
  -5  -5   8   22.51    5.69
  -4   5   8   68.85    8.20
   4   5  -8   77.94    8.16
  -4  -5   8   91.25    8.82
  -4   5   8   53.51    6.99
  -3  -5   8    6.57    3.41
  -3  -5   8    4.41    4.05
  -3   5   8    4.08    3.14
  -3   5   8    8.52    3.69
   3   5  -8    1.15    2.81
  -2  -5   8    7.80    4.09
   2   5  -8    4.83    3.32
   2  -5  -8    4.44    2.79
  -2   5   8    5.11    2.97
  -2  -5   8    7.82    3.51
  -1   5   8   66.43    8.24
  -1  -5   8   72.71    7.67
  -1   5   8   67.52    5.79
  -1  -5   8   61.29    7.29
   1  -5  -8   65.28    6.42
   1   5  -8   82.51    8.16
   0   5   8  225.48   13.48
   0   5   8  214.70    9.15
   0   5  -8  205.32    7.85
   0   5  -8  208.97   12.33
   0  -5  -8  205.69   11.44
   0  -5   8  209.43   12.56
   1  -5   8    1.04    3.50
   1   5   8   -1.64    2.83
  -1   5  -8   -1.59    2.56
  -1   5  -8   -4.56    2.12
  -1  -5  -8    5.46    4.00
  -1   5  -8   -0.01    1.31
  -2  -5  -8    1.21    4.10
  -2   5  -8    1.84    3.35
  -2   5  -8   -1.85    1.73
   2   5   8    1.69    3.23
  -2   5  -8   -0.22    2.90
   2  -5   8    2.06    3.74
  -3   5  -8   -2.29    2.63
  -3   5  -8    3.38    3.57
  -3  -5  -8   -0.39    3.67
  -3   5  -8    1.06    2.53
   3   5   8    1.89    3.48
   3  -5   8    0.16    3.63
  -3  -5  -8    1.96    4.51
  -4   5  -8   14.43    5.18
   4  -5   8   20.68    6.10
  -4   5  -8   13.61    4.43
  -4   5  -8   13.88    5.13
  -4  -5  -8    2.38    4.23
  -4  -5  -8   15.14    6.04
   5  -5   8    5.58    4.88
  -5   5  -8    8.19    4.24
  -5   5  -8   14.50    5.56
  -5  -5  -8    7.73    6.28
  -5   5  -8    7.40    4.49
  -5  -5  -8    7.81    5.07
  -6  -6   8    5.31    4.28
  -6   6   8    8.84    5.43
  -6   6   8    8.16    4.63
  -6  -6   8   10.28    5.49
  -5  -6   8   -0.10    3.28
  -5   6   8    3.65    3.65
  -5   6   8    1.77    3.98
  -5  -6   8    2.98    4.34
  -4   6   8   -2.04    3.25
  -4  -6   8    3.56    3.64
  -4   6   8    3.30    3.50
   4   6  -8    0.58    3.47
  -3   6   8   44.63    6.82
  -3  -6   8   36.03    6.16
  -3  -6   8   37.85    6.06
   3   6  -8   63.22    8.00
   2  -6  -8    7.59    3.52
  -2   6   8    7.08    3.60
  -2  -6   8   12.40    4.93
  -2  -6   8   13.84    4.52
   2   6  -8    3.28    3.40
  -1   6   8    1.72    2.55
  -1  -6   8    3.20    3.93
  -1  -6   8    4.82    3.32
   1  -6  -8   -2.96    3.05
   1   6  -8    2.16    3.14
   0  -6   8    4.84    3.99
   0  -6  -8    5.16    4.00
   0   6  -8    4.86    3.62
   1  -6   8   42.43    7.04
  -1   6  -8   57.43    8.43
  -1  -6  -8   44.78    7.25
   1   6   8   50.85    7.14
  -1   6  -8   66.57    8.48
   2  -6   8   56.17    8.07
   2   6   8   50.83    6.80
  -2   6  -8   58.33    5.61
  -2  -6  -8   52.99    8.38
  -2   6  -8   54.07    8.44
  -2   6  -8   48.36    7.62
  -3   6  -8   -3.36    2.68
  -3   6  -8   -0.30    2.61
  -3   6  -8    1.10    3.68
  -3  -6  -8    3.23    5.29
   3  -6   8   -0.17    3.63
  -4  -6  -8   -3.01    3.65
   4  -6   8    3.47    4.32
  -4   6  -8    0.09    2.93
  -4  -6  -8    2.17    5.29
  -4   6  -8    4.61    3.91
  -4   6  -8    0.96    4.00
  -5  -7   8    1.86    4.89
  -5   7   8   -3.07    3.32
  -5  -7   8    9.84    4.73
  -5   7   8    7.33    4.75
  -4   7   8  184.99   13.66
  -4   7   8  209.53   13.47
  -4  -7   8  203.21   13.36
  -3  -7   8   89.56    9.55
   3   7  -8  131.95   11.67
  -3   7   8  100.94    9.94
  -2  -7   8   99.01    9.48
   2   7  -8  112.82   11.02
  -2   7   8   96.95    8.50
  -2  -7   8  113.57    9.87
   1  -7  -8   38.82    6.42
  -1  -7   8   29.67    6.33
   1   7  -8   46.00    7.56
  -1   7   8   42.49    5.67
  -1  -7   8   47.96    7.78
   0   7  -8   -3.19    2.76
   0  -7   8   -2.51    3.69
   0  -7  -8   -0.99    3.78
  -1   7  -8    6.91    4.53
   1  -7   8    9.61    4.86
  -1   7  -8    5.09    4.18
  -1  -7  -8    3.23    4.86
  -2   7  -8   80.11   10.08
  -2   7  -8   89.37   11.12
  -2  -7  -8   78.35   10.29
   2  -7   8   65.47    9.24
   3  -7   8   36.31    7.91
  -3  -7  -8   19.05    7.21
  -3   7  -8   28.10    7.49
  -4  -8   8   36.11    8.12
  -4  -8   8   22.38    6.29
  -4   8   8   25.10    6.88
   3   8  -8   32.00    7.39
  -3   8   8   40.51    7.45
   2   8  -8    5.49    4.45
  -2  -8   8    5.60    4.20
   1   8  -8   21.05    6.18
  -1  -8   8   24.90    6.46
   1  -8  -8   22.89    6.10
   0  -8  -8  201.36   13.52
   0  -8   8  190.54   13.75
   0  -8   8  204.12   14.20
   0   8  -8  166.01   13.36
  -1  -8  -8   96.46   10.93
   1  -8   8   70.04    9.66
  -2   8  -8    8.26    4.87
  -2  -8  -8   26.08    7.62
  -2   8  -8    3.61    4.93
   2  -8   8   -0.74    4.46
  -8   0   9    1.04    3.27
  -8   0   9    0.61    4.42
  -7   0   9    0.87    2.77
  -7   0   9   -6.74    3.20
  -6   0   9   -1.62    3.34
  -6   0   9   -0.46    2.64
  -5   0   9   -0.08    3.45
  -5   0   9   -1.27    2.23
  -5   0   9    0.14    3.11
  -4   0   9   -4.00    1.69
  -4   0   9   -2.48    3.04
  -4   0   9   -0.57    2.52
   3   0  -9   -0.26    1.24
  -3   0   9    0.59    3.58
  -3   0   9    1.44    2.49
   2   0  -9   -1.02    1.35
  -2   0   9   -2.61    3.22
  -2   0   9   -1.62    1.80
   1   0  -9   -2.15    1.67
  -1   0   9    2.41    3.79
  -1   0   9    0.28    1.79
   0   0   9    3.70    3.92
   0   0  -9    1.34    2.48
   0   0   9    1.86    1.82
  -1   0  -9   -1.20    1.99
   1   0   9   -0.57    1.44
  -1   0  -9   -3.79    2.06
   1   0   9   -2.20    3.24
  -2   0  -9   -4.56    2.56
   2   0   9   -1.93    1.60
  -2   0  -9    2.84    2.82
   2   0   9    2.02    3.96
   3   0   9   -1.40    3.73
  -3   0  -9    0.35    3.41
  -3   0  -9    3.58    3.18
  -4   0  -9    0.91    3.14
   4   0   9    0.56    4.00
  -4   0  -9   -3.39    3.57
   5   0   9   -4.94    3.95
  -5   0  -9    2.96    4.28
  -5   0  -9   -2.54    2.93
  -6   0  -9    6.48    5.06
   6   0   9   -1.97    4.89
  -6   0  -9    0.10    3.67
  -8   1   9   -0.62    3.75
  -8  -1   9    5.60    3.85
  -8  -1   9    5.85    4.97
  -8   1   9    0.69    4.41
  -7  -1   9   -2.69    2.62
  -7  -1   9   -4.23    3.11
  -7   1   9    0.02    3.09
  -7   1   9   -1.54    3.37
  -6   1   9   -1.17    2.55
  -6  -1   9   -0.16    2.35
  -6  -1   9    5.69    4.10
  -6   1   9    3.31    3.98
  -5   1   9   43.92    5.46
  -5   1   9   52.99    7.39
  -5  -1   9   53.26    5.04
  -5  -1   9   62.68    5.20
  -5  -1   9   68.44    8.00
  -5  -1   9   54.39    7.32
  -4  -1   9    9.39    4.17
  -4   1   9    8.81    3.64
  -4  -1   9    3.30    3.16
  -4   1   9    7.54    4.27
   4   1  -9    8.73    2.36
  -4  -1   9    7.21    2.41
  -4   1   9    7.71    2.96
  -3   1   9  157.89    6.28
  -3   1   9  143.40   10.99
   3   1  -9  146.06    7.17
  -3   1   9  154.23    9.49
  -3  -1   9  157.92   10.88
   3  -1  -9  150.85    5.56
  -3  -1   9  161.57    9.80
  -2  -1   9  544.08   21.97
  -2   1   9  532.07   19.16
   2  -1  -9  519.01   16.17
   2   1  -9  508.23   17.34
  -2   1   9  519.02   22.14
  -2  -1   9  494.18   19.26
   1  -1  -9  311.75   12.00
  -1   1   9  282.38   15.46
  -1   1   9  304.00   12.36
   1   1  -9  299.06   12.36
  -1  -1   9  287.03   12.82
  -1  -1   9  301.74   15.59
   0   1   9  258.70   10.38
   0   1  -9  224.35   11.46
   0  -1  -9  254.60   11.53
   0  -1   9  256.86   14.30
   0  -1   9  251.65   11.34
   0   1   9  251.67   14.33
   1  -1   9   45.18    6.93
  -1  -1  -9   47.44    5.98
  -1   1  -9   59.10    5.66
  -1   1  -9   42.65    5.78
   1   1   9   58.04    4.27
   1  -1   9   56.87    5.26
   1   1   9   44.64    7.08
   1   1   9   54.42    4.36
   2   1   9   76.55    8.70
  -2  -1  -9   95.09    7.87
  -2   1  -9   93.65    8.70
  -2  -1  -9   88.60    8.57
   2  -1   9   98.09    6.67
   2  -1   9   89.14    8.96
   2   1   9  106.54    5.71
  -2   1  -9   93.27    7.27
   2   1   9  109.17    5.54
   3   1   9    6.44    4.65
  -3  -1  -9   17.87    4.82
  -3   1  -9   16.61    5.17
  -3  -1  -9   17.46    5.51
   3  -1   9   15.02    5.37
  -3   1  -9   14.08    3.63
   3   1   9   16.35    2.61
  -3   1  -9   15.19    4.30
  -4   1  -9  237.27   11.84
   4   1   9  228.57   14.86
  -4  -1  -9  251.20   13.89
  -4   1  -9  244.63   13.37
  -4  -1  -9  215.33   14.86
   4  -1   9  240.69   15.13
   5  -1   9    5.25    4.94
   5   1   9    9.47    5.55
  -5  -1  -9    8.83    4.19
  -5   1  -9    9.79    5.03
  -5   1  -9    9.94    4.37
  -5  -1  -9    4.39    5.07
  -6  -1  -9    2.80    5.03
  -6   1  -9   13.17    6.21
  -6   1  -9    4.78    3.89
  -6  -1  -9    5.99    4.50
   6   1   9   -0.87    5.37
   6  -1   9    8.38    5.81
  -8  -2   9   25.25    7.72
  -8   2   9   24.44    6.27
  -8   2   9   21.65    7.07
  -7   2   9   12.90    5.62
  -7   2   9   14.17    4.52
  -7  -2   9    3.82    4.43
  -6  -2   9  254.38   11.02
  -6  -2   9  264.62   12.66
  -6  -2   9  229.45   14.57
  -6   2   9  230.19   15.26
  -6   2   9  250.03   13.16
  -5   2   9    9.94    3.68
  -5  -2   9   15.63    4.74
  -5  -2   9   14.74    2.99
  -5  -2   9   12.11    4.58
  -5   2   9   21.25    5.31
  -5  -2   9   15.88    3.90
  -4   2   9   35.83    6.01
  -4   2   9   28.60    6.56
  -4   2   9   27.12    4.68
  -4  -2   9   41.73    6.48
  -4  -2   9   33.45    5.81
   4   2  -9   33.34    4.14
   3   2  -9  199.99    9.29
  -3  -2   9  182.77   10.80
  -3  -2   9  175.67   11.64
  -3   2   9  172.97   12.31
  -3   2   9  183.29   10.78
  -2   2   9  137.62    8.48
  -2   2   9  143.50   10.90
   2  -2  -9  142.99    6.44
  -2  -2   9  161.83   10.92
   2   2  -9  135.46    7.77
  -2  -2   9  133.51    8.80
  -1   2   9  140.59    7.78
  -1  -2   9  141.44   10.62
   1  -2  -9  150.63    7.86
  -1  -2   9  139.64    8.64
   1   2  -9  131.77    8.22
  -1   2   9  156.07   11.19
   0  -2  -9  327.06   11.47
   0   2  -9  312.93   11.89
   0   2   9  305.27   16.08
   0   2   9  294.78   11.35
   0  -2   9  295.91   13.31
   0  -2  -9  294.38   13.00
   0   2  -9  301.84   13.62
   0  -2   9  291.96   15.59
  -1   2  -9    7.30    2.74
   1  -2   9   10.06    3.17
   1  -2   9    9.23    4.27
   1   2   9   13.73    4.99
   1   2   9   11.30    2.11
  -1   2  -9    7.60    3.51
   1   2   9    9.53    2.08
  -1  -2  -9    8.88    3.77
  -2  -2  -9   35.94    6.35
  -2   2  -9   37.74    4.96
  -2  -2  -9   22.18    5.11
   2   2   9   39.23    6.96
   2   2   9   28.50    2.47
  -2   2  -9   23.94    5.26
   2  -2   9   29.44    6.11
  -3   2  -9  473.87   18.94
  -3   2  -9  463.21   21.06
   3  -2   9  445.20   21.16
   3   2   9  477.88   21.68
  -3  -2  -9  444.04   19.51
  -3   2  -9  484.19   18.97
  -3  -2  -9  468.39   21.30
  -4  -2  -9   84.81    8.87
  -4   2  -9   82.66    9.87
  -4   2  -9  109.98    8.77
   4  -2   9   79.28    9.50
  -4  -2  -9   89.24   10.57
   4   2   9   89.12    9.97
  -4   2  -9   98.37    8.13
  -5   2  -9    9.12    4.96
  -5  -2  -9   18.59    5.48
  -5   2  -9   17.79    4.84
  -5   2  -9   20.09    5.28
  -5  -2  -9   12.66    6.15
   5  -2   9   25.20    6.91
   5   2   9   23.96    6.67
  -6  -2  -9   28.14    8.27
  -6   2  -9   11.64    4.83
  -6  -2  -9   24.28    6.22
   6  -2   9   13.16    6.35
  -6   2  -9   25.69    7.35
  -8  -3   9   -0.26    4.35
  -7   3   9    7.95    4.52
  -7   3   9    6.09    4.93
  -7  -3   9    3.46    4.65
  -6   3   9   -0.79    3.57
  -6  -3   9    1.69    3.54
  -6   3   9    5.15    3.75
  -6  -3   9    4.41    3.97
  -5  -3   9  123.46    8.93
  -5  -3   9  117.34    9.74
  -5   3   9  116.31    8.85
  -5  -3   9  134.86    9.71
  -5   3   9  115.08   10.16
   4   3  -9   88.92    6.81
  -4  -3   9   86.02    8.41
  -4  -3   9   96.79    8.28
  -4   3   9   88.27    7.84
  -4   3   9   63.47    7.70
  -3  -3   9  588.82   22.26
  -3   3   9  541.81   24.29
  -3  -3   9  559.36   22.51
  -3   3   9  568.41   21.86
   3   3  -9  538.14   19.96
  -2   3   9  525.25   19.18
  -2  -3   9  472.51   19.57
   2   3  -9  501.18   14.39
   2   3  -9  506.15   18.74
   2  -3  -9  482.08   15.87
   2   3  -9  502.57   14.04
  -2  -3   9  506.27   21.26
  -2   3   9  483.41   22.19
  -1   3   9    5.24    2.43
   1   3  -9    1.73    1.56
   1  -3  -9    2.27    2.60
  -1   3   9    2.35    3.74
  -1  -3   9    3.93    4.16
   1   3  -9    1.98    2.34
  -1  -3   9   -0.05    2.13
   0  -3   9   36.39    5.32
   0  -3   9   38.87    6.51
   0  -3  -9   60.59    6.31
   0  -3  -9   45.71    3.95
   0   3   9   43.83    7.07
   0   3   9   50.61    4.18
   0   3  -9   52.23    6.31
   1   3   9  270.48   15.27
   1  -3   9  282.95   15.34
  -1  -3  -9  304.81   14.43
  -1   3  -9  277.82   11.61
   1   3   9  292.18    9.43
  -1   3  -9  288.92   14.41
  -2   3  -9  121.52    9.53
   2   3   9  119.21   10.09
  -2   3  -9  118.97    7.74
  -2   3  -9  110.23    8.65
   2  -3   9  112.83    9.97
  -2  -3  -9  122.72    9.88
   3  -3   9   62.74    8.40
  -3   3  -9   79.10    7.90
   3   3   9   71.10    8.47
  -3   3  -9   68.79    6.76
  -3   3  -9   69.04    8.53
  -3  -3  -9   53.53    7.07
  -3  -3  -9   72.18    9.14
  -4  -3  -9  377.32   18.45
   4   3   9  397.78   19.70
  -4   3  -9  412.75   18.03
  -4  -3  -9  386.47   20.66
  -4   3  -9  391.69   18.36
   4  -3   9  355.67   19.82
  -4   3  -9  413.62   20.60
  -5   3  -9   41.37    8.13
   5  -3   9   32.35    7.59
  -5   3  -9   36.54    6.67
  -5  -3  -9   43.66    7.60
  -5  -3  -9   27.60    7.88
  -5   3  -9   30.08    6.00
  -6   3  -9   13.84    5.13
  -7   4   9   97.55   12.05
  -7   4   9  152.78   11.69
  -7  -4   9  138.88   11.94
  -6  -4   9  299.38   15.56
  -6   4   9  263.53   16.95
  -6  -4   9  268.82   16.05
  -6   4   9  282.84   15.41
  -5   4   9   -0.53    3.52
  -5  -4   9   -1.68    3.10
  -5  -4   9   -3.30    2.75
  -5   4   9   -1.37    2.99
  -5  -4   9   -1.19    3.00
  -4   4   9    2.23    3.35
  -4  -4   9    1.87    3.12
   4   4  -9    0.46    2.56
  -4   4   9   -1.60    2.71
  -4  -4   9   -0.71    3.23
  -3   4   9   15.66    4.52
  -3  -4   9   10.99    3.90
   3   4  -9   17.66    4.21
  -3   4   9   16.22    5.35
  -3  -4   9   19.26    5.27
   2  -4  -9  773.12   23.40
  -2   4   9  776.84   30.65
  -2   4   9  767.33   26.31
  -2  -4   9  755.18   27.56
   2   4  -9  726.83   26.44
  -2  -4   9  770.84   28.54
  -1  -4   9  482.34   20.17
   1  -4  -9  493.13   18.13
   1   4  -9  484.82   19.81
  -1   4   9  506.30   18.02
  -1   4   9  521.03   22.84
   1   4  -9  506.50   14.32
  -1  -4   9  498.31   21.51
   0   4  -9   13.93    2.41
   0  -4   9    9.47    4.79
   0  -4  -9   14.00    4.33
   0   4   9   16.49    2.79
   0   4  -9   17.01    4.52
   0  -4   9   15.20    4.15
   0   4   9   17.36    5.24
  -1   4  -9  121.15    6.85
   1  -4   9  142.64   10.71
  -1  -4  -9  134.03    9.98
  -1   4  -9  120.38    9.45
   1   4   9   98.44    9.65
  -2   4  -9  175.45   11.51
   2  -4   9  141.64   11.37
  -2  -4  -9  139.74   10.97
  -2   4  -9  159.08   11.27
   2   4   9  154.77   11.45
  -2   4  -9  167.10    9.04
   3   4   9  634.60   25.89
  -3   4  -9  639.56   25.94
   3  -4   9  622.37   27.00
  -3  -4  -9  647.53   26.99
  -3  -4  -9  615.28   24.88
  -3   4  -9  643.68   22.99
   4  -4   9  110.84   11.44
  -4   4  -9   97.43    9.87
  -4   4  -9  103.87    8.67
  -4  -4  -9   93.23   11.11
  -4  -4  -9   95.24    9.80
  -4   4  -9  116.50   11.67
  -5   4  -9  133.85   13.03
  -5  -4  -9  111.11   11.08
  -5  -4  -9  112.05   13.18
   5  -4   9  137.70   13.36
  -5   4  -9  139.15   10.63
  -5   4  -9  136.68   11.33
  -7  -5   9   22.65    6.80
  -7  -5   9   23.11    6.76
  -7   5   9   15.73    5.74
  -7   5   9   16.91    6.46
  -6   5   9   -1.31    3.62
  -6  -5   9    7.31    4.78
  -6   5   9    3.15    4.33
  -6  -5   9    0.92    3.99
  -5  -5   9   39.50    7.12
  -5  -5   9   70.07    8.99
  -5   5   9   52.26    7.52
  -5   5   9   50.13    8.11
  -4  -5   9  692.73   27.32
  -4   5   9  695.85   27.96
  -4  -5   9  685.91   25.61
  -4   5   9  716.41   26.58
   4   5  -9  716.57   26.51
  -3   5   9  150.58   10.48
  -3  -5   9  160.76   10.96
  -3  -5   9  156.02   10.97
   3   5  -9  168.30   10.80
  -2   5   9   16.34    4.14
   2  -5  -9   12.13    3.55
  -2  -5   9   12.57    5.26
  -2   5   9    5.54    4.20
   2   5  -9   11.06    4.15
  -2  -5   9   12.51    4.16
  -1   5   9  706.85   23.76
   1   5  -9  712.11   26.62
  -1  -5   9  689.42   26.62
  -1  -5   9  708.78   27.49
   1  -5  -9  717.88   24.33
  -1   5   9  692.28   28.84
   0   5  -9  147.95    6.47
   0  -5   9  133.87   10.03
   0   5   9  149.14    7.37
   0  -5   9  139.97   10.93
   0   5  -9  146.47   10.69
   0  -5  -9  139.76    9.70
   0   5   9  144.77   11.21
  -1  -5  -9  349.91   17.46
   1  -5   9  390.03   19.05
   1   5   9  418.21   19.54
  -1   5  -9  393.66   18.71
  -2  -5  -9   23.86    6.36
  -2   5  -9   23.54    4.10
  -2   5  -9   19.89    5.19
   2  -5   9   22.33    5.85
  -2   5  -9   12.38    4.81
   2   5   9   17.97    5.50
   3   5   9  472.30   21.12
   3  -5   9  446.90   22.46
  -3  -5  -9  484.45   22.84
  -3   5  -9  445.64   18.21
  -3   5  -9  467.88   22.33
  -3   5  -9  468.52   22.36
  -4   5  -9   40.26    7.69
   4  -5   9   31.56    7.62
  -4  -5  -9   23.95    6.53
  -4   5  -9   39.51    7.73
  -4  -5  -9   22.02    7.17
  -4   5  -9   28.56    5.73
  -5  -5  -9   17.68    6.14
  -5   5  -9   20.18    6.34
  -5   5  -9   45.89    7.31
  -5  -5  -9   30.11    8.42
  -6   6   9   90.89   11.66
  -6   6   9  104.02   11.12
  -6  -6   9  143.02   13.38
  -6  -6   9  105.49   11.11
  -5  -6   9    3.10    4.16
  -5  -6   9    8.00    4.90
  -5   6   9    1.40    4.19
  -5   6   9    0.69    3.60
  -4  -6   9   17.30    5.18
  -4   6   9   15.01    4.91
   4   6  -9   14.64    5.08
  -4   6   9   20.91    5.75
  -3  -6   9   -1.75    4.21
  -3   6   9    2.51    3.31
   3   6  -9    0.52    3.11
  -3  -6   9   -0.03    3.25
  -2  -6   9  594.09   24.27
   2   6  -9  605.38   24.57
  -2  -6   9  550.41   23.96
  -2   6   9  570.20   22.53
  -1   6   9  406.47   16.17
   1   6  -9  383.18   18.85
   1  -6  -9  412.50   16.98
  -1  -6   9  332.52   17.85
  -1  -6   9  401.76   19.28
   0   6  -9   -4.94    2.44
   0  -6   9   -2.50    3.66
   0  -6   9   -3.04    2.53
   0  -6  -9    1.71    3.70
   0   6   9    0.74    3.60
   1  -6   9   64.26    8.85
   1   6   9   64.06    8.17
  -1   6  -9   79.46    9.50
  -1  -6  -9   68.23    8.58
  -2   6  -9   41.63    7.80
   2  -6   9   45.89    8.10
   2   6   9   47.17    7.11
  -2   6  -9   38.91    7.71
  -2  -6  -9   34.65    7.50
  -3   6  -9  284.91   17.62
  -3   6  -9  258.91   13.11
  -3  -6  -9  249.06   16.69
  -3   6  -9  272.78   16.76
   4  -6   9   64.28   10.22
  -4   6  -9  104.41   11.86
  -4  -6  -9   74.12    9.66
  -4   6  -9   82.25   10.94
  -4   6  -9   78.43    8.05
  -4  -6  -9   87.97   12.02
  -5  -7   9   18.40    5.98
  -5   7   9   18.28    6.32
  -5   7   9   15.06    5.63
  -5  -7   9   15.37    5.97
  -4   7   9  355.55   19.52
   4   7  -9  370.83   19.69
  -3  -7   9   34.58    6.73
  -3   7   9   57.81    8.04
   3   7  -9   55.91    8.25
  -2   7   9   18.27    4.82
   2   7  -9    7.60    4.46
  -2  -7   9   10.78    4.73
  -2  -7   9    8.98    5.42
  -1  -7   9  133.86   11.24
   1  -7  -9  147.58   10.53
  -1  -7   9  121.06   10.72
   1   7  -9  135.08   11.36
   0  -7   9   71.37    9.26
   0  -7   9   66.00    9.26
   0   7  -9   63.99    8.97
   0  -7  -9   62.71    8.13
  -1  -7  -9  188.72   13.37
  -1   7  -9  197.56   13.97
   1  -7   9  177.01   13.57
  -2   7  -9   47.92    8.95
  -2  -7  -9   52.45    9.06
   2  -7   9   60.24    9.31
  -2   7  -9   62.61    9.43
  -3  -7  -9   71.19   10.82
  -3   7  -9   93.02   12.36
  -3   7  -9   97.78   11.74
   3  -7   9   43.54    8.69
  -3  -8   9    4.52    4.18
   3   8  -9   -0.66    4.20
  -3   8   9   -1.20    3.72
   2   8  -9   38.00    7.88
  -2  -8   9   31.99    6.93
   1   8  -9   40.76    8.23
  -1  -8   9   45.64    8.04
   0   8  -9   22.33    6.23
   0  -8   9   27.48    7.32
   0  -8  -9   15.38    5.91
   0  -8   9   23.43    6.47
  -1  -8  -9    1.78    5.30
   1  -8   9   -0.74    4.83
  -1   8  -9    0.34    3.89
  -8   0  10   68.68    8.10
  -8   0  10   72.10   10.99
  -7   0  10   45.67    8.60
  -7   0  10   38.38    5.98
  -6   0  10   19.30    4.53
  -6   0  10   17.53    5.59
  -5   0  10  211.98   13.32
  -5   0  10  229.34   11.02
  -5   0  10  222.89   14.06
  -4   0  10  292.74   14.94
  -4   0  10  294.59   16.26
  -3   0  10    2.54    3.09
   3   0 -10    4.55    1.92
  -3   0  10    6.35    4.44
  -2   0  10   -0.58    2.20
   2   0 -10   -0.10    1.81
  -2   0  10    5.37    4.36
  -1   0  10  985.02   31.01
   1   0 -10  967.52   29.96
  -1   0  10  981.04   35.57
   0   0  10   50.17    4.99
   0   0  10   46.95    7.60
   0   0 -10   42.51    5.39
  -1   0 -10  120.44    8.82
   1   0  10  113.75   10.41
  -1   0 -10  111.48    8.10
   1   0  10  118.86    7.04
  -2   0 -10  260.41   14.33
  -2   0 -10  251.48   13.08
   2   0  10  256.84   15.76
   2   0  10  280.12   11.47
   3   0  10  153.12   12.28
  -3   0 -10  146.93   11.47
  -3   0 -10  150.05   10.35
   3   0  10  158.26    8.28
  -4   0 -10  599.20   26.19
   4   0  10  553.27   25.83
  -4   0 -10  553.74   23.22
   5   0  10    0.66    5.12
  -5   0 -10   -0.89    3.35
  -5   0 -10    9.09    5.63
  -6   0 -10   13.35    6.31
  -6   0 -10   14.92    5.49
  -8  -1  10    1.17    4.52
  -8   1  10    3.63    5.26
  -8   1  10    0.39    3.98
  -7   1  10   13.40    5.56
  -7   1  10   11.76    4.42
  -7  -1  10   11.86    3.97
  -7  -1  10    3.86    4.60
  -6   1  10  995.06   32.08
  -6  -1  10  906.89   35.44
  -6  -1  10  992.05   30.28
  -5   1  10   72.41    9.25
  -5  -1  10   74.50    8.69
  -5   1  10   90.05    7.16
  -5  -1  10   87.75    6.39
  -5  -1  10   89.55    6.04
  -5   1  10   67.76    8.34
  -5  -1  10   83.51    9.05
  -4  -1  10  462.74   19.84
  -4   1  10  459.86   17.12
   4   1 -10  438.72   15.05
  -4   1  10  445.36   19.61
  -4  -1  10  468.59   20.88
  -4   1  10  435.55   21.21
   3  -1 -10  803.73   22.34
  -3   1  10  776.10   27.68
  -3  -1  10  778.66   28.02
  -3  -1  10  806.21   30.31
  -3   1  10  832.80   31.35
   3   1 -10  795.14   24.43
  -2   1  10 1053.56   37.78
   2  -1 -10 1048.43   30.36
   2   1 -10 1066.83   31.66
  -2  -1  10 1066.86   37.54
  -2  -1  10 1080.90   34.42
  -2   1  10 1056.69   33.64
   1  -1 -10  270.81   11.74
  -1   1  10  286.80   12.32
   1   1 -10  278.47   12.33
  -1  -1  10  287.70   13.05
  -1   1  10  285.87   16.01
  -1  -1  10  278.42   15.75
   0  -1 -10  714.02   24.58
   0  -1  10  726.33   24.52
   0   1  10  710.81   23.10
   0   1 -10  740.77   25.16
   0   1  10  714.31   28.44
   0   1 -10  712.40   23.52
   0  -1  10  737.32   28.47
  -1  -1 -10  666.22   23.58
   1  -1  10  600.31   25.72
  -1   1 -10  593.60   23.12
   1   1  10  608.24   19.79
  -1   1 -10  623.89   21.84
   1   1  10  595.00   25.76
   1  -1  10  632.91   21.74
  -2  -1 -10  150.92   10.86
   2   1  10  150.96   11.92
   2   1  10  154.27    7.27
   2  -1  10  160.20    8.89
  -2   1 -10  145.47   10.56
   2  -1  10  141.92   11.71
  -2  -1 -10  163.23   10.48
  -2   1 -10  144.08    9.38
  -3   1 -10    4.63    4.10
   3  -1  10    2.17    4.46
   3   1  10    9.77    5.45
  -3  -1 -10    4.41    3.38
  -3   1 -10    1.51    3.04
  -3  -1 -10    5.47    4.32
  -4  -1 -10  139.58   12.85
  -4   1 -10  139.34   10.32
   4   1  10  101.57   11.23
  -4   1 -10  120.94   11.88
  -4  -1 -10  132.48   10.62
   4  -1  10  131.78   11.86
   5  -1  10   54.75    9.55
  -5  -1 -10   58.84   10.17
  -5   1 -10   54.35    7.84
  -5   1 -10   60.86    9.77
  -5  -1 -10   44.03    7.50
   5   1  10   42.99    8.81
  -8  -2  10   67.35   10.73
  -8   2  10   63.05    8.75
  -7   2  10    3.84    3.88
  -7  -2  10    3.08    4.51
  -7   2  10    4.70    4.82
  -6   2  10   36.16    7.49
  -6   2  10   32.05    5.90
  -6  -2  10   41.14    7.54
  -5  -2  10   67.24    8.15
  -5  -2  10   63.65    6.27
  -5   2  10   56.30    6.65
  -5  -2  10   65.50    8.35
  -5   2  10   56.59    7.96
  -4   2  10   73.67    6.87
  -4   2  10   70.63    7.89
   4   2 -10   75.82    5.82
  -4   2  10   57.62    8.40
  -4  -2  10   61.16    7.59
  -4  -2  10   58.48    7.63
   3   2 -10   72.29    5.78
  -3  -2  10   58.84    7.04
  -3   2  10   76.47    9.33
  -3   2  10   87.05    7.90
   3  -2 -10   75.09    3.40
  -3  -2  10   61.82    7.94
  -2   2  10    8.12    4.60
  -2   2  10    9.79    3.29
   2   2 -10   16.17    3.74
  -2  -2  10   12.38    3.74
   2  -2 -10    9.87    2.53
  -2  -2  10   13.77    5.43
   1   2 -10  321.11   12.25
   1  -2 -10  334.17   13.25
  -1   2  10  307.03   13.11
  -1  -2  10  303.48   14.35
  -1  -2  10  363.50   17.75
   1   2 -10  342.47   14.34
  -1   2  10  320.30   17.33
   0  -2 -10   44.50    5.69
   0   2 -10   36.49    4.37
   0   2  10   37.88    7.14
   0  -2  10   34.25    5.00
   0   2  10   39.87    4.10
   0  -2  10   33.02    6.61
   0   2 -10   30.15    5.18
   1   2  10  195.00   13.36
   1  -2  10  189.45   13.04
  -1   2 -10  196.59   11.65
  -1   2 -10  195.91   10.03
  -1  -2 -10  200.78   11.59
   1  -2  10  184.83   10.33
   1   2  10  196.47    8.13
  -2   2 -10   76.06    8.54
   2  -2  10   63.46    6.38
  -2   2 -10   63.73    6.31
  -2  -2 -10   66.14    7.91
   2  -2  10   56.45    8.12
  -2  -2 -10   49.63    6.72
   2   2  10   78.58    9.22
   3   2  10  183.45   13.88
  -3   2 -10  219.21   12.13
  -3  -2 -10  223.01   14.29
   3  -2  10  240.55   15.14
  -3  -2 -10  222.40   13.21
  -3   2 -10  209.41   13.85
  -4  -2 -10  242.25   16.12
  -4   2 -10  272.22   16.48
  -4   2 -10  237.14   13.60
  -4   2 -10  254.06   13.49
  -4  -2 -10  242.87   14.52
   4  -2  10  242.49   16.02
   4   2  10  233.61   15.63
   5  -2  10   19.41    6.85
  -5   2 -10   30.09    6.61
   5   2  10   27.62    7.86
  -5  -2 -10   18.68    7.04
  -5   2 -10   37.08    7.93
  -5  -2 -10   19.05    6.12
  -7  -3  10   32.89    7.64
  -7   3  10   27.92    6.45
  -7   3  10   14.98    5.84
  -6   3  10   78.66    8.57
  -6   3  10   60.12    8.88
  -6  -3  10   67.37    9.11
  -6  -3  10   67.56    7.50
  -5  -3  10  221.23   13.19
  -5   3  10  223.08   12.55
  -5  -3  10  210.26   13.48
  -5  -3  10  227.79   12.28
  -5   3  10  216.86   14.12
  -4   3  10   39.93    7.79
  -4   3  10   25.62    5.63
  -4  -3  10   31.55    6.28
  -4  -3  10   30.17    6.01
   4   3 -10   37.10    5.08
  -4   3  10   40.88    6.01
  -3   3  10    7.72    3.88
  -3   3  10    4.97    4.07
  -3  -3  10    9.61    3.78
   3   3 -10    8.99    3.31
  -3  -3  10    3.66    4.46
   2  -3 -10   52.02    4.43
  -2   3  10   41.73    5.53
  -2  -3  10   63.37    8.32
  -2  -3  10   43.72    6.21
   2   3 -10   40.20    3.33
   2   3 -10   55.69    6.12
  -2   3  10   55.86    8.03
  -1   3  10  487.08   17.59
   1   3 -10  495.49   19.22
  -1  -3  10  442.80   21.17
  -1   3  10  465.23   22.07
   1   3 -10  480.95   15.28
   1  -3 -10  489.70   17.52
  -1  -3  10  471.02   19.51
   0   3  10   48.32    4.35
   0   3 -10   41.39    6.02
   0   3  10   42.75    7.51
   0  -3 -10   45.68    6.02
   0   3 -10   46.40    4.25
   0  -3  10   31.61    5.31
   0  -3  10   37.43    6.98
   1  -3  10  272.60   13.66
   1   3  10  264.51   15.69
  -1   3 -10  275.05   11.77
  -1   3 -10  270.67   14.37
  -1  -3 -10  272.34   14.18
   1  -3  10  268.37   15.62
   2   3  10  188.62   13.53
  -2  -3 -10  184.77   12.55
   2  -3  10  182.36   13.03
  -2   3 -10  207.11   10.65
  -2   3 -10  198.50   12.67
  -3   3 -10   64.17    8.93
  -3  -3 -10   67.16    9.35
   3   3  10   78.08    9.64
  -3  -3 -10   71.77    8.71
  -3   3 -10   66.53    6.99
  -3   3 -10   74.15    8.02
   3  -3  10   65.28    9.17
  -4   3 -10    1.04    3.12
  -4   3 -10    3.19    3.97
  -4  -3 -10   -3.25    3.22
  -4  -3 -10   -3.08    4.24
  -4   3 -10   -3.93    2.51
   4  -3  10    0.53    4.38
   4   3  10   -4.29    4.21
  -5   3 -10   25.00    7.05
   5  -3  10   24.83    7.57
  -5   3 -10   29.97    6.35
  -5  -3 -10   28.77    7.89
  -5   3 -10   23.82    5.71
  -5  -3 -10   19.96    6.24
  -7  -4  10    0.60    4.62
  -7   4  10    3.00    4.65
  -7   4  10   -0.97    3.93
  -6   4  10    9.34    4.73
  -6  -4  10    6.32    4.63
  -6   4  10   17.27    5.97
  -6  -4  10   14.26    5.02
  -5   4  10   17.17    5.42
  -5  -4  10   25.46    5.46
  -5   4  10   17.28    4.96
  -5  -4  10   14.97    5.06
  -4   4  10    2.03    3.12
  -4  -4  10    5.82    4.19
  -4   4  10   -2.07    3.10
  -4  -4  10   -1.24    3.12
   4   4 -10    0.45    2.65
  -3   4  10  138.84   11.83
  -3  -4  10  122.86    9.77
  -3  -4  10  128.63   10.69
   3   4 -10  134.58    9.26
  -3   4  10  133.30    9.63
  -2   4  10   32.30    6.86
   2   4 -10   49.22    6.35
   2  -4 -10   46.01    4.75
  -2   4  10   47.81    5.93
  -2  -4  10   48.93    6.95
  -2  -4  10   42.47    7.29
  -1   4  10    6.67    4.65
  -1  -4  10    5.74    3.44
   1   4 -10   10.14    1.92
   1  -4 -10   12.62    3.94
  -1   4  10   12.08    3.35
   1   4 -10    8.84    3.52
  -1  -4  10    6.84    5.00
   0   4 -10    2.07    1.82
   0   4 -10    5.76    3.47
   0   4  10    2.44    1.95
   0  -4  10   -0.28    2.75
   0  -4 -10    0.58    3.29
   0  -4  10    5.68    4.52
   0   4  10    3.70    3.91
   1   4  10   56.06    8.08
   1  -4  10   54.72    7.92
  -1   4 -10   51.97    7.59
  -1  -4 -10   45.72    7.15
   1  -4  10   41.71    6.37
  -1   4 -10   55.53    5.05
  -2   4 -10   -2.91    2.47
   2  -4  10   -2.15    3.66
   2   4  10   -5.28    3.32
  -2  -4 -10    4.48    4.36
  -2   4 -10   -0.78    2.11
  -3  -4 -10   71.54    9.62
  -3   4 -10   83.72    7.67
   3  -4  10   59.50    8.92
  -3   4 -10   75.73    8.74
  -3  -4 -10   86.34    9.38
  -3   4 -10   79.22    9.74
   3   4  10   98.21   10.14
   4  -4  10   18.22    6.44
  -4   4 -10   30.69    6.96
  -4   4 -10   25.24    6.10
  -4   4 -10   33.67    6.16
  -4  -4 -10   39.99    8.95
  -4  -4 -10   11.91    5.28
  -5  -4 -10   -3.57    3.95
  -5   4 -10    3.43    4.13
  -5   4 -10   11.21    4.64
  -5   4 -10    6.21    4.56
   5  -4  10   -1.88    4.74
  -5  -4 -10   -1.33    5.38
  -6   5  10    2.30    4.64
  -6   5  10   14.74    5.32
  -6  -5  10    9.02    5.04
  -6  -5  10    1.59    4.18
  -5   5  10    9.40    4.91
  -5   5  10   13.87    5.01
  -5  -5  10    9.16    4.76
  -4  -5  10   51.83    7.65
  -4  -5  10   71.36    7.89
  -4   5  10   70.10    8.72
   4   5 -10   60.06    7.40
  -3  -5  10   -3.84    2.50
  -3   5  10   -0.61    2.89
   3   5 -10   -3.99    2.15
  -3  -5  10   -0.62    4.16
   2   5 -10  104.21    8.77
  -2  -5  10   81.80    9.16
   2  -5 -10   96.12    7.10
  -2   5  10  105.41    8.14
  -2   5  10  114.40   11.57
  -2  -5  10   90.12    9.24
   1   5 -10   15.65    4.57
  -1   5  10    7.12    3.01
  -1  -5  10    9.34    5.11
  -1  -5  10    4.35    3.54
  -1   5  10    8.13    4.27
   1  -5 -10   13.24    4.31
   0  -5  10   42.01    7.62
   0   5  10   51.56    8.25
   0  -5 -10   36.08    6.25
   0   5 -10   29.09    6.07
   0  -5  10   32.75    6.10
   1  -5  10    8.81    5.00
  -1   5 -10    2.13    3.62
   1   5  10    6.48    4.78
  -1  -5 -10    5.49    4.31
  -1   5 -10    4.41    2.19
   2   5  10   24.57    6.39
  -2   5 -10   14.30    3.64
   2  -5  10   12.10    5.43
  -2  -5 -10   13.53    5.74
  -2   5 -10   17.60    5.39
  -2   5 -10   16.54    5.40
  -3   5 -10   28.30    6.76
  -3   5 -10   38.09    5.68
  -3  -5 -10   38.60    8.60
   3  -5  10   34.44    7.45
  -3  -5 -10   46.72    7.99
  -3   5 -10   25.99    6.52
  -4   5 -10   13.00    4.47
  -4   5 -10    2.59    4.14
   4  -5  10    7.25    5.57
  -4  -5 -10    4.76    5.80
  -4   5 -10   12.50    5.35
  -4  -5 -10    3.43    4.62
  -6  -6  10   -0.09    4.31
  -6  -6  10    0.58    4.32
  -5   6  10    3.05    4.59
  -5   6  10    3.97    4.17
  -5  -6  10    4.04    4.10
  -5  -6  10   -1.13    3.80
   4   6 -10    7.09    4.47
  -4   6  10   13.23    4.80
  -4  -6  10   11.72    4.82
  -3   6  10    3.70    3.45
  -3  -6  10   -1.29    4.38
   3   6 -10    1.46    3.37
  -3  -6  10    5.32    4.06
  -2  -6  10    1.11    4.82
  -2  -6  10    7.29    4.02
  -2   6  10    7.57    3.65
   2   6 -10    3.21    3.78
  -1  -6  10    4.27    5.06
  -1   6  10    5.60    4.04
  -1  -6  10    1.77    3.25
   1  -6 -10   -1.57    3.37
   1   6 -10   -1.10    3.09
   0   6 -10   16.49    5.32
   0   6  10   15.23    5.22
   0  -6  10    9.53    5.35
   0  -6  10   15.91    5.21
   0  -6 -10   12.00    4.96
   1   6  10    0.71    3.68
   1  -6  10   -0.38    4.31
  -1   6 -10    0.39    3.59
  -1  -6 -10   -0.32    4.28
  -2   6 -10    2.97    3.40
  -2  -6 -10    1.84    4.84
  -2   6 -10    6.86    4.23
   2  -6  10    4.28    5.00
  -3  -6 -10   18.62    6.30
   3  -6  10   15.18    6.40
  -3   6 -10    5.38    4.78
  -3   6 -10   19.18    5.85
  -3  -6 -10   21.65    7.12
   4   7 -10   57.45    8.77
  -4   7  10   54.19    8.72
  -4  -7  10   53.76    8.86
   3   7 -10    4.83    4.24
  -3  -7  10    6.61    4.55
  -3   7  10    3.69    3.97
  -2  -7  10   -1.31    5.06
   2   7 -10   -0.62    3.36
  -2  -7  10    2.28    3.81
   1   7 -10  109.49   11.36
  -1  -7  10  136.51   11.96
   0   7 -10   92.44   10.54
   0  -7  10  101.02   10.93
   0  -7 -10   93.48    9.74
   0  -7  10   91.73   10.56
  -1   7 -10   97.77   11.20
   1  -7  10  102.49   11.62
  -1  -7 -10   98.42   10.74
  -2   7 -10   30.13    7.32
  -2  -7 -10   30.10    7.66
   2  -7  10   17.81    7.04
   2   8 -10   26.52    6.99
  -2  -8  10   22.83    6.66
   1   8 -10   25.50    6.93
  -1  -8  10   36.17    7.80
   0  -8 -10   -3.25    4.42
   0   8 -10    4.62    4.53
   0  -8  10   -2.92    5.05
   0  -8  10   -0.74    3.79
  -8   0  11   -2.99    3.61
  -7   0  11   -2.37    3.17
  -7   0  11    0.60    4.30
  -6   0  11    1.05    3.17
  -6   0  11   -1.93    3.36
  -5   0  11   -2.09    3.04
  -5   0  11    3.05    3.76
  -5   0  11    0.58    2.81
  -4   0  11   -0.82    3.57
   4   0 -11   -1.11    1.42
  -4   0  11   -0.09    3.02
  -3   0  11    0.59    4.02
  -3   0  11   -3.25    2.48
   3   0 -11    1.40    1.79
   2   0 -11   -0.72    1.93
  -2   0  11    7.82    5.02
  -2   0  11   -1.38    2.59
  -1   0  11    0.67    2.25
   1   0 -11    0.44    2.29
  -1   0  11    5.41    4.66
   0   0  11   -4.16    3.90
   0   0  11    0.72    2.18
   0   0 -11   -2.50    2.22
   1   0  11    1.88    2.18
  -1   0 -11    0.41    2.89
  -1   0 -11    2.30    2.95
   1   0  11    6.82    5.12
   2   0  11   -3.13    4.20
  -2   0 -11   -0.60    2.81
  -2   0 -11    1.06    3.10
   2   0  11    2.00    2.19
  -3   0 -11   -1.33    3.15
  -3   0 -11    4.85    4.17
   3   0  11   -7.34    3.85
  -4   0 -11   -0.90    4.01
  -4   0 -11   -2.71    3.25
   4   0  11   -2.24    4.76
  -5   0 -11    0.97    4.27
   5   0  11   -9.40    4.29
  -5   0 -11   -2.68    3.44
  -7   1  11   15.59    6.39
  -7   1  11   21.64    5.62
  -7  -1  11   19.03    6.49
  -6  -1  11   20.80    6.35
  -6   1  11   28.93    5.68
  -6  -1  11   22.68    4.59
  -6   1  11   20.29    6.18
  -6  -1  11   21.49    5.87
  -5   1  11   83.74   10.08
  -5   1  11   91.14    9.70
  -5  -1  11   94.85    9.91
  -5  -1  11  109.56   10.66
  -5   1  11   94.62    7.83
  -4  -1  11    4.25    4.15
   4   1 -11   -0.75    1.85
  -4   1  11   -0.98    3.59
  -4   1  11    1.90    3.34
  -4  -1  11    2.09    3.25
   3   1 -11   57.36    5.03
   3  -1 -11   45.53    3.65
  -3   1  11   60.17    6.94
  -3  -1  11   46.92    6.57
  -3  -1  11   41.36    7.48
  -3   1  11   57.65    8.59
   2   1 -11   25.72    4.11
  -2  -1  11   30.78    6.97
  -2  -1  11   27.20    5.16
  -2   1  11   22.67    6.51
   2  -1 -11   34.26    3.93
  -2   1  11   24.26    4.67
  -1   1  11  329.18   18.36
  -1  -1  11  327.67   18.12
  -1   1  11  348.38   14.42
   1  -1 -11  334.48   13.87
  -1  -1  11  351.06   15.19
   1   1 -11  333.59   14.35
   0   1 -11   26.24    4.55
   0  -1  11   39.74    5.36
   0  -1  11   37.33    7.39
   0   1 -11   29.21    5.18
   0  -1 -11   35.13    5.29
   0   1  11   23.42    3.90
   0   1  11   29.40    6.91
   1   1  11   32.62    7.56
  -1   1 -11   44.91    5.76
   1  -1  11   39.50    7.61
  -1   1 -11   38.32    6.24
   1  -1  11   49.50    5.58
  -1  -1 -11   51.58    6.85
   1   1  11   52.06    4.69
   2   1  11  136.20   11.99
  -2   1 -11  126.98   11.00
   2  -1  11  122.87    8.08
   2   1  11  114.78    6.60
  -2   1 -11  121.52    8.91
  -2  -1 -11  126.94    9.55
   2  -1  11   93.87   10.81
  -2  -1 -11  128.37   10.27
  -3   1 -11   27.99    5.61
  -3  -1 -11   38.31    6.60
   3  -1  11   46.72    5.61
   3   1  11   43.72    8.63
  -3   1 -11   35.22    6.99
   3  -1  11   25.25    7.06
  -3  -1 -11   53.24    8.46
   4  -1  11   -7.30    4.16
   4   1  11   -3.14    4.64
  -4  -1 -11    1.45    3.70
  -4  -1 -11   -7.56    3.32
  -4   1 -11    0.88    3.12
  -4   1 -11    2.19    4.18
   5   1  11    3.32    6.39
   5  -1  11    2.34    5.76
  -5  -1 -11   16.65    5.61
  -5   1 -11    9.66    4.91
  -5   1 -11   13.60    6.08
  -5  -1 -11   16.25    6.55
  -7   2  11   11.44    5.92
  -7  -2  11   17.56    6.36
  -7   2  11   26.58    6.32
  -6   2  11   20.32    6.29
  -6   2  11   15.03    4.84
  -6  -2  11   21.53    5.72
  -6  -2  11   14.94    5.52
  -5   2  11   63.98    8.69
  -5  -2  11   88.02    9.50
  -5  -2  11   58.80    8.61
  -5   2  11   81.10   10.35
  -5   2  11   71.09    7.52
  -4   2  11   21.22    5.64
  -4  -2  11   18.73    5.19
   4   2 -11   19.85    3.81
  -4   2  11    8.39    5.16
  -4  -2  11   18.93    5.59
  -3  -2  11  211.17   12.54
  -3   2  11  217.19   14.82
  -3  -2  11  234.37   14.43
  -3   2  11  188.05   11.69
   3   2 -11  217.73   10.60
  -2   2  11    1.82    4.26
   2   2 -11    2.26    2.47
  -2  -2  11    2.13    2.74
   2  -2 -11    1.92    2.24
  -2   2  11    3.31    2.98
  -2  -2  11    4.91    5.01
  -1   2  11   19.20    6.00
  -1  -2  11   19.62    4.59
  -1  -2  11   11.33    5.66
   1   2 -11   20.14    4.52
   1  -2 -11   17.33    3.96
   1   2 -11   20.76    3.63
  -1   2  11   20.03    3.92
   0   2  11  145.69    7.72
   0  -2 -11  143.80    9.41
   0  -2  11  143.36   12.00
   0   2 -11  125.26    7.97
   0  -2  11  145.32    9.33
   0   2 -11  127.01    9.06
   0   2  11  129.24   11.79
  -1   2 -11  739.45   27.49
  -1  -2 -11  750.39   27.22
   1  -2  11  748.10   30.41
   1   2  11  749.98   22.61
  -1   2 -11  745.69   24.90
   1   2  11  659.82   29.49
   1  -2  11  746.82   26.17
  -2  -2 -11   27.13    5.78
  -2  -2 -11   25.88    6.14
   2   2  11   26.85    7.04
   2  -2  11   22.26    6.37
   2  -2  11   23.06    4.69
  -2   2 -11   33.78    6.57
  -2   2 -11   27.85    5.00
  -3   2 -11   78.53    9.85
  -3  -2 -11   59.79    7.82
   3   2  11   51.14    8.90
   3  -2  11   43.12    8.49
  -3   2 -11   80.20    8.08
  -3  -2 -11   70.97    9.38
  -4  -2 -11   -1.22    3.53
  -4   2 -11    3.31    4.16
  -4   2 -11    2.39    3.51
   4   2  11   13.00    6.61
  -4  -2 -11    6.36    5.27
   4  -2  11    1.50    5.00
  -5   2 -11   12.03    4.78
   5  -2  11    4.87    6.15
  -5   2 -11   12.72    5.87
  -5  -2 -11   20.61    7.37
   5   2  11    2.65    6.23
  -5  -2 -11   20.97    6.37
  -7   3  11   11.41    5.36
  -7  -3  11   12.02    5.55
  -7   3  11   15.07    6.40
  -6  -3  11   10.90    5.45
  -6  -3  11   20.22    5.67
  -6   3  11   17.45    5.46
  -6   3  11   13.23    5.68
  -5  -3  11  289.28   16.46
  -5   3  11  276.43   16.52
  -5   3  11  290.83   14.95
  -5  -3  11  302.91   16.31
  -4  -3  11   -0.78    3.01
  -4   3  11    1.83    4.15
  -4   3  11   -2.06    2.67
   4   3 -11   -0.91    2.23
  -4  -3  11   -1.40    3.76
   3   3 -11  210.77   10.97
  -3   3  11  175.00   13.73
  -3  -3  11  187.17   13.15
  -3  -3  11  217.85   12.85
  -3   3  11  205.45   12.19
   2   3 -11   -0.77    2.45
   2  -3 -11   -1.64    2.15
   2   3 -11    2.30    1.89
  -2   3  11    0.60    2.57
  -2  -3  11   -0.18    2.73
  -2  -3  11    0.18    4.49
  -2   3  11   -4.62    2.69
  -1   3  11  707.00   29.52
   1   3 -11  690.24   21.23
  -1  -3  11  695.59   25.98
  -1   3  11  695.10   23.57
   1   3 -11  673.83   25.01
   1  -3 -11  701.00   23.64
  -1  -3  11  690.76   28.74
   0   3  11   67.68    9.21
   0   3 -11   71.32    7.82
   0  -3  11   56.67    8.65
   0   3 -11   85.80    5.97
   0   3  11   80.89    5.75
   0  -3  11   63.64    7.23
   0  -3 -11   86.12    7.79
   1  -3  11   64.12    7.20
   1  -3  11   83.89    9.85
   1   3  11   61.66    8.94
  -1   3 -11   72.68    6.33
  -1   3 -11   68.13    8.12
  -1  -3 -11   79.61    8.48
  -2   3 -11  249.34   14.86
   2   3  11  237.42   15.72
  -2  -3 -11  244.54   14.73
  -2   3 -11  243.32   12.36
   2  -3  11  260.63   13.68
   2  -3  11  241.34   15.80
  -3  -3 -11   38.70    7.84
  -3   3 -11   40.20    6.28
   3  -3  11   23.54    6.85
  -3  -3 -11   22.20    5.80
   3   3  11   24.38    7.21
  -3   3 -11   21.96    6.08
  -4  -3 -11   33.82    6.96
   4   3  11   46.18    8.73
  -4   3 -11   43.86    7.92
  -4   3 -11   41.80    6.86
  -4  -3 -11   53.33    9.82
   4  -3  11   34.61    8.17
  -4   3 -11   46.47    7.37
  -5   3 -11   18.41    5.45
  -5   3 -11   28.97    8.09
  -5  -3 -11   28.95    8.39
  -5  -3 -11   37.33    7.91
  -7  -4  11  115.11   12.28
  -7   4  11  139.89   12.36
  -7   4  11   92.27   12.28
  -6   4  11   57.21    8.46
  -6  -4  11   41.86    7.70
  -6  -4  11   47.45    7.49
  -6   4  11   41.45    8.35
  -5  -4  11  108.24    9.57
  -5  -4  11   91.63   10.11
  -5   4  11   95.20    9.38
  -5   4  11   85.15   10.06
   4   4 -11   46.41    6.42
  -4  -4  11   45.07    7.32
  -4  -4  11   37.98    7.11
  -4   4  11   48.51    7.36
  -3   4  11  376.41   21.09
  -3  -4  11  376.41   18.46
  -3   4  11  387.00   17.91
   3   4 -11  394.75   17.31
  -3  -4  11  398.16   19.42
  -2   4  11  107.66   11.38
  -2  -4  11  102.99    9.05
   2   4 -11  116.28    8.81
   2  -4 -11  112.43    7.11
  -2   4  11  129.34    8.84
  -2  -4  11   98.03   10.36
  -1  -4  11  160.87   12.54
   1   4 -11  128.97    9.74
   1  -4 -11  138.53    9.23
  -1   4  11  134.60   11.88
  -1   4  11  161.63    8.90
  -1  -4  11  142.68   10.35
   0  -4  11  102.35    8.67
   0   4  11   90.46   10.31
   0   4 -11  104.26    6.18
   0  -4  11   91.24   10.22
   0  -4 -11  114.39    9.08
   0   4 -11  115.93    9.28
  -1   4 -11  399.26   15.23
  -1  -4 -11  403.99   18.86
   1  -4  11  415.49   20.86
   1  -4  11  400.01   18.51
  -1   4 -11  371.71   18.90
   1   4  11  404.35   20.77
  -2   4 -11  538.74   20.40
  -2  -4 -11  596.24   24.98
   2   4  11  539.48   25.16
   2  -4  11  526.78   25.56
  -2   4 -11  611.86   25.51
  -3   4 -11   27.30    6.63
  -3  -4 -11   17.83    5.67
   3  -4  11   28.29    7.36
  -3  -4 -11   19.77    6.95
   3   4  11   33.84    7.56
  -3   4 -11   26.69    5.28
  -4  -4 -11   -2.71    4.58
   4  -4  11   -3.23    4.43
  -4   4 -11   -1.72    3.55
  -4   4 -11    1.52    3.30
  -4  -4 -11   -1.67    4.03
  -4   4 -11    2.77    3.87
  -6  -5  11   22.55    6.18
  -6  -5  11   15.94    5.84
  -6   5  11   18.34    6.09
  -6   5  11   25.86    7.35
  -5   5  11  160.02   11.88
  -5  -5  11  136.28   11.75
  -5   5  11  140.18   12.09
  -4  -5  11    8.74    4.73
  -4  -5  11    9.86    5.07
  -4   5  11   14.83    5.40
   4   5 -11    7.27    3.89
  -3   5  11   77.32    8.36
   3   5 -11   75.51    8.44
  -3  -5  11   84.46    9.62
  -3  -5  11   63.91    8.67
  -2  -5  11   31.47    6.21
  -2  -5  11   29.81    7.53
  -2   5  11   29.89    7.20
   2   5 -11   34.90    6.18
  -2   5  11   33.42    5.55
  -1  -5  11  282.80   17.27
   1  -5 -11  290.35   13.92
  -1  -5  11  281.27   15.71
   1   5 -11  282.31   15.43
  -1   5  11  285.07   17.63
   0  -5  11  764.20   29.67
   0   5  11  746.80   31.90
   0   5 -11  785.23   30.02
   0  -5  11  801.58   31.93
   0  -5 -11  754.57   27.92
  -1  -5 -11   19.88    6.27
   1   5  11   12.73    5.53
   1  -5  11   11.32    5.53
   1  -5  11   18.06    5.17
  -1   5 -11   20.41    5.68
  -2  -5 -11    3.71    4.98
  -2   5 -11    7.97    4.36
   2   5  11    9.50    4.93
  -2   5 -11    7.35    3.19
   2  -5  11    7.12    5.45
  -3   5 -11    1.22    3.92
  -3   5 -11    4.62    4.21
  -3  -5 -11    2.35    5.06
  -3   5 -11    5.50    3.45
  -3  -5 -11    1.04    4.44
   3  -5  11    2.30    4.88
  -5   6  11   37.20    8.04
  -5  -6  11   35.88    7.87
   4   6 -11   34.59    6.73
  -4   6  11   30.30    6.70
  -4  -6  11   25.28    6.26
  -3  -6  11  294.36   17.23
  -3   6  11  322.81   16.50
  -3  -6  11  304.24   17.25
   3   6 -11  293.26   16.43
  -2  -6  11   54.08    8.36
  -2  -6  11   74.39    9.82
   2   6 -11   81.04    9.30
  -2   6  11   58.80    7.03
  -1   6  11  198.69   14.81
   1  -6 -11  157.31   10.89
  -1  -6  11  162.74   12.37
   1   6 -11  169.15   12.52
  -1  -6  11  177.17   14.22
   0  -6  11   29.33    7.60
   0  -6  11   22.41    5.90
   0   6 -11   20.13    5.65
   0   6  11   31.99    7.05
   0  -6 -11   35.05    6.88
  -1  -6 -11   84.01    9.94
   1  -6  11   91.30   11.21
  -1   6 -11   82.83   10.34
   1   6  11   84.56   10.29
   1  -6  11   80.48    9.86
   2  -6  11  378.57   21.75
  -2  -6 -11  402.84   21.06
  -3   6 -11   22.21    6.41
  -3  -6 -11   38.61    8.74
  -3   6 -11   25.64    6.99
  -3  -6 -11   26.63    7.32
   4   7 -11   -3.57    3.70
  -4   7  11   -5.19    3.69
  -4  -7  11    0.77    3.80
  -3  -7  11   12.01    5.53
   3   7 -11    8.97    5.00
  -2  -7  11   36.22    8.53
  -2  -7  11   48.16    8.55
   2   7 -11   41.39    7.99
   1   7 -11  188.69   13.91
  -1  -7  11  170.42   14.22
  -1  -7  11  187.31   13.96
   0  -7 -11  193.23   13.74
   0   7 -11  264.56   16.80
   0  -7  11  238.61   15.88
   0  -7  11  257.69   17.13
  -1   7 -11   28.81    7.35
  -1  -7 -11   23.72    7.02
   1  -7  11   23.66    6.34
   1  -7  11   15.48    6.80
  -7   0  12   40.53    6.60
  -7   0  12   38.99    8.52
  -6   0  12   24.74    7.01
  -6   0  12    8.54    4.97
  -6   0  12   15.36    4.48
  -5   0  12  116.39   11.91
  -5   0  12   92.27   10.16
  -4   0  12  188.09   14.16
  -4   0  12  200.36   12.77
   3   0 -12  139.57    7.44
  -3   0  12  143.68   10.42
  -3   0  12  151.51   12.69
   2   0 -12  428.36   16.17
  -2   0  12  442.52   18.54
  -2   0  12  436.65   22.11
   1   0 -12  124.70    8.15
  -1   0  12  103.49    7.88
  -1   0  12   87.59   10.68
   0   0  12  705.69   24.31
   0   0  12  684.69   29.77
   0   0 -12  694.28   25.35
   1   0  12    1.61    2.53
  -1   0 -12    1.76    3.33
  -1   0 -12    3.13    3.44
   1   0  12    1.18    5.02
   2   0  12  140.29    8.41
  -2   0 -12  129.37    9.95
   2   0  12  123.65   12.56
  -2   0 -12  136.20   10.99
   3   0  12   -5.57    4.48
  -3   0 -12   -2.43    3.04
  -3   0 -12   -6.88    3.35
  -4   0 -12    5.58    4.09
  -4   0 -12    9.98    5.53
   4   0  12    1.42    5.54
  -5   0 -12   63.41   10.43
  -7  -1  12   66.08   10.05
  -7   1  12   57.99    9.79
  -7   1  12   82.15    9.00
  -6  -1  12  164.22   12.74
  -6   1  12  136.38   10.03
  -6   1  12  123.33   12.24
  -6  -1  12  140.23   12.04
  -5   1  12  178.85   13.84
  -5  -1  12  151.70   11.90
  -5   1  12  153.34   12.12
  -5  -1  12  165.97   12.82
  -4   1  12  108.53   11.54
  -4   1  12  119.74    9.81
  -4  -1  12  103.25   10.03
   4   1 -12   89.98    6.01
  -4  -1  12   91.81   10.18
  -3   1  12  582.33   22.54
  -3  -1  12  532.38   24.68
   3  -1 -12  525.73   16.95
  -3  -1  12  500.36   21.93
   3   1 -12  535.86   18.69
  -3   1  12  580.20   26.04
  -2  -1  12 2004.47   62.19
   2   1 -12 1830.13   52.93
  -2  -1  12 1835.22   56.21
   2  -1 -12 1867.62   51.83
  -2   1  12 1835.08   55.35
  -1  -1  12    4.19    2.96
   1   1 -12    3.42    2.83
   1  -1 -12    1.23    2.37
  -1   1  12    1.56    2.58
  -1   1  12   -1.44    4.51
  -1  -1  12    8.47    5.68
   0   1  12  148.48   12.85
   0  -1  12  159.38   13.16
   0   1 -12  152.84    9.60
   0   1  12  150.64    8.66
   0   1 -12  142.83    9.86
   0  -1  12  145.40    9.35
   0  -1 -12  155.64    9.90
  -1   1 -12    0.52    2.83
   1   1  12    1.54    2.27
   1   1  12    2.13    5.04
   1  -1  12    5.89    5.11
  -1  -1 -12    0.21    3.02
  -1   1 -12    1.90    3.21
   1  -1  12    2.56    2.55
  -2  -1 -12  589.76   23.99
  -2   1 -12  604.93   23.40
   2   1  12  574.97   27.52
  -2   1 -12  637.77   25.92
   2  -1  12  649.13   22.72
  -2  -1 -12  601.73   25.31
   2  -1  12  548.39   27.21
  -3   1 -12  246.29   13.93
   3  -1  12  246.09   12.29
  -3   1 -12  253.96   15.88
  -3  -1 -12  218.11   13.82
   3   1  12  208.76   16.07
   3  -1  12  223.35   16.56
  -3  -1 -12  225.09   15.19
   4   1  12  168.96   15.00
  -4   1 -12  162.52   11.81
  -4  -1 -12  107.81   12.47
  -4   1 -12  167.68   13.63
   4  -1  12  142.01   14.33
  -4  -1 -12  143.88   11.60
  -7   2  12   -2.72    3.82
  -7  -2  12   -1.03    4.34
  -7   2  12    2.52    4.90
  -6   2  12   -3.39    3.17
  -6  -2  12    5.23    4.43
  -6  -2  12    4.24    4.41
  -6   2  12   -1.59    3.80
  -5  -2  12  105.62   10.89
  -5   2  12   91.45   10.33
  -5  -2  12   92.14   10.35
  -5   2  12  109.90   12.26
  -4   2  12   59.01    9.43
  -4   2  12   39.40    6.86
  -4  -2  12   54.83    8.00
  -4  -2  12   53.19    8.54
   4   2 -12   45.88    5.20
  -3  -2  12    3.80    3.48
   3   2 -12    9.88    3.46
  -3   2  12    1.98    3.38
  -3   2  12   14.70    5.39
  -3  -2  12    7.35    5.33
  -2   2  12    4.52    3.21
  -2   2  12    2.12    4.52
  -2  -2  12    3.53    5.17
   2  -2 -12    3.30    2.47
  -2  -2  12    6.17    3.71
   2   2 -12    8.74    3.14
   1  -2 -12   38.92    5.25
  -1   2  12   40.43    5.19
  -1  -2  12   36.75    7.99
  -1  -2  12   45.59    6.43
   1   2 -12   41.11    5.89
   1   2 -12   42.65    4.99
  -1   2  12   30.30    7.43
   0   2 -12  213.08   12.28
   0   2 -12  205.54   10.59
   0   2  12  210.37   15.07
   0  -2  12  213.16   15.11
   0  -2 -12  201.58   11.70
   0  -2  12  207.36   11.79
   0   2  12  196.41    9.81
   1  -2  12   77.58    7.53
  -1   2 -12   70.17    7.00
   1   2  12   83.64   10.64
  -1   2 -12   82.66    8.82
   1  -2  12   70.32    9.98
  -1  -2 -12   86.60    8.95
   2   2  12   39.96    8.65
   2  -2  12   46.73    6.30
  -2  -2 -12   47.95    8.16
  -2   2 -12   38.28    6.00
  -2  -2 -12   31.33    6.55
   2  -2  12   34.27    8.06
  -2   2 -12   37.36    7.05
  -3   2 -12    5.65    3.85
   3  -2  12    2.70    3.03
  -3  -2 -12   -1.72    3.98
  -3  -2 -12    1.82    3.64
   3   2  12    5.25    5.79
   3  -2  12   -1.70    4.72
  -3   2 -12    1.81    3.82
   4   2  12   40.91    9.29
  -4   2 -12   30.67    6.49
  -4   2 -12   28.11    7.49
  -4  -2 -12   30.32    7.89
   4  -2  12   31.08    8.74
  -4  -2 -12   31.82    7.14
  -7   3  12   75.59    9.45
  -7  -3  12   75.59   10.99
  -7   3  12   92.58   12.36
  -6  -3  12   15.96    5.46
  -6   3  12   20.01    5.88
  -6  -3  12   14.09    5.74
  -6   3  12   17.71    6.39
  -5  -3  12    4.25    4.14
  -5  -3  12    2.04    4.00
  -5   3  12    1.70    3.75
  -4  -3  12   27.57    6.50
  -4  -3  12   32.12    7.20
   4   3 -12   33.37    5.18
  -4   3  12   23.01    5.99
  -4   3  12   39.86    8.32
  -3  -3  12  235.69   14.10
  -3   3  12  241.74   13.46
  -3   3  12  241.28   16.49
   3   3 -12  221.81   11.91
  -3  -3  12  248.82   15.87
  -2  -3  12   45.02    8.43
   2   3 -12   44.88    6.13
  -2   3  12   48.86    6.15
  -2  -3  12   38.99    6.65
   2  -3 -12   51.49    4.99
  -2   3  12   46.96    8.62
  -1   3  12  355.42   15.25
  -1  -3  12  359.04   17.32
   1   3 -12  376.46   13.85
  -1  -3  12  385.35   20.47
   1  -3 -12  377.59   15.71
   1   3 -12  367.39   16.85
  -1   3  12  388.92   20.87
   0   3  12    6.19    2.72
   0  -3  12    1.91    4.89
   0  -3  12    6.29    3.62
   0   3 -12    7.34    3.80
   0  -3 -12    3.01    3.56
   0   3 -12    4.22    2.62
   0   3  12   -1.34    4.21
  -1   3 -12   31.33    6.45
  -1   3 -12   31.53    4.85
   1  -3  12   45.84    8.44
   1   3  12   41.27    8.42
  -1  -3 -12   35.89    6.60
   1  -3  12   37.29    6.05
  -2   3 -12   49.00    8.23
   2   3  12   53.99    9.24
  -2   3 -12   41.15    5.93
  -2  -3 -12   46.49    8.18
   2  -3  12   45.36    6.63
   2  -3  12   32.89    7.85
   3   3  12   64.47   10.30
  -3  -3 -12   70.24    9.20
  -3  -3 -12   61.30    9.64
   3  -3  12   73.25    8.32
  -3   3 -12   56.11    7.18
   3  -3  12   62.64   10.28
  -3   3 -12   75.94   10.09
   4  -3  12   46.50    9.90
   4   3  12   47.67    9.29
  -4  -3 -12   52.38    8.69
  -4   3 -12   49.15    7.58
  -4   3 -12   53.21    9.39
  -4  -3 -12   62.50   10.76
  -6   4  12    3.99    4.93
  -6  -4  12    0.16    4.39
  -6   4  12    2.09    4.14
   5   4 -12   53.37    6.91
  -5  -4  12   67.04    9.53
  -5  -4  12   50.97    8.03
  -5   4  12   39.30    7.78
  -4   4  12    8.46    4.59
  -4   4  12   13.83    5.59
  -4  -4  12   11.31    5.01
   4   4 -12   12.88    4.29
  -4  -4  12   13.41    5.82
  -3   4  12   70.51    8.07
  -3  -4  12   67.63    9.55
  -3  -4  12   60.79    8.39
   3   4 -12   64.28    7.35
  -3   4  12   58.07    9.81
  -2   4  12   91.69    7.80
   2   4 -12   66.28    7.63
  -2   4  12   83.17   10.81
  -2  -4  12   84.78   10.27
  -2  -4  12   79.14    8.91
   1  -4 -12    5.45    3.76
  -1  -4  12    2.49    5.43
  -1  -4  12    6.28    4.02
   1   4 -12    5.06    3.44
  -1   4  12    6.38    4.88
  -1   4  12    0.92    2.68
   0  -4  12   -0.21    4.99
   0  -4  12   -0.98    2.93
   0   4 -12    1.66    3.21
   0   4  12   -3.15    3.74
   0  -4 -12    2.47    3.85
   1  -4  12   86.31   10.99
  -1   4 -12   76.06    6.42
   1   4  12   80.30   10.49
  -1   4 -12   93.74   10.05
   1  -4  12   76.07    8.77
  -1  -4 -12   84.24    9.45
   2   4  12   -0.24    4.47
  -2   4 -12    3.81    3.13
  -2   4 -12   -1.45    3.27
   2  -4  12    0.22    3.28
  -2  -4 -12    2.14    4.61
   2  -4  12   -1.70    4.92
  -3  -4 -12    4.19    5.34
   3  -4  12   -5.98    4.50
  -3   4 -12    3.91    4.23
  -3   4 -12    7.13    3.83
   3   4  12    6.96    5.20
  -3  -4 -12    1.80    4.43
  -6  -5  12   18.79    6.46
  -5  -5  12   -3.03    4.02
  -5   5  12    3.46    4.25
   4   5 -12   26.52    5.85
  -4  -5  12   32.78    6.97
  -4   5  12   14.88    5.54
  -4  -5  12   41.51    7.70
  -3  -5  12   -2.40    2.70
  -3   5  12    3.45    4.33
  -3   5  12    0.16    3.24
   3   5 -12   -0.32    3.23
  -3  -5  12   -4.85    4.44
  -2  -5  12   39.10    8.50
  -2   5  12   29.50    7.64
   2   5 -12   28.70    6.00
  -2  -5  12   36.08    6.86
  -2   5  12   33.13    5.65
   1   5 -12   19.73    5.29
  -1   5  12   23.86    6.79
  -1  -5  12   23.17    5.77
   1  -5 -12   19.86    5.22
  -1  -5  12   10.53    6.29
   0  -5  12   -3.90    4.51
   0   5  12    0.60    4.32
   0  -5  12    0.85    3.19
   0   5 -12    0.56    3.47
   0  -5 -12   -3.87    3.79
   1   5  12    7.45    5.03
   1  -5  12    9.27    4.26
   1  -5  12    4.33    5.70
  -1  -5 -12    7.45    4.80
  -1   5 -12   10.84    4.99
   2  -5  12    9.67    6.23
  -2   5 -12   11.95    5.16
  -2  -5 -12   19.60    7.01
   2   5  12   23.93    6.58
   2  -5  12   11.06    4.96
  -3  -5 -12   -0.66    4.87
   3  -5  12   -2.70    5.37
  -3  -5 -12   -2.17    4.28
  -3   5 -12    1.56    3.97
  -5  -6  12    0.05    4.14
   4   6 -12    6.01    4.31
  -4  -6  12    3.04    4.28
  -4   6  12    6.57    4.68
  -3  -6  12   16.36    5.59
  -3  -6  12   20.58    6.95
   3   6 -12   10.61    4.75
  -3   6  12   15.84    5.03
  -2  -6  12   -1.87    3.24
  -2   6  12    8.48    5.04
  -2  -6  12   -4.49    5.30
   2   6 -12   -0.53    3.44
  -1   6  12    2.34    4.35
  -1  -6  12    3.96    3.92
   1   6 -12    1.16    3.77
  -1  -6  12    0.07    5.53
   0   6 -12    1.07    3.51
   0   6  12    2.43    4.18
   0  -6  12    1.45    3.54
   0  -6 -12   -2.42    4.06
   0  -6  12   -3.86    4.70
  -1   6 -12    5.09    4.33
   1  -6  12   -0.89    3.47
   1  -6  12   -4.07    4.80
  -1  -6 -12   -3.91    4.54
   1   6  12    4.82    4.43
   2  -6  12   -1.18    5.07
  -2   6 -12    1.47    4.22
   2  -6  12    3.75    4.05
  -2  -6 -12   -0.92    5.14
   3   7 -12   94.16   10.89
  -3  -7  12  130.95   12.93
  -2  -7  12   61.95   10.26
   2   7 -12   68.42    9.81
  -2  -7  12   77.40   10.64
  -1  -7  12  144.42   12.74
  -1  -7  12  170.64   14.87
   1   7 -12  160.27   13.11
   0  -7  12    2.02    4.16
   0  -7  12    3.69    6.20
   0   7 -12    2.23    4.16
  -7   0  13   -0.68    4.62
  -6   0  13    0.64    3.95
  -6   0  13    7.75    5.18
  -5   0  13    2.49    4.36
  -5   0  13    0.51    3.62
  -4   0  13   -1.84    4.14
  -4   0  13    2.05    3.54
   3   0 -13   -0.36    1.96
  -3   0  13   -3.59    2.72
  -3   0  13   -0.78    4.04
   2   0 -13   -0.49    2.02
  -2   0  13    2.39    4.49
  -2   0  13    1.56    3.06
  -1   0  13   -0.53    4.94
  -1   0  13   -0.01    2.53
   1   0 -13    4.41    2.93
   0   0  13    3.19    5.46
   0   0 -13    6.46    3.42
   0   0  13    3.75    2.92
  -1   0 -13   -0.20    3.26
   1   0  13   -6.04    4.37
  -1   0 -13   -1.02    3.05
   1   0  13   -3.90    2.15
   2   0  13   -0.70    5.01
  -2   0 -13   -1.30    3.25
  -2   0 -13   -0.11    3.67
  -3   0 -13   -5.65    2.91
   3   0  13   -2.45    5.35
  -3   0 -13    4.65    4.47
   4   0  13   -9.38    5.07
  -4   0 -13   -2.77    3.45
  -4   0 -13    1.71    4.58
  -7   1  13   29.66    8.02
  -7   1  13   29.53    6.70
  -7  -1  13   37.27    8.49
  -6  -1  13   28.13    7.06
  -6   1  13   53.15    9.28
  -6   1  13   27.64    7.10
  -6  -1  13   41.19    8.22
  -5  -1  13    3.31    4.27
  -5   1  13    1.57    3.81
  -5  -1  13    5.86    4.83
  -5   1  13    5.86    4.84
  -4  -1  13   15.49    5.53
  -4   1  13   15.74    6.11
  -4   1  13   16.31    5.38
  -4  -1  13   19.46    6.51
  -3  -1  13   98.49   11.49
  -3  -1  13   83.87    9.02
   3   1 -13   83.53    6.49
  -3   1  13   95.26    9.22
  -3   1  13   93.54   11.31
  -2  -1  13   33.77    8.03
   2  -1 -13   34.34    4.52
  -2   1  13   32.42    5.88
  -2  -1  13   33.10    6.09
  -2   1  13   19.77    6.59
   2   1 -13   28.38    4.73
  -1  -1  13   14.07    6.35
  -1   1  13    7.66    5.59
   1  -1 -13   11.59    3.70
   1   1 -13   14.17    4.04
  -1   1  13   13.80    4.12
  -1  -1  13   12.56    4.03
   0  -1 -13    8.43    3.68
   0   1  13    1.95    5.25
   0  -1  13    5.01    5.72
   0   1  13    1.53    2.43
   0  -1  13    4.21    3.07
   0   1 -13    1.65    3.11
   0   1 -13    2.86    3.22
   1   1  13    9.49    3.22
   1   1  13   -0.67    5.28
  -1  -1 -13    3.51    3.65
  -1   1 -13    5.49    3.69
   1  -1  13    2.60    5.40
  -1  -1 -13    4.10    3.70
  -1   1 -13    1.66    3.29
   1  -1  13    7.76    3.57
  -2  -1 -13   21.39    5.57
   2  -1  13   42.85    5.89
  -2   1 -13   47.00    7.92
  -2  -1 -13   42.76    7.91
   2   1  13   41.38    9.17
   2  -1  13   34.84    8.91
  -2   1 -13   30.16    6.01
  -3   1 -13   16.45    6.00
   3  -1  13   -2.06    5.28
  -3  -1 -13   19.17    6.18
   3   1  13    3.39    6.31
  -3   1 -13    8.06    4.32
  -3  -1 -13   12.14    4.89
   4  -1  13   -0.40    5.77
   4   1  13    0.27    6.17
  -4   1 -13    5.75    4.41
  -4  -1 -13    5.74    5.12
  -4  -1 -13    0.31    3.92
  -4   1 -13    6.68    5.02
  -7  -2  13   24.09    7.42
  -7   2  13   34.25    7.45
  -7   2  13   22.42    7.34
  -6   2  13   70.15   10.34
  -6  -2  13   66.81    9.66
  -6  -2  13   45.47    8.52
  -5  -2  13   49.31    8.31
  -5  -2  13   84.79   10.52
  -5   2  13   50.24    8.54
  -5   2  13   58.51    9.95
  -4   2  13    3.46    4.39
   4   2 -13   -0.23    2.32
  -4  -2  13   -3.11    3.22
  -4   2  13   -4.54    2.86
  -4  -2  13   -0.69    4.37
  -3  -2  13   62.24    8.26
   3   2 -13   75.60    6.83
  -3   2  13   59.57    9.70
  -3   2  13   62.34    7.75
  -3  -2  13   51.60    8.88
   2   2 -13  271.78   13.09
   2  -2 -13  248.41   11.19
  -2   2  13  253.11   13.33
  -2  -2  13  212.46   16.22
  -2  -2  13  256.36   14.38
  -2   2  13  263.93   17.30
  -1  -2  13  192.96   15.02
   1   2 -13  179.79   11.28
  -1   2  13  207.66   15.47
  -1   2  13  216.53   11.21
  -1  -2  13  207.74   12.35
   1   2 -13  192.33   10.34
   1  -2 -13  205.52   11.12
   0   2  13  114.54   12.54
   0   2 -13  103.70    7.97
   0   2  13  103.81    7.26
   0  -2  13  104.77    8.60
   0   2 -13  108.40    8.94
   0  -2  13   95.81   11.66
   0  -2 -13  101.23    8.46
  -1  -2 -13   18.23    5.49
   1  -2  13    8.98    3.91
  -1   2 -13    8.09    4.03
   1  -2  13   11.44    6.87
   1   2  13   10.25    6.37
  -1   2 -13    6.94    4.31
  -2   2 -13   82.37    9.73
   2  -2  13   95.70    8.33
   2   2  13   88.75   11.81
  -2  -2 -13   92.76   10.52
  -2   2 -13   78.07    8.24
   2  -2  13   78.64   11.40
  -2  -2 -13   94.68    9.89
   3  -2  13    1.72    5.63
  -3   2 -13    0.52    3.77
  -3  -2 -13   -0.96    3.98
  -3   2 -13    4.38    4.62
  -3  -2 -13    0.62    4.48
   3   2  13    6.53    6.13
   3  -2  13    2.53    3.38
  -4  -2 -13  154.48   14.90
  -4   2 -13  120.20   11.27
  -4   2 -13  152.71   14.72
   4  -2  13  142.95   15.13
   4   2  13   96.93   13.09
  -4  -2 -13  122.12   11.96
  -6  -3  13   31.58    7.68
  -6   3  13   38.85    8.66
  -5   3  13   56.01    9.84
  -5  -3  13   69.18    9.28
  -5   3  13   66.25    9.31
  -5  -3  13   62.98    9.10
  -4  -3  13   93.11   10.73
   4   3 -13   88.62    7.64
  -4   3  13   92.52    9.83
  -4   3  13  123.76   13.23
  -4  -3  13   85.31   10.07
   3   3 -13  181.19   10.81
  -3  -3  13  180.91   14.17
  -3   3  13  172.97   11.82
  -3   3  13  160.78   14.01
  -3  -3  13  180.27   12.56
  -2  -3  13    2.50    3.27
  -2   3  13    1.85    4.65
   2   3 -13    1.96    3.01
  -2  -3  13    1.27    5.22
  -2   3  13    2.17    3.17
   1   3 -13   32.08    4.35
  -1   3  13   29.89    4.99
  -1  -3  13   37.31    6.74
   1   3 -13   32.99    6.07
  -1  -3  13   20.48    7.54
   1  -3 -13   31.78    5.45
  -1   3  13   34.03    8.38
   0   3 -13   -3.54    2.50
   0   3 -13   -1.79    2.33
   0  -3 -13    5.56    4.08
   0   3  13   -5.45    4.50
   0  -3  13  -11.13    3.60
   0  -3  13    1.74    3.05
  -1   3 -13  109.31   10.56
  -1  -3 -13  110.04   10.39
  -1   3 -13   90.77    7.59
   1  -3  13  104.92    9.17
   1   3  13   70.51   10.57
   1  -3  13  114.54   12.86
  -2   3 -13   95.07    8.12
  -2  -3 -13   97.82   10.34
   2  -3  13  110.26    9.96
   2   3  13   95.17   12.07
   2  -3  13   87.47   11.87
  -2  -3 -13  104.01   10.93
  -2   3 -13   96.53   10.75
   3  -3  13   77.74   12.01
  -3  -3 -13   72.21   10.67
   3  -3  13   70.97    8.40
   3   3  13  102.72   12.52
  -3  -3 -13   76.07    9.70
  -3   3 -13  102.93   12.03
  -3   3 -13   88.81    8.88
  -6   4  13  120.94   12.95
  -5   4  13   59.19    9.42
   5   4 -13   54.02    7.12
  -5  -4  13   62.21    8.94
  -5  -4  13   62.16    9.49
  -4  -4  13   92.92   10.77
   4   4 -13   94.89    8.69
  -4   4  13   96.17   10.28
  -4   4  13   78.53   11.53
  -4  -4  13   99.55   11.13
  -3   4  13   14.33    5.96
   3   4 -13    9.81    4.05
  -3   4  13    0.45    3.22
  -3  -4  13    3.62    4.08
  -3  -4  13    6.60    5.78
  -2   4  13  200.51   12.05
  -2  -4  13  212.68   13.78
  -2  -4  13  200.62   15.42
   2   4 -13  219.12   13.00
  -2   4  13  215.29   16.12
  -1  -4  13  309.31   19.50
  -1  -4  13  329.76   17.12
   1   4 -13  276.23   15.72
  -1   4  13  281.85   18.90
   1  -4 -13  332.94   15.12
   0  -4  13  120.46   13.13
   0   4 -13   93.37    9.73
   0  -4  13  105.14   10.13
   0   4  13  118.16   12.86
   0  -4 -13  112.73   10.04
  -1   4 -13   42.37    7.81
  -1  -4 -13   43.13    7.37
   1  -4  13   47.70    7.60
   1  -4  13   52.09   10.25
   1   4  13   41.61    8.80
  -2   4 -13   14.89    4.45
  -2  -4 -13   17.41    6.41
   2  -4  13   19.87    5.50
   2   4  13   37.06    8.67
   2  -4  13   17.70    7.40
  -2   4 -13   17.47    5.73
   3  -4  13  160.47   12.19
   3   4  13  156.55   14.25
   3  -4  13  121.65   13.86
  -3  -4 -13  146.63   13.22
  -3   4 -13  164.94   11.14
  -3   4 -13  164.93   13.87
  -5  -5  13   92.57   11.46
  -5   5  13  103.72   11.84
   5   5 -13   81.88    9.22
  -4   5  13  143.08   11.83
  -4  -5  13  156.37   12.76
   4   5 -13  135.76   10.82
  -4  -5  13  177.18   13.65
   3   5 -13   32.96    6.36
  -3   5  13   42.43    9.05
  -3   5  13   43.88    7.17
  -3  -5  13   56.39    8.87
  -3  -5  13   42.96    9.12
  -2  -5  13  121.10   13.01
  -2   5  13  132.85   13.80
  -2  -5  13  125.59   10.99
   2   5 -13  124.61   10.58
   1   5 -13   22.37    5.66
  -1  -5  13    7.12    6.60
  -1  -5  13   18.11    5.50
  -1   5  13   13.94    5.88
   0  -5 -13   48.43    7.66
   0   5  13   63.89   10.29
   0   5 -13   47.23    8.09
   0  -5  13   39.58    9.52
   0  -5  13   45.92    7.94
   1  -5  13  178.64   15.39
   1  -5  13  188.06   13.19
  -1   5 -13  139.22   12.20
   1   5  13  176.67   14.50
  -1  -5 -13  195.78   13.49
   2  -5  13   40.54    9.49
   2   5  13   56.25    9.56
  -2   5 -13   55.79    9.30
   2  -5  13   52.75    8.55
  -2  -5 -13   47.63    8.89
  -4   6  13   74.48    9.86
   4   6 -13   72.82    9.38
  -4  -6  13   59.82    9.56
  -3  -6  13   44.93    9.48
   3   6 -13   48.67    7.95
  -2   6  13   96.43   12.68
  -2  -6  13   68.26   10.74
   2   6 -13   86.58   10.18
  -2  -6  13   67.75    9.79
   1   6 -13   86.65   10.11
  -1  -6  13   80.83   10.39
  -1   6  13   82.63   11.64
  -1  -6  13   74.07   11.55
   0   6 -13   91.52   11.22
   0  -6  13   74.53   10.32
   0  -6  13   82.35   12.18
   0   6  13   75.46   10.93
   1  -6  13   22.22    8.24
  -1  -6 -13   30.21    7.79
   1  -6  13   28.38    7.06
  -1   6 -13   25.34    7.11
  -6   0  14    3.21    4.84
  -6   0  14    2.48    4.53
  -5   0  14    5.94    5.30
  -5   0  14    6.83    4.77
  -4   0  14   28.48    7.56
  -4   0  14   25.81    6.44
  -3   0  14  289.76   18.75
  -3   0  14  289.39   16.11
   2   0 -14    5.81    3.10
  -2   0  14    8.39    4.08
  -2   0  14   -0.45    4.85
  -1   0  14  120.94   13.35
   1   0 -14  121.58    8.95
  -1   0  14  117.78    9.06
   0   0  14   28.63    5.40
   0   0 -14   30.68    5.98
   0   0  14   18.88    7.33
  -1   0 -14  191.92   13.00
   1   0  14  185.14   10.91
  -1   0 -14  176.31   12.04
   1   0  14  208.92   16.61
  -2   0 -14   10.86    5.09
  -2   0 -14    8.45    4.42
   2   0  14   27.47    8.80
  -3   0 -14   32.84    7.62
  -3   0 -14   13.93    5.39
   3   0  14   13.47    7.92
  -6   1  14   77.37   10.69
  -6  -1  14  105.14   12.41
  -6   1  14   90.85   12.11
  -6  -1  14   71.80   10.33
  -5   1  14  259.33   18.27
  -5  -1  14  263.78   17.90
  -5  -1  14  284.55   17.34
  -5   1  14  239.17   16.12
  -4   1  14  244.02   15.23
  -4  -1  14  253.73   17.28
  -4   1  14  251.86   17.71
  -4  -1  14  224.11   14.93
  -3  -1  14    1.06    5.28
  -3   1  14    6.99    4.27
  -3   1  14    5.95    5.27
   3   1 -14   14.02    3.70
  -3  -1  14    7.54    4.46
  -2  -1  14    0.30    3.22
   2   1 -14    2.23    2.62
   2  -1 -14    1.58    2.33
  -2  -1  14    5.36    5.76
  -2   1  14    1.15    3.29
  -2   1  14    2.08    5.19
   1  -1 -14  310.19   14.55
   1   1 -14  309.06   15.00
  -1   1  14  267.07   18.77
  -1   1  14  303.57   14.82
  -1  -1  14  315.10   15.72
  -1  -1  14  306.72   19.55
   0  -1 -14  485.51   20.29
   0  -1  14  430.58   24.20
   0   1 -14  455.94   19.27
   0  -1  14  450.31   19.48
   0   1  14  424.11   17.85
   0   1  14  420.37   24.00
   0   1 -14  474.02   20.39
   1   1  14  424.68   23.91
  -1  -1 -14  422.83   20.17
  -1   1 -14  397.70   19.86
   1  -1  14  429.85   18.53
  -1   1 -14  422.23   18.95
   1  -1  14  413.41   23.76
  -2  -1 -14  384.62   20.04
   2  -1  14  377.87   23.05
  -2   1 -14  381.31   20.09
  -2  -1 -14  353.13   18.67
   2   1  14  371.75   22.65
  -2   1 -14  374.41   18.34
  -3  -1 -14   15.06    6.26
   3  -1  14   10.49    7.18
   3   1  14    1.05    6.33
  -3  -1 -14   12.26    5.23
  -3   1 -14   10.83    5.15
  -3   1 -14   17.19    5.94
  -6  -2  14   54.39    9.19
  -6  -2  14   44.22    8.66
  -6   2  14   47.68    9.03
  -5  -2  14    3.72    4.61
  -5  -2  14    5.25    4.63
  -5   2  14    1.80    4.36
  -5   2  14    6.87    4.75
  -4   2  14    5.47    4.37
  -4  -2  14    5.47    4.19
  -4  -2  14    7.52    5.53
  -4   2  14    7.38    5.22
   3   2 -14   29.04    4.99
  -3   2  14   28.42    7.83
  -3  -2  14   33.04    8.41
  -3   2  14   28.70    6.22
  -3  -2  14   36.39    7.23
  -2  -2  14   99.58    9.84
  -2  -2  14   93.74   12.05
  -2   2  14  109.41    9.00
  -2   2  14  110.83   13.01
   2   2 -14  100.45    8.17
  -1   2  14    3.63    5.21
   1  -2 -14   11.79    3.97
   1   2 -14    5.41    3.36
   1   2 -14    6.01    3.55
  -1   2  14    4.08    3.38
  -1  -2  14    9.38    4.12
  -1  -2  14   15.87    7.26
   0   2  14   12.39    6.42
   0   2 -14   24.07    5.91
   0   2 -14   25.32    5.11
   0  -2  14   11.71    7.37
   0  -2 -14   16.05    4.84
   0  -2  14   20.64    5.37
  -1   2 -14   15.14    4.69
   1  -2  14   16.00    7.46
  -1  -2 -14   11.96    4.88
   1   2  14    5.64    5.96
  -1   2 -14    6.92    4.24
   1  -2  14   15.25    4.82
  -2  -2 -14  113.42   11.67
   2   2  14   74.24   11.78
  -2  -2 -14   80.92    9.52
  -2   2 -14   71.94    9.77
   2  -2  14   49.48   10.46
  -2   2 -14   63.24    7.79
   2  -2  14   87.06    8.65
  -3   2 -14   33.74    7.78
   3  -2  14   20.66    8.33
  -3  -2 -14   33.39    7.46
  -3   2 -14   36.04    7.03
   3   2  14   34.82    9.40
  -3  -2 -14   30.09    7.52
  -6  -3  14   32.61    8.11
  -6   3  14   45.37    9.13
  -5  -3  14    3.93    4.63
  -5  -3  14   13.21    5.76
  -5   3  14    3.91    4.88
  -5   3  14   13.14    6.51
  -4  -3  14   78.18   10.83
   4   3 -14  100.60    8.28
  -4   3  14   81.61   11.63
  -4  -3  14  105.99   11.54
  -4   3  14   94.76   10.21
  -3   3  14   19.09    6.96
  -3  -3  14   11.27    6.56
  -3  -3  14   14.95    5.35
   3   3 -14   12.70    4.19
  -3   3  14   12.53    4.84
  -2  -3  14    2.73    5.85
   2   3 -14    0.24    2.76
  -2  -3  14    0.00    3.33
  -2   3  14   -0.01    3.11
  -2   3  14    2.42    4.82
  -1   3  14   68.05   11.13
   1   3 -14   63.26    7.87
   1  -3 -14   63.99    7.15
  -1  -3  14   46.87    7.51
  -1  -3  14   63.90   10.80
   0  -3 -14  278.78   15.01
   0   3 -14  287.22   16.04
   0  -3  14  265.62   18.69
   0  -3  14  275.50   15.51
   0   3  14  256.32   18.30
  -1  -3 -14   45.26    7.64
  -1   3 -14   32.82    5.62
   1  -3  14   68.07    8.39
   1  -3  14   50.23   10.15
   1   3  14   45.56    9.87
  -1   3 -14   55.72    8.62
  -2  -3 -14   43.90    8.04
   2  -3  14   37.90    9.58
  -2   3 -14   33.34    7.18
  -2   3 -14   42.87    6.48
   2   3  14   51.25   10.01
   2  -3  14   42.37    7.03
  -2  -3 -14   47.88    8.66
  -3  -3 -14   18.96    6.76
   3  -3  14    7.91    4.69
  -3   3 -14   10.46    5.28
  -5   4  14   -4.14    3.71
  -5  -4  14    3.56    5.04
  -5  -4  14    3.61    4.72
  -4   4  14   60.45   10.55
  -4  -4  14   68.38   10.38
   4   4 -14   65.72    7.72
  -4   4  14   46.68    8.01
  -4  -4  14   36.75    7.75
  -3   4  14   10.38    5.90
   3   4 -14    5.30    3.58
  -3  -4  14    1.20    4.11
  -3  -4  14    3.23    6.22
  -3   4  14    9.37    4.55
  -2   4  14   68.44   10.99
  -2  -4  14   63.81    9.04
   2   4 -14   64.10    7.91
  -2  -4  14   71.67   11.35
  -1  -4  14   -5.49    5.23
   1   4 -14   -1.07    2.98
  -1   4  14    3.82    5.28
  -1  -4  14   -4.22    2.67
   0  -4  14    5.52    3.96
   0   4  14    3.35    5.07
   0  -4 -14    6.17    4.55
   0  -4  14   -1.58    5.30
   0   4 -14    2.91    3.78
   1  -4  14   21.63    8.81
   1   4  14   16.70    6.90
  -1   4 -14   20.31    6.07
   1  -4  14   20.37    5.91
  -1  -4 -14   18.34    6.13
   2  -4  14  100.09   13.60
  -2  -4 -14   78.22   10.42
  -2  -4 -14   73.58   10.30
  -2   4 -14  100.76   11.78
   2  -4  14   81.34    9.58
   2   4  14   92.91   12.25
  -4  -5  14   11.33    5.65
  -4   5  14   13.30    5.65
  -4  -5  14   21.48    7.42
   4   5 -14   10.44    4.76
  -3   5  14   37.28    8.77
   3   5 -14   27.19    6.25
  -3  -5  14   33.72    7.53
  -3  -5  14   41.91    9.26
   2   5 -14    7.04    4.06
  -2   5  14   14.69    6.22
  -2  -5  14   -1.20    3.62
  -2  -5  14   -1.62    5.81
  -1  -5  14   -7.22    5.64
   1   5 -14    3.92    3.77
  -1  -5  14   -2.01    3.44
  -1   5  14    4.95    5.12
   0   5 -14    3.21    4.06
   0  -5  14    1.44    3.78
   0  -5 -14    9.59    4.82
   0   5  14   13.92    6.35
   0  -5  14    0.65    6.32
  -1   5 -14    0.08    3.88
   1  -5  14    5.98    4.47
   1  -5  14   -1.14    5.78
   1   5  14   14.50    6.58
  -1  -5 -14   10.61    5.47
   2   6 -14   10.24    4.98
  -2  -6  14   19.25    6.49
  -1  -6  14   14.71    5.72
   1   6 -14   19.77    5.96
  -6   0  15   -2.04    4.43
  -6   0  15    5.40    4.84
  -5   0  15   -4.47    3.73
  -5   0  15    6.13    5.18
  -4   0  15    1.92    5.30
  -4   0  15    6.07    4.63
  -3   0  15    1.77    3.76
  -3   0  15   -0.87    4.66
  -2   0  15    1.28    3.37
  -2   0  15   -3.48    5.04
   2   0 -15    1.80    2.64
   1   0 -15    1.27    3.04
  -1   0  15   -1.50    5.29
  -1   0  15   -0.31    3.10
   0   0  15   -4.50    2.75
   0   0 -15    1.42    3.42
   0   0 -15   -0.96    3.72
   0   0  15   -8.16    5.23
   1   0  15   12.45    7.11
  -1   0 -15    4.97    4.11
  -1   0 -15    0.21    3.80
  -2   0 -15    2.44    4.27
   2   0  15  -10.10    5.13
  -2   0 -15   -4.54    3.43
  -6   1  15   36.01    9.04
  -6  -1  15   57.39    9.82
  -6  -1  15   26.56    7.64
  -6   1  15   37.71    8.50
  -5  -1  15   25.45    7.70
  -5   1  15   21.06    6.96
  -5  -1  15   15.18    6.19
  -5   1  15    9.39    5.37
  -4  -1  15    4.16    4.58
  -4   1  15    8.27    5.86
  -4  -1  15    5.91    5.84
  -4   1  15    6.95    4.70
  -3  -1  15   -2.49    4.99
  -3   1  15   13.78    6.44
  -3  -1  15    2.41    4.06
  -3   1  15   -3.34    3.41
   2   1 -15   41.48    5.99
  -2   1  15   36.87    8.98
  -2  -1  15   24.85    6.37
  -2   1  15   30.52    6.39
  -2  -1  15   30.11    8.86
   1  -1 -15   -0.76    2.79
   1   1 -15   -0.25    3.14
  -1  -1  15    7.26    6.44
  -1   1  15   -0.23    5.26
  -1  -1  15    0.45    3.30
  -1   1  15    5.70    3.71
   1   1 -15    5.29    3.49
   0   1 -15   20.89    5.30
   0  -1  15   12.75    7.33
   0   1 -15   17.23    5.22
   0   1  15   23.12    7.92
   0  -1  15   14.86    4.88
   0  -1 -15   20.67    5.18
   1  -1  15   50.69    7.00
   1  -1  15   37.39    9.67
  -1  -1 -15   61.91    8.75
  -1  -1 -15   19.06    5.72
  -1   1 -15   51.66    8.22
   1   1  15   50.70   10.66
  -1   1 -15   43.08    6.98
  -2   1 -15    9.08    4.80
  -2  -1 -15    2.44    4.25
   2  -1  15   -0.16    6.22
   2   1  15   -5.77    5.52
  -2   1 -15    6.06    4.19
  -2  -1 -15   -1.29    3.76
  -5  -2  15   16.03    6.79
  -5   2  15    9.07    5.89
  -5  -2  15   20.83    6.83
  -5   2  15   18.26    6.59
  -4   2  15  284.18   19.68
  -4   2  15  285.64   16.96
  -4  -2  15  256.31   18.11
  -4  -2  15  251.79   16.43
   3   2 -15   11.93    4.20
  -3   2  15    9.92    6.10
  -3   2  15   14.79    5.61
  -3  -2  15    7.66    5.09
  -3  -2  15    6.77    6.23
  -2   2  15  193.26   16.14
  -2  -2  15  197.60   13.29
  -2   2  15  181.46   12.03
   2   2 -15  182.61   11.37
  -2  -2  15  167.31   15.39
   1  -2 -15   15.95    4.31
  -1   2  15    5.36    5.96
   1   2 -15    7.87    4.04
  -1  -2  15    6.76    4.57
   1   2 -15   10.74    4.23
  -1  -2  15    1.52    6.08
   0  -2 -15  164.20   11.54
   0   2 -15  139.00   10.14
   0  -2  15  163.22   15.97
   0   2  15  147.34   15.30
   0  -2  15  178.23   12.23
   0   2 -15  174.72   12.21
   1   2  15    0.30    5.87
   1  -2  15    2.10    6.69
  -1   2 -15   10.87    4.92
  -1  -2 -15    9.88    5.09
   1  -2  15   11.82    4.73
  -1  -2 -15   10.03    4.75
  -1   2 -15    4.81    4.03
  -2   2 -15   39.63    7.08
  -2  -2 -15   44.33    8.57
  -2   2 -15   38.14    7.77
   2  -2  15   25.94    9.35
   2   2  15   31.80    9.29
  -2  -2 -15   25.23    6.57
  -5  -3  15   -4.09    3.91
  -5   3  15   -0.74    4.33
  -5   3  15    1.26    4.58
  -5  -3  15    6.65    5.56
  -4   3  15   68.19   11.57
  -4   3  15   45.51    8.29
  -4  -3  15   35.40    8.69
  -4  -3  15   32.43    7.64
  -3  -3  15   23.73    6.54
  -3   3  15    9.30    4.64
  -3   3  15   15.41    6.89
  -3  -3  15   19.03    7.41
   3   3 -15   13.74    4.39
  -2   3  15  117.54   13.96
  -2  -3  15  119.42   13.99
  -2  -3  15  126.81   11.08
  -2   3  15  113.85    9.68
   2   3 -15  132.47    9.96
  -1   3  15   53.26   10.69
  -1  -3  15   24.60    8.30
   1   3 -15   51.34    7.49
  -1  -3  15   50.09    8.21
   0  -3 -15  110.05   10.38
   0   3  15  112.49   13.91
   0  -3  15  128.59   11.54
   0   3 -15  123.75   10.67
   0  -3  15  125.15   14.67
  -1  -3 -15  124.33   11.92
   1  -3  15  130.14   10.91
   1   3  15   90.63   12.61
  -1   3 -15   98.41   11.07
   1  -3  15   78.48   12.38
  -2  -3 -15   14.18    5.77
  -2   3 -15   15.29    5.80
   2  -3  15   21.49    5.92
  -2   3 -15   16.05    5.27
  -4  -4  15   87.64   11.34
   4   4 -15   73.11    8.28
  -4  -4  15   83.32   11.39
  -4   4  15  101.80   13.91
  -4   4  15   89.84   10.42
   3   4 -15  207.52   13.21
  -3   4  15  228.12   18.04
  -3   4  15  210.81   13.93
  -3  -4  15  226.17   15.51
  -3  -4  15  218.86   17.18
   2   4 -15  100.56    9.99
  -2   4  15  120.65   14.56
  -2  -4  15  139.49   11.84
  -2  -4  15  125.67   14.60
  -1  -4  15   10.44    5.13
  -1   4  15    6.56    6.03
  -1  -4  15   11.23    7.72
   1   4 -15   13.18    4.96
   0   4 -15   84.35   10.16
   0  -4 -15   74.08    8.95
   0  -4  15   91.73   10.26
   0  -4  15   49.16   10.56
   0   4  15   74.48   11.86
   1   4  15   49.88   10.38
   1  -4  15   23.87    9.09
  -1   4 -15   50.60    8.96
  -1  -4 -15   39.29    7.94
   1  -4  15   33.86    7.43
  -3  -5  15   41.58    8.84
  -2  -5  15  113.21   14.10
   2   5 -15  104.69   10.74
  -2  -5  15   93.09   11.40
  -2   5  15  137.38   15.04
   1   5 -15  147.42   12.21
  -1   5  15  166.21   16.52
  -1  -5  15  107.51   14.30
  -1  -5  15  121.70   12.45
  -5   0  16  116.11   13.00
  -5   0  16  103.54   13.28
  -4   0  16   73.35   11.87
  -4   0  16   87.82   10.89
  -3   0  16   53.02    8.51
  -3   0  16   55.44   10.77
  -2   0  16   34.36    9.23
  -2   0  16   42.33    7.53
  -1   0  16   19.54    5.54
   1   0 -16   21.22    5.36
  -1   0  16   13.39    7.92
   0   0 -16   52.28    7.89
   0   0  16   34.89    9.65
   0   0 -16   38.62    7.29
   1   0  16   92.26   13.99
  -1   0 -16   81.12   10.03
  -1   0 -16   76.74    9.48
  -5  -1  16   13.80    6.24
  -5  -1  16   18.01    6.88
  -5   1  16   15.42    6.66
  -5   1  16   10.96    5.92
  -4   1  16   65.08   11.72
  -4  -1  16   47.57    9.88
  -4   1  16   43.06    8.22
  -4  -1  16   51.31    9.18
  -3  -1  16  109.14   11.35
  -3   1  16  127.72   14.93
  -3  -1  16  135.04   14.85
  -3   1  16  120.50   11.50
  -2  -1  16  449.65   25.69
  -2  -1  16  435.78   21.06
  -2   1  16  447.62   20.44
   2   1 -16  404.26   18.28
  -2   1  16  418.81   25.20
  -1   1  16  309.02   15.84
  -1  -1  16  307.37   16.75
   1   1 -16  267.12   15.21
  -1   1  16  313.72   21.49
   1   1 -16  294.25   15.54
   1  -1 -16  329.46   15.86
  -1  -1  16  292.84   21.23
   0  -1  16   46.13   10.99
   0  -1  16   36.79    6.82
   0   1 -16   41.09    7.40
   0   1  16   45.56   10.30
   0   1 -16   47.74    7.42
   0  -1 -16   37.10    6.77
  -1   1 -16    5.82    4.45
  -1  -1 -16   -1.01    3.84
   1  -1  16   -8.92    5.24
  -1  -1 -16   -0.93    3.59
  -1   1 -16   -4.17    3.41
   1   1  16   -2.10    5.44
  -5  -2  16   49.12    9.35
  -4   2  16   74.51   10.20
  -4  -2  16   78.60   10.89
  -4   2  16   79.26   12.50
  -4  -2  16   73.66   11.72
  -3  -2  16   21.06    8.23
  -3   2  16   11.83    5.29
  -3   2  16   18.43    7.75
  -3  -2  16   16.47    5.86
   2   2 -16   11.33    4.31
  -2   2  16    5.92    4.33
  -2  -2  16    0.06    6.39
  -2   2  16   21.32    7.80
  -2  -2  16    6.09    4.66
  -1  -2  16    9.35    4.93
  -1   2  16    8.06    6.18
  -1  -2  16    1.68    7.13
   1   2 -16    4.32    3.41
   0   2 -16   20.58    5.66
   0  -2  16   25.93    6.42
   0  -2  16   22.28    8.85
   0   2 -16   20.78    5.55
   0  -2 -16   30.25    6.50
   0   2  16   29.60    9.11
   1  -2  16   98.24   10.05
  -1   2 -16  124.57   10.36
   1  -2  16  126.46   16.15
   1   2  16  124.68   15.20
  -1  -2 -16   90.74   10.87
  -1  -2 -16  147.34   12.07
  -1   2 -16  100.01   11.17
  -4   3  16    9.93    5.46
  -4  -3  16   12.31    6.98
  -4   3  16   17.85    7.12
  -4  -3  16    1.20    5.06
  -3  -3  16   93.37   13.42
   3   3 -16   62.15    7.80
  -3   3  16   88.60   13.33
  -3   3  16   87.89    9.91
  -3  -3  16   71.96   10.56
  -2  -3  16   85.41   13.02
  -2  -3  16   86.90   10.60
   2   3 -16   89.13    9.12
  -2   3  16   99.55   13.49
  -1   3  16  103.08   13.82
  -1  -3  16  109.68   14.48
  -1  -3  16   92.10   10.48
   1   3 -16  133.86   10.85
   0   3 -16    3.32    3.84
   0   3  16   -2.24    5.70
   0  -3  16    4.80    4.48
   0  -3  16   -3.81    6.32
   0  -3 -16    2.24    3.93
  -3  -4  16   -3.49    3.74
  -2   4  16   -1.00    4.87
   2   4 -16    4.52    4.04
  -2  -4  16    3.89    4.58
  -2  -4  16   -3.47    6.34
   1   4 -16    6.07    4.32
  -1  -4  16    4.82    4.77
  -4   0  17   -0.92    4.61
  -3   0  17    0.75    5.79
  -3   0  17   -6.01    3.85
  -2   0  17    3.42    4.35
  -2   0  17    6.30    6.41
  -1   0  17   -4.54    6.09
  -1   0  17    0.03    3.93
   1   0 -17    4.99    3.51
   0   0 -17    2.72    3.86
   0   0 -17    4.31    4.94
   0   0  17   -5.48    6.02
  -4   1  17   -1.37    4.60
  -4  -1  17   -2.68    5.01
  -3   1  17   12.92    6.97
  -3  -1  17    7.51    5.53
  -3   1  17   10.57    5.45
  -3  -1  17    2.24    5.99
  -2   1  17   -0.85    3.82
  -2  -1  17    1.05    6.36
  -2  -1  17    1.21    4.37
  -2   1  17    0.35    6.21
  -1   1  17   16.35    7.63
  -1  -1  17    0.28    6.14
   1   1 -17   -0.42    3.84
   1   1 -17    3.24    3.80
  -1  -1  17    4.47    4.71
   0   1 -17   11.67    5.25
   0   1 -17    1.84    4.17
   0  -1 -17    3.82    4.35
   0  -1 -17    8.05    5.38
  -3  -2  17    1.48    6.39
  -3  -2  17    0.64    4.36
  -3   2  17    1.17    4.28
  -3   2  17   -2.15    4.58
  -2  -2  17   32.92    8.04
  -2  -2  17   24.15    9.07
  -2   2  17   15.89    7.48
   2   2 -17   47.26    7.24
  -1   2  17   25.61    8.83
  -1  -2  17   33.36    7.52
   1   2 -17   27.13    6.34
  -1  -2  17   35.63   10.57
   0   0   0    0.00    0.00
;
_shelx_hkl_checksum              55873
loop_
_space_group_symop_operation_xyz
'x, y, z'
'-x, y+1/2, -z+1/2'
'-x, -y, -z'
'x, -y-1/2, z-1/2'
loop_
_atom_site_label
_atom_site_type_symbol
_atom_site_fract_x
_atom_site_fract_y
_atom_site_fract_z
_atom_site_U_iso_or_equiv
_atom_site_adp_type
_atom_site_occupancy
_atom_site_site_symmetry_order
_atom_site_calc_flag
_atom_site_refinement_flags_posn
_atom_site_refinement_flags_adp
CL1 Cl 0.40823(6) 1.20071(5) 0.12853(3) 0.03057(13) Uani 1 1 d . .
F1 F -0.12255(14) 0.86329(17) 0.15922(9) 0.0540(3) Uani 1 1 d . .
F2 F 0.12108(17) 0.85896(18) 0.28507(8) 0.0590(4) Uani 1 1 d . .
N1 N 0.39479(18) 0.81955(17) 0.16421(10) 0.0228(3) Uani 1 1 d . .
H11 H 0.424(3) 0.927(3) 0.1553(13) 0.036(5) Uiso 1 1 d . .
H12 H 0.443(3) 0.790(2) 0.2292(15) 0.033(5) Uiso 1 1 d . .
C1 C 0.4660(2) 0.6981(2) 0.09632(11) 0.0287(4) Uani 1 1 d . .
H1A H 0.536560 0.756989 0.052597 0.034 Uiso 1 1 calc R U
H1B H 0.548634 0.607725 0.132583 0.034 Uiso 1 1 calc R U
C2 C 0.2716(2) 0.6316(2) 0.04152(12) 0.0315(4) Uani 1 1 d . .
H2 H 0.264755 0.545196 -0.011075 0.038 Uiso 1 1 calc R U
C3 C 0.1675(2) 0.6003(2) 0.12558(12) 0.0310(4) Uani 1 1 d . .
H3A H 0.034600 0.553976 0.105143 0.037 Uiso 1 1 calc R U
H3B H 0.245301 0.539381 0.182621 0.037 Uiso 1 1 calc R U
C4 C 0.1792(2) 0.79352(19) 0.13245(11) 0.0237(3) Uani 1 1 d . .
C5 C 0.1509(2) 0.7964(2) 0.02058(11) 0.0304(4) Uani 1 1 d . .
H5A H 0.215963 0.890822 -0.005475 0.037 Uiso 1 1 calc R U
H5B H 0.015450 0.780913 -0.016341 0.037 Uiso 1 1 calc R U
C6 C 0.0684(2) 0.8999(2) 0.18899(12) 0.0337(4) Uani 1 1 d . .
H6 H 0.091937 1.022544 0.179223 0.040 Uiso 1 1 calc R U
loop_
_atom_site_aniso_label
_atom_site_aniso_U_11
_atom_site_aniso_U_22
_atom_site_aniso_U_33
_atom_site_aniso_U_23
_atom_site_aniso_U_13
_atom_site_aniso_U_12
CL1 0.0437(2) 0.0236(2) 0.0224(2) -0.00038(15) 0.00323(16) -0.00412(16)
F1 0.0276(5) 0.0747(9) 0.0612(8) -0.0088(6) 0.0130(5) 0.0062(5)
F2 0.0564(7) 0.0935(10) 0.0295(6) -0.0035(6) 0.0148(5) 0.0327(7)
N1 0.0242(6) 0.0223(7) 0.0212(7) 0.0017(5) 0.0036(5) -0.0014(5)
C1 0.0286(8) 0.0346(9) 0.0253(8) -0.0008(7) 0.0108(6) 0.0027(7)
C2 0.0357(9) 0.0320(9) 0.0277(8) -0.0081(7) 0.0087(7) -0.0018(7)
C3 0.0317(8) 0.0261(9) 0.0364(9) -0.0018(7) 0.0106(7) -0.0064(7)
C4 0.0222(7) 0.0251(8) 0.0235(7) 0.0000(6) 0.0044(6) -0.0012(6)
C5 0.0286(8) 0.0369(10) 0.0235(8) -0.0010(7) 0.0008(6) -0.0015(7)
C6 0.0273(8) 0.0418(10) 0.0322(9) -0.0021(8) 0.0070(7) 0.0060(7)
loop_
_atom_type_symbol
_atom_type_description
_atom_type_scat_dispersion_real
_atom_type_scat_dispersion_imag
_atom_type_scat_source
C C 0.0033 0.0016 'International Tables Vol C Tables 4.2.6.8 and 6.1.1.4'
H H 0.0000 0.0000 'International Tables Vol C Tables 4.2.6.8 and 6.1.1.4'
N N 0.0061 0.0033 'International Tables Vol C Tables 4.2.6.8 and 6.1.1.4'
F F 0.0171 0.0103 'International Tables Vol C Tables 4.2.6.8 and 6.1.1.4'
Cl Cl 0.1484 0.1585 'International Tables Vol C Tables 4.2.6.8 and 6.1.1.4'
loop_
_geom_angle_atom_site_label_1
_geom_angle_atom_site_label_2
_geom_angle_atom_site_label_3
_geom_angle
C4 N1 C1 100.61(11)
C2 C1 N1 98.50(12)
C1 C2 C3 101.66(13)
C1 C2 C5 101.76(13)
C3 C2 C5 86.76(12)
C4 C3 C2 81.91(12)
C6 C4 N1 112.54(12)
C6 C4 C3 124.59(14)
N1 C4 C3 101.09(12)
C6 C4 C5 124.74(13)
N1 C4 C5 101.12(12)
C3 C4 C5 87.57(12)
C4 C5 C2 81.56(11)
F1 C6 F2 106.86(14)
F1 C6 C4 108.78(14)
F2 C6 C4 109.49(14)
loop_
_geom_bond_atom_site_label_1
_geom_bond_atom_site_label_2
_geom_bond_distance
F1 C6 1.3534(19)
F2 C6 1.356(2)
N1 C4 1.5049(19)
N1 C1 1.517(2)
C1 C2 1.513(2)
C2 C3 1.545(2)
C2 C5 1.551(2)
C3 C4 1.534(2)
C4 C6 1.494(2)
C4 C5 1.539(2)
