#------------------------------------------------------------------------------
#$Date: 2019-11-11 20:23:09 +0200 (Mon, 11 Nov 2019) $
#$Revision: 227253 $
#$URL: file:///home/coder/svn-repositories/cod/cif/4/03/58/4035830.cif $
#------------------------------------------------------------------------------
#
# This file is available in the Crystallography Open Database (COD),
# http://www.crystallography.net/
#
# All data on this site have been placed in the public domain by the
# contributors.
#
data_4035830
loop_
_publ_author_name
'Mancuso, Raffaella'
'Pomelli, Christian S.'
'Chiappetta, Piera'
'Gioia, Katia F.'
'Maner, Asif'
'Marino, Nadia'
'Veltri, Lucia'
'Chiappe, Cinzia'
'Gabriele, Bartolo'
_publ_section_title
;
 Divergent Syntheses of ( Z)-3-Alkylideneisobenzofuran-1(3 H)-ones and 1
 H-Isochromen-1-ones by Copper-Catalyzed Cycloisomerization of
 2-Alkynylbenzoic Acids in Ionic Liquids.
;
_journal_issue                   12
_journal_name_full               'The Journal of organic chemistry'
_journal_page_first              6673
_journal_page_last               6680
_journal_paper_doi               10.1021/acs.joc.8b00923
_journal_volume                  83
_journal_year                    2018
_chemical_formula_moiety         'C16 H12 O2'
_chemical_formula_sum            'C16 H12 O2'
_chemical_formula_weight         236.26
_space_group_crystal_system      triclinic
_space_group_IT_number           2
_space_group_name_Hall           '-P 1'
_space_group_name_H-M_alt        'P -1'
_atom_sites_solution_hydrogens   geom
_atom_sites_solution_primary     direct
_atom_sites_solution_secondary   difmap
_audit_creation_method           SHELXL-2013
_cell_angle_alpha                76.343(12)
_cell_angle_beta                 74.733(12)
_cell_angle_gamma                85.060(13)
_cell_formula_units_Z            2
_cell_length_a                   8.0167(16)
_cell_length_b                   8.2980(18)
_cell_length_c                   9.931(2)
_cell_measurement_reflns_used    2226
_cell_measurement_temperature    296(2)
_cell_measurement_theta_max      24.88
_cell_measurement_theta_min      2.53
_cell_volume                     619.1(2)
_computing_cell_refinement       'Bruker SAINT'
_computing_data_collection       'Bruker APEX2'
_computing_data_reduction        'Bruker SAINT'
_computing_molecular_graphics    'Bruker SHELXTL'
_computing_publication_material  'Bruker SHELXTL'
_computing_structure_refinement  'SHELXL-97 (Sheldrick, 2008)'
_computing_structure_solution    'SHELXS-97 (Sheldrick, 2008)'
_diffrn_ambient_temperature      296(2)
_diffrn_measured_fraction_theta_full 0.944
_diffrn_measured_fraction_theta_max 0.943
_diffrn_measurement_device_type  'Bruker APEX-II CCD'
_diffrn_measurement_method       '\f and \w scans'
_diffrn_radiation_type           MoK\a
_diffrn_radiation_wavelength     0.71073
_diffrn_reflns_av_R_equivalents  0.0475
_diffrn_reflns_av_unetI/netI     0.0507
_diffrn_reflns_Laue_measured_fraction_full 0.944
_diffrn_reflns_Laue_measured_fraction_max 0.943
_diffrn_reflns_limit_h_max       9
_diffrn_reflns_limit_h_min       -9
_diffrn_reflns_limit_k_max       9
_diffrn_reflns_limit_k_min       -9
_diffrn_reflns_limit_l_max       11
_diffrn_reflns_limit_l_min       -11
_diffrn_reflns_number            6194
_diffrn_reflns_point_group_measured_fraction_full 0.944
_diffrn_reflns_point_group_measured_fraction_max 0.943
_diffrn_reflns_theta_full        25.242
_diffrn_reflns_theta_max         25.259
_diffrn_reflns_theta_min         2.180
_exptl_absorpt_coefficient_mu    0.083
_exptl_absorpt_correction_T_max  0.7452
_exptl_absorpt_correction_T_min  0.5882
_exptl_absorpt_correction_type   multi-scan
_exptl_absorpt_process_details   SADABS
_exptl_crystal_colour            COLOURLESS
_exptl_crystal_density_diffrn    1.267
_exptl_crystal_description       CUBIC
_exptl_crystal_F_000             248
_exptl_crystal_size_max          0.100
_exptl_crystal_size_mid          0.080
_exptl_crystal_size_min          0.080
_refine_diff_density_max         0.223
_refine_diff_density_min         -0.290
_refine_diff_density_rms         0.060
_refine_ls_extinction_method     none
_refine_ls_goodness_of_fit_ref   1.027
_refine_ls_hydrogen_treatment    constr
_refine_ls_matrix_type           full
_refine_ls_number_parameters     163
_refine_ls_number_reflns         2118
_refine_ls_number_restraints     0
_refine_ls_restrained_S_all      1.027
_refine_ls_R_factor_all          0.0897
_refine_ls_R_factor_gt           0.0645
_refine_ls_shift/su_max          0.000
_refine_ls_shift/su_mean         0.000
_refine_ls_structure_factor_coef Fsqd
_refine_ls_weighting_details
'w=1/[\s^2^(Fo^2^)+(0.1331P)^2^+0.0391P] where P=(Fo^2^+2Fc^2^)/3'
_refine_ls_weighting_scheme      calc
_refine_ls_wR_factor_gt          0.1859
_refine_ls_wR_factor_ref         0.2072
_reflns_Friedel_coverage         0.000
_reflns_number_gt                1474
_reflns_number_total             2118
_reflns_threshold_expression     'I > 2\s(I)'
_cod_data_source_file            jo8b00923_si_004.cif
_cod_data_source_block           BG_15_0m
_cod_depositor_comments
;
The following automatic conversions were performed:

data item '_atom_sites_solution_primary' value 'DIRECT' was changed
to 'direct' in accordance with the
/home/data/users/saulius/crontab/automatic-downloads/current/ACS/lib/dictionaries/cif_core.dic
dictionary named 'cif_core.dic' version 2.4.2 last updated on
2011-04-26.

data item '_exptl_absorpt_correction_type' value 'MULTI-SCAN' was
changed to 'multi-scan' in accordance with the
/home/data/users/saulius/crontab/automatic-downloads/current/ACS/lib/dictionaries/cif_core.dic
dictionary named 'cif_core.dic' version 2.4.2 last updated on
2011-04-26.

data item '_atom_sites_solution_secondary' value 'DIFFMAP' was
changed to 'difmap'.

Automatic conversion script
Id: cif_fix_values 6909 2019-04-08 15:41:33Z antanas 
;
_cod_database_code               4035830
_shelx_space_group_comment
;
The symmetry employed for this shelxl refinement is uniquely defined
by the following loop, which should always be used as a source of
symmetry information in preference to the above space-group names.
They are only intended as comments.
;
_shelx_estimated_absorpt_t_min   0.992
_shelx_estimated_absorpt_t_max   0.993
_shelxl_version_number           2013-4
_shelx_res_file
;
TITL BG_15_0m in P-1
CELL 0.71073   8.0167   8.2980   9.9309  76.343  74.733  85.060
ZERR    2.00   0.0016   0.0018   0.0020   0.012   0.012   0.013
LATT 1
SFAC C  H  O
UNIT 32  24  4
TEMP 23.000
SIZE 0.10 0.08 0.08

L.S. 20

acta

BOND
FMAP 2
PLAN 20

WGHT    0.133100    0.039100
FVAR       0.25422
O1    3    0.228482    1.305359    0.571941    11.00000    0.07392    0.06727 =
         0.09300    0.01295   -0.03181   -0.01924
O2    3    0.162104    1.066433    0.740914    11.00000    0.04514    0.04911 =
         0.05884   -0.00636   -0.01987    0.00079
C1    1    0.126187    1.195354    0.631356    11.00000    0.05598    0.04757 =
         0.05757   -0.00860   -0.01968    0.00452
C2    1   -0.042861    1.163292    0.610520    11.00000    0.04576    0.04598 =
         0.04789   -0.01588   -0.01457    0.01215
C3    1   -0.137620    1.255988    0.517280    11.00000    0.06651    0.05613 =
         0.05719   -0.00784   -0.02426    0.01636
AFIX  43
H3A   2   -0.096028    1.354515    0.454526    11.00000   -1.20000
AFIX   0
C4    1   -0.295281    1.196109    0.521603    11.00000    0.06309    0.08238 =
         0.05866   -0.01893   -0.03381    0.02568
AFIX  43
H4A   2   -0.360192    1.254217    0.459825    11.00000   -1.20000
AFIX   0
C5    1   -0.358212    1.048690    0.618184    11.00000    0.04609    0.08850 =
         0.06343   -0.02552   -0.02493    0.00824
AFIX  43
H5A   2   -0.465140    1.011591    0.619943    11.00000   -1.20000
AFIX   0
C6    1   -0.264329    0.956236    0.711763    11.00000    0.04419    0.06554 =
         0.05378   -0.01597   -0.01701    0.00599
AFIX  43
H6A   2   -0.306092    0.857673    0.774358    11.00000   -1.20000
AFIX   0
C7    1   -0.104887    1.017095    0.708132    11.00000    0.03903    0.04891 =
         0.04346   -0.01863   -0.01254    0.01202
C8    1    0.023502    0.955718    0.792754    11.00000    0.03489    0.04574 =
         0.04677   -0.01490   -0.01221    0.00575
C9    1    0.018748    0.823591    0.901617    11.00000    0.04253    0.04561 =
         0.05058   -0.01464   -0.01469    0.00546
AFIX  43
H9A   2   -0.081262    0.762538    0.927900    11.00000   -1.20000
AFIX   0
C10   1    0.145694    0.758435    0.987050    11.00000    0.04379    0.04057 =
         0.04470   -0.01749   -0.01418    0.00921
C11   1    0.307341    0.829884    0.966098    11.00000    0.04892    0.04921 =
         0.05401   -0.00673   -0.01902    0.00289
AFIX  43
H11A  2    0.337536    0.926675    0.896469    11.00000   -1.20000
AFIX   0
C12   1    0.422131    0.756714    1.048799    11.00000    0.04579    0.06399 =
         0.05872   -0.01491   -0.02106    0.00333
AFIX  43
H12A  2    0.527197    0.806674    1.032736    11.00000   -1.20000
AFIX   0
C13   1    0.384386    0.611104    1.154749    11.00000    0.05254    0.05439 =
         0.05000   -0.01976   -0.02012    0.01931
C14   1    0.223225    0.542704    1.177129    11.00000    0.06791    0.04702 =
         0.05208   -0.00658   -0.02017    0.00715
AFIX  43
H14A  2    0.193218    0.446666    1.247731    11.00000   -1.20000
AFIX   0
C15   1    0.106325    0.614144    1.096819    11.00000    0.05216    0.04933 =
         0.05294   -0.01084   -0.01676    0.00111
AFIX  43
H15A  2   -0.000165    0.565559    1.116034    11.00000   -1.20000
AFIX   0
C16   1    0.514854    0.530655    1.239403    11.00000    0.07064    0.08142 =
         0.06858   -0.01999   -0.03577    0.02927
AFIX  33
H16A  2    0.467526    0.431745    1.306198    11.00000   -1.50000
H16B  2    0.539688    0.606733    1.290488    11.00000   -1.50000
H16C  2    0.619504    0.502829    1.174832    11.00000   -1.50000

AFIX   0
HKLF 4

REM  BG_15_0m in P-1
REM R1 =  0.0645 for    1474 Fo > 4sig(Fo)  and  0.0897 for all    2118 data
REM    163 parameters refined using      0 restraints

END

WGHT      0.1331      0.0391

REM Highest difference peak  0.223,  deepest hole -0.290,  1-sigma level  0.060
Q1    1   0.3142  1.3521  0.4331  11.00000  0.05    0.22
Q2    1   0.4505  0.5054  1.3497  11.00000  0.05    0.21
Q3    1   0.5899  0.8669  0.9670  11.00000  0.05    0.17
Q4    1  -0.4466  0.9147  0.5970  11.00000  0.05    0.17
Q5    1   0.0961  1.0275  0.8595  11.00000  0.05    0.17
Q6    1   0.5265  0.8520  1.0617  11.00000  0.05    0.17
Q7    1   0.5639  0.3799  1.2084  11.00000  0.05    0.17
Q8    1   0.0591  1.1149  0.8780  11.00000  0.05    0.16
Q9    1   0.0870  0.7179  1.0826  11.00000  0.05    0.15
Q10   1   0.0379  0.9684  0.9687  11.00000  0.05    0.15
Q11   1   0.6005  0.6448  1.2428  11.00000  0.05    0.15
Q12   1   0.3534  0.7269  1.1569  11.00000  0.05    0.15
Q13   1   0.2551  1.1517  0.5748  11.00000  0.05    0.15
Q14   1   0.3358  1.2371  0.4212  11.00000  0.05    0.15
Q15   1  -0.3424  0.9193  0.8443  11.00000  0.05    0.15
Q16   1   0.0523  1.0198  0.9148  11.00000  0.05    0.14
Q17   1   0.5756  0.9250  1.0786  11.00000  0.05    0.14
Q18   1  -0.4740  0.8662  0.8463  11.00000  0.05    0.14
Q19   1  -0.1727  1.3166  0.2785  11.00000  0.05    0.14
Q20   1  -0.0645  0.5646  1.1252  11.00000  0.05    0.14
;
_shelx_res_checksum              13005
_shelx_hkl_file
;
   1   0   0   74.38    4.25
   1   0   0   71.54    5.13
  -2   0   0    2.12    0.15
   2   0   0    2.42    0.15
   2   0   0    2.06    0.23
  -3   0   0    1.80    0.15
   3   0   0    2.08    0.14
  -5   0   0    0.04    0.14
  -5   0   0    0.19    0.07
  -6   0   0    0.40    0.22
  -6   0   0    0.79    0.11
   6   0   0    0.82    0.14
  -7   0   0    2.55    0.22
   7   0   0    2.17    0.29
  -8   0   0    1.53    0.17
  -8   0   0    0.86    0.34
   8   0   0    1.90    0.26
   8   0   0    1.72    0.21
  -9   0   0   -0.16    0.34
   9   0   0    0.14    0.14
   9   0   0    0.08    0.12
   9  -1   0    0.25    0.15
  -8   1   0    1.41    0.16
  -8   1   0    0.85    0.35
  -7   1   0    1.12    0.18
  -7   1   0    0.90    0.41
  -6   1   0    2.81    0.24
   5  -1   0    0.16    0.05
  -5   1   0    0.09    0.15
  -5   1   0    0.15    0.07
   4  -1   0   15.13    0.88
   4  -1   0   17.39    0.96
  -4   1   0   14.59    0.96
   3  -1   0    2.18    0.17
  -3   1   0    2.03    0.17
   2  -1   0    2.86    0.18
   2  -1   0    2.31    0.19
  -2   1   0    2.13    0.17
   1  -1   0    1.47    0.11
   1  -1   0    1.55    0.11
  -1   1   0    1.41    0.11
  -1   1   0    1.31    0.11
  -1   1   0    1.31    0.12
   0  -1   0   74.69    4.64
   0  -1   0   69.06    3.65
   0   1   0   70.07    4.48
   0   1   0   71.07    4.64
  -1  -1   0  181.80   11.62
  -1  -1   0  190.71    8.45
  -1  -1   0  177.17    9.33
  -1  -1   0  172.95    9.46
  -1  -1   0  168.62   12.57
   1   1   0  179.45    8.46
   1   1   0  176.11    9.35
   1   1   0  171.28    9.47
   1   1   0  190.30   12.56
  -2  -1   0    8.38    0.46
  -2  -1   0    7.61    0.46
   2   1   0    7.69    0.45
   2   1   0    8.31    0.41
   2   1   0    9.06    0.63
   2   1   0    8.56    0.46
  -3  -1   0   91.21    4.94
  -3  -1   0  100.51    5.43
   3   1   0   93.18    4.41
   3   1   0   93.54    4.88
   3   1   0   87.86    4.94
  -4  -1   0    4.46    0.28
   4   1   0    4.08    0.25
   4   1   0    4.27    0.26
   4   1   0    4.19    0.28
  -5  -1   0    0.95    0.12
   5   1   0    0.98    0.11
   5   1   0    1.10    0.14
  -6  -1   0    1.30    0.15
   6   1   0    1.41    0.18
   6   1   0    1.46    0.14
  -7  -1   0    4.35    0.31
   7   1   0    4.35    0.29
   7   1   0    3.84    0.34
  -8  -1   0    0.66    0.31
   8   1   0    0.86    0.19
   8   1   0    1.08    0.16
  -9  -1   0    0.25    0.35
   9   1   0    0.01    0.14
   9   1   0    0.01    0.11
  -8   2   0    0.25    0.10
   7  -2   0   14.10    0.84
  -7   2   0   14.61    0.94
   6  -2   0    0.59    0.10
  -6   2   0    0.80    0.15
   5  -2   0    4.44    0.30
  -5   2   0    4.57    0.34
  -4   2   0    3.52    0.28
  -3   2   0    1.77    0.17
   2  -2   0   26.28    1.44
   2  -2   0   29.10    1.63
  -2   2   0   29.70    1.64
  -2   2   0   24.81    1.76
   1  -2   0    3.85    0.23
   1  -2   0    3.12    0.24
   1  -2   0    3.10    0.20
  -1   2   0    3.10    0.20
  -1   2   0    2.97    0.24
   0  -2   0    0.92    0.11
   0  -2   0    0.97    0.11
   0  -2   0    0.95    0.11
   0   2   0    0.87    0.11
   0   2   0    0.94    0.11
  -1  -2   0    8.21    0.42
  -1  -2   0    7.10    0.50
  -1  -2   0    7.22    0.41
  -1  -2   0    7.23    0.37
   1   2   0    7.34    0.37
   1   2   0    7.10    0.41
   1   2   0    7.41    0.51
  -2  -2   0    4.04    0.26
  -2  -2   0    4.22    0.26
  -2  -2   0    3.57    0.26
  -2  -2   0    4.47    0.23
  -2  -2   0    4.60    0.32
   2   2   0    4.59    0.35
   2   2   0    4.20    0.26
   2   2   0    4.43    0.23
   2   2   0    4.46    0.26
  -3  -2   0    2.06    0.16
   3   2   0    2.46    0.18
   3   2   0    2.54    0.17
   3   2   0    2.46    0.15
   4   2   0   16.22    0.95
   4   2   0   17.77    0.86
   4   2   0   17.67    0.95
  -5  -2   0    4.50    0.31
   5   2   0    4.50    0.30
   5   2   0    5.07    0.32
   5   2   0    4.97    0.28
  -6  -2   0    2.08    0.19
   6   2   0    2.34    0.18
   6   2   0    2.65    0.22
   6   2   0    1.93    0.17
  -7  -2   0    0.04    0.08
  -7  -2   0    0.71    0.35
   7   2   0   -0.07    0.11
   7   2   0   -0.09    0.08
  -8  -2   0    0.20    0.27
   8   2   0    0.43    0.16
   8   2   0    0.20    0.12
  -9  -2   0    0.15    0.35
   9   2   0    0.02    0.13
   9   2   0    0.08    0.12
   7  -3   0    0.09    0.08
  -7   3   0    0.29    0.11
   6  -3   0   14.01    0.85
  -6   3   0   15.02    0.95
  -5   3   0    0.03    0.08
  -4   3   0   28.24    1.72
  -3   3   0    5.48    0.37
  -3   3   0    4.85    0.39
   2  -3   0    0.33    0.07
  -2   3   0    0.30    0.07
   1  -3   0    4.01    0.27
   1  -3   0    4.82    0.31
  -1   3   0    4.51    0.34
  -1   3   0    3.98    0.32
   0  -3   0    2.15    0.17
   0  -3   0    2.01    0.16
   0  -3   0    1.88    0.19
   0   3   0    1.82    0.18
   0   3   0    2.04    0.18
  -1  -3   0    0.74    0.11
  -1  -3   0    0.59    0.06
   1   3   0    0.84    0.08
   1   3   0    0.66    0.10
   1   3   0    0.82    0.09
   1   3   0    0.54    0.08
  -2  -3   0   11.43    0.69
  -2  -3   0   12.89    0.82
   2   3   0   12.08    0.82
   2   3   0   11.83    0.66
   2   3   0   11.69    0.59
  -3  -3   0    1.31    0.11
   3   3   0    1.58    0.14
   3   3   0    1.56    0.12
  -4  -3   0   -0.07    0.12
   4   3   0    0.17    0.07
   4   3   0    0.34    0.06
   4   3   0    0.40    0.09
   5   3   0    2.96    0.20
   5   3   0    2.89    0.23
   5   3   0    2.56    0.21
  -6  -3   0    0.38    0.23
  -6  -3   0    0.24    0.08
   6   3   0    0.15    0.10
   6   3   0    0.23    0.08
   6   3   0    0.07    0.08
   7   3   0    2.03    0.19
   7   3   0    1.81    0.20
   7   3   0    1.66    0.18
  -8  -3   0    0.27    0.27
   8   3   0    0.21    0.12
   8   3   0    0.36    0.13
   8   3   0    0.30    0.10
   7  -4   0    1.83    0.21
   3  -4   0   42.44    2.21
  -3   4   0   41.15    2.70
   2  -4   0   -0.01    0.05
  -2   4   0    0.05    0.08
  -2   4   0   -0.04    0.05
   1  -4   0   33.58    1.74
  -1   4   0   33.42    2.20
  -1   4   0   31.82    2.13
   0  -4   0   18.89    1.00
   0   4   0   18.72    1.25
   0   4   0   17.59    1.21
   1   4   0   32.45    2.04
   1   4   0   30.93    2.11
   2   4   0    2.13    0.21
   2   4   0    2.15    0.18
   2   4   0    2.01    0.15
   2   4   0    2.22    0.20
   3   4   0    0.79    0.09
   3   4   0    0.67    0.10
   4   4   0    0.23    0.07
   4   4   0    0.37    0.09
   5   4   0    1.62    0.15
   5   4   0    1.62    0.18
  -6  -4   0   -0.01    0.18
   6   4   0    0.18    0.09
   6   4   0    0.26    0.10
  -7  -4   0    0.23    0.23
   7   4   0   -0.06    0.09
   7   4   0    0.10    0.09
  -8  -4   0    0.21    0.29
   8   4   0    0.10    0.09
   8   4   0   -0.06    0.11
   7  -5   0    1.94    0.23
  -4   5   0    0.08    0.10
   3  -5   0    1.02    0.14
  -3   5   0    1.00    0.17
   2  -5   0    1.95    0.21
  -2   5   0    1.93    0.23
  -2   5   0    2.31    0.24
   1  -5   0    1.27    0.15
  -1   5   0    1.34    0.19
  -1   5   0    1.40    0.18
   0  -5   0   15.34    0.85
   0   5   0   14.63    1.06
   0   5   0   15.71    1.03
   1   5   0    3.65    0.32
   1   5   0    4.16    0.33
   2   5   0    3.15    0.24
   2   5   0    3.16    0.27
   2   5   0    3.26    0.29
   3   5   0    7.26    0.39
   3   5   0    7.08    0.51
   3   5   0    6.80    0.44
   4   5   0    6.23    0.42
   4   5   0    6.65    0.38
   4   5   0    7.22    0.50
   5   5   0    2.70    0.20
   5   5   0    2.31    0.22
  -6  -5   0    0.03    0.20
   6   5   0    0.01    0.07
   6   5   0    0.01    0.10
  -7  -5   0    0.22    0.24
   7   5   0   -0.02    0.07
   7   5   0   -0.09    0.10
   8   5   0   -0.06    0.11
   8   5   0    0.00    0.09
   4  -6   0    1.20    0.18
  -4   6   0    1.69    0.29
  -4   6   0    1.16    0.22
   3  -6   0    0.17    0.10
  -3   6   0    0.38    0.13
  -3   6   0    0.34    0.17
   2  -6   0    3.66    0.29
  -2   6   0    3.49    0.33
  -2   6   0    3.36    0.34
   1  -6   0   -0.08    0.07
  -1   6   0    0.03    0.09
  -1   6   0    0.00    0.08
   0  -6   0   -0.01    0.08
   0   6   0   -0.03    0.08
   0   6   0    0.00    0.07
  -1  -6   0    1.66    0.20
   1   6   0    1.89    0.22
   1   6   0    1.98    0.22
   2   6   0    0.09    0.10
   2   6   0    0.09    0.10
   3   6   0    9.43    0.51
   3   6   0    9.25    0.57
   3   6   0    8.76    0.70
   3   6   0    9.46    0.66
   4   6   0    7.33    0.53
   4   6   0    6.35    0.45
   4   6   0    6.86    0.41
   5   6   0    0.14    0.08
   5   6   0    0.04    0.09
   5   6   0    0.01    0.10
   6   6   0    0.02    0.08
   6   6   0    0.11    0.11
  -7  -6   0    0.09    0.25
   7   6   0    0.12    0.09
   7   6   0   -0.01    0.10
  -5   7   0    1.63    0.33
   4  -7   0    1.53    0.22
  -4   7   0    1.76    0.28
  -4   7   0    1.87    0.33
   3  -7   0    1.45    0.20
  -3   7   0    1.75    0.26
  -3   7   0    1.70    0.26
   2  -7   0    0.78    0.15
  -2   7   0    0.94    0.21
  -2   7   0    0.71    0.17
   1  -7   0    0.96    0.15
  -1   7   0    1.04    0.20
  -1   7   0    0.93    0.18
   0  -7   0    0.46    0.12
   0   7   0    0.46    0.15
   0   7   0    0.67    0.15
  -1  -7   0    0.68    0.13
   1   7   0    0.91    0.19
   1   7   0    0.74    0.16
  -2  -7   0    0.47    0.12
   2   7   0    0.54    0.17
   2   7   0    0.41    0.14
   3   7   0   -0.21    0.10
   3   7   0    0.19    0.13
   4   7   0    5.06    0.33
   4   7   0    5.16    0.42
   4   7   0    4.60    0.36
   5   7   0    0.19    0.10
   5   7   0    0.27    0.11
   5   7   0    0.35    0.13
   6   7   0    0.11    0.10
   6   7   0    0.12    0.12
   4  -8   0    5.12    0.43
  -4   8   0    4.85    0.51
  -4   8   0    5.53    0.51
   3  -8   0    5.32    0.42
  -3   8   0    4.96    0.49
  -3   8   0    5.04    0.49
   2  -8   0   -0.13    0.12
  -2   8   0    0.12    0.12
  -2   8   0   -0.09    0.12
   1  -8   0    0.44    0.14
  -1   8   0    0.86    0.20
  -1   8   0    0.86    0.18
   0  -8   0    0.58    0.15
   0   8   0    0.70    0.18
   0   8   0    0.90    0.20
  -1  -8   0    0.13    0.12
   1   8   0    0.11    0.14
   1   8   0    0.03    0.12
  -2  -8   0    0.91    0.17
   2   8   0    1.02    0.23
   2   8   0    0.98    0.20
   3   8   0    0.31    0.17
   3   8   0    0.33    0.13
   4   8   0    0.19    0.12
   5   8   0    0.32    0.15
   3  -9   0    2.53    0.31
  -2   9   0    2.52    0.33
  -2   9   0    2.31    0.31
   1  -9   0    2.38    0.27
  -1   9   0    2.75    0.33
  -1   9   0    2.45    0.31
   0  -9   0    1.35    0.20
   0   9   0    1.56    0.28
   0   9   0    1.78    0.27
  -1  -9   0    0.17    0.12
   1   9   0    0.28    0.14
   1   9   0    0.18    0.15
  -2  -9   0    0.23    0.13
   2   9   0    0.43    0.16
   2   9   0    0.68    0.21
  -3  -9   0   -0.01    0.12
   3   9   0    0.13    0.13
   3   9   0    0.00    0.14
   2   9  -1    0.03    0.12
   2   9  -1   -0.12    0.14
  -2  -9   1    0.06    0.13
   1   9  -1   -0.01    0.12
   1   9  -1    0.05    0.13
  -1  -9   1    0.11    0.13
   0   9  -1    0.05    0.12
   0   9  -1    0.03    0.13
   0  -9   1   -0.11    0.12
  -1   9  -1    0.12    0.14
  -1   9  -1    0.06    0.13
   1  -9   1    0.03    0.12
  -2   9  -1    0.19    0.17
  -2   9  -1    0.15    0.15
   2  -9   1    0.20    0.14
   3   8  -1    0.11    0.12
   2   8  -1    0.26    0.13
   2   8  -1   -0.02    0.12
  -2  -8   1    0.09    0.11
   1   8  -1    0.43    0.15
   1   8  -1    0.49    0.16
  -1  -8   1    0.36    0.14
   0   8  -1    1.76    0.26
   0   8  -1    1.42    0.22
   0  -8   1    1.11    0.18
  -1   8  -1    1.06    0.21
  -1   8  -1    0.94    0.20
   1  -8   1    0.74    0.17
  -2   8  -1    0.49    0.18
  -2   8  -1    0.56    0.18
   2  -8   1    0.52    0.15
  -3   8  -1    1.30    0.25
  -3   8  -1    1.11    0.25
   3  -8   1    1.34    0.21
  -4   8  -1   -0.05    0.14
   4  -8   1    0.01    0.14
   6   7  -1    0.12    0.10
   6   7  -1    0.15    0.14
   5   7  -1   -0.12    0.08
   5   7  -1    0.05    0.12
   4   7  -1   -0.03    0.08
   4   7  -1    0.13    0.10
   4   7  -1    0.01    0.11
   3   7  -1    0.48    0.14
   2   7  -1    3.30    0.33
   2   7  -1    3.20    0.33
   1   7  -1    0.35    0.14
   1   7  -1    0.27    0.13
  -1  -7   1    0.29    0.12
   0   7  -1    0.27    0.12
   0   7  -1    0.25    0.12
   0  -7   1    0.18    0.11
  -1   7  -1    1.60    0.23
  -1   7  -1    1.25    0.19
   1  -7   1    0.91    0.16
  -2   7  -1    2.94    0.32
  -2   7  -1    2.63    0.31
   2  -7   1    2.49    0.28
  -3   7  -1    4.89    0.47
  -3   7  -1    5.31    0.47
   3  -7   1    5.15    0.41
  -4   7  -1    0.01    0.15
   4  -7   1    0.08    0.14
  -5   7  -1    0.27    0.19
  -6   7  -1   -0.04    0.17
   7   6  -1   -0.03    0.11
   6   6  -1   -0.07    0.07
   6   6  -1    0.06    0.11
  -6  -6   1    0.21    0.21
   5   6  -1    0.17    0.08
   5   6  -1    0.10    0.11
   4   6  -1    8.70    0.48
   4   6  -1    8.21    0.54
   3   6  -1    9.61    0.68
   3   6  -1    8.70    0.57
   3   6  -1    9.52    0.51
   2   6  -1    1.77    0.24
   2   6  -1    1.93    0.23
   1   6  -1    0.13    0.10
   1   6  -1    0.07    0.09
  -1  -6   1    0.07    0.09
   0   6  -1    1.10    0.17
   0   6  -1    1.06    0.18
   0  -6   1    0.82    0.14
  -1   6  -1    0.08    0.09
  -1   6  -1    0.10    0.10
   1  -6   1    0.12    0.08
  -2   6  -1    5.30    0.43
  -2   6  -1    5.10    0.44
   2  -6   1    4.92    0.37
  -3   6  -1    0.43    0.15
  -3   6  -1    0.31    0.14
   3  -6   1    0.29    0.12
  -4   6  -1   13.66    1.00
   4  -6   1   12.69    0.79
   7  -6   1    0.00    0.14
   7   5  -1   -0.09    0.10
   7   5  -1    0.06    0.08
  -7  -5   1    0.13    0.23
   6   5  -1    0.25    0.11
   6   5  -1    0.18    0.09
   5   5  -1    0.74    0.12
   5   5  -1    1.01    0.16
   4   5  -1    0.08    0.08
   4   5  -1   -0.08    0.09
   3   5  -1    4.45    0.31
   3   5  -1    4.36    0.35
   3   5  -1    4.31    0.27
   2   5  -1    1.24    0.12
   2   5  -1    0.87    0.12
   2   5  -1    0.89    0.15
   2   5  -1    0.99    0.14
   1   5  -1    5.56    0.41
   1   5  -1    5.15    0.42
   0   5  -1    0.43    0.11
   0   5  -1    0.42    0.10
   0  -5   1    0.39    0.10
  -1   5  -1    0.09    0.08
  -1   5  -1    0.22    0.10
   1  -5   1    0.07    0.07
  -2   5  -1    0.06    0.09
  -2   5  -1    0.03    0.08
   2  -5   1    0.05    0.07
  -3   5  -1    1.52    0.22
  -3   5  -1    1.65    0.21
   3  -5   1    1.07    0.15
   4  -5   1    3.36    0.28
   7  -5   1    0.21    0.13
   8   4  -1    0.02    0.09
   8   4  -1   -0.03    0.10
   8   4  -1    0.05    0.12
  -8  -4   1    0.13    0.25
   7   4  -1   -0.01    0.09
   7   4  -1   -0.05    0.10
   7   4  -1    0.09    0.09
  -7  -4   1    0.07    0.20
   6   4  -1    0.28    0.09
   6   4  -1    0.35    0.11
   6   4  -1    0.17    0.09
  -6  -4   1    0.04    0.20
   5   4  -1    2.53    0.23
   5   4  -1    2.75    0.23
   5   4  -1    2.76    0.21
   4   4  -1    1.71    0.18
   4   4  -1    1.62    0.14
   4   4  -1    1.47    0.16
   3   4  -1    2.50    0.20
   3   4  -1    2.50    0.17
  -3  -4   1    2.23    0.29
   2   4  -1    7.05    0.38
   2   4  -1    7.23    0.44
   2   4  -1    7.11    0.54
   2   4  -1    7.89    0.51
   1   4  -1   -0.01    0.05
   1   4  -1    0.00    0.05
   1   4  -1    0.05    0.06
   0   4  -1    0.39    0.09
   0   4  -1    0.28    0.08
   0  -4   1    0.31    0.07
  -1   4  -1    0.82    0.13
  -1   4  -1    0.95    0.14
   1  -4   1    0.83    0.10
  -2   4  -1    3.47    0.31
  -2   4  -1    3.64    0.31
   2  -4   1    3.65    0.26
  -3   4  -1    9.54    0.72
  -3   4  -1   10.74    0.68
   3  -4   1   10.33    0.61
  -4   4  -1    9.95    0.67
  -5   4  -1    0.89    0.18
  -6   4  -1    0.21    0.12
   6  -4   1    0.25    0.11
  -7   4  -1    0.11    0.10
   7  -4   1    0.07    0.09
   8   3  -1    0.11    0.10
   8   3  -1    0.02    0.10
   8   3  -1    0.11    0.12
  -8  -3   1    0.29    0.27
   7   3  -1    0.16    0.09
   7   3  -1    0.25    0.10
   7   3  -1    0.10    0.11
  -7  -3   1    0.19    0.21
   6   3  -1    4.44    0.33
   6   3  -1    4.34    0.31
   6   3  -1    4.81    0.29
   5   3  -1    2.23    0.20
   5   3  -1    2.18    0.18
   5   3  -1    2.44    0.18
  -5  -3   1    1.83    0.15
   4   3  -1    5.99    0.39
   4   3  -1    6.61    0.40
   4   3  -1    6.31    0.35
   3   3  -1   11.84    0.64
   3   3  -1   11.64    0.57
   3   3  -1   11.02    0.63
  -3  -3   1   11.26    0.87
  -3  -3   1   10.01    0.64
   2   3  -1    5.37    0.29
   2   3  -1    5.65    0.34
   2   3  -1    5.14    0.33
  -2  -3   1    5.63    0.40
   1   3  -1    3.13    0.18
   1   3  -1    2.87    0.21
   1   3  -1    3.02    0.24
   1   3  -1    3.27    0.24
  -1  -3   1    3.11    0.25
  -1  -3   1    3.19    0.18
  -1  -3   1    2.90    0.22
   0   3  -1   40.70    2.50
   0   3  -1   39.72    2.57
   0  -3   1   36.61    2.31
   0  -3   1   41.34    2.04
   0  -3   1   40.11    2.58
   0  -3   1   37.65    2.49
   0  -3   1   37.80    1.86
  -1   3  -1    0.12    0.06
  -1   3  -1    0.22    0.08
   1  -3   1    0.05    0.05
  -2   3  -1    4.07    0.29
  -2   3  -1    3.45    0.30
   2  -3   1    3.55    0.25
  -3   3  -1    0.18    0.09
   3  -3   1    0.15    0.06
  -4   3  -1    1.39    0.17
  -5   3  -1    0.04    0.08
   5  -3   1   -0.02    0.07
  -6   3  -1    0.43    0.13
   6  -3   1    0.30    0.10
  -7   3  -1    4.45    0.54
  -7   3  -1    6.89    0.47
   7  -3   1    5.78    0.40
  -8   3  -1    0.23    0.09
   8   2  -1    0.03    0.10
   8   2  -1    0.02    0.13
  -8  -2   1    0.40    0.27
   7   2  -1    1.79    0.18
   7   2  -1    2.44    0.25
   7   2  -1    2.14    0.19
   6   2  -1    3.27    0.25
   6   2  -1    4.15    0.29
   6   2  -1    3.89    0.25
  -6  -2   1    3.22    0.25
   5   2  -1   -0.02    0.07
   5   2  -1   -0.01    0.06
   5   2  -1    0.09    0.07
  -5  -2   1    0.02    0.05
  -5  -2   1   -0.04    0.13
   4   2  -1   17.22    0.94
   4   2  -1   17.84    0.84
   4   2  -1   18.33    0.94
  -4  -2   1   14.54    1.00
   3   2  -1    0.09    0.05
   3   2  -1   -0.02    0.04
   3   2  -1    0.16    0.05
  -3  -2   1    0.26    0.15
   2   2  -1    4.23    0.23
   2   2  -1    4.33    0.27
   2   2  -1    4.12    0.26
  -2  -2   1    4.26    0.23
  -2  -2   1    4.11    0.35
  -2  -2   1    4.43    0.32
   1   2  -1   10.06    0.51
   1   2  -1    8.18    0.50
   1   2  -1    9.08    0.62
   1   2  -1    8.37    0.44
  -1  -2   1    9.03    0.50
  -1  -2   1    8.78    0.62
  -1  -2   1    9.61    0.45
  -1  -2   1    9.68    0.54
   0   2  -1   16.83    1.13
   0   2  -1   17.01    1.10
   0  -2   1   19.74    0.92
   0  -2   1   16.61    0.91
   0  -2   1   15.56    1.02
   0  -2   1   16.11    0.82
   0  -2   1   18.00    1.13
   0  -2   1   16.64    1.09
  -1   2  -1    0.08    0.05
  -1   2  -1    0.21    0.06
  -1   2  -1    0.19    0.06
  -1   2  -1    0.17    0.05
   1  -2   1    0.21    0.05
   1  -2   1    0.20    0.05
   1  -2   1    0.14    0.04
  -2   2  -1   16.28    0.96
   2  -2   1   14.74    0.84
   2  -2   1   16.09    0.96
  -3   2  -1   18.90    1.15
  -4   2  -1    8.58    0.53
   4  -2   1    7.35    0.48
  -5   2  -1    0.20    0.19
  -5   2  -1    0.36    0.10
   5  -2   1    0.38    0.08
  -6   2  -1    0.09    0.08
   6  -2   1   -0.01    0.06
  -7   2  -1    0.46    0.13
   7  -2   1    0.21    0.09
  -8   2  -1    2.13    0.22
  -8   2  -1    1.88    0.39
  -9   2  -1    0.07    0.07
   8   1  -1    0.91    0.20
   8   1  -1    0.96    0.16
  -8  -1   1    0.18    0.27
   7   1  -1    0.18    0.09
   7   1  -1    0.21    0.13
   7   1  -1    0.42    0.10
  -7  -1   1    0.41    0.27
  -7  -1   1    0.33    0.10
   6   1  -1    0.01    0.07
   6   1  -1   -0.04    0.08
   6   1  -1    0.08    0.09
  -6  -1   1   -0.12    0.16
  -6  -1   1    0.02    0.06
   5   1  -1    2.30    0.18
   5   1  -1    2.11    0.21
   5   1  -1    2.57    0.18
  -5  -1   1    2.23    0.18
   4   1  -1   14.14    0.77
   4   1  -1   13.74    0.76
  -4  -1   1   13.08    0.81
   3   1  -1    7.69    0.43
   3   1  -1    7.59    0.43
  -3  -1   1    7.45    0.61
  -3  -1   1    7.12    0.45
   2   1  -1    3.02    0.20
   2   1  -1    2.76    0.19
   2   1  -1    3.31    0.26
   2   1  -1    2.86    0.16
  -2  -1   1    2.98    0.19
  -2  -1   1    2.74    0.19
  -2  -1   1    2.98    0.26
   1   1  -1   12.50    0.58
   1   1  -1   12.03    0.65
  -1  -1   1   11.86    0.88
  -1  -1   1   11.96    0.65
  -1  -1   1   12.13    0.72
   0   1  -1  139.58    7.45
   0   1  -1  142.34    8.32
   0   1  -1  148.63    8.99
   0   1  -1  135.62    9.27
   0   1  -1  149.45    8.20
   0   1  -1  157.31    7.56
   0  -1   1  138.37    8.31
   0  -1   1  131.74    6.73
   0  -1   1  139.73    8.20
   0  -1   1  153.59    8.98
   0  -1   1  145.87    7.54
   0  -1   1  134.84    7.45
   0  -1   1  137.26    9.27
  -1   1  -1   18.61    1.05
  -1   1  -1   16.99    0.92
   1  -1   1   19.91    1.06
   1  -1   1   16.63    1.13
   1  -1   1   16.45    0.92
  -2   1  -1   20.90    1.26
  -2   1  -1   20.68    1.11
   2  -1   1   21.93    1.26
   3  -1   1   12.30    0.79
   3  -1   1   13.47    0.74
  -4   1  -1   22.78    1.23
  -4   1  -1   17.28    1.48
   4  -1   1   20.31    1.13
  -5   1  -1    1.12    0.23
  -5   1  -1    1.59    0.16
   5  -1   1    1.59    0.14
  -6   1  -1    6.43    0.61
  -6   1  -1    5.68    0.42
   6  -1   1    5.93    0.38
  -7   1  -1    6.23    0.44
  -7   1  -1    5.90    0.62
   7  -1   1    5.67    0.39
  -8   1  -1    0.12    0.29
  -8   1  -1    0.10    0.08
  -9   1  -1    0.16    0.07
   9  -1   1    0.13    0.15
   9   0  -1    0.11    0.15
   9   0  -1    0.11    0.12
   8   0  -1    1.59    0.25
  -8   0   1    0.25    0.28
   7   0  -1    1.36    0.21
   7   0  -1    0.84    0.13
  -7   0   1    0.91    0.12
  -7   0   1    0.68    0.37
   6   0  -1    0.18    0.10
   6   0  -1    0.22    0.08
  -6   0   1    0.28    0.20
  -6   0   1    0.25    0.09
   5   0  -1    3.87    0.28
   5   0  -1    3.66    0.25
  -5   0   1    3.64    0.27
   4   0  -1    1.63    0.15
  -4   0   1    1.73    0.14
  -4   0   1    1.12    0.27
   3   0  -1    2.44    0.17
   3   0  -1    2.58    0.16
  -3   0   1    2.18    0.16
  -3   0   1    1.89    0.27
   2   0  -1    1.15    0.11
   2   0  -1    1.23    0.09
   2   0  -1    1.39    0.16
  -2   0   1    1.20    0.09
  -2   0   1    1.31    0.16
  -1   0   1    7.32    0.42
  -1   0   1    6.62    0.51
   0   0  -1    0.05    0.02
   0   0  -1    0.05    0.01
   0   0  -1    0.04    0.01
  -1   0  -1   36.00    1.96
  -1   0  -1   32.98    1.84
   1   0   1   31.18    1.59
   1   0   1   34.03    1.85
  -2   0  -1  142.31    7.63
  -2   0  -1  128.87    9.80
  -2   0  -1  146.95    8.12
  -3   0  -1    0.49    0.06
  -3   0  -1    0.15    0.11
  -3   0  -1    0.36    0.07
   3   0   1    0.42    0.05
  -4   0  -1   10.69    0.62
   4   0   1    9.08    0.56
  -5   0  -1    0.11    0.16
  -5   0  -1    0.01    0.06
   5   0   1    0.04    0.04
  -6   0  -1    0.00    0.06
  -6   0  -1    0.11    0.20
   6   0   1    0.00    0.06
  -7   0  -1    8.63    0.92
  -7   0  -1   11.36    0.70
   7   0   1   11.57    0.67
  -8   0  -1    0.65    0.13
  -8   0  -1    0.37    0.33
   8   0   1    0.63    0.14
   8   0   1    0.58    0.17
  -9   0  -1    0.45    0.37
   9   0   1    0.34    0.13
   9   0   1    0.66    0.19
  -8   1   1    0.78    0.31
  -7   1   1    0.27    0.29
  -7   1   1    0.07    0.07
   6  -1  -1    0.54    0.12
  -6   1   1    0.65    0.12
  -5   1   1    2.11    0.19
   4  -1  -1   14.05    0.81
  -4   1   1   12.41    0.81
   3  -1  -1   10.05    0.67
   3  -1  -1   10.25    0.62
  -3   1   1    9.67    0.62
   2  -1  -1   16.69    1.29
   2  -1  -1   18.63    1.07
   2  -1  -1   18.48    1.16
  -2   1   1   18.95    1.16
  -2   1   1   17.43    1.30
   1  -1  -1   50.56    2.97
  -1   1   1   44.40    2.97
  -1   1   1   46.06    2.42
   0  -1  -1    4.44    0.32
   0   1   1    3.90    0.38
   0   1   1    4.21    0.32
  -1  -1  -1   54.44    2.54
  -1  -1  -1   52.76    2.94
  -1  -1  -1   58.65    3.77
  -1  -1  -1   55.24    3.49
   1   1   1   54.34    2.54
   1   1   1   48.63    2.94
   1   1   1   50.67    3.78
   1   1   1   54.81    3.50
  -2  -1  -1   14.19    0.72
  -2  -1  -1   12.68    0.65
   2   1   1   13.78    0.66
   2   1   1   13.18    0.72
  -3  -1  -1    5.71    0.32
   3   1   1    5.44    0.32
   3   1   1    5.14    0.32
   3   1   1    5.44    0.29
  -4  -1  -1   18.68    1.19
  -4  -1  -1   22.67    1.28
   4   1   1   21.66    1.05
   4   1   1   21.75    1.20
   4   1   1   22.54    1.16
  -5  -1  -1    0.01    0.14
  -5  -1  -1    0.18    0.07
   5   1   1    0.19    0.05
   5   1   1    0.26    0.08
   5   1   1    0.19    0.07
  -6  -1  -1    1.17    0.13
   6   1   1    1.44    0.18
   6   1   1    1.31    0.14
  -7  -1  -1    0.69    0.28
  -7  -1  -1    0.64    0.12
   7   1   1    0.10    0.15
   7   1   1    0.48    0.12
  -8  -1  -1    0.75    0.11
  -8  -1  -1    0.76    0.35
   8   1   1    0.68    0.14
   8   1   1    0.86    0.17
  -9  -1  -1    0.13    0.35
   9   1   1   -0.10    0.13
   9   1   1    0.04    0.10
   5  -2  -1    0.22    0.06
  -5   2   1    0.24    0.08
  -4   2   1    0.01    0.07
   3  -2  -1   15.19    0.93
  -3   2   1   15.39    1.01
   2  -2  -1    9.40    0.53
  -2   2   1    7.25    0.56
   1  -2  -1  165.71    8.27
   1  -2  -1  156.08   10.10
  -1   2   1  160.46    8.21
  -1   2   1  159.18   10.14
   0  -2  -1    8.77    0.49
   0  -2  -1    8.77    0.60
   0  -2  -1   10.13    0.62
   0   2   1    8.79    0.49
   0   2   1    8.49    0.60
   0   2   1    9.27    0.62
  -1  -2  -1    5.58    0.33
  -1  -2  -1    6.31    0.41
  -1  -2  -1    5.66    0.30
  -1  -2  -1    5.39    0.35
   1   2   1    6.21    0.36
   1   2   1    6.01    0.30
   1   2   1    6.00    0.41
   1   2   1    6.09    0.33
  -2  -2  -1   14.46    0.77
  -2  -2  -1   14.94    0.70
  -2  -2  -1   14.32    0.78
  -2  -2  -1   14.40    0.96
   2   2   1   14.18    0.77
   2   2   1   14.08    0.81
   2   2   1   13.33    0.69
  -3  -2  -1    4.40    0.31
  -3  -2  -1    3.77    0.24
   3   2   1    4.05    0.25
   3   2   1    4.42    0.23
   3   2   1    3.35    0.25
  -4  -2  -1    2.76    0.17
   4   2   1    2.14    0.18
   4   2   1    2.32    0.17
   4   2   1    2.93    0.20
  -5  -2  -1    2.96    0.17
  -5  -2  -1    2.36    0.20
   5   2   1    2.62    0.20
   5   2   1    2.60    0.21
   5   2   1    2.63    0.19
  -6  -2  -1    0.11    0.21
  -6  -2  -1    0.06    0.05
   6   2   1    0.00    0.08
   6   2   1   -0.04    0.07
  -7  -2  -1    3.91    0.29
   7   2   1    3.86    0.32
   7   2   1    3.99    0.28
  -8  -2  -1    1.03    0.37
  -8  -2  -1    1.43    0.15
   8   2   1    1.42    0.19
   8   2   1    1.57    0.20
  -9  -2  -1    0.12    0.34
   9   2   1    0.07    0.12
   9   2   1   -0.01    0.10
   6  -3  -1    0.90    0.13
  -3   3   1    0.22    0.08
   2  -3  -1    0.37    0.07
  -2   3   1    0.23    0.07
   1  -3  -1    2.11    0.18
  -1   3   1    2.23    0.20
   0  -3  -1    0.40    0.09
   0  -3  -1    0.35    0.06
   0   3   1    0.29    0.07
   0   3   1    0.33    0.08
  -1  -3  -1   -0.02    0.05
   1   3   1   -0.03    0.04
   1   3   1    0.07    0.04
  -2  -3  -1   11.26    0.76
   2   3   1   10.97    0.61
   2   3   1   10.86    0.56
   2   3   1   11.35    0.77
   3   3   1   22.22    1.12
   3   3   1   23.98    1.24
   4   3   1   13.43    0.68
   4   3   1   13.34    0.79
   4   3   1   13.76    0.75
  -5  -3  -1    0.00    0.18
   5   3   1    0.07    0.07
   5   3   1    0.09    0.06
   5   3   1    0.11    0.08
  -6  -3  -1    3.05    0.22
   6   3   1    2.72    0.24
   6   3   1    3.13    0.22
  -7  -3  -1    0.32    0.08
  -7  -3  -1    0.51    0.31
   7   3   1    0.24    0.10
   7   3   1    0.23    0.11
  -8  -3  -1    0.12    0.28
   8   3   1   -0.08    0.08
   8   3   1   -0.01    0.10
  -9  -3  -1    0.23    0.35
   9   3   1    0.45    0.14
   9   3   1    0.35    0.13
  -4   4   1    1.56    0.22
  -3   4   1    0.42    0.11
   2  -4  -1    0.15    0.07
  -2   4   1    0.18    0.08
   1  -4  -1    1.22    0.16
  -1   4   1    1.51    0.18
  -1   4   1    1.41    0.17
   0  -4  -1    8.13    0.48
   0   4   1    8.31    0.59
   0   4   1    8.03    0.58
   1   4   1    1.65    0.17
   1   4   1    1.75    0.18
   2   4   1    0.89    0.10
   2   4   1    0.75    0.09
   2   4   1    0.66    0.11
   2   4   1    0.98    0.14
   3   4   1    8.64    0.51
   3   4   1    9.14    0.47
   4   4   1    1.32    0.15
   4   4   1    1.33    0.12
   5   4   1    8.05    0.44
   5   4   1    7.82    0.49
   6   4   1    2.95    0.25
   6   4   1    2.92    0.22
  -7  -4  -1    0.33    0.07
  -7  -4  -1    0.52    0.29
   7   4   1    0.20    0.10
   7   4   1    0.11    0.11
  -8  -4  -1    0.43    0.35
   8   4   1    0.29    0.12
   8   4   1    0.26    0.11
  -4   5   1    0.02    0.10
   3  -5  -1    1.48    0.19
  -3   5   1    1.64    0.22
   2  -5  -1    0.61    0.11
  -2   5   1    0.53    0.13
  -2   5   1    0.73    0.16
   1  -5  -1    1.73    0.19
  -1   5   1    1.73    0.22
  -1   5   1    1.88    0.21
   0  -5  -1   11.04    0.62
   0   5   1   10.84    0.75
   0   5   1   10.45    0.78
  -1  -5  -1    8.29    0.48
   1   5   1    7.77    0.57
   1   5   1    7.76    0.59
   2   5   1    1.45    0.18
   2   5   1    1.49    0.18
   3   5   1    5.25    0.34
   3   5   1    4.60    0.42
   3   5   1    5.47    0.31
   3   5   1    5.65    0.40
   4   5   1    1.49    0.15
   4   5   1    1.38    0.16
   5   5   1    2.62    0.20
   5   5   1    2.77    0.23
   6   5   1    0.31    0.09
   6   5   1    0.35    0.11
  -7  -5  -1    0.02    0.24
   7   5   1   -0.01    0.08
   7   5   1   -0.04    0.10
  -8  -5  -1    0.08    0.29
   8   5   1    0.17    0.10
   8   5   1    0.18    0.13
  -4   6   1    4.11    0.40
   3  -6  -1    1.41    0.19
  -3   6   1    1.20    0.21
  -3   6   1    1.65    0.27
   2  -6  -1   -0.05    0.07
  -2   6   1    0.12    0.09
  -2   6   1    0.03    0.09
   1  -6  -1    0.12    0.08
  -1   6   1    0.01    0.08
  -1   6   1    0.04    0.09
   0  -6  -1    1.84    0.20
   0   6   1    1.80    0.21
   0   6   1    2.11    0.24
  -1  -6  -1    0.44    0.10
   1   6   1    0.59    0.13
   1   6   1    0.48    0.13
   2   6   1    0.28    0.10
   2   6   1    0.29    0.12
   3   6   1    2.34    0.26
   3   6   1    2.00    0.21
   3   6   1    2.24    0.24
   3   6   1    2.17    0.19
   4   6   1    3.55    0.25
   4   6   1    3.36    0.32
   4   6   1    3.45    0.28
   5   6   1    0.61    0.13
   5   6   1    1.02    0.14
   6   6   1    0.01    0.08
   6   6   1    0.07    0.10
  -7  -6  -1    0.05    0.27
   7   6   1   -0.04    0.10
   7   6   1    0.06    0.08
  -5   7   1    2.02    0.32
   4  -7  -1    0.07    0.11
  -4   7   1   -0.01    0.16
  -4   7   1    0.32    0.16
   3  -7  -1    0.85    0.16
  -3   7   1    0.71    0.21
  -3   7   1    0.68    0.18
   2  -7  -1    0.07    0.10
  -2   7   1    0.05    0.10
  -2   7   1    0.03    0.12
   1  -7  -1   -0.08    0.09
  -1   7   1   -0.05    0.10
  -1   7   1    0.08    0.10
   0  -7  -1    0.12    0.10
   0   7   1   -0.02    0.09
   0   7   1    0.06    0.11
  -1  -7  -1    0.82    0.14
   1   7   1    0.95    0.18
   1   7   1    1.16    0.21
  -2  -7  -1    3.40    0.29
   2   7   1    3.31    0.35
   2   7   1    3.55    0.34
   3   7   1    7.50    0.61
   3   7   1    7.35    0.57
   4   7   1    0.12    0.11
   4   7   1    0.09    0.10
   4   7   1    0.13    0.09
   5   7   1   -0.01    0.10
   5   7   1    0.00    0.10
   5   7   1    0.13    0.09
   6   7   1    0.13    0.12
   6   7   1    0.08    0.12
   6   7   1    0.09    0.10
   4  -8  -1    4.53    0.39
  -4   8   1    4.35    0.48
  -4   8   1    4.69    0.47
   3  -8  -1    1.19    0.20
  -3   8   1    1.45    0.30
  -3   8   1    1.43    0.25
   2  -8  -1    1.35    0.20
  -2   8   1    1.60    0.25
  -2   8   1    1.77    0.30
   1  -8  -1    0.20    0.12
  -1   8   1    0.34    0.15
  -1   8   1    0.11    0.14
   0  -8  -1    0.06    0.11
   0   8   1    0.38    0.15
   0   8   1    0.18    0.14
  -1  -8  -1    0.68    0.16
   1   8   1    1.00    0.21
   1   8   1    0.83    0.19
  -2  -8  -1    1.83    0.23
   2   8   1    1.97    0.26
   2   8   1    1.93    0.28
  -3  -8  -1    3.16    0.30
   3   8   1    3.40    0.36
   3   8   1    3.20    0.36
   4   8   1    0.59    0.16
   5   8   1   -0.02    0.11
   5   8   1   -0.12    0.10
   3  -9  -1    0.25    0.16
  -3   9   1    0.34    0.18
  -3   9   1    0.27    0.20
   2  -9  -1    0.64    0.18
  -2   9   1    0.85    0.21
  -2   9   1    1.13    0.26
   1  -9  -1   -0.09    0.12
  -1   9   1    0.08    0.13
  -1   9   1   -0.01    0.14
   0  -9  -1    0.10    0.13
   0   9   1    0.09    0.14
   0   9   1    0.08    0.13
  -1  -9  -1    0.09    0.12
   1   9   1    0.35    0.15
   1   9   1    0.28    0.15
  -2  -9  -1    0.17    0.13
   2   9   1    0.34    0.15
   2   9   1    0.51    0.19
  -3  -9  -1    0.03    0.11
   3   9   1    0.07    0.12
   3   9   1   -0.08    0.14
   4   9   1    0.04    0.12
   1   9  -2    0.11    0.15
  -1  -9   2   -0.08    0.12
   0   9  -2    0.21    0.15
   0   9  -2    0.22    0.15
   0  -9   2    0.22    0.14
  -1   9  -2    0.04    0.14
  -1   9  -2    0.07    0.13
   1  -9   2    0.05    0.13
   2   8  -2    0.27    0.15
   2   8  -2    0.39    0.13
  -2  -8   2    0.24    0.13
   1   8  -2    0.49    0.15
   1   8  -2    0.77    0.20
  -1  -8   2    0.46    0.16
   0   8  -2    1.80    0.27
   0   8  -2    1.75    0.24
   0  -8   2    1.25    0.19
  -1   8  -2    0.65    0.19
  -1   8  -2    0.93    0.21
   1  -8   2    0.83    0.17
  -2   8  -2    1.48    0.26
  -2   8  -2    1.35    0.22
   2  -8   2    1.25    0.20
  -3   8  -2    0.19    0.14
   3  -8   2    0.32    0.15
  -4   8  -2    0.33    0.17
   4  -8   2    0.13    0.15
   5   7  -2    0.44    0.12
   5   7  -2    0.36    0.15
   4   7  -2    0.24    0.13
   3   7  -2    0.89    0.16
   3   7  -2    0.83    0.16
   2   7  -2    1.49    0.24
   2   7  -2    1.13    0.19
   1   7  -2    0.34    0.15
   1   7  -2    0.36    0.13
  -1  -7   2    0.18    0.12
   0   7  -2    7.35    0.56
   0   7  -2    6.50    0.56
   0  -7   2    7.26    0.48
  -1   7  -2    2.13    0.29
  -1   7  -2    1.86    0.24
   1  -7   2    2.47    0.26
  -2   7  -2    8.12    0.65
  -2   7  -2    8.37    0.65
   2  -7   2    8.22    0.54
  -3   7  -2    6.26    0.53
   3  -7   2    5.74    0.45
  -4   7  -2    0.95    0.23
   4  -7   2    0.66    0.17
  -5   7  -2   -0.10    0.13
   6   6  -2    0.27    0.13
   6   6  -2    0.45    0.11
  -6  -6   2    0.20    0.20
   5   6  -2    0.06    0.08
   5   6  -2   -0.04    0.10
   4   6  -2   -0.02    0.11
   4   6  -2   -0.08    0.07
   3   6  -2    0.76    0.12
   3   6  -2    0.75    0.16
   2   6  -2   -0.03    0.09
   2   6  -2   -0.09    0.09
   1   6  -2    3.55    0.31
   1   6  -2    3.01    0.30
  -1  -6   2    3.12    0.27
   0   6  -2    0.12    0.10
   0   6  -2    0.13    0.10
   0  -6   2    0.17    0.10
  -1   6  -2    0.72    0.15
  -1   6  -2    0.69    0.14
   1  -6   2    0.57    0.12
  -2   6  -2    1.17    0.20
  -2   6  -2    1.35    0.19
   2  -6   2    1.15    0.16
  -3   6  -2   14.42    1.07
   3  -6   2   15.18    0.86
  -4   6  -2    5.43    0.49
   4  -6   2    5.53    0.42
  -5   6  -2    1.53    0.27
   7   5  -2    0.07    0.09
   7   5  -2    0.08    0.12
   6   5  -2    0.09    0.11
   6   5  -2    0.05    0.08
  -6  -5   2    0.18    0.20
   5   5  -2    4.68    0.29
   5   5  -2    4.33    0.33
   4   5  -2    9.04    0.56
   4   5  -2    9.19    0.50
   3   5  -2    1.72    0.20
   3   5  -2    1.80    0.16
   2   5  -2    1.24    0.16
   2   5  -2    1.15    0.12
   1   5  -2    0.15    0.08
   1   5  -2    0.14    0.09
   0   5  -2    0.00    0.07
   0   5  -2   -0.03    0.06
   0  -5   2   -0.04    0.06
  -1   5  -2    3.53    0.31
  -1   5  -2    3.64    0.31
   1  -5   2    3.60    0.28
  -2   5  -2    0.81    0.15
  -2   5  -2    0.96    0.16
   2  -5   2    0.67    0.11
  -3   5  -2    6.11    0.49
   3  -5   2    5.64    0.40
  -4   5  -2    1.53    0.23
  -4   5  -2    1.85    0.22
   4  -5   2    1.25    0.18
  -5   5  -2    1.84    0.22
  -6   5  -2    8.26    0.59
   6  -5   2    7.24    0.53
  -7   5  -2    1.79    0.22
   7  -5   2    1.51    0.22
   7   4  -2    0.10    0.11
   7   4  -2   -0.13    0.09
   7   4  -2    0.00    0.09
  -7  -4   2    0.20    0.23
   6   4  -2   -0.04    0.09
   6   4  -2    0.02    0.09
   6   4  -2    0.01    0.07
  -6  -4   2   -0.06    0.19
   5   4  -2    1.77    0.20
   5   4  -2    2.05    0.18
   5   4  -2    1.77    0.19
  -5  -4   2    1.29    0.35
   4   4  -2    8.25    0.49
   4   4  -2    8.32    0.43
   4   4  -2    7.69    0.49
  -4  -4   2    7.34    0.49
  -4  -4   2    7.21    0.69
   3   4  -2    6.73    0.43
   3   4  -2    6.91    0.37
   3   4  -2    6.94    0.42
  -3  -4   2    6.53    0.44
  -3  -4   2    6.73    0.56
   2   4  -2    2.12    0.15
   2   4  -2    2.19    0.19
   2   4  -2    2.17    0.19
  -2  -4   2    1.98    0.18
   1   4  -2   10.21    0.60
   1   4  -2   10.27    0.73
   1   4  -2   10.76    0.70
   0   4  -2    1.16    0.14
   0   4  -2    1.31    0.15
   0  -4   2    1.32    0.16
  -1   4  -2    1.10    0.13
  -1   4  -2    1.01    0.15
   1  -4   2    0.74    0.10
  -2   4  -2   11.15    0.79
  -2   4  -2   11.30    0.74
  -2   4  -2   11.15    0.78
   2  -4   2   11.29    0.64
  -3   4  -2    0.15    0.10
  -3   4  -2    0.07    0.09
   3  -4   2    0.01    0.06
  -4   4  -2    0.03    0.10
   4  -4   2    0.03    0.07
  -5   4  -2    4.08    0.35
  -6   4  -2    1.14    0.21
   6  -4   2    1.08    0.17
  -7   4  -2    0.12    0.11
   7  -4   2    0.14    0.11
  -8   4  -2    0.18    0.10
   8  -4   2    0.17    0.11
   8   3  -2    0.07    0.11
   8   3  -2   -0.07    0.11
   8   3  -2   -0.03    0.10
  -8  -3   2    0.16    0.25
   7   3  -2   -0.08    0.10
   7   3  -2   -0.05    0.09
   7   3  -2   -0.04    0.09
  -7  -3   2   -0.04    0.20
   6   3  -2    1.00    0.17
   6   3  -2    0.91    0.13
   6   3  -2    0.79    0.14
  -6  -3   2    0.25    0.25
   5   3  -2    3.68    0.28
   5   3  -2    3.67    0.27
   5   3  -2    3.70    0.24
  -5  -3   2    3.19    0.50
   4   3  -2    0.54    0.09
   4   3  -2    0.43    0.09
   4   3  -2    0.29    0.09
  -4  -3   2    0.32    0.18
   3   3  -2    6.39    0.40
   3   3  -2    6.53    0.35
   3   3  -2    6.49    0.40
  -3  -3   2    6.34    0.53
   2   3  -2    3.04    0.23
   2   3  -2    3.27    0.19
   2   3  -2    3.26    0.23
  -2  -3   2    3.12    0.22
  -2  -3   2    3.25    0.30
   1   3  -2   10.00    0.57
   1   3  -2    9.70    0.57
   1   3  -2   10.53    0.50
   1   3  -2   10.00    0.69
  -1  -3   2   10.18    0.50
  -1  -3   2    9.78    0.69
  -1  -3   2    9.90    0.62
   0   3  -2   39.87    2.53
   0   3  -2   40.15    2.61
   0  -3   2   38.59    1.89
   0  -3   2   40.77    2.53
   0  -3   2   36.76    2.35
   0  -3   2   42.61    2.62
  -1   3  -2   14.10    0.95
  -1   3  -2   16.49    1.04
  -1   3  -2   15.18    1.01
   1  -3   2   15.63    0.83
  -2   3  -2    4.85    0.33
  -2   3  -2    3.65    0.33
   2  -3   2    4.51    0.28
  -3   3  -2    0.31    0.11
   3  -3   2    0.23    0.07
  -4   3  -2   -0.02    0.07
  -5   3  -2    0.07    0.09
   5  -3   2    0.16    0.08
  -6   3  -2    0.56    0.15
   6  -3   2    0.44    0.11
  -7   3  -2    7.56    0.54
   7  -3   2    6.87    0.48
  -8   3  -2    0.24    0.10
   8  -3   2    0.14    0.10
   8   2  -2    0.19    0.15
   8   2  -2    0.21    0.11
   8   2  -2    0.43    0.13
  -8  -2   2    0.14    0.25
   7   2  -2   -0.09    0.10
   7   2  -2   -0.07    0.09
   7   2  -2   -0.15    0.08
  -7  -2   2   -0.06    0.20
   6   2  -2    0.15    0.09
   6   2  -2    0.07    0.08
   6   2  -2    0.05    0.09
  -6  -2   2   -0.16    0.16
   5   2  -2    0.10    0.08
   5   2  -2    0.04    0.06
   5   2  -2    0.01    0.06
  -5  -2   2   -0.12    0.17
   4   2  -2    1.46    0.15
   4   2  -2    1.70    0.13
   4   2  -2    1.88    0.17
  -4  -2   2    1.79    0.28
   3   2  -2    2.00    0.17
   3   2  -2    2.00    0.17
   3   2  -2    2.14    0.14
  -3  -2   2    1.95    0.24
   2   2  -2   18.71    0.99
   2   2  -2   18.87    1.00
   2   2  -2   18.30    0.89
  -2  -2   2   18.18    1.23
  -2  -2   2   17.42    1.33
   1   2  -2   17.85    0.85
   1   2  -2   14.35    0.83
   1   2  -2   14.66    0.74
  -1  -2   2   16.32    0.92
  -1  -2   2   14.61    0.91
  -1  -2   2   14.80    1.03
   0   2  -2   66.97    3.37
   0   2  -2   63.10    3.32
   0   2  -2   68.02    4.00
   0   2  -2   64.01    4.12
   0   2  -2   58.63    3.70
   0  -2   2   61.06    3.36
   0  -2   2   62.29    3.70
   0  -2   2   67.50    4.00
   0  -2   2   60.99    2.99
   0  -2   2   59.58    3.31
   0  -2   2   64.75    4.13
  -1   2  -2    4.16    0.30
  -1   2  -2    4.07    0.31
   1  -2   2    4.52    0.26
   1  -2   2    4.30    0.29
   1  -2   2    4.30    0.25
   1  -2   2    4.46    0.30
  -2   2  -2   28.11    1.57
   2  -2   2   24.23    1.37
  -3   2  -2  133.04    7.37
   3  -2   2  119.26    6.93
  -4   2  -2    7.42    0.48
   4  -2   2    6.44    0.43
  -5   2  -2    1.45    0.16
   5  -2   2    1.30    0.15
  -6   2  -2    0.15    0.09
   6  -2   2    0.08    0.08
  -7   2  -2    8.96    0.61
   7  -2   2    8.23    0.54
  -8   2  -2    1.52    0.19
   8  -2   2    1.19    0.17
  -9   2  -2    0.31    0.11
   8   1  -2    0.43    0.18
   8   1  -2    0.54    0.14
   8   1  -2    0.73    0.15
  -8  -1   2    0.77    0.34
   7   1  -2    0.03    0.09
   7   1  -2    0.03    0.10
   7   1  -2    0.08    0.13
  -7  -1   2    0.54    0.26
   6   1  -2    1.83    0.22
   6   1  -2    2.19    0.19
   6   1  -2    1.94    0.18
   5   1  -2    4.48    0.32
   5   1  -2    4.20    0.30
   4   1  -2    1.74    0.18
   4   1  -2    1.55    0.16
  -4  -1   2    1.36    0.25
   3   1  -2    6.35    0.38
   3   1  -2    6.27    0.38
  -3  -1   2    6.46    0.52
   2   1  -2    4.15    0.27
   2   1  -2    3.87    0.26
  -2  -1   2    4.79    0.36
   1   1  -2    3.55    0.23
   1   1  -2    3.61    0.26
   1   1  -2    3.74    0.19
   1   1  -2    3.66    0.23
  -1  -1   2    3.95    0.25
  -1  -1   2    3.57    0.22
  -1  -1   2    3.64    0.23
  -1  -1   2    3.75    0.22
   0   1  -2   17.44    0.80
   0   1  -2   14.13    0.81
   0   1  -2   14.11    0.89
   0   1  -2   14.94    0.89
   0  -1   2   13.43    0.89
   0  -1   2   13.69    0.81
   0  -1   2   14.56    0.88
   0  -1   2   17.64    0.99
   0  -1   2   15.31    0.84
  -1   1  -2    2.35    0.19
  -1   1  -2    2.30    0.18
  -1   1  -2    2.91    0.19
  -1   1  -2    2.36    0.16
   1  -1   2    2.99    0.19
   1  -1   2    2.75    0.17
  -2   1  -2    0.97    0.11
  -2   1  -2    0.78    0.12
   2  -1   2    1.02    0.08
   2  -1   2    0.85    0.10
   2  -1   2    0.68    0.09
   2  -1   2    0.74    0.11
  -3   1  -2    2.35    0.21
   3  -1   2    2.93    0.19
  -4   1  -2   23.95    1.97
  -4   1  -2   31.03    1.66
  -5   1  -2    5.38    0.38
  -5   1  -2    5.16    0.46
   5  -1   2    5.11    0.34
  -6   1  -2   33.26    2.43
  -6   1  -2   32.61    2.01
   6  -1   2   33.78    1.87
  -7   1  -2    3.93    0.33
  -7   1  -2    3.74    0.45
   7  -1   2    4.01    0.29
  -8   1  -2    2.87    0.27
  -8   1  -2    3.01    0.42
   8  -1   2    3.00    0.27
  -9   1  -2    0.43    0.31
  -9   1  -2    0.40    0.12
   9  -1   2    0.57    0.18
   9  -1   2    0.39    0.14
   8   0  -2    1.44    0.24
   8   0  -2    0.84    0.16
  -8   0   2    0.75    0.35
   7   0  -2    0.52    0.13
   7   0  -2    0.49    0.17
  -7   0   2    0.45    0.27
   6   0  -2    0.60    0.14
   6   0  -2    0.53    0.11
  -6   0   2    0.32    0.25
   5   0  -2    1.77    0.18
   5   0  -2    1.67    0.20
   4   0  -2   23.60    1.29
   4   0  -2   23.63    1.28
  -4   0   2   23.23    1.74
   3   0  -2    1.88    0.16
   3   0  -2    1.74    0.16
   2   0  -2   -0.02    0.04
   2   0  -2   -0.01    0.04
  -2   0   2    0.04    0.07
   1   0  -2    4.85    0.29
   1   0  -2    5.41    0.33
  -1   0   2    5.12    0.33
  -1   0   2    4.99    0.29
   0   0  -2    0.78    0.09
   0   0  -2    0.55    0.06
   0   0  -2    0.47    0.06
   0   0   2    0.79    0.08
   0   0   2    0.48    0.05
   0   0   2    0.54    0.05
  -1   0  -2    8.23    0.47
  -1   0  -2    8.36    0.40
   1   0   2    8.40    0.47
   1   0   2    7.82    0.40
  -2   0  -2   34.08    1.85
  -2   0  -2   30.22    1.74
   2   0   2   32.25    1.74
   2   0   2   29.27    1.49
  -3   0  -2   22.42    1.65
  -3   0  -2   23.12    1.37
   3   0   2   23.06    1.28
   4   0   2    8.97    0.53
  -5   0  -2    0.06    0.06
  -5   0  -2    0.16    0.15
   5   0   2    0.05    0.05
  -6   0  -2    0.26    0.20
  -6   0  -2   -0.01    0.08
   6   0   2   -0.10    0.08
   6   0   2   -0.09    0.07
  -7   0  -2   12.10    0.78
  -7   0  -2   12.24    1.02
   7   0   2   12.45    0.72
   7   0   2   11.19    0.65
  -8   0  -2   -0.18    0.27
  -8   0  -2    0.10    0.08
   8   0   2    0.06    0.09
   8   0   2   -0.15    0.11
  -9   0  -2    1.47    0.17
  -9   0  -2    1.58    0.41
   9   0   2    1.64    0.22
   9   0   2    1.77    0.25
   8  -1  -2    1.83    0.27
  -8   1   2    1.04    0.39
   7  -1  -2    1.41    0.18
   7  -1  -2    1.24    0.20
  -7   1   2    0.69    0.29
  -6   1   2    0.90    0.28
   5  -1  -2    0.80    0.13
   5  -1  -2    0.74    0.11
   4  -1  -2    4.50    0.28
  -4   1   2    3.31    0.39
   3  -1  -2   10.43    0.70
  -3   1   2   12.74    0.88
   2  -1  -2    0.55    0.08
   2  -1  -2    0.59    0.08
  -2   1   2    0.65    0.08
  -2   1   2    0.60    0.11
  -2   1   2    0.44    0.08
   1  -1  -2  757.90   42.79
   1  -1  -2  820.05   49.20
   1  -1  -2  768.40   44.92
  -1   1   2  761.31   42.81
  -1   1   2  751.71   44.92
  -1   1   2  837.34   49.21
   0  -1  -2   80.34    4.59
   0  -1  -2   79.60    4.37
   0   1   2   82.91    4.37
   0   1   2   76.09    4.58
  -1  -1  -2    1.09    0.07
  -1  -1  -2    1.09    0.09
   1   1   2    1.12    0.09
   1   1   2    0.97    0.09
   1   1   2    1.12    0.12
  -2  -1  -2   16.54    0.80
  -2  -1  -2   17.01    1.20
  -2  -1  -2   17.05    1.10
   2   1   2   15.81    1.20
   2   1   2   16.90    0.80
  -3  -1  -2   23.42    1.63
  -3  -1  -2   23.70    1.27
   3   1   2   22.18    1.20
   3   1   2   22.85    1.26
   3   1   2   21.02    1.09
  -4  -1  -2    4.69    0.32
   4   1   2    4.95    0.30
   4   1   2    4.66    0.27
  -5  -1  -2    1.79    0.27
  -5  -1  -2    1.86    0.16
   5   1   2    1.62    0.14
   5   1   2    1.47    0.16
   5   1   2    1.75    0.15
  -6  -1  -2    4.51    0.32
  -6  -1  -2    4.54    0.47
   6   1   2    4.04    0.29
   6   1   2    4.32    0.27
   6   1   2    4.07    0.31
  -7  -1  -2    1.06    0.35
  -7  -1  -2    1.10    0.18
   7   1   2    0.64    0.18
   7   1   2    0.84    0.14
   7   1   2    0.75    0.13
  -8  -1  -2    0.20    0.08
  -8  -1  -2   -0.03    0.29
   8   1   2    0.26    0.11
   8   1   2    0.08    0.11
  -9  -1  -2    0.10    0.06
  -9  -1  -2    0.13    0.33
   9   1   2   -0.16    0.12
   9   1   2    0.14    0.11
   8  -2  -2    1.15    0.19
   7  -2  -2    0.82    0.16
   3  -2  -2    1.51    0.15
  -3   2   2    1.58    0.16
   2  -2  -2    0.05    0.06
   2  -2  -2    0.04    0.05
  -2   2   2    0.07    0.05
  -2   2   2    0.00    0.05
   1  -2  -2  227.22   14.65
   1  -2  -2  224.35   12.75
   1  -2  -2  238.87   11.99
  -1   2   2  238.84   11.96
  -1   2   2  236.40   14.68
   0  -2  -2  956.13   52.47
   0   2   2  920.03   52.48
   0   2   2 1000.00   60.34
  -1  -2  -2    8.47    0.43
  -1  -2  -2    8.28    0.50
  -1  -2  -2    8.45    0.59
  -1  -2  -2    8.72    0.47
   1   2   2    8.37    0.50
   1   2   2    8.94    0.59
   1   2   2    9.26    0.44
  -2  -2  -2   15.71    0.89
  -2  -2  -2   16.28    1.06
  -2  -2  -2   16.10    0.77
  -2  -2  -2   15.93    1.14
   2   2   2   16.17    1.06
   2   2   2   15.34    0.77
   2   2   2   15.36    0.89
  -3  -2  -2    2.00    0.22
  -3  -2  -2    1.84    0.17
   3   2   2    2.08    0.14
   3   2   2    2.12    0.15
   3   2   2    1.69    0.14
  -4  -2  -2    2.27    0.29
   4   2   2    2.34    0.17
   4   2   2    1.91    0.15
   4   2   2    1.88    0.16
  -5  -2  -2    0.04    0.15
   5   2   2   -0.01    0.06
   5   2   2    0.07    0.06
   5   2   2    0.05    0.05
  -6  -2  -2    2.95    0.23
  -6  -2  -2    2.91    0.41
   6   2   2    2.95    0.21
   6   2   2    2.63    0.23
   6   2   2    2.80    0.23
  -7  -2  -2    4.21    0.52
  -7  -2  -2    4.24    0.32
   7   2   2    3.92    0.28
   7   2   2    4.33    0.31
   7   2   2    3.96    0.32
  -8  -2  -2    0.50    0.11
  -8  -2  -2    0.54    0.32
   8   2   2    0.44    0.12
   8   2   2    0.45    0.14
  -9  -2  -2    0.22    0.32
   9   2   2   -0.03    0.10
   9   2   2   -0.07    0.12
   8  -3  -2    2.16    0.25
  -4   3   2    1.63    0.20
  -3   3   2    2.53    0.23
  -2   3   2    3.18    0.27
   1  -3  -2    1.27    0.12
  -1   3   2    1.04    0.15
   0  -3  -2    0.37    0.06
   0   3   2    0.31    0.07
   0   3   2    0.33    0.05
   0   3   2    0.36    0.08
  -1  -3  -2    1.62    0.13
  -1  -3  -2    1.87    0.17
   1   3   2    1.66    0.15
   1   3   2    1.57    0.16
  -2  -3  -2    1.10    0.12
  -2  -3  -2    0.88    0.10
   2   3   2    0.93    0.12
   2   3   2    1.02    0.10
   2   3   2    0.99    0.13
   2   3   2    1.11    0.10
  -3  -3  -2   51.93    3.63
   3   3   2   50.56    2.43
   3   3   2   50.61    2.83
   3   3   2   50.61    2.68
  -4  -3  -2    0.36    0.16
   4   3   2    0.26    0.06
   4   3   2    0.36    0.06
   4   3   2    0.35    0.09
  -5  -3  -2    0.83    0.25
   5   3   2    1.10    0.14
   5   3   2    0.94    0.11
   5   3   2    1.02    0.14
  -6  -3  -2    3.36    0.48
   6   3   2    3.69    0.27
   6   3   2    3.76    0.31
   6   3   2    3.88    0.25
  -7  -3  -2    3.50    0.27
  -7  -3  -2    4.80    0.59
   7   3   2    3.20    0.25
   7   3   2    3.02    0.27
   7   3   2    3.97    0.37
  -8  -3  -2    0.20    0.06
  -8  -3  -2    0.13    0.29
   8   3   2   -0.10    0.09
   8   3   2    0.02    0.09
  -9  -3  -2    0.07    0.31
   9   3   2    0.06    0.11
   9   3   2    0.07    0.10
  -4   4   2    0.05    0.09
  -3   4   2    0.96    0.15
   2  -4  -2    0.44    0.09
  -2   4   2    0.39    0.10
   1  -4  -2    0.71    0.10
  -1   4   2    0.81    0.14
  -1   4   2    0.57    0.11
   0  -4  -2    0.10    0.06
   0   4   2    0.10    0.08
   0   4   2    0.14    0.06
  -1  -4  -2    4.67    0.30
   1   4   2    4.83    0.36
   1   4   2    4.40    0.35
   2   4   2    7.14    0.39
   2   4   2    7.57    0.54
   3   4   2    0.72    0.12
   3   4   2    0.95    0.11
   3   4   2    0.80    0.10
  -4  -4  -2    9.30    0.82
   4   4   2   10.01    0.58
   4   4   2   10.83    0.63
   4   4   2   10.69    0.53
   5   4   2    5.31    0.31
   5   4   2    5.23    0.37
   5   4   2    4.84    0.34
  -6  -4  -2    0.25    0.31
   6   4   2   -0.07    0.12
   6   4   2   -0.05    0.06
   6   4   2   -0.05    0.07
  -7  -4  -2    1.25    0.37
   7   4   2    0.69    0.13
   7   4   2    0.59    0.13
  -8  -4  -2    0.18    0.06
  -8  -4  -2    0.16    0.30
   8   4   2    0.07    0.10
   8   4   2    0.08    0.09
  -4   5   2   14.93    1.05
  -3   5   2    1.34    0.21
   2  -5  -2    1.87    0.22
  -2   5   2    2.11    0.24
  -2   5   2    2.13    0.24
   1  -5  -2    4.19    0.30
  -1   5   2    3.96    0.35
  -1   5   2    4.16    0.36
   0  -5  -2    4.94    0.33
   0   5   2    4.92    0.40
   0   5   2    4.75    0.40
  -1  -5  -2    4.87    0.32
   1   5   2    4.60    0.38
   1   5   2    4.59    0.38
   2   5   2    0.78    0.13
   2   5   2    1.03    0.14
   3   5   2    1.12    0.13
   3   5   2    1.11    0.15
   3   5   2    1.16    0.13
   4   5   2    0.01    0.07
   4   5   2    0.00    0.06
   5   5   2    0.05    0.07
   5   5   2    0.12    0.08
   6   5   2    0.17    0.10
   6   5   2    0.20    0.08
  -7  -5  -2    1.34    0.36
   7   5   2    1.24    0.16
   7   5   2    1.20    0.17
  -8  -5  -2    0.17    0.31
   8   5   2    0.02    0.08
   8   5   2   -0.04    0.10
  -5   6   2    0.19    0.14
  -4   6   2    0.21    0.15
   3  -6  -2    2.73    0.25
  -3   6   2    2.24    0.29
  -3   6   2    2.05    0.27
   2  -6  -2    1.74    0.22
  -2   6   2    1.78    0.24
  -2   6   2    1.66    0.23
   1  -6  -2   12.50    0.71
  -1   6   2   11.99    0.90
  -1   6   2   12.13    0.87
   0  -6  -2    0.57    0.13
   0   6   2    0.87    0.17
   0   6   2    0.70    0.14
  -1  -6  -2    2.47    0.23
   1   6   2    2.16    0.24
   1   6   2    2.42    0.24
  -2  -6  -2    1.98    0.20
   2   6   2    1.63    0.21
   2   6   2    1.67    0.22
   3   6   2    0.69    0.15
   3   6   2    0.52    0.13
   4   6   2    1.97    0.18
   4   6   2    1.71    0.20
   5   6   2    0.79    0.14
   5   6   2    0.82    0.14
   6   6   2   -0.01    0.08
   6   6   2    0.03    0.10
   7   6   2    0.05    0.08
   7   6   2   -0.04    0.10
  -5   7   2    0.13    0.16
  -4   7   2    0.00    0.13
  -4   7   2    0.04    0.16
   3  -7  -2    1.85    0.23
  -3   7   2    1.81    0.28
  -3   7   2    1.70    0.32
   2  -7  -2    0.26    0.12
  -2   7   2    0.30    0.13
  -2   7   2    0.40    0.16
   1  -7  -2    0.20    0.11
  -1   7   2    0.25    0.14
  -1   7   2    0.14    0.12
   0  -7  -2    5.06    0.37
   0   7   2    4.82    0.42
   0   7   2    4.75    0.43
  -1  -7  -2    1.15    0.17
   1   7   2    1.34    0.22
   1   7   2    1.39    0.21
  -2  -7  -2    5.30    0.37
   2   7   2    5.13    0.45
   2   7   2    4.91    0.43
   3   7   2    1.39    0.22
   3   7   2    1.56    0.27
   4   7   2    3.24    0.32
   5   7   2   -0.06    0.10
   5   7   2   -0.05    0.08
   5   7   2    0.00    0.10
   6   7   2   -0.13    0.08
   6   7   2   -0.05    0.09
   7   7   2    0.03    0.10
   7   7   2    0.05    0.12
  -4   8   2    0.75    0.26
  -4   8   2    0.73    0.22
   3  -8  -2    0.03    0.13
  -3   8   2    0.20    0.16
  -3   8   2    0.24    0.14
   2  -8  -2    1.06    0.18
  -2   8   2    0.87    0.24
  -2   8   2    0.96    0.20
   1  -8  -2    0.07    0.10
  -1   8   2    0.05    0.11
  -1   8   2   -0.13    0.11
   0  -8  -2   -0.13    0.11
   0   8   2    0.04    0.11
   0   8   2   -0.05    0.11
  -1  -8  -2   -0.12    0.10
   1   8   2   -0.02    0.11
   1   8   2   -0.04    0.11
  -2  -8  -2   -0.15    0.10
   2   8   2   -0.06    0.12
   2   8   2   -0.04    0.12
  -3  -8  -2    6.99    0.49
   3   8   2    7.41    0.63
   3   8   2    7.81    0.59
   4   8   2    2.43    0.31
   4   8   2    2.15    0.28
   5   8   2    0.13    0.12
   6   8   2    0.06    0.12
   6   8   2    0.05    0.12
   6   8   2    0.02    0.10
   3  -9  -2    0.51    0.18
  -3   9   2    0.55    0.23
  -3   9   2    0.25    0.16
   2  -9  -2    0.01    0.13
  -2   9   2    0.05    0.12
  -2   9   2   -0.01    0.14
   1  -9  -2    0.02    0.12
  -1   9   2    0.09    0.13
  -1   9   2    0.01    0.13
   0  -9  -2    0.31    0.13
   0   9   2    0.45    0.18
   0   9   2    0.34    0.17
  -1  -9  -2    0.05    0.11
   1   9   2   -0.01    0.13
   1   9   2   -0.11    0.12
  -2  -9  -2   -0.04    0.11
   2   9   2   -0.02    0.12
   2   9   2    0.07    0.14
  -3  -9  -2    0.01    0.11
   3   9   2   -0.02    0.14
   3   9   2    0.08    0.12
  -4  -9  -2    0.14    0.12
   4   9   2    0.19    0.13
   4   9   2    0.30    0.19
  -2  -8   3   -0.01    0.12
   1   8  -3    0.22    0.14
   1   8  -3    0.34    0.16
  -1  -8   3    0.14    0.13
   0   8  -3    0.42    0.16
   0   8  -3    0.37    0.15
   0  -8   3    0.29    0.13
  -1   8  -3    0.24    0.15
  -1   8  -3    0.55    0.16
   1  -8   3    0.42    0.15
  -2   8  -3   -0.05    0.12
   2  -8   3   -0.02    0.12
  -3   8  -3    0.17    0.13
   3  -8   3    0.01    0.13
   4   7  -3    0.28    0.13
   3   7  -3    0.75    0.17
   1   7  -3    1.35    0.24
   1   7  -3    1.28    0.21
  -1  -7   3    1.42    0.20
   0   7  -3    0.11    0.12
   0   7  -3    0.17    0.12
   0  -7   3   -0.12    0.11
  -1   7  -3    0.44    0.15
  -1   7  -3    0.51    0.15
   1  -7   3    0.34    0.14
  -2   7  -3    2.32    0.27
   2  -7   3    2.89    0.28
  -3   7  -3    0.19    0.14
   3  -7   3    0.16    0.13
  -4   7  -3    0.67    0.19
   4  -7   3    0.82    0.18
  -5   7  -3    0.08    0.14
   5  -7   3    0.11    0.12
   5   6  -3    0.03    0.08
   5   6  -3   -0.02    0.10
   4   6  -3   -0.04    0.07
   4   6  -3   -0.15    0.09
  -4  -6   3    0.10    0.17
   3   6  -3    0.35    0.13
   2   6  -3    1.25    0.17
   1   6  -3    0.84    0.15
   1   6  -3    1.11    0.20
  -1  -6   3    0.72    0.14
   0   6  -3    0.02    0.10
   0   6  -3    0.09    0.10
   0  -6   3    0.09    0.11
  -1   6  -3    7.69    0.57
  -1   6  -3    6.66    0.56
   1  -6   3    7.79    0.49
  -2   6  -3    0.15    0.12
   2  -6   3    0.00    0.11
  -3   6  -3    0.52    0.17
   3  -6   3    0.44    0.14
  -4   6  -3    0.02    0.13
   4  -6   3   -0.07    0.12
  -5   6  -3   -0.04    0.11
  -6   6  -3    0.48    0.19
   6  -6   3    0.34    0.15
   6   5  -3    0.03    0.11
   6   5  -3    0.03    0.08
   6   5  -3   -0.04    0.09
  -6  -5   3    0.09    0.19
   5   5  -3    0.32    0.09
   5   5  -3    0.88    0.16
   5   5  -3    0.39    0.13
   4   5  -3    1.79    0.21
   4   5  -3    1.46    0.19
   4   5  -3    1.57    0.17
   3   5  -3    2.79    0.24
   3   5  -3    2.61    0.25
   3   5  -3    2.82    0.20
   2   5  -3    1.57    0.18
   1   5  -3    0.99    0.16
   1   5  -3    0.71    0.13
   0   5  -3    1.22    0.18
   0   5  -3    1.13    0.15
   0  -5   3    1.09    0.15
  -1   5  -3    4.08    0.35
  -1   5  -3    4.77    0.37
  -2   5  -3    0.99    0.15
   2  -5   3    0.88    0.13
  -3   5  -3   18.86    1.15
  -3   5  -3   15.90    1.22
   3  -5   3   18.30    0.99
  -4   5  -3    0.04    0.14
  -4   5  -3    0.02    0.13
   4  -5   3    0.04    0.12
  -5   5  -3    1.59    0.22
   5  -5   3    1.42    0.21
  -6   5  -3    0.14    0.10
   6  -5   3    0.06    0.12
  -7   5  -3    0.04    0.10
   7  -5   3   -0.06    0.10
   7   4  -3    0.11    0.09
   7   4  -3    0.08    0.11
   7   4  -3    0.04    0.10
  -7  -4   3    0.25    0.24
   6   4  -3    0.07    0.08
   6   4  -3    0.10    0.10
   6   4  -3   -0.16    0.08
  -6  -4   3   -0.07    0.23
   5   4  -3    0.67    0.14
   5   4  -3    0.43    0.11
   5   4  -3    0.61    0.15
  -5  -4   3    0.57    0.29
   4   4  -3   13.19    0.83
   4   4  -3   14.64    0.83
   4   4  -3   14.93    0.73
  -4  -4   3   14.07    1.12
   3   4  -3    3.48    0.25
   3   4  -3    3.14    0.25
   3   4  -3    3.31    0.21
  -3  -4   3    3.04    0.23
  -3  -4   3    3.23    0.35
   2   4  -3    0.47    0.10
   2   4  -3    0.55    0.07
   2   4  -3    0.48    0.10
  -2  -4   3    0.50    0.09
   1   4  -3    0.30    0.09
   1   4  -3    0.33    0.08
   0   4  -3    0.12    0.07
   0   4  -3    0.14    0.07
   0  -4   3    0.09    0.06
  -2   4  -3    7.84    0.56
  -2   4  -3    7.03    0.53
   2  -4   3    7.92    0.46
  -3   4  -3    3.25    0.32
  -3   4  -3    4.39    0.34
   3  -4   3    4.15    0.29
  -4   4  -3   13.54    0.87
   4  -4   3   12.30    0.74
  -5   4  -3    0.09    0.09
   5  -4   3    0.17    0.10
  -6   4  -3    1.20    0.20
   6  -4   3    0.62    0.14
  -7   4  -3    0.31    0.13
   7  -4   3    0.33    0.12
  -8   4  -3    0.16    0.10
   8  -4   3   -0.06    0.10
   7   3  -3    0.04    0.09
   7   3  -3    0.12    0.12
   7   3  -3    0.11    0.11
  -7  -3   3    0.17    0.23
   6   3  -3    0.23    0.11
   6   3  -3    0.42    0.11
   6   3  -3    0.48    0.13
  -6  -3   3   -0.23    0.24
   5   3  -3    1.42    0.14
   5   3  -3    1.53    0.18
   5   3  -3    1.31    0.17
  -5  -3   3    1.47    0.35
   4   3  -3    1.51    0.16
   4   3  -3    1.43    0.17
   4   3  -3    1.58    0.18
  -4  -3   3    1.63    0.27
   3   3  -3    2.21    0.16
   3   3  -3    2.06    0.19
   3   3  -3    2.12    0.19
  -3  -3   3    2.04    0.27
   2   3  -3    2.91    0.22
   2   3  -3    2.90    0.22
   2   3  -3    2.74    0.17
  -2  -3   3    2.67    0.28
  -2  -3   3    2.67    0.20
   1   3  -3    8.98    0.54
   1   3  -3    9.30    0.53
   1   3  -3    9.26    0.46
  -1  -3   3    9.56    0.45
  -1  -3   3    8.79    0.57
  -1  -3   3    8.92    0.63
   0   3  -3    0.98    0.11
   0   3  -3    1.04    0.14
   0   3  -3    1.14    0.12
   0   3  -3    0.94    0.12
   0  -3   3    0.97    0.11
   0  -3   3    0.95    0.12
   0  -3   3    1.15    0.10
  -1   3  -3    0.04    0.07
  -1   3  -3    0.06    0.05
  -2   3  -3    8.36    0.57
  -2   3  -3    7.94    0.60
   2  -3   3    9.27    0.48
  -3   3  -3   27.96    1.69
   3  -3   3   27.67    1.48
  -4   3  -3    0.84    0.15
   4  -3   3    0.86    0.13
  -5   3  -3    6.48    0.47
   5  -3   3    6.11    0.43
  -6   3  -3    0.74    0.15
   6  -3   3    0.57    0.12
  -7   3  -3    0.47    0.14
   7  -3   3    0.24    0.11
  -8   3  -3    0.23    0.09
   8  -3   3    0.06    0.10
   8   2  -3   -0.09    0.12
   8   2  -3    0.07    0.11
   7   2  -3    0.24    0.11
   7   2  -3    0.17    0.10
   7   2  -3    0.15    0.13
  -7  -2   3    0.15    0.23
   6   2  -3    0.67    0.14
   6   2  -3    0.81    0.13
   6   2  -3    0.84    0.16
  -6  -2   3    0.20    0.26
   5   2  -3    2.74    0.20
   5   2  -3    2.62    0.22
   5   2  -3    2.81    0.24
  -5  -2   3    2.88    0.40
   4   2  -3    1.35    0.16
   4   2  -3    1.31    0.12
   4   2  -3    1.34    0.15
  -4  -2   3    1.25    0.24
   3   2  -3    0.17    0.07
   3   2  -3    0.32    0.09
   3   2  -3    0.32    0.06
  -3  -2   3    0.31    0.14
   2   2  -3    9.72    0.54
   2   2  -3    9.16    0.46
   2   2  -3    9.26    0.53
  -2  -2   3    8.80    0.64
  -2  -2   3    8.83    0.71
   1   2  -3   18.50    1.08
   1   2  -3   17.59    0.86
   1   2  -3   18.25    0.97
   1   2  -3   16.51    1.07
   1   2  -3   19.89    0.99
  -1  -2   3   17.19    1.06
  -1  -2   3   17.82    1.19
   0   2  -3    1.63    0.14
   0   2  -3    1.60    0.16
   0   2  -3    1.19    0.14
   0   2  -3    1.52    0.14
   0  -2   3    1.71    0.14
   0  -2   3    1.63    0.13
  -1   2  -3    2.32    0.19
  -1   2  -3    2.05    0.18
  -1   2  -3    2.34    0.18
  -1   2  -3    2.06    0.16
   1  -2   3    2.52    0.18
   1  -2   3    2.29    0.16
   1  -2   3    2.54    0.15
   1  -2   3    2.26    0.18
  -2   2  -3    7.01    0.53
  -2   2  -3    8.71    0.51
   2  -2   3    7.56    0.47
  -3   2  -3    5.40    0.38
   3  -2   3    5.63    0.32
   3  -2   3    4.98    0.35
  -4   2  -3    0.67    0.12
   4  -2   3    0.63    0.11
  -5   2  -3    0.52    0.11
   5  -2   3    0.35    0.09
  -6   2  -3    3.28    0.29
   6  -2   3    3.17    0.27
  -7   2  -3   -0.20    0.19
  -7   2  -3    0.48    0.12
   7  -2   3    0.30    0.11
  -8   2  -3    0.49    0.13
   8  -2   3    0.31    0.12
  -9   2  -3    0.16    0.08
   8   1  -3    0.24    0.13
   8   1  -3    0.37    0.13
   8   1  -3    0.26    0.16
  -8  -1   3    0.27    0.25
   7   1  -3    1.38    0.22
   7   1  -3    1.51    0.16
   7   1  -3    1.34    0.19
   6   1  -3    3.63    0.30
   6   1  -3    3.43    0.28
   6   1  -3    3.85    0.26
  -6  -1   3    2.77    0.50
   5   1  -3    0.81    0.15
   5   1  -3    0.54    0.12
  -5  -1   3    0.59    0.22
   4   1  -3    4.72    0.32
   4   1  -3    4.43    0.32
  -4  -1   3    4.89    0.44
   3   1  -3    1.25    0.15
   3   1  -3    1.47    0.16
  -3  -1   3    1.60    0.22
   2   1  -3    3.47    0.23
   2   1  -3    2.97    0.22
  -2  -1   3    3.53    0.32
   1   1  -3    1.76    0.14
   1   1  -3    1.75    0.14
   1   1  -3    1.60    0.17
  -1  -1   3    1.66    0.12
   0   1  -3    6.08    0.38
   0   1  -3    6.02    0.42
   0   1  -3    5.98    0.41
   0   1  -3    7.42    0.37
   0  -1   3    6.80    0.41
   0  -1   3    6.88    0.44
   0  -1   3    6.09    0.39
   0  -1   3    7.57    0.37
  -1   1  -3    0.01    0.04
  -1   1  -3    0.04    0.03
  -1   1  -3    0.00    0.04
   1  -1   3    0.09    0.03
   1  -1   3    0.00    0.03
   1  -1   3    0.04    0.04
   1  -1   3    0.06    0.02
  -2   1  -3    1.25    0.14
  -2   1  -3    1.40    0.13
   2  -1   3    1.37    0.13
   2  -1   3    1.25    0.13
  -3   1  -3    0.66    0.16
  -3   1  -3    0.85    0.13
   3  -1   3    0.78    0.11
  -4   1  -3    0.12    0.10
  -4   1  -3    0.16    0.07
   4  -1   3    0.17    0.07
  -5   1  -3    0.00    0.12
  -5   1  -3    0.12    0.07
   5  -1   3    0.05    0.06
  -6   1  -3    2.20    0.21
  -6   1  -3    1.48    0.36
   6  -1   3    2.28    0.20
  -7   1  -3    6.17    0.62
  -7   1  -3    7.14    0.49
   7  -1   3    6.85    0.45
  -8   1  -3    0.21    0.09
  -8   1  -3   -0.17    0.20
   8  -1   3    0.00    0.10
   8  -1   3    0.01    0.10
  -9   1  -3    0.23    0.09
   9  -1   3    0.00    0.10
   8   0  -3   -0.02    0.12
   8   0  -3    0.12    0.14
  -8   0   3    0.31    0.26
   7   0  -3    1.68    0.23
   7   0  -3    1.41    0.19
   6   0  -3    0.22    0.13
   6   0  -3    0.05    0.09
  -6   0   3    0.18    0.21
   5   0  -3    4.56    0.34
   5   0  -3    4.47    0.33
  -5   0   3    5.09    0.50
   4   0  -3    5.49    0.37
   4   0  -3    5.37    0.37
  -4   0   3    5.61    0.49
   3   0  -3    7.29    0.46
   3   0  -3    7.60    0.45
  -3   0   3    7.70    0.61
   2   0  -3    0.02    0.05
   2   0  -3    0.08    0.05
  -2   0   3    0.06    0.08
   1   0  -3    0.65    0.08
   1   0  -3    0.57    0.07
   1   0  -3    0.48    0.06
   1   0  -3    0.43    0.08
  -1   0   3    0.46    0.06
   0   0  -3    0.23    0.05
   0   0  -3    0.13    0.04
   0   0  -3    0.05    0.03
   0   0   3    0.14    0.03
   0   0   3    0.15    0.04
  -1   0  -3    0.59    0.08
  -1   0  -3    0.55    0.07
  -1   0  -3    0.47    0.04
  -1   0  -3    0.51    0.06
   1   0   3    0.53    0.07
   1   0   3    0.60    0.07
   1   0   3    0.43    0.05
  -2   0  -3    1.57    0.13
   2   0   3    1.57    0.13
   2   0   3    1.53    0.10
  -3   0  -3   87.69    5.68
  -3   0  -3   84.12    4.72
   3   0   3   73.70    3.81
   3   0   3   76.79    4.43
  -4   0  -3    2.39    0.20
  -4   0  -3    2.30    0.25
   4   0   3    1.87    0.15
   4   0   3    2.71    0.18
  -5   0  -3    0.65    0.12
  -5   0  -3    0.95    0.18
   5   0   3    0.80    0.11
   5   0   3    0.69    0.09
  -6   0  -3    0.56    0.20
  -6   0  -3    0.38    0.12
   6   0   3    0.28    0.09
   6   0   3    0.23    0.09
  -7   0  -3    0.28    0.23
  -7   0  -3    0.59    0.13
  -7   0  -3    0.30    0.23
   7   0   3    0.32    0.12
   7   0   3    0.33    0.10
  -8   0  -3    1.01    0.14
  -8   0  -3    0.86    0.32
   8   0   3    1.08    0.17
   8   0   3    1.03    0.16
   8   0   3    0.88    0.15
  -9   0  -3    0.22    0.08
  -9   0  -3   -0.30    0.25
   9   0   3    0.12    0.14
   9   0   3    0.09    0.10
   8  -1  -3    0.49    0.15
   8  -1  -3    0.86    0.21
   7  -1  -3   -0.01    0.10
   7  -1  -3    0.06    0.13
  -7   1   3    0.05    0.19
   6  -1  -3    0.58    0.15
   6  -1  -3    0.54    0.14
  -6   1   3    0.36    0.23
   5  -1  -3    1.65    0.15
   5  -1  -3    1.84    0.20
  -5   1   3    1.79    0.33
   4  -1  -3    5.45    0.36
  -4   1   3    5.69    0.50
   3  -1  -3    2.55    0.19
  -3   1   3    2.79    0.28
  -2   1   3    3.31    0.30
   1  -1  -3    1.76    0.16
   1  -1  -3    1.92    0.13
  -1   1   3    1.60    0.13
   0  -1  -3  161.17    9.65
   0  -1  -3  159.82    9.18
   0   1   3  159.66    9.63
   0   1   3  189.62    9.18
  -1  -1  -3   11.84    0.69
  -1  -1  -3   12.69    0.73
  -1  -1  -3   12.54    0.59
  -1  -1  -3   12.26    0.80
   1   1   3   10.52    0.80
   1   1   3   12.70    0.69
  -2  -1  -3   35.86    1.71
  -2  -1  -3   34.72    2.35
  -2  -1  -3   38.81    2.56
   2   1   3   37.08    2.56
   2   1   3   34.23    1.71
   2   1   3   35.24    1.99
   3   1   3    1.41    0.14
   3   1   3    1.64    0.12
  -4  -1  -3    0.62    0.11
  -4  -1  -3    0.73    0.15
   4   1   3    0.74    0.09
   4   1   3    0.69    0.08
   4   1   3    0.55    0.09
  -5  -1  -3    3.60    0.32
  -5  -1  -3    2.59    0.23
   5   1   3    2.85    0.20
   5   1   3    2.95    0.22
   5   1   3    2.93    0.21
  -6  -1  -3   23.87    1.45
   6   1   3   24.20    1.35
   6   1   3   22.92    1.18
  -7  -1  -3    3.53    0.44
  -7  -1  -3    3.78    0.30
   7   1   3    3.07    0.26
   7   1   3    3.61    0.30
   7   1   3    3.60    0.28
  -8  -1  -3   -0.28    0.23
  -8  -1  -3    0.07    0.05
   8   1   3    0.04    0.08
   8   1   3    0.02    0.10
   8   1   3   -0.11    0.09
  -9  -1  -3    0.03    0.29
  -9  -1  -3    0.29    0.09
   9   1   3    0.14    0.13
   9   1   3    0.12    0.11
   8  -2  -3    0.60    0.19
   8  -2  -3    0.20    0.14
   7  -2  -3    0.31    0.13
  -6   2   3    0.81    0.30
  -4   2   3    0.03    0.14
   3  -2  -3    0.28    0.07
   3  -2  -3    0.29    0.07
  -3   2   3    0.19    0.06
   2  -2  -3    5.85    0.36
  -2   2   3    5.29    0.40
   1  -2  -3    5.84    0.37
   1  -2  -3    5.42    0.34
  -1   2   3    5.57    0.35
  -1   2   3    5.10    0.37
  -1   2   3    6.30    0.41
   0  -2  -3   11.23    0.66
   0  -2  -3   11.66    0.64
   0   2   3   10.42    0.66
   0   2   3   11.46    0.64
   0   2   3   10.66    0.76
  -1  -2  -3   12.45    0.82
  -1  -2  -3   12.41    0.73
   1   2   3   11.69    0.82
   1   2   3   11.94    0.69
  -2  -2  -3    6.78    0.59
  -2  -2  -3    9.07    0.55
   2   2   3    7.85    0.47
   2   2   3    8.15    0.60
   2   2   3    7.62    0.54
  -3  -2  -3   23.62    1.91
   3   2   3   30.55    1.29
   3   2   3   26.04    1.50
  -4  -2  -3    7.23    0.56
   4   2   3    6.17    0.41
   4   2   3    6.65    0.38
  -5  -2  -3    4.14    0.36
   5   2   3    3.12    0.25
   5   2   3    3.38    0.23
  -6  -2  -3    0.65    0.13
  -6  -2  -3    1.01    0.24
   6   2   3    0.36    0.11
   6   2   3    0.53    0.10
   6   2   3    0.56    0.13
  -7  -2  -3    5.27    0.38
  -7  -2  -3    5.88    0.55
   7   2   3    5.10    0.37
   7   2   3    5.07    0.33
   7   2   3    4.59    0.36
  -8  -2  -3    0.00    0.24
  -8  -2  -3    0.15    0.06
   8   2   3    0.08    0.09
   8   2   3   -0.08    0.08
   8   2   3    0.06    0.10
  -9  -2  -3    2.81    0.44
  -9  -2  -3    2.63    0.24
   9   2   3    2.60    0.27
   9   2   3    2.59    0.25
  -4   3   3   -0.01    0.07
  -3   3   3   11.62    0.79
  -2   3   3    1.65    0.20
   1  -3  -3    5.08    0.32
  -1   3   3    5.04    0.39
   0   3   3    3.57    0.27
   0   3   3    2.92    0.24
   0   3   3    3.55    0.28
  -1  -3  -3    2.49    0.22
  -1  -3  -3    2.12    0.18
   1   3   3    2.60    0.20
   1   3   3    2.72    0.22
  -2  -3  -3    0.05    0.04
  -2  -3  -3   -0.02    0.06
   2   3   3    0.00    0.05
   2   3   3    0.03    0.05
   2   3   3    0.02    0.05
  -3  -3  -3    3.31    0.32
   3   3   3    3.58    0.22
   3   3   3    3.63    0.26
   3   3   3    3.93    0.29
   3   3   3    3.58    0.22
  -4  -3  -3    6.19    0.51
   4   3   3    6.29    0.36
   4   3   3    6.03    0.34
   4   3   3    6.06    0.39
  -5  -3  -3    0.11    0.17
   5   3   3    0.11    0.06
   5   3   3    0.01    0.05
   5   3   3    0.21    0.08
  -6  -3  -3    1.78    0.33
   6   3   3    1.44    0.20
   6   3   3    1.28    0.15
   6   3   3    1.42    0.15
  -7  -3  -3    2.94    0.45
  -7  -3  -3    1.91    0.19
   7   3   3    1.88    0.21
   7   3   3    1.94    0.18
  -8  -3  -3    0.29    0.08
  -8  -3  -3    0.17    0.25
   8   3   3    0.23    0.12
   8   3   3    0.19    0.10
   8   3   3    0.09    0.09
  -9  -3  -3    0.15    0.06
  -9  -3  -3    0.08    0.27
   9   3   3    0.06    0.10
   9   3   3    0.01    0.11
  -4   4   3    0.12    0.10
  -3   4   3    1.25    0.19
  -2   4   3    2.20    0.25
   1  -4  -3   22.55    1.16
  -1   4   3   21.71    1.47
  -1   4   3   20.06    1.41
   0  -4  -3    8.47    0.50
   0   4   3    8.62    0.61
   0   4   3    8.94    0.63
  -1  -4  -3    0.00    0.06
   1   4   3    0.00    0.05
   1   4   3    0.03    0.06
   2   4   3    8.26    0.53
   2   4   3    8.20    0.59
   3   4   3    5.38    0.31
   3   4   3    5.68    0.38
   3   4   3    5.35    0.42
   3   4   3    5.36    0.33
   4   4   3    1.71    0.15
   4   4   3    1.46    0.14
   4   4   3    1.68    0.20
  -5  -4  -3    0.01    0.15
   5   4   3    0.06    0.07
   5   4   3    0.04    0.10
   5   4   3   -0.04    0.05
  -6  -4  -3    1.40    0.35
   6   4   3    0.88    0.12
   6   4   3    1.18    0.21
   6   4   3    0.69    0.12
  -7  -4  -3    4.49    0.49
   7   4   3    2.97    0.27
   7   4   3    4.05    0.36
   7   4   3    3.08    0.24
  -8  -4  -3    0.37    0.27
  -8  -4  -3    0.14    0.05
   8   4   3    0.01    0.09
   8   4   3    0.00    0.08
  -9  -4  -3    0.41    0.30
   9   4   3    0.09    0.12
   9   4   3    0.03    0.10
  -5   5   3    1.85    0.26
  -4   5   3    1.13    0.19
  -3   5   3    0.64    0.15
   2  -5  -3    0.20    0.09
  -2   5   3    0.24    0.11
   1  -5  -3    1.45    0.18
  -1   5   3    1.18    0.19
  -1   5   3    1.59    0.19
   0  -5  -3    0.49    0.10
   0   5   3    0.39    0.10
   0   5   3    0.51    0.12
  -1  -5  -3    1.56    0.17
   1   5   3    1.33    0.16
   1   5   3    1.40    0.18
   2   5   3    0.10    0.08
   3   5   3   15.64    1.09
   3   5   3   15.73    0.80
  -4  -5  -3    0.07    0.11
   4   5   3   -0.01    0.06
   4   5   3   -0.01    0.06
   5   5   3    3.66    0.27
   5   5   3    3.64    0.25
   6   5   3    1.51    0.18
   6   5   3    1.47    0.15
   7   5   3    0.20    0.09
   7   5   3    0.15    0.10
   8   5   3    0.14    0.09
   8   5   3    0.09    0.11
  -5   6   3   -0.01    0.13
  -4   6   3    0.42    0.15
  -3   6   3    0.40    0.17
  -3   6   3    0.36    0.13
   2  -6  -3    0.09    0.10
  -2   6   3    0.18    0.11
  -2   6   3    0.15    0.10
   1  -6  -3    2.41    0.24
  -1   6   3    2.11    0.26
  -1   6   3    2.21    0.25
   0  -6  -3    4.21    0.31
   0   6   3    4.18    0.36
   0   6   3    3.50    0.35
  -1  -6  -3    1.73    0.20
   1   6   3    1.62    0.21
   1   6   3    1.58    0.19
  -2  -6  -3    4.21    0.30
   2   6   3    3.98    0.35
   2   6   3    4.12    0.35
   3   6   3    2.26    0.23
   3   6   3    2.28    0.26
   4   6   3    2.94    0.27
   4   6   3    2.14    0.22
   4   6   3    2.59    0.21
   5   6   3    4.11    0.28
   5   6   3    3.96    0.30
   6   6   3    0.23    0.10
   6   6   3    0.16    0.10
   7   6   3    0.13    0.09
   7   6   3    0.05    0.10
   8   6   3   -0.06    0.08
   8   6   3    0.00    0.11
  -5   7   3    0.64    0.21
  -4   7   3    0.21    0.16
  -4   7   3    0.20    0.19
   3  -7  -3    0.23    0.12
  -3   7   3    0.32    0.18
  -3   7   3    0.14    0.13
   2  -7  -3    0.00    0.11
  -2   7   3    0.06    0.13
  -2   7   3    0.07    0.12
   1  -7  -3   -0.07    0.10
  -1   7   3    0.17    0.13
  -1   7   3    0.10    0.11
   0  -7  -3    0.06    0.10
   0   7   3    0.29    0.12
   0   7   3    0.58    0.15
  -1  -7  -3    1.09    0.16
   1   7   3    1.06    0.16
   1   7   3    1.09    0.19
  -2  -7  -3    0.39    0.12
   2   7   3    0.32    0.13
   2   7   3    0.59    0.15
   3   7   3    3.05    0.31
   3   7   3    2.88    0.29
   4   7   3    1.39    0.24
   4   7   3    0.80    0.18
   5   7   3    0.47    0.12
   5   7   3    0.20    0.11
   6   7   3    0.13    0.09
   6   7   3    0.03    0.10
   7   7   3   -0.03    0.11
   7   7   3    0.22    0.11
  -4   8   3    0.18    0.15
  -4   8   3    0.12    0.20
   3  -8  -3   -0.04    0.12
  -3   8   3    0.15    0.14
  -3   8   3    0.09    0.17
   2  -8  -3    0.09    0.12
  -2   8   3   -0.06    0.12
  -2   8   3   -0.01    0.14
   1  -8  -3    0.20    0.12
  -1   8   3    0.17    0.15
  -1   8   3    0.25    0.13
   0  -8  -3    0.57    0.14
   0   8   3    0.58    0.16
   0   8   3    0.87    0.21
  -1  -8  -3    0.10    0.12
   1   8   3    0.18    0.13
   1   8   3    0.42    0.14
  -2  -8  -3    0.22    0.14
   2   8   3    0.42    0.14
   2   8   3    0.35    0.14
  -3  -8  -3    0.24    0.12
   3   8   3    0.32    0.13
   3   8   3    0.10    0.13
   4   8   3    0.83    0.19
   4   8   3    1.16    0.22
   5   8   3   -0.06    0.11
   6   8   3    0.01    0.12
   6   8   3   -0.04    0.10
   2  -9  -3    0.07    0.13
  -2   9   3    0.05    0.13
  -2   9   3    0.13    0.16
   1  -9  -3   -0.07    0.12
  -1   9   3    0.00    0.14
  -1   9   3    0.10    0.14
   0  -9  -3   -0.12    0.11
   0   9   3    0.14    0.15
   0   9   3    0.11    0.13
  -1  -9  -3    0.52    0.16
   1   9   3    0.83    0.20
   1   9   3    1.08    0.24
  -2  -9  -3    3.46    0.33
   2   9   3    4.04    0.41
   2   9   3    3.48    0.39
  -3  -9  -3    1.82    0.24
   3   9   3    1.99    0.29
   3   9   3    2.00    0.28
  -4  -9  -3    0.14    0.13
   4   9   3    0.19    0.11
   4   9   3   -0.03    0.12
  -1  -8   4    0.09    0.13
   0   8  -4    0.04    0.12
   0  -8   4    0.06    0.13
  -1   8  -4    0.03    0.11
   1  -8   4   -0.04    0.13
  -2   8  -4    0.00    0.11
   2  -8   4    0.11    0.13
   3   7  -4   -0.05    0.10
  -1  -7   4   -0.01    0.12
   0   7  -4    0.28    0.13
   0  -7   4    0.21    0.12
  -1   7  -4    0.27    0.12
   1  -7   4    0.18    0.12
  -2   7  -4    0.24    0.12
   2  -7   4    0.20    0.12
  -3   7  -4    0.12    0.12
   3  -7   4    0.04    0.12
  -4   7  -4    0.03    0.12
   4  -7   4   -0.10    0.13
   5  -7   4   -0.05    0.13
   5   6  -4    0.57    0.16
   4   6  -4    0.07    0.12
   3   6  -4    0.99    0.18
   2   6  -4    0.25    0.12
  -1  -6   4    4.30    0.34
   0   6  -4    5.37    0.45
   0  -6   4    5.49    0.40
  -1   6  -4    4.86    0.42
   1  -6   4    5.61    0.39
  -2   6  -4    1.89    0.22
   2  -6   4    2.13    0.26
  -3   6  -4    3.66    0.34
   3  -6   4    3.89    0.34
  -4   6  -4    0.06    0.12
  -4   6  -4    0.12    0.15
   4  -6   4    0.08    0.12
  -5   6  -4    0.42    0.16
  -5   6  -4    0.52    0.20
   5  -6   4    0.54    0.15
  -6   6  -4    0.16    0.16
  -6   6  -4   -0.01    0.11
   6  -6   4   -0.09    0.12
   6   5  -4    0.28    0.13
   5   5  -4    0.15    0.07
   5   5  -4    0.00    0.11
   5   5  -4    0.09    0.11
  -5  -5   4    0.23    0.23
   4   5  -4    0.52    0.14
   4   5  -4    0.33    0.09
   4   5  -4    0.48    0.14
  -4  -5   4    0.48    0.22
   3   5  -4    1.74    0.21
   3   5  -4    1.77    0.15
   3   5  -4    1.51    0.19
   2   5  -4    0.21    0.11
   2   5  -4    0.16    0.09
   0   5  -4    2.46    0.24
   0  -5   4    2.60    0.24
  -1   5  -4    0.00    0.08
   1  -5   4    0.01    0.07
  -2   5  -4   23.59    1.57
  -2   5  -4   20.98    1.45
   2  -5   4   24.95    1.27
  -3   5  -4    9.21    0.68
  -3   5  -4    8.45    0.65
   3  -5   4    9.51    0.57
  -4   5  -4    0.25    0.13
  -4   5  -4    0.13    0.14
   4  -5   4    0.18    0.12
   4  -5   4    0.20    0.11
  -5   5  -4    1.29    0.23
  -5   5  -4    1.33    0.25
   5  -5   4    1.20    0.19
  -6   5  -4    0.23    0.11
   6  -5   4    0.24    0.12
  -7   5  -4    0.10    0.08
   7  -5   4    0.03    0.12
   6   4  -4   -0.07    0.07
   6   4  -4   -0.04    0.10
   6   4  -4   -0.11    0.10
  -6  -4   4   -0.05    0.22
   5   4  -4    1.36    0.16
   5   4  -4    1.54    0.21
   5   4  -4    1.49    0.21
  -5  -4   4    2.02    0.39
   4   4  -4   -0.03    0.06
   4   4  -4   -0.05    0.11
   4   4  -4    0.05    0.09
  -4  -4   4    0.02    0.18
   3   4  -4    0.20    0.10
   3   4  -4    0.34    0.10
   3   4  -4    0.18    0.06
  -3  -4   4    0.19    0.15
   2   4  -4    1.26    0.15
   2   4  -4    1.31    0.11
   2   4  -4    1.36    0.17
  -2  -4   4    1.01    0.13
   1   4  -4    1.17    0.15
   1   4  -4    0.89    0.13
   0   4  -4    2.67    0.21
   0   4  -4    2.37    0.22
   0  -4   4    2.74    0.22
  -1   4  -4    2.20    0.22
  -1   4  -4    1.84    0.23
   1  -4   4    3.05    0.14
  -2   4  -4    1.42    0.16
  -2   4  -4    1.47    0.19
  -3   4  -4   14.75    0.94
  -3   4  -4   12.84    0.99
   3  -4   4   14.79    0.87
   3  -4   4   14.92    0.81
  -4   4  -4    2.11    0.25
  -4   4  -4    2.52    0.27
   4  -4   4    2.73    0.26
   4  -4   4    2.73    0.25
  -5   4  -4   11.16    0.79
   5  -4   4   11.47    0.72
  -6   4  -4    7.05    0.52
   6  -4   4    6.29    0.47
  -7   4  -4    0.12    0.08
   7  -4   4   -0.08    0.10
  -8   4  -4    1.06    0.21
   8  -4   4    0.83    0.18
   7   3  -4    0.16    0.11
   7   3  -4   -0.04    0.11
   7   3  -4    0.18    0.13
  -7  -3   4    0.23    0.26
   6   3  -4   -0.11    0.08
   6   3  -4   -0.02    0.10
   6   3  -4   -0.14    0.09
  -6  -3   4   -0.29    0.23
   5   3  -4    8.43    0.45
   5   3  -4    7.68    0.50
   5   3  -4    7.41    0.51
  -5  -3   4    7.79    0.74
   4   3  -4    3.95    0.31
   4   3  -4    4.14    0.27
   4   3  -4    3.94    0.30
  -4  -3   4    4.12    0.43
   3   3  -4    1.48    0.18
   3   3  -4    1.54    0.14
   3   3  -4    1.62    0.18
  -3  -3   4    1.55    0.14
  -3  -3   4    1.58    0.24
   2   3  -4    0.65    0.11
   2   3  -4    0.67    0.10
   2   3  -4    0.76    0.08
  -2  -3   4    1.01    0.10
  -2  -3   4    0.48    0.08
  -2  -3   4    0.74    0.18
   1   3  -4    0.12    0.07
   1   3  -4    0.12    0.04
   1   3  -4    0.06    0.06
   1   3  -4    0.09    0.07
  -1  -3   4    0.12    0.05
  -1  -3   4    0.12    0.06
   0   3  -4   -0.04    0.05
   0   3  -4    0.04    0.05
   0   3  -4    0.01    0.06
   0   3  -4   -0.07    0.05
   0  -3   4   -0.01    0.04
  -1   3  -4    6.17    0.43
  -1   3  -4    5.70    0.41
  -1   3  -4    6.15    0.38
  -1   3  -4    6.29    0.44
   1  -3   4    6.52    0.41
  -2   3  -4    1.80    0.19
  -2   3  -4    1.99    0.17
   2  -3   4    1.88    0.19
  -3   3  -4    7.36    0.57
  -3   3  -4    8.22    0.56
   3  -3   4    8.66    0.52
  -4   3  -4    6.72    0.48
   4  -3   4    6.34    0.44
  -5   3  -4    2.20    0.23
   5  -3   4    1.85    0.22
  -6   3  -4    4.15    0.35
   6  -3   4    3.99    0.33
  -7   3  -4    0.08    0.09
   7  -3   4   -0.01    0.10
  -8   3  -4    0.54    0.15
   8  -3   4    0.40    0.13
   7   2  -4    0.02    0.10
   7   2  -4   -0.11    0.10
   7   2  -4    0.08    0.11
  -7  -2   4   -0.12    0.21
   6   2  -4    1.54    0.16
   6   2  -4    1.29    0.18
   6   2  -4    1.48    0.19
  -6  -2   4    1.64    0.40
   5   2  -4    1.57    0.19
   5   2  -4    1.71    0.15
   5   2  -4    1.56    0.19
  -5  -2   4    1.87    0.36
   4   2  -4   10.39    0.59
   4   2  -4    9.95    0.52
   4   2  -4    9.38    0.60
  -4  -2   4    9.48    0.81
   3   2  -4    2.71    0.18
   3   2  -4    2.66    0.23
   3   2  -4    2.93    0.23
  -3  -2   4    2.88    0.32
   2   2  -4    6.38    0.42
   2   2  -4    6.33    0.41
   2   2  -4    6.69    0.35
  -2  -2   4    7.86    0.41
   1   2  -4    9.39    0.59
   1   2  -4    9.10    0.53
   1   2  -4    8.84    0.45
   1   2  -4    9.74    0.54
   1   2  -4    8.27    0.57
  -1  -2   4    8.99    0.54
  -1  -2   4   10.18    0.64
   0   2  -4    0.05    0.05
   0   2  -4    0.05    0.06
   0   2  -4    0.01    0.07
   0   2  -4    0.01    0.04
   0  -2   4    0.04    0.04
   0  -2   4    0.01    0.04
   0  -2   4    0.05    0.04
  -1   2  -4    6.09    0.37
  -1   2  -4    6.13    0.42
  -1   2  -4    6.40    0.42
  -1   2  -4    5.72    0.40
   1  -2   4    6.62    0.39
  -2   2  -4    4.48    0.31
  -2   2  -4    3.89    0.29
  -2   2  -4    4.02    0.30
   2  -2   4    4.18    0.29
  -3   2  -4    2.03    0.20
  -3   2  -4    1.97    0.19
   3  -2   4    2.01    0.19
  -4   2  -4    0.94    0.16
   4  -2   4    1.13    0.15
  -5   2  -4    0.84    0.15
   5  -2   4    0.97    0.15
  -6   2  -4    9.26    0.67
   6  -2   4   10.41    0.63
  -7   2  -4    0.52    0.21
  -7   2  -4    1.01    0.18
   7  -2   4    0.90    0.15
  -8   2  -4    0.09    0.07
   8  -2   4   -0.04    0.10
  -9   2  -4    0.11    0.07
   9  -2   4   -0.08    0.10
   9  -2   4    0.04    0.12
   7   1  -4    0.09    0.11
   7   1  -4    0.00    0.10
   7   1  -4    0.02    0.12
  -7  -1   4    0.21    0.25
   6   1  -4    0.83    0.16
   6   1  -4    0.90    0.14
   6   1  -4    0.82    0.17
  -6  -1   4    0.79    0.32
   5   1  -4    0.09    0.09
   5   1  -4    0.16    0.11
  -5  -1   4    0.09    0.18
   4   1  -4    0.07    0.08
   4   1  -4    0.04    0.08
  -4  -1   4    0.01    0.15
   3   1  -4    0.38    0.10
   3   1  -4    0.43    0.09
  -3  -1   4    0.48    0.15
   2   1  -4   12.90    0.74
   2   1  -4   13.48    0.81
   2   1  -4   12.45    0.72
   1   1  -4   44.88    2.31
   1   1  -4   43.98    2.51
   1   1  -4   44.61    2.27
   1   1  -4   36.68    2.51
  -1  -1   4   44.58    2.37
   0   1  -4   34.95    2.08
   0   1  -4   36.80    2.07
   0   1  -4   33.89    1.90
   0   1  -4   37.53    1.86
   0  -1   4   34.76    1.86
   0  -1   4   34.55    2.31
   0  -1   4   35.22    1.97
  -1   1  -4    0.38    0.08
  -1   1  -4    0.22    0.05
  -1   1  -4    0.20    0.07
   1  -1   4    0.38    0.07
  -2   1  -4   85.96    4.58
  -2   1  -4   73.53    4.51
   2  -1   4   76.95    4.31
   2  -1   4   76.08    3.68
  -3   1  -4    2.93    0.22
   3  -1   4    2.22    0.20
   3  -1   4    2.15    0.14
  -4   1  -4    1.54    0.21
  -4   1  -4    1.93    0.18
   4  -1   4    1.74    0.13
   4  -1   4    1.68    0.17
  -5   1  -4    0.53    0.12
  -5   1  -4    0.53    0.16
   5  -1   4    0.44    0.09
   5  -1   4    0.42    0.10
  -6   1  -4    3.08    0.35
  -6   1  -4    3.85    0.31
   6  -1   4    3.87    0.28
   6  -1   4    3.24    0.24
  -7   1  -4    5.87    0.46
   7  -1   4    6.14    0.43
   7  -1   4    6.46    0.38
  -8   1  -4    0.08    0.18
  -8   1  -4    0.10    0.08
   8  -1   4    0.15    0.10
   8  -1   4    0.14    0.11
  -9   1  -4    0.07    0.21
  -9   1  -4    0.30    0.10
   9  -1   4    0.15    0.12
   9  -1   4    0.00    0.10
   7   0  -4    0.11    0.13
   7   0  -4    0.27    0.13
  -7   0   4    0.17    0.23
   6   0  -4    0.02    0.11
   6   0  -4    0.26    0.11
  -6   0   4    0.02    0.23
   5   0  -4   -0.13    0.10
   5   0  -4    0.00    0.10
  -5   0   4    0.01    0.19
   4   0  -4   -0.06    0.07
   4   0  -4   -0.10    0.08
  -4   0   4   -0.01    0.14
   3   0  -4    4.46    0.34
   3   0  -4    5.31    0.33
  -3   0   4    5.20    0.45
   2   0  -4    2.94    0.24
   2   0  -4    2.46    0.19
   2   0  -4    2.67    0.21
   1   0  -4    1.14    0.12
   1   0  -4    1.15    0.14
   1   0  -4    1.19    0.15
   1   0  -4    1.22    0.10
  -1   0   4    1.19    0.10
   0   0  -4    7.75    0.44
   0   0  -4    6.51    0.44
   0   0  -4    8.74    0.48
   0   0   4    7.49    0.45
  -1   0  -4    1.54    0.13
  -1   0  -4    1.61    0.16
   1   0   4    1.79    0.14
  -2   0  -4   26.08    1.56
  -2   0  -4   28.52    1.58
   2   0   4   25.25    1.26
   2   0   4   25.99    1.48
  -3   0  -4   44.55    2.60
   3   0   4   44.39    2.09
   3   0   4   43.04    2.45
  -4   0  -4    1.60    0.16
  -4   0  -4    1.65    0.20
   4   0   4    1.32    0.12
   4   0   4    1.58    0.15
  -5   0  -4   25.38    1.48
   5   0   4   22.85    1.18
  -6   0  -4    3.64    0.31
  -6   0  -4    4.05    0.43
   6   0   4    4.01    0.26
  -7   0  -4   20.95    1.67
   7   0   4   22.46    1.29
   7   0   4   23.13    1.12
  -8   0  -4    0.10    0.07
  -8   0  -4   -0.16    0.18
   8   0   4   -0.02    0.10
   8   0   4    0.18    0.11
   8   0   4   -0.01    0.08
  -9   0  -4    0.51    0.13
  -9   0  -4    0.46    0.27
   9   0   4    0.32    0.12
   9   0   4    0.50    0.16
   7  -1  -4    0.02    0.13
   7  -1  -4    0.15    0.12
  -7   1   4    0.23    0.22
   6  -1  -4    0.98    0.18
   6  -1  -4    1.35    0.20
  -6   1   4    0.86    0.33
   5  -1  -4    2.67    0.26
   5  -1  -4    2.43    0.25
  -5   1   4    3.20    0.37
   4  -1  -4    1.58    0.13
  -4   1   4    1.67    0.26
   3  -1  -4    1.19    0.12
  -3   1   4    1.45    0.23
   2  -1  -4    0.48    0.11
   2  -1  -4    0.84    0.08
   1  -1  -4    0.02    0.03
   1  -1  -4   -0.01    0.07
  -1   1   4    0.04    0.04
   0  -1  -4    1.77    0.16
   0  -1  -4    1.50    0.14
   0   1   4    1.89    0.14
  -1  -1  -4   11.15    0.67
  -1  -1  -4   11.38    0.53
   1   1   4    9.93    0.72
   1   1   4   11.03    0.63
  -2  -1  -4    1.55    0.16
  -2  -1  -4    1.45    0.10
  -2  -1  -4    1.47    0.12
   2   1   4    1.35    0.14
   2   1   4    1.42    0.11
  -3  -1  -4    8.25    0.63
  -3  -1  -4    8.02    0.55
   3   1   4    8.40    0.49
   3   1   4    7.57    0.41
  -4  -1  -4   16.81    1.17
  -4  -1  -4   15.68    0.98
   4   1   4   15.31    0.78
   4   1   4   15.44    0.92
  -5  -1  -4   11.06    0.89
   5   1   4   12.59    0.71
   5   1   4   11.38    0.60
  -6  -1  -4   38.05    2.70
   6   1   4   38.44    2.09
   6   1   4   36.52    1.81
   6   1   4   35.31    1.98
  -7  -1  -4    8.10    0.66
   7   1   4    6.95    0.49
   7   1   4    6.64    0.46
   7   1   4    7.34    0.43
  -8  -1  -4   -0.06    0.20
  -8  -1  -4    0.29    0.09
   8   1   4    0.08    0.10
   8   1   4    0.11    0.10
   8   1   4    0.16    0.10
  -9  -1  -4    0.02    0.25
  -9  -1  -4    0.31    0.10
   9   1   4    0.04    0.10
   9   1   4    0.27    0.13
   7  -2  -4   -0.04    0.14
   7  -2  -4    0.23    0.14
  -7   2   4    0.74    0.27
   6  -2  -4   -0.06    0.10
  -6   2   4    0.20    0.24
   3  -2  -4    1.54    0.16
  -3   2   4    1.83    0.17
   2  -2  -4   16.84    1.09
   2  -2  -4   18.10    1.02
  -2   2   4   19.32    1.18
   1  -2  -4    2.70    0.23
  -1   2   4    2.91    0.24
  -1   2   4    3.06    0.26
   0  -2  -4    0.45    0.08
   0   2   4    0.46    0.07
  -1  -2  -4    4.71    0.32
   1   2   4    4.96    0.31
   1   2   4    4.44    0.34
  -2  -2  -4    1.28    0.13
   2   2   4    1.35    0.12
   2   2   4    1.18    0.14
   2   2   4    1.19    0.12
  -3  -2  -4   23.08    1.28
  -3  -2  -4   17.13    1.39
   3   2   4   17.20    1.09
  -4  -2  -4    0.15    0.06
  -4  -2  -4    0.17    0.10
   4   2   4    0.11    0.06
   4   2   4    0.19    0.05
  -5  -2  -4    9.51    0.73
   5   2   4    8.81    0.56
  -6  -2  -4    0.13    0.21
  -6  -2  -4    0.20    0.10
   6   2   4    0.28    0.13
   6   2   4    0.05    0.08
   6   2   4   -0.13    0.08
  -7  -2  -4    9.70    0.80
   7   2   4    8.98    0.59
   7   2   4    8.80    0.55
  -8  -2  -4    0.35    0.23
  -8  -2  -4    0.42    0.10
   8   2   4    0.19    0.10
   8   2   4    0.08    0.10
   8   2   4    0.37    0.12
  -9  -2  -4    1.64    0.19
  -9  -2  -4    1.99    0.41
   9   2   4    2.24    0.25
   9   2   4    1.87    0.23
  -4   3   4    0.31    0.10
  -3   3   4    0.09    0.07
  -2   3   4   31.03    2.01
   1  -3  -4  309.92   18.82
  -1   3   4  345.40   20.63
  -1   3   4  329.08   17.95
   0  -3  -4    1.42    0.14
   0   3   4    1.69    0.19
   0   3   4    1.33    0.16
   0   3   4    1.26    0.18
  -1  -3  -4    2.24    0.18
   1   3   4    2.04    0.20
   1   3   4    2.27    0.23
  -2  -3  -4    3.10    0.26
   2   3   4    2.83    0.24
   2   3   4    3.01    0.25
  -3  -3  -4    1.99    0.19
   3   3   4    1.94    0.18
   3   3   4    2.06    0.15
   3   3   4    2.04    0.19
  -4  -3  -4    0.09    0.09
   4   3   4    0.02    0.04
   4   3   4    0.10    0.03
   4   3   4    0.08    0.06
  -5  -3  -4    1.99    0.23
   5   3   4    1.20    0.13
   5   3   4    1.53    0.17
   5   3   4    1.34    0.12
   6   3   4    3.82    0.26
   6   3   4    4.23    0.31
   6   3   4    4.12    0.28
  -7  -3  -4    1.94    0.18
  -7  -3  -4    1.41    0.37
   7   3   4    1.43    0.17
   7   3   4    1.97    0.25
   7   3   4    1.61    0.19
  -8  -3  -4    0.02    0.21
  -8  -3  -4    0.25    0.07
   8   3   4    0.02    0.08
   8   3   4    0.12    0.10
   8   3   4    0.08    0.09
  -9  -3  -4    0.11    0.25
  -9  -3  -4    0.43    0.10
   9   3   4    0.20    0.12
   9   3   4    0.25    0.12
  -4   4   4    0.22    0.11
  -3   4   4    0.04    0.09
  -2   4   4    0.47    0.12
   1  -4  -4   45.97    2.32
  -1   4   4   42.46    2.94
  -1   4   4   44.14    2.85
   0   4   4   43.91    2.84
   0   4   4   44.52    2.93
   1   4   4    0.21    0.08
   1   4   4    0.38    0.12
   2   4   4   26.61    1.83
   2   4   4   28.25    1.57
   3   4   4    0.08    0.06
   3   4   4    0.01    0.05
   3   4   4    0.05    0.07
  -4  -4  -4    0.62    0.15
   4   4   4    0.66    0.09
   4   4   4    0.68    0.13
  -5  -4  -4    1.73    0.24
   5   4   4    1.54    0.14
   5   4   4    1.79    0.22
   5   4   4    1.40    0.15
  -6  -4  -4    5.07    0.51
   6   4   4    5.53    0.41
   6   4   4    5.01    0.32
   6   4   4    5.00    0.34
  -7  -4  -4    1.66    0.34
   7   4   4    1.37    0.21
   7   4   4    1.04    0.15
   7   4   4    0.81    0.13
  -8  -4  -4    0.23    0.07
  -8  -4  -4    0.24    0.23
   8   4   4    0.05    0.09
   8   4   4    0.18    0.15
   8   4   4    0.10    0.09
  -9  -4  -4    0.24    0.08
  -9  -4  -4   -0.02    0.24
   9   4   4    0.04    0.11
   9   4   4    0.01    0.09
  -5   5   4    0.15    0.12
  -4   5   4   -0.06    0.10
  -3   5   4    0.67    0.16
  -2   5   4   -0.02    0.09
   1  -5  -4    0.73    0.12
  -1   5   4    0.41    0.12
  -1   5   4    0.72    0.15
   0  -5  -4    0.90    0.12
   0   5   4    0.59    0.13
   0   5   4    0.85    0.15
   1   5   4    0.34    0.09
   1   5   4    0.58    0.12
   2   5   4    0.77    0.14
   2   5   4    0.65    0.12
   3   5   4   10.33    0.79
   3   5   4   11.96    0.70
   4   5   4    1.98    0.24
   4   5   4    1.98    0.20
   4   5   4    1.82    0.18
   4   5   4    1.80    0.16
   5   5   4    2.18    0.20
   5   5   4    2.41    0.29
   5   5   4    2.02    0.18
   6   5   4    0.50    0.11
   6   5   4    0.33    0.09
   6   5   4    0.68    0.23
  -7  -5  -4    0.68    0.25
   7   5   4    0.23    0.09
   7   5   4    0.32    0.15
   7   5   4    0.29    0.09
  -8  -5  -4   -0.08    0.23
   8   5   4    0.10    0.09
   8   5   4    0.06    0.17
   8   5   4    0.12    0.10
  -5   6   4    1.97    0.30
  -4   6   4    0.06    0.12
  -3   6   4    0.15    0.12
   2  -6  -4    0.13    0.10
  -2   6   4    0.20    0.10
  -2   6   4    0.10    0.11
   1  -6  -4    0.16    0.10
  -1   6   4    0.07    0.10
  -1   6   4    0.21    0.10
   0  -6  -4    0.16    0.09
   0   6   4    0.31    0.11
   0   6   4    0.18    0.10
  -1  -6  -4    2.24    0.23
   1   6   4    2.14    0.22
   1   6   4    2.06    0.24
  -2  -6  -4    0.48    0.11
   2   6   4    0.50    0.12
   2   6   4    0.69    0.13
   3   6   4    0.29    0.10
   4   6   4    2.15    0.19
   4   6   4    2.57    0.25
   5   6   4    0.09    0.09
   5   6   4    0.19    0.10
   6   6   4    1.72    0.17
   6   6   4    1.76    0.21
   7   6   4    0.10    0.10
   7   6   4    0.14    0.10
   8   6   4    0.03    0.10
   8   6   4   -0.02    0.10
  -5   7   4    0.12    0.16
  -4   7   4    3.30    0.39
  -4   7   4    4.05    0.40
  -3   7   4   -0.01    0.12
  -3   7   4    0.39    0.14
   2  -7  -4    2.64    0.29
  -2   7   4    2.91    0.30
  -2   7   4    2.42    0.32
   1  -7  -4    0.31    0.13
  -1   7   4    0.28    0.14
  -1   7   4    0.53    0.14
   0  -7  -4    2.79    0.27
   0   7   4    2.98    0.29
   0   7   4    2.56    0.30
  -1  -7  -4    0.11    0.10
   1   7   4    0.17    0.09
   1   7   4    0.12    0.10
  -2  -7  -4   -0.09    0.09
   2   7   4    0.02    0.09
   2   7   4    0.24    0.09
  -3  -7  -4   -0.04    0.09
   3   7   4   -0.05    0.09
   3   7   4    0.14    0.09
   4   7   4    1.10    0.17
   5   7   4    0.04    0.09
   6   7   4   -0.03    0.10
   6   7   4    0.04    0.09
   7   7   4    0.08    0.11
   7   7   4    0.14    0.11
  -4   8   4    0.04    0.14
  -4   8   4    0.00    0.17
  -3   8   4    0.06    0.14
  -3   8   4    0.13    0.09
   2  -8  -4    0.71    0.18
  -2   8   4    1.28    0.19
  -2   8   4    0.73    0.20
   1  -8  -4    3.86    0.33
  -1   8   4    3.01    0.36
  -1   8   4    3.72    0.36
   0  -8  -4    0.06    0.11
   0   8   4    0.27    0.11
   0   8   4    0.26    0.13
  -1  -8  -4    0.21    0.12
   1   8   4    0.70    0.16
   1   8   4    0.34    0.15
  -2  -8  -4    0.19    0.12
   2   8   4    0.16    0.13
   2   8   4    0.45    0.13
  -3  -8  -4    2.62    0.29
   3   8   4    3.18    0.30
   3   8   4    2.49    0.31
  -4  -8  -4    0.37    0.13
   4   8   4    0.57    0.17
   5   8   4    0.06    0.12
   6   8   4   -0.05    0.13
   6   8   4    0.01    0.10
   2  -9  -4   -0.10    0.13
  -2   9   4    0.02    0.16
  -2   9   4    0.19    0.15
   1  -9  -4    0.01    0.13
  -1   9   4    0.04    0.13
  -1   9   4    0.20    0.11
   0  -9  -4    0.33    0.16
   0   9   4    0.97    0.19
   0   9   4    0.66    0.19
   1   9   4    0.38    0.13
   1   9   4    0.29    0.15
  -2  -9  -4    3.76    0.35
   2   9   4    3.64    0.40
   2   9   4    3.99    0.37
  -3  -9  -4    0.24    0.13
   3   9   4    0.62    0.14
   3   9   4    0.39    0.16
  -4  -9  -4    0.23    0.13
   4   9   4    0.37    0.11
   4   9   4    0.13    0.14
  -2  -7   5    0.00    0.12
  -1  -7   5    0.10    0.11
   0  -7   5    0.16    0.12
   1  -7   5    0.16    0.12
   2  -7   5    0.71    0.16
   3  -7   5    0.11    0.14
   3  -7   5   -0.11    0.12
   4  -7   5    0.35    0.16
   4  -7   5    0.41    0.17
   4   6  -5    0.02    0.12
   3   6  -5    0.01    0.10
  -3  -6   5    0.07    0.11
   2   6  -5   -0.03    0.10
  -1  -6   5   -0.01    0.10
   0  -6   5    0.42    0.14
  -1   6  -5    0.06    0.10
   1  -6   5    0.02    0.10
  -2   6  -5   -0.01    0.09
   2  -6   5    0.05    0.10
  -3   6  -5   -0.10    0.12
  -3   6  -5   -0.02    0.08
   3  -6   5   -0.01    0.10
   3  -6   5    0.01    0.12
  -4   6  -5    0.12    0.15
   4  -6   5    0.08    0.12
   4  -6   5    0.20    0.13
  -5   6  -5    0.16    0.17
   5  -6   5    0.28    0.14
   5  -6   5   -0.01    0.11
   5   5  -5    0.11    0.12
   5   5  -5    0.20    0.12
   4   5  -5    0.07    0.11
   4   5  -5    0.03    0.10
  -4  -5   5    0.13    0.19
   3   5  -5    0.09    0.11
   3   5  -5    0.11    0.10
  -3  -5   5    0.04    0.09
  -3  -5   5    0.06    0.16
   2   5  -5    0.84    0.15
   2   5  -5    0.62    0.13
  -2  -5   5    0.57    0.14
  -2  -5   5    0.34    0.17
   0  -5   5    3.51    0.30
  -1   5  -5    2.99    0.31
  -1   5  -5    3.28    0.28
  -2   5  -5    2.14    0.22
  -2   5  -5    2.10    0.26
   2  -5   5    2.46    0.25
  -3   5  -5    1.80    0.20
  -3   5  -5    1.76    0.26
   3  -5   5    1.84    0.23
   3  -5   5    1.98    0.23
  -4   5  -5    0.40    0.17
  -4   5  -5    0.48    0.13
   4  -5   5    0.59    0.15
  -5   5  -5    0.05    0.12
  -5   5  -5    0.19    0.16
   5  -5   5    0.08    0.11
  -6   5  -5   -0.04    0.15
   6  -5   5    0.16    0.13
  -7   5  -5    0.21    0.10
   7  -5   5    0.28    0.14
   6   4  -5   -0.01    0.10
   5   4  -5   -0.17    0.10
   5   4  -5   -0.12    0.10
   5   4  -5   -0.04    0.07
  -5  -4   5   -0.06    0.20
   4   4  -5    0.26    0.08
   4   4  -5    0.26    0.13
   4   4  -5    0.33    0.13
  -4  -4   5    0.40    0.22
   3   4  -5    2.00    0.16
   3   4  -5    2.10    0.22
   3   4  -5    2.14    0.22
  -3  -4   5    2.23    0.19
  -3  -4   5    2.20    0.30
   2   4  -5    0.47    0.07
   2   4  -5    0.58    0.13
   2   4  -5    0.50    0.12
  -2  -4   5    0.38    0.10
   1   4  -5    0.08    0.09
   1   4  -5    0.14    0.08
  -1  -4   5    0.12    0.09
   0   4  -5    2.93    0.24
   0   4  -5    2.73    0.26
   0  -4   5    2.88    0.24
  -1   4  -5    4.04    0.33
  -1   4  -5    4.22    0.35
   1  -4   5    4.81    0.33
  -2   4  -5    6.68    0.51
  -2   4  -5    6.67    0.48
   2  -4   5    6.65    0.47
  -3   4  -5    0.58    0.12
  -3   4  -5    0.65    0.18
   3  -4   5    0.53    0.14
  -4   4  -5    0.11    0.13
  -4   4  -5    0.03    0.09
   4  -4   5    0.01    0.10
   4  -4   5    0.11    0.09
  -5   4  -5    0.14    0.12
  -5   4  -5    0.20    0.14
   5  -4   5    0.12    0.10
  -6   4  -5    0.59    0.16
   6  -4   5    0.56    0.14
  -7   4  -5    0.03    0.08
   7  -4   5    0.07    0.12
   6   3  -5    0.08    0.11
   6   3  -5    0.07    0.09
   6   3  -5   -0.03    0.11
  -6  -3   5    0.10    0.26
   5   3  -5    4.17    0.36
   5   3  -5    4.86    0.32
   5   3  -5    4.69    0.35
  -5  -3   5    4.52    0.50
   4   3  -5    2.69    0.26
   4   3  -5    2.74    0.26
   4   3  -5    3.25    0.23
  -4  -3   5    3.23    0.39
   3   3  -5    1.15    0.12
   3   3  -5    1.09    0.15
   3   3  -5    1.14    0.16
  -3  -3   5    1.28    0.12
  -3  -3   5    1.25    0.25
   2   3  -5    0.14    0.08
   2   3  -5    0.17    0.08
   2   3  -5    0.16    0.04
  -2  -3   5    0.09    0.07
  -2  -3   5   -0.06    0.12
   1   3  -5    1.21    0.15
   1   3  -5    1.17    0.16
   1   3  -5    1.24    0.15
   1   3  -5    0.99    0.13
  -1  -3   5    1.26    0.13
   0   3  -5    0.07    0.09
   0   3  -5    0.07    0.08
   0   3  -5    0.04    0.07
   0   3  -5    0.09    0.06
   0  -3   5    0.11    0.07
   0  -3   5    0.13    0.06
  -1   3  -5    7.17    0.45
  -1   3  -5    7.07    0.51
  -1   3  -5    7.57    0.50
   1  -3   5    7.82    0.48
  -2   3  -5    0.61    0.09
  -2   3  -5    0.64    0.14
  -2   3  -5    0.45    0.11
   2  -3   5    0.58    0.11
  -3   3  -5   22.49    1.49
  -3   3  -5   21.21    1.39
   3  -3   5   23.35    1.30
  -4   3  -5    1.14    0.16
  -4   3  -5    1.30    0.20
   4  -3   5    1.03    0.15
  -5   3  -5    1.94    0.25
   5  -3   5    2.20    0.24
  -6   3  -5    0.84    0.17
   6  -3   5    0.52    0.15
  -7   3  -5    0.38    0.13
   7  -3   5    0.52    0.14
  -8   3  -5    0.13    0.08
   8  -3   5    0.07    0.12
   6   2  -5    0.19    0.14
   6   2  -5    0.30    0.11
   6   2  -5    0.21    0.12
  -6  -2   5    0.06    0.28
   5   2  -5    0.69    0.14
   5   2  -5    0.49    0.14
   5   2  -5    0.51    0.11
  -5  -2   5    0.55    0.25
   4   2  -5    6.21    0.43
   4   2  -5    6.25    0.42
   4   2  -5    6.39    0.36
  -4  -2   5    6.52    0.59
   3   2  -5    0.80    0.09
   3   2  -5    0.87    0.14
   3   2  -5    0.83    0.13
  -3  -2   5    0.69    0.20
   2   2  -5    2.69    0.24
   2   2  -5    3.10    0.18
   2   2  -5    2.92    0.24
  -2  -2   5    3.45    0.21
   1   2  -5   -0.03    0.06
   1   2  -5    0.04    0.08
   1   2  -5    0.11    0.06
   1   2  -5    0.11    0.06
  -1  -2   5    0.09    0.05
  -1  -2   5    0.19    0.05
   0   2  -5    0.18    0.07
   0   2  -5    0.24    0.09
   0   2  -5    0.17    0.07
   0   2  -5    0.24    0.07
   0  -2   5    0.14    0.05
   0  -2   5    0.25    0.06
  -1   2  -5    0.38    0.09
  -1   2  -5    0.24    0.06
  -1   2  -5    0.48    0.10
   1  -2   5    0.41    0.08
  -2   2  -5    0.55    0.12
  -2   2  -5    0.56    0.10
   2  -2   5    0.54    0.11
  -3   2  -5   13.05    0.83
  -3   2  -5   12.94    0.85
   3  -2   5   14.13    0.80
   3  -2   5   13.18    0.65
  -4   2  -5    0.20    0.11
  -4   2  -5    0.08    0.10
   4  -2   5    0.13    0.06
   4  -2   5    0.17    0.09
  -5   2  -5    0.83    0.17
   5  -2   5    0.80    0.15
  -6   2  -5    0.21    0.10
   6  -2   5    0.10    0.08
   6  -2   5   -0.05    0.09
  -7   2  -5    0.11    0.08
   7  -2   5    0.05    0.08
   7  -2   5   -0.09    0.09
  -8   2  -5    0.18    0.10
   8  -2   5    0.14    0.10
   8  -2   5    0.00    0.11
   7   1  -5    0.29    0.14
   7   1  -5    0.35    0.12
   7   1  -5    0.33    0.14
  -7  -1   5    0.64    0.31
   6   1  -5    1.38    0.20
   6   1  -5    1.45    0.18
   6   1  -5    1.19    0.20
  -6  -1   5    1.08    0.36
   5   1  -5    0.32    0.11
   5   1  -5    0.10    0.11
  -5  -1   5    0.02    0.19
   4   1  -5    1.48    0.19
   4   1  -5    1.23    0.17
  -4  -1   5    1.51    0.29
   3   1  -5    4.18    0.32
   3   1  -5    4.33    0.31
  -3  -1   5    4.99    0.44
   2   1  -5    0.51    0.11
   2   1  -5    0.71    0.11
   2   1  -5    0.63    0.10
  -2  -1   5    0.73    0.08
   1   1  -5    0.77    0.10
   1   1  -5    0.60    0.09
   1   1  -5    0.83    0.13
   1   1  -5    0.77    0.11
  -1  -1   5    0.84    0.08
   0   1  -5    1.04    0.11
   0   1  -5    1.12    0.15
   0   1  -5    0.78    0.11
   0   1  -5    0.89    0.11
   0  -1   5    0.85    0.09
   0  -1   5    1.02    0.10
  -1   1  -5    3.98    0.30
  -1   1  -5    3.92    0.29
  -1   1  -5    3.74    0.26
   1  -1   5    4.49    0.28
  -2   1  -5   26.04    1.61
  -2   1  -5   28.33    1.64
   2  -1   5   27.13    1.54
  -3   1  -5   14.91    0.90
  -3   1  -5   14.12    0.88
   3  -1   5   14.07    0.69
   3  -1   5   13.79    0.84
  -4   1  -5    3.71    0.30
   4  -1   5    3.62    0.28
   4  -1   5    3.63    0.21
  -5   1  -5    3.40    0.29
   5  -1   5    2.93    0.26
   5  -1   5    3.16    0.21
  -6   1  -5    0.63    0.15
  -6   1  -5    0.46    0.21
   6  -1   5    0.51    0.11
   6  -1   5    0.33    0.11
  -7   1  -5   -0.26    0.14
  -7   1  -5    0.07    0.08
   7  -1   5   -0.07    0.07
   7  -1   5    0.00    0.08
  -8   1  -5    0.29    0.11
  -8   1  -5    0.16    0.18
   8  -1   5    0.11    0.10
   8  -1   5    0.18    0.12
  -9   1  -5    0.07    0.06
  -9   1  -5    0.12    0.17
   9  -1   5    0.09    0.12
   9  -1   5    0.08    0.11
   7   0  -5    1.56    0.23
   7   0  -5    1.59    0.24
  -7   0   5    1.03    0.38
   6   0  -5    0.18    0.11
   6   0  -5    0.00    0.11
  -6   0   5   -0.01    0.23
   5   0  -5    2.89    0.26
   5   0  -5    2.64    0.25
  -5   0   5    2.72    0.38
   4   0  -5    0.74    0.14
   4   0  -5    0.81    0.14
  -4   0   5    0.85    0.24
   3   0  -5    1.55    0.16
   3   0  -5    1.67    0.19
  -3   0   5    1.63    0.26
   2   0  -5    0.15    0.10
   2   0  -5    0.13    0.05
   2   0  -5    0.33    0.10
   2   0  -5    0.26    0.08
   1   0  -5   17.77    1.04
   1   0  -5   17.65    0.96
   1   0  -5   17.45    0.93
  -1   0   5   15.71    0.97
   0   0  -5    0.59    0.10
   0   0  -5    0.71    0.09
   0   0   5    0.61    0.08
  -1   0  -5    2.03    0.17
  -1   0  -5    1.99    0.20
  -1   0  -5    2.20    0.18
   1   0   5    2.42    0.18
  -2   0  -5    0.08    0.08
  -2   0  -5    0.09    0.07
   2   0   5    0.08    0.05
   2   0   5    0.11    0.04
  -3   0  -5    0.18    0.08
  -3   0  -5    0.24    0.09
   3   0   5    0.23    0.04
   3   0   5    0.13    0.06
  -4   0  -5    0.02    0.07
   4   0   5   -0.01    0.04
   4   0   5   -0.07    0.05
  -5   0  -5    3.36    0.35
  -5   0  -5    3.25    0.28
   5   0   5    3.90    0.28
   5   0   5    2.99    0.22
  -6   0  -5   10.52    0.79
  -6   0  -5    9.07    0.66
   6   0   5    9.47    0.52
  -7   0  -5    0.18    0.09
   7   0   5    0.00    0.08
   7   0   5    0.28    0.11
  -8   0  -5    0.04    0.17
  -8   0  -5    0.31    0.11
   8   0   5    0.32    0.12
   8   0   5    0.36    0.12
   8   0   5    0.15    0.10
  -9   0  -5    0.09    0.19
  -9   0  -5    0.31    0.10
   9   0   5    0.23    0.12
   9   0   5    0.35    0.14
   9   0   5    0.23    0.13
   7  -1  -5    0.91    0.19
   7  -1  -5    0.77    0.18
  -7   1   5    0.69    0.29
   6  -1  -5    0.19    0.12
   6  -1  -5    0.14    0.12
  -6   1   5   -0.06    0.21
   5  -1  -5    1.72    0.23
  -5   1   5    1.87    0.33
   4  -1  -5   -0.03    0.09
   4  -1  -5    0.02    0.10
  -4   1   5   -0.05    0.16
   3  -1  -5   -0.02    0.04
   3  -1  -5   -0.09    0.06
  -3   1   5   -0.01    0.12
   2  -1  -5    3.04    0.23
   2  -1  -5    2.80    0.27
  -2   1   5    3.24    0.20
   1  -1  -5    0.38    0.09
   1  -1  -5    0.36    0.08
  -1   1   5    0.58    0.09
   0  -1  -5    0.53    0.09
   0   1   5    0.69    0.09
  -1  -1  -5    3.04    0.24
  -1  -1  -5    3.19    0.18
   1   1   5    3.32    0.23
  -2  -1  -5    8.36    0.52
  -2  -1  -5    7.79    0.40
   2   1   5    7.78    0.49
  -3  -1  -5    0.52    0.08
   3   1   5    0.53    0.06
   3   1   5    0.47    0.09
  -4  -1  -5   -0.05    0.09
  -4  -1  -5    0.03    0.05
  -4  -1  -5    0.06    0.06
   4   1   5    0.00    0.04
   4   1   5    0.03    0.06
  -5  -1  -5    0.26    0.14
  -5  -1  -5    0.36    0.10
   5   1   5    0.31    0.08
   5   1   5    0.30    0.09
  -6  -1  -5    2.35    0.29
  -6  -1  -5    2.18    0.23
   6   1   5    3.05    0.25
   6   1   5    2.12    0.20
  -7  -1  -5    6.80    0.66
   7   1   5    8.48    0.52
   7   1   5    7.37    0.44
   7   1   5    7.96    0.47
  -8  -1  -5    0.32    0.09
  -8  -1  -5    0.46    0.21
   8   1   5    0.18    0.10
   8   1   5    0.23    0.12
   8   1   5    0.15    0.09
  -9  -1  -5    0.06    0.20
  -9  -1  -5    0.30    0.10
   9   1   5   -0.06    0.11
   9   1   5    0.06    0.10
   9   1   5   -0.05    0.11
   7  -2  -5   -0.09    0.12
   7  -2  -5    0.02    0.14
   6  -2  -5    0.28    0.13
   6  -2  -5    0.22    0.14
  -5   2   5    3.36    0.42
   2  -2  -5    0.13    0.10
  -2   2   5    0.33    0.06
   1  -2  -5   16.20    1.03
  -1   2   5   16.49    0.97
  -1   2   5   17.93    1.11
   0  -2  -5    0.41    0.08
   0   2   5    0.35    0.07
  -1  -2  -5    2.33    0.20
   1   2   5    2.99    0.21
   1   2   5    2.19    0.20
  -2  -2  -5    6.23    0.42
  -2  -2  -5    6.31    0.45
   2   2   5    6.11    0.39
   2   2   5    6.00    0.43
  -3  -2  -5   17.09    1.23
   3   2   5   19.54    0.91
   3   2   5   18.87    1.06
  -4  -2  -5    1.18    0.20
  -4  -2  -5    1.10    0.12
   4   2   5    0.95    0.13
   4   2   5    0.92    0.11
  -5  -2  -5    6.26    0.49
   5   2   5    5.13    0.38
  -6  -2  -5    2.89    0.25
  -6  -2  -5    2.29    0.31
   6   2   5    2.75    0.25
   6   2   5    2.48    0.20
  -7  -2  -5    0.19    0.10
   7   2   5   -0.06    0.08
   7   2   5   -0.09    0.08
   7   2   5    0.01    0.12
  -8  -2  -5    0.24    0.08
  -8  -2  -5    0.09    0.17
   8   2   5    0.03    0.09
   8   2   5    0.06    0.11
   8   2   5    0.17    0.09
  -9  -2  -5   -0.17    0.20
  -9  -2  -5    0.10    0.06
   9   2   5   -0.12    0.08
   9   2   5   -0.08    0.11
   9   2   5    0.02    0.10
  -4   3   5    0.96    0.16
  -3   3   5    0.09    0.09
   2  -3  -5    2.41    0.25
  -2   3   5    2.76    0.24
   1  -3  -5    2.62    0.24
  -1   3   5    3.23    0.24
  -1   3   5    3.25    0.28
   0  -3  -5    8.15    0.54
   0   3   5    8.94    0.53
   0   3   5    8.67    0.62
  -1  -3  -5   15.74    0.95
   1   3   5   16.28    0.92
   1   3   5   15.24    1.07
  -2  -3  -5   -0.04    0.06
  -2  -3  -5   -0.02    0.07
   2   3   5    0.00    0.06
   2   3   5    0.00    0.06
  -3  -3  -5    1.45    0.16
   3   3   5    1.48    0.15
   3   3   5    1.66    0.14
   3   3   5    1.48    0.16
  -4  -3  -5    0.04    0.10
   4   3   5    0.05    0.07
   4   3   5   -0.05    0.05
  -5  -3  -5    0.90    0.17
   5   3   5    0.73    0.10
   5   3   5    0.82    0.14
  -6  -3  -5   25.66    1.78
   6   3   5   22.65    1.19
   6   3   5   23.75    1.39
  -7  -3  -5    0.33    0.09
  -7  -3  -5    0.01    0.16
   7   3   5    0.05    0.08
   7   3   5   -0.01    0.07
   7   3   5    0.11    0.10
  -8  -3  -5    0.69    0.13
  -8  -3  -5    0.78    0.25
   8   3   5    0.41    0.11
   8   3   5    0.29    0.12
   8   3   5    0.31    0.09
  -9  -3  -5    0.62    0.26
  -9  -3  -5    0.41    0.11
   9   3   5    0.29    0.11
   9   3   5    0.32    0.12
  -4   4   5    1.22    0.19
  -3   4   5   -0.22    0.11
  -2   4   5    1.41    0.20
  -1   4   5    5.97    0.46
   0   4   5    7.48    0.52
   0   4   5    6.17    0.52
   0   4   5    7.23    0.46
   1   4   5    2.33    0.22
   1   4   5    2.53    0.23
  -2  -4  -5    1.27    0.16
   2   4   5    1.29    0.17
   2   4   5    1.22    0.14
   3   4   5    9.61    0.69
   3   4   5   10.19    0.62
   3   4   5    9.73    0.52
   4   4   5    0.03    0.06
   4   4   5    0.02    0.07
  -5  -4  -5    0.74    0.17
   5   4   5    0.86    0.16
   5   4   5    0.75    0.11
  -6  -4  -5    0.85    0.22
   6   4   5    0.55    0.14
   6   4   5    0.59    0.11
  -7  -4  -5    0.98    0.27
   7   4   5    1.55    0.21
   7   4   5    1.35    0.15
  -8  -4  -5    0.42    0.10
  -8  -4  -5    0.37    0.23
   8   4   5    0.08    0.09
   8   4   5    0.29    0.15
   8   4   5    0.12    0.10
  -9  -4  -5    2.01    0.20
   9   4   5    1.45    0.19
  -5   5   5    0.05    0.13
  -4   5   5    0.51    0.15
  -3   5   5   -0.02    0.13
  -2   5   5    2.30    0.32
   1  -5  -5    3.70    0.27
  -1   5   5    3.22    0.34
  -1   5   5    3.51    0.33
   0   5   5    0.30    0.10
   0   5   5    0.08    0.08
   1   5   5    0.25    0.11
   1   5   5    0.34    0.10
   1   5   5    0.22    0.09
  -2  -5  -5    0.13    0.09
   2   5   5    0.17    0.11
   2   5   5    0.35    0.10
   3   5   5    0.78    0.15
   3   5   5    1.04    0.14
   4   5   5    1.37    0.16
   4   5   5    1.23    0.22
   4   5   5    1.18    0.15
  -5  -5  -5   -0.07    0.12
   5   5   5    0.14    0.16
   5   5   5    0.06    0.08
   5   5   5   -0.03    0.08
  -6  -5  -5    3.12    0.36
   6   5   5    4.10    0.37
   6   5   5    3.22    0.25
  -7  -5  -5    1.30    0.27
   7   5   5    1.17    0.23
   7   5   5    1.18    0.16
  -8  -5  -5    0.20    0.21
   8   5   5   -0.04    0.09
   8   5   5    0.07    0.09
   8   5   5   -0.04    0.16
  -5   6   5    0.52    0.19
  -4   6   5    0.10    0.13
  -3   6   5   -0.02    0.11
  -2   6   5    0.57    0.17
  -2   6   5    1.17    0.22
  -1   6   5    0.20    0.12
  -1   6   5    0.52    0.13
   0   6   5    0.46    0.12
   0   6   5    0.62    0.15
   1   6   5    0.03    0.08
   1   6   5    0.07    0.07
  -2  -6  -5    7.78    0.45
   2   6   5    6.66    0.54
   2   6   5    6.86    0.54
   3   6   5    1.74    0.20
   3   6   5    1.50    0.21
   4   6   5    0.24    0.13
   4   6   5    0.28    0.11
  -5  -6  -5    0.80    0.18
   5   6   5    1.40    0.17
   5   6   5    0.85    0.21
   6   6   5    0.20    0.10
   6   6   5    0.20    0.10
   6   6   5    0.27    0.16
   7   6   5    0.05    0.09
   7   6   5    0.16    0.11
   7   6   5    0.07    0.17
  -8  -6  -5    0.47    0.23
   8   6   5   -0.04    0.17
   8   6   5    0.12    0.11
  -4   7   5    0.41    0.13
  -4   7   5    0.10    0.14
  -3   7   5    0.60    0.15
  -3   7   5    0.23    0.15
  -2   7   5    0.10    0.14
  -2   7   5    0.18    0.09
   1  -7  -5    1.46    0.21
  -1   7   5    1.88    0.22
  -1   7   5    1.38    0.23
   0  -7  -5    0.30    0.11
   0   7   5    0.11    0.11
   0   7   5    0.25    0.10
  -1  -7  -5   -0.01    0.10
   1   7   5   -0.02    0.09
   1   7   5    0.06    0.07
  -2  -7  -5    1.09    0.17
   2   7   5    1.39    0.17
   2   7   5    1.14    0.19
  -3  -7  -5    0.45    0.12
   3   7   5    0.37    0.13
   3   7   5    0.50    0.13
   4   7   5    2.66    0.27
   6   7   5    0.00    0.09
   7   7   5    0.24    0.11
   7   7   5    0.22    0.12
  -3   8   5    0.25    0.16
  -3   8   5    0.25    0.10
   2  -8  -5    0.17    0.12
  -2   8   5    0.18    0.15
  -2   8   5    0.46    0.14
   1  -8  -5    0.15    0.13
  -1   8   5    0.26    0.15
  -1   8   5    0.59    0.14
   0  -8  -5    1.37    0.20
   0   8   5    1.32    0.23
   0   8   5    1.58    0.20
  -1  -8  -5   -0.02    0.12
   1   8   5    0.05    0.11
   1   8   5    0.26    0.09
  -2  -8  -5    1.81    0.24
   2   8   5    1.61    0.26
   2   8   5    2.06    0.23
  -3  -8  -5    0.21    0.12
   3   8   5    0.23    0.14
   3   8   5    0.47    0.12
  -4  -8  -5    1.32    0.20
   4   8   5    1.96    0.22
   4   8   5    1.35    0.24
   5   8   5    0.24    0.16
   1  -9  -5    0.09    0.14
  -1   9   5    0.14    0.14
  -1   9   5    0.22    0.09
   0  -9  -5   -0.24    0.12
   0   9   5    0.33    0.10
   0   9   5    0.10    0.14
  -1  -9  -5   -0.23    0.11
   1   9   5    0.20    0.08
   1   9   5   -0.06    0.12
  -2  -9  -5    0.37    0.15
   2   9   5    0.36    0.10
  -3  -9  -5    1.44    0.21
   3   9   5    1.93    0.22
   3   9   5    1.50    0.27
   4   9   5    0.37    0.11
   4   9   5   -0.05    0.12
   0  -7   6    0.01    0.13
   1  -7   6    0.55    0.18
   1  -7   6    0.46    0.15
   2  -7   6   -0.13    0.14
   2  -7   6    0.17    0.12
  -2  -6   6    0.06    0.10
  -1  -6   6    0.11    0.11
  -1  -6   6    0.25    0.12
   0  -6   6   -0.02    0.10
   0  -6   6    0.10    0.11
   1  -6   6    0.36    0.14
   1  -6   6    0.24    0.11
   2  -6   6   -0.08    0.12
  -3   6  -6    0.10    0.14
   3  -6   6    0.02    0.10
   3  -6   6   -0.06    0.12
  -4   6  -6    0.03    0.15
   4  -6   6    0.11    0.13
   4  -6   6   -0.09    0.11
  -5   6  -6   -0.07    0.16
   5  -6   6    0.00    0.12
   4   5  -6    0.12    0.13
   4   5  -6    0.15    0.12
   3   5  -6    0.02    0.11
   3   5  -6    0.11    0.11
  -3  -5   6   -0.08    0.18
   2   5  -6    0.55    0.14
   2   5  -6    0.76    0.15
  -2  -5   6    0.51    0.12
   1   5  -6    0.45    0.13
  -1  -5   6    0.83    0.15
   0  -5   6    0.55    0.14
  -1   5  -6    1.72    0.26
   1  -5   6    1.83    0.22
  -2   5  -6    0.76    0.19
   2  -5   6    0.70    0.16
  -3   5  -6    0.54    0.18
   3  -5   6    0.58    0.15
  -4   5  -6    0.50    0.19
   4  -5   6    0.52    0.15
  -5   5  -6   -0.10    0.13
   5  -5   6   -0.03    0.10
  -6   5  -6    0.12    0.17
   6  -5   6    0.24    0.14
   5   4  -6   -0.01    0.11
   5   4  -6    0.10    0.12
  -5  -4   6   -0.07    0.22
   4   4  -6    0.36    0.13
   4   4  -6    0.41    0.13
  -4  -4   6    0.10    0.21
   3   4  -6    0.62    0.14
   3   4  -6    0.65    0.14
  -3  -4   6    0.67    0.12
  -3  -4   6    0.61    0.22
   2   4  -6    0.38    0.12
   2   4  -6    0.38    0.12
  -2  -4   6    0.35    0.18
  -2  -4   6    0.60    0.11
   1   4  -6    9.22    0.54
   1   4  -6    8.06    0.54
  -1  -4   6    8.42    0.55
   0   4  -6    2.42    0.26
   0   4  -6    2.72    0.24
   0   4  -6    2.78    0.30
   0  -4   6    2.47    0.24
  -1   4  -6   10.20    0.71
  -1   4  -6   10.48    0.63
   1  -4   6   10.59    0.66
  -2   4  -6    1.79    0.18
  -2   4  -6    2.06    0.25
  -2   4  -6    2.06    0.23
   2  -4   6    2.06    0.24
  -3   4  -6    3.82    0.30
  -3   4  -6    3.92    0.35
   3  -4   6    3.91    0.33
  -4   4  -6    0.28    0.14
   4  -4   6    0.25    0.11
  -5   4  -6    0.22    0.15
   5  -4   6    0.26    0.13
  -6   4  -6    0.14    0.15
   6  -4   6    0.13    0.12
  -7   4  -6    0.43    0.15
   7  -4   6    0.57    0.17
   5   3  -6   -0.19    0.11
   5   3  -6   -0.03    0.10
  -5  -3   6    0.02    0.22
   4   3  -6    0.48    0.14
   4   3  -6    0.38    0.13
  -4  -3   6    0.38    0.22
   3   3  -6    0.00    0.08
   3   3  -6    0.05    0.09
  -3  -3   6    0.01    0.16
   2   3  -6    2.07    0.21
   2   3  -6    2.19    0.22
  -2  -3   6    2.03    0.19
   1   3  -6    0.28    0.09
   1   3  -6    0.36    0.10
   1   3  -6    0.34    0.13
   1   3  -6    0.59    0.11
  -1  -3   6    0.48    0.11
   0   3  -6    0.38    0.11
   0   3  -6    0.29    0.09
   0   3  -6    0.26    0.12
   0   3  -6    0.29    0.09
   0  -3   6    0.31    0.09
   0  -3   6    0.46    0.11
  -1   3  -6    0.01    0.08
  -1   3  -6   -0.02    0.06
   1  -3   6    0.01    0.07
  -2   3  -6   33.48    2.12
  -2   3  -6   35.34    1.90
  -2   3  -6   35.21    2.07
   2  -3   6   36.02    1.99
  -3   3  -6    4.00    0.31
  -3   3  -6    3.50    0.33
   3  -3   6    3.65    0.32
  -4   3  -6    0.73    0.15
  -4   3  -6    1.02    0.20
  -4   3  -6    0.87    0.12
   4  -3   6    1.02    0.09
   4  -3   6    0.89    0.16
  -5   3  -6    3.62    0.35
  -5   3  -6    3.77    0.34
  -5   3  -6    3.55    0.32
   5  -3   6    4.19    0.33
   5  -3   6    4.21    0.24
  -6   3  -6    0.14    0.14
   6  -3   6    0.08    0.07
   6  -3   6    0.05    0.10
  -7   3  -6    0.27    0.11
   7  -3   6    0.07    0.12
   7  -3   6    0.09    0.09
  -8   3  -6    0.10    0.08
   8  -3   6    0.10    0.13
   6   2  -6    1.06    0.18
   6   2  -6    0.91    0.19
   6   2  -6    0.86    0.15
  -6  -2   6    0.68    0.33
   5   2  -6    1.13    0.15
   5   2  -6    1.18    0.19
   5   2  -6    1.43    0.21
  -5  -2   6    2.12    0.34
   4   2  -6    0.91    0.16
   4   2  -6    1.24    0.13
   4   2  -6    1.15    0.18
  -4  -2   6    1.33    0.29
   3   2  -6    0.24    0.10
   3   2  -6    0.26    0.07
   3   2  -6    0.27    0.11
  -3  -2   6    0.10    0.16
   2   2  -6    0.15    0.05
   2   2  -6    0.11    0.09
   2   2  -6    0.19    0.10
   2   2  -6    0.08    0.08
  -2  -2   6    0.20    0.05
   1   2  -6    0.01    0.06
   1   2  -6   -0.05    0.07
   1   2  -6    0.02    0.09
   1   2  -6   -0.05    0.06
  -1  -2   6   -0.01    0.05
  -1  -2   6    0.03    0.05
   0   2  -6    3.46    0.31
   0   2  -6    3.39    0.27
   0   2  -6    3.83    0.26
   0   2  -6    3.77    0.26
   0   2  -6    3.54    0.26
   0  -2   6    3.51    0.27
   0  -2   6    3.91    0.27
  -1   2  -6    1.02    0.12
  -1   2  -6    1.04    0.16
  -1   2  -6    0.82    0.14
   1  -2   6    1.17    0.14
  -2   2  -6    4.19    0.33
  -2   2  -6    3.95    0.27
  -2   2  -6    4.10    0.32
   2  -2   6    4.04    0.31
  -3   2  -6    6.61    0.45
  -3   2  -6    5.86    0.46
   3  -2   6    6.38    0.44
  -4   2  -6    4.43    0.37
  -4   2  -6    4.60    0.37
   4  -2   6    4.38    0.35
   4  -2   6    4.79    0.25
  -5   2  -6   19.27    1.23
  -5   2  -6   19.71    1.28
   5  -2   6   20.67    1.19
   5  -2   6   20.48    0.99
  -6   2  -6    1.80    0.22
   6  -2   6    1.80    0.22
   6  -2   6    1.69    0.17
  -7   2  -6    1.04    0.19
   7  -2   6    1.41    0.17
   7  -2   6    1.16    0.18
  -8   2  -6    1.11    0.21
   8  -2   6    1.17    0.17
   8  -2   6    0.80    0.17
   6   1  -6    0.20    0.11
   6   1  -6    0.11    0.12
   6   1  -6    0.01    0.12
  -6  -1   6    0.31    0.29
   5   1  -6    6.27    0.37
   5   1  -6    6.54    0.45
   5   1  -6    6.10    0.43
  -5  -1   6    5.96    0.61
   4   1  -6    1.40    0.20
   4   1  -6    1.82    0.21
   3   1  -6    0.14    0.08
   3   1  -6    0.13    0.09
  -3  -1   6    0.03    0.14
   2   1  -6    2.66    0.23
   2   1  -6    2.55    0.24
   2   1  -6    2.91    0.27
  -2  -1   6    2.87    0.19
   1   1  -6    0.89    0.12
   1   1  -6    0.64    0.09
   1   1  -6    0.99    0.15
   1   1  -6    0.84    0.11
   0   1  -6    1.04    0.12
   0   1  -6    0.86    0.12
   0   1  -6    1.09    0.12
   0   1  -6    0.88    0.15
   0  -1   6    0.85    0.11
  -1   1  -6    5.07    0.37
  -1   1  -6    5.11    0.33
  -1   1  -6    5.11    0.36
   1  -1   6    5.15    0.34
  -2   1  -6    0.23    0.07
  -2   1  -6    0.38    0.10
  -2   1  -6    0.44    0.10
   2  -1   6    0.25    0.08
  -3   1  -6    0.11    0.09
  -3   1  -6    0.14    0.10
   3  -1   6    0.10    0.07
   3  -1   6    0.10    0.04
  -4   1  -6    7.27    0.51
  -4   1  -6    6.97    0.49
   4  -1   6    6.98    0.37
   4  -1   6    7.10    0.47
  -5   1  -6    0.69    0.16
   5  -1   6    0.78    0.10
   5  -1   6    0.50    0.11
  -6   1  -6   -0.07    0.08
   6  -1   6   -0.06    0.08
   6  -1   6   -0.04    0.07
  -7   1  -6    0.16    0.08
   7  -1   6    0.14    0.11
   7  -1   6    0.05    0.08
  -8   1  -6    0.17    0.09
  -8   1  -6    0.03    0.19
   8  -1   6    0.12    0.10
   8  -1   6    0.08    0.12
   6   0  -6    0.99    0.20
   6   0  -6    0.94    0.19
  -6   0   6    1.13    0.35
   5   0  -6   -0.02    0.10
   5   0  -6   -0.01    0.10
  -5   0   6   -0.10    0.19
   4   0  -6    4.10    0.31
   4   0  -6    3.37    0.28
  -4   0   6    3.51    0.41
   3   0  -6    0.04    0.08
   3   0  -6    0.01    0.09
  -3   0   6    0.08    0.15
   2   0  -6   11.10    0.70
   2   0  -6   10.91    0.61
   2   0  -6   10.03    0.64
   2   0  -6   10.96    0.64
  -2   0   6   10.32    0.62
   1   0  -6    9.43    0.52
   1   0  -6   10.15    0.56
   1   0  -6    8.01    0.56
   1   0  -6    9.58    0.60
  -1   0   6    8.53    0.53
   0   0  -6    1.85    0.16
   0   0  -6    1.64    0.18
   0   0  -6    1.61    0.20
   0   0   6    1.95    0.15
  -1   0  -6    0.62    0.11
  -1   0  -6    0.68    0.10
  -1   0  -6    0.66    0.11
   1   0   6    0.58    0.10
  -2   0  -6    0.07    0.08
  -2   0  -6    0.06    0.08
   2   0   6    0.03    0.06
  -3   0  -6    0.50    0.12
  -3   0  -6    0.42    0.11
   3   0   6    0.39    0.09
   3   0   6    0.36    0.05
  -4   0  -6    0.04    0.09
  -4   0  -6    0.09    0.09
   4   0   6   -0.03    0.06
   4   0   6    0.00    0.04
  -5   0  -6    1.24    0.18
   5   0   6    1.42    0.13
   5   0   6    1.35    0.18
  -6   0  -6   11.47    0.80
   6   0   6   13.23    0.76
   6   0   6   11.50    0.63
  -7   0  -6   -0.01    0.16
  -7   0  -6    0.18    0.08
   7   0   6   -0.03    0.08
   7   0   6   -0.02    0.09
  -8   0  -6    0.19    0.08
  -8   0  -6    0.26    0.19
   8   0   6    0.16    0.09
   8   0   6    0.24    0.13
  -9   0  -6   -0.04    0.19
  -9   0  -6    0.05    0.06
   9   0   6    0.18    0.11
   9   0   6   -0.05    0.11
   6  -1  -6    0.26    0.15
   6  -1  -6    0.24    0.13
  -6   1   6    0.18    0.25
   5  -1  -6    0.08    0.12
   5  -1  -6    0.13    0.12
  -5   1   6    0.02    0.20
   4  -1  -6    0.39    0.14
   4  -1  -6    0.35    0.12
  -4   1   6    0.49    0.21
   3  -1  -6    2.29    0.24
   3  -1  -6    2.45    0.21
  -3   1   6    2.19    0.33
   2  -1  -6    1.26    0.14
   2  -1  -6    0.87    0.15
  -2   1   6    0.98    0.11
   1  -1  -6   16.74    0.90
   1  -1  -6   16.56    1.02
  -1   1   6   16.02    0.94
   0  -1  -6    2.64    0.24
   0   1   6    2.95    0.21
  -1  -1  -6   11.22    0.55
  -1  -1  -6   11.01    0.70
   1   1   6   11.01    0.66
  -2  -1  -6   32.81    1.89
  -2  -1  -6   31.47    1.52
   2   1   6   31.38    1.79
  -3  -1  -6   10.17    0.64
   3   1   6    9.27    0.50
   3   1   6   10.32    0.61
  -4  -1  -6    0.19    0.06
  -4  -1  -6    0.36    0.12
   4   1   6    0.35    0.09
   4   1   6    0.44    0.07
  -5  -1  -6    0.27    0.08
  -5  -1  -6    0.53    0.13
   5   1   6    0.16    0.07
   5   1   6    0.36    0.11
  -6  -1  -6    7.64    0.69
  -6  -1  -6    7.85    0.58
   6   1   6    8.19    0.46
   6   1   6    8.96    0.55
  -7  -1  -6    1.58    0.29
  -7  -1  -6    1.72    0.19
   7   1   6    1.45    0.17
  -8  -1  -6    1.12    0.16
  -8  -1  -6    1.14    0.26
   8   1   6    0.67    0.13
   8   1   6    1.38    0.20
  -9  -1  -6    0.17    0.07
  -9  -1  -6    0.45    0.22
   9   1   6    0.19    0.14
   9   1   6    0.36    0.12
   6  -2  -6    0.15    0.14
   6  -2  -6    0.17    0.13
   5  -2  -6    0.24    0.13
   5  -2  -6    0.23    0.12
  -5   2   6   -0.02    0.19
   4  -2  -6    0.17    0.11
  -4   2   6    0.15    0.18
  -3   2   6    0.87    0.21
   2  -2  -6    0.01    0.09
  -2   2   6    0.07    0.05
   1  -2  -6    0.89    0.15
  -1   2   6    1.06    0.13
  -1   2   6    1.01    0.12
   0  -2  -6    0.28    0.09
   0   2   6    0.17    0.07
  -1  -2  -6   -0.01    0.07
   1   2   6   -0.01    0.06
   1   2   6    0.03    0.06
  -2  -2  -6    7.75    0.50
   2   2   6    7.06    0.46
   2   2   6    7.19    0.51
  -3  -2  -6   10.29    0.71
  -3  -2  -6   10.42    0.66
   3   2   6    9.93    0.53
   3   2   6   10.21    0.62
  -4  -2  -6    3.52    0.29
   4   2   6    3.86    0.28
   4   2   6    3.56    0.23
  -5  -2  -6   17.74    1.39
   5   2   6   19.24    0.92
   5   2   6   18.35    1.08
  -6  -2  -6   11.26    0.80
  -6  -2  -6   12.10    0.98
   6   2   6   13.44    0.77
  -7  -2  -6    4.84    0.38
  -7  -2  -6    4.25    0.47
   7   2   6    5.57    0.39
  -8  -2  -6    2.28    0.32
  -8  -2  -6    2.78    0.25
   8   2   6    2.15    0.27
   8   2   6    2.00    0.21
  -9  -2  -6   -0.03    0.18
  -9  -2  -6    0.11    0.06
   9   2   6    0.03    0.13
   9   2   6   -0.03    0.09
  -6   3   6    0.41    0.26
   2  -3  -6    0.16    0.10
  -2   3   6    0.12    0.08
   1  -3  -6    0.26    0.11
  -1   3   6    0.16    0.09
  -1   3   6    0.16    0.08
   0  -3  -6    0.99    0.14
   0   3   6    1.10    0.14
   0   3   6    1.08    0.14
  -1  -3  -6    1.46    0.17
   1   3   6    1.43    0.16
   1   3   6    1.66    0.17
  -2  -3  -6    1.41    0.19
   2   3   6    1.23    0.14
   2   3   6    1.44    0.16
  -3  -3  -6    5.10    0.37
  -3  -3  -6    4.72    0.38
   3   3   6    5.24    0.36
   3   3   6    4.93    0.37
   4   3   6    0.22    0.07
   4   3   6    0.20    0.09
  -5  -3  -6    2.99    0.33
   5   3   6    2.61    0.21
   5   3   6    2.97    0.29
  -6  -3  -6   10.14    0.84
   6   3   6   11.45    0.56
   6   3   6    9.36    0.66
  -7  -3  -6    0.14    0.16
  -7  -3  -6    0.38    0.10
   7   3   6    0.19    0.09
   7   3   6    0.20    0.13
  -8  -3  -6    2.53    0.33
   8   3   6    2.29    0.28
  -9  -3  -6    0.02    0.20
  -9  -3  -6    0.24    0.08
   9   3   6    0.10    0.10
   9   3   6    0.21    0.14
  -4   4   6    1.05    0.18
  -3   4   6    0.38    0.14
   2  -4  -6   27.09    1.73
  -2   4   6   30.66    1.90
   1  -4  -6    0.64    0.12
  -1   4   6    0.54    0.12
  -1   4   6    0.76    0.14
   0  -4  -6   -0.02    0.08
   0   4   6   -0.02    0.06
   0   4   6   -0.01    0.07
   0   4   6    0.01    0.09
  -1  -4  -6    0.04    0.08
   1   4   6    0.13    0.09
   1   4   6    0.32    0.09
  -2  -4  -6    2.60    0.24
   2   4   6    2.64    0.23
   2   4   6    2.30    0.23
  -3  -4  -6    1.21    0.17
   3   4   6    1.30    0.17
   3   4   6    1.38    0.14
   4   4   6    0.71    0.13
   4   4   6    0.56    0.10
  -5  -4  -6    2.14    0.29
   5   4   6    2.84    0.26
   5   4   6    2.31    0.20
  -6  -4  -6   -0.14    0.15
   6   4   6    0.02    0.08
   6   4   6   -0.15    0.13
  -7  -4  -6    0.80    0.21
   7   4   6    0.95    0.18
   7   4   6    0.79    0.13
  -8  -4  -6    0.64    0.13
  -8  -4  -6    0.49    0.22
   8   4   6    0.73    0.18
   8   4   6    0.21    0.10
  -5   5   6   -0.01    0.12
  -4   5   6    0.00    0.11
  -3   5   6    0.29    0.14
  -2   5   6   21.37    1.44
  -1   5   6   49.56    3.27
  -1   5   6   47.82    3.15
   0   5   6    0.87    0.16
   0   5   6    0.38    0.12
   1   5   6    0.65    0.14
   1   5   6    0.64    0.14
   1   5   6    0.93    0.13
  -2  -5  -6    0.16    0.09
   2   5   6    0.36    0.13
   2   5   6    0.31    0.08
  -3  -5  -6    0.37    0.12
   3   5   6    0.60    0.12
   3   5   6    0.23    0.18
   4   5   6    0.24    0.08
   4   5   6    0.20    0.12
   5   5   6    1.53    0.18
   5   5   6    1.52    0.22
   6   5   6    3.50    0.33
   6   5   6    2.98    0.24
  -7  -5  -6    0.32    0.17
   7   5   6    0.23    0.10
   7   5   6    0.28    0.15
  -8  -5  -6   -0.07    0.17
   8   5   6    0.01    0.10
   8   5   6    0.13    0.17
  -5   6   6    0.12    0.15
  -4   6   6   -0.11    0.13
  -3   6   6   -0.03    0.12
  -2   6   6    0.44    0.14
  -2   6   6    0.07    0.13
  -1   6   6    3.17    0.30
  -1   6   6    2.58    0.31
   0   6   6    1.69    0.24
   0   6   6    1.93    0.22
   1   6   6    0.86    0.17
   1   6   6    1.29    0.16
   2   6   6    7.14    0.57
   2   6   6    7.29    0.56
   2   6   6    7.45    0.53
   3   6   6    0.08    0.12
   3   6   6   -0.02    0.05
   4   6   6    0.60    0.13
   4   6   6    0.22    0.16
   5   6   6    1.78    0.19
   5   6   6    2.48    0.31
   6   6   6    2.15    0.29
   6   6   6    1.88    0.20
  -7  -6  -6    0.00    0.15
   7   6   6   -0.12    0.08
   7   6   6   -0.10    0.17
  -4   7   6    0.42    0.13
  -4   7   6   -0.05    0.14
  -3   7   6    0.29    0.11
  -3   7   6    0.05    0.15
  -2   7   6    0.01    0.13
  -2   7   6    0.27    0.11
   1  -7  -6   -0.01    0.10
  -1   7   6    0.06    0.12
   0   7   6    0.97    0.15
   0   7   6    0.63    0.17
   1   7   6    0.32    0.10
   1   7   6    0.10    0.11
   2   7   6    0.16    0.11
   2   7   6    0.53    0.12
   3   7   6    2.96    0.29
   3   7   6    2.79    0.32
   4   7   6    1.28    0.17
   6   7   6    0.03    0.09
   7   7   6    0.13    0.12
  -3   8   6    0.40    0.14
  -3   8   6    0.23    0.17
  -2   8   6    0.37    0.11
  -2   8   6   -0.03    0.15
  -1   8   6    0.24    0.15
  -1   8   6    0.39    0.12
   0   8   6    0.39    0.12
   0   8   6    0.09    0.13
   1   8   6    0.26    0.09
   1   8   6    0.03    0.12
   2   8   6    0.12    0.07
   2   8   6    0.01    0.12
   3   8   6   -0.02    0.11
   3   8   6    0.18    0.08
   4   8   6    0.17    0.07
   4   8   6    0.09    0.12
  -1   9   6    0.22    0.10
  -1   9   6   -0.02    0.15
   0  -9  -6   -0.13    0.12
   0   9   6    0.07    0.15
   0   9   6    0.20    0.08
  -1  -9  -6    0.06    0.13
   1   9   6   -0.05    0.14
   1   9   6    0.27    0.10
   2   9   6    0.16    0.14
   2   9   6    0.35    0.11
   3   9   6    0.27    0.09
   3   9   6    0.09    0.15
   4   9   6    0.40    0.11
   4   9   6    0.11    0.14
  -1  -6   7    0.16    0.11
   0  -6   7    0.31    0.13
   1  -6   7    0.56    0.16
   2  -6   7    1.01    0.18
   2  -6   7    1.08    0.20
  -3   6  -7    0.71    0.22
   3  -6   7    0.58    0.17
  -3  -5   7   -0.19    0.19
   2   5  -7    0.03    0.10
   2   5  -7   -0.04    0.10
  -2  -5   7    0.12    0.10
   1   5  -7    0.53    0.14
  -1  -5   7    0.80    0.15
   0  -5   7    0.45    0.12
  -1   5  -7    0.09    0.13
   1  -5   7    0.00    0.11
  -2   5  -7    0.60    0.19
   2  -5   7    0.45    0.15
  -3   5  -7   -0.09    0.12
   3  -5   7    0.00    0.11
  -4   5  -7    0.55    0.19
   4  -5   7    0.35    0.14
  -5   5  -7    0.05    0.16
   5  -5   7   -0.05    0.11
   4   4  -7    0.05    0.11
   4   4  -7    0.04    0.11
  -4  -4   7   -0.10    0.21
   3   4  -7    0.10    0.10
   3   4  -7   -0.08    0.10
  -3  -4   7   -0.08    0.16
   2   4  -7    0.36    0.12
   2   4  -7    0.23    0.12
  -2  -4   7    0.23    0.10
   1   4  -7   -0.04    0.09
   1   4  -7   -0.04    0.10
  -1  -4   7   -0.03    0.09
   0   4  -7    0.19    0.13
   0   4  -7    0.08    0.09
   0   4  -7    0.29    0.13
   0  -4   7    0.19    0.10
  -1   4  -7    1.65    0.24
  -1   4  -7    0.90    0.15
  -1   4  -7    1.22    0.19
   1  -4   7    1.79    0.21
  -2   4  -7    1.33    0.23
  -2   4  -7    1.36    0.19
   2  -4   7    1.17    0.20
  -3   4  -7    0.71    0.18
   3  -4   7    0.82    0.17
  -4   4  -7    0.06    0.13
   4  -4   7    0.16    0.11
  -5   4  -7   -0.07    0.13
   5  -4   7   -0.01    0.11
  -6   4  -7    0.74    0.22
   6  -4   7    0.76    0.18
   4   3  -7   -0.21    0.09
   4   3  -7   -0.03    0.11
  -4  -3   7   -0.01    0.20
   3   3  -7    0.05    0.10
   3   3  -7    0.00    0.09
  -3  -3   7    0.00    0.16
   2   3  -7    0.42    0.11
   2   3  -7    0.65    0.13
  -2  -3   7    0.35    0.09
   1   3  -7    0.00    0.08
   1   3  -7    0.03    0.08
   1   3  -7    0.02    0.12
   1   3  -7    0.20    0.09
  -1  -3   7   -0.11    0.07
   0   3  -7    6.77    0.53
   0   3  -7    6.72    0.51
   0   3  -7    8.41    0.46
   0   3  -7    7.29    0.47
   0  -3   7    7.04    0.48
  -1   3  -7    0.28    0.13
  -1   3  -7    0.27    0.14
  -1   3  -7    0.30    0.10
   1  -3   7    0.32    0.12
  -2   3  -7    0.55    0.11
  -2   3  -7    0.70    0.14
  -2   3  -7    1.04    0.19
   2  -3   7    1.21    0.19
  -3   3  -7    0.69    0.17
  -3   3  -7    0.85    0.15
   3  -3   7    0.75    0.16
  -4   3  -7    0.15    0.13
  -4   3  -7    0.09    0.10
   4  -3   7    0.11    0.11
  -5   3  -7    0.60    0.18
  -5   3  -7    0.38    0.14
   5  -3   7    0.66    0.15
  -6   3  -7   -0.02    0.12
  -6   3  -7    0.00    0.13
   6  -3   7    0.12    0.11
  -7   3  -7    0.35    0.15
  -7   3  -7    0.40    0.18
   7  -3   7    0.50    0.15
   5   2  -7    0.02    0.13
   5   2  -7    0.10    0.14
  -5  -2   7    0.44    0.25
   4   2  -7    0.44    0.13
   4   2  -7    0.88    0.17
  -4  -2   7    0.88    0.26
   3   2  -7    0.47    0.13
   3   2  -7    0.35    0.10
  -3  -2   7    0.31    0.19
   2   2  -7    0.27    0.09
   2   2  -7    0.16    0.10
   2   2  -7    0.19    0.12
  -2  -2   7    0.13    0.07
   1   2  -7    0.22    0.08
   1   2  -7    0.28    0.10
   1   2  -7    0.19    0.12
   1   2  -7    0.22    0.08
  -1  -2   7    0.13    0.07
   0   2  -7    3.70    0.26
   0   2  -7    3.03    0.30
   0   2  -7    3.15    0.26
   0   2  -7    3.02    0.26
   0  -2   7    3.06    0.25
  -1   2  -7   -0.02    0.08
  -1   2  -7   -0.16    0.11
  -1   2  -7    0.03    0.07
   1  -2   7    0.11    0.08
  -2   2  -7   10.71    0.68
  -2   2  -7    9.71    0.69
  -2   2  -7   10.48    0.60
   2  -2   7    9.85    0.65
  -3   2  -7    0.50    0.14
  -3   2  -7    0.46    0.12
   3  -2   7    0.42    0.13
  -4   2  -7    0.64    0.16
  -4   2  -7    0.68    0.17
   4  -2   7    0.67    0.15
  -5   2  -7   -0.03    0.12
  -5   2  -7   -0.03    0.12
   5  -2   7    0.11    0.09
  -6   2  -7    0.01    0.13
  -6   2  -7    0.05    0.12
   6  -2   7    0.00    0.07
   6  -2   7    0.11    0.10
  -7   2  -7    0.63    0.17
  -7   2  -7    0.57    0.14
   7  -2   7    0.59    0.15
   7  -2   7    0.38    0.10
  -8   2  -7    0.64    0.16
   8  -2   7    0.63    0.17
   5   1  -7    4.39    0.31
   5   1  -7    4.86    0.38
   5   1  -7    5.92    0.42
  -5  -1   7    4.61    0.54
   4   1  -7    0.80    0.14
   4   1  -7    0.63    0.16
   4   1  -7    0.89    0.12
   3   1  -7    0.27    0.11
   3   1  -7    0.17    0.09
   3   1  -7    0.33    0.08
  -3  -1   7    0.31    0.18
   2   1  -7    0.31    0.09
   2   1  -7    0.39    0.07
   2   1  -7    0.42    0.12
   2   1  -7    0.49    0.13
   1   1  -7    0.09    0.08
   1   1  -7    0.08    0.07
   1   1  -7    0.14    0.07
   1   1  -7    0.08    0.11
  -1  -1   7    0.04    0.06
   0   1  -7    0.16    0.12
   0   1  -7    0.26    0.09
   0   1  -7    0.26    0.09
   0  -1   7    0.21    0.07
  -1   1  -7    3.41    0.31
  -1   1  -7    3.54    0.28
  -1   1  -7    3.73    0.27
   1  -1   7    3.68    0.27
  -2   1  -7    7.85    0.47
  -2   1  -7    8.46    0.55
  -2   1  -7    7.84    0.54
   2  -1   7    7.35    0.50
  -3   1  -7   11.25    0.75
  -3   1  -7   11.30    0.73
   3  -1   7   11.21    0.70
  -4   1  -7    0.39    0.13
  -4   1  -7    0.41    0.13
   4  -1   7    0.22    0.05
   4  -1   7    0.25    0.09
  -5   1  -7    0.08    0.13
  -5   1  -7    0.25    0.13
   5  -1   7    0.24    0.07
   5  -1   7    0.05    0.10
  -6   1  -7    1.64    0.26
  -6   1  -7    1.44    0.21
   6  -1   7    1.25    0.19
   6  -1   7    1.57    0.16
  -7   1  -7    0.16    0.09
   7  -1   7    0.07    0.09
   7  -1   7   -0.02    0.11
  -8   1  -7    0.23    0.11
   8  -1   7    0.11    0.09
   8  -1   7    0.18    0.15
   5   0  -7    0.17    0.12
   5   0  -7    0.11    0.11
  -5   0   7    0.11    0.23
   4   0  -7    2.80    0.28
   4   0  -7    2.86    0.27
  -4   0   7    2.64    0.38
   3   0  -7    1.06    0.17
   3   0  -7    0.92    0.14
  -3   0   7    1.04    0.23
   2   0  -7    2.26    0.23
   2   0  -7    2.52    0.25
   2   0  -7    2.83    0.28
   2   0  -7    2.42    0.19
  -2   0   7    3.03    0.19
   1   0  -7    0.31    0.08
   1   0  -7    0.31    0.11
   1   0  -7    0.28    0.07
   1   0  -7    0.36    0.10
  -1   0   7    0.36    0.08
   0   0  -7    0.00    0.07
   0   0  -7    0.03    0.06
   0   0  -7   -0.11    0.08
   0   0   7    0.11    0.07
  -1   0  -7    2.07    0.23
  -1   0  -7    2.13    0.20
  -1   0  -7    2.31    0.20
   1   0   7    2.03    0.20
  -2   0  -7    8.79    0.58
  -2   0  -7    8.57    0.51
  -2   0  -7    8.59    0.57
   2   0   7    8.66    0.55
  -3   0  -7    0.56    0.14
  -3   0  -7    0.71    0.14
   3   0   7    0.46    0.11
  -4   0  -7    4.17    0.35
  -4   0  -7    4.05    0.34
   4   0   7    4.32    0.32
   4   0   7    4.00    0.24
  -5   0  -7   -0.03    0.10
  -5   0  -7   -0.11    0.12
   5   0   7    0.00    0.06
   5   0   7    0.09    0.09
  -6   0  -7    0.22    0.10
   6   0   7    0.10    0.07
   6   0   7    0.17    0.12
  -7   0  -7    0.24    0.09
   7   0   7    0.10    0.08
   7   0   7    0.20    0.12
  -8   0  -7    0.10    0.09
   8   0   7    0.03    0.08
   8   0   7    0.03    0.12
  -6   1   7    0.45    0.31
   5  -1  -7    0.38    0.15
   5  -1  -7    0.42    0.13
  -5   1   7   -0.04    0.21
   4  -1  -7    0.22    0.11
   4  -1  -7    0.18    0.13
  -4   1   7    0.21    0.19
   3  -1  -7    1.54    0.18
   3  -1  -7    2.00    0.23
  -3   1   7    1.85    0.31
   2  -1  -7    0.56    0.11
   2  -1  -7    0.51    0.13
   2  -1  -7    0.52    0.15
  -2   1   7    0.88    0.09
   1  -1  -7    0.19    0.11
   1  -1  -7    0.15    0.09
   1  -1  -7    0.03    0.07
  -1   1   7    0.19    0.08
   0  -1  -7    0.08    0.11
   0   1   7    0.20    0.08
  -1  -1  -7    2.10    0.23
  -1  -1  -7    2.11    0.13
   1   1   7    2.00    0.20
  -2  -1  -7    5.53    0.40
   2   1   7    5.26    0.37
  -3  -1  -7    0.65    0.14
   3   1   7    0.64    0.12
  -4  -1  -7    0.70    0.15
  -4  -1  -7    0.68    0.14
   4   1   7    0.51    0.08
   4   1   7    0.57    0.12
  -5  -1  -7    1.56    0.23
   5   1   7    1.47    0.19
   5   1   7    1.17    0.14
  -6  -1  -7    0.17    0.10
   6   1   7    0.07    0.11
   6   1   7    0.08    0.07
  -7  -1  -7    0.45    0.11
   7   1   7    0.35    0.13
   7   1   7    0.42    0.10
  -8  -1  -7    0.22    0.21
  -8  -1  -7    0.42    0.11
   8   1   7    0.10    0.09
   8   1   7    0.24    0.14
   5  -2  -7    0.47    0.17
   5  -2  -7    0.59    0.17
  -5   2   7    0.20    0.22
   4  -2  -7    0.13    0.12
   4  -2  -7    0.14    0.11
  -4   2   7    0.09    0.18
   3  -2  -7    0.90    0.15
  -3   2   7    0.67    0.20
   2  -2  -7    0.05    0.11
   2  -2  -7   -0.06    0.07
  -2   2   7    0.16    0.06
   1  -2  -7    1.12    0.15
   1  -2  -7    1.42    0.19
  -1   2   7    1.33    0.16
   0  -2  -7    0.02    0.09
   0   2   7    0.01    0.07
  -1  -2  -7    0.09    0.10
   1   2   7    0.13    0.08
   1   2   7    0.19    0.08
  -2  -2  -7    0.80    0.13
   2   2   7    0.54    0.12
   2   2   7    0.57    0.09
  -3  -2  -7    0.11    0.11
   3   2   7    0.19    0.08
  -4  -2  -7    0.04    0.11
   4   2   7    0.09    0.08
   4   2   7    0.05    0.06
   5   2   7    4.04    0.33
   5   2   7    4.39    0.27
  -6  -2  -7    4.91    0.40
   6   2   7    5.15    0.32
   6   2   7    5.55    0.40
  -7  -2  -7    0.20    0.07
  -7  -2  -7    0.04    0.15
   7   2   7    0.15    0.11
   7   2   7    0.01    0.07
  -8  -2  -7    0.07    0.18
  -8  -2  -7    0.22    0.09
   8   2   7   -0.05    0.08
   8   2   7    0.08    0.13
   5  -3  -7    0.38    0.15
   2  -3  -7    0.15    0.12
  -2   3   7    0.19    0.11
  -2   3   7    0.08    0.09
   1  -3  -7    0.16    0.11
  -1   3   7   -0.01    0.10
  -1   3   7    0.01    0.08
   0  -3  -7   -0.02    0.10
   0   3   7    0.20    0.08
   0   3   7   -0.01    0.07
  -1  -3  -7   -0.07    0.09
   1   3   7   -0.07    0.06
   1   3   7    0.08    0.05
  -2  -3  -7    9.11    0.57
   2   3   7    8.52    0.54
   2   3   7    7.59    0.58
  -3  -3  -7    0.09    0.10
  -3  -3  -7   -0.05    0.07
   3   3   7   -0.04    0.08
   3   3   7    0.04    0.07
  -4  -3  -7   -0.03    0.10
   4   3   7    0.02    0.09
   4   3   7   -0.05    0.07
   5   3   7    0.07    0.07
   5   3   7    0.08    0.11
   6   3   7    0.36    0.10
   6   3   7    0.91    0.18
  -7  -3  -7    1.52    0.18
  -7  -3  -7    1.60    0.30
   7   3   7    1.73    0.17
   7   3   7    1.59    0.22
  -8  -3  -7    0.18    0.21
  -8  -3  -7    0.17    0.06
   8   3   7    0.22    0.14
   8   3   7    0.09    0.09
  -3   4   7    0.09    0.10
   2  -4  -7    0.57    0.14
  -2   4   7    0.73    0.15
   1  -4  -7    7.15    0.53
  -1   4   7    8.25    0.54
  -1   4   7    8.15    0.59
  -1   4   7    8.13    0.62
   0  -4  -7    0.93    0.15
   0   4   7    1.29    0.19
   0   4   7    0.97    0.16
  -1  -4  -7    1.28    0.18
   1   4   7    1.44    0.16
   1   4   7    1.26    0.18
  -2  -4  -7    0.84    0.15
   2   4   7    0.69    0.14
   2   4   7    0.99    0.12
  -3  -4  -7    1.33    0.18
   3   4   7    1.33    0.14
   3   4   7    1.02    0.17
  -4  -4  -7   -0.01    0.11
   4   4   7   -0.04    0.08
   5   4   7   10.37    0.66
   5   4   7   10.31    0.57
  -6  -4  -7    0.06    0.17
   6   4   7    0.17    0.09
   6   4   7    0.00    0.12
  -7  -4  -7    0.08    0.16
   7   4   7    0.14    0.12
   7   4   7    0.07    0.09
  -8  -4  -7    0.00    0.18
  -8  -4  -7    0.16    0.07
   8   4   7   -0.06    0.13
   8   4   7   -0.02    0.09
  -4   5   7   -0.01    0.12
  -3   5   7    0.10    0.12
   2  -5  -7    1.48    0.20
  -2   5   7    1.80    0.24
  -1   5   7    0.15    0.12
  -1   5   7    0.45    0.12
   0  -5  -7    0.03    0.10
   0   5   7    0.11    0.14
   0   5   7    0.10    0.09
   0   5   7    0.25    0.09
  -1  -5  -7    0.45    0.13
   1   5   7    0.65    0.15
   1   5   7    0.50    0.15
  -2  -5  -7    2.32    0.25
   2   5   7    2.56    0.23
   2   5   7    2.72    0.28
  -3  -5  -7    0.10    0.10
   3   5   7    0.43    0.09
   3   5   7    0.27    0.15
  -4  -5  -7    0.30    0.13
   4   5   7    0.70    0.13
   4   5   7    0.27    0.13
   5   5   7    1.16    0.17
   5   5   7    1.08    0.20
   6   5   7    3.99    0.36
   6   5   7    3.91    0.29
  -7  -5  -7   -0.07    0.16
   7   5   7   -0.01    0.13
   7   5   7    0.01    0.09
  -8  -5  -7    1.91    0.32
   8   5   7    1.82    0.27
   8   5   7    1.53    0.20
  -4   6   7    0.22    0.16
  -3   6   7   -0.23    0.14
  -2   6   7    1.27    0.18
  -2   6   7    0.38    0.16
  -1   6   7    1.82    0.21
  -1   6   7    1.26    0.23
   0   6   7    1.33    0.17
   1   6   7    0.29    0.09
   1   6   7    0.08    0.10
   1   6   7    0.16    0.14
   2   6   7    1.18    0.14
   2   6   7    0.69    0.18
  -3  -6  -7    1.16    0.18
   3   6   7    1.46    0.25
   3   6   7    1.68    0.18
  -4  -6  -7   -0.09    0.11
   4   6   7   -0.08    0.13
   4   6   7    0.14    0.07
   5   6   7    0.43    0.18
   6   6   7    0.43    0.13
   6   6   7    0.58    0.19
   7   6   7    0.15    0.11
   7   6   7    0.25    0.17
  -3   7   7   -0.03    0.15
  -3   7   7    0.48    0.14
  -2   7   7    0.73    0.15
  -2   7   7    0.14    0.16
  -1   7   7    1.22    0.23
  -1   7   7    1.70    0.21
   0   7   7    0.00    0.10
   0   7   7    0.24    0.08
   1   7   7    0.71    0.18
   1   7   7    1.15    0.15
   2   7   7    0.14    0.12
   2   7   7    0.34    0.10
   3   7   7    0.18    0.09
  -4  -7  -7   -0.02    0.11
   4   7   7    0.21    0.08
   4   7   7   -0.10    0.14
   5   7   7    0.20    0.17
   6   7   7    1.51    0.28
  -2   8   7    0.03    0.15
  -2   8   7    0.24    0.10
  -1   8   7   -0.05    0.13
  -1   8   7    0.24    0.10
   0   8   7    0.25    0.09
   0   8   7    0.09    0.15
   1   8   7    0.47    0.11
   1   8   7    0.10    0.14
   2   8   7    1.28    0.24
   2   8   7    1.77    0.20
   3   8   7    0.07    0.13
   3   8   7    0.11    0.06
   4   8   7    1.02    0.15
   4   8   7    0.68    0.20
   5   8   7    0.48    0.12
   1   9   7    0.55    0.14
   1   9   7    0.24    0.17
   2   9   7    0.40    0.11
   2   9   7    0.03    0.14
   3   9   7    0.45    0.12
   3   9   7    0.28    0.17
  -1  -5   8    0.15    0.12
   0   5  -8   -0.07    0.10
   0  -5   8    0.06    0.11
  -1   5  -8    0.23    0.16
   1  -5   8    0.21    0.13
  -2   5  -8    0.27    0.16
   2  -5   8    0.07    0.13
  -3   5  -8    0.30    0.17
   3  -5   8    0.20    0.15
  -4   5  -8    0.04    0.15
   4  -5   8    0.08    0.13
   2   4  -8   -0.11    0.10
   2   4  -8    0.03    0.10
  -2  -4   8    0.05    0.15
   1   4  -8    0.13    0.11
   1   4  -8    0.15    0.11
  -1  -4   8    0.15    0.10
   0   4  -8    0.42    0.15
   0   4  -8    0.22    0.10
   0  -4   8    0.22    0.11
  -1   4  -8    0.21    0.10
  -1   4  -8    0.41    0.15
   1  -4   8    0.29    0.13
  -2   4  -8    0.36    0.16
   2  -4   8    0.19    0.13
  -3   4  -8    0.07    0.13
  -3   4  -8   -0.01    0.12
   3  -4   8    0.06    0.12
  -4   4  -8   -0.01    0.12
   4  -4   8    0.09    0.12
  -5   4  -8    0.10    0.15
   5  -4   8    0.01    0.12
   3   3  -8   -0.05    0.10
   3   3  -8   -0.07    0.09
  -3  -3   8   -0.05    0.17
   2   3  -8    2.31    0.24
   2   3  -8    2.70    0.27
  -2  -3   8    2.19    0.21
   1   3  -8    0.94    0.17
   1   3  -8    1.75    0.21
   1   3  -8    0.89    0.20
  -1  -3   8    1.17    0.17
   0   3  -8    2.23    0.24
   0   3  -8    2.61    0.30
   0   3  -8    2.47    0.25
   0  -3   8    2.19    0.22
  -1   3  -8    0.80    0.17
  -1   3  -8    0.59    0.16
  -1   3  -8    0.29    0.11
   1  -3   8    0.42    0.13
  -2   3  -8    3.19    0.26
  -2   3  -8    3.47    0.32
  -2   3  -8    3.49    0.33
   2  -3   8    2.76    0.28
  -3   3  -8   -0.01    0.11
  -3   3  -8   -0.04    0.10
   3  -3   8   -0.04    0.10
  -4   3  -8    0.77    0.17
  -4   3  -8    0.89    0.20
   4  -3   8    1.00    0.18
  -5   3  -8    0.14    0.14
  -5   3  -8    0.05    0.12
   5  -3   8    0.07    0.12
  -6   3  -8    0.23    0.14
  -6   3  -8    0.06    0.16
   6  -3   8    0.00    0.11
   4   2  -8    0.13    0.11
   4   2  -8    0.26    0.14
  -4  -2   8    0.24    0.22
   3   2  -8   -0.01    0.10
   3   2  -8   -0.16    0.08
  -3  -2   8   -0.09    0.17
   2   2  -8    1.86    0.26
   2   2  -8    1.72    0.21
  -2  -2   8    1.28    0.17
   1   2  -8    2.44    0.22
   1   2  -8    2.39    0.24
   1   2  -8    2.39    0.29
  -1  -2   8    2.02    0.22
   0   2  -8    0.54    0.10
   0   2  -8    0.51    0.13
   0   2  -8    0.21    0.15
   0   2  -8    0.38    0.11
   0  -2   8    0.49    0.11
  -1   2  -8   15.80    0.94
  -1   2  -8   16.61    1.05
  -1   2  -8   17.09    1.05
   1  -2   8   16.34    0.98
  -2   2  -8    0.95    0.16
  -2   2  -8    0.56    0.11
  -2   2  -8    1.10    0.19
   2  -2   8    0.98    0.16
  -3   2  -8    1.02    0.19
  -3   2  -8    0.94    0.19
   3  -2   8    0.80    0.15
  -4   2  -8    0.71    0.17
  -4   2  -8    0.59    0.15
   4  -2   8    0.79    0.14
  -5   2  -8    0.08    0.13
  -5   2  -8    0.07    0.12
   5  -2   8    0.13    0.10
  -6   2  -8   -0.09    0.12
  -6   2  -8    0.03    0.13
   6  -2   8    0.05    0.10
  -7   2  -8    0.40    0.15
  -7   2  -8    0.13    0.17
   7  -2   8    0.37    0.14
   4   1  -8    0.01    0.10
   4   1  -8    0.02    0.12
  -4  -1   8    0.09    0.19
   3   1  -8    0.14    0.09
   3   1  -8    0.15    0.11
  -3  -1   8    0.10    0.18
   2   1  -8    0.43    0.12
   2   1  -8    0.25    0.14
   2   1  -8    0.30    0.09
  -2  -1   8    0.23    0.08
   1   1  -8    0.69    0.12
   1   1  -8    0.44    0.09
   1   1  -8    0.53    0.12
   1   1  -8    0.65    0.16
  -1  -1   8    0.39    0.10
   0   1  -8    0.33    0.15
   0   1  -8    0.51    0.12
   0   1  -8    0.62    0.13
   0  -1   8    0.39    0.10
  -1   1  -8    0.14    0.08
  -1   1  -8    0.10    0.10
  -1   1  -8   -0.16    0.13
   1  -1   8    0.02    0.09
  -2   1  -8   17.29    0.93
  -2   1  -8   14.65    1.04
  -2   1  -8   17.06    1.04
   2  -1   8   16.37    0.98
  -3   1  -8    1.26    0.19
  -3   1  -8    1.39    0.22
   3  -1   8    1.55    0.19
  -4   1  -8    8.04    0.61
  -4   1  -8    9.14    0.61
   4  -1   8    8.12    0.56
  -5   1  -8    4.21    0.37
  -5   1  -8    3.84    0.37
   5  -1   8    3.97    0.33
  -6   1  -8   -0.03    0.14
  -6   1  -8    0.07    0.13
   6  -1   8    0.18    0.12
  -7   1  -8    0.75    0.18
  -7   1  -8    0.81    0.21
   7  -1   8    0.73    0.17
  -8   1  -8    0.28    0.11
   8  -1   8   -0.01    0.13
   5   0  -8    0.57    0.15
  -5   0   8    1.19    0.30
   4   0  -8    0.38    0.14
   4   0  -8    0.38    0.12
  -4   0   8    0.47    0.22
   3   0  -8    0.20    0.11
  -3   0   8    1.34    0.27
   2   0  -8    0.23    0.13
   2   0  -8    0.00    0.09
   2   0  -8    0.04    0.08
  -2   0   8    0.09    0.07
   1   0  -8    0.06    0.07
   1   0  -8    0.16    0.12
   1   0  -8    0.19    0.09
   1   0  -8    0.28    0.08
  -1   0   8    0.19    0.08
   0   0  -8    1.71    0.20
   0   0  -8    1.59    0.22
   0   0  -8    1.59    0.17
   0   0   8    1.58    0.18
  -1   0  -8    0.69    0.17
  -1   0  -8    0.68    0.12
  -1   0  -8    0.76    0.14
   1   0   8    0.71    0.13
  -2   0  -8    2.17    0.19
  -2   0  -8    2.60    0.26
  -2   0  -8    1.89    0.22
   2   0   8    1.91    0.22
  -3   0  -8    5.21    0.40
  -3   0  -8    4.61    0.39
   3   0   8    5.19    0.37
  -4   0  -8    3.03    0.29
  -4   0  -8    3.54    0.31
   4   0   8    2.84    0.27
   4   0   8    2.98    0.20
  -5   0  -8    6.80    0.47
  -5   0  -8    5.70    0.47
   5   0   8    5.65    0.43
   5   0   8    5.68    0.33
  -6   0  -8   -0.04    0.12
  -6   0  -8   -0.06    0.12
   6   0   8   -0.03    0.10
   6   0   8   -0.01    0.06
  -7   0  -8    0.87    0.17
   7   0   8    0.58    0.16
   7   0   8    0.52    0.10
  -8   0  -8    0.21    0.09
   8   0   8    0.02    0.12
   8   0   8    0.07    0.09
   5  -1  -8    3.72    0.34
   5  -1  -8    2.87    0.29
   4  -1  -8    0.37    0.15
   4  -1  -8    0.27    0.13
  -4   1   8    0.15    0.20
   3  -1  -8    1.48    0.18
   3  -1  -8    1.42    0.21
  -3   1   8    1.10    0.25
   1  -1  -8    0.14    0.10
  -1   1   8    0.07    0.08
   0  -1  -8    0.43    0.12
   0  -1  -8    0.47    0.15
   0   1   8    0.35    0.10
  -1  -1  -8    0.12    0.10
  -1  -1  -8    0.30    0.12
   1   1   8    0.18    0.10
  -2  -1  -8    0.26    0.12
  -2  -1  -8    0.03    0.08
   2   1   8    0.09    0.09
  -3  -1  -8    0.18    0.12
  -3  -1  -8    0.38    0.13
   3   1   8    0.06    0.09
  -4  -1  -8    0.13    0.13
  -4  -1  -8    0.12    0.11
   4   1   8    0.10    0.06
   4   1   8    0.11    0.10
  -5  -1  -8    5.25    0.44
  -5  -1  -8    6.30    0.44
   5   1   8    5.76    0.41
   5   1   8    5.31    0.33
  -6  -1  -8   -0.11    0.11
  -6  -1  -8    0.00    0.13
   6   1   8    0.21    0.12
   6   1   8    0.11    0.07
  -7  -1  -8    0.11    0.07
   7   1   8    0.02    0.11
   7   1   8    0.03    0.08
  -8  -1  -8    0.06    0.07
   8   1   8    0.06    0.09
   8   1   8   -0.03    0.12
   5  -2  -8    0.02    0.12
   5  -2  -8   -0.22    0.13
  -5   2   8   -0.25    0.21
   4  -2  -8    0.25    0.11
   4  -2  -8    0.19    0.15
   3  -2  -8    0.08    0.12
   3  -2  -8    0.19    0.10
  -3   2   8    0.07    0.16
   2  -2  -8    5.54    0.36
   2  -2  -8    5.26    0.43
  -2   2   8    5.53    0.39
   1  -2  -8    2.61    0.27
  -1   2   8    2.22    0.22
   0  -2  -8    0.18    0.13
   0   2   8    0.11    0.09
   0   2   8    0.35    0.10
  -1  -2  -8    4.79    0.38
   1   2   8    5.08    0.35
   1   2   8    4.49    0.35
  -2  -2  -8    0.78    0.14
   2   2   8    0.83    0.15
  -3  -2  -8   -0.02    0.11
   3   2   8   -0.07    0.08
  -4  -2  -8    0.06    0.12
   4   2   8    0.01    0.09
  -5  -2  -8    2.14    0.26
  -5  -2  -8    2.65    0.27
   5   2   8    2.28    0.19
   5   2   8    2.05    0.24
  -6  -2  -8    3.83    0.32
   6   2   8    3.45    0.32
   6   2   8    3.87    0.26
  -7  -2  -8    0.29    0.09
   7   2   8    0.14    0.13
   7   2   8    0.12    0.08
  -8  -2  -8    0.14    0.08
   8   2   8    0.02    0.09
   8   2   8   -0.14    0.12
   4  -3  -8    0.45    0.14
   3  -3  -8    0.14    0.11
   2  -3  -8    0.04    0.10
   2  -3  -8    0.02    0.12
  -2   3   8    0.11    0.11
   1  -3  -8    1.17    0.19
  -1   3   8    1.25    0.18
  -1   3   8    1.36    0.19
   0  -3  -8   -0.10    0.11
   0   3   8    0.02    0.09
  -1  -3  -8    5.33    0.41
   1   3   8    5.37    0.40
   1   3   8    5.18    0.38
  -2  -3  -8    3.48    0.31
   2   3   8    3.54    0.28
   2   3   8    3.54    0.29
  -3  -3  -8    0.95    0.17
   3   3   8    0.96    0.13
   3   3   8    1.08    0.17
  -4  -3  -8    3.77    0.34
   4   3   8    3.90    0.32
  -5  -3  -8    3.21    0.32
   5   3   8    3.24    0.25
   5   3   8    3.72    0.32
   6   3   8    4.60    0.31
   6   3   8    5.03    0.39
  -7  -3  -8    0.34    0.10
   7   3   8    0.17    0.13
   7   3   8    0.10    0.09
  -8  -3  -8    0.44    0.13
   8   3   8    0.27    0.16
   8   3   8    0.22    0.09
   2  -4  -8    0.06    0.13
  -2   4   8    0.13    0.11
   1  -4  -8   -0.07    0.11
  -1   4   8    0.41    0.10
  -1   4   8    0.24    0.15
  -1   4   8    0.08    0.10
   0  -4  -8    0.00    0.11
   0   4   8    0.15    0.12
   0   4   8    0.13    0.10
  -1  -4  -8   -0.13    0.10
   1   4   8   -0.13    0.10
  -2  -4  -8    3.03    0.29
   2   4   8    3.17    0.29
   2   4   8    3.45    0.27
  -3  -4  -8    2.68    0.28
   3   4   8    2.80    0.27
   3   4   8    2.91    0.24
  -4  -4  -8    4.12    0.35
   4   4   8    4.07    0.33
  -5  -4  -8    4.80    0.38
   5   4   8    4.34    0.36
   5   4   8    4.24    0.30
   6   4   8    4.95    0.39
   6   4   8    5.12    0.34
   7   4   8    0.03    0.09
   7   4   8   -0.06    0.11
  -8  -4  -8    0.32    0.10
   8   4   8    0.18    0.11
   8   4   8   -0.07    0.12
  -3   5   8    0.59    0.17
   2  -5  -8    0.05    0.12
  -2   5   8   -0.05    0.12
  -2   5   8    0.49    0.14
   1  -5  -8    0.10    0.11
  -1   5   8    0.22    0.12
  -1   5   8    0.52    0.11
   0  -5  -8    0.17    0.12
   0   5   8    0.08    0.14
   0   5   8    0.06    0.10
  -1  -5  -8   -0.10    0.10
   1   5   8    0.09    0.11
   1   5   8   -0.09    0.13
   1   5   8    0.18    0.06
  -2  -5  -8    0.65    0.14
   2   5   8    1.17    0.13
   2   5   8    0.83    0.18
  -3  -5  -8    0.20    0.12
   3   5   8    0.17    0.16
   3   5   8    0.49    0.11
  -4  -5  -8    0.12    0.12
   4   5   8    0.23    0.07
   4   5   8   -0.01    0.11
  -5  -5  -8    1.31    0.20
   5   5   8    1.33    0.22
   6   5   8    2.18    0.22
   6   5   8    2.55    0.28
   7   5   8    0.05    0.10
   7   5   8   -0.04    0.12
  -3   6   8    4.26    0.39
  -3   6   8    2.98    0.40
  -2   6   8   13.06    0.95
  -2   6   8   11.56    0.91
  -1   6   8    0.52    0.12
  -1   6   8    0.11    0.13
   0  -6  -8   -0.01    0.11
   0   6   8    0.30    0.09
   0   6   8    0.05    0.11
   1   6   8    0.18    0.15
   1   6   8    0.11    0.12
  -2  -6  -8    0.34    0.11
   2   6   8    0.19    0.16
  -3  -6  -8   -0.03    0.10
   3   6   8    0.20    0.06
   3   6   8   -0.02    0.15
  -4  -6  -8    0.31    0.14
   4   6   8    0.33    0.17
   4   6   8    0.55    0.12
  -5  -6  -8    1.38    0.21
   5   6   8    1.36    0.25
   6   6   8    0.27    0.17
   7   6   8   -0.08    0.10
   7   6   8    0.11    0.17
  -2   7   8    5.98    0.51
  -2   7   8    5.17    0.52
  -1   7   8    3.57    0.39
  -1   7   8    4.67    0.40
   0   7   8    0.27    0.08
   0   7   8   -0.02    0.11
   1   7   8    1.58    0.18
   1   7   8    1.12    0.23
   2   7   8    0.39    0.10
   2   7   8    0.11    0.12
   3   7   8   -0.06    0.14
   3   7   8    0.21    0.08
  -4  -7  -8    0.35    0.15
   4   7   8    0.38    0.18
  -5  -7  -8    0.92    0.18
   5   7   8    0.79    0.23
   6   7   8    0.32    0.20
  -1   8   8    0.19    0.08
  -1   8   8    0.20    0.16
   0   8   8    0.30    0.10
   0   8   8    0.06    0.15
   1   8   8    0.31    0.17
   2   8   8    1.30    0.25
   2   8   8    1.45    0.18
   3   8   8    0.38    0.11
   3   8   8    0.04    0.14
   4   8   8    0.21    0.16
   4   8   8    0.40    0.12
   0   4  -9   -0.07    0.09
   0   4  -9    0.15    0.14
   0  -4   9   -0.04    0.10
  -1   4  -9    0.09    0.15
  -1   4  -9    0.08    0.10
   1  -4   9    0.11    0.12
  -2   4  -9    0.33    0.16
  -2   4  -9    0.44    0.18
   2  -4   9    0.31    0.14
  -3   4  -9    0.26    0.16
  -3   4  -9    0.30    0.17
   3  -4   9    0.34    0.15
  -4   4  -9    0.06    0.14
   4  -4   9    0.07    0.13
   2   3  -9   -0.05    0.10
   2   3  -9   -0.06    0.11
   1   3  -9    0.33    0.12
   1   3  -9    0.32    0.13
   1   3  -9    0.42    0.15
  -1  -3   9    0.25    0.10
   0   3  -9   -0.10    0.09
   0   3  -9    0.05    0.13
   0  -3   9    0.01    0.08
  -1   3  -9   -0.04    0.13
  -1   3  -9    0.00    0.09
  -1   3  -9   -0.02    0.10
   1  -3   9    0.08    0.10
  -2   3  -9   -0.13    0.07
  -2   3  -9    0.11    0.12
  -2   3  -9   -0.14    0.12
   2  -3   9   -0.02    0.11
  -3   3  -9    0.22    0.14
  -3   3  -9    0.08    0.13
   3  -3   9    0.08    0.11
  -4   3  -9    0.10    0.13
  -4   3  -9    0.20    0.15
   4  -3   9    0.10    0.12
  -5   3  -9    0.73    0.21
   5  -3   9    0.66    0.17
  -3  -2   9    0.07    0.19
   2   2  -9    0.00    0.10
   2   2  -9    0.18    0.10
   1   2  -9    1.26    0.18
   1   2  -9    1.30    0.24
   1   2  -9    1.57    0.19
  -1  -2   9    1.48    0.20
   0   2  -9    1.18    0.21
   0   2  -9    0.92    0.16
   0  -2   9    1.19    0.18
  -1   2  -9    0.60    0.18
  -1   2  -9    0.59    0.15
  -1   2  -9    0.14    0.11
   1  -2   9    0.58    0.14
  -2   2  -9    2.03    0.26
  -2   2  -9    2.28    0.22
  -2   2  -9    2.45    0.29
   2  -2   9    2.09    0.23
  -3   2  -9    0.24    0.14
  -3   2  -9    0.24    0.14
   3  -2   9    0.37    0.13
  -4   2  -9    0.16    0.14
  -4   2  -9    0.12    0.13
   4  -2   9    0.07    0.10
  -5   2  -9    0.00    0.12
  -5   2  -9   -0.06    0.12
   5  -2   9   -0.09    0.10
  -6   2  -9    0.26    0.15
  -6   2  -9    0.41    0.18
   6  -2   9    0.38    0.14
   3   1  -9    0.04    0.10
   3   1  -9    0.06    0.12
  -3  -1   9   -0.13    0.17
   2   1  -9    0.13    0.08
   2   1  -9    0.08    0.11
   2   1  -9   -0.02    0.13
   1   1  -9    0.91    0.16
   1   1  -9    0.64    0.18
  -1  -1   9    0.48    0.12
   0   1  -9    2.53    0.21
   0   1  -9    1.89    0.23
   0   1  -9    2.18    0.25
   0   1  -9    1.84    0.27
   0  -1   9    1.87    0.22
  -1   1  -9    0.71    0.17
  -1   1  -9    0.36    0.11
  -1   1  -9    0.59    0.16
   1  -1   9    0.62    0.15
  -2   1  -9    1.06    0.19
  -2   1  -9    0.98    0.18
  -2   1  -9    0.56    0.12
   2  -1   9    1.02    0.17
  -3   1  -9    0.15    0.12
  -3   1  -9    0.21    0.14
   3  -1   9    0.09    0.11
  -4   1  -9    0.27    0.15
  -4   1  -9    0.22    0.14
   4  -1   9    0.15    0.12
  -5   1  -9    0.62    0.19
  -5   1  -9    0.67    0.17
   5  -1   9    0.65    0.15
  -6   1  -9    0.05    0.14
  -6   1  -9    0.00    0.13
   6  -1   9    0.20    0.13
  -7   1  -9    1.03    0.26
  -7   1  -9    1.11    0.20
   7  -1   9    0.70    0.19
   3   0  -9    0.01    0.09
   3   0  -9    0.07    0.11
  -3   0   9    0.05    0.17
   2   0  -9    0.15    0.09
   2   0  -9    0.15    0.11
   2   0  -9    0.25    0.14
   1   0  -9    0.00    0.12
   1   0  -9    0.04    0.09
  -1   0   9   -0.05    0.08
   0   0  -9    1.92    0.27
   0   0  -9    1.95    0.21
   0   0  -9    1.63    0.19
   0   0   9    1.86    0.22
  -1   0  -9    2.31    0.28
  -1   0  -9    1.41    0.20
  -1   0  -9    2.00    0.20
   1   0   9    1.61    0.21
  -2   0  -9    6.04    0.40
  -2   0  -9    6.62    0.47
  -2   0  -9    5.61    0.45
   2   0   9    5.57    0.43
  -3   0  -9    0.00    0.10
  -3   0  -9    0.02    0.12
   3   0   9   -0.09    0.09
  -4   0  -9    0.57    0.17
  -4   0  -9    0.60    0.17
   4   0   9    0.25    0.12
  -5   0  -9    0.48    0.16
  -5   0  -9    0.56    0.17
   5   0   9    0.47    0.14
  -6   0  -9    0.09    0.13
  -6   0  -9    0.27    0.15
   6   0   9    0.26    0.14
  -7   0  -9   -0.03    0.14
  -7   0  -9    0.21    0.17
   7   0   9    0.13    0.13
   4  -1  -9    0.30    0.12
   4  -1  -9    0.28    0.15
  -4   1   9    0.27    0.22
   3  -1  -9    0.34    0.14
   3  -1  -9    0.17    0.10
  -3   1   9    0.15    0.18
   2  -1  -9    0.12    0.08
   2  -1  -9    0.36    0.16
   2  -1  -9    0.48    0.14
  -2   1   9    0.13    0.09
   1  -1  -9   -0.03    0.10
   1  -1  -9    0.06    0.08
   1  -1  -9   -0.13    0.11
  -1   1   9   -0.12    0.08
   0  -1  -9    0.13    0.11
   0  -1  -9    0.12    0.13
   0   1   9    0.00    0.09
  -1  -1  -9    0.20    0.13
  -1  -1  -9    0.13    0.11
  -1  -1  -9    0.17    0.11
   1   1   9    0.04    0.09
  -2  -1  -9    4.51    0.34
  -2  -1  -9    4.33    0.36
  -2  -1  -9    5.64    0.40
   2   1   9    4.03    0.35
  -3  -1  -9    0.35    0.13
  -3  -1  -9    0.21    0.13
   3   1   9    0.29    0.12
  -4  -1  -9    0.05    0.12
  -4  -1  -9   -0.06    0.12
   4   1   9    0.04    0.10
  -5  -1  -9    0.09    0.13
  -5  -1  -9    0.08    0.13
   5   1   9   -0.04    0.11
   5   1   9    0.05    0.07
  -6  -1  -9    0.23    0.14
  -6  -1  -9    0.26    0.15
   6   1   9    0.13    0.08
   6   1   9    0.17    0.13
  -7  -1  -9    0.20    0.12
  -7  -1  -9    0.05    0.14
   7   1   9    0.01    0.13
   7   1   9    0.04    0.08
   4  -2  -9    0.85    0.17
   4  -2  -9    0.70    0.20
  -4   2   9    0.47    0.25
   3  -2  -9    0.26    0.11
   3  -2  -9    0.36    0.15
   2  -2  -9    0.79    0.17
   2  -2  -9    0.47    0.11
   2  -2  -9    0.57    0.16
  -2   2   9    0.17    0.10
   1  -2  -9    0.16    0.13
  -1   2   9    0.02    0.08
   0  -2  -9    0.15    0.13
   0   2   9    0.46    0.09
   0   2   9    0.24    0.11
  -1  -2  -9    3.37    0.31
   1   2   9    3.19    0.29
  -2  -2  -9    2.43    0.27
   2   2   9    1.67    0.22
  -3  -2  -9    0.46    0.16
   3   2   9    0.64    0.14
  -4  -2  -9    0.50    0.16
   4   2   9    0.27    0.12
  -5  -2  -9    0.38    0.15
  -5  -2  -9    0.39    0.15
   5   2   9    0.21    0.13
  -6  -2  -9    0.09    0.12
  -6  -2  -9    0.03    0.12
   6   2   9   -0.07    0.10
   6   2   9    0.09    0.08
  -7  -2  -9    0.17    0.08
  -7  -2  -9    0.09    0.14
   7   2   9   -0.08    0.11
   7   2   9    0.09    0.08
   3  -3  -9    0.06    0.11
  -3   3   9    0.03    0.17
   2  -3  -9    0.24    0.11
   2  -3  -9    0.28    0.15
  -2   3   9    0.17    0.11
   1  -3  -9    0.02    0.12
  -1   3   9    0.13    0.11
   0  -3  -9    0.05    0.13
   0   3   9   -0.03    0.09
   0   3   9    0.28    0.08
   0   3   9    0.07    0.10
  -1  -3  -9    0.13    0.12
   1   3   9    0.21    0.06
   1   3   9    0.00    0.11
  -2  -3  -9    0.33    0.15
   2   3   9    0.32    0.13
   2   3   9    0.28    0.09
  -3  -3  -9   -0.05    0.12
   3   3   9    0.01    0.12
  -4  -3  -9    1.15    0.20
   4   3   9    0.88    0.17
  -5  -3  -9    2.44    0.29
   5   3   9    2.83    0.28
  -6  -3  -9    0.10    0.14
   6   3   9    0.10    0.08
   6   3   9    0.06    0.12
  -7  -3  -9    0.07    0.07
   7   3   9   -0.17    0.11
   7   3   9    0.13    0.10
   3  -4  -9    0.27    0.13
   2  -4  -9    0.08    0.14
   1  -4  -9    0.03    0.12
  -1   4   9    0.36    0.10
  -1   4   9    0.18    0.11
  -1   4   9    0.31    0.14
   0  -4  -9   -0.12    0.11
   0   4   9    0.22    0.07
   0   4   9    0.04    0.11
   0   4   9   -0.03    0.12
  -1  -4  -9    0.31    0.14
   1   4   9    0.28    0.13
  -2  -4  -9   -0.02    0.12
   2   4   9   -0.10    0.10
   2   4   9    0.16    0.05
  -3  -4  -9   -0.06    0.12
   3   4   9    0.02    0.11
   3   4   9    0.16    0.06
  -4  -4  -9   -0.06    0.12
   4   4   9   -0.07    0.10
  -5  -4  -9    1.88    0.26
   5   4   9    1.99    0.24
  -6  -4  -9    1.33    0.22
   6   4   9    1.93    0.20
   6   4   9    1.66    0.22
   7   4   9   -0.06    0.12
   7   4   9    0.04    0.10
   2  -5  -9    0.79    0.18
  -2   5   9    1.00    0.19
   1  -5  -9   -0.02    0.12
  -1   5   9   -0.11    0.12
   0  -5  -9   -0.10    0.11
   0   5   9   -0.01    0.11
   0   5   9    0.00    0.13
  -1  -5  -9    0.22    0.13
   1   5   9    0.23    0.14
   1   5   9    0.31    0.14
  -2  -5  -9    1.94    0.25
   2   5   9    2.07    0.27
   2   5   9    2.48    0.22
  -3  -5  -9   -0.04    0.12
   3   5   9    0.18    0.06
   3   5   9    0.06    0.12
  -4  -5  -9    1.03    0.20
   4   5   9    1.33    0.14
   4   5   9    0.70    0.18
  -5  -5  -9    0.00    0.14
   5   5   9   -0.02    0.12
  -6  -5  -9   -0.12    0.15
   6   5   9   -0.05    0.13
   7   5   9    0.12    0.13
   7   5   9    0.23    0.12
   2  -6  -9    0.41    0.15
  -2   6   9    0.54    0.17
  -1   6   9    1.47    0.19
   0  -6  -9    0.16    0.14
   0   6   9    0.81    0.12
   0   6   9    0.49    0.16
  -1  -6  -9    0.08    0.12
   1   6   9   -0.07    0.10
   1   6   9    0.23    0.07
   1   6   9    0.09    0.14
  -2  -6  -9    0.04    0.12
   2   6   9   -0.05    0.13
  -3  -6  -9    0.24    0.14
   3   6   9    0.27    0.16
   3   6   9    0.36    0.09
  -4  -6  -9    0.31    0.15
   4   6   9    0.24    0.17
  -5  -6  -9    3.53    0.36
   5   6   9    4.24    0.39
  -6  -6  -9    0.03    0.15
   6   6   9    0.06    0.15
  -1   7   9    0.31    0.12
  -1   7   9    0.18    0.15
   0   7   9    0.37    0.10
   0   7   9    0.15    0.14
   1   7   9    0.24    0.07
   1   7   9    0.11    0.14
   2   7   9    0.65    0.21
   2   7   9    0.34    0.16
  -3  -7  -9    0.03    0.12
   3   7   9   -0.07    0.16
   3   7   9    0.14    0.07
  -4  -7  -9    0.23    0.14
   4   7   9    0.56    0.13
   4   7   9    0.09    0.17
  -5  -7  -9    0.36    0.17
   5   7   9    0.41    0.20
   2   8   9    0.32    0.10
   2   8   9    0.00    0.14
  -1   3 -10    0.01    0.10
  -1   3 -10   -0.05    0.13
   1  -3  10    0.15    0.11
  -2   3 -10   -0.08    0.08
  -2   3 -10   -0.05    0.15
  -2   3 -10    0.02    0.12
   2  -3  10   -0.10    0.10
  -3   3 -10    0.06    0.15
  -3   3 -10    0.02    0.13
   3  -3  10   -0.07    0.11
   1   2 -10   -0.02    0.11
   1   2 -10    0.08    0.15
   0   2 -10    0.35    0.13
   0   2 -10    0.58    0.18
   0  -2  10    0.67    0.15
  -1   2 -10   -0.15    0.14
  -1   2 -10   -0.01    0.10
   1  -2  10    0.06    0.11
  -2   2 -10    0.01    0.09
  -2   2 -10    0.19    0.12
  -2   2 -10    0.07    0.15
   2  -2  10    0.13    0.13
  -3   2 -10   -0.05    0.12
  -3   2 -10    0.11    0.12
   3  -2  10    0.08    0.12
  -4   2 -10   -0.06    0.12
  -4   2 -10   -0.07    0.13
   4  -2  10   -0.02    0.12
  -5   2 -10    0.11    0.15
  -5   2 -10   -0.11    0.14
   5  -2  10    0.08    0.14
   2   1 -10    2.28    0.27
   1   1 -10    0.47    0.19
   1   1 -10    0.40    0.13
  -1  -1  10    0.16    0.11
   0   1 -10    3.32    0.30
   0   1 -10    3.38    0.36
   0  -1  10    3.46    0.31
  -1   1 -10    0.26    0.15
  -1   1 -10   -0.23    0.09
  -1   1 -10    0.10    0.12
   1  -1  10    0.29    0.12
  -2   1 -10    1.50    0.20
  -2   1 -10    1.93    0.27
  -2   1 -10    1.61    0.23
   2  -1  10    1.79    0.23
  -3   1 -10    0.46    0.16
  -3   1 -10    0.42    0.17
   3  -1  10    0.26    0.13
  -4   1 -10    0.07    0.13
  -4   1 -10    0.33    0.16
   4  -1  10    0.07    0.11
  -5   1 -10    0.03    0.15
  -5   1 -10    0.08    0.13
   5  -1  10    0.07    0.12
  -6   1 -10    0.27    0.16
  -6   1 -10    0.37    0.19
   6  -1  10    0.14    0.14
   2   0 -10    0.01    0.14
   2   0 -10    0.01    0.11
   1   0 -10    0.17    0.15
   1   0 -10    0.07    0.10
  -1   0  10    0.03    0.10
   0   0 -10    0.63    0.20
   0   0 -10    0.92    0.16
   0   0  10    0.43    0.13
  -1   0 -10   10.36    0.75
  -1   0 -10   12.01    0.78
  -1   0 -10   11.83    0.69
   1   0  10   10.74    0.71
  -2   0 -10    0.22    0.15
  -2   0 -10    0.11    0.10
  -2   0 -10    0.13    0.12
   2   0  10    0.33    0.12
  -3   0 -10    0.05    0.12
  -3   0 -10   -0.09    0.15
   3   0  10    0.25    0.12
  -4   0 -10    1.18    0.21
  -4   0 -10    0.99    0.22
   4   0  10    1.15    0.19
  -5   0 -10   -0.08    0.12
  -5   0 -10   -0.04    0.11
   5   0  10    0.08    0.12
  -6   0 -10   -0.01    0.14
  -6   0 -10   -0.06    0.13
   6   0  10   -0.07    0.11
   2  -1 -10   -0.05    0.13
   2  -1 -10   -0.05    0.11
   1  -1 -10    0.39    0.17
   1  -1 -10    0.60    0.15
  -1   1  10    0.36    0.12
   0  -1 -10    0.18    0.10
   0  -1 -10    0.43    0.18
   0  -1 -10    0.06    0.11
   0   1  10    0.11    0.11
  -1  -1 -10   -0.05    0.10
  -1  -1 -10   -0.07    0.14
  -1  -1 -10   -0.01    0.10
   1   1  10   -0.26    0.10
  -2  -1 -10    4.18    0.36
  -2  -1 -10    4.68    0.34
  -2  -1 -10    4.91    0.40
   2   1  10    3.84    0.34
  -3  -1 -10    1.87    0.23
  -3  -1 -10    2.20    0.29
   3   1  10    1.89    0.23
  -4  -1 -10    6.85    0.55
  -4  -1 -10    8.41    0.56
   4   1  10    6.72    0.51
  -5  -1 -10    0.28    0.16
  -5  -1 -10    0.44    0.16
   5   1  10    0.14    0.12
  -6  -1 -10    0.44    0.17
  -6  -1 -10    0.53    0.19
   6   1  10    0.56    0.16
  -7  -1 -10    0.13    0.17
   2  -2 -10    0.13    0.13
   2  -2 -10    0.19    0.15
   1  -2 -10   -0.04    0.14
   1  -2 -10    0.27    0.13
  -1   2  10    0.08    0.11
   0  -2 -10    0.39    0.13
   0  -2 -10    0.35    0.17
   0   2  10    0.07    0.11
  -1  -2 -10    0.03    0.13
  -1  -2 -10    0.01    0.11
   1   2  10   -0.11    0.10
  -2  -2 -10    0.12    0.11
  -2  -2 -10    0.11    0.14
   2   2  10   -0.19    0.10
  -3  -2 -10    1.42    0.23
   3   2  10    1.18    0.20
  -4  -2 -10    0.05    0.14
  -4  -2 -10   -0.08    0.12
   4   2  10   -0.03    0.12
  -5  -2 -10    0.44    0.15
  -5  -2 -10    0.31    0.15
   5   2  10    0.04    0.12
  -6  -2 -10    0.04    0.13
  -6  -2 -10    0.03    0.14
   6   2  10   -0.04    0.12
  -7  -2 -10    0.03    0.16
  -7  -2 -10    0.03    0.14
   7   2  10   -0.18    0.12
   2  -3 -10    0.58    0.19
   1  -3 -10   -0.06    0.13
  -1   3  10   -0.05    0.10
   0  -3 -10    0.26    0.15
   0   3  10   -0.03    0.10
   0   3  10   -0.09    0.10
  -1  -3 -10    0.17    0.15
   1   3  10   -0.01    0.10
  -2  -3 -10    0.07    0.13
   2   3  10   -0.14    0.10
  -3  -3 -10   -0.15    0.12
   3   3  10   -0.08    0.10
  -4  -3 -10    0.33    0.17
   4   3  10    0.28    0.14
  -5  -3 -10    3.79    0.35
   5   3  10    3.37    0.33
  -6  -3 -10   -0.03    0.13
  -6  -3 -10   -0.06    0.12
   6   3  10   -0.01    0.13
  -7  -3 -10    0.15    0.08
   2  -4 -10    1.17    0.23
   1  -4 -10   -0.01    0.13
  -1   4  10   -0.01    0.11
  -1   4  10    0.05    0.13
   0  -4 -10    0.78    0.21
   0   4  10    1.03    0.19
   0   4  10    0.93    0.19
  -1  -4 -10    0.91    0.20
   1   4  10    0.66    0.16
  -2  -4 -10    1.01    0.20
   2   4  10    0.97    0.18
  -3  -4 -10    0.11    0.13
   3   4  10    0.05    0.11
  -4  -4 -10    0.41    0.17
   4   4  10    0.20    0.12
  -5  -4 -10    2.08    0.28
   5   4  10    1.97    0.25
  -6  -4 -10    0.21    0.16
   6   4  10   -0.03    0.13
   1  -5 -10    0.03    0.14
  -1   5  10   -0.02    0.14
  -1   5  10   -0.02    0.13
   0  -5 -10    0.01    0.14
   0   5  10   -0.01    0.13
   0   5  10   -0.16    0.14
  -1  -5 -10    1.53    0.23
   1   5  10    1.20    0.22
   1   5  10    1.78    0.18
   1   5  10    1.12    0.23
  -2  -5 -10    0.60    0.17
   2   5  10    0.41    0.15
  -3  -5 -10    0.24    0.16
   3   5  10    0.04    0.13
  -4  -5 -10    1.14    0.22
   4   5  10    1.22    0.21
  -5  -5 -10    4.15    0.38
   5   5  10    3.63    0.35
  -6  -5 -10    0.34    0.17
   6   5  10    0.27    0.15
   0  -6 -10    0.07    0.15
   0   6  10   -0.09    0.14
   0   6  10   -0.09    0.12
   0   6  10    0.32    0.08
  -1  -6 -10    0.10    0.14
   1   6  10    0.36    0.09
   1   6  10    0.15    0.16
   1   6  10   -0.04    0.12
  -2  -6 -10    0.65    0.18
   2   6  10    0.38    0.19
   2   6  10    0.58    0.18
  -3  -6 -10    0.23    0.15
   3   6  10    0.39    0.19
  -4  -6 -10    1.48    0.25
   4   6  10    1.96    0.28
  -5  -6 -10    0.81    0.20
   5   6  10    0.75    0.20
   2   7  10   -0.01    0.14
   2   7  10    0.14    0.07
   2   7  10   -0.01    0.16
  -3  -7 -10   -0.11    0.12
   3   7  10   -0.17    0.16
   3   7  10    0.11    0.06
  -1   1 -11    0.46    0.20
  -1   1 -11    0.10    0.12
   1  -1  11    0.27    0.14
  -2   1 -11    0.14    0.15
  -2   1 -11    0.32    0.15
   2  -1  11   -0.12    0.11
  -3   1 -11    0.00    0.13
  -3   1 -11   -0.03    0.13
   3  -1  11   -0.05    0.11
  -4   1 -11    0.13    0.15
   0   0 -11    0.25    0.14
   0   0 -11    0.30    0.18
   0   0  11    0.02    0.12
  -1   0 -11    0.23    0.17
  -1   0 -11    0.17    0.12
   1   0  11   -0.04    0.12
  -2   0 -11    0.69    0.18
  -2   0 -11    0.72    0.21
  -2   0 -11    0.55    0.14
   2   0  11    0.71    0.17
  -3   0 -11    0.02    0.14
  -3   0 -11    0.11    0.13
   3   0  11    0.06    0.12
  -4   0 -11    0.16    0.14
  -4   0 -11    0.21    0.17
   4   0  11    0.32    0.15
  -5   0 -11   -0.11    0.14
  -5   0 -11    0.03    0.14
   5   0  11   -0.03    0.12
   0  -1 -11    0.05    0.16
   0  -1 -11    0.06    0.11
   0   1  11   -0.15    0.11
  -2  -1 -11    0.64    0.13
  -2  -1 -11    1.23    0.22
  -2  -1 -11    0.50    0.15
   2   1  11    0.55    0.15
  -3  -1 -11    0.07    0.15
  -3  -1 -11    0.11    0.12
   3   1  11   -0.03    0.10
  -4  -1 -11    0.12    0.13
  -4  -1 -11   -0.01    0.14
   4   1  11   -0.07    0.11
  -5  -1 -11    0.06    0.14
  -5  -1 -11    0.06    0.14
   5   1  11   -0.11    0.12
   1  -2 -11   -0.02    0.13
   1  -2 -11    0.08    0.16
   0  -2 -11    0.19    0.19
   0  -2 -11    0.16    0.13
   0   2  11   -0.03    0.11
  -1  -2 -11    3.30    0.35
  -1  -2 -11    2.95    0.29
   1   2  11    2.45    0.29
  -2  -2 -11    1.12    0.18
  -2  -2 -11    1.01    0.20
  -2  -2 -11    1.51    0.24
   2   2  11    0.75    0.17
  -3  -2 -11    0.05    0.12
  -3  -2 -11   -0.02    0.16
   3   2  11   -0.20    0.11
  -4  -2 -11    0.09    0.12
  -4  -2 -11    0.09    0.15
   4   2  11   -0.05    0.12
  -5  -2 -11    0.35    0.16
  -5  -2 -11    0.65    0.17
   5   2  11    0.44    0.16
   0  -3 -11    0.10    0.17
   0   3  11   -0.04    0.12
   1   3  11    0.23    0.13
  -2  -3 -11    0.21    0.16
   2   3  11    0.03    0.12
  -3  -3 -11   -0.12    0.16
   3   3  11    0.00    0.12
  -4  -3 -11    0.06    0.15
   4   3  11    0.15    0.14
  -5  -3 -11    0.06    0.15
  -5  -3 -11    0.12    0.14
   5   3  11   -0.04    0.12
   0  -4 -11    0.08    0.16
   0   4  11   -0.04    0.14
  -1  -4 -11    0.90    0.22
   1   4  11    0.59    0.17
  -2  -4 -11   -0.08    0.14
   2   4  11    0.00    0.11
  -3  -4 -11   -0.18    0.15
   3   4  11   -0.01    0.11
  -4  -4 -11    0.24    0.16
   4   4  11    0.11    0.12
  -5  -4 -11    0.10    0.15
   5   4  11   -0.05    0.11
  -1  -5 -11    0.11    0.16
   1   5  11   -0.01    0.13
   1   5  11   -0.08    0.14
  -2  -5 -11   -0.03    0.15
   2   5  11   -0.15    0.12
  -3  -5 -11   -0.15    0.15
   3   5  11   -0.09    0.12
  -4  -5 -11    1.00    0.22
   4   5  11    1.08    0.21
   0   0   0    0.00    0.00
;
_shelx_hkl_checksum              49687
loop_
_space_group_symop_operation_xyz
'x, y, z'
'-x, -y, -z'
loop_
_atom_site_label
_atom_site_type_symbol
_atom_site_fract_x
_atom_site_fract_y
_atom_site_fract_z
_atom_site_U_iso_or_equiv
_atom_site_adp_type
_atom_site_occupancy
_atom_site_site_symmetry_order
_atom_site_calc_flag
_atom_site_refinement_flags_posn
_atom_site_refinement_flags_adp
O1 O 0.2285(3) 1.3054(3) 0.5719(2) 0.0802(8) Uani 1 1 d . .
O2 O 0.1621(2) 1.0664(2) 0.74091(18) 0.0508(6) Uani 1 1 d . .
C1 C 0.1262(4) 1.1954(3) 0.6314(3) 0.0535(7) Uani 1 1 d . .
C2 C -0.0429(3) 1.1633(3) 0.6105(3) 0.0459(7) Uani 1 1 d . .
C3 C -0.1376(4) 1.2560(4) 0.5173(3) 0.0602(8) Uani 1 1 d . .
H3A H -0.0960 1.3545 0.4545 0.072 Uiso 1 1 calc R U
C4 C -0.2953(4) 1.1961(4) 0.5216(3) 0.0656(9) Uani 1 1 d . .
H4A H -0.3602 1.2542 0.4598 0.079 Uiso 1 1 calc R U
C5 C -0.3582(4) 1.0487(4) 0.6182(3) 0.0630(8) Uani 1 1 d . .
H5A H -0.4651 1.0116 0.6199 0.076 Uiso 1 1 calc R U
C6 C -0.2643(3) 0.9562(4) 0.7118(3) 0.0536(7) Uani 1 1 d . .
H6A H -0.3061 0.8577 0.7744 0.064 Uiso 1 1 calc R U
C7 C -0.1049(3) 1.0171(3) 0.7081(2) 0.0427(6) Uani 1 1 d . .
C8 C 0.0235(3) 0.9557(3) 0.7928(3) 0.0417(6) Uani 1 1 d . .
C9 C 0.0187(3) 0.8236(3) 0.9016(3) 0.0454(6) Uani 1 1 d . .
H9A H -0.0813 0.7625 0.9279 0.054 Uiso 1 1 calc R U
C10 C 0.1457(3) 0.7584(3) 0.9870(2) 0.0417(6) Uani 1 1 d . .
C11 C 0.3073(4) 0.8299(3) 0.9661(3) 0.0506(7) Uani 1 1 d . .
H11A H 0.3375 0.9267 0.8965 0.061 Uiso 1 1 calc R U
C12 C 0.4221(4) 0.7567(4) 1.0488(3) 0.0547(7) Uani 1 1 d . .
H12A H 0.5272 0.8067 1.0327 0.066 Uiso 1 1 calc R U
C13 C 0.3844(4) 0.6111(3) 1.1547(3) 0.0508(7) Uani 1 1 d . .
C14 C 0.2232(4) 0.5427(3) 1.1771(3) 0.0560(8) Uani 1 1 d . .
H14A H 0.1932 0.4467 1.2477 0.067 Uiso 1 1 calc R U
C15 C 0.1063(4) 0.6141(3) 1.0968(3) 0.0510(7) Uani 1 1 d . .
H15A H -0.0002 0.5656 1.1160 0.061 Uiso 1 1 calc R U
C16 C 0.5149(4) 0.5307(4) 1.2394(3) 0.0713(9) Uani 1 1 d . .
H16A H 0.4675 0.4317 1.3062 0.107 Uiso 1 1 calc R U
H16B H 0.5397 0.6067 1.2905 0.107 Uiso 1 1 calc R U
H16C H 0.6195 0.5028 1.1748 0.107 Uiso 1 1 calc R U
loop_
_atom_site_aniso_label
_atom_site_aniso_U_11
_atom_site_aniso_U_22
_atom_site_aniso_U_33
_atom_site_aniso_U_23
_atom_site_aniso_U_13
_atom_site_aniso_U_12
O1 0.0739(15) 0.0673(14) 0.0930(15) 0.0129(12) -0.0318(13) -0.0192(12)
O2 0.0451(11) 0.0491(11) 0.0588(11) -0.0064(9) -0.0199(8) 0.0008(9)
C1 0.0560(17) 0.0476(15) 0.0576(15) -0.0086(13) -0.0197(13) 0.0045(14)
C2 0.0458(15) 0.0460(14) 0.0479(13) -0.0159(12) -0.0146(11) 0.0122(12)
C3 0.067(2) 0.0561(17) 0.0572(16) -0.0078(14) -0.0243(15) 0.0164(15)
C4 0.0631(19) 0.082(2) 0.0587(17) -0.0189(16) -0.0338(15) 0.0257(17)
C5 0.0461(16) 0.089(2) 0.0634(17) -0.0255(17) -0.0249(14) 0.0082(16)
C6 0.0442(15) 0.0655(18) 0.0538(15) -0.0160(13) -0.0170(12) 0.0060(14)
C7 0.0390(14) 0.0489(15) 0.0435(13) -0.0186(11) -0.0125(11) 0.0120(12)
C8 0.0349(13) 0.0457(14) 0.0468(13) -0.0149(11) -0.0122(10) 0.0058(11)
C9 0.0425(14) 0.0456(14) 0.0506(14) -0.0146(12) -0.0147(11) 0.0055(12)
C10 0.0438(14) 0.0406(13) 0.0447(13) -0.0175(11) -0.0142(11) 0.0092(11)
C11 0.0489(16) 0.0492(15) 0.0540(14) -0.0067(12) -0.0190(12) 0.0029(13)
C12 0.0458(16) 0.0640(18) 0.0587(16) -0.0149(14) -0.0211(13) 0.0033(14)
C13 0.0525(16) 0.0544(16) 0.0500(14) -0.0198(13) -0.0201(12) 0.0193(13)
C14 0.0679(19) 0.0470(15) 0.0521(15) -0.0066(12) -0.0202(14) 0.0071(14)
C15 0.0522(16) 0.0493(15) 0.0529(15) -0.0108(12) -0.0168(13) 0.0011(13)
C16 0.071(2) 0.081(2) 0.0686(19) -0.0200(17) -0.0358(17) 0.0293(18)
loop_
_atom_type_symbol
_atom_type_description
_atom_type_scat_dispersion_real
_atom_type_scat_dispersion_imag
_atom_type_scat_source
C C 0.0033 0.0016 'International Tables Vol C Tables 4.2.6.8 and 6.1.1.4'
H H 0.0000 0.0000 'International Tables Vol C Tables 4.2.6.8 and 6.1.1.4'
O O 0.0106 0.0060 'International Tables Vol C Tables 4.2.6.8 and 6.1.1.4'
loop_
_geom_angle_atom_site_label_1
_geom_angle_atom_site_label_2
_geom_angle_atom_site_label_3
_geom_angle
C1 O2 C8 109.35(19)
O1 C1 O2 120.3(3)
O1 C1 C2 131.9(3)
O2 C1 C2 107.7(2)
C7 C2 C3 122.0(3)
C7 C2 C1 107.7(2)
C3 C2 C1 130.2(3)
C4 C3 C2 117.8(3)
C3 C4 C5 120.7(2)
C6 C5 C4 121.7(3)
C5 C6 C7 117.7(3)
C2 C7 C6 120.0(2)
C2 C7 C8 107.8(2)
C6 C7 C8 132.2(2)
C9 C8 O2 122.8(2)
C9 C8 C7 129.8(2)
O2 C8 C7 107.4(2)
C8 C9 C10 130.9(2)
C15 C10 C11 116.6(2)
C15 C10 C9 118.7(2)
C11 C10 C9 124.7(2)
C12 C11 C10 120.8(2)
C13 C12 C11 122.3(3)
C14 C13 C12 116.7(2)
C14 C13 C16 122.2(2)
C12 C13 C16 121.1(3)
C15 C14 C13 122.0(2)
C14 C15 C10 121.5(3)
loop_
_geom_bond_atom_site_label_1
_geom_bond_atom_site_label_2
_geom_bond_distance
O1 C1 1.214(3)
O2 C1 1.405(3)
O2 C8 1.412(3)
C1 C2 1.478(4)
C2 C7 1.398(4)
C2 C3 1.400(4)
C3 C4 1.384(5)
C4 C5 1.403(4)
C5 C6 1.397(4)
C6 C7 1.403(4)
C7 C8 1.479(3)
C8 C9 1.341(4)
C9 C10 1.480(3)
C10 C15 1.410(3)
C10 C11 1.416(4)
C11 C12 1.399(3)
C12 C13 1.398(4)
C13 C14 1.399(4)
C13 C16 1.525(3)
C14 C15 1.393(3)
