#------------------------------------------------------------------------------
#$Date: 2019-11-11 17:24:43 +0200 (Mon, 11 Nov 2019) $
#$Revision: 226709 $
#$URL: file:///home/coder/svn-repositories/cod/cif/4/03/52/4035243.cif $
#------------------------------------------------------------------------------
#
# This file is available in the Crystallography Open Database (COD),
# http://www.crystallography.net/
#
# All data on this site have been placed in the public domain by the
# contributors.
#
data_4035243
loop_
_publ_author_name
'Potopnyk, Mykhaylo A.'
'Volyniuk, Dmytro'
'Ceborska, Magdalena'
'Cmoch, Piotr'
'Hladka, Iryna'
'Danyliv, Yan'
'Gra\<zulevi\<cius, Juozas Vidas'
_publ_section_title
;
 Benzo[4,5]thiazolo[3,2- c][1,3,5,2]oxadiazaborinines: Synthesis,
 Structural, and Photophysical Properties.
;
_journal_issue                   19
_journal_name_full               'The Journal of organic chemistry'
_journal_page_first              12129
_journal_page_last               12142
_journal_paper_doi               10.1021/acs.joc.8b02098
_journal_volume                  83
_journal_year                    2018
_chemical_formula_sum            'C16 H13 B Cl F2 N3 O S'
_chemical_formula_weight         379.61
_space_group_crystal_system      triclinic
_space_group_IT_number           2
_space_group_name_Hall           '-P 1'
_space_group_name_H-M_alt        'P -1'
_atom_sites_solution_hydrogens   geom
_audit_creation_method           SHELXL-2013
_cell_angle_alpha                81.582(14)
_cell_angle_beta                 74.877(14)
_cell_angle_gamma                75.943(13)
_cell_formula_units_Z            2
_cell_length_a                   7.4942(11)
_cell_length_b                   8.3234(13)
_cell_length_c                   13.895(2)
_cell_measurement_reflns_used    2049
_cell_measurement_temperature    100(2)
_cell_measurement_theta_max      72.0808
_cell_measurement_theta_min      3.3051
_cell_volume                     808.5(2)
_computing_structure_refinement  'SHELXL-2013 (Sheldrick, 2013)'
_diffrn_ambient_temperature      100(2)
_diffrn_measured_fraction_theta_full 0.991
_diffrn_measured_fraction_theta_max 0.959
_diffrn_measurement_device_type  'SuperNova, Dual, Cu at zero, Eos'
_diffrn_radiation_type           CuK\a
_diffrn_radiation_wavelength     1.54184
_diffrn_reflns_av_R_equivalents  0.0510
_diffrn_reflns_av_unetI/netI     0.0537
_diffrn_reflns_Laue_measured_fraction_full 0.991
_diffrn_reflns_Laue_measured_fraction_max 0.959
_diffrn_reflns_limit_h_max       8
_diffrn_reflns_limit_h_min       -9
_diffrn_reflns_limit_k_max       10
_diffrn_reflns_limit_k_min       -9
_diffrn_reflns_limit_l_max       17
_diffrn_reflns_limit_l_min       -14
_diffrn_reflns_number            4795
_diffrn_reflns_point_group_measured_fraction_full 0.991
_diffrn_reflns_point_group_measured_fraction_max 0.959
_diffrn_reflns_theta_full        67.684
_diffrn_reflns_theta_max         72.227
_diffrn_reflns_theta_min         3.308
_diffrn_source                   'SuperNova (Cu) X-ray Source'
_exptl_absorpt_coefficient_mu    3.591
_exptl_absorpt_correction_T_max  1.00000
_exptl_absorpt_correction_T_min  0.59627
_exptl_absorpt_correction_type   multi-scan
_exptl_absorpt_process_details
;
CrysAlisPro, Agilent Technologies,
Version 1.171.35.19 (release 27-10-2011 CrysAlis171 .NET)
(compiled Oct 27 2011,15:02:11)
Empirical absorption correction using spherical harmonics,
 implemented in SCALE3 ABSPACK scaling algorithm.
;
_exptl_crystal_colour            yellow
_exptl_crystal_density_diffrn    1.559
_exptl_crystal_description       needle
_exptl_crystal_F_000             388
_exptl_crystal_size_max          0.300
_exptl_crystal_size_mid          0.120
_exptl_crystal_size_min          0.040
_refine_diff_density_max         0.868
_refine_diff_density_min         -0.531
_refine_diff_density_rms         0.111
_refine_ls_extinction_method     none
_refine_ls_goodness_of_fit_ref   1.080
_refine_ls_hydrogen_treatment    constr
_refine_ls_matrix_type           full
_refine_ls_number_parameters     228
_refine_ls_number_reflns         3058
_refine_ls_number_restraints     0
_refine_ls_restrained_S_all      1.080
_refine_ls_R_factor_all          0.0698
_refine_ls_R_factor_gt           0.0640
_refine_ls_shift/su_max          0.000
_refine_ls_shift/su_mean         0.000
_refine_ls_structure_factor_coef Fsqd
_refine_ls_weighting_details
'w=1/[\s^2^(Fo^2^)+(0.1335P)^2^+0.1288P] where P=(Fo^2^+2Fc^2^)/3'
_refine_ls_weighting_scheme      calc
_refine_ls_wR_factor_gt          0.1807
_refine_ls_wR_factor_ref         0.1907
_reflns_Friedel_coverage         0.000
_reflns_number_gt                2685
_reflns_number_total             3058
_reflns_threshold_expression     'I > 2\s(I)'
_cod_data_source_file            jo8b02098_si_005.cif
_cod_data_source_block           shelx
_cod_original_cell_volume        808.4(2)
_cod_database_code               4035243
_shelx_space_group_comment
;
The symmetry employed for this shelxl refinement is uniquely defined
by the following loop, which should always be used as a source of
symmetry information in preference to the above space-group names.
They are only intended as comments.
;
_shelx_estimated_absorpt_t_min   0.412
_shelx_estimated_absorpt_t_max   0.870
_shelxl_version_number           2013-4
_shelx_res_file
;
TITL MPC_268
CELL  1.54184   7.4942   8.3234  13.8946   81.582   74.877   75.943
ZERR     2.00   0.0011   0.0013   0.0024    0.014    0.014    0.013
LATT   1
SFAC  C    H    B    N    O    F    S    CL
UNIT  32   26   2    6    2    4    2    2
MERG   2
OMIT    -1   2  15
OMIT     0   2  15
OMIT    -8  -3   3
OMIT     0   1  16
OMIT    -1   3  13
OMIT     4  -4  12
OMIT     6   4  14
OMIT     5   2  16
OMIT     5   3  15
FMAP   2
PLAN   20
SIZE     0.040   0.120   0.300
ACTA
BOND
L.S.   8
TEMP  -173.00
WGHT    0.133500    0.128800
FVAR       8.89400
C1    1    0.935105    0.125308    0.380556    11.00000    0.02355    0.01915 =
         0.01853   -0.00801    0.00079   -0.01089
C2    1    0.771782    0.193679    0.448742    11.00000    0.01917    0.02256 =
         0.02189   -0.00789    0.00357   -0.00885
AFIX  43
H2    2    0.650788    0.178874    0.447269    11.00000   -1.20000
AFIX   0
C3    1    0.794721    0.284242    0.518718    11.00000    0.02464    0.01816 =
         0.02335   -0.00714    0.00668   -0.00781
C4    1    0.971460    0.305543    0.523721    11.00000    0.03393    0.02170 =
         0.02135   -0.00972    0.00109   -0.01556
AFIX  43
H4    2    0.980386    0.367288    0.573985    11.00000   -1.20000
AFIX   0
C5    1    1.132935    0.237126    0.455853    11.00000    0.02776    0.02316 =
         0.02698   -0.00960    0.00241   -0.01354
AFIX  43
H5    2    1.253710    0.251186    0.458268    11.00000   -1.20000
AFIX   0
C6    1    1.113654    0.147454    0.384196    11.00000    0.02136    0.01765 =
         0.02068   -0.00628    0.00347   -0.00974
C7    1    1.200738   -0.006139    0.250066    11.00000    0.02074    0.01638 =
         0.02045   -0.00559    0.00264   -0.01098
C8    1    1.490633   -0.086668    0.150300    11.00000    0.02094    0.01903 =
         0.02167   -0.00385    0.00102   -0.01100
C9    1    1.616875   -0.170837    0.066879    11.00000    0.02018    0.01779 =
         0.01880   -0.00525    0.00308   -0.00898
C10   1    1.811522   -0.172468    0.041792    11.00000    0.02242    0.02024 =
         0.02337   -0.00581   -0.00225   -0.01060
AFIX  43
H10   2    1.859766   -0.113093    0.079061    11.00000   -1.20000
AFIX   0
C11   1    1.932888   -0.257392   -0.034889    11.00000    0.01879    0.02380 =
         0.02426   -0.00545    0.00522   -0.00996
AFIX  43
H11   2    2.063895   -0.256952   -0.049611    11.00000   -1.20000
AFIX   0
C12   1    1.865678   -0.346720   -0.093163    11.00000    0.02404    0.01925 =
         0.01812   -0.00588    0.00555   -0.00949
C13   1    1.667790   -0.342973   -0.067549    11.00000    0.02513    0.02437 =
         0.02173   -0.00758    0.00117   -0.01335
AFIX  43
H13   2    1.618035   -0.401408   -0.104615    11.00000   -1.20000
AFIX   0
C14   1    1.548787   -0.257356    0.008938    11.00000    0.02129    0.01945 =
         0.02132   -0.00490    0.00205   -0.01047
AFIX  43
H14   2    1.417302   -0.255814    0.023604    11.00000   -1.20000
AFIX   0
C15   1    1.915525   -0.539919   -0.217981    11.00000    0.03254    0.02992 =
         0.02904   -0.01762    0.00630   -0.00938
AFIX 137
H15A  2    1.862857   -0.622670   -0.168079    11.00000   -1.50000
H15B  2    2.020620   -0.596600   -0.268296    11.00000   -1.50000
H15C  2    1.817026   -0.473134   -0.250575    11.00000   -1.50000
AFIX   0
C16   1    2.188647   -0.444233   -0.189389    11.00000    0.02198    0.02837 =
         0.02685   -0.00914    0.00929   -0.00710
AFIX 137
H16A  2    2.215184   -0.332422   -0.201826    11.00000   -1.50000
H16B  2    2.251486   -0.505514   -0.248488    11.00000   -1.50000
H16C  2    2.236145   -0.503147   -0.131625    11.00000   -1.50000
AFIX   0
B1    3    1.473955    0.069381    0.291908    11.00000    0.02026    0.02370 =
         0.02784   -0.01140    0.00319   -0.01333
N1    4    1.259319    0.071416    0.309542    11.00000    0.01984    0.02037 =
         0.02075   -0.00744    0.00363   -0.01071
N2    4    1.306456   -0.088448    0.172854    11.00000    0.01594    0.01974 =
         0.02312   -0.00806    0.00363   -0.00930
N3    4    1.984156   -0.431706   -0.168815    11.00000    0.02329    0.02503 =
         0.02790   -0.01050    0.00539   -0.00965
O1    5    1.570273   -0.013996    0.201040    11.00000    0.01958    0.03237 =
         0.02516   -0.01462    0.00391   -0.01389
F1    6    1.499611    0.230844    0.278269    11.00000    0.02691    0.02884 =
         0.03357   -0.01223    0.00336   -0.01934
F2    6    1.543272   -0.015071    0.372501    11.00000    0.02256    0.03701 =
         0.02558   -0.01028   -0.00092   -0.01258
S1    7    0.956901    0.006663    0.283185    11.00000    0.01743    0.02224 =
         0.02039   -0.01122    0.00361   -0.00979
CL1   8    0.597047    0.376052    0.605963    11.00000    0.02933    0.02972 =
         0.02604   -0.01499    0.00716   -0.00607
HKLF    4

REM  MPC_268
REM R1 =  0.0640 for    2685 Fo > 4sig(Fo)  and  0.0698 for all    3058 data
REM    228 parameters refined using      0 restraints

END

WGHT      0.1335      0.1276

REM Highest difference peak  0.868,  deepest hole -0.531,  1-sigma level  0.111
Q1    1   1.2739  0.2864  0.5156  11.00000  0.05    0.87
Q2    1   1.0805  0.0395  0.2517  11.00000  0.05    0.66
Q3    1   0.9133  0.1106  0.3241  11.00000  0.05    0.65
Q4    1   0.9365  0.0404  0.3373  11.00000  0.05    0.63
Q5    1   0.6594  0.2632  0.5641  11.00000  0.05    0.50
Q6    1   0.8436 -0.0537  0.3138  11.00000  0.05    0.50
Q7    1   0.6718  0.3737  0.5408  11.00000  0.05    0.49
Q8    1   0.4910  0.3226  0.6346  11.00000  0.05    0.47
Q9    1   0.7223  0.4208  0.5731  11.00000  0.05    0.46
Q10   1   1.6479  0.0570  0.3404  11.00000  0.05    0.45
Q11   1   1.0687 -0.0563  0.2851  11.00000  0.05    0.45
Q12   1   1.0048 -0.1119  0.2402  11.00000  0.05    0.41
Q13   1   0.7197  0.2030  0.6678  11.00000  0.05    0.40
Q14   1   1.5368  0.0915  0.2444  11.00000  0.05    0.40
Q15   1   1.5913 -0.1767  0.0238  11.00000  0.05    0.39
Q16   1   1.0348  0.1905  0.3599  11.00000  0.05    0.39
Q17   1   2.1650 -0.1601 -0.2043  11.00000  0.05    0.38
Q18   1   0.9898 -0.0163  0.2229  11.00000  0.05    0.37
Q19   1   0.5529  0.4966  0.6441  11.00000  0.05    0.37
Q20   1   1.7437 -0.1373  0.0247  11.00000  0.05    0.36
;
_shelx_res_checksum              62669
_shelx_hkl_file
;
   0   0  -1 29252.1 419.065   1
   0   0  -2 38068.1 674.728   1
   0   0  -3 12872.8 484.613   1
   0   0  -4 17349.8 665.867   1
   0   0   4 17987.6 811.387   9
   0   0  -5 37753.2 1120.19   1
   0   0   5 36043.5 1323.24   9
   0   0   6 6915.24 680.854   9
   0   0  -6 7632.69 478.611   2
   0   0   7 4442.79 617.581   9
   0   0  -7 4605.99 414.275   2
   0   0   8 891.360 319.843   9
   0   0   9 208902. 5157.76   9
   0   0  10 25518.6 1937.07   9
   0   0  11 30598.8 2285.08   9
   0   0  11 31544.0 1324.52  10
   0   0  12 37226.5 2548.51   9
   0   0  12 41361.3 2676.60  26
   0   0  12 40279.4 1583.20  10
   0   0  12 45754.5 1757.29  13
   0   0  13 18853.9 1784.89  26
   0   0  13 16964.6 1028.21  10
   0   0  14 918.954 335.446  26
   0   0  15 2759.44 652.702  26
   0   0  16 2327.19 434.467  26
   0  -1  16 610.202 259.092  26
   0  -1  15 14118.7 1249.95  26
   0  -1  14 43077.2 2494.78  26
   0  -1  13 20141.2 1796.33  26
   0  -1  13 17926.3 1014.79  10
   0  -1  12 284.844 97.5664  10
   0  -1  11 8833.65 813.719  13
   0  -1  11 7553.42 634.066  10
   0  -1  11 7934.54 1125.29   9
   0  -1  10 3550.10 729.531   9
   0  -1   9 37757.6 2164.54   9
   0  -1   8 1648.72 416.699   9
   0  -1   7 28255.0 1539.87   9
   0  -1   6 24934.2 1311.18   9
   0   1  -6 24606.7 843.482   2
   0   1  -5 9077.07 461.076   2
   0   1  -4 92327.7 1381.69   2
   0   1  -3 76346.5 1110.23   2
   0   1  -2 300157. 2278.82   2
   0   1  -1 5663.16 298.875   3
   0   1  -1 5215.77 227.175   2
   0   1   0 313486. 2471.12   3
   0   1   1 115809. 1312.61   3
   0   1   1 120019. 1214.52   4
   0   1   2 130722. 1294.36   5
   0   1   2 137334. 1516.81   4
   0   1   3 262674. 2181.70   5
   0   1   3 262893. 2429.22   4
   0   1   4 3512.75 406.011   9
   0   1   4 2709.39 258.668   4
   0  -1  -5 134861. 1997.85   1
   0   1   5 146683. 2957.32   9
   0   1   6 78705.4 1695.70   4
   0   1   6 78801.6 2413.35   9
   0   1   7 21358.3 1408.44   9
   0  -1  -7 23902.6 976.027   2
   0   1   8 36.0358 132.169   9
   0  -1  -8-15.8190 36.6032   2
   0   1   9 6628.82 978.387   9
   0   1  10 116.407 148.771   9
   0   1  11 33208.0 2308.41  26
   0   1  11 34718.3 1444.47  13
   0   1  11 29673.1 2320.90   9
   0   1  11 31135.0 1335.61  10
   0   1  12 102217. 4490.30   9
   0   1  12 107817. 4339.13  26
   0   1  12 116235. 2718.77  13
   0   1  12 107608. 2619.16  10
   0   1  13 9773.92 1286.38  26
   0   1  13 9739.79 780.660  13
   0   1  14 2971.60 768.335  26
   0   1  15 1209.85 501.639  26
   0   1  16 4304.87 768.229  26
   0  -2  15 8001.56 868.168  26
   0  -2  14 6485.16 927.082  26
   0  -2  13 63.8410 68.1099  14
   0  -2  12 25585.7 1147.08  10
   0  -2  12 20993.4 1478.11  14
   0  -2  11 80727.6 3590.23   9
   0  -2  11 84395.4 3016.14  14
   0  -2  11 78301.1 2022.74  10
   0  -2  10 12645.5 925.644  13
   0  -2  10 11463.3 1072.37  14
   0  -2  10 9728.32 1186.36   9
   0   2 -10 12166.4 1151.55   3
   0   2  -9 8077.16 910.069   3
   0  -2   9 6150.01 879.833   9
   0  -2   8 3552.74 623.050   9
   0   2  -8 3952.44 604.085   3
   0   2  -7 41182.7 1827.75   3
   0  -2   7 42124.2 1996.47   9
   0   2  -6 936.163 260.650   3
   0   2  -5 30869.1 1352.70   3
   0   2  -5 31005.2 921.591   2
   0   2  -4 96891.5 1584.61   2
   0   2  -4 104175. 2279.08   3
   0  -2   3 526.973 139.290   1
   0   2  -3 664.786 129.112   2
   0   2  -3 763.519 189.301   3
   0   2  -1 6617.79 452.269   3
   0   2  -1 5717.49 302.508   4
   0   2   0 32437.4 777.843   4
   0   2   0 31724.3 924.164   3
   0   2   1 9138.18 431.044   4
   0   2   1 8759.57 494.394   3
   0   2   2 5642.65 385.904   4
   0   2   3 13034.2 611.684   4
   0   2   3 13335.6 515.001   5
   0   2   4 6237.96 380.626   5
   0   2   4 6310.69 446.050   4
   0   2   5 12768.0 683.164   4
   0   2   5 12146.6 1045.33   9
   0   2   5 12619.8 571.521   5
   0   2   6 10702.1 679.999   4
   0   2   6 10827.9 1029.74   9
   0   2   7 77159.1 3048.13   9
   0   2   7 83952.6 2086.87   4
   0   2   8 12079.0 807.933   4
   0   2   8 10353.2 1187.89   9
   0   2   9 20842.4 1836.39   9
   0  -2  -9 26975.6 1279.05   2
   0   2  10 14750.0 1614.06   9
   0   2  11 44800.8 2730.01  26
   0   2  11 39682.0 2774.73   9
   0   2  12 7624.94 1174.25  26
   0   2  12 7396.22 737.518  23
   0   2  13 1729.85 272.998  23
   0   2  13 7258.31 1191.32  26
   0   2  14-1636.29 875.585  26
   0   2  14 6753.52 728.413  23
   0   2  15 10624.5 1316.02  26
   0   2  16 18290.0 1237.12  26
   0  -3  15 2762.42 425.211  26
   0  -3  14 1088.35 290.918  14
   0  -3  14 1096.44 302.269  26
   0  -3  13 332.508 182.194  14
   0  -3  12 247.871 177.282  14
   0  -3  11 9682.18 1063.28  14
   0  -3  10 19280.0 1652.56   9
   0  -3  10 23160.1 1643.98  14
   0  -3   9 30999.9 2045.87   9
   0   3  -9 33772.3 1961.00   3
   0   3  -8 215.449 164.348   3
   0  -3   8 252.197 194.317   9
   0   3  -7 12970.7 1092.91   3
   0   3  -6 20680.8 1302.09   3
   0   3  -5 33786.5 1555.49   3
   0   3  -4 47750.7 1749.32   3
   0   3  -4 42996.5 1206.91   2
   0   3  -3-2.77147 53.1281   2
   0   3  -3 79.0610 61.3651   4
   0   3  -3 12.8804 93.7031   3
   0   3  -2 18819.1 686.671   4
   0   3  -2 17967.2 980.869   3
   0   3  -1 101357. 1693.46   4
   0   3  -1 104259. 2218.51   3
   0   3   0 169910. 2797.81   3
   0   3   0 169348. 2331.15   4
   0   3   1 1977.43 316.001   3
   0   3   1 2227.61 258.221   4
   0   3   2 57595.7 1471.36   4
   0   3   2 54805.1 1541.66   3
   0   3   3 49509.0 1398.93   4
   0   3   4 25934.7 1045.04   4
   0   3   4 26376.5 907.201   5
   0   3   5 508.467 171.052   4
   0   3   5 747.695 170.526   5
   0   3   6 145.018 116.146   4
   0   3   6 838.209 433.467   9
   0   3   7 13632.7 904.708   4
   0   3   7 11751.7 1298.96   9
   0   3   8 45330.0 2644.89   9
   0   3   8 54179.2 1913.39   4
   0   3   9 12138.7 1495.22   9
   0   3   9 13616.9 996.152   4
   0   3  10 35409.0 2382.57  26
   0   3  10 34174.3 2556.72   9
   0   3  11 4329.27 1105.30   9
   0   3  11 2014.96 328.078  23
   0   3  12 2310.77 457.451  23
   0   3  12 200.649 922.963  26
   0   3  13 4949.97 1261.45  26
   0   3  13 2225.22 678.770  23
   0   3  14 15293.8 1748.18  26
   0   3  14 3812.42 702.447  23
   0   3  15 879.483 394.945  23
   0   3  15 16348.4 1470.26  26
   0  -4  14 9136.55 733.812  14
   0  -4  14 12574.3 958.297  26
   0  -4  13 32460.2 1615.49  14
   0  -4  12 17136.9 1296.47  14
   0  -4  11 17111.2 1383.69  14
   0  -4  10 3221.91 625.671  14
   0  -4   9 1478.79 464.886   9
   0  -4   9 641.210 309.854  11
   0  -4   9 1983.19 480.758  14
   0  -4   8 80.5503 140.025  11
   0  -4   8 217.184 191.676  14
   0   4  -8-27.6700 208.286   3
   0   4  -7 1994.46 470.230   3
   0   4  -6 13758.3 1200.23   3
   0   4  -5 2191.63 459.886   3
   0   4  -4 908886. 9824.33   3
   0   4  -3 1000.03 299.732   3
   0   4  -2 44241.1 1743.41   3
   0   4  -2 44416.4 1303.33   4
   0   4  -1 9983.40 814.350   3
   0   4  -1 10009.5 629.157   4
   0   4   0 42667.0 1670.29   3
   0   4   0 41063.6 1286.77   4
   0   4   1 9621.06 664.620   4
   0   4   1 10456.9 789.822   3
   0   4   2 75062.3 2009.00   4
   0   4   2 64872.2 2044.70   3
   0   4   3 5536.09 540.632   4
   0   4   4 17453.1 865.242   5
   0   4   4 18120.4 989.150   4
   0   4   5 134777. 2864.75   4
   0   4   6 1597.16 324.436   4
   0   4   7 61001.4 2128.59   4
   0   4   8 19.7536 77.6411   4
   0   4   9 55118.7 2145.86   4
   0   4  10 46785.4 2074.95  23
   0   4  10 34717.2 2500.72  26
   0   4  11 38304.4 2630.93  26
   0   4  11 42817.2 2050.81  23
   0   4  12 11117.0 1163.67  23
   0   4  12 22648.9 2108.20  26
   0   4  13 28410.1 2300.14  26
   0   4  13 14097.1 1150.03  23
   0   4  14 41364.3 1692.55  23
   0   4  15 5509.23 595.150  23
   0  -5  13 1824.44 333.203  14
   0  -5  12 6666.14 729.633  14
   0  -5  11 10476.9 1015.26  14
   0  -5  10 28.5646 90.6010  14
   0  -5  10 7.31757 84.9803  11
   0  -5   9 9056.48 1226.07  11
   0  -5   9 19373.9 1496.40  14
   0  -5   8 18857.2 1759.30  11
   0  -5   8 26889.8 1764.37  14
   0  -5   7 22303.8 1849.63  11
   0  -5   7 26995.3 1727.96  14
   0   5  -6 76987.0 3037.79   3
   0   5  -5 18259.2 1412.70   3
   0   5  -4 8278.50 916.127   3
   0   5  -3 15498.7 1181.74   3
   0   5  -2 66106.7 2437.26   3
   0   5  -1 254.342 162.651   3
   0   5  -1 342.132 149.340   4
   0   5   0 85700.2 2267.14   4
   0   5   0 88716.4 2695.69   3
   0   5   1 54509.9 1884.07   4
   0   5   1 46382.8 1958.97   3
   0   5   2 6451.11 640.465   4
   0   5   3 51894.2 1832.16   4
   0   5   4 3295.37 475.726   4
   0   5   4 3186.92 422.787   5
   0   5   5 237.994 138.397   4
   0   5   6 17349.1 1179.18   4
   0   5   7 177.699 139.454   4
   0   5   8 42227.8 1898.75   4
   0   5   8 50923.2 2165.57  23
   0   5   9 12912.6 1208.87  23
   0   5  10 13413.4 1277.30  23
   0   5  11 9387.74 1151.11  23
   0   5  12 21346.3 1460.95  23
   0   5  13 7353.28 908.675  23
   0   5  14 10426.6 807.189  23
   0   5  14 8051.69 703.444  12
   0  -6  12 609.858 184.548  14
   0  -6  11 0.21889 105.204  14
   0  -6  10-33.8804 138.624  11
   0  -6  10 299.397 176.354  14
   0  -6   9 777.882 366.527  11
   0  -6   9 1208.46 351.294  14
   0  -6   8 4563.44 687.854  14
   0  -6   8 4303.54 845.318  11
   0  -6   7 254.121 290.475  11
   0  -6   7 525.134 243.865  14
   0  -6   6 176738. 5510.15  11
   0  -6   6 181158. 4278.19  14
   0  -6   5 6273.11 1015.79  11
   0  -6   4 10000.4 1027.56  17
   0  -6   4 7615.93 1085.25  11
   0   6  -3 1537.21 439.382   3
   0   6  -2 4889.34 764.051   3
   0   6  -1 4935.00 781.403   3
   0   6   0 8262.90 763.713   4
   0   6   0 6943.57 905.658   3
   0   6   1-146.629 144.907   3
   0   6   1-2.39719 54.5182   4
   0   6   2 15571.4 1079.15   4
   0   6   3 70518.2 2334.24   4
   0   6   4 11298.8 952.240   4
   0   6   5 66958.7 2389.54   4
   0   6   6 7314.44 785.057  15
   0   6   6 7659.51 822.130  23
   0   6   6 7932.28 943.596  19
   0   6   7 111685. 3139.61  15
   0   6   7 108879. 3331.71  23
   0   6   8 37196.0 1927.19  23
   0   6   8 31381.2 1633.63  15
   0   6   9 13459.2 1215.10  23
   0   6  10 1648.05 647.433  23
   0   6  11 14282.5 1154.87  23
   0   6  12 28347.8 1428.21  23
   0   6  13-734.189 512.104  23
   0   6  14 7355.18 482.193  23
   0  -7  10 60.3611 69.6511  14
   0  -7  10-75.7612 110.913  11
   0  -7   9 10078.4 787.529  14
   0  -7   9 7669.10 954.962  11
   0  -7   8 12401.1 1318.09  11
   0  -7   7 5664.10 953.463  11
   0  -7   6 48.8788 176.638  11
   0  -7   5 3328.91 768.793  11
   0  -7   4 2563.59 664.428  11
   0  -7   3 690.175 383.581  11
   0  -7   3 687.729 247.651  16
   0   7  -2 6287.96 790.696  19
   0  -7   2 5430.76 744.342  16
   0  -7   2 7791.65 891.367  17
   0  -7   2 5696.74 926.250  11
   0  -7   1-38.3319 120.034  11
   0  -7   1 256.533 166.987  17
   0   7  -1 237.967 172.444  19
   0   7   0 7336.41 909.130  19
   0  -7   0 7403.02 849.979  17
   0   7   1 1527.81 416.833  19
   0   7   2 2061.62 498.868  19
   0   7   2 1731.43 393.613  23
   0   7   3 1947.07 407.344  23
   0   7   3 2777.81 595.211  19
   0   7   4 39689.0 1894.68  23
   0   7   4 45741.8 2405.54  19
   0   7   5 14572.7 1105.34  23
   0   7   5 17169.4 1445.93  19
   0   7   6 8435.60 792.919  23
   0   7   6 11627.1 1163.79  19
   0   7   7 315.524 206.549  19
   0   7   8-276.982 611.531  23
   0   7  11 5690.55 385.287  23
   0   7  12 4185.38 351.272  23
   0  -8   8 17547.8 1215.57  11
   0  -8   7 871.757 318.242  11
   0  -8   6 6505.57 909.274  11
   0  -8   5 496.771 316.281  11
   0  -8   4 3894.11 755.464  11
   0  -8   3 6664.63 985.408  11
   0  -8   3 6135.99 665.137  16
   0  -8   2 1103.01 414.749  11
   0   8  -2 1119.21 314.811  19
   0  -8   2 1040.36 289.640  16
   0   8  -1 11678.1 1077.41  19
   0  -8   1 8534.88 889.788  16
   0   8   0 30096.7 1793.35  19
   0  -8   0 26321.6 1589.05  16
   0   8   1 5134.11 771.715  19
   0   8   2 4565.64 739.396  19
   0   8   3 71455.2 2523.63  23
   0   8   3 64089.2 2755.63  19
   0   8   4 2528.82 534.720  19
   0   8   4 2857.24 528.234  23
   0   8   5 47421.4 1979.96  23
   0   8   5 48321.9 2290.56  19
   0   8   6 27226.5 1450.11  23
   0   8   6 26937.0 1630.97  19
   0   8   7 9574.21 837.222  23
   0   8   7 9350.48 883.653  19
   0   8   8 8356.81 755.288  23
   0   8   9 24573.0 1193.25  23
   0   8  10 5918.44 528.467  23
   0   8  11 6965.39 504.720  23
   0  -9   5 310.113 157.876  11
   0  -9   4 3697.17 545.637  11
   0  -9   3 200.442 147.001  11
   0  -9   2 6562.90 549.127  16
   0  -9   1 612.161 187.810  16
   0  -9   0 4687.83 548.735  16
   0  -9  -1 289.295 143.407  16
   0   9   1 572.603 227.657  19
   0  -9  -2 55460.6 2007.53  16
   0   9   2 59815.4 2234.68  19
   0   9   3 4581.21 615.675  19
   0   9   4 214.016 151.320  19
   0   9   5 8869.54 668.386  23
   0   9   5 9232.13 811.584  19
   0   9   6 1623.58 263.179  23
   0   9   6 1847.00 335.241  19
   0   9   7-358.081 141.351  23
   1  -9  -6 1578.68 275.675  16
   1  -9  -5 82.6813 94.0747  16
   1  -9  -4 384.209 163.141  16
   1  -9  -3 4588.79 545.522  16
   1  -9  -2 33900.9 1434.67  16
   1  -9  -1 9006.02 727.866  16
   1  -9   0 15067.8 919.344  16
   1  -9   1 2475.24 363.568  16
   1  -9   2 20930.0 980.350  16
   1  -9   3 335.705 122.281  16
  -1   8   9 321.450 118.133  23
  -1   8   9 421.455 141.836  12
  -1   8   8 10134.8 790.470  23
  -1   8   8 9193.99 706.693  12
  -1   8   7 5842.17 650.344  23
  -1   8   6 63.1783 138.768  23
  -1   8   5 1960.27 432.829  19
  -1   8   5 2566.03 477.403  23
  -1   8   4 4535.63 651.716  23
  -1   8   4 4402.23 674.861  19
  -1   8   3 42167.4 1950.64  23
  -1   8   3 37198.2 2014.47  19
  -1   8   2 3877.01 584.810  23
  -1   8   2 2880.14 567.460  19
   1  -8  -1 16.1459 88.8761  16
  -1   8   1 144.198 184.989  19
   1  -8   0 40.2936 94.7486  16
  -1   8   0-63.8423 153.971  19
   1  -8   1 11135.5 997.833  16
   1  -8   2 12513.1 1016.06  16
   1  -8   3 1835.31 501.217  11
   1  -8   3 3080.22 483.719  16
   1  -8   4 9823.66 1146.95  11
   1  -8   4 12519.1 907.124  16
   1  -8   5 3355.69 438.070  16
   1  -8   5 2151.79 544.140  11
   1  -8   6 257.944 201.838  11
   1  -8   7 968.819 328.599  11
  -1   7  11 253.222 183.914  23
  -1   7  11 20.4539 67.0080  12
  -1   7  10 44556.8 1681.17  23
  -1   7   9 33009.6 1573.67  23
  -1   7   8 236.807 281.856  23
  -1   7   7 10174.0 943.524  23
  -1   7   6 261.778 182.132  19
  -1   7   6 281.569 168.077  23
  -1   7   5 944.975 344.696  19
  -1   7   5 716.547 273.157  23
  -1   7   4 40938.9 2003.51  23
  -1   7   4 40018.2 2219.08  19
  -1   7   3 38204.6 1971.80  23
  -1   7   3 38888.4 2208.19  19
  -1   7   2 21708.1 1513.03  23
  -1   7   2 20331.9 1614.99  19
  -1   7   1 24338.3 1597.44  23
  -1   7   1 22727.9 1672.79  19
  -1   7   0 91802.1 3342.49  19
  -1   7   0 94187.0 3000.09  23
   1  -7   1 4521.11 698.409  16
  -1   7  -1 5608.66 804.468  19
   1  -7   2 2564.62 653.647  11
   1  -7   2 3185.46 576.707  16
  -1   7  -2 3466.90 618.283  19
   1  -7   3 327.141 183.465  16
   1  -7   3 529.658 328.068  11
   1  -7   4 1974.03 417.003  16
   1  -7   4 2103.78 623.407  11
   1  -7   5 2269.88 640.447  11
   1  -7   5 2133.27 421.652  16
   1  -7   6 4788.30 915.915  11
   1  -7   6 4806.21 597.911  16
   1  -7   7 3820.99 789.118  11
   1  -7   7 4032.25 498.861  16
   1  -7   8 1298.90 464.191  11
   1  -7   9 69902.8 2828.72  11
  -1   6  13 162.449 100.150  12
  -1   6  12 572.522 382.562  23
  -1   6  12 2844.49 472.397  12
  -1   6  11-308.264 720.977  23
  -1   6  10 8432.78 708.905  23
  -1   6   9-1034.10 765.009  23
  -1   6   8-824.526 616.101  23
  -1   6   7 6465.23 704.075  23
  -1   6   6 877.412 416.223  23
  -1   6   5 86722.4 3178.00  19
  -1   6   5 84430.0 2782.26  23
  -1   6   4 74216.0 2962.56  19
  -1   6   4 72589.9 2553.55  23
  -1   6   3 3063.19 507.052   4
  -1   6   3 3554.65 567.508  23
  -1   6   3 3051.40 593.891  19
  -1   6   2 1631.48 364.140   4
  -1   6   1 8121.62 834.294   4
  -1   6   0 23854.9 1384.75   4
  -1   6  -1 17562.2 1388.32   3
  -1   6  -1 20012.0 1227.05   4
  -1   6  -2 59095.1 2431.07  19
  -1   6  -2 54926.0 2421.26   3
   1  -6   2 53516.6 2345.84  16
   1  -6   3 7892.13 1133.33  11
  -1   6  -3 9402.60 941.976  19
   1  -6   3 8243.06 892.225  16
   1  -6   4 7057.27 1123.38  11
   1  -6   4 6004.84 768.422  16
   1  -6   5 17389.0 1271.14  16
   1  -6   5 17660.2 1812.60  11
   1  -6   6 267.523 174.750  11
   1  -6   6 744.666 255.538  16
   1  -6   7 27599.5 1762.08  14
   1  -6   7 29096.4 1546.24  16
   1  -6   7 28501.9 2332.50  11
   1  -6   8 435.896 308.977  11
   1  -6   8 711.221 261.743  14
   1  -6   9 3066.61 557.160  14
   1  -6   9 3329.45 730.010  11
   1  -6  10 1148.69 432.918  11
   1  -6  10 1887.80 413.130  14
   1  -6  11 12825.5 966.145  14
   1  -6  12 2362.24 355.467  14
  -1   5  13 1446.30 319.683  23
  -1   5  13 2739.14 461.371  12
  -1   5  12 27301.8 1432.25  23
  -1   5  11 14810.7 1249.20  23
  -1   5  10 3197.97 843.183  23
  -1   5   9 2400.22 785.638  23
  -1   5   8 2484.69 717.141  23
  -1   5   7 4819.18 775.096  23
  -1   5   6 25554.7 1437.36   4
  -1   5   5 36246.2 1690.89   4
  -1   5   4 19465.1 1227.56   4
  -1   5   3 7359.28 752.847   4
  -1   5   2 168670. 3673.49   4
  -1   5   1 2860.24 433.432   4
  -1   5   1 2568.24 468.366   3
  -1   5   0 7527.62 674.565   4
  -1   5   0 6012.60 787.964   3
  -1   5  -1 165.193 146.172   3
  -1   5  -1 121.186 104.009   4
  -1   5  -2 1944.28 454.825   3
  -1   5  -2 3067.81 435.393   4
  -1   5  -3 658.779 207.584   4
  -1   5  -3 370.379 199.745   3
  -1   5  -4 6987.84 850.061   3
  -1   5  -5 6416.89 858.335   3
   1  -5   6 711.330 291.408  14
   1  -5   6 1075.45 433.784  11
   1  -5   6 464.924 202.219  16
  -1   5  -6 732.362 369.014   3
   1  -5   7 287087. 5075.39  16
   1  -5   7 294773. 7420.06  11
   1  -5   8 1987.55 617.991  11
   1  -5   8 1594.84 369.310  16
   1  -5   8 2237.86 537.183  14
   1  -5   9 1546.26 533.696  11
   1  -5   9 1925.84 475.728  14
   1  -5  10 174.652 246.130  11
   1  -5  10 844.629 320.973  14
   1  -5  11-69.6584 134.405  14
   1  -5  11-314.277 224.657  11
   1  -5  12 3837.51 585.746  14
   1  -5  13 1417.99 304.960  14
  -1   4  13 7101.23 801.279  12
  -1   4  13 10327.5 962.775  23
  -1   4  12 16065.5 1255.55  23
  -1   4  11 29681.0 1734.25  23
  -1   4  11 28690.1 2419.00  26
  -1   4  10 9576.67 1565.53  26
  -1   4  10 13091.8 1221.63  23
  -1   4   9 6830.29 1241.57  26
  -1   4   9 5958.23 909.500  23
  -1   4   8 64668.1 2264.47   4
  -1   4   7 99893.4 2732.94   4
  -1   4   6 56432.3 1982.94   4
  -1   4   5 428.015 194.613   4
  -1   4   4 708.087 223.274   4
  -1   4   3 764.611 245.086   4
  -1   4   2 3369.47 431.087   4
  -1   4   1 87712.7 2121.87   4
  -1   4   1 83488.3 2229.57   3
  -1   4   0 21686.0 1158.49   3
  -1   4   0 20581.6 1021.93   4
  -1   4  -1 11724.3 749.212   4
  -1   4  -1 10887.3 860.918   3
  -1   4  -2 10503.8 696.927   4
  -1   4  -2 11450.9 891.754   3
  -1   4  -3 558.607 233.237   3
  -1   4  -3 391.020 142.568   4
  -1   4  -4 5365.49 702.471   3
  -1   4  -4 4176.62 442.568   4
  -1   4  -5 67855.8 2527.76   3
  -1   4  -6 1106.77 308.690   3
  -1   4  -7-15.1450 221.596   3
   1  -4   8 33.6315 102.910  11
   1  -4   8 95.4415 100.083  16
   1  -4   8 350.550 246.702  14
   1  -4   9 8677.84 1193.83  11
   1  -4   9 13569.2 1279.23  14
   1  -4  10 861.153 382.621  11
   1  -4  10 1305.96 397.401  14
   1  -4  11 397.054 223.822  14
   1  -4  12-28.8102 130.496  14
   1  -4  13 170.116 149.792  14
   1  -4  14 1589.13 327.764  14
  -1   3  14 47365.5 2478.46  26
  -1   3  13 18548.1 1824.69  26
  -1   3  12 1848.44 1096.74  26
  -1   3  12 3109.42 722.147  23
  -1   3  11 1965.51 650.843  23
  -1   3  11-2324.04 1103.62  26
  -1   3  10 12266.1 1593.80   9
  -1   3  10 17030.8 1273.44  23
  -1   3   9 5780.18 1134.75   9
  -1   3   8 64498.7 2040.00   4
  -1   3   8 51886.4 2987.00   9
  -1   3   7 93495.8 3783.28   9
  -1   3   7 118784. 2749.60   4
  -1   3   6 739.443 200.337   4
  -1   3   6 610.718 202.657   8
  -1   3   5 118414. 3710.64   9
  -1   3   5 144229. 2753.79   4
  -1   3   4 459761. 5196.12   4
  -1   3   3 89523.4 2026.58   4
  -1   3   2 9002.46 600.275   4
  -1   3   1 23318.5 960.400   4
  -1   3   1 22374.7 965.606   3
  -1   3   0 56378.5 1550.45   3
  -1   3   0 50719.3 1370.31   4
  -1   3  -1 54236.8 1358.09   4
   1  -3   1 47806.8 1230.95   1
  -1   3  -2 45080.5 1547.33   3
  -1   3  -2 40579.3 1305.51   2
  -1   3  -3 22596.2 1133.72   3
  -1   3  -3 19740.2 915.712   2
  -1   3  -4 19977.3 1139.49   3
  -1   3  -4 16805.2 893.208   2
  -1   3  -5 989730. 9440.82   3
  -1   3  -5 999999. 8089.52   2
  -1   3  -6 1196.89 249.267   2
  -1   3  -6 1282.79 330.597   3
  -1   3  -7 5414.99 713.590   3
  -1   3  -8 2188.62 479.901   3
  -1   3  -9 441.979 237.431   3
   1  -3  10 27450.8 1815.11  14
   1  -3  11 9826.15 1094.36  14
   1  -3  12 977.511 342.886  14
   1  -3  13 6606.11 821.411  14
   1  -3  14 12096.5 989.857  14
   1  -3  14 16833.5 1264.05  26
   1  -3  15 30.1576 67.2547  14
  -1   2  15 10426.5 1253.43  26
  -1   2  14 16278.1 1630.17  26
  -1   2  13 8746.48 670.028  13
  -1   2  13-2234.69 1266.03  26
  -1   2  12 6153.07 1153.88  26
  -1   2  12 3134.96 428.116  13
  -1   2  11 2301.25 684.477   9
  -1   2  11 3103.60 440.412  13
  -1   2  11 3147.27 776.568  26
  -1   2  10 66874.5 3642.04   9
  -1   2  10 71639.4 3426.35  26
  -1   2   9 72953.4 3616.90   9
  -1   2   8 31754.9 2233.29   9
  -1   2   7 27050.7 1134.12   4
  -1   2   7 23535.6 1776.88   9
  -1   2   6 13445.1 1246.16   9
  -1   2   6 14498.1 805.356   4
  -1   2   6 12408.1 801.898   8
  -1   2   5 7174.09 542.127   4
  -1   2   5 6439.18 795.098   9
  -1   2   5 6402.24 548.862   8
  -1   2   4 119060. 3233.91   9
  -1   2   4 134275. 2231.50   4
  -1   2   3 84409.3 2410.77   9
  -1   2   3 71840.8 1568.58   4
  -1   2   2 206775. 2606.28   4
  -1   2   2 225495. 3667.40   9
  -1   2   1 108.659 73.3915   4
   1  -2  -1 173.631 48.7609   1
  -1   2   1 82.6241 72.5754   3
  -1   2   0 60164.1 1227.82   4
   1  -2   0 57108.9 983.412   1
   1  -2   1 120.723 57.3671   1
  -1   2  -1 65.5602 71.0071   3
  -1   2  -1 85.1874 57.7392   2
   1  -2   2 90356.5 1555.23   1
  -1   2  -2 92009.2 1702.21   2
  -1   2  -3 190964. 2941.35   3
  -1   2  -3 204109. 2680.17   2
  -1   2  -4 30444.2 1037.09   2
  -1   2  -5 15075.9 751.974   2
  -1   2  -6 14148.3 782.271   2
   1  -2   7 96028.2 2753.38   9
  -1   2  -7 112738. 2332.58   2
   1  -2   8 15503.2 1189.89   9
  -1   2  -9 7033.61 881.217   3
  -1   2 -10 1457.04 431.393   3
   1  -2  11 456.472 243.459  14
   1  -2  11 347.502 144.226  10
   1  -2  12 297.434 153.383  10
   1  -2  12 77.7835 120.662  14
   1  -2  13 13801.2 808.803  10
   1  -2  13 10160.8 1037.47  14
   1  -2  14 1198.22 228.769  10
   1  -2  14 665.453 247.980  26
   1  -2  14 830.199 281.076  14
   1  -2  15 20099.0 1312.62  26
  -1   1  15-1702.27 833.093  26
  -1   1  14 8275.01 1140.10  26
  -1   1  14 1790.98 310.551  13
  -1   1  13 29.6996 86.3837  13
  -1   1  13 489.331 360.104  26
  -1   1  12 80.3371 163.630  13
  -1   1  12-97.1335 271.619  26
  -1   1  11 14514.3 1694.40   9
  -1   1  11 14546.5 1589.11  26
  -1   1  10 4596.60 907.209   9
  -1   1   9 9830.72 1245.44   9
  -1   1   8 2225.25 543.297   9
  -1   1   7 83203.5 3060.59   9
  -1   1   7 79654.5 1978.75   8
  -1   1   6 516879. 7063.71   9
  -1   1   6 476360. 5171.68   8
  -1   1   5 87790.1 1909.24   8
  -1   1   5 91219.4 2559.73   9
  -1   1   4 32229.4 1355.87   9
  -1   1   4 29831.4 858.366   4
  -1   1   4 30334.2 1033.03   8
  -1   1   3 828.987 149.040   8
  -1   1   3 985.477 155.271   4
  -1   1   3 827.763 213.357   9
  -1   1   2 112232. 1522.11   4
  -1   1   2 116677. 2152.29   9
  -1   1   1 342.950 80.3980   4
  -1   1   0 19052.6 498.809   3
  -1   1   0 15747.2 523.142   2
  -1   1  -1 66123.7 1134.96   2
  -1   1  -1 67163.6 952.282   1
  -1   1  -2 26093.0 743.686   2
  -1   1  -2 29159.6 729.516   1
  -1   1  -4 281.425 101.540   1
  -1   1  -4 148.675 78.0343   2
  -1   1  -5 111104. 1961.02   2
  -1   1  -6 3560.01 373.404   2
   1  -1   6 3232.57 426.306   9
  -1   1  -7 427.041 150.249   2
   1  -1   7 329.434 155.120   9
   1  -1   8 8731.23 866.124   9
  -1   1  -8 12050.7 795.642   2
   1  -1   9 8643.25 972.402   9
   1  -1  10 99.2660 126.562   9
   1  -1  11 6428.63 567.641  10
   1  -1  11 5182.64 699.150  14
   1  -1  12 11579.8 1077.28  14
   1  -1  12 13821.4 876.322  10
   1  -1  13 448.887 175.599  10
   1  -1  13-619.481 335.914  26
   1  -1  14 6463.33 569.578  10
   1  -1  14 6869.59 958.908  26
   1  -1  15 598.760 219.577  26
   1  -1  16 4366.01 523.052  26
  -1   0  15 17529.6 1356.05  26
  -1   0  14 1154.74 470.773  26
  -1   0  13 5908.02 609.771  13
  -1   0  13 5859.13 992.956  26
  -1   0  12 47801.8 1808.38  13
  -1   0  12 41845.7 2744.30  26
  -1   0  11 6155.27 1008.69  26
  -1   0  11 6637.50 1114.06   9
  -1   0  11 7810.53 737.830  13
  -1   0  10 12253.8 1426.54   9
  -1   0   9 633.337 305.467   9
  -1   0   8 4180.18 728.132   9
  -1   0   7 3464.23 611.517   9
  -1   0   7 3305.09 408.988   8
  -1   0   6 1094.06 219.778   8
  -1   0   6 1378.61 339.220   9
  -1   0   5 84470.1 2309.86   9
  -1   0   5 68912.8 1663.70   8
  -1   0   4 75017.0 1077.40   4
  -1   0   4 87615.1 1664.87   8
  -1   0   4 93345.5 2108.39   9
   1   0  -4 75367.4 897.731   7
  -1   0   3 10880.6 350.086   4
   1   0  -3 10533.0 300.171   7
  -1   0   2 13325.6 378.590   1
  -1   0   2 14105.2 368.805   4
   1   0  -1 35001.1 543.960   7
   1   0   0 597.133 73.7858   6
   1   0   1 126279. 1154.71   6
  -1   0  -1 120261. 1255.95   2
   1   0   2 28882.5 565.808   6
  -1   0  -2 23095.0 606.152   2
  -1   0  -3 104913. 1492.88   2
  -1   0  -4 111783. 1716.81   2
  -1   0  -5 64219.5 1449.83   1
   1   0   5 65700.0 1634.90   9
   1   0   6 8488.12 676.622   9
  -1   0  -6 8497.44 569.165   2
  -1   0  -7 13243.0 760.767   2
   1   0   7 11279.3 907.849   9
  -1   0  -8 6610.89 614.118   2
   1   0   8 5773.98 719.957   9
   1   0   9 1316.88 379.963   9
  -1   0  -9 1647.90 326.221   2
   1   0  10 1008.20 380.630   9
   1   0  11 807.064 197.082  10
   1   0  11 629.205 315.744   9
   1   0  12 9402.57 1204.38  26
   1   0  12 7364.93 645.854  10
   1   0  13 60085.5 3092.37  26
   1   0  13 57659.9 1851.20  10
   1   0  14 4021.61 766.691  26
   1   0  14 4289.24 504.317  10
   1   0  15 5627.03 852.661  26
   1   0  16 5398.26 668.229  26
  -1  -1  15 2533.37 525.661  26
  -1  -1  14 2970.55 606.262  26
  -1  -1  13 11202.8 1333.46  26
  -1  -1  12 1798.36 543.150  26
  -1  -1  12 2369.75 406.892  13
  -1  -1  11 639.662 104.400  10
  -1  -1  11 954.444 446.669   9
  -1  -1  11 1108.91 287.440  13
  -1  -1  10 25262.5 2069.85   9
  -1  -1  10 30790.6 1424.98  13
  -1  -1   9 16454.9 1565.75   9
  -1  -1   8 65680.6 2808.59   9
  -1  -1   7 70254.3 2649.17   9
  -1  -1   6 101.467 132.242   9
  -1  -1   5 77886.0 2307.57   9
  -1  -1   5 68006.2 1674.93   8
  -1  -1   4 22610.7 802.176   1
  -1  -1   4 26840.8 960.072   8
   1   1  -3 101094. 1729.52   3
  -1  -1   3 106554. 1822.45   8
  -1  -1   3 102473. 1625.42   1
   1   1  -2 5372.67 329.542   3
   1   1  -1 277190. 2476.00   3
   1   1   0 88122.7 1164.17   3
   1   1   1 743601. 4265.55   5
   1   1   1 731881. 4048.38   7
   1   1   1 737735. 4201.86   4
   1   1   2 2477.71 154.515   7
   1   1   2 2444.22 194.709   5
   1   1   2 2562.06 205.854   4
   1   1   3 1372.58 170.618   5
   1   1   3 1147.75 105.053   6
   1   1   3 1458.80 177.749   4
   1   1   4 53708.7 1163.00   5
   1   1   4 54719.1 805.966   6
   1   1   5 96360.7 2288.32   9
   1   1   6 164633. 3376.98   9
  -1  -1  -6 179542. 2660.74   2
  -1  -1  -7 40149.8 1388.66   2
   1   1   7 39229.2 1800.95   9
   1   1   8 6193.96 788.521   9
  -1  -1  -8 7253.20 600.842   2
  -1  -1  -9 37423.0 1490.03   2
   1   1   9 28570.0 1835.46   9
  -1  -1 -10 5888.94 665.609   2
   1   1  10 5425.81 875.900   9
   1   1  11 1311.79 445.991   9
   1   1  12 247.418 276.874  26
   1   1  12 351.498 149.934  10
   1   1  12 178.589 313.735   9
   1   1  13 21542.1 1856.26  26
   1   1  13 20934.9 1128.99  10
   1   1  14 29379.1 2121.22  26
   1   1  14 27882.6 1298.20  10
   1   1  15 57995.1 1907.43  23
   1   1  15 42738.9 2316.61  26
   1   1  16 13897.1 1159.15  26
  -1  -2  15 1206.23 325.019  26
  -1  -2  14 46245.6 2406.71  26
  -1  -2  13 12596.0 1406.34  26
  -1  -2  12 3085.56 554.809  14
  -1  -2  11 2213.13 467.951  14
  -1  -2  11 1992.77 384.097  13
  -1  -2  10 1132.07 423.643   9
  -1  -2  10 1378.77 325.252  13
  -1  -2  10 1620.16 388.523  14
  -1  -2   9 3547.45 712.629   9
  -1  -2   8 11834.0 1228.11   9
   1   2  -8 12971.4 1059.86   3
  -1  -2   7 131822. 3844.27   9
   1   2  -7 108057. 2895.01   3
   1   2  -6 11100.7 840.259   3
   1   2  -5 70914.8 2006.94   3
   1   2  -4 104304. 2273.81   3
   1   2  -3 3861.38 400.570   3
   1   2  -2 89413.8 1808.44   3
   1   2  -1 135470. 2095.04   3
   1   2  -1 121404. 1245.31   4
   1   2   0 22755.2 800.989   3
   1   2   0 20482.2 531.051   4
   1   2   1 129193. 1591.55   4
   1   2   1 131922. 1993.26   3
   1   2   2 268923. 2131.90   7
   1   2   2 265899. 2671.03   4
   1   2   3 9175.59 328.259   7
   1   2   3 10232.7 526.460   4
   1   2   3 9824.19 488.294   5
   1   2   4 87741.4 1602.14   5
   1   2   4 87442.1 1685.21   4
   1   2   5 137284. 2336.09   4
   1   2   5 136080. 2216.65   5
   1   2   6 23119.2 1028.71   4
   1   2   6 21491.8 1381.49   9
   1   2   6 24404.9 972.914   5
   1   2   7 90705.1 3076.75   9
   1   2   8 786.816 280.969   9
  -1  -2  -8 1427.44 300.534   2
  -1  -2  -9 18248.4 1090.47   2
   1   2   9 15204.6 1469.31   9
   1   2  10 10118.7 1274.66   9
  -1  -2 -10 15493.8 1035.34   2
   1   2  11 122157. 4637.67   9
   1   2  11 130223. 2618.54  10
   1   2  11 130511. 4463.57  26
   1   2  12 24344.9 2116.70   9
   1   2  12 26440.8 2084.38  26
   1   2  12 25921.3 1216.90  10
   1   2  13 35.3150 128.890  10
   1   2  13 2639.89 788.587  26
   1   2  14 19045.5 1201.45  23
   1   2  14 13836.4 1374.37  26
   1   2  15-343.498 367.381  23
   1   2  15 2857.74 892.358  26
   1   2  16 3872.62 467.905  23
   1   2  16 9806.51 1061.42  26
  -1  -3  14 529.808 226.085  26
  -1  -3  14 602.023 182.893  14
  -1  -3  13 134.357 114.524  14
  -1  -3  12 5189.82 708.904  14
  -1  -3  11 5628.12 785.150  14
  -1  -3  10 43347.5 2668.10   9
  -1  -3  10 54609.6 2426.38  14
  -1  -3   9 7747.61 686.126  13
  -1  -3   9 6701.65 1004.46   9
  -1  -3   9 7913.27 886.955  14
   1   3  -8 2448.39 512.653   3
  -1  -3   8 2078.00 573.947   9
   1   3  -7 11830.4 1068.00   3
   1   3  -6 59.1603 72.8085   3
   1   3  -5 67018.6 2241.75   3
   1   3  -4 32711.3 1474.72   3
   1   3  -3 50542.1 1779.12   3
   1   3  -2 12661.2 841.915   3
   1   3  -1 358847. 4195.29   3
   1   3  -1 296269. 2936.81   4
   1   3   0 243.923 119.669   3
   1   3   0 432.338 111.346   4
   1   3   1 66136.6 1356.49   4
   1   3   1 73053.2 1798.42   3
   1   3   2 3192.26 316.144   4
   1   3   2 2879.63 371.653   3
   1   3   3 204480. 2782.47   4
   1   3   3 190656. 1974.53   7
   1   3   4 201590. 2752.89   5
   1   3   4 203535. 2980.60   4
   1   3   5 75430.8 1746.33   5
   1   3   5 72736.5 1902.72   4
   1   3   6 6011.18 563.111   4
   1   3   6 6479.15 547.317   5
   1   3   7 187070. 3139.17   5
   1   3   7 180208. 3347.39   4
   1   3   8 41952.5 2472.58   9
   1   3   8 51114.5 1893.68   4
   1   3   9 8703.53 1218.55   9
   1   3  10 34380.6 2458.51   9
  -1  -3 -10 42528.4 1855.06   2
   1   3  11 13142.4 1375.09  26
   1   3  12 26498.0 2100.06  26
   1   3  12 40506.6 1873.11  23
   1   3  13 69314.9 2445.13  23
   1   3  13 55441.4 3035.97  26
   1   3  14 16736.4 1900.86  26
   1   3  14 11392.3 945.102  23
   1   3  15 22557.1 1666.23  26
   1   3  15 12493.8 948.437  23
   1   3  16 43359.0 1391.17  23
  -1  -4  14 186.799 100.139  26
  -1  -4  13 2281.24 389.926  14
  -1  -4  12 1191.33 315.113  14
  -1  -4  11 16128.2 1305.51  14
  -1  -4  10 4697.53 732.113  14
  -1  -4   9 6319.99 841.466  14
  -1  -4   9 4664.77 879.822   9
  -1  -4   8 2041.65 467.652  14
  -1  -4   8 2047.27 590.149   9
   1   4  -7 12918.7 1249.71   3
   1   4  -6 7803.81 930.836   3
   1   4  -5 235.254 170.097   3
   1   4  -4 18989.8 1320.90   3
   1   4  -3 50780.4 1958.33   3
   1   4  -2 22533.2 1220.94   3
   1   4  -1 12994.1 928.162   3
   1   4   0 3358.51 475.982   3
   1   4   0 3203.24 334.098   4
   1   4   1 6569.75 646.270   3
   1   4   1 5431.20 457.936   4
   1   4   2 961.225 280.939   3
   1   4   2 1041.40 217.371   4
   1   4   3 12628.5 769.851   4
   1   4   4 2574.67 347.274   5
   1   4   4 2667.31 378.077   4
   1   4   5 64428.3 1782.18   5
   1   4   5 62764.3 1906.87   4
   1   4   6 1722.95 346.565   4
   1   4   6 1996.72 327.473   5
   1   4   7 23027.6 1151.13   5
   1   4   7 19824.1 1179.60   4
   1   4   8 9526.19 868.380   4
   1   4   9 175959. 3989.09   4
   1   4  10 45877.3 1929.18  23
  -1  -4 -10 50725.4 2106.08   2
   1   4  11 6119.72 1316.47  26
   1   4  11 1455.57 280.067  23
   1   4  12 8881.72 870.310  23
   1   4  12 13883.4 1946.05  26
   1   4  13 2566.55 568.781  23
   1   4  13 18276.3 1866.09  26
   1   4  14 3816.84 704.548  23
   1   4  15 3079.19 552.384  23
   1   4  16 30148.2 1088.47  23
  -1  -5  13 47.6742 122.165  26
  -1  -5  13 364.467 146.906  14
  -1  -5  12 7058.71 708.252  14
  -1  -5  11-25.6898 99.5387  14
  -1  -5  10 101.635 157.454  14
  -1  -5   9 613.893 337.854  11
  -1  -5   9 1439.28 406.602  14
  -1  -5   8 5571.82 905.298  11
  -1  -5   8 10287.5 1064.81  14
  -1  -5   7 16892.1 1541.02  11
  -1  -5   7 21556.5 1489.95  14
   1   5  -6 3795.35 665.049   3
  -1  -5   6 4026.65 748.422  11
  -1  -5   6 2388.72 497.280  17
   1   5  -5 51858.4 2360.32   3
   1   5  -4 5918.57 807.201   3
   1   5  -3 8482.19 916.541   3
   1   5  -2 1041.97 343.497   3
   1   5  -1 30110.5 1608.80   3
   1   5   0 1125.71 322.998   3
   1   5   1 230039. 3520.56   4
   1   5   1 235943. 4648.18   3
   1   5   2 74517.8 2042.89   4
   1   5   3 8752.23 727.585   4
   1   5   4 63673.3 1938.38   5
   1   5   4 59286.2 1971.53   4
   1   5   5 43148.2 1629.09   5
   1   5   5 40607.6 1703.22   4
   1   5   6 1943.88 405.938   4
   1   5   6 2251.90 382.778   5
   1   5   7 11457.0 982.114   4
   1   5   8 27538.3 1581.04   4
   1   5   9 35250.8 1650.74  15
   1   5   9 35074.7 1729.67  23
   1   5  10 51698.1 2170.67  23
   1   5  11 47989.4 2124.39  23
   1   5  12 2483.34 719.847  23
   1   5  13 39969.8 1815.94  23
   1   5  14 33891.9 1535.12  23
   1   5  15 6541.95 641.183  23
  -1  -6  12 3268.37 380.742  14
  -1  -6  11 2791.20 425.421  14
  -1  -6  10 2680.24 462.469  14
  -1  -6   9 7644.10 840.781  14
  -1  -6   9 2410.22 616.414  11
  -1  -6   8 101.225 103.648  14
  -1  -6   8-229.124 215.166  11
  -1  -6   7 6582.97 822.829  14
  -1  -6   7 5328.69 920.403  11
  -1  -6   6 410.081 277.459  11
  -1  -6   6 527.249 220.225  14
  -1  -6   5 3882.22 740.379  11
  -1  -6   5 3812.79 675.182  17
  -1  -6   4 43.9956 118.868  17
   1   6  -3 49196.7 2408.13   3
   1   6  -2 33008.2 1922.60   3
   1   6  -1 20063.9 1488.68   3
   1   6   0 13044.4 1182.24   3
   1   6   1 1551.90 415.280   3
   1   6   2 3933.47 511.940   4
   1   6   3 10591.9 877.627   4
   1   6   4 20728.6 1264.12   4
   1   6   4 21951.9 1271.14   5
   1   6   5 16683.0 1108.01   5
   1   6   5 16630.4 1199.19   4
   1   6   6 52443.4 2187.97   4
   1   6   7 367814. 5669.70  15
   1   6   7 351432. 5548.00  23
   1   6   8 69780.6 2639.82  23
   1   6   8 82199.3 2629.81  15
   1   6   9 25188.1 1551.66  23
   1   6   9 24410.6 1419.60  15
   1   6  10 10439.6 897.216  15
   1   6  10 12464.9 1185.52  23
   1   6  11 2450.93 747.181  23
   1   6  12 8194.72 959.322  23
   1   6  13 7347.72 817.178  23
   1   6  14 13845.3 831.188  23
  -1  -7  10 139.628 76.2919  14
  -1  -7   9 830.219 310.534  11
  -1  -7   9 2665.72 394.842  14
  -1  -7   8 2028.76 383.918  14
  -1  -7   8 1268.71 439.736  11
  -1  -7   7 13625.4 1406.81  11
  -1  -7   7 13076.0 1001.33  14
  -1  -7   6 5126.93 894.811  11
  -1  -7   5 1881.10 563.881  11
  -1  -7   4 19782.7 1470.73  17
  -1  -7   4 17166.2 1649.95  11
  -1  -7   3 17801.4 1358.40  17
  -1  -7   3 13476.1 1431.93  11
  -1  -7   2 17284.8 1599.75  11
  -1  -7   2 18810.5 1369.77  17
   1   7  -1 47167.5 2161.40  19
  -1  -7   1 53490.4 2242.12  17
  -1  -7   0 51938.1 2157.55  17
   1   7   0 48575.8 2265.64  19
  -1  -7  -1 291.404 159.990  17
   1   7   1 482.533 234.451  19
  -1  -7  -2 37876.2 1736.35  17
   1   7   3 27108.0 1492.10  15
   1   7   4 14253.0 1103.16  15
   1   7   5 21713.4 1371.84  15
   1   7   5 20731.2 1240.76  23
   1   7   6 15286.0 1155.07  15
   1   7   6 13641.4 1017.48  23
   1   7   7 72388.0 2561.30  15
   1   7   7 71582.8 2424.28  23
   1   7   8 14035.9 1070.13  23
   1   7   8 15855.4 1296.08  19
   1   7   8 14690.8 1116.80  15
   1   7   9 46020.3 1903.69  15
   1   7   9 43232.5 1860.11  23
   1   7  10 1475.98 333.994  23
   1   7  10 1660.15 337.797  15
   1   7  11 30434.4 1416.05  23
   1   7  12 40697.6 1488.65  23
   1   7  13 3068.09 201.301  23
  -1  -8   8 109.070 148.135  11
  -1  -8   7-256.756 196.362  11
  -1  -8   6 411.404 218.777  11
  -1  -8   5 14244.8 1386.65  11
  -1  -8   4 5943.96 919.228  11
  -1  -8   3 10217.3 1200.17  11
  -1  -8   2 11151.9 1255.96  11
  -1  -8   2 12709.9 1100.02  17
   1   8  -1 8900.49 906.766  19
  -1  -8   1 6944.10 971.991  11
  -1  -8   1 9954.15 967.481  17
   1   8   0 578.616 247.790  19
  -1  -8   0 402.776 177.561  16
  -1  -8   0 421.183 230.395  17
   1   8   1 12038.8 1154.68  19
  -1  -8  -1 12251.1 1028.68  17
   1   8   2 848.946 327.477  19
   1   8   3 1036.69 373.391  19
   1   8   4 12828.9 1243.78  19
   1   8   5 179855. 4642.47  19
   1   8   6 45222.8 2233.12  19
   1   8   6 42459.4 1743.71  23
   1   8   7 30430.6 1471.27  23
   1   8   7 33579.5 1829.86  19
   1   8   8 11399.8 861.830  23
   1   8   8 11357.6 970.279  19
   1   8   9 305.532 200.740  23
   1   8  10 352.785 116.577  23
   1   8  11 246.547 162.305  23
  -1  -9   5 2182.52 420.609  11
  -1  -9   4 2391.15 476.907  11
  -1  -9   3 20125.0 1398.21  11
  -1  -9   2 11261.8 1061.92  11
   1   9  -1 333.214 169.293  19
   1   9   0 7920.05 770.466  19
   1   9   1 5210.13 655.733  19
  -1  -9  -1 3480.89 480.323  16
  -1  -9  -2 5499.58 629.337  16
   1   9   2 6514.33 756.100  19
   1   9   3 219.045 151.451  19
   1   9   4 5301.16 687.938  19
   1   9   5 16552.1 1176.56  19
   1   9   6 19054.2 1194.13  19
   1   9   7 13127.1 908.755  19
   1   9   8 2059.27 307.406  19
   1  10   4 27166.8 1095.91  19
   2  -9  -3 5165.48 435.908  16
   2  -9  -2 67.4194 57.3144  16
   2  -9  -1 7068.53 546.248  16
   2  -9   0 7224.64 544.164  16
   2  -9   1 3919.08 388.792  16
   2  -9   2 110.365 69.2568  16
  -2   8   8 6995.26 526.933  23
  -2   8   7 20097.6 1020.29  23
   2  -8  -7 4897.39 450.510  16
   2  -8  -6 267.734 132.473  16
  -2   8   6 284.996 117.486  23
  -2   8   5 2766.72 436.895  23
   2  -8  -5 2220.42 400.642  16
  -2   8   4 302.719 124.281  23
   2  -8  -4 402.695 198.800  16
   2  -8  -3 10324.2 922.309  16
   2  -8  -2 1538.90 369.668  16
   2  -8  -1 8625.96 839.104  16
   2  -8   0 11716.8 989.140  16
   2  -8   1 541.542 205.975  16
   2  -8   2 4586.22 590.822  16
   2  -8   3 28304.7 1379.49  16
   2  -8   4 551.355 195.469  16
   2  -8   5 3117.54 405.482  16
   2  -8   6 1671.10 261.593  16
  -2   7  10 3392.60 408.891  12
  -2   7  10 3897.35 418.754  23
  -2   7   9 3261.87 446.553  23
  -2   7   9 3033.70 444.272  12
  -2   7   8 7945.22 783.824  12
  -2   7   8 7813.02 776.362  23
  -2   7   7 3968.28 570.145  12
  -2   7   7 4698.41 632.116  23
  -2   7   6 53821.7 2226.56  23
  -2   7   6 37655.0 2195.95  18
  -2   7   5 11236.3 1049.68  23
  -2   7   4 9591.17 1008.42  23
  -2   7   3 29111.0 1836.42  23
  -2   7   2 6613.62 896.234  19
  -2   7   2 7206.42 908.928  23
  -2   7   1 15515.3 1274.32  23
   2  -7   0 2255.65 496.953  16
   2  -7   1 1004.98 326.085  16
   2  -7   2 173.932 165.677  16
   2  -7   3 69.1948 87.2186  16
   2  -7   4 4752.56 894.307  11
   2  -7   4 7975.79 865.093  16
   2  -7   5 1165.82 444.796  11
   2  -7   5 2258.99 440.738  16
   2  -7   6 1007.87 428.528  11
   2  -7   6 1982.09 389.986  16
   2  -7   7 512.647 295.779  11
   2  -7   7 1155.46 275.486  16
   2  -7   8 441.766 148.880  16
   2  -7   9 134.875 74.0400  16
  -2   6  11 155.970 113.806  12
  -2   6  11 308.343 180.090  23
  -2   6  10 29911.3 1431.78  23
  -2   6  10 27067.2 1624.62  12
  -2   6   9 18167.4 1210.60  23
  -2   6   9 15251.8 1308.58  12
  -2   6   8 2231.68 242.722  23
  -2   6   8 1031.31 365.440  18
  -2   6   7 13476.8 1433.63  18
  -2   6   7 17793.6 1259.34  23
  -2   6   6 16702.3 1357.39  23
  -2   6   5 9951.24 1017.38  23
  -2   6   4 41896.4 2245.66  19
  -2   6   4 49200.9 2241.16  23
  -2   6   3 26095.0 1798.79  19
  -2   6   3 32340.2 1821.44  23
  -2   6   2 5645.26 840.690  19
  -2   6   2 5629.13 792.248  23
  -2   6   1 24792.9 1739.22  19
  -2   6   1 30857.9 1906.68  23
  -2   6   0 13873.7 1294.46  19
  -2   6   0 15278.7 1274.74  23
   2  -6   1 67382.7 2723.81  16
  -2   6  -1 72543.4 2937.05  19
   2  -6   2-2.28212 68.3378  16
   2  -6   3 10633.7 1383.24  11
   2  -6   3 16016.1 1283.00  16
   2  -6   4 1206.24 488.844  11
   2  -6   4 1683.56 414.520  16
   2  -6   5 17414.3 1284.54  16
   2  -6   5 13465.2 1659.86  11
   2  -6   6 16719.5 1241.12  16
   2  -6   6 13963.1 1693.82  11
   2  -6   7 582.588 236.691  16
   2  -6   7 673.652 393.297  11
   2  -6   8 6400.84 702.181  16
   2  -6   8 4546.18 917.478  11
   2  -6   8 4531.51 706.337  14
   2  -6   9 396.291 234.114  14
   2  -6   9 302.636 147.769  16
   2  -6   9 147.400 225.717  11
   2  -6  10 17607.5 1241.05  14
   2  -6  10 25404.2 1143.52  16
   2  -6  11 473.682 182.443  14
  -2   5  13 10535.6 707.854  12
  -2   5  12 566.807 232.772  12
  -2   5  11 155.231 140.733  12
  -2   5  11-1487.98 574.173  23
  -2   5  10 4595.10 791.934  18
  -2   5  10 3429.78 470.828  23
  -2   5   9 8517.98 1148.09  18
  -2   5   9 9565.99 792.530  23
  -2   5   8 69554.3 3415.16  18
  -2   5   8 89224.8 2975.75  23
  -2   5   7 20027.9 1838.86  18
  -2   5   7 22901.3 1495.78  23
  -2   5   6 31036.7 1727.05  23
  -2   5   5 84787.9 2802.53  23
  -2   5   4 6.94549 95.3198   4
  -2   5   3 409.945 202.145   4
  -2   5   2 13.5836 89.2301   4
  -2   5   1 1368.03 321.695   4
  -2   5   0 533.980 223.302   4
  -2   5  -1 5525.37 649.870   4
  -2   5  -2 41274.5 1751.33   4
  -2   5  -3 2490.93 424.913   4
  -2   5  -3 1470.05 358.648   3
  -2   5  -4 7495.13 859.359   3
  -2   5  -4 11011.8 872.519   4
   2  -5   5 419.852 290.351  11
   2  -5   5 415.289 212.882  16
  -2   5  -5 347.448 234.155   3
   2  -5   6 5367.60 1051.07  11
   2  -5   6 6187.45 756.351  16
   2  -5   6 5472.56 816.140  14
   2  -5   7 32.9060 149.661  11
   2  -5   7 152.756 151.726  16
   2  -5   7 35.4150 143.550  14
   2  -5   8 587.316 373.134  11
   2  -5   8 926.739 302.211  16
   2  -5   8 639.599 300.044  14
   2  -5   9 9457.42 896.258  16
   2  -5   9 6733.68 1135.77  11
   2  -5   9 8429.76 1096.68  14
   2  -5  10 3298.73 761.941  11
   2  -5  10 5164.59 834.427  14
   2  -5  10 5681.61 654.849  16
   2  -5  11 11387.8 1134.11  14
   2  -5  12 806.312 295.218  14
   2  -5  13 95.6341 100.892  14
  -2   4  13 368.067 151.768  12
  -2   4  12 50494.2 2257.21  12
  -2   4  11 43759.9 2358.79  12
  -2   4  11 48990.0 1967.13  23
  -2   4  10 2010.38 599.948  18
  -2   4  10 3307.36 703.236  23
  -2   4   9 3749.13 818.957  23
  -2   4   9 2352.37 643.384  18
  -2   4   8 5159.52 880.684  23
  -2   4   8 2848.93 680.732  18
  -2   4   7 1315.24 446.725  18
  -2   4   7 2931.12 657.786  23
  -2   4   6 53817.4 2322.76   8
  -2   4   6 56551.7 2069.08   4
  -2   4   5 14196.5 1128.86   8
  -2   4   5 17770.9 1137.27   4
  -2   4   4 342.159 172.954   4
  -2   4   3 90667.6 2585.12   4
  -2   4   2 69986.9 2101.97   4
  -2   4   1 164841. 3370.46   4
  -2   4   0 32020.6 1403.84   4
  -2   4  -1 91.8153 77.7422   4
  -2   4  -2 8274.04 698.394   4
  -2   4  -2 7579.88 716.198   3
  -2   4  -3 7325.46 770.395   3
  -2   4  -3 7823.67 671.414   4
  -2   4  -4 38667.9 1910.56   3
  -2   4  -4 37515.1 1468.02   4
  -2   4  -5 126.897 193.725   3
  -2   4  -5-13.0793 47.4260   4
  -2   4  -6 37065.3 1983.39   3
  -2   4  -6 32574.2 1394.59   4
  -2   4  -6 38294.2 1700.20   2
  -2   4  -7 2523.13 436.267   2
  -2   4  -7 1680.85 411.570   3
   2  -4   8 18518.4 1281.77  16
   2  -4   8 16691.8 1764.88  11
   2  -4   8 19032.3 1596.25  14
   2  -4   9 5846.45 1043.74  11
   2  -4   9 7700.30 1041.91  14
   2  -4   9 7088.08 801.681  16
   2  -4  10 2025.41 422.749  16
   2  -4  10 2246.92 570.219  14
   2  -4  10 1341.25 497.520  11
   2  -4  11 3290.14 681.697  14
   2  -4  12 4942.97 769.016  14
   2  -4  13 14018.8 1146.80  14
   2  -4  14 4991.17 577.222  14
  -2   3  13 2915.82 467.023  12
  -2   3  12 314.677 187.562  12
  -2   3  12 6375.80 1426.52  26
  -2   3  11 6939.89 1446.06  26
  -2   3  11 5899.54 874.470  12
  -2   3  10 45163.2 2889.84  18
  -2   3  10 42434.9 2779.06  26
  -2   3   9 13599.9 1688.30   9
  -2   3   9 13770.5 1570.21  18
  -2   3   9 12091.8 1466.63  26
  -2   3   8 4656.49 1037.79   9
  -2   3   8 3406.77 896.178  26
  -2   3   8 3473.18 768.568  18
  -2   3   7 24562.8 1484.33   8
  -2   3   7 21590.5 1950.39   9
  -2   3   6 26.3140 93.5509   8
  -2   3   6 251.696 127.807   4
  -2   3   5 6745.89 643.538   4
  -2   3   5 5439.02 651.712   8
  -2   3   4 5538.48 580.896   4
  -2   3   3 123.284 90.1701   4
  -2   3   2 18416.4 961.772   4
  -2   3   1 16118.6 890.142   4
  -2   3   0 85859.0 1995.36   4
  -2   3  -1 46959.5 1439.40   4
  -2   3  -1 38127.1 1343.20   3
  -2   3  -2 607.374 245.854   3
  -2   3  -2 880.380 224.921   2
  -2   3  -3 23032.1 1181.72   3
  -2   3  -3 24248.9 1167.65   2
  -2   3  -4 14619.9 915.940   2
  -2   3  -4 13717.4 964.653   3
  -2   3  -5 8997.43 832.027   3
  -2   3  -5 9787.63 781.418   2
  -2   3  -6 709.976 247.829   3
  -2   3  -6 846.086 249.016   2
  -2   3  -7 2499.42 491.523   3
  -2   3  -7 2616.80 430.729   2
  -2   3  -8 24913.6 1631.33   3
  -2   3  -8 26330.4 1389.69   2
   2  -3   9 30837.2 1611.86  16
   2  -3   9 26054.5 2091.32  11
   2  -3  10 479.942 300.028  11
   2  -3  10 194.990 151.618  16
   2  -3  10 215.245 175.000  14
   2  -3  11 745.591 328.033  14
   2  -3  12 6255.78 534.493  10
   2  -3  12 5728.77 858.913  14
   2  -3  13 771.301 312.521  14
   2  -3  13 687.509 158.727  10
   2  -3  14 1032.80 171.170  10
   2  -3  14 662.206 247.357  14
   2  -3  15 928.139 238.324  14
  -2   2  14 41928.2 2084.70  26
  -2   2  14 34526.8 1040.57  13
  -2   2  13 7601.74 595.596  13
  -2   2  13 11388.6 1425.39  26
  -2   2  12 19796.0 1058.92  13
  -2   2  12 8203.23 1110.13  26
  -2   2  11 2043.03 357.382  13
  -2   2  11 1945.01 474.444  12
  -2   2  10 2832.90 719.774   9
  -2   2  10 4213.48 721.106  12
  -2   2  10 3964.65 490.677  13
  -2   2   9 459.904 185.111  13
  -2   2   9 720.785 358.173  18
  -2   2   9 1041.69 455.654  26
  -2   2   8 58833.0 3242.48   9
  -2   2   7 188.046 251.712   9
  -2   2   7 951.751 276.219   8
  -2   2   6 43390.7 2423.05   9
  -2   2   6 44684.3 1843.05   8
  -2   2   5 42672.6 2271.50   9
  -2   2   5 47174.2 1821.48   8
  -2   2   4 1372.55 369.049   9
  -2   2   4 2386.84 334.002   4
  -2   2   4 1569.56 302.724   8
  -2   2   3 134157. 2278.78   4
  -2   2   3 113249. 3072.69   9
  -2   2   2 288.333 170.972   9
  -2   2   2 324.705 121.038   4
  -2   2   1 14649.1 716.654   4
  -2   2   0 3630.16 350.602   4
  -2   2  -1 7484.51 490.410   3
  -2   2  -1 9129.97 593.018   2
  -2   2  -2 28983.5 1042.43   3
  -2   2  -2 33651.7 1171.32   2
  -2   2  -3 14419.0 803.256   3
  -2   2  -3 15794.3 849.125   2
  -2   2  -4 32994.7 1259.93   2
  -2   2  -4 32769.3 1322.89   3
  -2   2  -5 15214.4 891.575   2
  -2   2  -6 7488.80 644.419   2
  -2   2  -7 1895.64 339.337   2
  -2   2  -8 375.272 154.906   2
  -2   2  -9 3005.02 585.986   3
  -2   2  -9 3557.50 502.940   2
   2  -2  10 34216.5 1729.58  16
   2  -2  10 42074.8 2257.69  14
   2  -2  11 30150.0 1960.88  14
   2  -2  12 6333.53 898.008  14
   2  -2  13 990.167 222.558  10
   2  -2  13 574.308 295.568  14
   2  -2  14 8521.91 586.406  10
   2  -2  14 6419.12 790.517  14
   2  -2  15 398.808 96.0928  10
   2  -2  15 291.811 143.944  14
  -2   1  15 16114.5 1115.17  26
  -2   1  14 599.423 168.546  13
  -2   1  14-230.857 609.362  26
  -2   1  13 545.019 183.807  13
  -2   1  13 2398.18 484.216  26
  -2   1  12 93567.5 4042.41  26
  -2   1  12 111692. 2685.16  13
  -2   1  11 13074.9 958.253  13
  -2   1  11 11425.1 1418.69  26
  -2   1  10 19133.3 1963.87   9
  -2   1  10 18073.9 1754.79  26
  -2   1  10 22799.1 1226.80  13
  -2   1   9 35000.3 2481.28   9
  -2   1   8 1163.61 288.745   8
  -2   1   8 779.511 367.153   9
  -2   1   7 1038.04 266.016   8
  -2   1   7 1246.33 402.899   9
  -2   1   6 14932.6 1289.32   9
  -2   1   6 14995.6 998.123   8
  -2   1   5 124.670 143.811   9
  -2   1   5 56.2284 76.4538   8
  -2   1   4 180310. 3798.65   9
  -2   1   4 185346. 3320.74   8
  -2   1   3 295999. 4431.08   9
  -2   1   3 306117. 3048.05   4
   2  -1  -2 98123.8 1277.85   6
  -2   1   2 94234.4 2174.09   9
  -2   1   2 96441.8 1652.38   4
   2  -1  -1 29486.0 711.590   6
  -2   1   1 27430.4 1044.45   9
  -2   1   1 26412.4 794.740   4
   2  -1   0 102848. 1426.22   6
  -2   1   0 90924.2 1603.90   2
  -2   1  -1 14397.1 534.219   3
  -2   1  -1 15992.1 691.897   2
  -2   1  -1 16336.6 465.249   1
  -2   1  -2 8025.31 493.127   2
  -2   1  -2 8533.43 406.483   1
  -2   1  -3 40130.2 1190.13   2
  -2   1  -3 37801.6 986.441   1
  -2   1  -4 10069.4 574.685   1
  -2   1  -4 11095.3 679.280   2
  -2   1  -5 20059.4 952.362   2
  -2   1  -6 162795. 2951.25   2
  -2   1  -7 51847.2 1736.87   2
  -2   1  -8 84910.4 2380.15   2
  -2   1  -9 22310.5 1271.97   2
  -2   1 -10 3255.28 502.316   2
   2  -1  11 7680.70 915.662  14
   2  -1  12 3840.39 469.743  10
   2  -1  12 3769.50 660.369  14
   2  -1  13 6136.70 575.937  10
   2  -1  13 5182.27 770.227  14
   2  -1  14 632.499 168.852  10
   2  -1  15 8947.94 609.045  10
  -2   0  15 3388.58 605.451  26
  -2   0  14 26824.8 1786.56  26
  -2   0  13 269.389 294.770  26
  -2   0  13 39.5712 83.9027  13
  -2   0  12 8610.09 1200.26  26
  -2   0  12 10231.6 828.248  13
  -2   0  11 3286.07 733.643  26
  -2   0  11 5136.07 604.790  13
  -2   0  10 37190.9 2667.58   9
  -2   0  10 41237.9 2663.99  26
  -2   0   9 15814.0 1635.77   9
  -2   0   8 13353.5 990.961   8
  -2   0   8 13183.4 1402.42   9
  -2   0   7 61805.3 2793.74   9
  -2   0   7 66172.2 2145.47   8
  -2   0   6-42.1645 149.359   9
  -2   0   6 64.1250 86.5243   8
  -2   0   5 41034.6 1850.54   9
  -2   0   5 39476.9 1463.07   8
  -2   0   4 9345.90 787.713   9
  -2   0   4 9775.76 696.839   8
   2   0  -3 62649.6 1072.96   6
  -2   0   3 60492.8 1608.71   8
  -2   0   2 9034.62 571.648   8
  -2   0   2 8367.28 555.923   9
  -2   0   2 8430.75 315.457   1
  -2   0   2 7888.01 347.371   4
   2   0  -1 17894.0 563.315   6
  -2   0   1 20401.8 785.177   8
   2   0   0 315269. 2632.85   6
  -2   0   0 329002. 3037.02   8
   2   0   1 334.792 80.1860   6
  -2   0  -1 241.847 82.2531   2
  -2   0  -2 220345. 2485.39   2
   2   0   2 223351. 2238.27   6
   2   0   3 106671. 1562.92   6
  -2   0  -3 107331. 1819.22   2
   2   0   4 2724.93 260.525   6
  -2   0  -4 2651.02 313.292   2
  -2   0  -5 534.215 160.404   2
  -2   0  -6 1479.96 272.222   2
  -2   0  -7 9479.35 714.602   2
  -2   0  -8 299919. 4573.44   2
  -2   0  -9 191485. 3695.20   2
  -2   0 -10 6675.82 718.118   2
  -2   0 -11 31785.6 1606.06   2
   2   0  12 33573.2 1367.87  10
   2   0  13-17.5819 141.277  10
   2   0  14 9528.45 708.517  10
   2   0  15 36.9961 127.148  10
  -2  -1  14 42357.7 2206.43  26
  -2  -1  13-33.0326 266.906  26
  -2  -1  13 359.863 184.962  13
  -2  -1  12 15933.3 1649.78  26
  -2  -1  12 18282.6 1099.77  13
  -2  -1  11 29354.0 2308.33  26
  -2  -1  11 35384.6 1575.74  13
  -2  -1  10 1040.46 280.961  13
  -2  -1  10 1085.74 456.259   9
  -2  -1   9 1355.54 493.313   9
  -2  -1   8 8155.31 1112.29   9
  -2  -1   7 21652.7 1614.54   9
  -2  -1   7 22326.2 1252.53   8
  -2  -1   6 77261.1 2795.07   9
  -2  -1   6 69856.8 2154.77   8
  -2  -1   5 75204.2 2542.97   9
  -2  -1   5 82943.5 2193.94   8
  -2  -1   4 32556.0 1491.51   9
  -2  -1   4 33804.2 1269.47   8
   2   1  -4 29668.5 835.652   7
  -2  -1   3 16174.4 647.725   1
  -2  -1   3 16406.0 836.843   8
   2   1  -3 15940.9 592.595   7
  -2  -1   2 120698. 2004.79   8
   2   1  -2 104051. 1505.25   7
   2   1  -1 38450.5 707.892   5
   2   1  -1 38960.7 876.598   7
   2   1  -1 37739.8 778.820   3
   2   1   0 2794.17 197.248   5
   2   1   0 2918.44 234.531   7
  -2  -1   0 2883.86 177.576   2
  -2  -1   0 3453.80 277.948   8
  -2  -1  -1 1863.80 177.553   2
   2   1   1 1773.90 175.401   5
   2   1   1 1706.25 182.376   7
  -2  -1  -2 23057.9 700.830   2
   2   1   2 25388.6 718.175   6
   2   1   2 24222.5 735.179   5
   2   1   3 2479.73 216.037   6
   2   1   3 2549.90 258.849   5
  -2  -1  -3 2390.02 253.437   2
   2   1   4 20743.0 638.300   6
  -2  -1  -4 21129.8 811.837   2
   2   1   5 46768.5 1511.12   9
  -2  -1  -5 47133.8 1323.83   2
   2   1   6 82701.9 2297.99   9
  -2  -1  -6 82830.8 2012.44   2
  -2  -1  -7 8174.14 673.505   2
   2   1   7 6555.35 704.866   9
  -2  -1  -8 8839.05 749.421   2
  -2  -1  -9 12923.5 954.977   2
  -2  -1 -10 25277.2 1397.57   2
  -2  -1 -11 15456.6 1139.58   2
   2   1  12 10572.3 750.265  10
   2   1  13 8163.28 671.875  10
   2   1  14 150528. 2905.59  10
   2   1  15 18646.4 947.153  10
  -2  -2  14-138.178 219.636  26
  -2  -2  13 2844.91 608.063  26
  -2  -2  12 21641.4 1155.63  13
  -2  -2  12 20925.8 1863.91  26
  -2  -2  11 4315.46 630.565  14
  -2  -2  11 4271.20 537.544  13
  -2  -2  10 15086.7 1674.29   9
  -2  -2  10 17196.3 1240.79  14
  -2  -2  10 17823.7 1109.59  13
  -2  -2   9 27404.1 1500.75  14
  -2  -2   9 30128.8 1370.20  13
  -2  -2   8-258.919 222.017   9
  -2  -2   7 32802.0 2097.61   9
  -2  -2   6 26196.4 1712.81   9
   2   2  -5 2991.17 324.832   7
   2   2  -4 132180. 2138.46   7
   2   2  -4 108348. 2407.31   3
  -2  -2   3 656.782 188.278   8
   2   2  -3 740.562 188.854   3
   2   2  -3 856.497 162.351   7
   2   2  -2 4672.40 395.327   3
  -2  -2   2 5471.45 468.581   8
   2   2  -2 5337.01 384.511   7
   2   2  -1 62974.7 1432.30   3
   2   2  -1 61775.5 1268.84   7
   2   2   0 80011.9 1409.35   7
  -2  -2   0 80520.2 1012.36   2
   2   2   1 223228. 2487.54   5
   2   2   1 223293. 2414.66   7
   2   2   2 28.4141 45.0574   5
   2   2   2-9.26379 35.7031   7
   2   2   3 21244.3 680.296   7
   2   2   3 21895.6 825.159   5
   2   2   4 90505.2 1452.46   6
   2   2   4 95372.4 1853.71   5
   2   2   5 1890.24 195.406   6
   2   2   5 2040.69 299.471   5
   2   2   6 417660. 4749.40   5
  -2  -2  -6 407171. 4777.48   2
  -2  -2  -7 43120.8 1532.31   2
   2   2   7 35398.5 1825.61   9
   2   2   8 6673.34 874.750   9
  -2  -2  -8 7737.56 698.359   2
   2   2   9 18245.8 1520.73   9
  -2  -2  -9 23962.6 1294.66   2
  -2  -2 -10 23484.4 1388.79   2
  -2  -2 -11 292.899 169.838   2
   2   2  12 14589.7 1493.09  26
   2   2  12 11728.0 766.786  10
   2   2  13 5609.12 551.070  10
   2   2  13 1916.39 514.293  26
   2   2  14 9669.11 1133.56  26
   2   2  14 12198.3 817.074  10
   2   2  16 11703.3 800.119  23
  -2  -3  14 14020.4 1047.61  26
  -2  -3  13-48.9163 228.316  26
  -2  -3  13 301.166 148.748  14
  -2  -3  12 2810.62 486.604  14
  -2  -3  11 871.733 292.971  14
  -2  -3  10 328.850 151.490  13
  -2  -3  10 263.876 170.493  14
  -2  -3   9 5318.80 945.777   9
  -2  -3   9 6957.79 646.163  13
  -2  -3   9 6808.25 815.558  14
  -2  -3   8 60687.6 3144.36   9
  -2  -3   8 69566.2 2442.93  14
  -2  -3   7 34604.6 2270.59   9
   2   3  -6 600.112 174.437   7
   2   3  -5 11747.7 963.842   3
   2   3  -4 2636.17 416.032   3
   2   3  -3 3022.45 416.043   3
   2   3  -2 18135.3 971.392   3
   2   3  -1 76001.6 1956.43   3
   2   3   0 79718.9 1953.59   3
   2   3   1 19572.2 968.828   3
   2   3   1 19052.9 735.108   7
   2   3   1 19185.9 702.291   4
   2   3   2 117313. 1808.53   7
   2   3   2 113013. 1949.46   4
   2   3   3 7549.60 534.229   4
   2   3   3 7630.70 542.711   5
   2   3   3 7079.43 419.449   7
   2   3   4 208575. 3045.29   5
   2   3   4 199162. 3083.75   4
   2   3   4 203360. 2416.72   7
   2   3   5 9503.03 669.260   5
   2   3   5 9230.08 696.982   4
   2   3   6 420.386 169.159   5
   2   3   7 20762.8 1103.45   5
  -2  -3  -8 7867.56 753.473   2
  -2  -3  -9 6326.04 714.805   2
  -2  -3 -10 2435.85 454.289   2
   2   3  11 33308.7 1214.86  10
   2   3  11 32186.4 2149.84  26
   2   3  12 168995. 2988.42  10
   2   3  12 172188. 5160.38  26
   2   3  13 34096.8 2312.03  26
   2   3  14 7063.51 1341.45  26
   2   3  14-5.95731 460.179  23
   2   3  15-486.101 371.137  23
   2   3  16 1931.01 389.156  23
  -2  -4  13 441.935 148.527  14
  -2  -4  13 238.173 144.950  26
  -2  -4  12 19848.2 1215.27  14
  -2  -4  11 22415.4 1476.27  14
  -2  -4  10 3516.23 611.874  14
  -2  -4   9 5677.30 761.460  14
  -2  -4   8 1786.42 425.637  14
  -2  -4   8 1525.62 530.610   9
  -2  -4   7 5190.86 671.843  14
   2   4  -6 36831.4 1888.54   3
   2   4  -5 470.424 205.652   3
   2   4  -4 1769.31 387.286   3
   2   4  -3 148802. 3467.14   3
   2   4  -2 60036.5 2104.76   3
   2   4  -1 9565.50 810.110   3
   2   4   0 94965.2 2528.42   3
   2   4   1 6948.41 499.263   4
   2   4   1 9577.85 798.236   3
   2   4   2 1574.22 261.657   4
   2   4   2 1877.90 251.310   7
   2   4   3 28799.5 1190.84   5
   2   4   3 27488.4 931.992   7
   2   4   4 329489. 4331.77   5
   2   4   4 327865. 3344.54   7
   2   4   5 55847.3 1818.72   5
   2   4   5 57625.5 1865.39   4
   2   4   6 36048.2 1479.99   5
   2   4   6 31529.5 1491.88   4
   2   4   7 39020.4 1634.02   5
   2   4   7 36728.0 1665.24   4
   2   4   8 685.122 223.593   5
  -2  -4  -9 34430.6 1720.36   2
  -2  -4 -10 3699.03 579.900   2
   2   4  10 6250.55 1105.33  26
   2   4  11 589.611 295.506  23
   2   4  11 2973.21 1138.12  26
   2   4  12 24130.1 2064.78  26
   2   4  12 18833.0 1249.86  23
   2   4  13 22055.7 1361.17  23
   2   4  14 23327.2 1341.74  23
   2   4  15 11577.0 915.198  23
   2   4  16 28925.5 1177.69  23
  -2  -5  12 473.464 177.551  14
  -2  -5  11 1504.81 347.377  14
  -2  -5  10 31497.9 1760.98  14
  -2  -5   9 25149.7 1602.00  14
  -2  -5   8 2263.85 496.857  14
  -2  -5   7 6922.05 979.881  11
  -2  -5   7 4600.69 673.082  14
  -2  -5   6 3761.56 582.948  14
   2   5  -5 4907.03 728.972   3
   2   5  -4 3781.70 634.098   3
   2   5  -3 6966.38 839.070   3
   2   5  -2 25797.4 1547.99   3
   2   5  -1 4270.06 611.929   3
   2   5   0 144997. 3596.32   3
   2   5   1 41997.0 1918.90   3
   2   5   2 168724. 3114.12   4
   2   5   2 202117. 3051.75   7
   2   5   3 49157.7 1746.56   5
   2   5   3 45697.2 1350.51   7
   2   5   4 4759.78 556.945   5
   2   5   4 4121.99 518.587   4
   2   5   5 3420.04 480.525   5
   2   5   5 3165.52 472.197   4
   2   5   6-74.9957 95.8460   4
   2   5   6 185.583 139.637   5
   2   5   7 142.072 165.821   4
   2   5   7 402.352 182.886   5
   2   5   8 8172.38 797.680   5
   2   5   9 48351.6 1913.62  15
   2   5   9 47428.0 1889.31  23
   2   5  10 216299. 4231.79  15
   2   5  10 212967. 4251.62  23
   2   5  11 58692.5 2260.07  23
   2   5  11 65973.3 2236.90  15
   2   5  12 27525.4 1540.05  23
   2   5  13 2814.35 648.051  23
   2   5  14 4319.54 757.151  23
   2   5  15 1805.07 507.317  23
  -2  -6  11 1222.14 254.636  14
  -2  -6  10 58.1794 100.453  14
  -2  -6   9 3129.56 528.267  14
  -2  -6   8 14079.9 1351.59  11
  -2  -6   8 15393.2 1214.96  14
  -2  -6   7 3802.94 718.018  11
  -2  -6   7 3479.97 584.267  14
  -2  -6   6 3021.03 689.875  11
  -2  -6   6 3141.60 554.093  14
  -2  -6   5 22127.0 1551.41  17
  -2  -6   5 25587.6 1509.12  14
  -2  -6   4 851.480 308.278  17
  -2  -6   3 9847.05 948.745  17
   2   6  -3 10473.6 1111.89   3
   2   6  -2 4050.82 681.532   3
   2   6  -1 61.7024 112.626   3
   2   6   0 11135.5 1132.18   3
   2   6   1 12344.9 849.381   7
   2   6   2 77712.3 2029.10   7
   2   6   3 36447.2 1678.56   5
   2   6   4 698.040 227.625   4
   2   6   4 769.696 254.263   5
   2   6   5 12300.3 1002.08   4
   2   6   5 15228.3 1099.92   5
   2   6   6 6088.39 712.468   5
   2   6   6 5444.73 699.704   4
   2   6   7 3095.28 500.473  23
   2   6   7 2500.85 454.509   5
   2   6   7 3150.00 511.301  15
   2   6   8 2255.21 433.922  15
   2   6   8 2860.67 581.601  23
   2   6   9 3495.23 560.007  15
   2   6   9 5040.22 732.792  23
   2   6  10 3120.19 514.572  15
   2   6  10 4709.77 800.896  23
   2   6  11 26473.9 1398.63  15
   2   6  11 26279.3 1537.09  23
   2   6  12 18015.5 1272.98  23
   2   6  13 16276.4 1160.79  23
   2   6  14 32471.6 1335.54  23
   2   6  15 9867.03 608.504  23
  -2  -7   9 1361.35 322.976  11
  -2  -7   9 2012.32 327.573  14
  -2  -7   8 395.040 172.037  14
  -2  -7   8 205.317 162.296  11
  -2  -7   7 1958.47 537.574  11
  -2  -7   7 2583.57 438.497  14
  -2  -7   6 5311.34 875.048  11
  -2  -7   6 5315.19 649.571  14
  -2  -7   5-45.9358 121.283  17
  -2  -7   5 92.2240 195.177  11
  -2  -7   4 2331.61 512.911  17
  -2  -7   3 8179.70 909.576  17
  -2  -7   2 9688.04 969.704  17
  -2  -7   1 1255.45 347.239  17
  -2  -7   0 112153. 3226.90  17
  -2  -7  -1 6387.90 747.166  17
  -2  -7  -2 167.066 130.863  17
   2   7   2 134.340 116.845  15
  -2  -7  -3 7186.44 748.169  17
   2   7   3 5726.95 646.453  15
   2   7   4 83.5301 108.466  15
  -2  -7  -4 177.734 125.538  17
   2   7   5 14388.0 1077.58  15
   2   7   6 21181.2 1327.74  15
   2   7   7 3442.93 543.780  15
   2   7   8 53179.8 2110.63  15
   2   7   8 48957.7 1932.47  23
   2   7   9 18646.4 1231.14  23
   2   7   9 20457.4 1278.61  15
   2   7  10 2454.53 548.094  23
   2   7  10 1428.31 330.806  15
   2   7  11 7920.68 774.907  23
   2   7  11 6921.87 668.892  15
   2   7  12 1044.82 235.469  15
   2   7  12 1453.90 370.477  23
   2   7  13-52.1874 280.072  23
  -2  -8   7 13454.8 1118.72  11
  -2  -8   6 378.701 238.594  11
  -2  -8   5 70.0884 157.429  11
  -2  -8   4 473.635 317.969  11
  -2  -8   3 4591.66 791.198  11
  -2  -8   3 5742.69 752.924  17
  -2  -8   2 6592.66 948.544  11
  -2  -8   2 6390.06 822.059  17
  -2  -8   1 2824.18 520.313  17
  -2  -8   0 65947.5 2454.13  17
   2   8   0 56616.4 2315.27  19
  -2  -8  -1 490.602 222.273  17
   2   8   1 408.493 242.756  19
  -2  -8  -2 34433.5 1708.15  17
   2   8   2 31528.2 1903.89  19
  -2  -8  -3 17156.1 1171.58  17
   2   8   4 1525.85 353.540  15
   2   8   5 8076.23 808.906  15
   2   8   6 141.713 116.491  15
   2   8   7 5335.97 648.340  15
   2   8   8 5142.36 705.777  19
   2   8   8 4685.69 595.051  15
   2   8   9 25107.3 1409.38  19
   2   8   9 22179.2 1088.78  23
   2   8   9 24481.6 1285.38  15
   2   8  10-1.52707 77.6769  15
   2   8  11 42561.3 1315.94  23
  -2  -9   5 646.404 227.792  11
  -2  -9   4 2264.67 455.729  11
  -2  -9   3 366.361 199.853  11
  -2  -9   2 27804.0 1648.37  11
  -2  -9   1 1863.56 414.664  11
   2   9   0 5947.71 633.312  19
  -2  -9   0 4241.36 641.043  11
  -2  -9   0 4671.99 594.691  17
   2   9   1 12.2776 84.7100  19
  -2  -9  -1 53.2027 109.960  17
  -2  -9  -2 6844.49 690.333  17
   2   9   2 7897.54 820.521  19
   2   9   3 75.2443 141.259  19
   2   9   4 17434.8 1263.46  19
   2   9   5 14444.1 1137.62  19
   2   9   6 18669.7 1243.32  19
   2   9   7 10301.8 863.205  19
   2   9   8 658.095 196.322  19
   2   9   9 11448.4 695.916  19
   2  10   2 1844.42 280.953  19
   2  10   3 10433.4 701.806  19
   2  10   4 4360.02 459.127  19
   2  10   5 2722.79 351.545  19
   2  10   6 206.358 92.9870  19
  -3   8   4-61.4405 83.7886  18
   3  -8  -4-16.3015 38.0840  16
  -3   8   3 29537.7 1585.79  18
   3  -8  -3 30160.7 1180.01  16
  -3   8   3 30506.6 1059.04  27
   3  -8  -2 2555.99 364.392  16
   3  -8  -1 9472.90 731.048  16
   3  -8   0 2030.40 343.933  16
   3  -8   1 6178.98 589.855  16
   3  -8   2 150.835 104.015  16
   3  -8   3 4357.39 472.363  16
   3  -8   4-5.30074 66.1301  16
  -3   8  -4 3.99376 37.4766  27
   3  -8   5 3728.26 374.624  16
  -3   7   8 12642.6 733.575  23
  -3   7   7 28121.3 1537.30  18
  -3   7   7 41268.9 1554.11  23
  -3   7   6 3533.00 606.745  18
  -3   7   6 4709.20 582.231  23
  -3   7   5 12843.8 1272.30  18
  -3   7   5 16190.2 1155.56  23
   3  -7  -4 9389.70 844.225  16
  -3   7   4 11890.7 1032.53  23
   3  -7  -3 302.243 179.017  16
  -3   7   3 173.548 202.522  23
   3  -7  -2 3616.67 564.754  16
   3  -7  -1 46692.8 2073.71  16
   3  -7   0 6776.17 788.023  16
   3  -7   1 4069.14 608.243  16
   3  -7   2 22443.9 1396.32  16
   3  -7   3 207.459 137.272  16
   3  -7   4 2402.98 444.982  16
   3  -7   5 136.047 118.090  16
   3  -7   6 4625.07 548.689  16
   3  -7   7 206.577 119.205  16
   3  -7   8 3006.89 358.700  16
  -3   6  10 21.1832 58.7276  12
  -3   6   9 10232.6 871.749  12
  -3   6   9 11566.5 843.056  23
  -3   6   8 14454.2 1144.00  12
  -3   6   8 11499.2 1185.81  18
  -3   6   8 15260.2 1069.02  23
  -3   6   7 1325.70 367.182  12
  -3   6   7 1025.16 399.845  18
  -3   6   7 1303.16 339.688  23
  -3   6   6 825.528 291.700  12
  -3   6   6 673.161 350.869  18
  -3   6   6 1194.53 345.292  23
  -3   6   5 55929.8 2469.90  23
  -3   6   4 19140.6 1460.08  23
  -3   6   3 6279.04 879.752  23
  -3   6   2 5669.66 811.844  23
  -3   6   1 4463.26 706.902  23
   3  -6  -1 3962.14 681.254  16
   3  -6   0 86.3335 153.518  16
  -3   6   0 139.998 182.143  23
   3  -6   1 9324.45 998.358  16
   3  -6   2 582.252 246.013  16
   3  -6   3 10020.6 1040.96  16
   3  -6   4 24731.5 1557.87  16
   3  -6   5 9065.42 924.361  16
   3  -6   6 446.726 215.664  16
   3  -6   7 1113.74 305.271  16
   3  -6   8 108.684 106.001  16
   3  -6   9 1690.64 327.939  16
   3  -6  11 3443.46 560.955  20
  -3   5  11 283.876 158.804  12
  -3   5  10 18158.0 1322.66  12
  -3   5   9 27343.0 1781.60  12
  -3   5   9 30239.5 1490.53  23
  -3   5   8 4093.66 840.093  18
  -3   5   8 5730.62 724.338  23
  -3   5   8 5135.13 813.584  12
  -3   5   7 16286.8 1720.23  18
  -3   5   7 17864.3 1549.48  12
  -3   5   7 21260.3 1427.49  23
  -3   5   6 1962.01 512.225  12
  -3   5   6 1568.14 528.919  18
  -3   5   6 2041.78 476.355  23
  -3   5   5 5173.14 804.438  12
  -3   5   5 6117.61 796.908  23
  -3   5   4 16596.5 1305.68  23
  -3   5   4 11214.5 1152.83   8
  -3   5   3 27760.1 1727.94  23
  -3   5   2 946.081 330.855  23
  -3   5   1 12158.2 1197.25  23
  -3   5   0 10758.5 1072.05  23
  -3   5  -1 1020.54 384.687  23
   3  -5   1 1127.18 366.960  16
   3  -5   2 8522.61 916.660  16
   3  -5   3 1243.07 485.344  11
   3  -5   3 2536.81 524.783  16
   3  -5   4 1463.94 394.124  16
   3  -5   4 466.830 326.521  11
   3  -5   5 1438.44 595.887  11
   3  -5   5 2760.03 522.766  16
   3  -5   6-26.7068 155.890  11
   3  -5   6 20.0510 102.576  16
   3  -5   7 962.760 546.416  11
   3  -5   7 2025.64 444.551  16
   3  -5   7 1210.51 432.135  14
   3  -5   8 1437.58 365.916  16
   3  -5   8 1388.29 482.304  14
   3  -5   9 4288.79 603.100  16
   3  -5   9 3113.59 662.402  14
   3  -5  10 651.208 229.533  16
   3  -5  10 512.292 271.781  14
   3  -5  11-21.9081 108.025  14
   3  -5  12 93.3594 124.093  20
  -3   4  12 51.9241 95.2128  12
  -3   4  11 33625.6 1817.77  12
  -3   4  10 37923.4 2195.93  12
  -3   4   9 3372.37 790.442  18
  -3   4   9 4111.98 759.329  12
  -3   4   8 11152.1 1287.37  12
  -3   4   8 10894.2 1457.20  18
  -3   4   7 40370.8 2774.09  18
  -3   4   7 40691.2 2465.97  12
  -3   4   7 43598.9 2047.25  23
  -3   4   6 1405.17 426.527   8
  -3   4   6 1557.44 556.514  18
  -3   4   5 3743.33 461.834  23
  -3   4   5 3506.53 658.054   8
  -3   4   4 270.157 190.718   8
  -3   4   4 764.930 257.016   4
  -3   4   3 415.905 189.170   4
  -3   4   2 21550.9 1249.11   4
  -3   4   1 18773.7 1200.11   4
  -3   4   0 25242.5 1378.12   4
  -3   4  -1 127986. 3132.91   4
  -3   4  -2 63209.6 2143.27   4
  -3   4  -3 172.241 127.828   4
  -3   4  -4 712.919 239.638   4
  -3   4  -5 237.717 141.393   4
   3  -4   6 246.979 252.579  11
  -3   4  -6 810.529 260.072   4
   3  -4   6 743.498 257.165  16
   3  -4   6 626.006 303.944  14
   3  -4   7 18451.3 1322.60  16
   3  -4   7 15605.7 1527.88  14
   3  -4   8 9652.45 964.094  16
   3  -4   8 8121.99 1140.99  14
   3  -4   9 1060.96 314.321  16
   3  -4   9 1024.53 409.543  14
   3  -4  10 3351.73 549.667  16
   3  -4  10 2930.63 696.403  14
   3  -4  11 3543.81 538.316  16
   3  -4  11 2790.64 627.662  14
   3  -4  12 2732.88 682.935  20
   3  -4  12 2303.30 539.993  14
   3  -4  13 10395.7 1086.45  20
   3  -4  13 12275.3 518.906  10
  -3   3  12 25381.1 1432.39  12
  -3   3  11 11137.0 1117.64  12
  -3   3  11 10720.7 707.005  13
  -3   3  10 442.200 163.099  13
  -3   3  10 226.001 156.802  12
  -3   3   9 18455.4 1914.58  18
  -3   3   9 19249.2 1030.75  13
  -3   3   9 20909.5 1755.94  12
  -3   3   8 11683.1 1334.77  12
  -3   3   8 11868.0 1528.37  18
  -3   3   8 10518.2 763.561  13
  -3   3   7 123.644 93.8727  13
  -3   3   7 12.3186 108.926  12
  -3   3   7 219.359 177.197   8
  -3   3   6 34962.3 2473.70  18
  -3   3   6 34063.9 1964.33   8
  -3   3   5 41601.0 2177.32   8
  -3   3   4 8806.43 791.138   4
  -3   3   4 7117.51 845.288   8
  -3   3   3 33390.5 1456.78   4
  -3   3   2 7554.58 693.334   4
  -3   3   1 29573.9 1364.92   4
  -3   3   0 8623.84 718.507   4
  -3   3  -1 98229.4 2426.26   4
  -3   3  -2 18312.4 1028.98   4
  -3   3  -3 88811.6 2533.72   2
  -3   3  -4 8890.20 805.713   2
  -3   3  -5 3573.26 535.594   3
  -3   3  -5 3533.81 523.508   2
  -3   3  -6 25594.9 1524.86   3
  -3   3  -6 28157.7 1495.22   2
  -3   3  -7 16780.7 1299.49   3
  -3   3  -7 19198.6 1265.88   2
  -3   3  -8 10467.5 1059.21   3
   3  -3   8 2981.27 763.068  11
   3  -3   8 5681.95 710.344  16
  -3   3  -8 8444.68 849.247   2
   3  -3   8 5026.02 860.594  14
   3  -3   9 85.6764 85.5898  16
   3  -3   9 94.6705 184.680  14
   3  -3  10 4726.09 668.445  16
   3  -3  10 4940.89 891.580  14
   3  -3  11 1522.60 383.081  16
   3  -3  11 1793.14 531.563  14
   3  -3  12 1129.72 470.367  20
   3  -3  12 1010.19 425.664  14
   3  -3  13 44452.2 2596.19  20
   3  -3  13 42910.2 2224.66  14
   3  -3  14 6553.53 419.886  10
  -3   2  13 8648.88 527.741  13
  -3   2  12 20549.1 1625.51  26
  -3   2  12 17514.2 1202.29  12
  -3   2  12 17488.3 909.754  13
  -3   2  11 7100.82 1236.51  26
  -3   2  11 6832.25 868.327  12
  -3   2  11 6294.13 623.365  13
  -3   2  10 19738.1 1615.97  12
  -3   2  10 15483.5 1623.73  26
  -3   2  10 19607.5 1117.69  13
  -3   2   9 38676.4 2816.91  18
  -3   2   9 42945.2 2449.63  12
  -3   2   9 36347.9 1521.61  13
  -3   2   8 1486.99 294.025  13
  -3   2   8 1089.71 328.481   8
  -3   2   8 1786.50 598.282  18
  -3   2   8 1328.20 522.730   9
  -3   2   8 1480.83 438.828  12
  -3   2   7 37670.0 2551.26  18
  -3   2   7 32420.4 2356.31   9
  -3   2   7 35615.1 1961.01   8
  -3   2   6 6187.49 959.200   9
  -3   2   6 7593.87 876.589   8
  -3   2   5 80.7513 152.184   9
  -3   2   5-4.40499 111.184   8
  -3   2   4 543.396 272.336   9
  -3   2   4 339.983 188.924   8
  -3   2   3 725.448 254.033   8
  -3   2   3 982.102 216.088   4
  -3   2   2 40809.1 1429.91   4
  -3   2   1 165004. 2875.26   4
  -3   2   0 88436.6 2032.56   4
  -3   2  -1 3397.04 429.294   2
  -3   2  -2 30228.2 1279.84   2
  -3   2  -3 3142.89 429.887   2
  -3   2  -4 8009.37 674.484   3
  -3   2  -4 9304.29 773.576   2
  -3   2  -5 11061.0 892.644   2
  -3   2  -5 10003.8 822.999   3
  -3   2  -6 13795.8 1042.22   3
  -3   2  -6 15357.9 1064.53   2
  -3   2  -7 24274.3 1374.73   2
  -3   2  -7 22073.0 1411.07   3
  -3   2  -8 3003.06 548.329   3
  -3   2  -8 3702.13 555.673   2
  -3   2  -9 9814.59 1060.13   3
  -3   2  -9 10394.2 946.373   2
   3  -2   9 6247.14 724.290  16
   3  -2   9 5702.26 906.608  14
   3  -2  10 3874.02 596.566  16
   3  -2  10 2993.35 670.093  14
   3  -2  11 26890.9 2017.18  14
   3  -2  12 236.057 218.871  20
   3  -2  12 6.07206 127.535  14
   3  -2  13 199.833 219.623  20
   3  -2  13 335.398 139.159  10
   3  -2  13 464.686 253.739  14
   3  -2  14 12.2495 96.4704  10
   3  -2  14 111.632 161.032  14
   3  -2  15 2001.72 234.823  10
  -3   1  13 6635.52 531.202  13
  -3   1  13 10426.1 1106.18  26
  -3   1  12 2604.01 394.375  13
  -3   1  12 263.656 865.220  26
  -3   1  11 3153.69 510.223  26
  -3   1  11 2909.69 457.448  13
  -3   1  10 1720.08 448.674  12
  -3   1  10 2489.79 775.804  26
  -3   1  10 1897.10 359.007  13
  -3   1   9 18575.9 1519.02  12
  -3   1   9 14383.7 1694.94   9
  -3   1   9 14860.7 1544.46  26
  -3   1   9 17029.7 1053.93  13
  -3   1   8 63025.2 3451.21  18
  -3   1   8 56556.1 3226.30   9
  -3   1   8 51886.2 2254.85   8
  -3   1   8 67290.8 2853.39  12
  -3   1   8 61019.3 1881.58  13
  -3   1   7 6253.24 1002.15   9
  -3   1   7 6592.01 780.620   8
  -3   1   6 20420.6 1657.15   9
  -3   1   6 21371.1 1375.47   8
  -3   1   5 10638.2 942.714   8
  -3   1   5 10377.2 1085.55   9
  -3   1   4 42931.6 1834.87   8
  -3   1   4 39625.2 1938.87   9
  -3   1   3 4321.17 582.128   9
  -3   1   3 5596.72 642.576   8
   3  -1  -2 610.193 124.018   6
  -3   1   2 778.668 229.875   8
  -3   1   2 626.244 167.221   4
   3  -1  -1 32953.6 939.658   6
  -3   1   1 36654.2 1127.49   4
  -3   1   1 33722.7 1326.41   8
   3  -1   0 702.975 141.711   6
  -3   1   0 694.346 169.682   2
   3  -1   1 343208. 3618.39   6
  -3   1  -1 346988. 4007.68   2
  -3   1  -2 4415.62 449.522   2
  -3   1  -3 6964.83 578.856   2
  -3   1  -4 84712.1 2085.70   2
  -3   1  -5 81069.3 2181.31   2
  -3   1  -6 122262. 2889.32   2
  -3   1  -7 3251.63 500.021   2
  -3   1  -8 3557.98 529.819   2
  -3   1  -9 4410.65 609.992   2
  -3   1 -10 603.182 229.559   2
   3  -1  10 79.8090 123.324  14
   3  -1  11 51365.4 3193.45  20
   3  -1  11 47824.0 2537.63  14
   3  -1  12 2096.74 629.806  20
   3  -1  12 2308.57 555.020  14
   3  -1  13 10882.0 751.320  10
   3  -1  13 8186.69 1017.52  14
   3  -1  14 4692.50 475.542  10
   3  -1  14 3064.52 577.294  14
   3  -1  15 10.1069 90.0852  10
   3  -1  16 312.046 98.5890  10
  -3   0  13 10472.6 708.748  13
  -3   0  13 4778.41 533.034  26
  -3   0  12 4919.42 913.951  26
  -3   0  12 3532.66 468.012  13
  -3   0  11 92.2485 102.187  13
  -3   0  11-139.938 318.765  26
  -3   0  10 11259.9 1365.91  26
  -3   0  10 14115.7 1006.14  13
  -3   0   9 8063.68 732.398  13
  -3   0   9 6111.62 1070.43   9
  -3   0   9 6910.28 1043.16  26
  -3   0   8 5773.08 1007.15   9
  -3   0   8 5583.56 724.202   8
  -3   0   8 7338.11 650.648  13
  -3   0   7 3812.26 753.214   9
  -3   0   7 2926.70 524.684   8
  -3   0   6 11649.6 1213.24   9
  -3   0   6 12875.8 1025.99   8
  -3   0   5 37.3556 74.9115   8
  -3   0   5 70.0067 137.044   9
  -3   0   4 71603.9 2542.81   9
  -3   0   4 86217.8 2487.97   8
   3   0  -3 84395.4 1505.25   6
  -3   0   3 91025.7 2365.53   8
   3   0  -2 624.893 134.448   6
  -3   0   2 611.894 190.548   9
  -3   0   2 645.116 203.481   8
   3   0  -1 5879.77 394.623   6
  -3   0   1 6583.85 568.302   8
  -3   0   0 28254.9 1110.19   8
   3   0   0 26129.0 835.324   6
   3   0   1 25724.4 846.092   6
  -3   0  -1 24971.5 903.433   2
   3   0   2 800.087 160.347   6
  -3   0  -2 722.455 167.213   2
  -3   0  -2 768.335 156.906   8
   3   0   3 150291. 2283.09   6
  -3   0  -3 151352. 2600.89   2
   3   0   4 32160.7 1035.24   6
  -3   0  -4 39414.1 1374.30   2
  -3   0  -5 9866.41 742.681   2
  -3   0  -6 8214.80 698.904   2
  -3   0  -7 10153.0 823.749   2
  -3   0  -8 27828.9 1445.45   2
  -3   0  -9 29838.7 1585.87   2
  -3   0 -10 5165.51 684.104   2
   3   0  11 2188.44 641.352  20
   3   0  11 1735.61 463.430  14
   3   0  13 8135.91 649.871  10
   3   0  14 55.6170 110.919  10
   3   0  15 6909.17 541.849  10
   3   0  16 6896.35 470.960  10
  -3  -1  13 354.311 135.771  13
  -3  -1  13 1510.16 500.714  26
  -3  -1  12 1330.30 282.478  13
  -3  -1  12 797.378 311.733  26
  -3  -1  11 40377.9 1634.43  13
  -3  -1  11 35449.2 2429.91  26
  -3  -1  10 140765. 3224.40  13
  -3  -1  10 120279. 4591.51  26
  -3  -1   9 3828.82 823.508   9
  -3  -1   9 5642.79 637.969  13
  -3  -1   8 5407.88 976.630   9
  -3  -1   8 8064.40 690.120  13
  -3  -1   7 32544.5 2229.93   9
  -3  -1   7 33244.6 1720.34   8
  -3  -1   6 1266.60 407.756   9
  -3  -1   6 1491.32 372.223   8
  -3  -1   5 7287.55 863.968   9
  -3  -1   5 9951.16 862.051   8
  -3  -1   4 3069.44 508.471   9
  -3  -1   4 3780.37 491.101   8
  -3  -1   3 32956.4 1541.70   9
  -3  -1   3 35065.4 1405.35   8
  -3  -1   2 1929.16 328.056   9
  -3  -1   2 1875.99 301.358   8
  -3  -1   1 828245. 6855.54   9
  -3  -1   1 822783. 6886.73   8
   3   1  -1 831757. 6236.14   6
   3   1   0 70415.3 1537.57   6
  -3  -1   0 75225.7 1714.52   8
   3   1   1 436749. 4106.82   6
   3   1   1 429603. 3662.58   5
   3   1   2 296581. 3217.95   6
  -3  -1  -2 288837. 3253.25   2
  -3  -1  -2 299563. 3020.07   8
  -3  -1  -3 3417.32 359.808   2
   3   1   3 2989.67 299.335   6
   3   1   4 18604.3 751.538   6
  -3  -1  -4 19655.3 935.854   2
   3   1   5 531.221 140.451   6
  -3  -1  -5 692.971 205.669   2
   3   1   6 3037.25 334.856   6
  -3  -1  -6 3204.28 449.097   2
  -3  -1  -7 10513.1 822.860   2
  -3  -1  -8 1591.24 377.970   2
  -3  -1  -9 80558.4 2587.51   2
  -3  -1 -10 3047.36 528.449   2
  -3  -1 -11 33758.5 1790.29   2
   3   1  12 30.4496 84.0535  10
   3   1  13 6408.86 573.546  10
   3   1  14 18.0413 107.296  10
   3   1  15 707.254 211.247  10
   3   1  16 14.6943 85.6579  10
  -3  -2  13-131.674 174.521  26
  -3  -2  12 7340.60 980.026  26
  -3  -2  12 8639.69 660.083  13
  -3  -2  11 10908.6 805.754  13
  -3  -2  11 9271.59 1212.41  26
  -3  -2  10 16525.6 1168.64  14
  -3  -2  10 15954.7 1023.47  13
  -3  -2   9 3348.82 529.983  14
  -3  -2   9 2616.01 704.832   9
  -3  -2   9 2940.71 444.150  13
  -3  -2   8 28082.3 1530.46  14
  -3  -2   8 29712.6 1353.73  13
  -3  -2   7 13385.4 1427.05   9
  -3  -2   6 32403.1 2071.67   9
  -3  -2   5 153826. 4318.58   9
  -3  -2   5 180866. 3696.87   8
  -3  -2   4 42353.8 1681.86   8
   3   2  -4 43595.8 1366.08   7
  -3  -2   3 24462.5 1242.05   8
   3   2  -3 26104.1 1022.34   7
   3   2  -2 1147.48 212.979   7
  -3  -2   2 1305.84 262.372   8
  -3  -2   1 28961.1 1127.93   8
   3   2  -1 26060.2 978.382   7
   3   2   0 645.499 133.687   5
  -3  -2   0 788.596 176.740   8
   3   2   0 630.083 156.145   7
   3   2   1 230439. 3021.09   7
   3   2   1 228126. 2854.26   5
  -3  -2  -2 79000.2 1567.66   2
   3   2   2 74943.6 1656.73   5
  -3  -2  -2 79491.8 1434.15   8
   3   2   3 1156.49 202.992   6
  -3  -2  -3 672.395 168.765   2
   3   2   3 702.464 179.452   5
   3   2   4 150551. 2295.70   6
  -3  -2  -4 147614. 2674.24   2
   3   2   5 114745. 2415.50   5
  -3  -2  -5 108922. 2331.05   2
   3   2   6 6588.78 460.208   6
  -3  -2  -6 8960.40 715.341   2
  -3  -2  -7 198063. 3857.46   2
  -3  -2  -8 45.7327 92.9385   2
  -3  -2  -9 215.541 145.421   2
  -3  -2 -10 33791.2 1797.48   2
   3   2  11 19806.4 908.741  10
   3   2  12 5653.18 510.704  10
   3   2  13 17816.8 2060.52  21
   3   2  13 37017.0 1342.16  10
   3   2  14 11143.1 725.574  10
   3   2  15 13991.5 762.195  10
   3   2  16 11458.8 738.489  23
   3   2  17-205.374 165.852  23
  -3  -3  13 5855.57 675.783  26
  -3  -3  12 42979.6 1644.34  14
  -3  -3  12 51966.9 2490.47  26
  -3  -3  11 20115.3 1022.47  13
  -3  -3  11 20668.4 1294.55  14
  -3  -3  10 3143.91 539.155  14
  -3  -3  10 2944.95 405.479  13
  -3  -3   9 8167.82 873.145  14
  -3  -3   9 7908.39 681.104  13
  -3  -3   8 64.8835 104.337  13
  -3  -3   8-36.2460 234.354   9
  -3  -3   8 112.975 120.147  14
  -3  -3   7 6434.36 733.986  14
  -3  -3   7 4027.61 851.167   9
  -3  -3   7 5078.66 517.543  13
  -3  -3   6 13409.7 1444.18   9
   3   3  -5 5315.36 541.265   7
   3   3  -4 26051.4 1199.76   7
   3   3  -3 201174. 3304.99   7
   3   3  -2 14596.3 838.871   7
   3   3  -1 85819.1 2137.10   3
   3   3  -1 87476.1 2022.75   7
   3   3   0 150063. 2493.73   5
   3   3   0 150291. 2569.23   7
   3   3   1 767.402 179.913   5
   3   3   1 594.870 162.149   7
   3   3   2 13884.9 772.075   5
   3   3   2 14352.4 747.206   7
  -3  -3  -3 420.779 139.615   2
   3   3   3 396.709 141.525   5
   3   3   3 426.309 143.522   7
   3   3   4 16395.0 802.999   6
   3   3   4 17248.5 937.156   5
  -3  -3  -4 15322.5 850.822   2
  -3  -3  -5 549.042 172.015   2
   3   3   5 465.913 170.510   5
   3   3   5 523.617 139.466   6
  -3  -3  -6 340.121 150.419   2
   3   3   6 377.911 164.315   5
  -3  -3  -7 123260. 2920.40   2
  -3  -3  -8 4222.47 597.681   2
  -3  -3  -9 31297.5 1645.17   2
  -3  -3 -10 17001.7 1295.68   2
   3   3  11 1754.52 595.716  21
   3   3  12 267.711 252.297  21
   3   3  12 213.015 104.007  10
   3   3  13 424.185 295.884  21
   3   3  13 1191.07 233.988  10
   3   3  14 205.614 129.146  10
   3   3  15 12107.3 855.027  23
   3   3  16 26284.8 1166.17  23
  -3  -4  12 1996.93 326.450  14
  -3  -4  12 1788.85 401.804  26
  -3  -4  11 16728.8 1136.94  14
  -3  -4  10 7502.43 824.572  14
  -3  -4   9 452.159 236.077  14
  -3  -4   8 48930.5 2167.92  14
  -3  -4   7 52599.5 2238.17  14
  -3  -4   7 49983.1 3000.36   9
  -3  -4   6 626.571 211.943  25
  -3  -4   6 472.933 207.798  14
   3   4  -5 18144.9 1123.56   7
   3   4  -4 809.291 234.117   7
   3   4  -3 1010.88 261.674   7
   3   4  -2 13526.7 1008.91   3
   3   4  -2 12636.9 862.343   7
   3   4  -1 32451.6 1546.16   3
   3   4  -1 29910.5 1294.74   7
   3   4   0 19399.1 1176.10   3
   3   4   0 18329.0 973.048   7
   3   4   1 42698.6 1502.52   5
   3   4   1 42502.9 1441.07   7
   3   4   2 12444.4 822.571   5
   3   4   2 11447.5 715.876   7
   3   4   3 3941.27 469.872   5
   3   4   3 3955.43 410.987   7
   3   4   4 12044.4 858.293   5
   3   4   4 11303.8 697.392   7
   3   4   5 125447. 2949.60   5
   3   4   5 129855. 2386.94   6
   3   4   6 9651.30 837.626   5
  -3  -4  -6 8707.89 791.126   2
  -3  -4  -7 985.009 277.563   2
   3   4   7 876.636 266.588   5
   3   4   8 1873.00 411.676   5
  -3  -4  -8 1702.70 389.007   2
  -3  -4  -9 5469.54 717.727   2
   3   4  10 27671.3 2250.91  21
   3   4  11 51335.0 3092.19  21
   3   4  12 2808.01 725.457  21
   3   4  13 4589.91 496.761  23
   3   4  14 689.910 315.753  23
   3   4  15-4.75245 205.439  23
   3   4  16 10269.6 730.274  23
  -3  -5  11-19.5755 85.6271  14
  -3  -5  10 7003.75 751.496  14
  -3  -5   9 492.715 218.844  14
  -3  -5   8 4959.80 705.526  14
  -3  -5   7 551.978 252.788  14
  -3  -5   6 1069.16 320.550  14
  -3  -5   5 167811. 3603.61  25
  -3  -5   5 137604. 3506.62  14
   3   5  -4 12806.8 1001.13   7
   3   5  -3 62645.8 2517.28   3
   3   5  -3 57689.4 2104.19   7
   3   5  -2 48741.3 2154.10   3
   3   5  -2 36728.7 1622.73   7
   3   5  -1 352.973 187.533   3
   3   5  -1 517.225 184.071   7
   3   5   0 16787.2 1027.35   7
   3   5   1 27898.7 1278.19   7
   3   5   2 3011.47 453.892   5
   3   5   2 2420.28 361.660   7
   3   5   3 97608.0 2619.28   5
   3   5   3 93029.2 2188.32   7
   3   5   4 32998.2 1551.72   5
   3   5   4 33115.7 1279.49   7
   3   5   5 17715.6 1173.23   5
   3   5   6 23263.6 1382.21   5
   3   5   7 33212.7 1693.54   5
   3   5   8 9159.66 898.278   5
  -3  -5  -8 7781.48 875.887   2
   3   5   9 271.957 236.950  21
   3   5   9-649.248 232.002  23
   3   5  10 1196.73 471.825  21
   3   5  10 797.001 262.621  15
   3   5  10 58.0449 194.443  23
   3   5  11 811.486 266.946  15
   3   5  11 72.5582 329.632  23
   3   5  12 24982.7 1413.64  23
   3   5  12 28564.6 1448.50  15
   3   5  13 41613.2 1734.94  23
   3   5  14 11773.9 943.922  23
   3   5  15 11817.5 844.420  23
   3   5  16 21382.9 862.859  23
  -3  -6  10 19964.0 1065.90  14
  -3  -6   9 19084.3 1192.37  14
  -3  -6   8 5696.13 701.012  14
  -3  -6   7 59117.6 2619.85  11
  -3  -6   7 36217.2 1812.60  14
  -3  -6   6 204.879 151.479  14
  -3  -6   5 31039.7 1646.19  17
  -3  -6   5 34474.1 1701.92  14
  -3  -6   4 377.783 189.220  17
  -3  -6   4 334.198 172.676  14
  -3  -6   3 27738.6 1578.01  17
  -3  -6   3 36625.6 1683.77  25
   3   6  -2 218.957 163.434   3
  -3  -6   2 83.4166 71.7717  17
  -3  -6   2 216.843 134.818  25
   3   6  -1 44624.4 2254.99   3
   3   6  -1 35862.6 1659.52   7
   3   6   0 12747.4 961.066   7
   3   6   1 3596.62 545.518   5
   3   6   1 3707.35 505.036   7
   3   6   2 1756.30 376.077   5
   3   6   2 1556.60 314.356   7
   3   6   3 9894.10 902.603   5
   3   6   3 8850.19 710.822   7
   3   6   4 11505.6 985.519   5
   3   6   5 3542.18 564.120   5
   3   6   6 13637.0 1115.72   5
   3   6   6 13600.0 979.030  15
   3   6   7 33338.2 1596.93  15
   3   6   8 16099.4 1116.02  15
   3   6   9 51993.1 2057.39  15
   3   6  10 2850.71 478.467  15
   3   6  10 3766.58 625.285  23
   3   6  11 1721.16 358.030  15
   3   6  11 3120.03 647.284  23
   3   6  12 268.401 142.332  15
   3   6  12 2330.28 601.324  23
   3   6  13 4188.86 466.906  15
   3   6  13 7507.83 798.929  23
   3   6  14 7277.01 695.254  23
   3   6  15 55349.7 1382.81  23
  -3  -7   9 4.18648 52.2320  14
  -3  -7   8 1716.49 372.632  11
  -3  -7   8 811.568 219.546  14
  -3  -7   7 77446.6 2795.00  11
  -3  -7   7 47399.5 1807.33  14
  -3  -7   6 8616.56 1020.71  11
  -3  -7   6 5337.83 633.655  14
  -3  -7   5 44686.8 1934.20  17
  -3  -7   5 43723.0 1814.80  14
  -3  -7   4 46200.0 2095.99  17
  -3  -7   3 2173.66 451.053  17
  -3  -7   2 1844.32 445.148  17
  -3  -7   1 437.334 217.548  17
  -3  -7   0 219.097 154.202  17
  -3  -7  -1 34445.3 1746.59  17
  -3  -7  -2 19895.1 1307.03  17
  -3  -7  -3 4666.41 622.747  17
   3   7   3 3991.34 518.981  15
  -3  -7  -4 46544.3 1943.42  17
   3   7   4 42139.1 1765.22  15
  -3  -7  -5 62008.7 2175.33  17
   3   7   5 52614.4 2035.10  15
  -3  -7  -6 3971.07 548.956  17
   3   7   6 3925.17 564.882  15
   3   7   7 21738.8 1347.94  15
   3   7   8 4814.23 631.191  15
   3   7   9 516.336 210.304  15
   3   7  10 11906.3 941.497  15
   3   7  11 33556.2 1470.92  15
   3   7  11 30999.2 1362.00  23
   3   7  12 4549.67 495.253  15
   3   7  12 4460.70 548.769  23
   3   7  13 10997.1 650.082  15
   3   7  13 11100.8 664.782  23
  -3  -8   7 5940.52 628.226  11
  -3  -8   6-99.6232 168.957  11
  -3  -8   5 4127.00 669.035  11
  -3  -8   4 65.7092 122.713  11
  -3  -8   3 12041.6 1036.79  17
  -3  -8   2 6717.93 772.305  17
  -3  -8   1 147.560 125.453  17
  -3  -8   0 1792.82 423.250  17
  -3  -8  -1 535.602 222.593  17
  -3  -8  -2 224.285 164.437  17
  -3  -8  -3 1504.71 359.989  17
   3   8   3 1067.30 271.962  15
  -3  -8  -4 133.893 116.912  17
   3   8   4 67.9847 95.0757  15
  -3  -8  -5 7931.25 773.758  17
   3   8   5 6605.55 703.112  15
   3   8   6 6568.59 699.401  15
   3   8   7 27836.1 1444.96  15
   3   8   8 15095.5 1045.80  15
   3   8   9 2730.47 434.638  15
   3   8  10 1466.30 332.498  19
   3   8  10 1239.86 280.026  15
   3   8  11 856.534 216.470  15
  -3  -9   5-18.0300 71.0422  11
  -3  -9   4 207.461 149.310  11
  -3  -9   3-33.3299 109.692  11
  -3  -9   2 2057.17 455.620  11
  -3  -9   1 12787.1 1099.27  11
  -3  -9   1 16424.0 1082.03  17
  -3  -9   0 722.814 274.379  11
  -3  -9   0 713.756 234.874  17
   3   9   1 1867.38 356.364  19
  -3  -9  -1 1281.76 351.295  11
  -3  -9  -1 1912.05 374.128  17
   3   9   2 12970.7 1001.23  19
  -3  -9  -2 14890.8 1004.81  17
   3   9   3 949.063 301.926  19
  -3  -9  -3 1124.67 275.335  17
   3   9   4 149.124 136.175  19
  -3  -9  -4 134.917 98.0742  17
   3   9   5 3875.26 595.467  19
   3   9   6 54.3372 79.7818  19
   3   9   7 3114.37 489.822  19
   3   9   8 15026.9 988.845  19
   3   9   9 14950.7 864.756  19
   3  10   3 735.561 181.334  19
   3  10   4 14279.7 795.783  19
   3  10   5 3549.98 398.430  19
   3  10   6 51.2662 59.9525  19
  -4   7   5 6117.95 701.202  18
  -4   7   4 4360.74 651.813  18
  -4   7   3 2301.12 509.866  18
  -4   7   2 330.801 131.076  27
   4  -7  -1 396.827 155.038  16
  -4   7   1 317.035 152.593  27
   4  -7   0 149.909 111.577  16
  -4   7   0 150.237 113.074  27
   4  -7   1 584.267 188.494  16
   4  -7   2 3930.67 492.946  16
  -4   7  -2 4317.14 516.293  27
   4  -7   3 16334.4 990.047  16
  -4   7  -3 16323.6 961.128  27
   4  -7   4 1850.81 323.527  16
  -4   7  -4 1985.33 313.361  27
   4  -7   5 4857.46 502.681  16
  -4   7  -5 5108.32 449.189  27
   4  -7   6 10869.3 691.283  16
   4  -7   7 2459.58 295.247  16
  -4   6   8 8157.67 789.433  18
  -4   6   7 2591.90 528.579  18
  -4   6   6 83.4082 140.888  18
  -4   6   5 2004.90 561.825  18
  -4   6   5 2322.45 441.257  23
  -4   6   4 943.046 429.767  18
  -4   6   4 1097.19 326.235  23
  -4   6   3 7458.73 708.258  27
   4  -6  -1 61597.9 2262.41  16
   4  -6   0 1664.98 381.373  16
   4  -6   1 193.816 137.302  16
   4  -6   2 2678.01 483.876  16
   4  -6   3 1235.62 324.498  16
   4  -6   4 339.771 166.319  16
   4  -6   5 8208.49 819.116  16
  -4   6  -5 8354.90 741.968  27
  -4   6  -6 18139.9 990.434  27
   4  -6   6 16167.4 1109.58  16
   4  -6   7 92.5092 104.995  16
   4  -6   8 32653.8 1377.83  16
   4  -6   9 437.439 229.627  20
   4  -6   9 406.537 142.369  16
  -4   5   9 12521.1 936.791  12
  -4   5   8 30112.0 1620.51  12
  -4   5   8 23881.7 1815.58  18
  -4   5   7 4895.46 703.290  12
  -4   5   7 3687.12 767.912  18
  -4   5   6 28963.6 1747.98  12
  -4   5   6 24968.7 2090.67  18
  -4   5   5 19909.7 1449.44  12
  -4   5   5 22451.7 1505.16  23
  -4   5   4 761.442 227.327  23
  -4   5   3 29912.9 1809.54  23
  -4   5   2 1992.78 474.767  23
  -4   5   1 7549.28 915.109  23
   4  -5   0 5253.42 704.213  16
   4  -5   1 33205.4 1786.80  16
   4  -5   2 1545.82 394.235  16
   4  -5   3 20301.7 1406.19  16
   4  -5   4 26125.8 1602.40  16
   4  -5   5 427.633 212.691  16
   4  -5   6 11034.8 1019.61  16
  -4   5  -6 12451.9 937.527  27
   4  -5   7 714.367 261.433  16
   4  -5   8 3769.28 554.310  16
   4  -5   9 3352.50 501.245  16
   4  -5  10 12675.1 1425.75  20
   4  -5  10 14069.3 936.344  16
   4  -5  11 3528.67 663.705  20
  -4   4  10 5766.82 692.837  12
  -4   4   9 7821.14 909.343  12
  -4   4   9 6649.01 1021.03  18
  -4   4   8 3538.06 662.446  12
  -4   4   8 2722.64 705.957  18
  -4   4   8 2965.72 351.472  13
  -4   4   7 3258.39 795.033  18
  -4   4   7 3792.23 710.102  12
  -4   4   7 3429.63 414.177  13
  -4   4   6 3856.39 744.798  12
  -4   4   6 3852.73 892.618  18
  -4   4   6 4146.07 466.809  13
  -4   4   5 9369.78 1118.06  12
  -4   4   5 9632.03 1416.61  18
  -4   4   5 9513.53 728.190  13
  -4   4   4 31760.3 1990.21  12
  -4   4   4 29284.7 1277.51  13
  -4   4   3 159858. 4827.29   8
  -4   4   3 199119. 4648.37  23
  -4   4   2 5974.56 869.270   8
  -4   4   2 8207.51 952.827  23
  -4   4   1-57.8076 142.953  23
  -4   4   0 27555.3 1653.79  23
   4  -4   2 575.203 252.268  16
   4  -4   3 2297.12 457.595  16
   4  -4   4 16783.0 1229.20  16
   4  -4   5 645.024 271.200  16
   4  -4   6 107026. 3207.86  16
   4  -4   7 208.043 167.729  16
   4  -4   8 17606.5 1296.13  16
   4  -4   9 18338.1 1293.39  16
   4  -4  10 1862.32 398.579  16
   4  -4  11 3814.06 845.662  20
   4  -4  12 5542.06 1012.67  20
   4  -4  13 245.235 185.517  20
   4  -4  13 242.391 67.7513  10
  -4   3  11 15856.2 705.472  13
  -4   3  10 4501.08 692.174  12
  -4   3  10 4608.83 450.545  13
  -4   3   9 903.776 216.527  13
  -4   3   9 786.156 332.014  12
  -4   3   9 810.262 397.805  18
  -4   3   8 14516.0 1739.87  18
  -4   3   8 16011.0 1514.71  12
  -4   3   8 15056.3 913.041  13
  -4   3   7 1188.00 266.585  13
  -4   3   7 1133.97 415.169  12
  -4   3   7 1273.36 497.382  18
  -4   3   6 6031.85 961.005  12
  -4   3   6 7222.45 1227.86  18
  -4   3   6 7220.00 669.352  13
  -4   3   5 13051.4 860.659  13
  -4   3   5 14834.9 1732.42  18
  -4   3   5 13182.4 1326.78   8
  -4   3   4 315.848 206.488  12
  -4   3   4 756.304 342.568   8
  -4   3   3 11079.1 1210.85   8
  -4   3   2 11401.1 902.184   4
  -4   3   2 10199.9 1114.34   8
  -4   3   1 42649.3 1820.13   4
  -4   3   0 297.403 160.194   4
  -4   3  -1 18573.2 1175.90   4
  -4   3  -2 14276.8 1030.44   4
  -4   3  -3 784.173 254.393   4
  -4   3  -4 4904.38 668.280   2
  -4   3  -5 11799.5 1049.84   2
   4  -3   6 4308.59 614.420  16
  -4   3  -6 7087.03 818.898   2
   4  -3   7 853.177 269.745  16
   4  -3   7 247.891 278.507  14
   4  -3   8 20835.0 1411.15  16
   4  -3   8 14730.0 1616.97  14
   4  -3   9 4387.21 649.514  16
   4  -3   9 2951.67 783.089  14
   4  -3  10 164.231 154.027  16
   4  -3  10 28.7413 167.841  14
   4  -3  11 7647.82 1297.88  20
   4  -3  12 776.753 363.742  20
   4  -3  13 4399.43 794.989  20
   4  -3  14 398.183 216.990  20
   4  -3  14 263.467 87.0531  10
  -4   2  12 8555.47 507.964  13
  -4   2  11 4288.43 450.762  13
  -4   2  10 4818.49 739.676  12
  -4   2  10 5131.82 545.822  13
  -4   2   9 9063.24 1098.01  12
  -4   2   9 9104.77 749.520  13
  -4   2   8 6030.80 1143.00  18
  -4   2   8 6254.49 950.628  12
  -4   2   8 5934.83 616.192  13
  -4   2   7 92.8010 114.615  13
  -4   2   7 190.156 186.334  12
  -4   2   7 25.8300 153.808  18
  -4   2   6 88102.7 3559.72  12
  -4   2   6 96613.6 4368.61  18
  -4   2   6 95266.1 3500.14   8
  -4   2   6 91580.7 2406.50  13
  -4   2   5 206309. 3472.90  13
  -4   2   5 195877. 4998.82   8
  -4   2   4 147794. 4264.98   8
  -4   2   3 20324.6 1543.90   8
  -4   2   2 8382.96 953.580   8
  -4   2   1 2882.86 421.494   4
  -4   2   1 2853.68 521.305   8
  -4   2   0 14222.8 935.869   4
  -4   2  -1 85.4948 87.9149   4
  -4   2  -2 461.613 193.217   2
  -4   2  -3 9379.02 833.093   2
  -4   2  -4 211310. 4167.79   2
  -4   2  -5 47002.4 1997.63   2
  -4   2  -6 111497. 3216.34   2
  -4   2  -7 23467.2 1510.99   2
   4  -2   8 770.279 255.618  16
   4  -2   8 454.814 291.248  14
   4  -2   9 5389.40 703.718  16
   4  -2   9 3206.26 791.489  14
   4  -2  10 2052.20 459.700  16
   4  -2  10 1822.99 577.574  14
   4  -2  11 254.741 285.482  20
   4  -2  11 70.8685 122.303  14
   4  -2  12 6328.92 1155.55  20
   4  -2  13 980.020 438.766  20
   4  -2  14 965.662 362.776  20
   4  -2  14 1247.20 209.261  10
   4  -2  15 1517.53 186.689  10
  -4   1  12 10644.7 648.575  13
  -4   1  11 3053.97 417.770  13
  -4   1  10 27397.9 1317.03  13
  -4   1   9 1870.52 489.955  12
  -4   1   9 1453.85 321.983  13
  -4   1   8 23381.4 1788.73  12
  -4   1   8 23237.7 1228.95  13
  -4   1   7 9559.12 1129.79  12
  -4   1   7 10275.2 1456.96  18
  -4   1   7 8604.55 991.891   8
  -4   1   7 9702.64 785.151  13
  -4   1   6 2819.53 709.048  18
  -4   1   6 2987.34 570.857   8
  -4   1   6 3548.51 693.988  12
  -4   1   6 3116.22 431.661  13
  -4   1   5 30980.1 1897.86   8
  -4   1   4 52069.8 2336.21   8
  -4   1   3 150901. 3925.00   8
  -4   1   2 1055.71 324.170   8
  -4   1   1 121820. 3243.78   8
  -4   1   0 67434.6 1810.23   4
  -4   1   0 65919.7 2271.80   8
  -4   1  -1 420.783 178.086   8
  -4   1  -1 507.928 167.012   2
  -4   1  -2 18135.1 1037.96   2
  -4   1  -2 14706.6 928.028   8
  -4   1  -3 41743.7 1679.98   2
  -4   1  -4 13627.5 979.541   2
  -4   1  -5 10285.3 879.385   2
  -4   1  -6 108606. 2955.69   2
  -4   1  -7 851.537 269.303   2
  -4   1  -8 53176.2 2194.89   2
   4  -1   9 34514.9 2719.59  20
   4  -1   9 30720.1 1642.56  16
   4  -1  10 388.223 346.257  20
   4  -1  10 228.701 235.455  14
   4  -1  11 3212.97 914.479  20
   4  -1  11 3037.52 694.811  14
   4  -1  12 490.225 358.524  20
   4  -1  13 2062.47 635.751  20
   4  -1  14 333.252 148.489  20
   4  -1  14 1259.37 225.598  10
   4  -1  15 4523.70 372.645  10
   4  -1  16 2689.82 234.859  10
  -4   0  13 3145.87 295.839  13
  -4   0  12 1180.39 233.467  13
  -4   0  11 81.7460 104.924  13
  -4   0  10 1112.45 274.728  13
  -4   0   9 1757.71 377.300  13
  -4   0   8 29498.0 1906.61  12
  -4   0   8 28390.7 1372.73  13
  -4   0   7 234106. 5383.52  12
  -4   0   7 221341. 3735.79  13
  -4   0   6 165844. 4265.43   8
  -4   0   5 51897.1 2269.64   8
  -4   0   4 6844.90 780.085   8
  -4   0   3 5679.50 718.999   8
   4   0  -2 474.807 143.964   6
  -4   0   2 655.133 224.531   8
  -4   0   1 1527.48 332.736   8
   4   0  -1 1237.58 224.229   6
   4   0   0 20458.5 903.507   6
  -4   0   0 22208.4 1195.81   8
  -4   0  -1 8260.45 692.122   8
   4   0   1 7302.73 548.996   6
   4   0   2 342216. 4088.64   6
  -4   0  -2 326784. 4374.26   8
   4   0   3 17629.6 881.918   6
  -4   0  -3 18674.5 1001.54   2
   4   0   4 143447. 2703.44   6
  -4   0  -4 167303. 3212.86   2
  -4   0  -5 36424.1 1627.68   2
  -4   0  -6 9238.47 862.133   2
  -4   0  -7 797.639 277.479   2
  -4   0  -8 21303.9 1437.63   2
  -4   0  -9 4625.15 689.734   2
   4   0  10 12632.8 1631.16  20
   4   0  10 12160.9 1311.79  14
   4   0  11 11304.2 1563.82  20
   4   0  12 3928.40 913.014  20
   4   0  13 1817.78 578.627  20
   4   0  14 3986.95 417.445  10
   4   0  15 317.873 116.390  10
   4   0  16-107.763 116.968  21
   4   0  16 55.1311 59.8622  10
  -4  -1  12 14468.7 765.710  13
  -4  -1  11 3338.62 429.476  13
  -4  -1  10 11122.2 850.235  13
  -4  -1   9 7638.08 735.403  13
  -4  -1   8 7109.17 684.977  13
  -4  -1   7 3344.48 724.416   9
  -4  -1   7 3103.87 567.915   8
  -4  -1   7 3888.05 478.750  13
  -4  -1   6 26650.3 1995.85   9
  -4  -1   6 24757.3 1598.38   8
  -4  -1   5 32265.9 1815.82   8
  -4  -1   4 3010.34 524.082   8
  -4  -1   3 98508.4 2781.30   8
   4   1  -2 84432.8 1924.66   6
  -4  -1   2 76293.2 2273.92   8
   4   1  -1 1438.75 254.892   6
  -4  -1   1 1310.88 286.989   8
   4   1   0 58531.3 1577.45   6
  -4  -1   0 56394.4 1762.85   8
   4   1   1 3780.58 406.798   6
  -4  -1  -1 3665.78 429.977   8
   4   1   2 720.414 174.441   6
  -4  -1  -2 762.888 181.536   8
   4   1   3 3430.44 379.874   6
  -4  -1  -3 4278.65 479.217   2
   4   1   4 8670.26 619.931   6
  -4  -1  -4 10032.3 768.656   2
   4   1   5 3206.67 388.399   6
  -4  -1  -5 3940.79 520.524   2
   4   1   6 62676.8 1767.72   6
  -4  -1  -6 79730.5 2421.94   2
  -4  -1  -7 36695.2 1723.69   2
  -4  -1  -8 719.728 267.796   2
  -4  -1  -9 3434.06 594.472   2
   4   1  10 1686.69 591.849  20
  -4  -1 -10 2843.63 541.898   2
   4   1  11 1191.59 585.735  20
   4   1  12 261.521 230.993  20
   4   1  13 191.486 232.733  20
   4   1  13 169.384 119.132  10
   4   1  14 2983.28 361.916  10
   4   1  15 4420.05 828.370  21
   4   1  15 6125.05 472.054  10
   4   1  16 6021.26 403.610  10
  -4  -2  12 362.605 127.193  13
  -4  -2  11 128.138 85.1781  13
  -4  -2  10 2896.93 413.918  13
  -4  -2   9 158069. 3597.70  14
  -4  -2   9 121075. 2863.07  13
  -4  -2   8 176066. 3917.06  14
  -4  -2   8 139170. 3044.63  13
  -4  -2   7 11594.5 1435.26   9
  -4  -2   7 13875.7 918.149  13
  -4  -2   6-195.596 113.132  13
  -4  -2   6 149.355 117.223   9
  -4  -2   5 1817.53 497.420   9
  -4  -2   5 2084.99 445.189   8
  -4  -2   4 49473.0 2374.70   9
  -4  -2   4 58607.7 2259.74   8
  -4  -2   3 7795.31 768.354   8
   4   2  -3 8345.04 716.853   6
  -4  -2   2 8116.71 752.128   8
   4   2  -2 9485.60 724.057   6
   4   2  -1 421.882 157.036   6
  -4  -2   1 346.724 157.590   8
   4   2   0 244038. 3733.58   6
  -4  -2   0 227763. 3646.79   8
   4   2   1 10914.9 746.620   6
  -4  -2  -1 10150.2 686.805   8
   4   2   2 46064.9 1500.33   6
   4   2   2 46347.9 1417.17   5
   4   2   3 17676.7 893.711   6
  -4  -2  -3 19409.5 948.721   2
   4   2   4 45118.5 1430.40   6
  -4  -2  -4 49294.8 1677.37   2
   4   2   5 28146.5 1119.75   6
  -4  -2  -5 36095.0 1506.40   2
   4   2   6 1412.17 255.688   6
  -4  -2  -6 1788.36 362.215   2
   4   2   7 21005.4 999.116   6
  -4  -2  -7 27117.3 1483.03   2
  -4  -2  -8 97104.3 3045.11   2
  -4  -2  -9 31299.7 1732.71   2
   4   2  10 435.280 304.963  20
  -4  -2 -10 534.198 246.885   2
   4   2  11 2212.13 668.049  20
   4   2  12 3369.61 838.105  20
   4   2  12 4240.00 419.989  10
   4   2  13 7013.33 1252.48  21
   4   2  13 7944.18 581.831  10
   4   2  14 859.428 436.678  21
   4   2  14 1697.81 239.921  10
   4   2  15-154.640 181.950  21
   4   2  15 35.9214 82.8277  10
  -4  -3  11 2503.97 381.824  14
  -4  -3  10 226.897 117.910  13
  -4  -3  10 253.488 159.623  14
  -4  -3   9 10373.4 942.309  14
  -4  -3   9 6767.89 605.095  13
  -4  -3   8 34603.5 1744.62  14
  -4  -3   8 23242.2 1157.03  13
  -4  -3   7 1703.32 314.126  13
  -4  -3   7 1962.32 449.022  14
  -4  -3   7 1543.12 529.694   9
  -4  -3   6 31520.8 2226.94   9
  -4  -3   6 44810.0 2077.42  14
  -4  -3   5 56016.2 2923.72   9
  -4  -3   4 208.046 220.128   9
   4   3  -4 344.578 155.696   7
   4   3  -3 39009.6 1626.34   7
   4   3  -2 20719.2 1159.99   7
   4   3  -1 26165.2 1281.19   7
   4   3   0 11726.1 834.806   7
   4   3   1 839.098 202.610   5
   4   3   1 558.724 188.459   7
   4   3   2 1321.22 266.173   5
   4   3   2 1292.60 269.117   6
   4   3   3 23116.4 1137.47   6
   4   3   3 21738.4 1129.24   5
   4   3   4 96578.2 2262.80   6
  -4  -3  -4 94622.2 2365.29   2
   4   3   4 99524.6 2462.79   5
  -4  -3  -5 2027.39 367.116   2
   4   3   5 1897.76 298.114   6
   4   3   5 2145.27 383.037   5
  -4  -3  -6 23118.2 1308.56   2
   4   3   6 17691.0 902.913   6
  -4  -3  -7 46435.3 1978.62   2
  -4  -3  -8 50541.5 2153.07   2
  -4  -3  -9 993.148 329.896   2
   4   3  10 5673.13 1153.21  21
   4   3  10 4077.94 927.623  20
   4   3  11 216.971 338.822  21
  -4  -3 -11 260.984 148.134  17
   4   3  12 198.285 267.426  21
   4   3  13 4454.12 1009.35  21
   4   3  14 1258.68 496.968  21
   4   3  15-51.4525 126.420  21
   4   3  16-136.514 263.442  23
  -4  -4  11 67836.7 1914.96  14
  -4  -4  10 87279.7 2575.61  14
  -4  -4   9 43561.5 1926.57  14
  -4  -4   8 4694.10 670.499  14
  -4  -4   7 92.2360 141.963  14
  -4  -4   6 32095.1 1710.87  14
  -4  -4   6 32619.8 1535.90  25
  -4  -4   5 15921.5 1071.71  25
  -4  -4   5 17254.0 1228.23  14
   4   4  -4 20690.0 1273.69   7
   4   4  -3 39981.1 1764.73   7
   4   4  -2 113887. 2904.98   7
   4   4  -1 46603.0 1812.77   7
   4   4   0 135761. 3079.08   7
   4   4   1 7474.33 666.075   5
   4   4   1 7454.89 696.957   7
   4   4   2 9017.76 761.401   5
   4   4   2 8609.16 745.515   7
   4   4   3 132.292 112.350   5
   4   4   4 1148.72 268.564   6
   4   4   4 1112.15 290.356   5
   4   4   5 60593.8 1829.00   6
   4   4   5 63820.5 2218.36   5
   4   4   6 172015. 3780.41   5
  -4  -4  -6 164400. 3576.29   2
   4   4   7 39492.2 1867.77   5
  -4  -4  -7 37765.0 1809.94   2
  -4  -4  -8 21772.9 1431.77   2
  -4  -4  -9 46017.5 2200.41   2
  -4  -4  -9 39051.7 1767.01  17
   4   4  10 568.670 348.557  21
  -4  -4 -10 501.908 233.608  17
   4   4  11 141.960 212.731  21
   4   4  12 81.1292 178.786  21
   4   4  13 335.646 269.318  21
   4   4  14 1131.75 420.309  21
   4   4  14 4515.81 462.879  23
   4   4  15 26379.0 1166.91  23
   4   4  16 13515.2 730.729  23
  -4  -5  10 1941.96 360.402  14
  -4  -5   9 440.180 203.465  14
  -4  -5   8 6793.99 762.698  14
  -4  -5   7 17386.1 1234.37  14
  -4  -5   6 2317.37 463.308  14
  -4  -5   6 2605.82 455.004  25
  -4  -5   5 5861.43 722.750  14
  -4  -5   5 6881.38 727.684  25
  -4  -5   4 7971.90 829.117  14
  -4  -5   4 8245.78 797.654  25
  -4  -5   3 7519.32 744.884  25
  -4  -5   3 7451.52 784.925  14
   4   5  -2 7183.91 766.516   7
   4   5  -1 260.212 159.254   7
   4   5   0 2266.72 414.828   7
   4   5   1 2187.95 399.984   5
   4   5   1 2513.60 427.901   7
   4   5   2 53340.1 2039.39   5
   4   5   2 54625.1 1965.94   7
   4   5   3 17823.0 1203.87   5
   4   5   3 19106.0 1129.79   7
   4   5   4 981.997 296.506   5
   4   5   5 10048.5 940.886   5
   4   5   6 34677.6 1773.29   5
  -4  -5  -7 236.526 180.832   2
   4   5   7 233.089 156.038   5
   4   5   8 47979.9 3039.20  21
  -4  -5  -8 22136.2 1419.97  17
   4   5   9 583.985 355.477  21
  -4  -5  -9 474.573 215.867  17
   4   5  10 37.0807 142.926  21
   4   5  11 39966.6 2767.28  21
   4   5  11 20738.3 1172.67  23
   4   5  12 11291.4 910.951  15
   4   5  12 10189.4 798.273  23
   4   5  13 3545.97 471.997  15
   4   5  13 2858.29 439.771  23
   4   5  14 10940.1 714.184  15
   4   5  14 11612.7 799.167  23
   4   5  15 2421.30 448.330  23
  -4  -6   9 2021.39 334.725  14
  -4  -6   8 2324.83 400.545  14
  -4  -6   7 72.4206 103.395  14
  -4  -6   6 13915.1 1066.73  14
  -4  -6   5 2351.12 445.403  14
  -4  -6   4 7221.16 760.143  25
  -4  -6   4 6187.60 706.621  14
  -4  -6   3 19729.5 1288.01  17
  -4  -6   3 23317.8 1358.58  25
  -4  -6   3 20072.8 1263.25  14
  -4  -6   2 29304.7 1574.74  17
  -4  -6   2 31124.4 1538.12  25
  -4  -6   2 29598.0 1474.05  14
  -4  -6   1 1294.37 327.337  17
  -4  -6   1 1755.96 367.794  25
  -4  -6   0 18811.3 1251.46  17
  -4  -6   0 17642.8 1101.68  25
   4   6   1 5602.47 697.007   5
  -4  -6  -1 6558.78 647.194  25
  -4  -6  -1 7046.04 771.907  17
   4   6   1 5921.99 676.550   7
   4   6   2 22168.6 1410.24   5
   4   6   2 24543.2 1375.67   7
   4   6   3 55559.1 2270.50   5
   4   6   3 54796.0 2003.14   7
   4   6   4 36322.7 1863.92   5
   4   6   4 34252.0 1443.33  15
  -4  -6  -5 3902.44 594.143  17
   4   6   5 3049.19 453.639  15
  -4  -6  -6 3851.23 608.530  17
   4   6   6 3333.89 485.281  15
  -4  -6  -7 2767.49 516.509  17
   4   6   7 2764.49 458.465  15
  -4  -6  -8 1471.36 364.110  17
   4   6   8 1215.32 318.039  15
   4   6   9 2962.33 493.995  15
   4   6  10 208.401 135.558  15
   4   6  11 315.796 157.202  15
   4   6  12 5639.13 611.407  15
   4   6  13 16485.0 941.940  15
   4   6  13 16872.7 980.059  23
   4   6  14 8175.27 550.930  15
   4   6  14 10125.1 679.855  23
  -4  -7   8 39.3889 44.1943  14
  -4  -7   7 998.016 232.749  14
  -4  -7   6 404.160 243.186  11
  -4  -7   6 374.546 157.270  14
  -4  -7   5 1062.68 271.029  14
  -4  -7   4 9055.82 828.005  17
  -4  -7   4 7146.37 697.723  14
  -4  -7   3 9011.02 863.658  17
  -4  -7   2 20694.4 1355.45  17
  -4  -7   2 21313.9 1283.19  25
  -4  -7   1 10103.3 870.132  25
  -4  -7   1 10301.1 974.353  17
  -4  -7   0 19272.7 1335.92  17
  -4  -7   0 20633.7 1202.29  25
  -4  -7  -1 7.37923 103.166  17
  -4  -7  -1 69.3119 81.0516  25
  -4  -7  -2 1746.89 399.579  17
  -4  -7  -3 7079.52 790.643  17
  -4  -7  -4 18320.1 1261.18  17
   4   7   4 16751.7 1060.10  15
  -4  -7  -5 10793.0 954.199  17
   4   7   5 9577.81 828.620  15
  -4  -7  -6 48936.3 2018.65  17
   4   7   6 44326.3 1832.94  15
  -4  -7  -7 39767.1 1734.57  17
   4   7   7 33929.8 1620.93  15
  -4  -7  -8 33543.6 1556.82  17
   4   7   8 30590.6 1532.84  15
   4   7   9 12981.6 985.984  15
   4   7  10 3071.01 474.036  15
   4   7  11 212.921 144.622  15
   4   7  12 5436.78 533.131  15
   4   7  13 113.837 88.9979  15
  -4  -8   6 305.367 162.094  11
  -4  -8   5 17547.4 1184.43  11
  -4  -8   4 11762.4 1068.73  11
  -4  -8   3 34289.5 1557.04  17
  -4  -8   2 12068.3 967.562  17
  -4  -8   1 1077.29 301.445  17
  -4  -8   0 2843.53 494.326  17
  -4  -8  -1 91239.5 2827.24  17
  -4  -8  -2 76533.3 2562.23  17
  -4  -8  -3 2758.50 486.035  17
  -4  -8  -4 8879.39 853.148  17
  -4  -8  -5 584.841 219.301  17
   4   8   5 439.960 181.042  15
  -4  -8  -6 15950.0 1051.97  17
   4   8   6 13584.2 956.099  15
  -4  -8  -7 6227.13 617.241  17
   4   8   7 5124.03 586.855  15
   4   8   8 12469.6 892.655  15
   4   8   9 190.452 116.852  15
   4   8  10 21837.9 1082.49  15
   4   8  11 37290.0 1311.74  15
   4   8  12 5818.46 443.039  15
  -4  -9   3 4888.86 589.193  11
  -4  -9   2 3672.82 545.619  11
  -4  -9   2 2770.71 378.400  17
  -4  -9   1 3770.34 566.187  11
  -4  -9   1 3174.74 435.549  17
  -4  -9   0 10301.6 802.411  17
  -4  -9  -1 316.402 156.980  17
   4   9   2 16754.4 1025.30  19
  -4  -9  -2 18025.0 1081.33  17
   4   9   3 1300.10 321.852  19
  -4  -9  -3 1167.65 276.478  17
  -4  -9  -4 28709.6 1289.37  17
  -4  -9  -5 15042.2 894.022  17
  -4  -9  -6 19521.6 935.278  17
   4   9   8 13241.6 916.831  19
   4   9   8 9510.40 640.286  15
   4   9   9 4301.73 471.662  19
  -5   7  -1 12611.4 650.470  27
  -5   7  -2 58359.4 1408.15  27
  -5   6   5 1437.01 349.512  18
  -5   6   4 3805.02 630.596  18
  -5   6   3 5903.58 834.845  18
  -5   6   2 1041.80 225.539  27
  -5   6   2 933.937 367.176  18
  -5   6   1 2483.56 383.853  27
  -5   6   0 8315.84 737.520  27
  -5   6  -1 1821.30 361.479  27
  -5   6  -2 5306.74 600.596  27
   5  -6   3 1016.74 239.964  16
  -5   6  -3 1233.87 281.611  27
  -5   6  -4 16820.5 982.070  27
   5  -6   4 14318.8 885.154  16
  -5   6  -5 125.504 87.4268  27
   5  -6   5-39.3306 64.7721  16
   5  -6   6 4240.28 447.311  16
  -5   6  -6 4698.69 408.285  27
   5  -6   7 763.596 177.751  16
  -5   5   7 321.679 188.847  18
  -5   5   6 2703.90 586.693  18
  -5   5   5 13896.1 1416.93  18
  -5   5   4 6068.68 993.176  18
  -5   5   4 4864.62 427.283  13
  -5   5   3 727.600 174.687  13
  -5   5   3 1238.44 473.089  18
  -5   5   2 1728.24 282.195  13
  -5   5   2 2077.45 390.404  27
  -5   5   1 11521.2 976.348  27
  -5   5   0 65411.3 2412.54  27
  -5   5  -1 51460.8 2161.47  27
  -5   5  -2 3005.12 530.360  27
   5  -5   3 7404.33 750.337  16
  -5   5  -3 7272.40 794.372  27
   5  -5   4 7402.98 753.526  16
  -5   5  -4 7700.35 797.697  27
   5  -5   5 10614.8 895.393  16
  -5   5  -5 11181.0 905.290  27
  -5   5  -6 89.8667 85.4701  27
   5  -5   6 72.3503 91.7219  16
   5  -5   7-2.89224 128.618  20
   5  -5   7 258.833 146.672  16
   5  -5   8 1023.97 395.639  20
   5  -5   8 1084.99 266.088  16
   5  -5   9 14487.1 1333.26  20
   5  -5   9 15330.2 891.541  16
   5  -5  10 2516.98 500.624  20
  -5   4   8 41112.4 1088.48  13
  -5   4   7 338.338 124.158  13
  -5   4   7 189.714 169.473  18
  -5   4   6 16983.1 1713.38  18
  -5   4   6 15468.3 824.547  13
  -5   4   5 4798.76 713.398  12
  -5   4   5 4385.76 903.858  18
  -5   4   5 4124.39 478.130  13
  -5   4   4 82.9671 96.0183  13
  -5   4   4-16.5422 152.456  12
  -5   4   4 294.874 306.052  18
  -5   4   3 545.904 216.530  13
  -5   4   3 583.746 362.746  18
  -5   4   2 26.7817 62.1446  27
  -5   4   1 2968.04 528.336  27
  -5   4   0 261.183 170.905  27
  -5   4  -1 6983.42 827.655  27
  -5   4  -2 7354.58 847.461  27
  -5   4  -3 2787.37 512.743  27
   5  -4   4 11203.2 975.179  16
  -5   4  -4 9926.18 953.475  27
   5  -4   5 641.836 246.563  16
  -5   4  -5 793.822 266.823  27
   5  -4   6 112.524 261.239  20
   5  -4   6-11.7390 58.1325  16
  -5   4  -6-101.812 98.6153  27
   5  -4   7-7.88714 136.185  20
   5  -4   7 286.755 156.276  16
  -5   4  -7 315.266 145.140  27
   5  -4   8 6454.03 1168.62  20
   5  -4   8 8208.38 809.396  16
   5  -4   9 2735.50 733.862  20
   5  -4   9 2785.02 454.992  16
   5  -4  10 4750.69 894.164  20
   5  -4  11 959.840 383.877  20
   5  -4  12 344.311 176.870  20
  -5   3   9 679.680 163.926  13
  -5   3   8 10.6136 88.7200  13
  -5   3   7 9816.11 1099.89  12
  -5   3   7 10111.8 1385.99  18
  -5   3   7 10788.7 735.881  13
  -5   3   6 1995.19 505.023  12
  -5   3   6 2124.80 659.840  18
  -5   3   6 2710.55 404.680  13
  -5   3   5 358.912 189.243  13
  -5   3   5 0.39553 162.922  12
  -5   3   5 521.976 317.501  18
  -5   3   4 5144.44 589.470  13
  -5   3   4 3367.44 652.900  12
  -5   3   4 5067.34 1034.42  18
  -5   3   3 7873.16 968.806  12
  -5   3   3 9450.24 1395.09  18
  -5   3   2 92308.3 2832.06  27
  -5   3   2 109152. 3981.39   8
  -5   3   1 145185. 3694.39  27
  -5   3   1 173001. 4995.49   8
  -5   3   0 10893.8 1010.78  27
  -5   3   0 14676.0 1409.89   8
  -5   3  -1 28.4705 67.5514  27
  -5   3  -1-31.5324 117.262   8
  -5   3  -2 2520.36 484.614  27
  -5   3  -2 2615.79 546.077   8
  -5   3  -3 26413.1 1548.01  27
  -5   3  -4 2849.98 498.915  27
   5  -3   5 2526.98 457.284  16
  -5   3  -5 2652.70 478.250  27
  -5   3  -6 2214.53 423.109  27
   5  -3   6 2271.30 447.643  16
   5  -3   7 13703.1 1812.55  20
   5  -3   7 14823.4 1143.21  16
  -5   3  -7 17481.5 1109.63  27
   5  -3   8 4719.27 1040.13  20
   5  -3   8 6459.81 762.314  16
   5  -3   9 2415.48 756.991  20
   5  -3   9 3115.66 521.892  16
   5  -3  10 1929.89 671.017  20
   5  -3  11 430.786 347.614  20
   5  -3  12 2998.33 699.283  20
   5  -3  13 805.454 310.877  20
   5  -3  13 731.275 129.784  10
  -5   2  10 42211.3 1283.71  13
  -5   2   9 911.815 208.632  13
  -5   2   8 25732.0 1203.97  13
  -5   2   7 21099.1 1711.59  12
  -5   2   7 22280.3 2128.88  18
  -5   2   7 22209.8 1154.83  13
  -5   2   6 3058.95 661.930  12
  -5   2   6 3186.51 834.655  18
  -5   2   6 4166.30 513.584  13
  -5   2   5 1581.00 502.246  12
  -5   2   5 2078.85 661.198  18
  -5   2   5 1714.07 372.502  13
  -5   2   4 2993.61 453.631  13
  -5   2   4 1742.69 491.205  12
  -5   2   4 3710.15 853.412  18
  -5   2   4 2609.28 596.348   8
  -5   2   3-274.371 194.801  12
  -5   2   3 148.565 199.089  18
  -5   2   3 95.6218 142.455   8
  -5   2   2 659.677 276.639  12
  -5   2   2 649.114 315.899   8
  -5   2   1 7393.76 774.466  27
  -5   2   1 8841.72 1063.56   8
  -5   2   0 7284.79 947.680   8
  -5   2  -1 28297.5 1478.63   4
  -5   2  -1 26925.6 1745.19   8
  -5   2  -2 68512.8 2311.22   4
  -5   2  -2 61140.6 2550.58   8
  -5   2  -4 2126.70 455.261   2
  -5   2  -5 4760.97 607.549  27
  -5   2  -5 6792.42 820.306   2
   5  -2   6 2582.71 752.787  20
   5  -2   6 3256.86 501.935  16
  -5   2  -6 3499.99 502.941  27
   5  -2   7 3333.99 896.561  20
   5  -2   7 3569.84 545.049  16
   5  -2   8 5701.77 1178.92  20
   5  -2   8 6777.11 777.435  16
   5  -2   9 559.173 414.188  20
   5  -2   9 378.458 197.476  16
   5  -2  10 2598.22 789.949  20
   5  -2  11 11742.7 1633.93  20
   5  -2  12 208.997 256.230  20
   5  -2  13 1050.66 451.861  20
   5  -2  14 2624.12 533.412  20
   5  -2  14 3795.80 303.820  10
  -5   1  11 597.885 145.506  13
  -5   1  10-92.2174 120.431  13
  -5   1   9 23233.5 1160.60  13
  -5   1   8 628.668 214.696  13
  -5   1   7 1533.70 321.812  13
  -5   1   6 1735.03 501.420  12
  -5   1   6 2055.58 665.883  18
  -5   1   6 1633.74 345.137  13
  -5   1   5 2955.86 658.964  12
  -5   1   5 2325.73 675.397  18
  -5   1   5 2513.04 555.518   8
  -5   1   5 2353.23 392.899  13
  -5   1   4 137060. 3020.28  13
  -5   1   4 126324. 4131.77  12
  -5   1   4 132136. 4125.80   8
  -5   1   3 74334.2 3019.60  12
  -5   1   3 75239.1 3489.36  18
  -5   1   3 74531.0 3071.10   8
  -5   1   2 10163.1 1102.01   8
  -5   1   1 10391.1 1073.91   8
  -5   1   0 42161.7 2103.29   8
  -5   1  -1 56876.1 2354.14   8
  -5   1  -2 2305.53 448.760   8
  -5   1  -3 11493.3 956.971   2
  -5   1  -4 3687.37 556.078   2
  -5   1  -5 48164.7 2141.77   2
  -5   1  -6 37.4471 86.2063   2
   5  -1   7 1594.28 621.826  20
  -5   1  -7 2534.91 522.196   2
   5  -1   7 1213.31 314.397  16
   5  -1   8-172.802 262.065  20
   5  -1   8 35.0581 62.4289  16
   5  -1   9 17695.0 2081.06  20
   5  -1  10 3523.72 946.601  20
   5  -1  11 575.439 364.876  20
   5  -1  12 21173.2 2130.52  20
   5  -1  13 30839.3 2336.46  20
   5  -1  14 7272.84 992.640  20
   5  -1  14 9215.41 539.807  10
   5  -1  15 238.932 69.2307  10
  -5   0  11 9314.46 580.081  13
  -5   0  10 37149.4 1381.34  13
  -5   0   9 3705.83 476.300  13
  -5   0   8 32.8028 85.5397  13
  -5   0   7 2185.05 374.273  13
  -5   0   6 511.207 197.338  13
  -5   0   5 4832.54 939.381  18
  -5   0   5 4537.52 738.228   8
  -5   0   5 5122.94 576.831  13
  -5   0   4 389.169 159.459  13
  -5   0   4 717.499 349.712  18
  -5   0   4 176.830 156.325   8
  -5   0   3 2218.31 478.419   8
  -5   0   2 29233.2 1728.48   8
   5   0  -1 49968.4 1613.20   6
  -5   0   1 56721.2 2379.89   8
  -5   0   0 9585.49 916.052   8
   5   0   0 8572.74 682.409   6
   5   0   1 6722.30 617.089   6
  -5   0  -1 6804.08 741.205   8
   5   0   2 109.183 60.2474   6
   5   0   3 1599.74 316.271   6
  -5   0  -4 1577.45 350.447   2
  -5   0  -5 23026.8 1401.80   2
  -5   0  -6 4688.14 646.240   2
  -5   0  -7 40012.8 1958.29   2
   5   0   8 617.253 392.394  20
  -5   0  -8 618.358 256.912   2
   5   0   9 1483.33 594.641  20
   5   0  10 8006.43 1411.14  20
   5   0  11 357.200 347.916  20
   5   0  12 13684.1 1768.81  20
   5   0  13 12708.0 1588.66  20
   5   0  14 1194.78 437.717  20
   5   0  14 990.711 184.768  10
   5   0  15 3844.35 736.234  21
   5   0  15 11245.7 537.503  10
  -5  -1  11 35144.9 1085.27  13
  -5  -1  10 11321.8 730.215  13
  -5  -1   9 6993.04 633.963  13
  -5  -1   8 35706.1 1508.18  13
  -5  -1   7 336.344 148.166  13
  -5  -1   6 66152.8 2021.43  13
  -5  -1   5 63538.4 2695.49   8
  -5  -1   5 75275.0 2086.04  13
  -5  -1   4 8842.50 1005.35   8
  -5  -1   4 8939.27 688.294  13
  -5  -1   3 8188.56 915.944   8
  -5  -1   2 90276.2 2922.05   8
   5   1  -1 81592.8 2158.39   6
  -5  -1   1 74056.9 2511.63   8
   5   1   0 3373.63 436.824   6
  -5  -1   0 3206.90 485.830   8
   5   1   1 118121. 2627.55   6
  -5  -1  -1 105555. 2597.53   8
   5   1   2 35439.2 1436.29   6
   5   1   3 805.588 220.265   6
   5   1   4 34304.0 1460.90   6
   5   1   5 1538.69 306.337   6
  -5  -1  -5 2309.38 423.572   2
   5   1   6 12009.0 886.850   6
  -5  -1  -6 15069.7 1172.64   2
  -5  -1  -7 98092.6 3192.93   2
  -5  -1  -8 8793.95 978.553   2
   5   1   9 20346.4 2137.65  20
   5   1  10 78099.4 4306.48  20
   5   1  11 45447.9 3283.16  20
   5   1  12 1529.36 625.709  20
   5   1  13 8059.04 1269.66  20
   5   1  13 9511.75 612.998  10
   5   1  14-99.8425 148.401  20
   5   1  14 100.778 81.0720  10
   5   1  15 2559.23 624.374  21
   5   1  15 4906.15 359.132  10
   5   1  16 113.221 129.500  21
  -5  -2  11 389.686 108.866  13
  -5  -2  10 1041.17 215.655  13
  -5  -2   9 5942.65 552.860  13
  -5  -2   8 695.022 215.443  13
  -5  -2   8 509.327 213.909  14
  -5  -2   7 1894.21 428.059  14
  -5  -2   7 2088.31 441.827  24
  -5  -2   7 1956.84 350.845  13
  -5  -2   6 4318.02 493.164  13
  -5  -2   5 527.446 168.448  13
  -5  -2   4 14840.3 1255.57   8
  -5  -2   3 46626.5 2135.25   8
   5   2  -2 18567.6 1098.71   6
  -5  -2   2 14545.0 1128.65   8
   5   2  -1 12510.4 893.175   6
  -5  -2   1 10042.0 902.928   8
   5   2   0 3201.10 451.027   6
  -5  -2   0 2585.94 431.846   8
   5   2   1 29924.6 1374.57   6
  -5  -2  -1 24328.3 1212.19   8
   5   2   2 21371.5 1149.85   6
   5   2   3 38828.2 1526.75   6
   5   2   4 53982.4 1820.43   6
   5   2   5 23096.2 1190.92   6
   5   2   6 420.267 171.831   6
  -5  -2  -6 241.248 101.299   2
   5   2   7 15429.1 988.116   6
  -5  -2  -7 18380.1 1327.75   2
  -5  -2  -8 12710.3 1142.42   2
   5   2   9 1698.39 613.806  20
   5   2  10 11375.4 1631.22  20
   5   2  11 21020.8 2235.31  20
   5   2  12 6107.09 1184.24  20
   5   2  13 40950.6 3046.26  21
   5   2  13 51345.1 1344.34  10
   5   2  14 4291.57 904.255  21
   5   2  14 6516.18 447.776  10
   5   2  15 3560.00 717.036  21
   5   2  15 5963.51 384.141  10
   5   2  16 168.267 129.802  21
  -5  -3  10 18892.2 950.294  14
  -5  -3   9 4230.27 553.201  14
  -5  -3   8 43062.3 1820.81  14
  -5  -3   7 59715.5 2254.93  14
  -5  -3   6 28772.4 1627.82  14
  -5  -3   5 12818.4 947.422  25
  -5  -3   5 10744.9 1003.45  24
  -5  -3   4 36360.2 1562.50  25
  -5  -3   4 27362.4 1611.05  24
   5   3  -3 2856.26 497.926   6
  -5  -3   3 2598.02 489.884  24
   5   3  -2 10950.1 948.703   6
   5   3  -1 44133.3 1873.88   6
   5   3   0 12816.1 992.660   6
   5   3   1 511.496 198.513   6
   5   3   2 45802.6 1819.42   6
   5   3   3 10473.2 833.177   6
   5   3   4 49899.3 1796.98   6
   5   3   5 36421.5 1498.10   6
   5   3   6 284.119 142.071   6
   5   3   7 30534.3 1363.12   6
  -5  -3  -7 39055.7 1909.38   2
   5   3   8 69022.0 3823.61  21
   5   3   8 54681.6 3556.61  20
   5   3   9 35963.2 2863.43  21
   5   3   9 31486.8 2715.41  20
   5   3  10 2620.93 851.617  21
   5   3  11 4862.49 1097.94  21
  -5  -3 -11 7386.26 805.550  17
   5   3  12 94.3086 195.927  21
  -5  -3 -12-38.9853 88.6247  17
   5   3  13 6004.91 1122.71  21
  -5  -3 -13 9986.89 834.011  17
   5   3  14 185.287 212.359  21
   5   3  15 2870.31 625.933  21
   5   3  16 194.642 140.887  21
  -5  -4  10 265.813 108.107  14
  -5  -4   9 3218.92 457.552  14
  -5  -4   8 753.690 277.315  14
  -5  -4   7 13160.5 1063.31  14
  -5  -4   6 50041.5 2140.63  14
  -5  -4   6 47904.0 1807.89  25
  -5  -4   5 27509.5 1607.63  14
  -5  -4   5 25215.8 1371.47  25
  -5  -4   4 7299.55 743.653  25
  -5  -4   3 898.133 267.214  25
  -5  -4   3 783.378 256.994  24
  -5  -4   2 2479.48 449.955  22
  -5  -4   2 2984.18 516.780  24
   5   4  -1 5283.97 684.464   6
   5   4   0 8124.67 851.797   6
   5   4   1 107220. 3039.36   6
   5   4   2 28360.1 1523.01   6
   5   4   3 152310. 3495.37   6
   5   4   4 240.334 143.851   6
   5   4   4 458.746 212.354   5
   5   4   5 1528.82 315.699   6
   5   4   5 1791.00 417.431   5
   5   4   6 2512.82 385.378   6
   5   4   7 1154.78 509.753  21
  -5  -4  -7 733.116 284.003  17
   5   4   8-286.314 281.497  21
  -5  -4  -8 28.7650 88.5502  17
   5   4   9 2300.20 786.716  21
  -5  -4  -9 2044.01 447.610  17
   5   4  10 13501.5 1764.41  21
  -5  -4 -10 16540.0 1231.82  17
   5   4  11 28347.5 2527.26  21
  -5  -4 -11 41024.8 1881.91  17
   5   4  12 20775.8 2108.72  21
  -5  -4 -12 31335.5 1564.45  17
   5   4  13 9186.93 1311.72  21
   5   4  14 357.508 227.101  21
   5   4  14 433.961 271.357  23
   5   4  15 4322.55 395.734  23
  -5  -5   9 5303.19 541.112  14
  -5  -5   8 432.346 196.159  14
  -5  -5   7 440.841 205.536  14
  -5  -5   6 70626.2 2440.44  14
  -5  -5   6 64474.7 2063.70  25
  -5  -5   5 3483.70 557.378  14
  -5  -5   5 3434.71 510.816  25
  -5  -5   4 23370.5 1435.53  14
  -5  -5   4 21981.9 1318.92  25
  -5  -5   3 26740.0 1526.54  14
  -5  -5   3 24631.0 1394.89  25
  -5  -5   2 28.8842 98.4567  25
  -5  -5   1 17909.6 1121.23  25
  -5  -5   0 1337.43 328.606  17
  -5  -5   0 1540.51 322.687  25
  -5  -5  -1 4723.58 595.860  22
  -5  -5  -1 5113.17 665.089  17
  -5  -5  -2 79599.3 2417.15  22
  -5  -5  -2 84660.5 2810.63  17
  -5  -5  -3 162427. 3449.90  22
   5   5   3 156552. 3695.79   6
  -5  -5  -3 160303. 3997.74  17
  -5  -5  -4 10466.8 853.839  22
   5   5   4 10022.3 886.866   6
   5   5   4 9506.30 922.015   5
  -5  -5  -4 9525.56 981.439  17
  -5  -5  -5 66313.5 2113.40  22
   5   5   5 60955.4 2427.78   5
  -5  -5  -5 61338.2 2517.26  17
  -5  -5  -6 162056. 4122.53  17
   5   5   7 80184.9 3953.23  21
  -5  -5  -7 37964.6 1995.05  17
   5   5   8 1030.96 479.406  21
  -5  -5  -8 509.953 239.994  17
   5   5   9 1260.87 538.830  21
  -5  -5  -9 647.714 251.511  17
   5   5  10 11593.1 1536.15  21
  -5  -5 -10 6633.01 784.417  17
   5   5  11 10370.8 1419.66  21
  -5  -5 -11 5665.07 683.383  17
   5   5  12 20682.0 1990.68  21
   5   5  13 26212.7 1228.17  15
   5   5  14 3728.84 400.170  15
  -5  -6   8 50351.2 1566.33  14
  -5  -6   7 38264.3 1530.29  14
  -5  -6   6 2114.02 392.782  14
  -5  -6   5 7626.90 759.362  14
  -5  -6   4 4192.82 572.515  14
  -5  -6   4 3689.82 537.410  25
  -5  -6   3 6618.04 719.423  14
  -5  -6   3 6931.62 731.688  25
  -5  -6   2 161.450 112.234  25
  -5  -6   2 96.0993 101.781  14
  -5  -6   1 69937.1 2297.36  14
  -5  -6   1 69448.4 2325.93  25
  -5  -6   0 32876.1 1668.94  17
  -5  -6   0 28960.5 1471.89  25
  -5  -6  -1 241665. 4709.82  17
  -5  -6  -1 223941. 4054.87  25
  -5  -6  -2 9150.95 918.040  17
  -5  -6  -2 9451.08 775.673  25
  -5  -6  -3 11075.4 1024.08  17
  -5  -6  -3 11566.8 824.460  25
  -5  -6  -4 73398.3 2708.76  17
  -5  -6  -5 11010.9 1065.32  17
   5   6   5 9912.02 784.846  15
  -5  -6  -6 367.178 208.352  17
   5   6   6 362.278 179.864  15
  -5  -6  -7 7707.53 883.004  17
   5   6   7 6814.70 699.271  15
  -5  -6  -8 12378.1 1083.94  17
   5   6   8 11132.4 908.378  15
  -5  -6  -9 46625.4 2050.68  17
   5   6   9 51804.0 1952.06  15
  -5  -6 -10 38523.4 1742.78  17
   5   6  10 44648.4 1785.05  15
   5   6  11 29834.0 1418.89  15
   5   6  12 263.662 134.706  15
   5   6  13 25830.6 1113.96  15
   5   6  14 1705.35 244.168  15
  -5  -7   6 6826.35 563.981  14
  -5  -7   5 5399.89 694.346  11
  -5  -7   5 13703.6 862.271  14
  -5  -7   4 5870.95 591.136  14
  -5  -7   3 3846.53 494.805  14
  -5  -7   2 2461.44 437.955  17
  -5  -7   2 2354.82 411.061  25
  -5  -7   1 5745.39 685.508  17
  -5  -7   1 5589.51 617.318  25
  -5  -7   0 53438.3 2133.45  17
  -5  -7   0 52215.9 1891.00  25
  -5  -7  -1 84228.9 2729.65  17
  -5  -7  -1 85501.7 2390.74  25
  -5  -7  -2 5689.00 707.097  17
  -5  -7  -2 5712.82 594.988  25
  -5  -7  -3 39533.9 1866.51  17
  -5  -7  -4 175148. 3987.93  17
  -5  -7  -5 70764.9 2490.96  17
  -5  -7  -6 158.209 143.753  17
   5   7   6 226.367 130.356  15
  -5  -7  -7 16031.4 1165.67  17
   5   7   7 15248.1 1023.97  15
  -5  -7  -8 495.134 204.354  17
   5   7   8 405.016 171.633  15
  -5  -7  -9 5833.95 631.784  17
   5   7   9 6279.84 648.799  15
   5   7  10 10807.4 819.600  15
   5   7  11 14675.6 902.669  15
   5   7  12 7902.10 606.412  15
   5   7  13 34444.7 1078.66  15
  -5  -8   4 353.173 160.341  11
  -5  -8   3 5976.37 527.542  17
  -5  -8   2 11184.3 813.015  17
  -5  -8   1 94788.1 2528.95  17
  -5  -8   0 755.590 244.058  17
  -5  -8  -1 22381.0 1303.85  17
  -5  -8  -2 27525.4 1467.73  17
  -5  -8  -3 2308.98 435.044  17
  -5  -8  -4 948.801 272.989  17
  -5  -8  -5 218.432 135.287  17
  -5  -8  -6 1362.67 304.906  17
   5   8   6 1282.59 261.645  15
  -5  -8  -7 29259.6 1323.71  17
   5   8   7 26441.7 1205.15  15
  -5  -8  -8 12615.5 807.296  17
   5   8   8 12202.1 803.225  15
   5   8   9 5922.33 545.601  15
   5   8  10 173.891 95.0739  15
   5   8  11 2473.08 304.413  15
  -5  -9   2 20203.9 1048.25  11
  -5  -9   1 72813.4 2144.62  11
  -5  -9   1 41673.3 1337.05  17
  -5  -9   0 2129.32 323.418  17
  -5  -9  -1 51204.6 1640.12  17
  -5  -9  -2 59324.4 1784.76  17
   5   9   3 3763.95 436.092  19
  -5  -9  -3 4030.53 467.062  17
  -5  -9  -4 2341.61 354.789  17
  -5  -9  -5 2475.67 348.366  17
  -5  -9  -6-17.1119 47.4669  17
  -5  -9  -7 915.141 181.827  17
   5   9   9 1610.14 265.830  19
  -6   5   3 17136.2 1271.85  18
  -6   5   3 11403.0 507.203  13
  -6   5   2 493.477 120.464  13
  -6   5   2 895.157 327.853  18
  -6   5   1-61.9601 64.9806  27
  -6   5   1-24.9628 50.8092  13
  -6   5   0 3814.23 369.902  13
  -6   5   0 5540.41 809.407  18
  -6   5   0 5153.50 553.417  27
  -6   5  -1 450.812 221.095  18
  -6   5  -1 398.653 163.453  27
  -6   5  -2 26.7066 60.0084  27
  -6   5  -3 4668.57 536.215  27
  -6   5  -4 479.965 171.679  27
  -6   5  -5 9884.12 696.966  27
  -6   5  -6 15878.4 783.433  27
  -6   4   5 1016.01 176.480  13
  -6   4   5 1064.33 357.139  18
  -6   4   4 27095.7 1904.46  18
  -6   4   4 26303.4 1008.14  13
  -6   4   3 1394.94 455.569  18
  -6   4   3 1418.24 255.160  13
  -6   4   2 4835.34 489.075  13
  -6   4   2 5008.96 871.091  18
  -6   4   1 8541.31 1168.20  18
  -6   4   1 7691.10 741.012  27
  -6   4   0 1421.12 481.762  18
  -6   4   0 1465.04 345.424  27
  -6   4  -1 22308.7 1376.35  27
  -6   4  -2 6235.96 740.239  27
  -6   4  -3 27.6601 80.0988  27
  -6   4  -4 1431.14 340.434  27
  -6   4  -5 25957.6 1367.82  27
  -6   4  -6 19307.0 1093.42  27
   6  -4   7 9.82870 51.0155  16
  -6   4  -7 127.812 86.6426  27
   6  -4   9 3219.80 595.742  20
  -6   3   7 30.1337 71.1897  13
  -6   3   6 16198.4 809.279  13
  -6   3   5 14191.7 1489.14  18
  -6   3   5 13908.7 822.851  13
  -6   3   4 561.320 183.665  13
  -6   3   4 556.092 310.394  18
  -6   3   3 807.198 232.621  13
  -6   3   3 913.340 414.684  18
  -6   3   2 3647.58 477.996  13
  -6   3   2 3049.05 731.572  18
  -6   3   1 933.396 403.361  18
  -6   3   1 863.506 278.415  27
  -6   3   0 2386.10 640.545  18
  -6   3   0 2221.63 446.079  27
  -6   3  -1 565.352 227.084  27
  -6   3  -2 10226.9 997.992  27
  -6   3  -3 23018.0 1483.48  27
  -6   3  -4 10082.3 957.209  27
  -6   3  -5 1131.85 318.299  27
  -6   3  -6 263.861 147.973  27
  -6   3  -7 377.767 172.625  27
   6  -3   7 298.138 278.597  20
   6  -3   8 1337.03 505.660  20
   6  -3   8 1680.13 338.776  16
   6  -3   9-34.4219 156.960  20
   6  -3  10 3935.20 786.269  20
   6  -3  11 4719.27 774.466  20
   6  -3  12 13605.4 1123.10  20
  -6   2   8 1302.25 221.226  13
  -6   2   7 11511.0 719.394  13
  -6   2   6 58470.8 1751.27  13
  -6   2   5 620.143 211.561  13
  -6   2   5 626.006 332.585  18
  -6   2   4 38819.2 2650.11  18
  -6   2   4 39000.2 1594.50  13
  -6   2   3 27230.3 1359.97  13
  -6   2   3 30742.7 2352.18  18
  -6   2   2 7637.00 1158.09  18
  -6   2   1 25248.5 1488.56  27
  -6   2   0 475.474 217.339  27
  -6   2  -1-15.5628 73.4672  27
  -6   2  -2 16488.6 1267.41  27
  -6   2  -3 64807.8 2492.36  27
  -6   2  -4 5324.26 704.372  27
  -6   2  -5 14098.0 1114.02  27
  -6   2  -6 29935.6 1571.10  27
   6  -2   7 3297.16 865.005  20
  -6   2  -7 5104.03 612.981  27
   6  -2   8 1208.95 517.231  20
   6  -2   9 1962.30 694.838  20
   6  -2  10 543.145 342.446  20
   6  -2  11 1638.79 568.364  20
   6  -2  12 23500.4 1847.05  20
   6  -2  13 1118.91 362.505  20
   6  -2  13 1364.68 175.775  10
  -6   1   9 3095.09 404.380  24
  -6   1   9 3752.51 354.772  13
  -6   1   8 35982.2 1280.55  13
  -6   1   7 8218.84 659.855  13
  -6   1   6 3646.41 464.356  13
  -6   1   5 255.463 139.089  13
  -6   1   5 267.509 234.362  18
  -6   1   4 10660.4 1387.77  18
  -6   1   4 10781.4 855.792  13
  -6   1   3 2668.56 433.663  13
  -6   1   2 2453.99 430.150  13
  -6   1   1 2963.00 501.244  27
  -6   1   1 3109.77 515.068  22
  -6   1   1 3230.42 641.713   8
  -6   1   0 18660.4 1496.10   8
  -6   1   0 17474.9 1248.44  27
  -6   1  -1 72785.4 2578.58  27
  -6   1  -2 15443.2 1182.97  27
  -6   1  -3 291.426 172.005  27
  -6   1  -4 1762.26 392.028  27
  -6   1  -5 6955.72 769.602  27
   6  -1   6 14662.2 1799.47  20
  -6   1  -6 21033.7 1305.10  27
   6  -1   7 371.486 335.395  20
  -6   1  -7 177.195 121.741  27
   6  -1   8 24494.1 2446.71  20
   6  -1   9 18369.7 2128.03  20
   6  -1  10 39141.0 3018.37  20
   6  -1  11 785.649 421.543  20
   6  -1  12-78.2194 282.450  20
   6  -1  13 5438.55 885.505  20
   6  -1  14-1.65005 136.508  21
   6  -1  14 159.424 184.397  20
   6  -1  14 330.252 80.3167  10
  -6   0   9 6866.12 618.569  24
  -6   0   9 7755.46 539.244  13
  -6   0   8 18993.3 1234.18  24
  -6   0   8 21720.7 1021.40  13
  -6   0   7 43.1254 77.3770  13
  -6   0   6 46615.9 1674.99  13
  -6   0   5 46476.5 1710.73  13
  -6   0   4 2691.31 427.910  13
  -6   0   3 1530.31 326.093  13
  -6   0   2 5766.97 612.703  13
  -6   0   2 4963.22 752.317   8
  -6   0   1 62.7828 92.7290  22
  -6   0   1-13.9794 88.9955   8
  -6   0   0 3111.31 511.654  22
  -6   0   0 2678.15 502.411   8
  -6   0   0 2927.76 492.951  27
  -6   0  -1 48567.9 2044.49  22
  -6   0  -1 49681.3 2051.29  27
  -6   0  -2 160.309 88.7279  27
  -6   0  -3 25126.7 1447.93  27
  -6   0  -4 31436.1 1598.02  27
  -6   0  -5 6586.23 726.387  27
  -6   0  -6 13611.5 1023.19  27
   6   0   6 9916.82 1502.12  20
  -6   0  -7 13618.6 997.372  22
   6   0   7 10770.0 1613.88  20
   6   0   8 1448.77 651.156  20
   6   0   9 19861.5 2231.47  20
   6   0  10 29252.2 2676.00  20
   6   0  11 2975.21 852.228  20
   6   0  12 14486.6 1748.64  20
   6   0  13 20388.6 1853.70  20
   6   0  14 2625.97 634.210  21
   6   0  14 5663.60 354.918  10
  -6  -1   9 1305.82 242.262  24
  -6  -1   9 1619.70 243.217  13
  -6  -1   8 26.7617 93.4715  13
  -6  -1   8 90.4338 94.4412  24
  -6  -1   7 4543.76 659.300  24
  -6  -1   7 4588.98 501.891  13
  -6  -1   6 6031.82 585.137  13
  -6  -1   5 528.837 174.726  13
  -6  -1   4 7096.56 643.015  13
  -6  -1   3 672.389 204.036  13
  -6  -1   2 15453.8 1311.93   8
  -6  -1   2 16043.8 950.906  13
  -6  -1   1 54630.6 1696.19  13
  -6  -1   1 54748.2 2123.20  22
  -6  -1   1 50638.1 2294.07   8
  -6  -1   0 18907.3 1249.65  22
  -6  -1   0 17361.1 1267.05   8
  -6  -1  -1 14743.9 1091.06  22
   6   1   1 15019.8 1049.35   6
  -6  -1  -2 3290.38 512.471  22
   6   1   2 3361.37 491.470   6
  -6  -1  -3-43.2894 78.7365  22
   6   1   3 56.5099 81.2259   6
  -6  -1  -4 1566.89 344.410  22
   6   1   4 2108.16 403.619   6
  -6  -1  -5 5350.04 631.957  22
  -6  -1  -6 42041.9 1743.41  22
   6   1   6 29306.3 2580.99  20
  -6  -1  -7 38286.6 1623.82  22
   6   1   7 27651.0 2596.82  20
   6   1   8 71518.7 4242.39  20
   6   1   9 380.403 351.258  20
   6   1  10 696.850 454.804  20
   6   1  11 3789.77 958.864  20
   6   1  12 570.294 385.137  20
   6   1  13 768.894 432.030  21
   6   1  13 910.822 443.843  20
   6   1  13 1431.12 201.709  10
   6   1  14-15.2887 201.462  21
   6   1  14 129.725 67.4134  10
  -6  -1 -14 30.1552 77.8772  17
   6   1  15 868.260 301.996  21
  -6  -2   8 29238.7 1066.62  13
  -6  -2   7 1931.01 352.976  14
  -6  -2   7 2421.99 445.305  24
  -6  -2   7 2382.25 338.662  13
  -6  -2   6 8097.47 809.388  14
  -6  -2   6 8662.39 934.252  24
  -6  -2   6 8031.87 641.813  13
  -6  -2   5 2981.59 576.524  24
  -6  -2   5 2813.22 386.509  13
  -6  -2   4 5024.71 756.660  24
  -6  -2   3 1069.65 346.525  24
  -6  -2   2 3187.52 496.267  22
  -6  -2   2 2820.19 529.868   8
  -6  -2   2 4042.57 689.799  24
  -6  -2   1 44920.5 1915.83  22
  -6  -2   1 35500.5 1811.80   8
  -6  -2   0 11386.3 968.714  22
  -6  -2   0 15592.2 1286.85  24
  -6  -2  -1 29584.7 1559.67  22
   6   2   1 30823.2 1530.91   6
  -6  -2  -2 364.327 165.552  22
   6   2   2 396.363 182.708   6
  -6  -2  -2 542.454 250.381  24
  -6  -2  -3 826.542 258.177  22
   6   2   3 892.050 263.132   6
  -6  -2  -4 141.820 109.639  22
   6   2   4 23.2107 71.6385   6
  -6  -2  -5 337.488 167.632  22
   6   2   5 325.369 148.994   6
  -6  -2  -5 226.640 160.855  17
  -6  -2  -6-26.3918 87.0487  22
   6   2   6-296.103 307.491  20
  -6  -2  -7 15240.0 1014.81  22
   6   2   7 9746.65 1572.45  20
   6   2   8 36726.9 2915.21  21
   6   2   8 44136.6 3368.52  20
   6   2   9 1478.15 621.665  21
   6   2   9 1636.93 686.935  20
   6   2  10 16442.2 2019.56  21
   6   2  10 17377.5 2138.06  20
   6   2  11 18088.9 2120.76  21
   6   2  11 17911.3 2103.55  20
   6   2  12 3303.32 863.745  21
   6   2  13 1932.43 611.094  21
  -6  -2 -13 3119.16 472.732  17
   6   2  14 176.742 217.131  21
  -6  -2 -14 114.897 89.7939  17
   6   2  15-104.208 147.406  21
  -6  -3   8 4858.00 500.084  14
  -6  -3   7 5800.36 673.322  14
  -6  -3   6 42900.1 1834.28  14
  -6  -3   6 32280.3 1614.52  24
  -6  -3   5 1375.02 394.239  14
  -6  -3   5 1597.44 390.731  24
  -6  -3   4 77484.6 2328.34  25
  -6  -3   4 64066.1 2594.98  24
  -6  -3   3 134042. 3860.01  24
  -6  -3   2 5919.59 683.453  22
  -6  -3   2 7696.24 917.078  24
  -6  -3   1-28.0424 72.9338  22
  -6  -3   1 308.099 182.419  24
  -6  -3   0 1386.83 339.731  22
  -6  -3   0 1388.18 380.724  24
  -6  -3  -1 333.747 172.262  22
  -6  -3  -1 516.549 228.509  24
  -6  -3  -2 1336.30 330.577  22
  -6  -3  -2 2015.83 442.031  24
  -6  -3  -3 23956.6 1376.21  22
  -6  -3  -3 22013.6 1448.72  17
  -6  -3  -4 29204.7 1502.79  22
  -6  -3  -4 26789.0 1618.81  17
  -6  -3  -5 6861.32 716.149  22
  -6  -3  -5 6898.14 825.726  17
  -6  -3  -6 235240. 4236.14  22
  -6  -3  -6 232892. 4983.94  17
   6   3   7 2425.95 757.607  21
  -6  -3  -7 3848.35 622.215  17
   6   3   8 13096.8 1697.57  21
  -6  -3  -8 18554.4 1380.42  17
   6   3   9 8963.68 1421.60  21
  -6  -3  -9 12892.9 1152.59  17
   6   3  10 2.81805 229.974  21
  -6  -3 -10 24.8878 96.4474  17
   6   3  11 3583.26 909.424  21
  -6  -3 -11 4947.92 670.213  17
   6   3  12 3574.75 870.124  21
  -6  -3 -12 5346.96 657.974  17
   6   3  13 1299.49 533.527  21
  -6  -3 -13 2472.54 405.314  17
   6   3  14 437.966 304.577  21
  -6  -3 -14 1877.76 304.649  17
   6   3  15 170.452 167.575  21
   6   3  15 7913.29 462.747  15
  -6  -4   8 375.141 169.265  14
  -6  -4   7 1133.62 274.076  14
  -6  -4   6 11419.4 921.993  14
  -6  -4   5 5519.88 711.698  14
  -6  -4   5 5104.96 577.952  25
  -6  -4   4 165.414 95.6212  25
  -6  -4   4 181.429 158.540  24
  -6  -4   3 93111.9 2661.24  25
  -6  -4   3 79107.3 2733.24  24
  -6  -4   2 2117.33 416.860  22
  -6  -4   2 3313.42 501.470  25
  -6  -4   2 2099.01 454.617  24
  -6  -4   1 64592.1 2334.75  22
  -6  -4   1 77168.6 2814.09  24
  -6  -4   0 18277.8 1250.41  22
  -6  -4   0 21939.7 1479.82  24
  -6  -4  -1 3699.70 572.816  22
  -6  -4  -2 3318.13 531.089  22
  -6  -4  -2 2786.91 523.752  17
  -6  -4  -3 105.142 99.1538  22
  -6  -4  -3 98.7274 152.301  17
  -6  -4  -4 1385.57 337.708  22
  -6  -4  -4 996.145 339.454  17
  -6  -4  -5 9912.96 878.983  22
  -6  -4  -5 8324.88 948.194  17
  -6  -4  -6 131375. 3149.13  22
  -6  -4  -6 112033. 3535.43  17
   6   4   7 2686.49 744.848  21
  -6  -4  -7 2493.63 520.806  17
   6   4   8 58490.8 3541.43  21
  -6  -4  -8 67952.7 2701.12  17
   6   4   9 45818.5 3190.67  21
  -6  -4  -9 61329.2 2526.43  17
   6   4  10 1726.97 640.979  21
  -6  -4 -10 2561.60 494.396  17
   6   4  11 145.181 222.588  21
  -6  -4 -11 312.980 184.055  17
   6   4  12 518.313 373.933  21
  -6  -4 -12 974.490 270.255  17
   6   4  13 107.627 232.907  21
  -6  -4 -13 246.445 127.942  17
   6   4  14 322.693 238.220  21
  -6  -5   7 534.215 191.665  14
  -6  -5   6 50280.6 1783.05  14
  -6  -5   5 83419.7 2492.44  14
  -6  -5   5 77256.0 2109.11  25
  -6  -5   4 1117.32 279.321  25
  -6  -5   4 932.396 283.565  14
  -6  -5   3 927.931 270.114  25
  -6  -5   3 818.318 271.065  14
  -6  -5   2 466.954 197.197  25
  -6  -5   1 12216.5 961.845  25
  -6  -5   0 450.378 194.552  25
  -6  -5  -1 355.474 197.730  22
  -6  -5  -1 176.613 137.364  17
  -6  -5  -2 4579.96 606.867  22
  -6  -5  -2 4291.55 638.024  17
  -6  -5  -3 34974.6 1663.54  22
  -6  -5  -3 30915.1 1807.76  17
  -6  -5  -4 151822. 3492.91  22
  -6  -5  -4 136221. 3912.29  17
  -6  -5  -5 1612.11 355.848  22
  -6  -5  -5 1503.44 413.520  17
  -6  -5  -6 20090.8 1182.63  22
  -6  -5  -6 18299.6 1440.21  17
  -6  -5  -7 12916.9 1198.85  17
  -6  -5  -8 226.163 144.479  17
  -6  -5  -9 1110.73 345.002  17
   6   5  10 5182.87 1013.44  21
  -6  -5 -10 5245.59 705.631  17
  -6  -5 -11 2532.37 458.256  17
  -6  -5 -12 4271.66 526.586  17
   6   5  13 5594.82 522.165  15
   6   5  14 12.3465 53.4229  15
  -6  -6   6 346.856 138.755  14
  -6  -6   5 20573.9 1072.10  14
  -6  -6   4 25700.5 1263.89  14
  -6  -6   4 22982.0 1147.37  25
  -6  -6   3 49722.3 1825.95  14
  -6  -6   3 44684.3 1711.70  25
  -6  -6   2 2539.65 419.982  14
  -6  -6   2 2352.92 406.134  25
  -6  -6   1 2170.00 395.835  14
  -6  -6   1 1749.64 354.373  25
  -6  -6   0 154.323 133.566  17
  -6  -6   0 212.611 130.703  25
  -6  -6  -1 244.040 186.150  17
  -6  -6  -1 343.531 140.935  25
  -6  -6  -2 30532.3 1637.27  17
  -6  -6  -2 29077.4 1406.22  25
  -6  -6  -3 7586.96 838.752  17
  -6  -6  -3 7732.03 694.512  25
  -6  -6  -4 19376.6 1392.67  17
  -6  -6  -5 5889.88 766.685  17
  -6  -6  -6 36144.6 1901.29  17
  -6  -6  -7 9169.04 968.433  17
   6   6   7 9523.40 776.724  15
  -6  -6  -8 90.1239 117.185  17
   6   6   8 229.233 143.269  15
  -6  -6  -9 182.648 144.034  17
   6   6   9 220.760 128.976  15
  -6  -6 -10 2016.18 393.240  17
   6   6  10 2653.90 404.356  15
  -6  -6 -11 4144.51 508.596  17
   6   6  11 7038.62 628.741  15
  -6  -6 -12 2192.37 304.969  17
   6   6  12 7006.94 579.838  15
   6   6  13 3750.16 381.667  15
  -6  -7   4 8329.18 573.158  14
  -6  -7   3 971.153 212.523  14
  -6  -7   2 17256.4 897.095  14
  -6  -7   2 16194.4 943.207  25
  -6  -7   1 7343.34 651.203  25
  -6  -7   0 5.79538 59.7331  17
  -6  -7   0 46.5246 92.9881  25
  -6  -7  -1 8068.53 775.313  17
  -6  -7  -1 7358.28 657.093  25
  -6  -7  -2 69871.1 2340.42  17
  -6  -7  -2 64897.3 1924.35  25
  -6  -7  -3 5512.19 664.398  17
  -6  -7  -3 4956.10 508.031  25
  -6  -7  -4 7354.41 784.140  17
  -6  -7  -5 1237.60 330.589  17
  -6  -7  -6 119.623 138.588  17
  -6  -7  -7 16051.6 1106.48  17
   6   7   7 15182.0 909.744  15
  -6  -7  -8 34351.2 1541.41  17
   6   7   8 35516.9 1403.95  15
  -6  -7  -9 1104.70 269.169  17
   6   7   9 1304.73 264.280  15
  -6  -7 -10 1464.53 285.872  17
   6   7  10 2372.57 340.611  15
  -6  -7 -11 3427.35 358.451  17
   6   7  11 8686.98 613.267  15
   6   7  12 1274.06 209.741  15
  -6  -8   1 6498.29 519.431  17
  -6  -8   0 2539.33 361.197  17
  -6  -8  -1 3300.69 441.061  17
  -6  -8  -2 21966.7 1171.19  17
  -6  -8  -3 6375.35 637.514  17
  -6  -8  -4 35383.4 1501.74  17
  -6  -8  -5 85.6282 87.3961  17
  -6  -8  -6 13205.7 892.614  17
  -6  -8  -7 166.107 109.242  17
  -6  -8  -8 1845.94 308.217  17
   6   8   8 2235.78 281.954  15
  -6  -8  -9 1703.69 259.777  17
   6   8   9 2200.44 272.520  15
   6   8  10 20774.1 793.287  15
  -6  -9  -2 7173.47 513.123  17
  -6  -9  -3 363.731 128.558  17
  -6  -9  -4 2627.87 318.523  17
  -6  -9  -5 5591.21 452.751  17
  -6  -9  -6 17128.8 748.584  17
  -7   4   1 0.09003 54.1294  13
  -7   4   0 7135.52 504.869  22
  -7   4   0 7014.15 473.273  13
  -7   4  -1 2556.45 301.232  13
  -7   4  -1 3001.86 367.895  22
  -7   4  -1 2721.11 366.095  27
  -7   4  -2 3443.36 417.970  22
  -7   4  -2 3168.85 405.883  27
  -7   4  -3 4066.39 463.607  22
  -7   4  -3 4365.29 480.508  27
  -7   4  -4 22.4958 52.2515  22
  -7   4  -4 36.1888 52.2520  27
  -7   4  -5 5020.77 478.405  22
  -7   4  -6 12944.4 697.057  22
  -7   3   4 30153.3 944.001  13
  -7   3   3 644.120 161.064  13
  -7   3   2 5483.09 479.632  13
  -7   3   1 26695.5 1116.66  13
  -7   3   0 3280.07 406.888  13
  -7   3   0 2899.33 424.211  22
  -7   3  -1 775.128 238.613  22
  -7   3  -1 541.024 209.650  27
  -7   3  -2 372.579 168.956  22
  -7   3  -2 429.805 175.728  27
  -7   3  -3 1138.28 285.861  27
  -7   3  -4 24.2327 79.8114  27
  -7   3  -5 3720.52 494.734  27
  -7   3  -6 12284.1 859.064  22
  -7   3  -6 14431.6 904.318  27
  -7   3  -7 9406.70 684.440  22
  -7   3  -8 12662.1 672.394  22
  -7   2   5 8209.49 690.739  24
  -7   2   5 9129.65 575.276  13
  -7   2   4 445.309 147.513  13
  -7   2   4 466.705 172.535  24
  -7   2   3 1926.40 374.906  24
  -7   2   3 1867.27 305.913  13
  -7   2   2 15318.9 1061.40  24
  -7   2   2 14800.9 897.225  13
  -7   2   1 1636.59 313.456  13
  -7   2   1 1873.95 352.387  22
  -7   2   0 6991.27 735.440  22
  -7   2  -1 11485.9 983.184  22
  -7   2  -1 11576.9 991.804  27
  -7   2  -2 1346.53 348.004  22
  -7   2  -2 1071.81 308.204  27
  -7   2  -3 1508.42 372.079  27
  -7   2  -4 15768.7 1161.50  27
  -7   2  -5 92.3703 116.524  27
  -7   2  -6 963.295 278.499  22
  -7   2  -6 937.729 257.934  27
  -7   2  -7 1544.40 320.316  22
  -7   2  -8 23.7514 58.6768  22
   7  -2   9 428.549 270.884  20
   7  -2  10 5090.51 785.944  20
  -7   1   6 17163.3 1060.48  24
  -7   1   6 21375.6 877.408  13
  -7   1   5 10173.7 908.730  24
  -7   1   5 15562.0 815.065  13
  -7   1   4 5182.29 686.996  24
  -7   1   4 9567.96 698.409  13
  -7   1   3 3146.06 559.267  24
  -7   1   3 6230.49 594.345  13
  -7   1   2 1193.96 280.925  13
  -7   1   2 922.342 303.515  24
  -7   1   1 806.158 249.174  13
  -7   1   1 805.075 256.726  22
  -7   1   1 655.769 255.906  24
  -7   1   0 1130.34 319.109  22
  -7   1  -1 2422.52 471.526  22
  -7   1  -2 288.225 148.583  22
  -7   1  -2 328.038 203.350  27
  -7   1  -3 1450.51 373.697  22
  -7   1  -3 788.587 267.716  27
  -7   1  -4 10257.0 972.875  22
  -7   1  -4 10304.8 968.608  27
  -7   1  -5 12581.7 1050.18  22
  -7   1  -5 13085.4 1068.42  27
  -7   1  -6 7461.06 782.811  22
  -7   1  -7 267.037 144.754  22
  -7   1  -8 3341.93 456.173  22
   7  -1   8 1652.92 572.482  20
   7  -1   9 3130.51 762.017  20
   7  -1  10 161.196 191.585  20
   7  -1  11 172.450 205.509  20
  -7   0   7 6023.32 567.936  24
  -7   0   6 258.686 112.948  13
  -7   0   6 294.867 152.197  24
  -7   0   5 11973.3 1048.01  24
  -7   0   5 14776.3 817.669  13
  -7   0   4 21769.8 1506.80  24
  -7   0   4 27397.5 1178.01  13
  -7   0   3 2395.95 531.795  24
  -7   0   3 3312.26 427.354  13
  -7   0   2 45484.4 2264.76  24
  -7   0   2 55976.4 1818.44  13
  -7   0   1 27158.4 1506.88  22
  -7   0   1 24263.8 1661.17  24
  -7   0   1 26921.2 1272.06  13
  -7   0   0 3222.90 452.789  13
  -7   0   0 3469.56 559.592  22
  -7   0   0 3684.45 622.557  24
  -7   0  -1 18008.3 1306.71  22
  -7   0  -1 20413.6 1418.46  24
  -7   0  -2 21425.9 1426.29  22
  -7   0  -3 1820.24 423.030  22
  -7   0  -4 2793.94 507.234  22
  -7   0  -5 5591.70 701.454  22
  -7   0  -6 10556.0 934.290  22
  -7   0  -7 25355.6 1386.40  22
   7   0   7 15101.9 1854.65  20
  -7   0  -8 11354.0 866.567  22
   7   0   8 6635.37 1227.49  20
   7   0   9 651.837 424.810  20
   7   0  10 1300.16 576.506  20
   7   0  11 17267.7 1636.41  21
   7   0  11 25777.4 2170.68  20
   7   0  12 3145.21 639.333  21
   7   0  13 21.6563 97.5728  21
  -7   0 -13 12.7613 61.1578  17
  -7  -1   7 17498.0 951.481  24
  -7  -1   6 16493.4 1119.23  24
  -7  -1   6 17923.5 818.354  13
  -7  -1   5 4915.75 684.173  24
  -7  -1   5 5039.53 467.407  13
  -7  -1   4 14148.5 1230.63  24
  -7  -1   4 14377.2 820.453  13
  -7  -1   3 2552.82 555.789  24
  -7  -1   3 2999.86 389.886  13
  -7  -1   2 8416.82 1003.44  24
  -7  -1   2 7814.93 637.820  13
  -7  -1   1 10744.8 958.024  22
  -7  -1   1 11040.6 1135.02  24
  -7  -1   1 9826.91 723.113  13
  -7  -1   0 7107.50 806.940  22
  -7  -1   0 7730.57 931.604  24
  -7  -1  -1 13516.5 1131.66  22
  -7  -1  -1 14621.2 1264.85  24
  -7  -1  -2 23743.9 1504.12  22
  -7  -1  -2 29095.8 1701.67  24
  -7  -1  -3 36799.5 1860.20  22
  -7  -1  -3 44102.5 2022.20  24
  -7  -1  -4 29228.4 1637.28  22
  -7  -1  -5 935.111 293.504  22
  -7  -1  -6 2042.88 416.944  22
  -7  -1  -6 2124.26 452.967  17
  -7  -1  -7 16562.3 1129.53  22
  -7  -1  -8 2578.91 416.678  22
   7   1   8 1205.58 604.652  20
   7   1   9 6580.50 1275.89  20
   7   1  10 2244.95 688.981  21
   7   1  10 2163.17 737.889  20
   7   1  11 6525.22 1054.92  21
   7   1  12 2180.38 568.614  21
  -7  -1 -12 3648.02 499.167  17
   7   1  13 7542.87 943.629  21
  -7  -1 -13 14034.4 854.147  17
  -7  -2   6 6126.21 639.121  24
  -7  -2   5 601.000 181.585  14
  -7  -2   5 5342.03 674.252  24
  -7  -2   4 30684.5 1749.54  24
  -7  -2   3 14131.6 1239.06  24
  -7  -2   2 5029.57 760.376  24
  -7  -2   1 23439.8 1409.39  22
  -7  -2   1 25832.9 1725.92  24
  -7  -2   0 26925.4 1562.91  22
  -7  -2   0 32870.9 1935.87  24
  -7  -2  -1 13182.5 1111.76  22
  -7  -2  -1 17832.3 1395.97  24
  -7  -2  -2 5213.04 699.557  22
  -7  -2  -2 6315.00 805.608  24
  -7  -2  -3 2232.92 458.190  22
  -7  -2  -3 3473.69 584.089  24
  -7  -2  -4 5115.40 679.649  22
  -7  -2  -5 21076.3 1352.17  22
  -7  -2  -6 9088.36 858.869  22
  -7  -2  -6 9313.58 979.640  17
  -7  -2  -7 2358.11 423.160  22
  -7  -2  -7 2116.31 465.975  17
  -7  -2  -8 3520.98 599.096  17
  -7  -2  -9 39412.7 2003.65  17
   7   2  10 4256.32 902.387  21
  -7  -2 -10 7454.80 839.318  17
   7   2  11 1371.45 510.213  21
  -7  -2 -11 2653.95 476.149  17
   7   2  12 2882.32 696.697  21
  -7  -2 -12 5868.15 646.413  17
   7   2  13 679.779 309.718  21
  -7  -2 -13 1972.16 334.986  17
   7   2  14-41.2049 95.4649  21
  -7  -3   6 2347.19 354.253  14
  -7  -3   5 4406.08 572.939  14
  -7  -3   5 8516.50 763.614  24
  -7  -3   4 179.967 125.566  14
  -7  -3   4 393.162 186.038  24
  -7  -3   3 1521.53 319.252  25
  -7  -3   3 1491.08 389.083  24
  -7  -3   2 17536.8 1119.46  22
  -7  -3   2 24078.9 1603.78  24
  -7  -3   1 409.262 185.001  22
  -7  -3   1 258.746 172.448  24
  -7  -3   0 4671.47 639.073  22
  -7  -3   0 6226.45 818.015  24
  -7  -3  -1 30152.0 1669.42  22
  -7  -3  -1 44775.5 2189.73  24
  -7  -3  -2 29161.1 1643.49  22
  -7  -3  -3 293.769 166.141  22
  -7  -3  -4 487.078 226.657  22
  -7  -3  -5 716.382 250.218  22
  -7  -3  -5 1054.91 350.263  17
  -7  -3  -6 845.839 262.904  22
  -7  -3  -6 1100.45 340.807  17
  -7  -3  -7 15435.7 1058.08  22
  -7  -3  -7 17123.7 1357.76  17
  -7  -3  -8 15.6652 167.263  17
   7   3   9 86.9267 217.137  21
  -7  -3  -9 124.503 94.2080  17
   7   3  10 4908.79 979.955  21
  -7  -3 -10 10811.1 1011.33  17
   7   3  11 5730.04 1028.08  21
  -7  -3 -11 15374.5 1125.91  17
   7   3  12 18.4631 138.129  21
  -7  -3 -12 66.6509 95.1466  17
   7   3  13 92.8820 144.491  21
  -7  -3 -13 3295.40 424.435  17
   7   3  14-111.636 126.025  21
  -7  -4   6 15525.6 814.216  14
  -7  -4   5 144.626 98.6538  14
  -7  -4   4 8800.05 793.854  14
  -7  -4   4 9371.43 704.417  25
  -7  -4   3 703.210 244.744  25
  -7  -4   2 572.032 212.999  25
  -7  -4   1 5847.57 671.981  22
  -7  -4   1 9668.10 838.079  25
  -7  -4   0 688.075 255.630  22
  -7  -4  -1 6418.99 752.994  22
  -7  -4  -2 16435.8 1201.01  22
  -7  -4  -3 48655.9 2086.24  22
  -7  -4  -4 4450.43 618.010  22
  -7  -4  -4 3613.07 621.871  17
  -7  -4  -5 6024.30 703.752  22
  -7  -4  -5 6812.40 863.899  17
  -7  -4  -6 10888.4 912.858  22
  -7  -4  -6 11618.4 1145.02  17
  -7  -4  -7 9169.80 794.931  22
  -7  -4  -7 10031.7 1068.69  17
  -7  -4  -8-93.0928 127.178  17
   7   4   9 1046.90 489.918  21
  -7  -4  -9 3750.28 621.106  17
   7   4  10 4578.54 892.438  21
  -7  -4 -10 19554.5 1334.63  17
   7   4  11 29.2762 143.899  21
  -7  -4 -11 554.340 215.601  17
   7   4  12 141.840 256.745  21
  -7  -4 -12 7062.73 679.611  17
  -7  -4 -13 6620.25 556.951  17
  -7  -5   5 1465.64 263.279  14
  -7  -5   4 48216.5 1633.12  14
  -7  -5   4 46149.2 1428.54  25
  -7  -5   3 568.686 192.860  25
  -7  -5   3 658.648 222.942  14
  -7  -5   2 3222.61 493.333  14
  -7  -5   2 2983.08 440.829  25
  -7  -5   1 42022.9 1730.55  25
  -7  -5   0 2227.31 391.433  25
  -7  -5  -1 16729.4 1072.12  25
  -7  -5  -2 275.680 184.830  22
  -7  -5  -3 9722.81 881.393  22
  -7  -5  -3 8965.20 897.719  17
  -7  -5  -4 809.102 256.492  22
  -7  -5  -4 600.894 264.647  17
  -7  -5  -5 17005.5 1121.95  22
  -7  -5  -5 16104.0 1274.59  17
  -7  -5  -6 118.290 116.789  22
  -7  -5  -6 97.5738 130.689  17
  -7  -5  -7 4848.74 704.960  17
  -7  -5  -8 18971.4 1376.48  17
  -7  -5  -9 2171.01 452.315  17
  -7  -5 -10 10682.0 925.375  17
  -7  -5 -11 3821.35 508.191  17
  -7  -5 -12 2957.25 385.514  17
   7   5  12 4445.53 439.561  15
   7   5  13 880.364 170.543  15
  -7  -6   4 2447.69 306.620  14
  -7  -6   3 6957.23 562.421  14
  -7  -6   3 6072.72 504.151  25
  -7  -6   2 109.041 96.2745  14
  -7  -6   2-0.46133 63.4975  25
  -7  -6   1 4085.87 474.486  14
  -7  -6   1 3805.23 464.542  25
  -7  -6   0 11502.5 817.015  14
  -7  -6   0 11619.1 834.623  25
  -7  -6  -1 81950.4 2263.54  25
  -7  -6  -2 20163.9 1188.98  17
  -7  -6  -2 20790.6 1118.42  25
  -7  -6  -3 9651.55 853.341  17
  -7  -6  -3 11548.1 808.154  25
  -7  -6  -4 2267.30 427.069  17
  -7  -6  -4 2264.91 363.467  25
  -7  -6  -5 9132.97 877.920  17
  -7  -6  -6 117.549 116.187  17
  -7  -6  -7 424.882 213.270  17
  -7  -6  -8 20638.4 1280.11  17
   7   6   8 24434.3 1072.25  15
  -7  -6  -9 3313.88 490.794  17
   7   6   9 4381.05 450.426  15
  -7  -6 -10 10195.3 779.424  17
   7   6  10 13960.6 785.656  15
  -7  -6 -11 5172.26 487.193  17
   7   6  11 10007.7 621.296  15
   7   6  12 3737.59 342.423  15
  -7  -7   1 2375.49 304.604  25
  -7  -7   0 111.271 88.5602  25
  -7  -7  -1 4807.18 457.583  25
  -7  -7  -2 868.020 248.239  17
  -7  -7  -2 976.312 209.469  25
  -7  -7  -3 3926.13 497.057  17
  -7  -7  -3 3921.01 400.551  25
  -7  -7  -4 24.5674 79.6944  17
  -7  -7  -5 500.581 192.749  17
  -7  -7  -6 8390.85 725.799  17
  -7  -7  -7 7858.41 689.098  17
  -7  -7  -8 1260.38 271.179  17
  -7  -7  -9 1760.94 299.644  17
   7   7   9 2778.22 296.487  15
  -7  -7 -10 434.344 136.606  17
  -7  -8  -2 284.512 110.313  17
  -7  -8  -3 975.514 203.856  17
  -7  -8  -4 86.9843 97.9792  17
  -7  -8  -5 72.5674 64.1699  17
  -7  -8  -6 11029.5 675.872  17
  -7  -8  -7 13279.6 701.222  17
  -8   2   1 6112.24 411.541  13
  -8   2   0 849.640 168.937  13
  -8   2  -1 10166.4 679.531  22
  -8   2  -1 9259.37 562.918  13
  -8   2  -2 8377.19 545.745  13
  -8   2  -2 9201.08 693.866  22
  -8   2  -3 1331.76 214.177  13
  -8   2  -3 1389.65 277.609  22
  -8   2  -4 1575.99 295.788  22
  -8   2  -5 11808.9 770.562  22
  -8   2  -6 1390.22 247.461  22
  -8   1   2 9367.78 538.748  13
  -8   1   1 13922.1 708.985  13
  -8   1   0 13196.0 832.315  22
  -8   1   0 11546.1 677.915  13
  -8   1  -1 24341.2 1239.39  22
  -8   1  -1 22746.9 962.371  13
  -8   1  -2 103.406 71.5503  13
  -8   1  -2 349.304 173.694  22
  -8   1  -3 14837.7 1019.79  22
  -8   1  -4 562.037 195.662  22
  -8   1  -5 270.327 142.876  22
  -8   1  -6 4107.78 496.245  22
  -8   1  -7 769.962 197.703  22
  -8   1  -8 824.738 172.070  22
  -8   0   3 10380.3 771.840  24
  -8   0   3 16573.3 673.809  13
  -8   0   2 1095.42 190.596  13
  -8   0   2 593.583 203.554  24
  -8   0   1 5995.81 640.069  24
  -8   0   1 8237.25 552.957  13
  -8   0   0 4865.43 561.526  22
  -8   0   0 4602.11 556.032  24
  -8   0   0 4236.22 411.381  13
  -8   0  -1 134.743 91.0553  13
  -8   0  -1 169.116 140.645  22
  -8   0  -2 9332.05 635.612  13
  -8   0  -2 12024.0 964.953  22
  -8   0  -3 33569.4 1638.94  22
  -8   0  -4 1344.68 333.471  22
  -8   0  -5 7.05238 72.6341  22
  -8   0  -6 12377.9 919.138  22
  -8   0  -7 2973.98 419.349  22
  -8   0  -8 112.650 87.1662  22
  -8   0  -9 43.3733 64.1792  17
  -8   0 -10 927.343 211.053  17
  -8  -1   4 6096.71 572.157  24
  -8  -1   3 5033.49 583.231  24
  -8  -1   2 4927.66 616.543  24
  -8  -1   1 5604.10 565.402  22
  -8  -1   1 4697.82 619.921  24
  -8  -1   0 1694.94 348.646  22
  -8  -1   0 1510.08 361.236  24
  -8  -1  -1 5120.38 633.217  22
  -8  -1  -1 5306.50 654.345  24
  -8  -1  -2 3361.49 529.639  22
  -8  -1  -3 873.660 280.247  22
  -8  -1  -4 9.23975 90.5461  22
  -8  -1  -5 1924.67 393.167  22
  -8  -1  -6 182.113 144.427  22
  -8  -1  -7 5305.18 580.992  22
  -8  -1  -8 19910.7 1013.73  22
  -8  -1  -8 16133.9 1070.14  17
  -8  -1  -9 1035.35 263.077  17
  -8  -1 -10 257.543 130.404  17
  -8  -1 -11 2491.39 350.451  17
  -8  -2   3 137.089 90.6463  14
  -8  -2   3 6616.78 667.206  24
  -8  -2   2 1589.87 271.493  25
  -8  -2   2 2509.02 443.899  24
  -8  -2   1 3146.50 425.885  22
  -8  -2   1 3516.57 546.987  24
  -8  -2   0 31204.2 1479.92  22
  -8  -2  -1 26878.4 1451.95  22
  -8  -2  -2 7599.92 792.536  22
  -8  -2  -3 7393.71 786.827  22
  -8  -2  -4 2125.54 416.021  22
  -8  -2  -5 3609.13 533.394  22
  -8  -2  -6-23.9025 82.5589  22
  -8  -2  -7 1140.99 272.654  22
  -8  -2  -7 1082.54 302.739  17
  -8  -2  -8 358.264 142.067  22
  -8  -2  -8 423.459 209.917  17
  -8  -2  -9 3924.54 544.510  17
  -8  -2 -10 2124.29 381.853  17
  -8  -2 -11 2726.09 392.581  17
  -8  -3   3 1004.52 234.398  14
  -8  -3   2 4171.52 445.742  25
  -8  -3   1 8703.56 685.308  22
  -8  -3   1 9971.97 746.810  25
  -8  -3   0 2811.68 430.999  22
  -8  -3  -1 184.654 131.591  22
  -8  -3  -2 7186.45 755.671  22
  -8  -3  -3 11260.0 949.301  22
  -8  -3  -4 2662.85 460.636  22
  -8  -3  -5 24309.1 1351.61  22
  -8  -3  -6 41759.3 1702.11  22
  -8  -3  -6 39681.6 1834.27  17
  -8  -3  -7 75.2140 88.4295  22
  -8  -3  -7-62.5423 108.397  17
  -8  -3  -8 3800.29 427.573  22
  -8  -3  -8 4681.86 630.414  17
  -8  -3  -9-29.3480 78.6767  17
  -8  -3 -10 606.477 207.394  17
  -8  -3 -11 4529.08 510.890  17
  -8  -3 -12 5061.19 465.977  17
  -8  -4   3-9.88674 68.2672  14
  -8  -4   2 3236.32 427.810  14
  -8  -4   2 8914.32 625.640  25
  -8  -4   1 16028.9 929.345  25
  -8  -4   0 1690.93 311.482  25
  -8  -4  -1 2580.70 419.377  22
  -8  -4  -1 4003.15 491.469  25
  -8  -4  -2 654.207 220.786  22
  -8  -4  -3 6981.42 715.793  22
  -8  -4  -4-10.9939 111.620  22
  -8  -4  -5 2249.54 393.730  22
  -8  -4  -6 2365.60 383.713  22
  -8  -4  -6 2158.86 413.248  17
  -8  -4  -7 2804.32 386.113  22
  -8  -4  -7 3166.93 511.798  17
  -8  -4  -8 5321.68 650.779  17
  -8  -4  -9 273.284 158.084  17
  -8  -4 -10 10787.1 831.113  17
  -8  -4 -11 9555.11 703.119  17
  -8  -5   2 70.0720 61.0661  25
  -8  -5   2-31.9623 70.9923  14
  -8  -5   1 1951.75 307.757  14
  -8  -5   1 2953.24 360.941  25
  -8  -5   0 7008.70 597.506  25
  -8  -5  -1 114.619 73.2865  25
  -8  -5  -2 26792.5 1195.89  25
  -8  -5  -3 10200.0 726.739  25
  -8  -5  -4 9923.07 700.523  25
  -8  -5  -5 574.752 193.553  17
  -8  -5  -5 914.141 213.286  25
  -8  -5  -6 836.475 248.310  17
  -8  -5  -6 822.884 188.172  25
  -8  -5  -7 692.343 227.231  17
  -8  -5  -8 806.735 235.403  17
  -8  -5  -9 752.045 218.943  17
  -8  -5 -10 117.626 107.268  17
   8   5  10 9.64131 52.8850  15
  -8  -6   0 491.467 139.673  25
  -8  -6  -1 1773.33 249.353  14
  -8  -6  -1 3595.52 381.670  25
  -8  -6  -2 12881.6 732.168  25
  -8  -6  -3 2118.57 297.571  25
  -8  -6  -4 2559.46 336.632  17
  -8  -6  -4 3238.80 343.998  25
  -8  -6  -5 14081.6 848.521  17
  -8  -6  -6 618.605 189.701  17
  -8  -6  -7 4250.55 473.746  17
  -8  -6  -8 10237.1 704.054  17
  -8  -6  -9 3717.47 389.004  17
  -9  -1  -2 7370.70 537.460  22
  -9  -1  -3 17942.3 890.274  22
  -9  -1  -4 397.941 138.226  22
  -9  -1  -5 10017.9 649.553  22
  -9  -1  -6 3434.80 356.124  22
  -9  -2  -2 2988.11 355.772  22
  -9  -2  -3 1686.58 280.084  22
  -9  -2  -4 714.811 193.417  22
  -9  -2  -5 17391.1 890.078  22
  -9  -2  -6 2482.52 314.375  22
  -9  -3  -2 19.4782 45.5259  22
  -9  -3  -2 34.1834 54.6605  25
  -9  -3  -3 4549.95 446.723  22
  -9  -3  -4 2769.39 352.880  22
  -9  -3  -5 9.23157 48.9667  22
  -9  -3  -6 57.3646 65.0664  22
  -9  -4  -2 342.779 116.689  25
  -9  -4  -3 10253.9 593.539  25
  -9  -4  -4 386.856 126.395  25
  -9  -4  -5 36949.0 1069.83  25
   0   0   0    0.00    0.00   0
;
_shelx_hkl_checksum              34399
loop_
_space_group_symop_operation_xyz
'x, y, z'
'-x, -y, -z'
loop_
_atom_site_label
_atom_site_type_symbol
_atom_site_fract_x
_atom_site_fract_y
_atom_site_fract_z
_atom_site_U_iso_or_equiv
_atom_site_adp_type
_atom_site_occupancy
_atom_site_site_symmetry_order
_atom_site_calc_flag
_atom_site_refinement_flags_posn
_atom_site_refinement_flags_adp
C1 C 0.9351(4) 0.1253(3) 0.3806(2) 0.0197(6) Uani 1 1 d . .
C2 C 0.7718(3) 0.1937(3) 0.4487(2) 0.0214(6) Uani 1 1 d . .
H2 H 0.6508 0.1789 0.4473 0.026 Uiso 1 1 calc R U
C3 C 0.7947(4) 0.2842(3) 0.5187(2) 0.0233(6) Uani 1 1 d . .
C4 C 0.9715(4) 0.3055(3) 0.5237(2) 0.0246(6) Uani 1 1 d . .
H4 H 0.9804 0.3673 0.5740 0.030 Uiso 1 1 calc R U
C5 C 1.1329(4) 0.2371(3) 0.4559(2) 0.0254(6) Uani 1 1 d . .
H5 H 1.2537 0.2512 0.4583 0.031 Uiso 1 1 calc R U
C6 C 1.1137(4) 0.1475(3) 0.3842(2) 0.0200(6) Uani 1 1 d . .
C7 C 1.2007(4) -0.0061(3) 0.2501(2) 0.0190(5) Uani 1 1 d . .
C8 C 1.4906(4) -0.0867(3) 0.1503(2) 0.0203(6) Uani 1 1 d . .
C9 C 1.6169(4) -0.1708(3) 0.0669(2) 0.0191(6) Uani 1 1 d . .
C10 C 1.8115(4) -0.1725(3) 0.0418(2) 0.0211(6) Uani 1 1 d . .
H10 H 1.8598 -0.1131 0.0791 0.025 Uiso 1 1 calc R U
C11 C 1.9329(4) -0.2574(3) -0.0349(2) 0.0229(6) Uani 1 1 d . .
H11 H 2.0639 -0.2570 -0.0496 0.028 Uiso 1 1 calc R U
C12 C 1.8657(4) -0.3467(3) -0.0932(2) 0.0212(6) Uani 1 1 d . .
C13 C 1.6678(4) -0.3430(3) -0.0675(2) 0.0230(6) Uani 1 1 d . .
H13 H 1.6180 -0.4014 -0.1046 0.028 Uiso 1 1 calc R U
C14 C 1.5488(4) -0.2574(3) 0.0089(2) 0.0206(6) Uani 1 1 d . .
H14 H 1.4173 -0.2558 0.0236 0.025 Uiso 1 1 calc R U
C15 C 1.9155(4) -0.5399(4) -0.2180(2) 0.0310(7) Uani 1 1 d . .
H15A H 1.8629 -0.6227 -0.1681 0.047 Uiso 1 1 calc R U
H15B H 2.0206 -0.5966 -0.2683 0.047 Uiso 1 1 calc R U
H15C H 1.8170 -0.4731 -0.2506 0.047 Uiso 1 1 calc R U
C16 C 2.1886(4) -0.4442(4) -0.1894(2) 0.0276(6) Uani 1 1 d . .
H16A H 2.2152 -0.3324 -0.2018 0.041 Uiso 1 1 calc R U
H16B H 2.2515 -0.5055 -0.2485 0.041 Uiso 1 1 calc R U
H16C H 2.2361 -0.5031 -0.1316 0.041 Uiso 1 1 calc R U
B1 B 1.4740(4) 0.0694(4) 0.2919(3) 0.0231(7) Uani 1 1 d . .
N1 N 1.2593(3) 0.0714(3) 0.30954(18) 0.0202(5) Uani 1 1 d . .
N2 N 1.3065(3) -0.0884(3) 0.17285(17) 0.0196(5) Uani 1 1 d . .
N3 N 1.9842(3) -0.4317(3) -0.16882(19) 0.0259(6) Uani 1 1 d . .
O1 O 1.5703(3) -0.0140(2) 0.20104(15) 0.0247(5) Uani 1 1 d . .
F1 F 1.4996(2) 0.2308(2) 0.27827(13) 0.0284(4) Uani 1 1 d . .
F2 F 1.5433(2) -0.0151(2) 0.37250(13) 0.0274(4) Uani 1 1 d . .
S1 S 0.95690(8) 0.00666(8) 0.28318(5) 0.0196(2) Uani 1 1 d . .
Cl1 Cl 0.59705(10) 0.37605(9) 0.60596(5) 0.0297(3) Uani 1 1 d . .
loop_
_atom_site_aniso_label
_atom_site_aniso_U_11
_atom_site_aniso_U_22
_atom_site_aniso_U_33
_atom_site_aniso_U_23
_atom_site_aniso_U_13
_atom_site_aniso_U_12
C1 0.0235(13) 0.0191(12) 0.0185(13) -0.0080(10) 0.0008(10) -0.0109(10)
C2 0.0192(13) 0.0226(14) 0.0219(15) -0.0079(11) 0.0036(11) -0.0089(11)
C3 0.0246(13) 0.0182(12) 0.0234(14) -0.0071(10) 0.0067(11) -0.0078(10)
C4 0.0339(15) 0.0217(13) 0.0214(14) -0.0097(11) 0.0011(11) -0.0156(11)
C5 0.0278(14) 0.0232(13) 0.0270(15) -0.0096(11) 0.0024(11) -0.0135(11)
C6 0.0214(13) 0.0177(12) 0.0207(14) -0.0063(10) 0.0035(10) -0.0097(10)
C7 0.0207(12) 0.0164(12) 0.0204(13) -0.0056(10) 0.0026(10) -0.0110(9)
C8 0.0209(13) 0.0190(12) 0.0217(14) -0.0038(10) 0.0010(11) -0.0110(10)
C9 0.0202(13) 0.0178(12) 0.0188(14) -0.0052(10) 0.0031(10) -0.0090(10)
C10 0.0224(13) 0.0202(13) 0.0234(14) -0.0058(10) -0.0022(11) -0.0106(10)
C11 0.0188(13) 0.0238(13) 0.0243(15) -0.0054(11) 0.0052(11) -0.0100(10)
C12 0.0240(14) 0.0193(12) 0.0181(14) -0.0059(10) 0.0056(11) -0.0095(10)
C13 0.0251(14) 0.0244(13) 0.0217(14) -0.0076(11) 0.0012(11) -0.0133(11)
C14 0.0213(13) 0.0194(12) 0.0213(14) -0.0049(10) 0.0021(10) -0.0105(10)
C15 0.0325(16) 0.0299(15) 0.0290(17) -0.0176(12) 0.0063(12) -0.0094(12)
C16 0.0220(14) 0.0284(14) 0.0269(16) -0.0091(12) 0.0093(11) -0.0071(11)
B1 0.0203(14) 0.0237(15) 0.0278(17) -0.0114(12) 0.0032(12) -0.0133(11)
N1 0.0198(11) 0.0204(11) 0.0208(12) -0.0074(9) 0.0036(9) -0.0107(9)
N2 0.0159(10) 0.0197(11) 0.0231(12) -0.0081(9) 0.0036(9) -0.0093(8)
N3 0.0233(12) 0.0250(12) 0.0279(14) -0.0105(10) 0.0054(10) -0.0096(9)
O1 0.0196(9) 0.0324(11) 0.0252(11) -0.0146(8) 0.0039(8) -0.0139(8)
F1 0.0269(8) 0.0288(9) 0.0336(10) -0.0122(7) 0.0034(7) -0.0193(7)
F2 0.0226(8) 0.0370(9) 0.0256(9) -0.0103(7) -0.0009(6) -0.0126(7)
S1 0.0174(4) 0.0222(4) 0.0204(4) -0.0112(3) 0.0036(3) -0.0098(3)
Cl1 0.0293(4) 0.0297(4) 0.0260(4) -0.0150(3) 0.0072(3) -0.0061(3)
loop_
_atom_type_symbol
_atom_type_description
_atom_type_scat_dispersion_real
_atom_type_scat_dispersion_imag
_atom_type_scat_source
C C 0.0181 0.0091 'International Tables Vol C Tables 4.2.6.8 and 6.1.1.4'
H H 0.0000 0.0000 'International Tables Vol C Tables 4.2.6.8 and 6.1.1.4'
B B 0.0090 0.0039 'International Tables Vol C Tables 4.2.6.8 and 6.1.1.4'
N N 0.0311 0.0180 'International Tables Vol C Tables 4.2.6.8 and 6.1.1.4'
O O 0.0492 0.0322 'International Tables Vol C Tables 4.2.6.8 and 6.1.1.4'
F F 0.0727 0.0534 'International Tables Vol C Tables 4.2.6.8 and 6.1.1.4'
S S 0.3331 0.5567 'International Tables Vol C Tables 4.2.6.8 and 6.1.1.4'
Cl Cl 0.3639 0.7018 'International Tables Vol C Tables 4.2.6.8 and 6.1.1.4'
loop_
_geom_angle_atom_site_label_1
_geom_angle_atom_site_label_2
_geom_angle_atom_site_label_3
_geom_angle
C2 C1 C6 121.0(2)
C2 C1 S1 128.4(2)
C6 C1 S1 110.5(2)
C3 C2 C1 116.5(2)
C2 C3 C4 123.0(2)
C2 C3 Cl1 119.4(2)
C4 C3 Cl1 117.6(2)
C5 C4 C3 120.2(3)
C4 C5 C6 118.0(3)
C5 C6 N1 126.1(2)
C5 C6 C1 121.3(2)
N1 C6 C1 112.6(2)
N2 C7 N1 127.1(2)
N2 C7 S1 119.7(2)
N1 C7 S1 113.1(2)
O1 C8 N2 124.4(3)
O1 C8 C9 115.6(2)
N2 C8 C9 120.0(2)
C10 C9 C14 117.9(3)
C10 C9 C8 121.4(3)
C14 C9 C8 120.7(2)
C11 C10 C9 121.5(3)
C10 C11 C12 120.9(2)
N3 C12 C13 121.5(3)
N3 C12 C11 121.5(2)
C13 C12 C11 117.0(2)
C14 C13 C12 121.3(3)
C13 C14 C9 121.3(2)
F1 B1 F2 109.9(2)
F1 B1 O1 109.7(2)
F2 B1 O1 110.4(2)
F1 B1 N1 109.5(2)
F2 B1 N1 110.5(2)
O1 B1 N1 106.8(2)
C7 N1 C6 113.6(2)
C7 N1 B1 119.9(2)
C6 N1 B1 126.5(2)
C7 N2 C8 115.8(2)
C12 N3 C15 120.0(2)
C12 N3 C16 120.7(2)
C15 N3 C16 118.1(2)
C8 O1 B1 125.6(2)
C1 S1 C7 90.13(12)
loop_
_geom_bond_atom_site_label_1
_geom_bond_atom_site_label_2
_geom_bond_distance
C1 C2 1.391(3)
C1 C6 1.409(4)
C1 S1 1.741(3)
C2 C3 1.381(4)
C3 C4 1.399(4)
C3 Cl1 1.741(3)
C4 C5 1.380(4)
C5 C6 1.384(4)
C6 N1 1.391(3)
C7 N2 1.325(4)
C7 N1 1.332(3)
C7 S1 1.745(3)
C8 O1 1.319(3)
C8 N2 1.337(3)
C8 C9 1.440(4)
C9 C10 1.406(4)
C9 C14 1.411(4)
C10 C11 1.366(4)
C11 C12 1.426(4)
C12 N3 1.349(4)
C12 C13 1.426(4)
C13 C14 1.361(4)
C15 N3 1.460(4)
C16 N3 1.464(3)
B1 F1 1.382(3)
B1 F2 1.383(4)
B1 O1 1.461(4)
B1 N1 1.559(4)
