#------------------------------------------------------------------------------
#$Date: 2019-11-11 20:38:22 +0200 (Mon, 11 Nov 2019) $
#$Revision: 227288 $
#$URL: file:///home/coder/svn-repositories/cod/cif/4/03/58/4035880.cif $
#------------------------------------------------------------------------------
#
# This file is available in the Crystallography Open Database (COD),
# http://www.crystallography.net/
#
# All data on this site have been placed in the public domain by the
# contributors.
#
data_4035880
loop_
_publ_author_name
'Mart\'inez-Pardo, Pablo'
'Blay, Gonzalo'
'Vila, Carlos'
'Sanz-Marco, Amparo'
'Mu\~noz, M Carmen'
'Pedro, Jos\'e R'
_publ_section_title
;
 Enantioselective Synthesis of 5-Trifluoromethyl-2-oxazolines under Dual
 Silver/Organocatalysis.
;
_journal_issue                   1
_journal_name_full               'The Journal of organic chemistry'
_journal_page_first              314
_journal_page_last               325
_journal_paper_doi               10.1021/acs.joc.8b02808
_journal_volume                  84
_journal_year                    2019
_chemical_absolute_configuration ad
_chemical_formula_sum            'C15 H15 Br F3 N O3'
_chemical_formula_weight         394.19
_space_group_crystal_system      monoclinic
_space_group_IT_number           4
_space_group_name_Hall           'P 2yb'
_space_group_name_H-M_alt        'P 1 21 1'
_atom_sites_solution_hydrogens   difmap
_audit_creation_method           SHELXL-2014
_cell_angle_alpha                90
_cell_angle_beta                 118.539(7)
_cell_angle_gamma                90
_cell_formula_units_Z            2
_cell_length_a                   8.7236(5)
_cell_length_b                   11.9043(4)
_cell_length_c                   8.7256(4)
_cell_measurement_reflns_used    3336
_cell_measurement_temperature    200(1)
_cell_measurement_theta_max      27.5770
_cell_measurement_theta_min      4.3230
_cell_volume                     796.04(8)
_computing_cell_refinement       'CrysAlisPro, Agilent Technologies'
_computing_data_collection       'CrysAlisPro, Agilent Technologies'
_computing_data_reduction        'CrysAlisPro, Agilent Technologies'
_computing_structure_refinement  'SHELXL-2014 (Sheldrick, 2014)'
_computing_structure_solution    'SHELXS-2014 (Sheldrick, 2014)'
_diffrn_ambient_temperature      200(1)
_diffrn_measured_fraction_theta_full 0.996
_diffrn_measured_fraction_theta_max 0.901
_diffrn_measurement_device_type  'SuperNova Sapphire3'
_diffrn_radiation_type           MoK\a
_diffrn_radiation_wavelength     0.71073
_diffrn_reflns_av_R_equivalents  0.0327
_diffrn_reflns_av_unetI/netI     0.0573
_diffrn_reflns_Laue_measured_fraction_full 0.996
_diffrn_reflns_Laue_measured_fraction_max 0.901
_diffrn_reflns_limit_h_max       10
_diffrn_reflns_limit_h_min       -11
_diffrn_reflns_limit_k_max       16
_diffrn_reflns_limit_k_min       -15
_diffrn_reflns_limit_l_max       12
_diffrn_reflns_limit_l_min       -11
_diffrn_reflns_number            6958
_diffrn_reflns_point_group_measured_fraction_full 0.895
_diffrn_reflns_point_group_measured_fraction_max 0.771
_diffrn_reflns_theta_full        25.000
_diffrn_reflns_theta_max         29.808
_diffrn_reflns_theta_min         3.423
_exptl_absorpt_coefficient_mu    2.626
_exptl_absorpt_correction_T_max  1.00000
_exptl_absorpt_correction_T_min  0.76962
_exptl_absorpt_correction_type   multi-scan
_exptl_absorpt_process_details   'Empirical absorption correction'
_exptl_crystal_colour            colorless
_exptl_crystal_density_diffrn    1.645
_exptl_crystal_description       prismatic
_exptl_crystal_F_000             396
_exptl_crystal_size_max          0.120
_exptl_crystal_size_mid          0.100
_exptl_crystal_size_min          0.080
_refine_diff_density_max         0.612
_refine_diff_density_min         -0.331
_refine_diff_density_rms         0.064
_refine_ls_abs_structure_details
;
 Flack x determined using 1144 quotients [(I+)-(I-)]/[(I+)+(I-)]
 (Parsons, Flack and Wagner, Acta Cryst. B69 (2013) 249-259).
;
_refine_ls_abs_structure_Flack   0.030(7)
_refine_ls_extinction_method     none
_refine_ls_goodness_of_fit_ref   0.813
_refine_ls_hydrogen_treatment    refall
_refine_ls_matrix_type           full
_refine_ls_number_parameters     268
_refine_ls_number_reflns         3533
_refine_ls_number_restraints     1
_refine_ls_restrained_S_all      0.812
_refine_ls_R_factor_all          0.0395
_refine_ls_R_factor_gt           0.0336
_refine_ls_shift/su_max          0.008
_refine_ls_shift/su_mean         0.001
_refine_ls_structure_factor_coef Fsqd
_refine_ls_weighting_details
'w=1/[\s^2^(Fo^2^)+(0.0566P)^2^] where P=(Fo^2^+2Fc^2^)/3'
_refine_ls_weighting_scheme      calc
_refine_ls_wR_factor_gt          0.0766
_refine_ls_wR_factor_ref         0.0835
_reflns_Friedel_coverage         0.639
_reflns_Friedel_fraction_full    0.783
_reflns_Friedel_fraction_max     0.630
_reflns_number_gt                3225
_reflns_number_total             3533
_reflns_threshold_expression     'I > 2\s(I)'
_cod_data_source_file            jo8b02808_si_003.cif
_cod_data_source_block           shelx
_cod_original_cell_volume        796.03(8)
_cod_original_sg_symbol_H-M      'P 21'
_cod_database_code               4035880
_shelx_space_group_comment
;
The symmetry employed for this shelxl refinement is uniquely defined
by the following loop, which should always be used as a source of
symmetry information in preference to the above space-group names.
They are only intended as comments.
;
_shelx_estimated_absorpt_t_min   0.743
_shelx_estimated_absorpt_t_max   0.817
_shelxl_version_number           2014-1
_shelx_res_file
;
TITL gon34 in P2(1)/m
CELL   0.71073  8.723629  11.904253   8.725586    90.0000   118.5391    90.0000
zerr        2   0.000453   0.000367   0.000421     0.0000     0.0066     0.0000
LATT  -1
SYMM  - X, 1/2 + Y, - Z
SFAC  C    H    N    O    F    BR
UNIT  30   30   2    6    6    2
MERG   2
OMIT    -3.00 180.00
FMAP   2
PLAN   25
SIZE     0.080   0.100   0.120
ACTA    50.00
L.S.   8
WGHT    0.056600
FVAR       9.37287
BR    6    0.679123    0.662094    0.778763    11.00000    0.02920    0.02698 =
         0.03392   -0.00014    0.01027   -0.00850
O1    4    0.925546    0.975630    0.643924    11.00000    0.03239    0.03397 =
         0.02414    0.00224    0.01328   -0.00972
O2    4    0.403316    0.885820    0.593044    11.00000    0.02096    0.06282 =
         0.03406   -0.01130    0.01098   -0.00337
O3    4    0.650636    0.971421    0.792419    11.00000    0.02367    0.03287 =
         0.02040   -0.00191    0.01108    0.00180
N     3    0.636743    0.988874    0.449180    11.00000    0.04149    0.03485 =
         0.02315    0.00646    0.01601    0.00634
C1    1    0.856752    0.867622    0.661733    11.00000    0.02547    0.02215 =
         0.02039   -0.00336    0.01086   -0.00209
C2    1    0.940351    0.835044    0.852586    11.00000    0.02048    0.02007 =
         0.02080   -0.00209    0.00981    0.00057
C3    1    0.879632    0.750454    0.920664    11.00000    0.02062    0.02179 =
         0.02637   -0.00210    0.01037   -0.00254
C4    1    0.963025    0.725927    1.096585    11.00000    0.03022    0.02708 =
         0.02935    0.00260    0.01437   -0.00053
C5    1    1.110225    0.785116    1.210631    11.00000    0.03371    0.03345 =
         0.02065    0.00079    0.00880    0.00011
C6    1    1.174275    0.868829    1.146248    11.00000    0.02842    0.03118 =
         0.02523   -0.00036    0.00422   -0.00218
C7    1    1.090608    0.892869    0.970998    11.00000    0.02262    0.02565 =
         0.02595   -0.00007    0.00882   -0.00443
C8    1    0.920571    0.786534    0.565127    11.00000    0.02926    0.04412 =
         0.02630   -0.00504    0.01547    0.00309
C9    1    0.786858    1.030371    0.512782    11.00000    0.04945    0.03019 =
         0.02292    0.00570    0.01774    0.00184
C10   1    0.655391    0.885567    0.552183    11.00000    0.02096    0.02932 =
         0.01698   -0.00203    0.00674    0.00122
C11   1    0.553185    0.911537    0.650615    11.00000    0.02257    0.02869 =
         0.02144    0.00327    0.00946    0.00510
C12   1    0.580582    1.011975    0.908397    11.00000    0.02609    0.03821 =
         0.02505   -0.00287    0.01387    0.00171
C13   1    0.431329    1.091316    0.808179    11.00000    0.05946    0.05360 =
         0.04587    0.00729    0.02600    0.02887
C14   1    0.528034    0.912446    0.980895    11.00000    0.04504    0.04551 =
         0.03775   -0.00233    0.02516   -0.00501
C15   1    0.737177    1.071825    1.051316    11.00000    0.05384    0.05419 =
         0.03541   -0.01564    0.02862   -0.01620
F1    5    0.881100    0.681013    0.573326    11.00000    0.05181    0.03218 =
         0.04942   -0.01510    0.02915    0.00060
F2    5    1.094142    0.791626    0.633008    11.00000    0.02829    0.06670 =
         0.04784   -0.00869    0.02342    0.00620
F3    5    0.853168    0.813360    0.396643    11.00000    0.05338    0.06874 =
         0.02851   -0.00306    0.02596    0.01270
H10   2    0.596085    0.824465    0.476670    11.00000    0.01067
H4    2    0.910428    0.673898    1.134184    11.00000    0.04377
H14C  2    0.438264    0.877501    0.898537    11.00000    0.04251
H14A  2    0.492189    0.946288    1.073637    11.00000    0.04544
H5    2    1.165828    0.766863    1.327693    11.00000    0.04011
H6    2    1.267460    0.900079    1.219428    11.00000    0.04660
H13C  2    0.482453    1.153290    0.759041    11.00000    0.07665
H7    2    1.139964    0.940994    0.925359    11.00000    0.06068
H13B  2    0.403636    1.128542    0.902122    11.00000    0.06921
H14B  2    0.610888    0.863025    1.039340    11.00000    0.06170
H13A  2    0.329371    1.058107    0.720537    11.00000    0.06307
H9    2    0.810169    1.102578    0.477597    11.00000    0.06408
H15A  2    0.817852    1.022946    1.110140    11.00000    0.05256
H15B  2    0.763167    1.128677    0.993342    11.00000    0.05981
H15C  2    0.697195    1.102884    1.145943    11.00000    0.07870
HKLF    4

REM  gon34 in P2(1)/m
REM R1 =  0.0336 for    3225 Fo > 4sig(Fo)  and  0.0395 for all    3533 data
REM    268 parameters refined using      1 restraints

END

WGHT      0.0216      0.0000

REM Highest difference peak  0.612,  deepest hole -0.331,  1-sigma level  0.064
Q1    1   0.7827  0.6594  0.7750  11.00000  0.05    0.61
Q2    1   0.5471  0.6664  0.7580  11.00000  0.05    0.52
Q3    1   0.6560  0.6640  0.6639  11.00000  0.05    0.49
Q4    1   0.6994  0.6569  0.9127  11.00000  0.05    0.41
Q5    1   0.7749  0.6640  0.8955  11.00000  0.05    0.31
Q6    1   0.2251  1.1598  0.7117  11.00000  0.05    0.29
Q7    1   0.7384  0.8718  0.6436  11.00000  0.05    0.29
Q8    1   0.4318  0.6570  0.6807  11.00000  0.05    0.26
Q9    1   0.8843  0.6637  0.8547  11.00000  0.05    0.25
Q10   1   0.6023  0.6693  0.5023  11.00000  0.05    0.24
Q11   1   0.4666  1.1614  1.1147  11.00000  0.05    0.23
Q12   1   0.8669  0.6690  0.7037  11.00000  0.05    0.23
Q13   1   0.8716  0.8241  0.6153  11.00000  0.05    0.23
Q14   1   0.2976  1.1595  0.9853  11.00000  0.05    0.23
Q15   1   0.9934  0.6182  0.9696  11.00000  0.05    0.23
Q16   1   0.9272  0.7651  0.8797  11.00000  0.05    0.22
Q17   1   0.6191  0.9398  0.3670  11.00000  0.05    0.22
Q18   1   0.6024  0.9035  0.5804  11.00000  0.05    0.22
Q19   1   0.4093  1.1210  0.7118  11.00000  0.05    0.22
Q20   1   0.8790  0.8614  0.7593  11.00000  0.05    0.22
Q21   1   0.5947  0.9033  0.4608  11.00000  0.05    0.22
Q22   1   1.2611  0.9510  1.3468  11.00000  0.05    0.21
Q23   1   0.6981  0.7973  0.9541  11.00000  0.05    0.21
Q24   1   1.3920  0.9164  1.4070  11.00000  0.05    0.21
Q25   1   1.2952  0.6629  1.3835  11.00000  0.05    0.21
;
_shelx_res_checksum              91583
_shelx_hkl_file
;
   0   0  -2 9870.90 858.848   6
   0   0  -2 9897.16 861.185   5
   0   0   2 9203.44 859.387   4
   0   0   2 9005.97 834.359   5
   0   0   3 61951.5 2938.70   5
   0   0   3 55334.7 2862.01   4
   0   0   3 59487.3 2867.99   3
   0   0   4 1895.92 530.671   3
   0   0   4 1948.33 579.080   4
   0   0   4 2367.61 633.460   5
   0   0  -5 214809. 7819.78   1
   0   0   5 213259. 8386.24   5
   0   0   5 215907. 8338.06   4
   0   0   5 234892. 8490.61   3
   0   0  -6 25018.4 2177.11   1
   0   0   6 23261.3 2449.11   4
   0   0   6 26670.3 2580.21   5
   0   0   6 29473.5 2612.36   3
   0   0   7 71878.1 4970.86   5
   0   0   7 79940.6 4995.44   3
   0   0  -7 72825.7 4290.30   1
   0   0   8 173.367 559.735   5
   0   0  -8-419.408 550.070   1
   0   0   8 954.349 628.838   3
   0   0   9 35632.9 3831.44   3
   0   0   9 35767.2 3956.69   5
   0   0  10-3315.90 1482.81   3
   0  -1   2 87026.0 3000.58   4
   0   1   2 73635.6 2992.39   5
   0   1   2 73537.5 3113.82   6
   0  -1  -2 95628.1 3379.08   6
   0   1   2 70656.2 3225.97   4
   0  -1  -2 92550.2 3263.63   3
   0   1   2 74751.4 3119.17   3
   0  -1   2 86188.0 3235.24   5
   0   1  -2 75474.2 3110.15   5
   0  -1  -2 92780.4 3206.14   5
   0   1  -2 73905.7 3101.39   1
   0  -1   3 75309.0 3159.46   5
   0   1  -3 48362.8 2557.84   1
   0   1   3 47866.4 2652.15   3
   0  -1   3 73650.0 2902.75   4
   0   1   3 47817.8 2697.41   6
   0   1   3 45004.8 2727.72   4
   0   1   3 47942.6 2589.97   5
   0  -1   4 68538.3 3354.31   4
   0   1   4 63133.7 3513.36   6
   0   1   4 62892.0 3456.58   3
   0   1  -4 60871.3 3262.57   1
   0  -1   4 71347.2 3649.63   5
   0   1   4 63070.3 3384.09   5
   0   1   4 66085.5 3618.08   4
   0  -1   5 85704.6 4256.34   4
   0   1   5 81045.7 4522.34   4
   0   1   5 83070.8 4413.10   5
   0   1   5 86938.6 4541.14   3
   0  -1   5 87461.4 4596.83   5
   0   1  -5 81742.7 4199.96   1
   0   1   6 46060.0 3391.52   5
   0   1   6 48626.0 3487.28   3
   0   1  -6 45104.1 3126.89   1
   0   1   6 45509.7 3468.21   4
   0  -1  -6 33780.0 2499.45   1
   0  -1   6 35147.6 3091.08   5
   0  -1   6 40236.8 3087.58   3
   0   1   7 3431.08 945.669   5
   0  -1  -7 5293.70 1014.37   1
   0   1   7 5243.49 1236.98   3
   0  -1   7 6416.08 1442.49   5
   0  -1   7 4949.54 1001.06   3
   0   1  -7 3212.01 928.231   1
   0  -1   8 17074.1 2438.94   3
   0   1   8 18259.8 2512.04   3
   0  -1   8 15625.8 2408.59   5
   0   1   8 21170.3 2763.95   5
   0   1  -8 19888.9 2338.41   1
   0   1   9 1091.50 1086.81   5
   0  -1   9 1103.47 816.388   5
   0  -1   9 2878.92 1213.17   3
   0   1   9 4.22053 821.580   3
   0   1  10 9140.30 2123.38   3
   0  -1  10 9029.03 2134.07   3
   0   1  10 12150.1 2457.29   5
   0   2   0 146413. 3641.31   2
   0   2   0 161744. 3612.61   4
   0   2   0 151939. 3858.50   1
   0   2   1 91879.2 3458.72   6
   0   2  -1 90054.1 3063.48   5
   0   2   1 87872.3 2852.57   5
   0  -2  -1 93512.2 2832.92   1
   0   2   1 89085.4 2736.23   1
   0  -2  -1 96563.6 3540.34   6
   0   2  -1 86203.9 3406.01   1
   0  -2  -1 98575.1 2924.92   5
   0   2   1 88173.4 3365.06   4
   0  -2   1 99290.1 3492.65   1
   0  -2   1 92552.2 3110.16   5
   0   2   1 90536.9 2715.35   2
   0  -2  -1 97832.8 2752.10   2
   0  -2   2 281982. 8625.80   5
   0  -2  -2 300620. 7809.59   1
   0  -2  -2 285741. 8728.10   3
   0  -2  -2 270696. 7595.00   2
   0   2   2 287975. 9039.56   4
   0   2   2 281031. 8376.11   5
   0   2   2 274775. 8819.60   3
   0   2   2 296316. 8908.33   6
   0  -2  -2 286392. 8921.14   6
   0   2  -2 299129. 8689.63   5
   0   2  -2 279919. 8802.54   1
   0  -2   2 278267. 7943.90   4
   0  -2  -2 294059. 8379.05   5
   0   2   3 151470. 6073.71   4
   0   2   3 156152. 5904.26   3
   0   2   3 153829. 5543.65   5
   0   2   3 153878. 5830.21   6
   0   2  -3 152452. 5840.54   1
   0  -2   3 157932. 5219.58   4
   0  -2   3 165127. 5882.86   5
   0   2   4 183110. 7230.30   6
   0  -2   4 213091. 7476.37   5
   0  -2   4 205668. 6742.29   4
   0   2   4 180021. 7461.90   4
   0   2   4 180604. 6918.24   5
   0   2   4 188121. 7279.49   3
   0   2  -4 183789. 7056.12   1
   0   2   5 33253.1 2821.84   4
   0   2   5 30210.5 2591.45   6
   0   2   5 37411.8 2827.40   3
   0   2   5 30704.0 2456.72   5
   0   2  -5 34221.5 2558.37   1
   0  -2   6 52134.7 3832.78   5
   0   2   6 56907.7 3934.58   3
   0  -2  -6 52533.2 2994.21   1
   0   2  -6 52531.0 3613.97   1
   0   2   6 49675.2 3839.72   4
   0   2   6 52157.3 3675.35   5
   0   2   6 51563.6 3812.97   6
   0   2   7 35091.5 3299.98   3
   0  -2   7 44689.2 3793.71   5
   0  -2  -7 40085.8 2763.36   1
   0   2   7 34434.3 3279.75   5
   0   2  -7 34699.1 3107.26   1
   0  -2   7 46632.6 3640.29   3
   0   2  -8 100.371 538.292   1
   0  -2   8-560.329 688.427   3
   0  -2   8 701.244 631.387   5
   0   2   8-142.114 470.955   3
   0   2   8 333.940 433.749   5
   0   2   9 6984.54 1775.03   5
   0   2   9 8382.50 1815.09   3
   0  -2   9 6331.39 1408.45   3
   0  -2   9 7322.91 1728.98   5
   0   2  10 5637.78 1617.81   5
   0  -2  10 7084.05 1892.31   3
   0   2  10 5828.33 1630.64   3
   0   3   0 69.4443 95.2352   2
   0   3   0 4.88422 105.780   1
   0   3   0-59.7381 76.0542   4
   0  -3   0 218.710 193.526   1
   0   3   1 473370. 12729.5   2
   0   3  -1 464542. 12939.9   5
   0   3   1 451019. 12799.4   1
   0  -3  -1 469183. 12740.6   2
   0  -3   1 500901. 13850.1   1
   0   3   1 455366. 13468.2   4
   0  -3  -1 484224. 12956.7   1
   0   3  -1 470114. 13696.4   1
   0   3   1 459917. 12574.6   5
   0  -3   1 478097. 12978.5   5
   0   3  -1 453732. 13345.2   2
   0   3   1 460196. 13799.2   6
   0  -3  -1 502490. 12737.6   5
   0  -3  -2 42482.6 1970.23   5
   0   3  -2 48699.2 2282.24   5
   0   3   2 45881.8 2570.06   4
   0   3  -2 47228.1 2601.41   1
   0   3   2 44522.4 1992.32   5
   0  -3   2 39648.4 2149.16   5
   0   3   2 49899.5 1680.06   1
   0  -3  -2 42194.2 1531.88   2
   0  -3  -2 36973.0 1627.50   1
   0   3   2 44810.2 2528.97   6
   0  -3  -3 187108. 5316.78   2
   0  -3   3 181211. 6722.47   5
   0   3   3 199334. 7066.46   6
   0   3   3 194284. 7298.90   4
   0   3  -3 198798. 7100.85   1
   0   3   3 185534. 6416.52   5
   0  -3  -3 188198. 5568.35   1
   0   3   4 96347.7 4250.43   5
   0  -3   4 86558.4 4409.13   5
   0   3  -4 97194.8 4624.03   1
   0  -3  -4 85528.5 3170.13   1
   0   3   4 94244.2 4715.71   3
   0   3   4 96808.1 4907.26   4
   0   3   4 94251.8 4562.92   6
   0   3   5 30941.0 2850.06   4
   0   3   5 36408.7 2908.36   3
   0   3   5 33481.1 2563.39   5
   0   3  -5 33096.0 2691.50   1
   0   3   5 34746.9 2819.99   6
   0  -3   5 37340.1 2915.82   5
   0   3   6 103156. 5793.12   3
   0  -3   6 119035. 6078.01   5
   0   3   6 104119. 6024.92   4
   0   3   6 101930. 5707.17   6
   0   3   6 105476. 5526.91   5
   0   3  -6 100379. 5499.74   1
   0   3   7 13071.1 2031.61   3
   0   3   7 11713.9 1837.95   5
   0  -3   7 13049.1 2010.36   5
   0   3   7 10988.4 1864.30   6
   0   3  -7 12266.4 1891.95   1
   0  -3   8 32381.9 3323.64   3
   0   3  -8 31749.3 3299.04   1
   0  -3   8 35355.8 3697.04   5
   0   3   8 30152.0 3300.01   5
   0   3   8 30704.2 3441.88   3
   0  -3   9 2108.78 1011.00   5
   0  -3   9 2176.18 909.234   3
   0   3   9 2622.99 1050.68   5
   0   3   9 727.816 589.442   3
   0   3  -9 2779.63 1157.98   1
   0  -3  10 9770.04 2209.28   3
   0   3  10 6020.09 1828.08   5
   0  -4   0 235524. 7361.08   1
   0   4   0 226653. 6775.10   4
   0   4   0 214279. 7133.74   1
   0   4   0 217854. 6880.26   2
   0   4  -1 27428.9 1391.41   5
   0   4   1 27044.6 1783.99   4
   0   4   1 28225.8 1406.69   2
   0  -4  -1 25945.4 1520.13   1
   0   4   1 27285.3 1133.65   5
   0  -4  -1 26080.1 1377.24   2
   0   4   1 24533.9 1442.18   1
   0   4  -1 27967.9 1954.98   1
   0   4  -2 134959. 5504.88   1
   0   4   2 132663. 4490.79   5
   0  -4  -2 144131. 4575.20   5
   0   4   2 140058. 4231.07   1
   0   4   2 134674. 4148.66   2
   0   4   2 132484. 5465.55   4
   0  -4  -2 132774. 4414.17   1
   0  -4  -2 134042. 4165.37   2
   0  -4   2 132238. 4874.47   5
   0   4   2 137551. 5588.54   6
   0  -4   3 7019.91 974.910   5
   0   4   3 9479.21 981.125   5
   0   4  -3 10345.8 1348.49   1
   0   4   3 8996.71 1266.54   4
   0   4   3 10541.4 1316.67   6
   0  -4  -3 7614.72 671.578   1
   0  -4  -3 8078.85 552.611   2
   0   4   4 90039.0 4155.16   5
   0  -4   4 89922.5 4482.22   5
   0  -4  -4 90756.6 2834.18   2
   0   4  -4 90778.8 4812.54   1
   0   4   4 92746.4 4979.87   4
   0   4   4 96659.1 4809.93   6
   0  -4  -4 85413.2 3137.98   1
   0   4   5 84594.9 4463.31   5
   0   4   5 83859.1 5136.06   4
   0  -4  -5 93171.9 2933.82   2
   0  -4  -5 88973.9 3376.19   1
   0  -4   5 97983.6 5106.16   5
   0   4  -5 89899.1 5012.52   1
   0   4   5 87724.0 4916.20   6
   0  -4   6 6974.60 1417.00   5
   0   4   6 11632.2 1912.19   4
   0   4   6 12891.3 1922.23   6
   0   4   6 12608.9 1701.63   5
   0   4  -6 10143.1 1688.14   1
   0   4  -7 21696.8 2649.74   1
   0   4   7 23232.1 2763.29   6
   0   4   7 20192.7 2402.39   5
   0   4  -8 772.532 619.177   1
   0   4   8 291.981 400.814   5
   0  -4   8 1827.06 1004.97   5
   0   4   8 258.448 565.444   6
   0  -4   9 24552.4 3326.38   5
   0   4   9 29240.5 3505.85   5
   0  -4   9 27627.8 3353.05   3
   0   4  -9 28220.2 3367.79   1
   0  -4  10 2887.37 1452.28   3
   0   4  10 2604.46 1074.34   5
   0   5   0 158.581 185.270   4
   0   5   0 114.855 168.836   1
   0   5   0 65.7327 67.9387   5
   0   5   1 196403. 6450.25   1
   0   5   1 197158. 5556.43   5
   0   5   1 196644. 6850.23   4
   0   5  -1 200439. 6036.04   5
   0  -5  -1 176746. 6130.56   2
   0  -5  -1 196466. 6628.95   1
   0   5   1 202168. 6239.90   2
   0   5  -1 195114. 7152.74   1
   0   5   2 39024.8 2705.42   4
   0  -5   2 51902.5 2516.20   5
   0   5  -2 38616.0 2730.31   1
   0   5   2 37374.9 2813.19   6
   0   5   2 39813.2 1863.69   2
   0   5   2 41110.8 1933.66   1
   0  -5  -2 50551.0 2310.23   1
   0  -5  -2 52291.8 2063.64   2
   0   5   2 38854.4 1907.61   5
   0  -5  -2 51331.8 2199.70   5
   0   5   3 71995.8 4122.58   6
   0  -5   3 76091.0 3706.01   5
   0  -5  -3 77208.2 2989.99   1
   0   5   3 66725.1 4050.56   4
   0   5   3 66664.9 3140.06   5
   0   5  -3 70072.0 4088.44   1
   0   5   3 75350.2 2748.65   1
   0  -5  -3 80471.4 2669.99   2
   0  -5  -4 115910. 4065.43   1
   0  -5  -4 111050. 3568.27   2
   0   5   4 133289. 6308.74   4
   0   5   4 125138. 5038.47   5
   0   5   4 135683. 6100.07   6
   0   5  -4 127210. 5994.84   1
   0  -5   4 120648. 5427.88   5
   0   5  -5 64741.9 4161.65   1
   0  -5   5 63509.2 3873.03   5
   0   5   5 68171.2 4180.70   6
   0   5   5 65993.3 3585.68   5
   0   5   5 66039.6 4453.65   4
   0   5   6 19072.5 2527.28   4
   0   5  -6 20187.4 2427.41   1
   0   5   6 18417.7 2094.80   5
   0  -5   6 13217.8 1966.76   5
   0   5   6 20512.2 2380.29   6
   0   5   7 2232.43 829.984   6
   0  -5   7 3627.08 1102.57   5
   0   5  -7 2158.31 954.856   1
   0   5   7 2962.56 951.230   5
   0   5  -8 15654.2 2468.73   1
   0   5   8 16928.4 2466.16   5
   0  -5   8 20874.0 2804.98   5
   0   5   8 15452.9 2512.34   6
   0  -5   9 47.9866 621.034   5
   0  -5   9 187.013 770.685   3
   0   5   9-141.139 731.820   5
   0   5  -9 1234.09 868.358   1
   0  -5  10 14525.7 2667.41   3
   0   6   0 266355. 9072.83   1
   0   6   0 265052. 7502.47   5
   0   6   0 281719. 8472.54   4
   0   6   1 41611.9 2359.01   1
   0   6   1 41682.6 1561.14   5
   0   6   1 40756.5 2571.78   4
   0   6  -1 40449.8 2749.91   1
   0   6  -1 41780.3 1929.92   5
   0   6   2 193927. 6459.09   1
   0  -6  -2 223186. 6608.12   2
   0   6  -2 208000. 8084.66   1
   0   6   2 205786. 8267.47   6
   0   6   2 198702. 6201.67   5
   0   6   2 199571. 7764.59   4
   0   6   2 199449. 6432.07   2
   0   6   3 83085.6 3528.34   5
   0  -6  -3 82787.9 3112.39   2
   0  -6  -3 78986.3 3444.81   1
   0   6   3 85902.1 4870.01   6
   0   6   3 89414.5 3212.19   1
   0   6  -3 90587.8 4951.61   1
   0   6   3 83180.3 4716.68   4
   0  -6   3 82785.3 4039.41   5
   0   6   3 94006.4 3105.95   2
   0   6  -4 18809.7 2184.60   1
   0  -6  -4 17069.5 973.623   2
   0   6   4 21674.2 2272.89   6
   0  -6   4 18640.2 1890.90   5
   0   6   4 18297.2 2180.61   4
   0   6   4 16427.6 1537.20   5
   0  -6  -4 18027.8 1283.91   1
   0   6   5 68131.4 4465.32   6
   0   6   5 57685.4 3557.86   5
   0   6   5 62048.4 4550.97   4
   0   6  -5 61047.6 4356.22   1
   0  -6   5 69154.0 4246.94   5
   0   6   6 11004.8 1594.60   5
   0   6   6 12372.2 1938.53   6
   0  -6   6 11377.9 1805.90   5
   0   6   6 12123.0 2084.11   4
   0   6  -6 12292.7 2033.23   1
   0   6  -7 19451.4 2709.07   1
   0   6   7 19657.1 2681.69   6
   0  -6   7 21526.3 2759.90   5
   0   6   7 19135.5 2325.12   5
   0  -6   8 2999.25 1078.21   5
   0   6   8 1425.50 828.931   5
   0   6  -8 1113.88 860.725   1
   0   6   8 165.992 886.601   6
   0  -6   9 9644.50 2168.85   5
   0   6   9 10726.0 2077.54   5
   0   6  -9 8079.57 1882.29   1
   0   6   9 8503.89 1968.33   6
   0   6 -10 1657.74 1044.19   1
   0   7   0 379.699 149.425   5
   0   7   0 480.557 330.652   1
   0   7  -1 160810. 5128.73   5
   0   7   1 152502. 4519.55   5
   0   7   1 161359. 6346.78   4
   0   7   1 165176. 6112.96   1
   0   7  -1 156396. 6634.70   1
   0   7  -2 38765.6 3023.70   1
   0   7   2 38084.3 1755.52   5
   0   7   2 40489.1 3256.80   6
   0   7   2 38792.6 2199.40   1
   0   7   2 39856.3 2888.45   4
   0   7   3 125946. 4738.35   5
   0   7   3 134533. 6625.75   6
   0   7   3 136088. 4605.52   1
   0   7  -3 124384. 6448.96   1
   0   7   3 128167. 6318.92   4
   0   7   4 65878.8 4458.84   6
   0   7  -4 66991.5 4550.95   1
   0   7   4 62376.3 3250.09   5
   0  -7   4 61230.9 3765.93   5
   0   7   4 64271.1 4474.21   4
   0   7   5 5904.97 1416.86   6
   0   7   5 5376.74 1322.02   4
   0  -7   5 10512.6 1519.92   5
   0   7  -5 8075.51 1659.32   1
   0   7   5 6016.75 1018.10   5
   0   7  -6 23192.8 2856.59   1
   0   7   6 24497.1 3052.84   4
   0   7   6 23417.6 2827.68   6
   0  -7   6 20627.2 2476.79   5
   0   7   6 21996.3 2285.99   5
   0  -7   7 3364.42 1168.50   5
   0   7   7 3391.94 882.954   5
   0   7  -7 3256.94 1146.55   1
   0   7   7 2962.55 1143.79   6
   0   7  -8 14677.3 2505.73   1
   0  -7   8 14368.4 2486.62   5
   0   7   8 10530.4 1855.33   5
   0   7   8 13580.7 2470.66   6
   0  -7   9 643.370 1005.69   5
   0   7  -9 535.258 605.459   1
   0   7   9-158.283 733.371   6
   0   7   9 306.519 490.700   5
   0   8   0 135007. 4063.85   5
   0   8   0 134564. 6000.99   1
   0   8   1 4844.87 890.755   4
   0   8  -1 4262.17 546.420   5
   0   8   1 4885.34 819.345   1
   0   8  -1 3553.53 870.887   1
   0   8   1 4214.03 348.743   5
   0   8   2 34284.0 1591.88   5
   0   8   2 33065.4 3150.79   6
   0   8   2 39234.9 2965.53   4
   0   8   2 35531.9 2223.87   1
   0   8  -2 34858.6 3003.60   1
   0   8   3 5018.32 698.965   5
   0   8  -3 4890.28 1204.46   1
   0   8   3 4742.71 690.906   1
   0   8   3 5716.04 1232.48   4
   0   8   3 4906.59 1259.29   6
   0   8   4 57751.4 2568.39   1
   0   8  -4 52287.8 4113.44   1
   0   8   4 56892.4 4263.36   4
   0   8   4 58953.5 4382.52   6
   0   8   4 52218.2 2931.90   5
   0   8   5 47316.6 3070.79   5
   0  -8   5 43522.0 3508.69   5
   0   8  -5 48559.9 4169.30   1
   0   8   5 55620.6 4343.95   6
   0   8   5 46417.5 4124.76   4
   0  -8   6 10214.4 1771.92   5
   0   8   6 12286.8 1672.90   5
   0   8   6 13167.3 2168.17   6
   0   8  -6 11004.2 2035.80   1
   0  -8   7 14414.6 2308.56   5
   0   8  -7 15482.0 2509.10   1
   0   8   7 16862.1 2609.29   6
   0   8   7 15550.8 2147.34   5
   0   8  -8 454.217 595.189   1
   0  -8   8 1341.61 877.953   5
   0   8   8 737.787 803.661   6
   0   8   9 8700.60 2133.81   6
   0  -8   9 9765.70 2188.36   5
   0   9   0 51.2058 73.0797   5
   0   9   0 80.5896 78.3184   5
   0   9   0 263.538 426.012   1
   0   9  -1 139676. 6729.89   1
   0   9   1 147239. 6274.87   1
   0   9   2 495.069 503.948   6
   0   9   2 450.712 147.066   5
   0   9  -2 730.227 545.494   1
   0   9   2 772.129 420.377   1
   0   9  -3 16306.2 2165.88   1
   0   9   3 17026.6 1406.04   1
   0   9   3 15373.1 2052.21   4
   0   9   3 15724.4 1184.52   5
   0   9   3 18677.7 2482.01   6
   0   9   4 11060.0 1950.47   6
   0   9  -4 10062.9 1777.60   1
   0   9   4 11148.0 1895.93   4
   0   9  -5 25944.9 3056.12   1
   0   9   5 28116.2 3188.19   6
   0   9  -6 36970.7 3915.64   1
   0   9   6 42586.4 4147.97   6
   0   9  -7 5634.33 1543.01   1
   0   9   7 6994.61 1776.53   6
   0   9  -8 15199.0 2715.28   1
   0   9   8 16394.4 2741.95   6
   0  10   0 135950. 6547.48   1
   0  10  -1 17671.2 2194.54   1
   0  10   1 17883.2 1917.31   1
   0  10   2 92047.1 4484.79   1
   0  10  -2 87958.7 5447.13   1
   0  10   2 87024.1 5967.37   6
   0  10   3 16981.7 2534.43   6
   0  10   3 15462.0 1450.40   1
   0  10  -3 15179.8 2178.64   1
   0  10   4 18522.7 2670.01   6
   0  10  -4 16938.7 2436.12   1
   0  10  -5 37521.5 3956.76   1
   0  10   5 44677.2 4249.45   6
   0  10   6 5179.80 1599.39   6
   0  10  -6 3530.38 1282.90   1
   0  10  -7 15346.1 2696.41   1
   0  10   7 15723.1 2718.76   6
   0  10   8 2714.85 1146.39   6
   0  11   0-339.045 427.338   1
   0  11  -1 47616.6 3862.01   1
   0  11   1 50169.7 3535.28   1
   0  11   2 37834.9 3929.38   6
   0  11   2 37683.2 2795.17   1
   0  11  -2 38875.0 3589.23   1
   0  11   3 17266.6 2649.42   6
   0  11  -3 20264.9 2600.19   1
   0  11   4 10040.4 2095.34   6
   0  11  -4 12416.8 2135.87   1
   0  11   5 14391.5 2480.46   6
   0  11  -5 9216.10 1952.13   1
   0  11  -6 3126.94 1146.81   1
   0  11   6 5274.34 1685.94   6
   0  11   7 3876.69 1391.61   6
   0  11  -7 1827.28 1143.54   1
   0  12   0 43343.0 3631.24   1
   0  12   1 8699.55 1526.94   1
   0  12  -1 9850.15 1821.57   1
   0  12  -2 20225.3 2694.62   1
   0  12   2 23029.8 2222.79   1
   0  12   2 20058.2 3066.67   6
   0  12   3 7189.02 1723.33   6
   0  12  -3 4320.38 1366.40   1
   0  12   4 11239.7 2271.45   6
   0  12  -4 10846.3 2227.90   1
   0  12  -5 11144.5 2273.41   1
   0  12   5 10253.0 2249.62   6
   0  12   6 4921.70 1738.40   6
   0  12  -6 7118.63 1879.16   1
   0  13   0-175.839 723.210   1
   0  13  -1 38494.5 3718.12   1
   0  13   1 40346.4 3465.75   1
   0  13   1 41060.9 4447.01   6
   0  13   2 9514.72 2187.52   6
   0  13  -2 7114.64 1683.57   1
   0  13   3 20155.2 3064.36   6
   0  13  -3 17163.0 2671.80   1
   0  13   4 13791.3 2873.59   6
   0  13  -4 9045.97 2044.47   1
   0  13   5 10348.6 2407.76   6
   0  13  -5 8049.26 2074.91   1
   0  14   0 28540.1 3120.50   1
   0  14  -1 1504.17 804.710   1
   0  14   1 658.565 786.175   6
   0  14   2 11971.8 2530.52   6
   0  14  -2 11575.8 2204.52   1
   0  14  -3 6871.04 1690.93   1
   0  14   3 7289.79 2052.69   6
   0  14  -4 6073.46 1699.95   1
   0  14   4 5161.56 1919.13   6
   0  15   0 514.285 526.672   1
   0  15  -1 6914.37 1698.90   1
   0  15   1 5543.86 1809.53   6
   0  15   2-806.413 860.338   6
   0  15  -2 192.172 572.221   1
   0  15  -3 12572.3 2352.23   1
   0  16  -1 479.977 609.810   1
   0  16  -2 12651.2 2352.65   1
  -1   0  10 8675.21 2054.22   5
  -1   0  10 5295.02 1456.62   3
  -1   0   9 6086.49 1365.29   3
  -1   0   9 8401.30 1857.76   5
   1   0  -8 53631.2 3858.48   1
  -1   0   8 52716.0 4367.94   5
  -1   0   8 54753.8 4303.28   4
  -1   0   8 56126.8 4102.63   3
  -1   0   7 6223.00 1198.82   3
  -1   0   7 6580.74 1406.61   4
  -1   0   7 7632.58 1491.23   5
  -1   0   6 48448.5 3170.37   3
  -1   0   6 41958.5 3217.19   4
  -1   0   6 44876.2 3326.37   5
  -1   0   5 2015.40 626.576   5
  -1   0   5 1131.14 390.275   3
  -1   0   5 855.236 476.439   4
   1   0  -4 569100. 15931.2   2
  -1   0   4 595461. 16672.4   3
  -1   0   4 589078. 17125.2   5
  -1   0   3 85583.7 3220.79   3
   1   0  -3 88400.3 3244.23   6
  -1   0   3 87320.8 3583.66   5
   1   0  -3 82975.8 2901.27   2
   1   0  -2 296759. 8069.32   6
   1   0  -2 290813. 7999.45   2
  -1   0   2 294188. 8532.21   5
   1   0  -2 289461. 8482.50   5
  -1   0   2 298285. 8052.12   3
  -1   0   2 288429. 8033.79   2
  -1   0  -1 674884. 20146.7   6
  -1   0  -1 790868. 20274.5   5
  -1   0  -1 748126. 19739.9   1
   1   0   1 662861. 20183.7   6
   1   0   1 800876. 19864.5   1
   1   0   1 783274. 20259.8   5
  -1   0  -2 2300.86 378.400   1
  -1   0  -2 1975.34 463.525   4
   1   0   2 1884.85 453.091   5
   1   0   2 2053.96 362.566   1
   1   0   3 383379. 12047.8   3
  -1   0  -3 379447. 11333.8   1
   1   0   3 380681. 12022.8   5
  -1   0  -4 1154.83 365.817   1
   1   0   4 2004.39 687.285   5
   1   0   4 1227.84 393.565   3
  -1   0  -5 59674.5 3298.61   1
   1   0   5 56007.8 3769.02   5
   1   0   5 60463.6 3909.45   3
  -1   0  -6 6134.06 1039.66   1
   1   0   6 6031.84 1324.56   5
   1   0   6 7857.89 1434.52   3
  -1   0  -7 6072.61 1164.43   1
   1   0   7 4938.67 1184.37   5
   1   0   7 5052.78 1247.53   3
   1   0   8 58677.9 4910.14   5
   1   0   8 63363.9 5087.94   3
   1   0   9 2333.69 1043.80   3
   1   0   9 3278.25 1187.48   5
   1   0  10 10502.0 2305.89   3
  -1   1  10 5464.46 1522.33   3
  -1  -1  10 6472.23 1694.63   3
  -1  -1  10 6626.07 1874.33   5
  -1   1  10 4492.75 1503.67   5
  -1  -1   9 22047.9 2732.04   3
   1   1  -9 20866.5 2581.00   1
  -1   1   9 19744.3 2865.98   5
  -1  -1   9 22591.3 3024.66   5
  -1   1   9 19379.5 2569.59   3
  -1   1   8 9253.89 1798.14   4
   1   1  -8 8765.85 1567.52   1
  -1   1   8 12945.3 1915.20   3
  -1  -1   8 9074.04 1600.61   3
  -1   1   8 10340.6 1894.06   5
   1  -1  -8 7812.71 1411.88   1
  -1  -1   8 7731.16 1565.61   4
  -1  -1   8 8670.79 1717.40   5
  -1   1   7 47627.8 3449.15   3
  -1  -1   7 35023.4 3208.23   5
  -1   1   7 44618.9 3558.82   5
  -1   1   7 45199.0 3707.17   4
   1   1  -7 47968.1 3424.81   1
  -1  -1   7 36479.0 3010.70   3
  -1  -1   7 31628.9 2943.41   4
  -1   1   6 10736.2 1543.72   5
  -1  -1   6 12000.9 1466.23   3
  -1   1   6 11050.8 1467.16   3
  -1   1   6 9192.20 1499.40   4
  -1  -1   6 9993.71 1532.91   5
  -1  -1   6 11365.0 1533.25   4
  -1   1   5 111013. 5120.68   5
   1  -1  -5 110887. 3848.93   2
  -1  -1   5 109723. 4999.25   4
  -1   1   5 118440. 5026.54   3
  -1  -1   5 108905. 5150.59   5
  -1   1   5 106704. 5339.34   4
  -1   1   4 24151.2 1926.60   5
  -1  -1   4 32051.5 2174.88   5
  -1   1   4 23743.2 1792.60   6
  -1   1   4 25359.7 1818.70   3
   1  -1  -4 31040.6 1364.32   2
  -1   1   3 227472. 7047.35   3
  -1   1   3 229865. 7332.30   5
   1   1  -3 223886. 6798.58   2
   1  -1  -3 218768. 6195.97   2
  -1   1   3 228446. 7012.28   6
   1  -1  -3 222774. 7035.62   6
  -1  -1   3 220114. 7315.78   5
   1  -1  -3 229821. 6936.95   3
   1  -1  -2 296866. 8020.44   5
   1  -1  -2 276037. 7576.56   3
  -1  -1   2 283198. 7909.82   5
   1   1  -2 254109. 7791.27   5
   1  -1  -2 266919. 7655.21   6
  -1   1   2 246992. 7865.39   5
   1  -1  -2 266876. 7655.70   1
   1   1  -2 251030. 7608.85   2
  -1   1   2 247812. 7530.42   6
  -1  -1   2 286900. 7748.70   2
  -1  -1  -1 106552. 4109.67   3
   1  -1   1 122349. 4283.83   5
   1  -1   1 122067. 4277.16   1
  -1   1  -1 129439. 4210.56   1
   1   1   1 120356. 4291.90   6
  -1  -1  -1 117124. 4071.61   5
  -1  -1  -1 107181. 4193.39   6
   1   1   1 125417. 4307.95   3
   1   1   1 129308. 4113.47   5
  -1   1  -1 138256. 4393.35   5
   1   1   2 242278. 7735.49   5
  -1   1  -2 243385. 7687.71   1
   1  -1   2 257108. 7756.72   1
  -1  -1  -2 251599. 6965.13   1
   1   1   2 217808. 7903.05   6
   1   1   2 224128. 7866.21   3
   1  -1   2 241076. 7907.77   5
  -1   1  -2 238897. 7628.89   4
   1  -1   3 642.021 416.398   5
  -1  -1  -3 615.133 183.469   1
   1   1   3 784.549 409.942   5
   1   1   3 868.562 421.248   3
   1   1   3 240.863 288.965   6
  -1   1  -3 498.991 235.859   1
   1  -1   4 57745.0 3538.75   5
   1   1   4 60148.4 3784.40   6
   1   1   4 67862.8 3690.74   5
   1   1   4 65727.1 3791.55   3
  -1  -1  -4 52597.0 2740.43   1
  -1   1  -4 67423.1 3460.72   1
   1   1   5 28660.0 2572.87   5
  -1  -1  -5 31459.3 2153.61   1
  -1   1  -5 29712.6 2394.43   1
   1   1   5 27847.9 2632.31   3
   1  -1   5 33188.8 2780.08   3
   1  -1   5 32990.7 2783.45   5
   1  -1   6 67372.0 4521.12   3
  -1  -1  -6 67107.8 3694.93   1
  -1   1  -6 71794.9 4191.41   1
   1   1   6 67227.4 4517.98   5
   1   1   6 68365.6 4600.13   3
   1  -1   6 59653.0 4286.51   5
   1   1   7 2959.92 1032.45   3
   1  -1   7 3322.84 1048.79   5
  -1   1  -7 5552.12 1213.46   1
   1   1   7 5115.65 1312.79   5
   1  -1   7 5268.72 1227.51   3
   1   1   8 4822.72 1328.95   5
   1  -1   8 6525.05 1587.35   5
   1   1   8 5727.81 1614.20   3
   1  -1   8 5776.66 1518.66   3
   1  -1   9 13668.5 2533.08   3
   1   1   9 18615.6 2863.81   5
   1  -1   9 12681.8 2434.61   5
   1  -1  10 51.3665 867.921   3
   1   1  10 699.951 995.987   3
  -1   2  10 13888.1 2336.06   3
  -1  -2  10 10873.0 2334.15   5
  -1  -2  10 13300.0 2309.69   3
  -1   2  10 14242.9 2702.80   5
  -1   2   9 2764.82 1035.64   3
  -1  -2   9 3119.11 1147.66   3
  -1  -2   9 1496.19 875.465   5
  -1   2   9 2290.22 966.706   5
   1   2  -9 1365.09 867.323   1
  -1   2   9 2895.81 1123.14   4
  -1  -2   8 19924.3 2664.46   5
  -1  -2   8 21771.4 2468.60   3
  -1   2   8 20591.3 2626.62   5
  -1   2   8 25243.7 2770.60   3
  -1   2   8 21438.6 2837.57   4
   1  -2  -8 19540.4 2096.44   1
   1   2  -8 23090.0 2588.18   1
  -1  -2   7 4288.18 1043.13   4
  -1   2   7 6058.91 1220.46   5
   1   2  -7 6172.49 1237.93   1
  -1  -2   7 5547.85 1118.40   3
  -1   2   7 6049.30 1445.30   4
  -1   2   7 5843.96 1206.25   3
  -1  -2   7 4913.59 1181.12   5
  -1   2   6 34739.5 2937.88   5
  -1   2   6 34216.0 3161.79   4
  -1  -2   6 54542.8 3621.79   5
  -1   2   6 36673.0 2936.00   3
  -1  -2   6 54847.1 3304.61   4
   1   2  -6 31086.3 2819.36   1
  -1   2   6 34457.9 2861.23   6
   1  -2  -6 54832.8 2094.17   2
  -1   2   5 73566.5 3805.97   6
  -1  -2   5 71617.5 3928.30   5
  -1   2   5 72588.3 4263.11   4
  -1   2   5 76841.9 3972.76   5
  -1   2   5 77428.4 3913.30   3
   1  -2  -5 64777.3 2379.37   2
  -1  -2   5 66050.5 3493.73   4
  -1   2   4 178046. 5945.57   6
  -1   2   4 176504. 6171.41   5
  -1  -2   4 155512. 5951.37   5
  -1   2   4 173121. 6595.56   4
  -1   2   4 178640. 6041.83   3
   1  -2  -3 24931.7 1443.27   1
  -1   2   3 39571.8 2048.17   5
   1  -2  -3 28896.3 1850.95   6
  -1   2   3 38087.3 1994.25   6
  -1  -2   3 28114.0 1798.67   5
   1  -2  -3 28639.8 1728.56   3
  -1  -2   2 240440. 7532.09   5
   1   2  -2 262900. 7529.54   5
   1  -2  -2 240647. 7656.28   5
  -1   2   2 269913. 7700.61   5
  -1   2   2 283335. 7424.97   1
  -1   2   2 260618. 7712.80   6
   1   2  -2 265231. 7664.53   2
   1  -2  -2 251118. 7364.18   1
  -1  -2   2 243557. 7640.51   2
   1   2  -1 46437.0 1498.24   5
   1   2  -1 49097.1 1792.05   2
  -1   2   1 47923.4 1721.30   1
   1   2   0 512907. 15157.7   6
   1  -2   0 566307. 15222.5   1
  -1  -2   0 545014. 15280.0   6
  -1   2   0 521180. 15061.9   1
   1   2   0 522081. 14709.0   2
  -1   2  -1 228808. 7353.96   1
  -1  -2  -1 245007. 7579.87   4
  -1  -2  -1 221805. 7496.62   6
  -1  -2  -1 230335. 7337.52   3
   1  -2   1 257214. 7637.84   1
   1   2   1 211852. 7341.14   3
   1   2   1 226586. 6824.40   5
   1   2   1 229320. 7458.02   6
  -1   2  -1 228740. 7231.57   5
  -1  -2  -1 241022. 6859.84   5
  -1  -2  -1 234837. 6668.34   2
   1  -2   2 195777. 6657.39   5
   1   2   2 178075. 6666.63   6
  -1   2  -2 192353. 6658.24   1
   1   2   2 175873. 6679.17   3
   1   2   2 194607. 6323.73   5
  -1   2  -2 194072. 6112.28   4
   1   2   3 66797.0 3500.35   5
  -1   2  -3 70821.7 3656.89   1
   1   2   3 65811.2 3745.52   6
   1  -2   3 84706.2 3965.57   5
   1   2   3 66883.2 3741.92   3
  -1  -2  -3 85465.1 2780.77   1
   1   2   4 24567.6 2307.50   6
   1  -2   4 29723.8 2465.05   5
  -1  -2  -4 31421.9 1706.31   1
  -1   2  -4 28173.7 2287.19   1
   1   2   4 27353.9 2404.02   3
   1   2   4 28347.9 2282.13   5
  -1   2  -5 105547. 5148.66   1
   1   2   5 96914.6 5372.78   3
  -1  -2  -5 98090.7 4070.84   1
   1   2   5 103314. 5226.56   5
   1   2   5 94092.9 5455.51   6
   1  -2   5 93306.7 5210.92   5
   1  -2   6 51325.1 3964.13   5
   1  -2   6 57395.8 4109.49   3
  -1   2  -6 54158.4 3828.73   1
  -1  -2  -6 52142.2 2978.74   1
   1   2   6 53272.7 4071.10   3
   1   2   6 53785.1 3928.51   5
   1   2   7 35922.6 3450.98   5
   1   2   7 32725.8 3467.30   3
   1  -2   7 37821.2 3559.20   5
   1  -2   7 42964.3 3800.65   3
  -1   2  -7 36680.9 3259.46   1
   1  -2   8 3958.37 1306.47   5
   1   2   8 1718.79 829.953   5
   1  -2   8 4599.03 1364.16   3
   1   2   8 2641.05 1147.63   3
   1  -2   9 727.327 783.893   5
   1   2   9 1056.96 623.074   3
   1   2   9 1651.73 909.949   5
   1  -2   9 2133.93 1094.86   3
  -1   3  10 8738.42 2020.13   5
   1   3 -10 8097.05 1917.88   1
  -1  -3  10 5972.57 1824.36   5
  -1   3   9 19997.9 2837.41   5
  -1  -3   9 21929.4 3034.04   5
   1   3  -9 21954.7 2839.55   1
  -1   3   9 20669.9 3114.78   4
  -1  -3   9 27580.6 3038.19   3
  -1  -3   8 5994.21 1358.12   3
  -1   3   8 8300.15 1688.68   5
   1   3  -8 6913.76 1406.68   1
  -1   3   8 7982.54 1766.18   4
  -1  -3   8 6995.05 1555.99   5
  -1   3   7 65765.3 4381.93   6
  -1  -3   7 67310.8 4618.98   5
   1   3  -7 65072.9 4415.27   1
  -1   3   7 69437.4 4525.89   5
  -1  -3   7 66854.2 3983.58   4
  -1   3   7 60391.0 4688.50   4
  -1   3   6 4887.62 1045.49   5
   1   3  -6 4589.63 1069.92   1
  -1  -3   6 4572.16 1052.63   5
  -1   3   6 4656.39 967.367   6
  -1  -3   6 4744.08 936.177   4
  -1   3   6 4027.76 1144.22   4
   1   3  -5 77535.7 4410.50   1
  -1   3   5 76933.8 4116.20   5
  -1   3   5 79831.6 4149.42   6
  -1  -3   5 87023.8 3826.57   4
  -1   3   5 73532.7 4613.47   4
  -1  -3   5 90284.9 4478.27   5
  -1   3   4 100520. 5067.68   4
  -1   3   4 108912. 4595.90   5
  -1   3   4 105765. 4599.96   6
  -1  -3   4 100863. 4553.88   5
   1   3  -4 108791. 4951.32   1
   1  -3  -3 379738. 11332.6   1
   1   3  -3 416364. 12484.8   1
  -1  -3   3 375670. 11816.0   5
  -1   3   3 419614. 11898.0   5
  -1   3   3 423953. 12187.7   6
  -1   3   2 290776. 8556.95   1
  -1   3   2 266811. 9240.06   6
  -1  -3   2 345549. 9386.50   2
  -1   3   2 254705. 7965.21   2
  -1  -3   2 329662. 8814.67   5
   1  -3  -2 333356. 8839.02   1
  -1   3   2 274480. 8790.47   5
   1   3  -2 277862. 8578.97   5
   1   3  -2 293151. 9311.22   1
   1  -3  -1 80878.7 3316.64   1
  -1  -3   1 83495.3 3347.20   2
   1   3  -1 98451.4 2835.47   5
  -1   3   1 94780.6 3379.28   1
   1   3  -1 99727.7 3573.47   1
   1   3  -1 102121. 3454.36   2
  -1  -3   1 82619.5 2762.83   5
   1   3   0 806501. 21204.1   1
   1  -3   0 768182. 21827.5   1
  -1   3   0 799757. 21831.4   1
  -1  -3   0 801699. 21358.1   2
   1   3   0 836246. 21340.5   2
  -1  -3  -1 51678.6 1902.92   5
  -1   3  -1 43516.3 2502.58   1
   1   3   1 43356.7 1857.29   5
  -1  -3  -1 55207.4 2091.70   2
   1   3   1 46380.7 2598.15   6
   1   3   1 43557.1 1899.26   2
  -1   3  -1 45423.3 2268.77   5
  -1   3  -2 505650. 15280.7   1
   1   3   2 500181. 15364.6   6
   1  -3   2 513525. 15093.1   5
  -1  -3  -2 460506. 13816.5   2
   1   3   2 507080. 14449.1   5
  -1  -3  -2 517970. 14408.6   5
   1   3   3 16187.5 1710.71   3
   1  -3   3 16705.4 1629.03   5
   1   3   3 16457.7 1464.33   5
  -1  -3  -3 16015.6 697.504   1
   1   3   3 17036.7 1742.65   6
  -1   3  -3 17068.2 1700.40   1
  -1  -3  -3 16762.0 1040.27   2
  -1  -3  -3 13184.5 726.062   1
  -1   3  -3 16683.3 1313.34   4
   1   3   4 52060.8 3614.36   3
   1  -3   4 60305.3 3632.71   5
   1   3   4 54431.4 3286.69   5
  -1  -3  -4 56476.9 2066.73   1
  -1  -3  -4 59515.3 2293.72   1
  -1   3  -4 55698.0 3542.70   1
   1   3   4 53102.9 3555.28   6
  -1  -3  -5 29520.1 1710.65   1
  -1   3  -5 30473.3 2682.09   1
   1   3   5 30201.0 2595.57   5
   1  -3   5 28086.8 2640.75   5
   1   3   5 26631.4 2719.61   6
   1   3   5 31350.5 2910.13   3
   1  -3   6 30174.2 3017.42   5
   1   3   6 37188.3 3444.64   3
   1   3   6 34589.8 3082.47   5
  -1   3  -6 34234.1 3060.25   1
   1   3   6 33809.1 3321.54   6
   1   3   7 28127.1 3016.84   5
   1  -3   7 31681.8 3272.80   3
  -1   3  -7 28732.2 2920.96   1
   1   3   7 29513.0 3317.80   3
   1  -3   7 27458.6 3126.37   5
   1   3   8 10552.7 2115.28   3
   1  -3   8 7652.48 1659.55   3
   1   3   8 4710.60 1436.29   5
  -1   3  -8 6343.60 1433.99   1
   1  -3   8 6725.43 1660.55   5
   1  -3   9 18224.2 2912.59   5
   1   3   9 10426.0 2346.99   3
   1  -3   9 18362.7 2994.57   3
   1   3   9 14977.5 2558.94   5
  -1   4  10 5705.94 1694.52   5
   1   4 -10 4282.94 1277.59   1
  -1  -4  10 5070.14 1632.53   5
  -1   4   9 4458.32 1467.70   4
  -1  -4   9 6676.00 1496.57   3
   1   4  -9 5849.79 1471.38   1
  -1  -4   9 2713.70 1097.70   5
  -1   4   9 4903.19 1466.66   5
  -1   4   8 22761.4 2764.26   6
  -1   4   8 21413.8 2977.85   4
  -1  -4   8 23509.4 2935.92   5
   1   4  -8 24973.7 2930.74   1
  -1   4   8 24038.8 2791.79   5
   1   4  -7 8222.49 1537.45   1
  -1  -4   7 9265.95 1662.09   5
  -1   4   7 6463.25 1315.40   6
  -1   4   7 6792.72 1393.88   5
  -1   4   7 7400.27 1614.11   4
  -1   4   6 88509.2 4717.08   6
   1   4  -6 79900.7 4880.17   1
  -1   4   6 81780.5 5260.32   4
  -1  -4   6 68262.9 4417.53   5
  -1   4   6 80577.4 4525.51   5
  -1  -4   6 67729.8 3582.17   4
  -1  -4   5 4417.19 680.042   4
  -1   4   5 4323.77 1047.29   4
   1   4  -5 5316.27 1092.78   1
  -1  -4   5 5101.66 961.069   5
  -1   4   5 5664.95 1038.74   6
  -1   4   5 6386.87 1080.28   5
   1   4  -4 81903.2 4344.84   1
  -1   4   4 90620.1 4262.39   6
  -1   4   4 84456.0 4597.20   4
  -1  -4   4 75473.3 3031.00   4
  -1   4   4 83622.8 3883.28   5
  -1  -4   4 77824.6 3893.55   5
  -1   4   3 55186.2 2392.54   1
  -1   4   3 53525.8 2666.23   5
  -1  -4   3 63709.0 2912.55   5
   1   4  -3 54633.0 3195.34   1
  -1   4   3 56227.2 3162.53   6
   1  -4  -3 58765.7 2576.66   1
   1   4  -2 24070.4 1310.92   5
   1  -4  -2 18700.4 1346.01   1
   1   4  -2 24741.0 1826.59   1
  -1  -4   2 17784.1 1202.57   5
  -1  -4   2 18097.9 1503.81   2
  -1   4   2 23761.0 1130.21   2
  -1   4   2 24843.7 1448.38   5
  -1   4   2 23522.5 1365.27   1
  -1  -4   1 479604. 14089.6   2
   1   4  -1 482242. 12997.2   5
   1   4  -1 496701. 14260.5   1
  -1   4   1 494945. 14090.3   1
  -1  -4   1 463202. 13003.4   5
  -1  -4   0 343566. 9867.61   2
   1   4   0 336399. 9726.15   2
   1   4   0 323552. 9751.19   1
  -1  -4   0 332141. 9951.65   4
  -1   4   0 314696. 10216.2   1
  -1  -4  -1 191539. 5890.34   1
   1   4   1 204902. 6276.26   2
  -1  -4  -1 199242. 6257.20   2
  -1   4  -1 206061. 7267.89   1
   1   4   1 205131. 5876.44   5
   1   4   1 211216. 5944.19   1
  -1  -4  -1 192351. 5755.24   5
   1   4   1 207243. 7404.09   6
  -1  -4  -2 57842.8 2488.19   5
  -1   4  -2 52371.3 3172.67   1
  -1  -4  -2 57559.1 2358.59   2
   1   4   2 52049.4 2471.90   5
   1   4   2 56543.0 3287.31   6
   1   4   3 50526.6 2754.61   5
  -1  -4  -3 51446.6 2200.87   2
   1  -4   3 46132.7 3026.52   5
  -1   4  -3 47613.6 3230.17   1
   1   4   3 50260.9 3321.38   6
  -1   4  -3 51206.3 2309.15   4
  -1  -4  -4 33216.6 1257.80   1
   1   4   4 37858.9 2584.91   5
   1  -4   4 38659.2 2857.35   5
   1   4   4 37680.9 2951.62   6
  -1   4  -4 39563.2 3002.77   1
  -1  -4  -4 38977.9 1799.95   2
  -1  -4  -4 30841.2 1305.94   1
   1   4   5 87260.0 4638.32   5
   1   4   5 90077.3 5218.42   6
   1  -4   5 84100.1 4860.41   5
  -1  -4  -5 75356.8 2858.69   1
  -1   4  -5 89020.2 5032.04   1
  -1  -4  -5 77103.9 3067.63   2
  -1   4  -6 50295.8 3908.29   1
   1   4   6 42383.0 3808.15   6
   1   4   6 47699.6 3641.03   5
   1   4   6 48402.0 4092.43   3
   1  -4   7 17547.2 2519.45   5
  -1   4  -7 18895.5 2498.11   1
   1   4   7 19369.0 2451.74   5
   1   4   7 18845.2 2703.04   6
   1  -4   8 8152.28 1859.84   5
   1  -4   8 10123.1 2019.74   3
   1   4   8 9798.50 1874.06   5
  -1   4  -8 9160.28 1878.67   1
   1   4   9 5266.96 1621.12   5
   1  -4   9 7472.14 1892.95   3
   1  -4   9 6366.78 1809.50   5
  -1  -5  10 3027.03 1388.93   5
  -1   5  10 684.433 798.446   5
   1   5 -10 986.042 602.969   1
   1   5  -9 20176.0 2906.35   1
  -1   5   9 16724.3 2528.64   6
  -1  -5   9 15533.6 2637.94   5
  -1   5   9 15817.5 2425.89   5
  -1   5   9 20609.0 3140.09   4
  -1   5   8 5484.96 1627.27   4
  -1   5   8 3561.23 1058.89   6
  -1   5   8 3339.08 1081.63   5
   1   5  -8 4597.59 1296.10   1
  -1  -5   8 4499.60 1341.57   5
  -1   5   7 45120.2 3657.32   5
  -1   5   7 50639.9 3921.05   6
   1   5  -7 47130.5 3998.87   1
  -1  -5   7 47444.8 3943.91   5
  -1   5   7 49348.5 4401.41   4
   1   5  -6 651.909 499.013   1
  -1  -5   6 202.730 355.041   5
  -1   5   6 830.710 702.824   6
  -1   5   6 450.420 654.774   4
  -1   5   6 430.111 368.432   5
  -1   5   5 47559.8 3319.09   6
  -1  -5   5 55634.7 3489.88   5
   1   5  -5 42338.4 3412.45   1
  -1   5   5 46070.4 3025.62   5
  -1   5   5 44637.4 3673.64   4
  -1  -5   4 26485.6 2098.00   5
  -1   5   4 25702.1 1940.08   5
   1   5  -4 25579.7 2312.81   1
  -1   5   4 27898.8 2314.64   6
  -1  -5   4 22290.6 1162.56   4
  -1   5   4 28850.8 2602.05   4
  -1   5   3 30388.3 1700.06   1
  -1   5   3 32284.4 2465.07   6
   1   5  -3 28684.7 2347.59   1
  -1   5   3 30079.6 1880.51   5
  -1   5   3 27734.0 2380.61   4
  -1   5   3 26636.7 1203.73   2
  -1   5   2 165098. 5618.03   1
   1   5  -2 168942. 5300.44   5
  -1   5   2 171435. 5518.44   5
   1   5  -2 171226. 6504.82   1
  -1  -5   2 148648. 5306.83   5
  -1   5   2 169697. 5236.79   2
  -1  -5   1 68559.0 2469.88   5
   1   5  -1 88681.0 2519.11   5
   1   5  -1 91986.6 3891.53   1
  -1  -5   1 73865.2 3470.72   2
  -1   5   1 94441.1 3757.06   1
  -1  -5   1 72372.1 2950.07   4
  -1  -5   0 206419. 6675.29   2
  -1   5   0 183001. 6994.25   1
   1   5   0 187153. 6596.04   1
  -1  -5   0 209510. 6661.31   1
   1   5   1 63738.6 3733.24   6
  -1  -5  -1 73420.6 3022.59   2
   1   5   1 63405.5 2257.30   5
  -1   5  -1 68422.6 3635.66   1
  -1  -5  -1 68444.9 2740.34   1
   1   5   1 66302.8 2702.77   1
  -1  -5  -1 66864.1 2244.88   5
   1   5   2 36209.9 1467.91   1
  -1  -5  -2 45671.7 2029.66   5
  -1  -5  -2 48365.4 2134.42   2
   1   5   2 36126.6 1938.04   5
  -1  -5  -2 41086.2 1695.22   1
  -1   5  -2 36611.0 2747.09   1
   1   5   2 35941.4 2752.21   6
   1   5   3 9526.57 1438.90   6
   1   5   3 8757.95 1030.92   5
   1  -5   3 7962.92 1193.65   5
  -1   5  -3 8113.48 1368.90   1
  -1  -5  -3 8933.03 818.654   2
  -1  -5  -4 88223.4 3304.89   2
   1  -5   4 86099.1 4750.47   5
   1   5   4 85215.2 4244.65   5
   1   5   4 86485.4 4997.13   6
  -1   5  -4 89122.6 5019.58   1
   1   5   5 11894.7 1823.44   6
  -1  -5  -5 10032.3 879.737   2
   1   5   5 10969.0 1498.92   5
   1  -5   5 11691.0 1713.20   5
  -1   5  -5 11862.1 1807.92   1
   1   5   6 16619.6 2379.92   6
  -1   5  -6 18568.2 2421.51   1
   1  -5   6 23275.4 2691.86   5
   1   5   6 19384.3 2251.21   5
   1   5   7 14906.0 2169.19   5
   1   5   7 14700.2 2455.06   6
   1  -5   7 13061.0 2274.88   5
  -1   5  -7 15974.0 2344.85   1
   1   5   8 4170.21 1339.66   6
  -1   5  -8 5268.84 1374.69   1
   1   5   8 4273.87 1271.87   5
   1  -5   8 5883.23 1639.02   5
   1  -5   9 7092.67 1746.36   5
   1   5   9 6425.49 1752.85   5
   1  -5   9 10662.8 2348.59   3
   1   6 -10 3816.13 1435.09   1
  -1   6  10 3738.07 1406.44   5
   1   6  -9 6517.43 1806.04   1
  -1   6   9 5969.87 1612.86   6
  -1   6   9 5126.90 1381.40   5
  -1  -6   9 8969.97 2021.10   5
   1   6  -8 8666.37 1837.60   1
  -1   6   8 6224.10 1797.72   4
  -1   6   8 8056.48 1659.88   5
  -1  -6   8 8531.52 1770.34   5
  -1   6   8 10549.6 1896.72   6
  -1   6   7 7755.21 1537.14   6
   1   6  -7 8740.27 1675.65   1
  -1  -6   7 7301.79 1585.17   5
  -1   6   7 7455.79 1417.39   5
  -1   6   7 8827.96 1871.05   4
   1   6  -6 107382. 6225.58   1
  -1   6   6 109723. 5905.63   6
  -1   6   6 104826. 5402.68   5
  -1   6   6 102749. 6446.46   4
  -1  -6   6 112680. 5927.11   5
  -1   6   5 41260.0 3229.50   6
   1   6  -5 38165.4 3286.35   1
  -1   6   5 39365.0 2743.77   5
  -1  -6   5 43366.1 3113.36   5
  -1   6   5 37539.8 3445.93   4
  -1   6   4 146827. 5128.63   1
  -1  -6   4 141861. 5934.18   5
  -1   6   4 145089. 5693.28   5
  -1   6   4 150745. 6696.65   6
   1   6  -4 134688. 6566.54   1
  -1   6   4 135196. 6790.56   4
  -1   6   3 20969.2 1526.23   5
  -1   6   3 21529.8 1471.25   1
  -1  -6   3 21319.5 1653.35   5
  -1   6   3 22299.6 2205.28   6
   1   6  -3 19988.9 2002.55   1
  -1   6   3 19683.8 2072.99   4
  -1   6   3 19496.8 1126.76   2
  -1   6   2 119883. 5332.50   4
   1   6  -2 117060. 5411.16   1
  -1   6   2 115356. 4578.07   1
  -1  -6   2 121861. 3762.77   4
  -1  -6   2 127364. 4295.15   5
  -1   6   2 120607. 4328.76   5
   1   6  -2 115689. 4074.84   5
  -1   6   2 121467. 4317.66   2
   1   6  -1 92374.4 2706.84   5
   1   6  -1 97880.4 4394.37   1
  -1   6   1 97760.4 4200.09   1
  -1  -6   1 75040.3 3285.25   4
  -1  -6   1 73776.2 3814.09   2
  -1   6   0 7490.79 1101.44   1
   1   6   0 7943.92 976.068   1
  -1  -6  -1 402449. 11740.7   2
  -1  -6  -1 406498. 11640.5   1
  -1   6  -1 374197. 12819.4   1
   1   6   1 371049. 13156.7   6
   1   6   1 376746. 11453.0   1
  -1  -6  -2 12570.8 962.457   1
  -1  -6  -2 14805.0 1221.56   2
   1   6   2 12470.5 1681.65   6
   1   6   2 13093.3 1009.80   5
  -1  -6  -2 13095.0 990.589   5
   1   6   2 13705.4 886.581   1
  -1   6  -2 14732.0 1764.59   1
  -1  -6  -3 173723. 5322.91   1
  -1   6  -3 169250. 7710.30   1
   1   6   3 176247. 7920.47   6
   1   6   3 179284. 6412.79   5
  -1   6  -4 8202.81 1455.27   1
   1   6   4 7227.17 1388.40   6
  -1  -6  -4 5332.41 643.059   2
   1   6   4 6779.47 1025.84   5
   1   6   5 12583.9 1612.08   5
   1  -6   5 13304.2 1875.69   5
   1   6   5 12827.9 2040.94   6
  -1   6  -5 12655.0 1941.06   1
   1   6   6 18237.2 2150.10   5
  -1   6  -6 18087.1 2415.61   1
   1   6   6 18480.1 2596.23   6
   1  -6   6 24768.6 2821.87   5
   1   6   7 13647.7 2034.96   5
   1   6   7 12666.8 2307.86   6
   1  -6   7 17747.3 2569.66   5
  -1   6  -7 14297.8 2358.07   1
  -1   6  -8 10879.0 2077.58   1
   1   6   8 13315.6 2510.33   6
   1  -6   8 11022.6 2229.09   5
   1   6   8 11120.8 2034.83   5
   1   6   9 4400.09 1501.32   5
  -1   6  -9 2931.56 1279.76   1
  -1   7  10 3837.55 1382.39   5
   1   7  -9 1824.93 1047.42   1
  -1   7   9 1391.56 951.057   6
  -1   7   9 2601.10 1032.17   5
  -1  -7   9 3008.93 1065.49   5
  -1   7   8 1319.60 1115.40   4
  -1  -7   8 1335.01 698.087   5
   1   7  -8 551.233 627.726   1
  -1   7   8 2280.65 871.931   5
  -1   7   8 2264.44 1002.08   6
  -1   7   7 7575.59 1833.29   4
  -1   7   7 4985.64 1095.67   5
  -1   7   7 4931.42 1177.64   6
  -1  -7   7 2562.38 905.833   5
   1   7  -7 4907.16 1389.72   1
  -1   7   6 1124.67 534.329   5
   1   7  -6 904.207 626.885   1
  -1   7   6 1018.78 603.071   6
  -1  -7   6 772.204 639.209   5
  -1   7   6 351.570 466.235   4
  -1   7   5 142327. 5941.83   5
  -1  -7   5 126472. 6168.15   5
   1   7  -5 136132. 7188.06   1
  -1   7   5 132814. 7275.07   4
  -1   7   5 147855. 7092.30   6
  -1   7   4 8721.17 959.727   1
  -1   7   4 9166.04 1543.82   6
  -1  -7   4 6126.16 1019.98   5
  -1   7   4 6903.07 976.550   5
   1   7  -4 8782.29 1503.88   1
  -1   7   4 6930.58 1402.16   4
  -1   7   3 167782. 5552.85   2
  -1   7   3 174232. 6002.02   5
  -1   7   3 177740. 7632.96   4
   1   7  -3 176495. 7621.22   1
  -1   7   3 173144. 6092.97   1
  -1   7   3 187386. 7935.16   6
  -1  -7   3 165853. 6172.82   5
  -1   7   2 33066.5 2563.57   4
  -1   7   2 34780.7 1870.82   5
  -1   7   2 31361.0 2133.88   1
   1   7  -2 33130.5 1683.14   5
   1   7  -2 36098.9 2768.85   1
   1   7  -1 49398.1 3104.14   1
   1   7  -1 41935.5 1492.79   5
  -1   7   1 49104.7 2941.08   1
  -1   7   1 50922.2 2921.03   4
   1   7   0 165285. 6320.32   1
  -1   7   0 174669. 5851.39   4
  -1   7   0 169341. 6853.79   1
   1   7   1 2792.34 501.164   1
  -1   7  -1 2091.25 361.551   4
   1   7   1 1883.72 694.398   6
  -1  -7  -1 1154.80 328.531   2
  -1   7  -1 2097.89 707.596   1
  -1   7  -2 177729. 7567.27   1
   1   7   2 183952. 5596.23   1
   1   7   2 176349. 5404.41   5
  -1  -7  -2 153779. 5338.27   5
  -1  -7  -2 164230. 5760.89   1
   1   7   2 186713. 8025.06   6
  -1  -7  -2 162384. 5960.78   2
  -1  -7  -3 16483.5 1055.14   1
  -1  -7  -3 15728.9 1284.35   2
   1   7   3 15104.9 2047.98   6
  -1   7  -3 15328.6 1972.08   1
   1   7   3 14294.9 1293.36   5
   1   7   3 15927.7 911.264   1
   1   7   4 37083.2 3468.99   6
  -1   7  -4 35923.2 3287.06   1
  -1  -7  -4 43853.4 2170.43   2
   1   7   4 36480.8 2528.46   5
  -1   7  -5 30101.5 3126.00   1
   1   7   5 29226.6 2504.94   5
   1   7   5 34014.5 3376.27   6
   1   7   6 47793.7 4311.61   6
   1   7   6 46324.8 3541.80   5
  -1   7  -6 47468.0 4160.16   1
   1   7   7 8796.92 1921.29   6
   1   7   7 6762.42 1439.75   5
  -1   7  -7 10242.4 2030.87   1
   1   7   8 4263.16 1226.94   5
  -1   7  -8 4667.99 1478.80   1
   1   7   8 5731.75 1810.11   6
  -1   7  -9 5306.67 1725.40   1
  -1   8   9 3021.24 1114.07   6
  -1  -8   9 2414.28 1090.89   5
   1   8  -9 3488.22 1595.46   1
  -1   8   8 27995.3 3362.67   6
  -1  -8   8 31838.5 3546.40   5
  -1   8   8 24858.2 2887.32   5
   1   8  -8 29374.6 3716.61   1
  -1   8   8 28048.0 3792.95   4
   1   8  -7 4588.63 1325.46   1
  -1   8   7 5543.80 1568.02   6
  -1   8   7 4566.39 1492.68   4
  -1  -8   7 4693.44 1259.83   5
  -1   8   7 4844.44 1127.77   5
  -1   8   6 12391.2 1660.20   5
  -1   8   6 14276.1 2137.21   6
  -1  -8   6 18254.5 2187.85   5
   1   8  -6 12909.5 2139.81   1
  -1   8   6 9386.84 1980.36   4
   1   8  -5 54507.4 4305.13   1
  -1   8   5 47826.3 3073.90   5
  -1  -8   5 50108.8 3474.95   5
  -1   8   5 49186.2 4205.32   4
  -1   8   5 52308.1 4082.40   6
   1   8  -4 59167.2 4331.16   1
  -1   8   4 60471.1 2916.17   1
  -1   8   4 65012.3 4477.08   6
  -1   8   4 58924.1 3131.09   5
  -1   8   4 58807.4 4283.61   4
   1   8  -3 55121.2 3943.72   1
  -1   8   3 60772.8 4291.48   6
  -1   8   3 55000.9 2698.69   5
  -1   8   3 54066.9 2900.42   1
  -1   8   3 58688.4 4011.66   4
  -1   8   2 40776.2 2660.54   1
  -1   8   2 42290.2 2110.17   5
   1   8  -2 40815.2 1915.75   5
  -1   8   2 43389.8 3089.44   4
   1   8  -2 40925.0 3164.63   1
  -1   8   1 50266.5 3057.59   4
  -1   8   1 47104.7 3116.77   1
   1   8  -1 47039.2 3198.90   1
   1   8   0 22106.8 1991.10   1
  -1   8   0 21619.6 2206.30   1
  -1  -8   0 28103.2 2156.16   2
  -1   8   0 22784.3 1697.78   4
  -1  -8  -1 111239. 4868.41   2
  -1   8  -1 124721. 6009.47   1
  -1   8  -1 107902. 3880.48   4
   1   8   1 117516. 4909.21   1
   1   8   1 127278. 6494.56   6
  -1  -8  -2 7736.59 1022.73   2
   1   8   2 8381.12 911.144   1
  -1   8  -2 9364.52 1524.74   1
   1   8   2 9159.47 1648.05   6
   1   8   3 27774.6 1422.01   1
  -1   8  -3 24410.3 2657.98   1
  -1  -8  -3 24968.3 1795.28   2
   1   8   3 28663.5 2962.49   6
   1   8   3 25772.7 1705.67   5
  -1   8  -4 27843.7 3036.03   1
   1   8   4 32364.4 3303.94   6
   1   8   4 30881.8 2224.78   5
  -1   8  -5 26138.1 2987.94   1
   1   8   5 29636.0 2445.37   5
   1   8   5 24332.1 3031.11   6
   1   8   6 11057.1 2144.71   6
  -1   8  -6 13488.8 2249.45   1
   1   8   7 8760.87 1983.36   6
  -1   8  -7 11510.9 2262.71   1
   1   8   8 2278.76 1213.79   6
  -1   8  -8 5046.02 1637.42   1
  -1  -9   9 16289.8 2758.51   5
  -1   9   9 14078.6 2566.45   6
  -1   9   8 2661.67 1149.90   6
  -1  -9   8 1890.41 926.740   5
   1   9  -8 3422.38 1400.91   1
  -1   9   7 15465.8 2450.16   6
   1   9  -7 15565.8 2629.05   1
  -1  -9   7 21076.5 2678.11   5
  -1   9   7 18209.8 2908.02   4
  -1   9   6 3982.04 1299.17   4
  -1  -9   6 2195.65 723.107   5
  -1   9   6 2399.99 868.184   6
   1   9  -6 2249.14 966.752   1
  -1   9   5 27752.7 3080.09   6
  -1   9   5 26490.4 3157.73   4
  -1   9   5 26272.1 2184.77   5
  -1  -9   5 32793.5 2775.06   5
   1   9  -5 23306.9 2966.01   1
  -1   9   4 9857.26 1139.13   1
  -1   9   4 7397.85 1485.63   4
   1   9  -4 9823.60 1794.25   1
  -1   9   4 10474.6 1869.49   6
  -1   9   4 10058.3 1188.40   5
  -1   9   3 73755.3 5113.03   6
   1   9  -3 71670.1 4862.60   1
  -1   9   3 69988.5 3593.67   1
  -1   9   3 74400.4 3243.90   5
  -1   9   3 74613.8 4781.26   4
  -1   9   2 8501.79 859.682   5
   1   9  -2 8828.33 1504.11   1
  -1   9   2 8578.58 1220.49   1
  -1   9   2 9649.53 1446.15   4
   1   9  -1 12436.0 1654.41   1
  -1   9   1 11464.9 1529.59   1
  -1   9   1 10546.0 966.232   5
  -1   9   1 14154.8 1586.46   4
   1   9   0 68582.9 3991.84   1
  -1   9   0 74120.6 3492.09   4
  -1   9   0 68406.9 4292.66   1
   1   9   1 32354.2 2398.28   1
  -1   9  -1 37788.6 3165.81   1
  -1  -9  -1 30555.5 2361.98   2
   1   9   1 31699.7 3255.24   6
   1   9   2 103098. 6325.14   6
   1   9   2 100853. 4307.12   1
  -1   9  -2 101520. 5880.18   1
  -1  -9  -2 114445. 4833.53   2
   1   9   3 5380.32 1385.30   6
  -1  -9  -3 4990.96 790.152   2
  -1   9  -3 5450.01 1313.19   1
  -1   9  -4 63264.7 5046.67   1
   1   9   4 77349.7 5490.71   6
   1   9   5 10342.5 2200.06   6
  -1   9  -5 7084.41 1632.85   1
   1   9   6 17171.2 2629.03   6
  -1   9  -6 15476.5 2516.13   1
   1   9   7 6289.44 1769.81   6
  -1   9  -7 7734.44 1920.25   1
   1   9   8 4349.33 1637.45   6
  -1  10   9-349.622 805.212   6
   1  10  -8 8779.39 2269.22   1
  -1  10   8 12440.3 2381.93   6
   1  10  -7 254.671 628.359   1
  -1  10   7-924.343 850.333   6
  -1  10   7 1294.69 1348.79   4
   1  10  -6 41709.4 4266.82   1
  -1  10   6 41346.3 4101.95   6
  -1  10   6 34396.6 3933.46   4
   1  10  -5 919.605 891.962   1
  -1  10   5 146.977 464.887   6
  -1  10   5 1172.54 852.175   4
   1  10  -4 67790.1 5081.52   1
  -1  10   4 70956.3 3590.26   1
  -1  10   4 74321.9 5428.24   6
  -1  10   4 71195.5 5142.31   4
  -1  10   3 4238.78 774.670   1
  -1  10   3 4572.33 1447.95   6
   1  10  -3 6923.08 1431.94   1
  -1  10   3 6421.95 1329.93   4
   1  10  -2 22698.5 2517.61   1
  -1  10   2 23453.3 2202.58   1
  -1  10   2 26628.6 2528.61   4
  -1  10   1 87783.3 4840.82   1
   1  10  -1 77767.2 4766.87   1
  -1  10   1 83086.9 4475.75   4
  -1  10   0 2200.47 790.175   1
   1  10   0 1472.17 649.934   1
   1  10   1 103193. 5040.01   1
   1  10   1 107401. 6571.58   6
  -1  10  -1 100941. 5864.14   1
   1  10   2 3137.85 1262.48   6
  -1  10  -2 4039.86 1146.95   1
   1  10   2 3418.86 687.371   1
   1  10   3 75634.6 5589.87   6
  -1  10  -3 70603.9 5193.90   1
  -1  10  -4 2858.51 894.994   1
   1  10   4 3972.27 1339.42   6
  -1  10  -5 17285.6 2609.64   1
   1  10   5 17493.6 2855.45   6
  -1  10  -6 5430.90 1555.01   1
   1  10   6 5053.90 1679.37   6
   1  10   7 3703.74 1502.84   6
  -1  10  -7 3583.53 1461.64   1
  -1  11   8 376.432 680.386   6
   1  11  -7 10096.3 2178.98   1
  -1  11   7 10194.9 2174.67   6
  -1  11   6 221.857 496.747   6
   1  11  -6 635.515 592.271   1
  -1  11   6 1342.74 1058.85   4
  -1  11   5 17616.3 2722.43   6
   1  11  -5 16142.1 2590.54   1
  -1  11   5 15127.2 2507.90   4
   1  11  -4 11001.5 2053.79   1
  -1  11   4 14654.8 2401.18   6
  -1  11   4 11104.2 1960.41   4
  -1  11   3 33262.9 2550.70   1
   1  11  -3 33288.9 3394.58   1
  -1  11   3 34133.8 3757.84   6
  -1  11   3 34493.4 3231.59   4
  -1  11   2 39490.9 3012.69   1
   1  11  -2 36053.8 3363.35   1
  -1  11   2 40465.5 3306.88   4
   1  11  -1 22040.8 2459.84   1
  -1  11   1 23644.0 2480.99   1
  -1  11   0 44024.5 3621.13   1
   1  11   0 44214.7 3358.86   1
   1  11   1 152.410 356.655   1
  -1  11  -1 192.286 406.756   1
   1  11   2 26838.2 3354.24   6
  -1  11  -2 29288.1 3168.65   1
   1  11   3 4713.84 1446.56   6
  -1  11  -3 5663.25 1492.64   1
   1  11   4 19782.0 2928.27   6
  -1  11  -4 18695.3 2721.63   1
   1  11   5 2422.26 1072.33   6
  -1  11  -5 2863.64 1144.09   1
  -1  11  -6 7958.93 1917.79   1
   1  11   6 9894.09 2327.34   6
  -1  12   7 1397.32 1149.83   6
   1  12  -6 9194.61 2142.94   1
  -1  12   6 10139.1 2173.39   6
   1  12  -5 2423.84 1077.36   1
  -1  12   5 457.927 817.934   6
   1  12  -4 15145.4 2484.89   1
  -1  12   4 19249.0 2946.92   6
   1  12  -3 12653.7 2142.48   1
  -1  12   3 14021.7 1656.22   1
  -1  12   3 12303.3 2339.64   6
  -1  12   2 17172.3 2061.90   1
   1  12  -2 17921.9 2502.16   1
  -1  12   1 29214.0 2914.31   1
   1  12  -1 32861.6 3177.48   1
   1  12   0 19551.7 2275.28   1
  -1  12   0 21879.3 2608.06   1
   1  12   1 23200.4 3205.61   6
  -1  12  -1 22875.6 2765.06   1
   1  12   1 21822.9 2219.03   1
   1  12   2 652.609 538.375   6
  -1  12  -2 730.485 649.961   1
  -1  12  -3 26033.5 3225.63   1
   1  12   3 26096.0 3516.73   6
  -1  12  -4 100.332 476.185   1
   1  12   4-948.792 1048.05   6
  -1  12  -5 12406.5 2419.72   1
   1  12   5 10785.9 2286.32   6
   1  12   6 10523.7 2331.09   6
  -1  13   6 2120.52 1169.55   6
   1  13  -5 24108.6 3335.84   1
  -1  13   5 19098.8 3047.63   6
  -1  13   4-8.32922 793.066   6
   1  13  -4 1094.36 771.665   1
   1  13  -3 31104.1 3552.07   1
  -1  13   3 28524.3 3805.67   6
   1  13  -2 32184.4 3476.55   1
  -1  13   2 32217.4 2930.22   1
  -1  13   2 32479.7 4004.32   6
   1  13  -1 6562.73 1455.40   1
  -1  13   1 6640.28 1442.78   1
   1  13   0 38493.5 4331.32   6
   1  13   0 39893.8 3498.49   1
  -1  13   0 40518.4 3783.88   1
  -1  13  -1 5026.79 1275.40   1
   1  13   1 5625.55 1819.90   6
  -1  13  -2 20657.5 2814.46   1
   1  13   2 25736.5 3558.21   6
  -1  13  -3 4992.76 1497.73   1
   1  13   3 1772.49 949.652   6
   1  13   4 19530.8 3208.68   6
  -1  13  -4 17379.2 2936.00   1
   1  13   5 4294.26 1672.31   6
  -1  14   5 3879.27 1555.59   6
  -1  14   4 10651.6 2335.37   6
   1  14  -4 11123.6 2298.64   1
   1  14  -3 1726.76 1091.28   1
  -1  14   3 2274.07 1388.14   6
   1  14  -2 10754.2 2078.84   1
  -1  14   2 14992.7 2635.63   6
   1  14  -1 11907.4 2024.68   1
  -1  14   1 13356.1 2075.57   1
  -1  14   0 3627.06 1248.37   1
   1  14   0 1959.01 901.120   1
   1  14   0 3149.55 1450.02   6
  -1  14  -1 13974.7 2360.94   1
   1  14   1 17883.1 3050.35   6
  -1  14  -2 3446.92 1214.13   1
   1  14   2 3192.78 1654.88   6
   1  14   3 15437.6 2966.66   6
  -1  14  -3 12657.0 2363.23   1
  -1  15   3 870.949 962.541   6
   1  15  -3 2256.69 1099.90   1
   1  15  -2 861.673 779.209   1
  -1  15   2 826.420 643.452   6
   1  15  -1 5704.76 1467.91   1
  -1  15   1 7141.01 1539.70   1
   1  15   0 10239.2 2358.12   6
  -1  15   0 9628.91 1893.99   1
  -1  15  -1 254.937 534.750   1
   1  15   1 823.008 865.146   6
  -1  15  -2 23190.4 3239.26   1
   1  16  -2 4008.98 1256.79   1
  -1  16   0 1455.99 956.197   1
  -1  16  -1 15190.2 2628.23   1
  -2   0  10 6515.08 1720.15   5
  -2   0  10 6314.68 1694.25   4
  -2   0   9 1254.32 876.570   4
   2   0  -9 2599.13 965.111   1
  -2   0   9 1856.05 770.916   3
  -2   0   9 1194.21 733.244   5
  -2   0   8 23887.8 2807.55   5
  -2   0   8 21643.5 2259.38   3
  -2   0   8 22260.1 2653.59   4
  -2   0   7 71997.3 4044.97   3
  -2   0   7 71424.1 4612.84   5
  -2   0   7 71606.6 4648.13   4
  -2   0   6 73587.6 3680.89   3
  -2   0   6 72152.7 4276.33   5
  -2   0   5 72736.2 3261.31   3
  -2   0   5 68484.2 3839.81   5
  -2   0   4 163847. 5170.31   3
   2   0  -4 161697. 5007.28   2
  -2   0   4 151284. 5948.30   5
  -2   0   4 149162. 5122.47   2
   2   0  -4 156636. 5097.16   6
  -2   0   3 586534. 16005.9   3
   2   0  -3 608263. 16030.9   6
  -2   0   3 584405. 16432.1   2
  -2   0   3 614209. 17287.0   5
  -2   0   2 4485.72 485.566   2
   2   0  -2 4852.98 484.984   2
   2   0  -2 4611.89 567.128   1
  -2   0   2 4235.83 619.530   5
   2   0  -1 25298.2 1301.77   1
  -2   0   1 28043.5 1323.33   1
  -2   0   1 25405.7 1125.43   6
   2   0   0 3703.47 527.805   6
  -2   0   0 3821.54 545.928   6
   2   0   0 3250.42 420.457   1
  -2   0   0 3170.67 384.302   1
  -2   0  -1 65206.5 2547.63   1
   2   0   1 66386.7 2677.27   1
   2   0   2 164965. 6499.00   3
  -2   0  -2 173917. 5816.07   1
   2   0   2 186789. 5995.56   1
   2   0   3 9047.60 1279.10   5
  -2   0  -3 9122.81 986.421   1
   2   0   3 7826.89 1215.92   3
   2   0   4 100932. 5146.71   5
  -2   0  -4 101367. 4394.42   1
   2   0   4 95496.9 5196.22   3
   2   0   5 1310.23 656.553   5
  -2   0  -5 566.441 257.003   1
   2   0   5 816.664 391.590   3
   2   0   6 79611.6 5411.56   3
   2   0   6 78529.1 5178.70   5
  -2   0  -6 82501.4 4362.14   1
   2   0   7 718.280 742.666   5
   2   0   7 1497.03 867.796   3
   2   0   8 9184.65 2027.52   5
   2   0   8 7197.21 1693.27   3
   2   0   9 2360.59 1477.48   3
  -2  -1  10 2485.91 1095.83   5
   2   1 -10 4775.04 1422.59   1
  -2   1  10 1995.34 925.401   5
  -2  -1  10 3020.06 1270.01   4
  -2   1  10 3710.17 1164.67   4
  -2   1   9 33760.8 3197.25   3
   2   1  -9 29367.8 3090.55   1
  -2  -1   9 24910.9 2678.85   3
  -2   1   9 34207.9 3624.03   5
  -2  -1   9 24026.5 3036.14   5
  -2  -1   9 23784.4 2964.69   4
  -2   1   9 29371.5 3411.84   4
  -2   1   8 51342.1 3642.88   3
  -2  -1   8 47886.0 3468.02   3
  -2  -1   8 43680.9 3856.04   5
  -2   1   8 49706.5 4252.60   4
  -2   1   8 48277.7 4025.47   5
  -2  -1   8 43739.1 3765.95   4
  -2   1   7 47517.0 3833.55   4
  -2   1   7 49196.1 3264.18   3
  -2  -1   7 48066.2 3138.82   3
  -2  -1   7 47236.4 3667.74   5
  -2   1   7 45717.6 3607.16   5
  -2  -1   7 40213.2 3320.48   4
  -2   1   6 22661.7 2009.70   3
  -2   1   6 21118.9 2270.65   5
   2  -1  -6 35500.9 1694.97   2
  -2  -1   6 35929.7 2871.46   5
  -2  -1   6 38690.5 2446.30   3
  -2  -1   5 6375.66 1027.72   5
   2  -1  -5 7251.11 622.648   2
  -2   1   5 3914.24 820.437   5
  -2   1   5 4866.75 790.827   3
  -2   1   4 278724. 8210.45   3
   2  -1  -4 265017. 7582.63   2
   2  -1  -4 248840. 8095.36   6
  -2   1   4 279299. 7758.03   2
  -2   1   4 289996. 8226.47   6
  -2  -1   4 251709. 8867.89   5
   2   1  -4 279465. 8130.39   6
  -2   1   4 290201. 9160.85   5
  -2  -1   4 236106. 8230.50   2
   2  -1  -3 21907.9 1080.90   3
   2   1  -3 25749.7 1399.76   2
  -2   1   3 22549.5 1094.29   6
   2  -1  -3 20758.2 1010.58   2
  -2   1   3 22496.6 1090.76   2
  -2   1   3 23128.6 1649.29   5
  -2  -1   3 20035.5 1340.84   2
   2  -1  -3 18706.6 1085.19   6
  -2  -1   3 21544.9 1561.59   5
   2  -1  -2 909408. 25345.6   1
  -2  -1   2 885120. 25520.6   5
  -2  -1   2 905518. 25294.7   2
  -2   1   2 999999. 24907.3   2
   2   1  -2 989654. 25331.5   2
  -2   1   2 980680. 25424.7   1
   2   1  -1 352563. 10247.6   1
  -2  -1   1 395895. 10278.2   6
  -2  -1   1 379805. 10147.5   3
  -2   1   1 367483. 10319.2   1
   2   1  -1 365253. 10162.7   6
   2   1  -1 350400. 10282.7   2
  -2  -1   1 399969. 10416.8   2
   2  -1  -1 399409. 10483.3   1
   2   1   0 54574.4 1843.68   1
  -2   1   0 52303.7 2142.72   1
   2   1   0 52603.6 2300.93   3
  -2  -1   0 40378.1 2060.65   3
   2   1   0 54464.9 2335.80   6
  -2  -1   0 44529.8 1719.69   1
   2  -1   0 39797.8 2039.37   1
  -2  -1   0 40197.3 2116.92   6
   2   1   1 214664. 7305.21   3
   2   1   1 206743. 7356.85   6
   2   1   1 218821. 6338.16   1
  -2   1  -1 222011. 6963.04   1
  -2  -1  -1 219234. 6143.03   1
   2  -1   1 220738. 7075.77   1
   2   1   2 60752.8 3476.91   3
   2   1   2 72718.2 3542.20   5
  -2  -1  -2 74761.1 2669.37   1
  -2   1  -2 70426.3 3226.11   1
   2   1   2 63434.9 3591.54   6
   2   1   2 73117.8 2735.14   1
   2   1   3 156300. 6504.67   3
   2   1   3 164550. 6365.48   5
   2   1   3 146755. 6542.87   6
   2  -1   3 133341. 6068.75   5
  -2   1  -3 171761. 5952.42   1
  -2  -1  -3 131004. 4882.34   1
  -2  -1  -4 39216.6 2257.78   1
   2   1   4 38153.0 3090.27   3
   2  -1   4 38836.1 3039.06   5
  -2   1  -4 42263.0 2723.66   1
   2   1   4 45788.5 3158.77   5
   2  -1   5 75662.5 4863.69   3
  -2   1  -5 83090.4 4306.62   1
   2  -1   5 74201.2 4769.54   5
  -2  -1  -5 75183.2 3673.44   1
   2   1   5 82142.2 4850.30   5
   2   1   5 86060.2 5198.26   3
   2   1   6 25706.6 2922.01   3
  -2   1  -6 25552.4 2362.96   1
   2  -1   6 25500.2 2827.91   5
   2  -1   6 27624.6 2956.14   3
   2   1   6 23401.5 2676.60   5
   2  -1   7 38908.9 3879.97   3
   2   1   7 38804.1 3769.53   5
   2  -1   7 36385.0 3711.65   5
   2   1   7 38016.1 3903.59   3
   2   1   8 9493.59 1982.56   5
   2  -1   8 6601.36 1732.27   5
   2   1   8 8642.01 1892.38   3
   2  -1   8 3245.84 1306.36   3
   2   1   9 1237.20 996.061   3
   2  -1   9 2727.53 1109.88   3
   2   2 -10 3746.03 1180.22   1
  -2   2  10 3241.53 1149.40   5
  -2  -2  10 5797.73 1782.23   5
  -2   2  10 4888.92 1449.32   4
  -2   2   9 17660.1 2691.22   4
   2   2  -9 19175.7 2582.97   1
  -2  -2   9 13733.0 2152.48   4
  -2  -2   9 15104.9 2060.25   3
  -2  -2   9 12598.1 2250.93   5
  -2   2   9 19182.1 2725.52   5
  -2   2   8 7137.82 1331.73   3
  -2  -2   8 12051.6 1697.58   3
  -2  -2   8 9860.69 1645.38   4
  -2   2   8 10221.2 1803.40   5
  -2  -2   8 9098.26 1739.43   5
   2   2  -8 8329.90 1544.14   1
  -2   2   8 8218.68 1767.26   4
  -2  -2   7 50593.3 3262.62   3
  -2   2   7 51749.1 3496.46   3
  -2   2   7 48308.0 3695.27   5
  -2  -2   7 52838.1 3915.86   5
  -2  -2   7 49362.9 3549.70   4
  -2   2   7 51647.8 4149.79   4
  -2   2   6 12796.4 1457.69   6
   2  -2  -6 10136.3 680.599   2
  -2   2   6 14040.4 1539.54   3
  -2  -2   6 9546.85 1442.19   5
  -2   2   6 13549.6 1738.54   5
  -2  -2   5 42811.7 2868.99   5
  -2   2   5 35363.0 2657.63   5
   2  -2  -5 39905.3 1450.74   2
  -2   2   5 36527.9 2294.64   6
  -2   2   4 6855.28 768.339   6
   2  -2  -4 6332.00 748.286   3
  -2   2   4 6125.28 930.032   5
  -2  -2   4 5918.95 885.300   5
  -2  -2   4 5469.16 810.401   2
   2  -2  -4 5692.55 763.692   6
  -2  -2   3 106379. 3818.46   2
  -2   2   3 75351.9 3543.52   5
  -2  -2   3 110281. 3831.82   5
  -2   2   3 75362.0 3086.54   6
   2  -2  -3 101353. 3285.64   3
  -2  -2   2 309208. 9341.78   5
  -2  -2   2 324230. 9559.65   2
   2  -2  -2 323861. 9455.11   1
  -2   2   1 210916. 6709.38   1
   2  -2  -1 219897. 6924.81   1
   2   2  -1 217779. 6729.24   2
  -2  -2   1 224862. 6796.00   2
   2   2  -1 221730. 6782.57   6
   2   2   0 229744. 6750.73   1
   2   2   0 226541. 7658.16   3
  -2  -2   0 252500. 7846.95   6
  -2  -2   0 256629. 7366.16   2
   2   2   0 246953. 7749.56   6
   2  -2   0 257886. 7795.43   1
  -2  -2   0 245556. 7654.54   3
  -2   2   0 240459. 7592.54   1
   2   2   1 53037.0 2847.12   3
   2   2   1 50588.4 2790.06   6
  -2   2  -1 54824.8 2730.47   1
   2   2   1 48656.0 1701.79   1
   2   2   2 73761.1 4051.90   3
   2   2   2 87038.2 3950.05   5
  -2   2  -2 77366.4 3895.75   1
   2   2   2 72042.9 4052.41   6
   2   2   3 79517.7 4462.32   3
   2  -2   3 88780.5 4538.85   5
  -2  -2  -3 83660.8 2878.26   1
  -2   2  -3 81848.0 4049.76   1
   2   2   3 78480.4 4524.15   6
   2   2   3 85553.2 4205.37   5
   2   2   4 61703.2 4159.63   3
  -2   2  -4 67075.3 3834.23   1
  -2  -2  -4 72502.9 2856.44   1
   2  -2   4 76096.4 4419.13   5
   2   2   4 64900.8 3891.27   5
   2   2   4 59375.8 4144.85   6
   2   2   5 19446.4 2384.95   3
   2  -2   5 21231.1 2428.22   5
   2   2   5 25383.0 2468.51   5
  -2  -2  -5 21951.8 1546.88   1
   2   2   5 20135.8 2556.68   6
  -2   2  -5 21671.3 2149.80   1
  -2   2  -6 16945.8 2020.40   1
   2   2   6 15837.8 2128.63   5
   2  -2   6 16476.2 2300.30   5
   2  -2   6 15990.9 2285.67   3
   2   2   6 15897.1 2350.07   3
   2   2   7 1270.20 811.372   5
  -2   2  -7 1246.05 672.284   1
   2  -2   7 1981.18 905.251   5
   2   2   7 1354.59 839.675   3
   2  -2   7 290.243 734.544   3
   2   2   8 14754.9 2663.56   3
   2  -2   8 18037.3 2794.78   5
   2  -2   8 15828.6 2801.41   3
   2   2   8 13053.1 2325.96   5
   2   2   9 1296.87 986.849   3
   2  -2   9 2280.28 1240.51   3
   2   3 -10 627.368 644.233   1
  -2  -3  10 440.582 567.288   5
  -2   3  10 343.676 794.737   4
  -2   3  10 1060.58 676.302   5
  -2   3   9 11632.3 2282.11   4
  -2  -3   9 17834.2 2295.82   3
  -2   3   9 15879.0 2417.63   5
   2   3  -9 12251.4 2143.62   1
  -2  -3   9 16970.7 2642.32   5
  -2  -3   8 3462.50 1081.73   4
  -2  -3   8 3107.46 897.323   3
  -2   3   8 8328.73 1708.35   5
  -2   3   8 7395.86 1773.90   4
   2   3  -8 7552.48 1547.48   1
  -2  -3   8 3391.55 1013.18   5
  -2   3   7 12240.5 2056.03   4
  -2   3   7 12092.9 1592.85   6
  -2  -3   7 10574.7 1516.95   4
  -2  -3   7 9933.54 1683.44   5
  -2   3   7 12507.2 1852.91   5
   2   3  -7 12531.9 1911.22   1
  -2   3   6 102139. 5812.29   4
  -2   3   6 97888.0 4761.68   6
  -2   3   6 105197. 5368.60   5
  -2  -3   6 101822. 5319.51   5
  -2  -3   5 16540.4 1735.27   5
  -2   3   5 17292.9 1564.03   6
  -2   3   5 19374.5 1852.12   5
  -2  -3   4 254717. 8566.53   2
  -2  -3   4 267190. 8700.48   5
  -2   3   4 242705. 8563.20   5
  -2   3   4 242945. 8161.08   6
  -2   3   3 20176.1 1378.08   1
  -2   3   3 17519.0 1488.95   5
  -2  -3   3 16742.3 1345.09   5
  -2  -3   3 17762.5 1486.15   2
  -2   3   3 19725.9 1450.72   6
  -2  -3   2 356122. 10396.7   5
  -2  -3   2 367726. 11022.7   2
   2   3  -2 362746. 10465.6   5
  -2   3   2 365804. 10650.5   1
  -2   3   1 132739. 4728.99   1
  -2  -3   1 127109. 4724.56   2
   2   3  -1 138161. 4971.67   6
  -2   3   0 246968. 8322.96   1
   2   3   0 250602. 8487.41   6
   2   3   1 231714. 8322.14   6
  -2  -3  -1 232716. 7397.66   2
  -2   3  -1 235978. 8190.17   1
  -2  -3  -1 256421. 7577.74   5
   2   3   2 51518.5 3258.43   3
   2   3   2 55495.3 3329.53   6
   2   3   2 59055.4 2933.49   5
  -2   3  -2 57437.8 3192.91   1
   2   3   3 129896. 6276.42   3
   2   3   3 146266. 5842.07   5
  -2   3  -3 141941. 6017.45   1
   2   3   3 131101. 6263.05   6
  -2  -3  -4 1336.67 187.334   1
   2   3   4 1158.30 577.298   5
   2   3   4 341.388 353.555   3
   2   3   4 965.277 547.459   6
  -2   3  -4 111.394 346.114   1
   2  -3   4 758.893 492.939   5
  -2  -3  -4 1180.28 196.754   1
   2   3   5 56055.5 4328.93   3
   2   3   5 56355.2 3861.51   5
   2  -3   5 68730.1 4526.25   5
  -2   3  -5 58494.3 3959.21   1
   2   3   5 55542.2 4381.80   6
  -2   3  -6 536.416 301.958   1
   2   3   6 583.610 575.095   6
   2  -3   6 722.497 595.085   5
   2   3   6 681.105 513.244   5
   2   3   6-837.195 748.607   3
   2   3   7 23780.0 3087.28   3
  -2   3  -7 22371.3 2629.94   1
   2  -3   7 19677.4 2827.97   5
   2   3   7 20288.9 2649.27   5
   2  -3   7 16378.2 2515.46   3
   2   3   8 3353.10 1324.93   3
   2  -3   8 5730.92 1724.77   3
   2  -3   8 5864.69 1721.22   5
   2   3   8 3627.68 1182.76   5
   2   3   9 7301.81 1986.80   3
   2  -3   9 9087.37 2328.48   3
   2   3   9 7497.66 1893.49   5
   2   4 -11-369.894 741.304   1
  -2  -4  10 10259.4 2227.97   5
  -2   4  10 8545.40 1970.24   5
   2   4 -10 10118.7 2115.28   1
  -2   4  10 11615.7 2509.39   4
  -2  -4   9 21906.2 2535.07   3
  -2   4   9 18489.5 2715.30   5
  -2   4   9 16982.5 2899.48   4
   2   4  -9 17805.6 2608.13   1
  -2  -4   9 22364.5 3040.11   5
  -2   4   8 37648.2 3272.64   6
   2   4  -8 43426.0 3905.42   1
  -2   4   8 42723.7 3796.09   5
  -2  -4   8 40708.2 3758.84   5
  -2   4   8 40189.6 4150.64   4
  -2  -4   7 2455.11 657.312   4
  -2   4   7 1161.50 656.111   5
  -2   4   7 675.298 933.843   4
  -2   4   7 639.320 422.457   6
   2   4  -7 194.384 388.674   1
  -2   4   6 6314.18 1318.86   4
  -2  -4   6 4069.18 786.888   4
  -2  -4   6 3664.62 963.903   5
  -2   4   6 8593.31 1387.31   5
   2   4  -6 6113.39 1266.18   1
  -2   4   6 7796.64 1169.78   6
  -2  -4   5 155336. 6496.06   5
  -2   4   5 163850. 6367.53   6
  -2   4   5 151286. 6422.51   5
  -2   4   4 9682.55 1216.83   5
  -2  -4   4 9617.67 1143.34   5
  -2  -4   4 11304.5 1377.29   2
  -2   4   4 9584.12 1179.16   6
  -2   4   4 11066.3 1126.10   1
  -2   4   3 579805. 15843.1   1
  -2   4   3 562841. 16293.5   5
  -2   4   3 592023. 16661.3   6
  -2  -4   3 551306. 15919.4   5
  -2  -4   3 526489. 16484.6   2
  -2  -4   2 79739.0 3454.95   2
  -2   4   2 58101.6 2806.53   1
  -2  -4   2 73751.2 2664.41   5
   2   4  -2 58835.1 2569.71   5
  -2  -4   1 122245. 4617.22   2
  -2   4   1 129428. 4774.40   1
  -2  -4   1 114141. 3672.23   5
  -2  -4   0 46249.7 1752.68   5
   2   4   0 39087.9 1901.57   1
   2   4   0 34715.7 2471.72   6
  -2  -4   0 50937.6 2419.96   2
  -2   4   0 36685.5 2472.77   1
   2   4   1 85843.6 2670.40   1
  -2   4  -1 95544.3 4329.26   1
  -2  -4  -1 76253.7 3108.27   5
  -2  -4  -1 78176.9 3384.02   2
   2   4   1 93450.7 4381.63   6
  -2   4  -2 481730. 14171.8   1
   2   4   2 448747. 14289.6   6
   2   4   3 26749.1 2525.96   6
  -2   4  -3 25262.3 2352.56   1
  -2  -4  -3 23697.8 1577.13   2
   2   4   3 26803.7 2072.38   5
   2   4   4 59695.6 4229.22   3
  -2  -4  -4 46746.9 2498.91   2
   2   4   4 54988.2 4003.48   6
  -2   4  -4 57315.9 3765.00   1
   2   4   4 57476.9 3502.31   5
   2   4   5 21717.7 2676.64   6
  -2  -4  -5 18639.4 1473.21   2
  -2   4  -5 20959.9 2371.98   1
   2   4   5 19719.9 2523.12   3
   2   4   5 21627.8 2257.44   5
   2   4   6 38450.0 3905.11   3
   2   4   6 38574.4 3425.40   5
  -2   4  -6 42574.9 3580.57   1
   2   4   6 45166.4 4201.96   6
   2  -4   6 43984.4 3944.31   5
   2   4   7 9460.79 1981.51   3
   2   4   7 11643.7 2336.88   6
  -2   4  -7 15892.8 2242.64   1
   2   4   7 12158.3 2046.63   5
   2   4   8 16025.4 2569.96   5
   2  -4   8 17007.8 2864.03   3
   2   4   9 4042.74 1543.62   5
  -2  -5  10 3609.49 1311.13   5
  -2   5  10 4707.58 1461.48   5
   2   5 -10 3471.25 1330.91   1
  -2   5  10 6057.02 1848.33   4
  -2   5   9 3194.44 1470.77   4
  -2   5   9 3234.25 1021.49   6
  -2  -5   9 4812.06 1435.10   5
  -2   5   9 2738.20 1026.98   5
   2   5  -9 2131.44 1124.49   1
  -2   5   8 36774.3 3288.25   6
   2   5  -8 37343.7 3720.03   1
  -2  -5   8 32366.6 3410.31   5
  -2   5   8 35015.4 3428.97   5
  -2   5   8 36555.9 4076.86   4
  -2   5   7 16305.8 2495.19   4
  -2   5   7 17736.8 2193.25   5
  -2   5   7 15374.8 1940.96   6
   2   5  -7 14581.0 2160.15   1
   2   5  -6 51079.9 3959.80   1
  -2  -5   6 65630.4 4065.60   5
  -2   5   6 56991.0 3814.12   5
  -2   5   6 56740.8 3608.74   6
  -2  -5   6 64278.3 3141.34   4
  -2   5   6 48813.5 4123.20   4
  -2   5   5 8725.18 1246.42   6
  -2   5   5 7378.63 1147.02   5
  -2  -5   5 5911.09 1079.04   5
   2   5  -5 6808.38 1291.18   1
  -2   5   4 114146. 4468.39   1
   2   5  -4 110220. 5451.49   1
  -2   5   4 111352. 4900.17   5
  -2  -5   4 109937. 4759.99   5
  -2   5   4 120895. 5263.82   6
   2   5  -3 18541.2 1818.66   1
  -2   5   3 16072.9 1338.53   1
  -2   5   3 16307.1 1665.35   6
  -2   5   3 17433.7 1047.29   2
  -2  -5   3 17387.6 1341.78   5
  -2  -5   3 18497.0 1754.89   2
  -2   5   3 16476.9 1459.41   5
  -2  -5   2 8031.14 683.183   5
   2   5  -2 1898.77 552.454   1
  -2  -5   2 6916.05 978.398   2
  -2   5   2 1303.70 346.435   1
   2   5  -2 1790.15 358.804   5
   2   5  -1 1151.76 349.913   1
  -2  -5   1 1584.00 208.822   5
  -2   5   1 959.148 444.047   1
  -2   5   0 17527.2 1719.74   1
   2   5   0 17507.5 1826.61   6
   2   5   0 16699.2 1316.12   1
   2   5   1 187214. 7540.67   6
  -2  -5  -1 190476. 6408.64   2
  -2  -5  -1 182225. 5640.98   5
  -2   5  -1 181694. 7250.42   1
   2   5   1 178994. 5497.70   1
   2   5   2 54330.7 3662.32   6
  -2  -5  -2 62074.5 2874.09   2
  -2   5  -2 51507.7 3464.71   1
   2   5   3 70475.3 4568.18   6
   2   5   3 74272.0 3812.02   5
  -2   5  -3 74820.7 4558.04   1
  -2   5  -3 71412.3 3308.47   4
  -2   5  -4 1813.52 679.619   1
   2   5   4 2605.02 647.879   5
   2   5   4 2719.38 838.882   6
  -2  -5  -4 2720.57 552.204   2
   2   5   5 19084.1 2542.38   6
  -2  -5  -5 18607.8 1492.03   2
   2   5   5 15793.4 1930.78   5
  -2   5  -5 18270.1 2379.02   1
  -2   5  -6 424.051 499.945   1
   2   5   6-189.204 341.741   5
   2   5   6 182.141 552.731   6
  -2   5  -7 11506.9 2024.74   1
   2   5   7 8822.10 1958.86   6
   2   5   7 10207.0 1881.38   5
  -2   5  -8 6806.20 1693.02   1
   2   5   8 6001.77 1461.29   5
   2  -5   8 8401.93 2119.89   3
   2   6 -10 5288.41 1725.72   1
  -2  -6  10 8805.28 2121.02   5
  -2   6  10 7559.97 1815.40   5
  -2   6  10 8998.63 2360.36   4
  -2   6   9 1186.35 797.642   6
   2   6  -9 380.452 696.952   1
  -2  -6   9 1041.34 814.621   5
  -2   6   9 90.3878 439.332   5
  -2   6   9 1305.88 1117.87   4
  -2   6   8 12742.6 2429.73   4
   2   6  -8 10582.9 2048.22   1
  -2   6   8 13235.3 2014.52   6
  -2  -6   8 9704.75 1888.19   5
  -2   6   8 11059.6 1874.75   5
  -2   6   7 56530.9 4940.82   4
  -2  -6   7 62147.3 4452.82   5
  -2   6   7 65144.0 4332.57   5
  -2   6   7 61793.0 4204.58   6
   2   6  -7 59790.4 4645.31   1
   2   6  -6 30715.6 3071.31   1
  -2   6   6 35256.9 2914.61   5
  -2   6   6 34939.5 2918.42   6
  -2  -6   6 33790.1 2922.18   5
  -2   6   6 30820.6 3344.85   4
  -2   6   5 99060.9 5806.16   4
   2   6  -5 90758.8 5330.10   1
  -2  -6   5 87044.9 4599.68   5
  -2   6   5 97123.1 4770.26   5
  -2   6   5 108655. 5275.04   6
  -2   6   4 3947.65 958.760   6
  -2   6   4 2365.11 279.424   2
  -2  -6   4 2616.79 616.800   5
  -2   6   4 2948.14 696.797   5
   2   6  -4 4223.48 1004.49   1
  -2   6   4 3113.78 616.460   1
  -2   6   3 144461. 5329.86   1
  -2  -6   3 134720. 5957.63   2
   2   6  -3 135198. 6115.26   1
  -2  -6   3 130020. 4919.82   5
  -2   6   3 137286. 5361.89   5
  -2   6   3 136565. 4596.19   2
   2   6  -2 21185.2 1926.37   1
  -2   6   2 19963.7 1713.23   1
  -2  -6   2 27171.2 1367.92   5
  -2  -6   2 30798.6 2271.92   2
  -2   6   1 157920. 6410.68   1
   2   6  -1 148650. 6101.47   1
  -2  -6   0 93847.8 4253.19   2
  -2   6   0 92127.2 4611.27   1
   2   6   0 91469.4 4909.00   6
   2   6   0 91009.5 3939.74   1
   2   6   1 62201.2 2639.37   1
   2   6   1 63733.5 4050.66   6
  -2  -6  -1 67969.3 3258.64   2
  -2   6  -1 65729.8 3947.16   1
  -2  -6  -1 65650.4 2389.98   5
   2   6   2 133904. 6640.28   6
  -2  -6  -2 146072. 5422.72   2
  -2   6  -2 144454. 6711.26   1
  -2   6  -3 27773.2 2675.72   1
   2   6   3 26825.7 2758.13   6
  -2  -6  -3 29349.4 1904.85   2
   2   6   3 25465.3 1976.07   5
  -2   6  -3 21322.2 1447.06   4
   2   6   4 62977.8 4586.28   6
  -2   6  -4 63441.4 4419.09   1
  -2  -6  -4 69564.9 3187.01   2
   2   6   4 64836.9 3786.55   5
   2   6   5 9036.89 1435.63   5
   2   6   5 10142.1 1986.41   6
  -2   6  -5 7675.24 1574.98   1
   2   6   6 41936.5 4248.47   6
   2   6   6 43019.2 3563.42   5
  -2   6  -6 42778.9 3888.89   1
   2   6   7 89.7181 644.644   6
   2   6   7 1380.85 724.631   5
  -2   6  -7 1058.00 814.816   1
  -2   6  -8 10020.7 2168.52   1
   2   6   8 7907.99 2042.68   6
   2   6   8 10460.9 2013.22   5
   2   7 -10-1092.55 1012.52   1
  -2  -7  10 2089.12 1056.55   5
  -2   7  10-629.759 1106.63   5
  -2   7   9 10162.2 1991.70   6
  -2   7   9 11387.3 2102.46   5
   2   7  -9 8278.72 1874.88   1
  -2  -7   9 12114.7 2349.14   5
  -2   7   9 13339.2 2666.88   4
  -2   7   8 15064.7 2686.40   4
  -2   7   8 10959.2 1819.89   6
  -2   7   8 11774.6 1979.07   5
  -2  -7   8 13585.3 2235.13   5
   2   7  -8 12185.7 2261.23   1
  -2  -7   7 38398.3 3478.42   5
  -2   7   7 33142.3 3050.62   5
  -2   7   7 35607.1 3246.71   6
  -2   7   7 37661.4 4019.06   4
   2   7  -7 33832.2 3553.88   1
  -2   7   6 52596.3 3819.85   6
  -2  -7   6 36346.6 3136.13   5
  -2   7   6 47330.8 3410.27   5
  -2   7   6 46287.4 4224.23   4
   2   7  -6 45962.7 3933.71   1
  -2   7   5 4455.04 1180.24   4
  -2   7   5 4303.33 811.142   1
   2   7  -5 3934.26 1037.39   1
  -2   7   5 5021.06 1060.56   6
  -2   7   5 3528.29 849.824   5
  -2  -7   5 5771.82 1020.02   5
  -2   7   4 92098.8 3897.18   1
  -2  -7   4 79876.3 3888.09   5
  -2   7   4 87453.9 5169.81   4
  -2   7   4 71252.7 2742.92   2
  -2   7   4 83765.0 4038.58   5
  -2   7   4 92662.6 5059.32   6
   2   7  -4 83662.7 4888.62   1
  -2   7   3 51787.2 2894.40   1
  -2  -7   3 52662.5 2629.25   5
  -2   7   3 53264.8 2896.28   5
  -2  -7   3 55221.4 3552.30   2
   2   7  -3 49608.8 3485.20   1
  -2  -7   2 242886. 8665.05   2
  -2   7   2 223318. 8055.65   1
  -2  -7   2 218796. 6606.46   5
  -2  -7   2 224514. 7293.12   4
   2   7  -2 225517. 8556.57   1
  -2  -7   1 14500.9 1551.99   2
  -2   7   1 13465.4 1582.83   1
   2   7  -1 11251.6 1360.82   1
  -2  -7   0 67651.7 3485.84   2
  -2   7   0 55773.3 3635.22   1
   2   7   0 58499.6 3124.23   1
   2   7   0 55364.1 3904.52   6
  -2  -7  -1 63839.0 3332.00   2
  -2   7  -1 60073.6 3876.42   1
   2   7   1 59814.3 4091.17   6
  -2  -7  -1 52409.7 1898.78   5
   2   7   1 61223.0 2762.53   1
   2   7   2 32117.0 1357.77   1
  -2  -7  -2 38520.3 2345.98   2
  -2  -7  -2 37162.9 1878.62   5
  -2   7  -2 32945.0 2953.66   1
   2   7   2 35303.9 3139.66   6
  -2   7  -3 72744.3 4708.18   1
  -2  -7  -3 67435.1 3328.70   2
   2   7   3 71842.1 4925.45   6
  -2  -7  -4 13027.9 1261.86   2
  -2   7  -4 14433.9 2169.19   1
   2   7   4 13989.2 1594.66   5
   2   7   4 15519.5 2285.24   6
  -2   7  -5 26666.3 3000.26   1
   2   7   5 25037.7 2420.81   5
   2   7   5 28303.5 3252.23   6
   2   7   6 2720.19 1082.62   6
  -2   7  -6 2098.84 988.360   1
   2   7   6 1845.73 666.560   5
   2   7   7 40066.0 4551.23   6
   2   7   7 38265.6 3600.79   5
  -2   7  -7 35346.4 3856.64   1
  -2   7  -8 3079.96 1438.95   1
   2   7   8 2464.45 1277.45   6
   2   8  -9 10343.0 2289.83   1
  -2   8   9 10742.7 2002.59   5
  -2  -8   9 10893.0 2165.40   5
  -2   8   9 13502.1 2723.54   4
  -2   8   8 6119.65 1946.01   4
  -2   8   8 5285.13 1327.88   5
  -2   8   8 5834.03 1553.89   6
   2   8  -8 6451.95 1698.36   1
  -2  -8   8 5032.99 1385.80   5
  -2   8   7 22316.6 3148.93   4
  -2   8   7 21237.1 2636.96   6
  -2  -8   7 17318.0 2346.48   5
  -2   8   7 22317.8 2419.26   5
   2   8  -7 21616.8 3000.00   1
  -2   8   6 6015.86 1468.04   6
  -2  -8   6 5616.38 1184.89   5
  -2   8   6 3947.18 1334.33   4
  -2   8   6 5928.97 1170.45   5
   2   8  -6 5655.23 1452.86   1
  -2   8   5 2585.05 677.204   1
  -2   8   5 4038.85 1161.37   4
  -2   8   5 3099.80 1017.98   6
  -2   8   5 3105.64 728.346   5
   2   8  -5 2814.43 1115.87   1
  -2   8   4 7059.86 1402.68   4
  -2   8   4 5013.35 858.902   1
  -2   8   4 5946.64 1361.95   6
  -2  -8   4 5364.06 889.192   5
   2   8  -4 4680.15 1115.43   1
  -2   8   4 5755.37 919.702   5
   2   8  -3 67941.2 4428.63   1
  -2  -8   3 79883.7 3295.78   5
  -2   8   3 69476.0 3496.36   5
  -2   8   3 70203.6 3687.17   1
  -2   8   3 75121.2 4531.09   4
  -2   8   2 28889.5 2331.27   1
  -2  -8   2 27189.9 2439.46   2
   2   8  -2 29947.7 2588.76   1
   2   8  -1 125691. 5662.54   1
  -2   8   1 123828. 5766.83   1
  -2  -8   1 111631. 5397.59   2
   2   8   0 36590.0 3246.98   6
  -2  -8   0 36999.6 2601.75   2
  -2   8   0 33397.3 2878.46   1
   2   8   0 35177.5 2427.98   1
  -2  -8  -1 67327.3 3588.77   2
   2   8   1 62837.3 4484.25   6
   2   8   1 62998.7 3144.90   1
  -2   8  -1 67137.1 4343.49   1
   2   8   2 33269.3 3277.30   6
   2   8   2 36156.3 1722.20   1
  -2   8  -2 36222.2 3237.03   1
   2   8   3 4333.99 1285.71   6
  -2  -8  -3 2839.82 750.728   2
  -2   8  -3 4452.06 1145.46   1
  -2   8  -4 10021.9 1764.33   1
   2   8   4 13356.4 2203.07   6
  -2   8  -5 2147.99 867.997   1
   2   8   5 4116.64 1298.76   6
  -2   8  -6 21169.4 3088.25   1
   2   8   6 30266.1 3709.81   6
   2   8   7 7382.09 2033.85   6
  -2   8  -7 5360.07 1577.24   1
  -2   8  -8 4683.97 1548.87   1
   2   9  -9 5547.92 1741.10   1
  -2  -9   9 8248.15 1939.89   5
  -2   9   8 6138.32 1992.94   4
  -2   9   8 6678.14 1590.80   6
   2   9  -8 7284.34 1810.85   1
  -2  -9   8 5333.44 1415.51   5
  -2   9   7 18664.8 3014.47   4
  -2   9   7 22151.1 2773.27   6
  -2   9   7 20387.5 2371.63   5
  -2  -9   7 15925.0 2230.05   5
   2   9  -7 16784.7 2676.15   1
  -2   9   6 23520.0 2766.77   6
  -2  -9   6 24338.0 2495.70   5
  -2   9   6 23632.0 2330.91   5
   2   9  -6 21881.9 2933.94   1
  -2   9   6 23025.2 3149.60   4
  -2   9   5 4369.71 1374.53   4
  -2   9   5 2253.29 626.668   1
  -2   9   5 3421.97 1115.78   6
   2   9  -5 2347.85 974.893   1
  -2  -9   5 2907.89 809.903   5
  -2   9   5 2591.71 776.838   5
  -2   9   4 84779.7 5396.00   6
  -2   9   4 70286.4 3724.89   1
  -2  -9   4 74453.9 3695.56   5
  -2   9   4 68059.6 3620.54   5
  -2   9   4 74951.0 5015.24   4
   2   9  -4 68689.9 4879.36   1
  -2   9   3 14457.9 1931.06   4
  -2   9   3 15338.8 1605.42   1
  -2   9   3 17030.8 1541.69   5
   2   9  -3 17299.8 2178.33   1
  -2   9   2 65240.8 3890.78   1
  -2   9   2 65916.2 3329.97   5
  -2   9   2 68177.0 4079.32   4
  -2  -9   2 59527.8 4009.59   2
   2   9  -2 70378.8 4413.51   1
  -2   9   1 14263.8 1797.82   1
   2   9  -1 11093.3 1540.92   1
  -2   9   1 13784.4 1575.68   4
   2   9   0 90280.3 5708.46   6
  -2  -9   0 90655.4 4729.31   2
  -2   9   0 89088.1 5275.82   1
   2   9   0 90379.2 4532.11   1
  -2   9   0 94487.2 4092.52   4
  -2  -9  -1 49204.2 3178.35   2
   2   9   1 54529.2 4336.96   6
   2   9   1 57115.1 3024.96   1
  -2   9  -1 51588.1 3972.25   1
  -2   9  -1 47644.7 2280.52   4
   2   9   2 9953.49 1870.59   6
  -2  -9  -2 9249.82 1252.67   2
  -2   9  -2 9303.04 1726.48   1
   2   9   3 91275.7 6148.63   6
  -2  -9  -3 99595.0 4502.86   2
  -2   9  -3 86226.3 5745.70   1
   2   9   4 4700.10 1527.62   6
  -2   9  -4 4320.94 1286.16   1
  -2   9  -5 23141.0 3019.66   1
   2   9   5 22335.6 3142.82   6
  -2   9  -6 2215.30 1174.95   1
   2   9   6 2606.29 1356.85   6
  -2   9  -7 8888.61 2168.66   1
   2   9   7 11851.0 2545.74   6
   2  10  -8 4437.38 1535.54   1
  -2  10   8 9246.56 1938.14   6
  -2  10   8 7848.31 2312.26   4
   2  10  -7 8456.20 2023.56   1
  -2  10   7 8721.51 1826.46   6
  -2  10   7 8326.73 2067.11   4
  -2  10   6 1659.54 922.708   4
   2  10  -6 3307.03 1343.94   1
  -2  10   6 1159.42 608.183   6
  -2  10   5 43434.8 2848.49   1
   2  10  -5 45764.4 4238.21   1
  -2  10   5 47662.3 4233.14   6
  -2  10   5 48904.9 4414.11   4
  -2  10   4 6047.86 1440.07   4
   2  10  -4 5727.36 1397.88   1
  -2  10   4 7219.25 1106.96   1
  -2  10   4 8207.97 1717.80   6
  -2  10   3 99992.2 5087.67   1
  -2  10   3 110543. 4635.07   5
   2  10  -3 109855. 6282.89   1
  -2  10   3 111933. 6119.46   4
  -2  10   2 4579.38 977.464   4
  -2  10   2 5296.72 1138.38   1
   2  10  -2 5354.20 1151.68   1
  -2  10   2 5009.00 812.550   5
  -2  10   1 45036.6 3471.07   1
  -2 -10   1 42374.9 3263.46   2
   2  10  -1 42610.0 3267.29   1
  -2  10   1 42384.5 2932.15   4
   2  10   0 56746.4 3539.13   1
  -2 -10   0 52079.3 3531.72   2
  -2  10   0 50071.5 3978.98   1
  -2  10   0 51241.6 2901.96   4
   2  10   0 51642.1 4375.48   6
  -2  10  -1 2665.77 872.853   1
   2  10   1 3329.06 1157.32   6
   2  10   1 3693.98 755.209   1
  -2  10  -2 56961.0 4442.73   1
  -2 -10  -2 49868.9 3263.01   2
   2  10   2 51996.5 4560.59   6
   2  10   3 28584.0 3386.62   6
  -2  10  -3 27297.3 3108.39   1
   2  10   4 45630.2 4492.79   6
  -2  10  -4 44109.1 4245.03   1
   2  10   5 757.654 963.375   6
  -2  10  -5 2668.26 1221.25   1
  -2  10  -6 9619.95 2181.46   1
   2  10   6 5024.79 1726.50   6
  -2  11   8 7946.99 1907.08   6
   2  11  -7 9452.87 2151.76   1
  -2  11   7 9276.45 1931.96   6
  -2  11   7 9716.62 2224.21   4
  -2  11   6 23089.8 3139.78   6
   2  11  -6 24583.9 3362.98   1
  -2  11   6 20842.6 3113.40   4
  -2  11   5 2703.11 1183.91   4
   2  11  -5 1154.76 639.215   1
  -2  11   5 2131.14 1126.99   6
   2  11  -4 17683.5 2598.21   1
  -2  11   4 17342.1 1847.20   1
  -2  11   4 17452.5 2639.45   6
  -2  11   4 18935.3 2537.23   4
  -2  11   3 6011.75 1364.04   4
  -2  11   3 6230.14 1571.58   6
  -2  11   3 4934.85 994.357   1
   2  11  -3 5943.30 1418.29   1
  -2  11   2 37283.7 3099.92   1
   2  11  -2 33478.1 3175.55   1
  -2  11   2 39455.9 3263.34   4
   2  11  -1 22193.5 2365.98   1
  -2  11   1 23560.3 2536.06   1
  -2  11   1 19441.5 1987.15   4
  -2  11   0 7672.99 1505.83   1
   2  11   0 6118.43 1181.33   1
   2  11   0 7556.11 1715.87   6
  -2 -11  -1 17837.9 2031.35   2
  -2  11  -1 26167.0 2941.65   1
   2  11   1 22909.9 2970.08   6
   2  11   2 31050.3 3635.34   6
  -2 -11  -2 29836.0 2572.03   2
  -2  11  -2 28625.8 3182.54   1
   2  11   3 20035.6 2961.81   6
  -2  11  -3 16167.4 2606.83   1
   2  11   4-618.157 946.234   6
  -2  11  -4 667.264 793.613   1
   2  11   5 16323.7 2770.58   6
  -2  11  -5 17266.7 2821.03   1
  -2  12   8 7196.31 1942.11   6
  -2  12   7 5566.21 1721.14   4
  -2  12   7 8516.26 1981.76   6
   2  12  -7 7482.39 1992.41   1
  -2  12   6-160.379 773.182   6
   2  12  -6 534.443 815.494   1
  -2  12   6-601.689 639.140   4
  -2  12   5 18816.9 2917.59   6
   2  12  -5 18013.6 2833.86   1
  -2  12   5 16708.3 2751.57   4
  -2  12   4 772.498 496.932   1
  -2  12   4 1397.63 890.202   6
   2  12  -4-347.830 723.569   1
  -2  12   4 307.851 673.144   4
  -2  12   3 31507.8 2790.36   1
   2  12  -3 30745.8 3320.27   1
  -2  12   3 37060.9 4058.36   6
  -2  12   3 34468.0 3348.07   4
   2  12  -2 5297.10 1216.71   1
  -2  12   2 8970.60 1514.36   1
  -2  12   2 6660.78 1293.72   4
   2  12  -1 27963.2 2844.92   1
  -2  12   1 26499.2 2848.11   1
   2  12   0 6156.74 1219.25   1
   2  12   0 6991.76 1794.17   6
  -2  12   0 4330.44 1153.38   1
  -2  12  -1 15942.8 2383.13   1
   2  12   1 15503.5 2700.60   6
  -2  12  -2 17558.7 2645.87   1
   2  12   2 18796.2 2914.05   6
   2  12   3 8262.34 1875.32   6
  -2  12  -3 9846.60 2014.57   1
   2  12   4 16215.2 2835.64   6
  -2  12  -4 16141.2 2649.13   1
   2  12   5 1692.66 1411.52   6
  -2  12  -5 1010.09 944.309   1
  -2  13   7 1284.09 1021.92   6
  -2  13   6 3827.59 1412.60   6
   2  13  -6 4055.10 1601.70   1
  -2  13   6 4766.48 1630.62   4
   2  13  -5-222.448 537.721   1
  -2  13   5-355.956 793.417   6
  -2  13   4 54931.5 5204.79   6
   2  13  -4 46704.2 4530.87   1
  -2  13   4 41430.0 4057.17   4
  -2  13   3 2856.75 1256.85   6
  -2  13   3 1573.37 624.671   1
   2  13  -3 1373.54 782.597   1
  -2  13   3 1092.65 646.591   4
   2  13  -2 28423.6 3173.67   1
  -2  13   2 27561.9 2813.13   1
   2  13  -1 7926.44 2042.36   6
   2  13  -1 9703.95 1827.24   1
  -2  13   1 10877.7 1899.82   1
   2  13   0 11232.0 2348.50   6
  -2  13   0 13076.2 2163.85   1
  -2  13  -1 16215.3 2454.15   1
   2  13   1 20498.3 3148.03   6
  -2  13  -2 2056.36 1003.96   1
   2  13   2 1628.52 1122.49   6
   2  13   3 15544.7 2845.38   6
  -2  13  -3 13619.3 2482.13   1
  -2  13  -4 1747.07 798.803   1
   2  13   4 2079.38 1165.75   6
   2  14  -5 16315.9 2881.98   1
  -2  14   5 17338.7 2949.37   6
   2  14  -4 2140.11 1045.39   1
  -2  14   4 1257.27 811.030   6
   2  14  -3 11888.2 2195.90   1
  -2  14   3 12194.3 2558.10   6
   2  14  -2 1508.70 636.464   1
  -2  14   2 577.873 445.320   1
   2  14  -1 9411.54 1714.41   1
   2  14  -1 10541.9 2262.69   6
  -2  14   1 11470.0 2056.18   1
   2  14   0 14982.4 2877.69   6
  -2  14   0 13833.0 2330.83   1
   2  14   1 8794.00 2087.50   6
  -2  14  -1 11388.8 2171.16   1
  -2  14  -2 9239.74 2151.23   1
   2  14   2 10551.2 2491.32   6
  -2  14  -3-1259.84 1103.89   1
   2  15  -4 4765.18 1571.43   1
  -2  15   3-109.731 728.320   6
   2  15  -3 734.648 723.513   1
   2  15  -2 14809.0 2446.06   1
  -2  15   2 11139.2 1844.72   1
   2  15  -1 4834.84 1687.61   6
  -2  15   1 6928.02 1667.77   1
   2  15   0 10223.1 2407.15   6
  -2  15   0 10356.4 2108.39   1
  -2  15  -1 9175.89 2043.54   1
   2  16  -3 10583.1 2327.24   1
  -2  16   1 7734.35 1730.19   1
  -2  16   0 1226.00 891.078   1
  -3   0  11 19456.6 3172.51   5
  -3   0  11 14312.1 2682.65   4
  -3   0  10 387.684 721.368   4
  -3   0  10 79.6924 564.425   5
  -3   0   9 34789.6 3694.09   5
  -3   0   9 39151.0 3932.44   4
  -3   0   8 6434.53 1087.39   3
  -3   0   8 8770.51 1668.99   5
  -3   0   7 17378.3 1598.58   3
  -3   0   7 17347.2 2192.22   5
  -3   0   6 69733.3 3126.20   3
  -3   0   6 64028.9 4092.27   5
  -3   0   5 33880.1 1653.17   3
  -3   0   5 27868.2 1798.94   2
  -3   0   5 29555.9 2381.93   5
   3   0  -5 30792.1 1585.33   6
  -3   0   4 312788. 8420.20   2
  -3   0   4 333643. 9601.79   5
  -3   0   3 105212. 3844.70   2
  -3   0   3 105279. 4465.42   5
   3   0  -2 207542. 5817.36   3
  -3   0   2 202460. 5816.92   6
  -3   0   2 211209. 6445.21   2
  -3   0   1 15039.1 1066.50   1
   3   0  -1 16849.7 1125.90   3
   3   0  -1 14795.3 1119.35   1
  -3   0   1 15233.0 1086.69   6
   3   0   0 66564.8 2885.71   1
   3   0   0 71205.3 3204.80   3
  -3   0   0 71640.4 2776.06   1
  -3   0  -1 8929.55 841.857   1
   3   0   1 10420.5 1212.04   3
   3   0   1 9713.47 990.251   1
   3   0   2 158800. 6800.20   3
  -3   0  -2 173022. 5848.69   1
   3   0   3 116783. 5949.58   3
  -3   0  -3 132057. 5043.06   1
   3   0   4 32593.0 3075.48   3
  -3   0  -4 34557.6 2351.92   1
   3   0   5 40956.4 3714.10   3
  -3   0  -5 47527.1 2970.94   1
   3   0   6 6547.92 1616.83   3
   3   0   7 19721.3 2910.76   3
   3   0   8 227.311 773.601   3
  -3  -1  11 4037.43 1465.33   5
  -3   1  11 4239.48 1527.00   5
  -3   1  11 2693.05 1301.57   4
  -3  -1  10 13289.4 2377.87   4
   3   1 -10 16304.3 2452.92   1
  -3  -1  10 11951.9 2365.86   5
  -3   1  10 17394.0 2761.65   5
  -3   1  10 17524.8 2839.80   4
  -3  -1   9 18775.7 2661.18   4
  -3   1   9 18077.9 2750.79   4
  -3  -1   9 22534.3 2937.40   5
  -3   1   9 16779.0 2521.77   5
  -3   1   8 8207.12 1758.24   4
  -3  -1   8 14132.3 1606.02   3
  -3   1   8 6713.69 1172.03   3
  -3  -1   8 13514.1 2054.69   5
  -3   1   8 6813.70 1579.86   5
  -3   1   7 35400.5 2476.19   3
  -3  -1   7 34538.8 2336.25   3
  -3  -1   7 30362.3 2967.68   5
  -3  -1   6 79469.4 3472.08   3
  -3  -1   6 81344.5 4606.91   5
  -3   1   6 80650.0 4594.47   5
   3  -1  -6 82981.1 3111.12   2
  -3  -1   5 78230.4 2928.21   3
   3   1  -5 75667.3 2934.29   6
   3  -1  -5 73548.3 3007.23   6
  -3   1   5 78720.7 4156.22   5
  -3  -1   5 76648.9 4064.10   5
  -3   1   5 74885.5 3040.74   2
   3  -1  -5 79300.3 2881.29   2
  -3  -1   5 70882.0 3426.86   2
  -3   1   4 106909. 3268.20   6
  -3   1   4 98571.3 3661.50   2
   3   1  -4 104983. 3264.40   6
  -3   1   4 103730. 4713.88   5
  -3  -1   4 97099.9 4112.47   2
  -3  -1   4 100481. 4584.30   5
  -3   1   3 98223.6 3338.91   2
  -3  -1   3 82062.4 3546.14   2
  -3  -1   3 86229.6 3929.63   5
  -3   1   3 94401.8 4172.90   5
  -3   1   2 41345.9 2082.42   1
  -3  -1   2 41150.3 1614.31   3
  -3  -1   2 38459.3 2035.17   2
   3   1  -2 42755.6 1669.91   6
  -3  -1   2 36123.0 1660.24   6
   3   1  -1 216565. 6503.33   3
   3   1  -1 205231. 6356.60   1
  -3  -1   1 190464. 6322.37   3
  -3   1   1 215842. 6576.45   1
   3   1  -1 223106. 6564.61   6
  -3  -1   1 196988. 6459.58   2
  -3  -1   1 184615. 6387.36   6
   3   1   0 28165.7 1899.42   3
   3   1   0 27843.6 1519.55   1
   3   1   0 26641.5 1899.92   6
  -3   1   0 27098.0 1657.10   1
   3   1   1 181570. 6931.66   3
  -3  -1  -1 179800. 5600.93   1
  -3   1  -1 191639. 6372.49   1
   3   1   1 186278. 5930.75   1
   3   1   1 186501. 7079.70   6
   3   1   2 89008.8 4613.00   3
   3   1   2 80537.5 4616.72   6
  -3  -1  -2 88952.0 3326.29   1
  -3   1  -2 94125.9 4067.23   1
   3   1   2 99515.2 3755.42   1
   3   1   3 114429. 4321.19   1
   3   1   3 97886.6 5437.15   3
  -3   1  -3 110562. 4803.91   1
  -3  -1  -3 108680. 4099.38   1
   3   1   4 113568. 6203.19   3
   3  -1   4 95384.1 5697.10   3
  -3  -1  -4 105708. 4351.73   1
   3  -1   5 10069.3 1817.32   3
   3   1   5 5625.24 1437.08   3
  -3   1  -5 7382.07 1216.22   1
   3  -1   6 23065.0 2987.64   3
   3   1   6 21629.5 2942.65   3
   3   1   7 1260.24 728.485   3
   3  -1   7 1021.96 954.539   3
   3   1   8 9918.50 2248.97   3
   3  -1   8 12407.7 2623.27   3
  -3   2  11 4534.94 1647.22   5
   3   2 -11 6243.51 1772.58   1
  -3   2  11 8170.29 2217.61   4
  -3   2  10 2364.81 1190.41   4
  -3   2  10 2055.56 984.556   5
  -3  -2  10 539.313 1007.24   5
   3   2 -10 1548.23 924.824   1
  -3  -2   9 5731.38 1364.25   4
  -3   2   9 6445.23 1748.97   4
  -3  -2   9 7528.38 1776.73   5
  -3   2   9 6948.65 1721.98   5
  -3  -2   8 65187.5 3747.78   3
  -3  -2   8 62651.9 4636.99   5
  -3   2   8 65013.5 4714.48   5
  -3  -2   8 58284.6 4304.22   4
  -3   2   8 60509.9 4851.88   4
  -3  -2   7 86391.4 3986.33   3
  -3  -2   7 79154.8 4912.05   5
  -3   2   6 21657.1 1650.26   6
  -3   2   6 23824.8 2322.80   5
   3  -2  -5 120442. 4075.73   3
  -3   2   5 110774. 5223.05   5
  -3   2   5 108957. 4009.33   6
  -3  -2   5 114561. 5135.27   5
  -3  -2   5 108119. 4682.55   2
   3  -2  -4 52547.6 1984.13   3
  -3  -2   4 54093.3 2722.48   2
  -3  -2   4 55082.1 2933.52   5
  -3   2   4 31055.5 2409.20   5
  -3   2   3 139274. 4958.20   1
  -3  -2   3 116874. 4779.51   2
  -3  -2   3 113070. 4842.86   5
  -3   2   3 140758. 4256.73   2
  -3   2   3 132548. 5337.47   5
  -3  -2   2 374841. 10589.9   3
  -3   2   2 364912. 10972.5   1
  -3  -2   2 382489. 11193.9   2
   3   2  -2 365662. 10687.3   6
   3   2  -1 10326.2 882.758   1
  -3  -2   1 12200.9 1059.01   3
  -3  -2   1 10632.2 1020.52   2
  -3   2   1 10047.7 978.695   1
  -3  -2   1 12594.8 1158.29   6
   3   2  -1 11904.5 1085.36   6
   3   2   0 199448. 7162.43   3
   3   2   0 206526. 7199.67   6
  -3   2   0 188601. 6817.29   1
   3   2   0 200775. 6164.97   1
  -3  -2  -1 169268. 4930.05   1
   3   2   1 159888. 6482.81   3
   3   2   1 160830. 6505.61   6
  -3   2  -1 166971. 6175.75   1
   3   2   1 164176. 5119.63   1
   3   2   2 64547.4 3883.42   3
  -3  -2  -2 67299.4 2331.67   1
  -3   2  -2 69242.0 3592.95   1
   3   2   2 64043.2 3982.87   6
   3   2   2 67341.4 2588.16   1
   3   2   3 33978.2 2969.83   3
   3   2   3 37107.0 3228.77   6
  -3   2  -3 41612.8 2798.31   1
  -3  -2  -3 43751.4 1786.98   1
   3   2   4 47094.3 3747.77   3
  -3  -2  -4 43837.3 2065.52   1
  -3   2  -4 56152.4 3496.68   1
   3   2   4 46251.3 3972.96   6
  -3   2  -5 12232.5 1725.26   1
   3   2   5 12018.5 2082.58   3
   3  -2   6 4711.38 1380.47   3
  -3   2  -6 4415.83 1032.16   1
   3   2   6 1929.74 919.180   3
   3  -2   7 20777.3 3002.67   3
   3   2   7 21140.0 3170.91   3
   3   2   8 881.901 722.274   3
   3  -2   8-26.2912 680.373   3
   3   3 -11 1329.45 872.636   1
  -3   3  11 2927.34 1525.00   4
  -3   3  10 5553.55 1747.06   4
   3   3 -10 8440.02 1868.15   1
  -3  -3  10 10034.5 2173.54   5
  -3   3  10 12053.1 2317.78   5
   3   3  -9 751.256 766.741   1
  -3   3   9 3080.45 1419.85   4
  -3  -3   9 2099.25 850.753   4
  -3  -3   9 1291.47 843.196   5
  -3   3   9 4406.56 1335.66   5
  -3  -3   8 61277.5 3640.74   3
  -3  -3   8 52592.7 4248.65   5
  -3   3   8 49957.6 4190.05   5
  -3  -3   8 52754.2 3893.96   4
  -3   3   8 46004.8 4370.94   4
  -3   3   7 15092.4 2019.33   5
  -3   3   7 13110.3 1483.73   6
  -3   3   6 206298. 7179.91   6
  -3  -3   6 188529. 8150.60   5
  -3   3   6 206682. 8321.58   5
  -3   3   5 7367.13 864.067   6
  -3  -3   5 7211.01 1143.20   5
  -3  -3   5 6905.76 1064.83   2
  -3   3   5 5113.72 449.747   2
  -3   3   5 7629.69 1281.10   5
  -3   3   4 22297.7 1725.80   1
  -3   3   4 21504.6 1513.83   6
  -3  -3   4 28089.3 2056.70   2
  -3   3   4 22850.6 1152.59   2
  -3  -3   4 29190.5 2040.93   5
  -3   3   4 22041.4 1943.30   5
  -3   3   3 663876. 17951.1   1
  -3  -3   3 610856. 17966.8   5
  -3  -3   3 619191. 18221.8   2
  -3   3   2 128389. 4819.21   1
   3   3  -2 125028. 4745.82   6
  -3  -3   2 128595. 4992.57   2
  -3  -3   2 132338. 4707.07   5
  -3   3   1 218052. 7577.76   1
  -3  -3   1 237897. 7686.43   2
   3   3  -1 236728. 7762.09   6
   3   3   0 32199.2 1488.40   1
  -3   3   0 33564.7 2266.30   1
   3   3   0 34624.0 2324.40   6
  -3  -3   0 29328.5 1899.18   2
   3   3   1 71213.6 3960.33   3
   3   3   1 78517.3 4085.00   6
   3   3   1 71119.5 2478.73   1
  -3   3  -1 78940.7 3906.14   1
  -3  -3  -1 83953.5 3461.98   2
   3   3   2 59729.4 3868.75   3
  -3   3  -2 65535.9 3734.28   1
  -3  -3  -2 63288.4 3049.29   2
   3   3   2 60771.5 3863.09   6
   3   3   3 91572.7 5338.92   3
   3   3   3 94595.3 5492.32   6
  -3   3  -3 99829.3 5003.56   1
   3   3   4 22270.0 2658.37   3
   3   3   4 25770.5 2854.28   6
  -3   3  -4 31718.0 2733.82   1
   3   3   5 10648.3 1895.96   3
   3   3   5 10049.0 1893.47   6
  -3   3  -5 10718.3 1641.46   1
   3   3   6 33301.0 3742.17   3
   3  -3   6 44199.9 4216.89   3
  -3   3  -6 37919.5 3355.17   1
   3   3   7 6558.58 1831.24   3
   3  -3   7 5247.15 1605.69   3
   3   3   8 18641.1 3176.27   3
   3  -3   8 19907.4 3167.72   3
   3   4 -11 4308.64 1401.81   1
  -3   4  11 5516.81 1801.38   4
  -3   4  10-1259.18 863.828   4
  -3  -4  10-204.974 707.302   5
  -3   4  10 1880.82 1159.31   5
   3   4 -10 506.891 717.222   1
  -3   4   9 25026.3 3478.89   4
   3   4  -9 24829.3 3094.28   1
  -3  -4   9 25140.9 3144.16   5
  -3   4   9 22829.4 2950.20   5
  -3  -4   8 1730.60 761.543   4
  -3   4   8 2454.28 1150.19   4
  -3   4   8 1134.00 576.479   6
  -3  -4   8 2028.07 827.176   5
  -3   4   8 2216.21 898.122   5
   3   4  -8 598.132 665.077   1
  -3   4   7 62619.9 3608.91   6
  -3  -4   7 52192.4 3970.07   5
  -3   4   7 62759.0 4321.76   5
  -3   4   6 61132.0 4007.62   5
  -3   4   6 65899.4 3498.07   6
  -3   4   5 14177.6 1711.11   5
  -3  -4   5 9607.57 1341.52   2
  -3  -4   5 8229.14 1222.71   5
  -3   4   5 15593.3 1439.45   6
  -3   4   4 69112.4 3381.01   1
  -3   4   4 69774.5 3431.82   6
  -3  -4   4 80476.9 3981.03   2
  -3  -4   4 77249.0 3654.12   5
  -3   4   4 70033.7 2415.87   2
  -3   4   4 65552.5 3736.43   5
  -3   4   3 36932.6 2227.77   1
  -3  -4   3 42656.1 2713.18   2
  -3  -4   3 39798.7 2255.89   5
  -3   4   2 528421. 14982.2   1
  -3  -4   2 493775. 15194.2   2
  -3  -4   2 483963. 14356.9   5
   3   4  -2 535950. 15335.0   6
  -3   4   1 33203.5 2213.48   1
  -3  -4   1 34596.8 2209.33   2
   3   4  -1 35076.9 2355.91   6
   3   4   0 210006. 7519.39   6
  -3   4   0 198751. 7306.33   1
   3   4   1 25639.7 2289.43   6
   3   4   1 22940.2 987.660   1
  -3   4  -1 25338.1 2220.01   1
  -3   4  -2 9632.45 1372.45   1
   3   4   2 8648.04 1546.04   6
  -3  -4  -2 9368.34 1052.46   2
   3   4   3 45070.8 3730.78   3
  -3   4  -3 57451.7 3683.22   1
   3   4   3 54759.3 3939.88   6
  -3  -4  -3 46294.4 2694.43   2
   3   4   4 20885.1 2651.52   6
   3   4   4 15707.6 2296.91   3
  -3   4  -4 21468.7 2332.17   1
  -3  -4  -4 23300.8 1793.02   2
   3   4   5 63198.1 4994.78   3
   3   4   5 64671.9 5084.87   6
  -3   4  -5 67692.6 4605.14   1
  -3  -4  -5 58647.1 3236.91   2
   3   4   6 8340.45 1795.01   3
   3   4   6 6581.22 1789.01   6
  -3   4  -6 9234.90 1693.01   1
   3  -4   7 33208.7 3948.52   3
   3   4   7 20032.6 3242.91   3
   3  -4   8-1474.61 1252.81   3
   3   5 -11 265.731 507.096   1
  -3   5  10 7819.75 2264.00   4
  -3   5  10 5591.50 1590.22   5
  -3  -5  10 7579.95 1867.80   5
   3   5 -10 4379.94 1449.84   1
  -3   5   9 1844.25 897.249   4
  -3   5   9 481.026 646.983   5
  -3  -5   9 623.590 672.573   5
   3   5  -9 1640.08 843.964   1
   3   5  -8 21261.4 2784.59   1
  -3   5   8 22991.5 2375.14   6
  -3  -5   8 22512.0 2755.42   5
  -3   5   8 24508.5 2817.54   5
  -3   5   8 24277.5 3274.22   4
   3   5  -7 41825.7 3712.65   1
  -3   5   7 43294.9 3061.64   6
  -3   5   7 45888.9 3664.82   5
  -3  -5   7 50589.7 3829.47   5
  -3   5   6 13230.9 1564.79   6
  -3   5   6 13765.0 1816.07   5
  -3  -5   5 54664.6 3310.93   5
  -3   5   5 55551.5 3525.92   5
  -3  -5   5 47455.4 3369.57   2
  -3   5   5 58301.9 3333.61   6
  -3   5   4 20637.4 1688.20   1
  -3  -5   4 16653.9 1848.99   2
  -3  -5   4 17047.9 1581.65   5
  -3   5   4 21084.5 1948.20   5
  -3   5   4 20985.1 1933.21   6
  -3  -5   3 42342.3 2317.13   5
  -3  -5   3 43726.3 2943.21   2
  -3   5   2 44296.7 2681.49   1
  -3  -5   2 49115.7 2224.28   5
  -3  -5   2 51706.5 3021.04   2
   3   5  -1 137597. 6011.29   6
  -3  -5   1 148247. 5765.08   2
  -3   5   1 138527. 5779.53   1
   3   5   0 42313.9 2089.39   1
  -3   5   0 45738.0 2967.45   1
  -3  -5   0 37290.9 1904.40   5
  -3  -5   0 40992.6 2529.47   2
   3   5   0 46070.6 3074.85   6
   3   5   1 76695.1 2432.41   1
  -3   5  -1 75356.9 4374.45   1
   3   5   1 72282.0 2588.79   1
   3   5   1 78449.3 4441.10   6
   3   5   2 26151.3 2636.23   6
  -3  -5  -2 32550.8 2175.67   2
  -3   5  -2 28402.2 2567.47   1
   3   5   3 20469.6 2417.21   6
  -3  -5  -3 19329.5 1669.66   2
  -3   5  -3 24278.4 2442.06   1
   3   5   4 39763.9 3672.69   6
  -3   5  -4 44392.8 3645.38   1
  -3  -5  -4 34261.7 2360.08   2
   3   5   5 7818.60 1805.89   6
  -3   5  -5 7998.66 1584.31   1
  -3   5  -6 16167.6 2275.60   1
   3   5   6 9575.50 2134.04   6
   3   5   7 56.5948 674.997   6
  -3   5  -7 2247.55 1051.89   1
  -3   6  10-126.588 1018.27   4
   3   6 -10 446.722 699.877   1
  -3  -6  10-617.574 509.099   5
  -3   6  10 485.375 777.738   5
  -3   6   9 16528.0 2938.86   4
   3   6  -9 19637.5 2875.52   1
  -3  -6   9 21509.1 2963.74   5
  -3   6   9 18906.9 2669.84   5
  -3   6   8 1746.37 1034.93   4
  -3   6   8 4944.79 1101.60   6
  -3  -6   8 2131.54 854.618   5
  -3   6   8 2685.63 956.150   5
   3   6  -8 3010.95 1089.96   1
   3   6  -7 38474.7 3796.88   1
  -3  -6   7 41123.5 3459.46   5
  -3   6   7 42552.4 3526.88   5
  -3   6   7 45679.4 3292.52   6
  -3   6   7 42780.2 4207.94   4
   3   6  -6 19358.2 2411.59   1
  -3   6   6 21384.6 2110.27   6
  -3   6   6 19355.3 2132.86   5
  -3   6   5 13311.6 1444.08   1
  -3   6   5 14508.4 1726.22   6
  -3   6   5 13087.7 1649.01   5
   3   6  -5 10951.6 1673.18   1
  -3  -6   5 12176.8 1683.03   2
  -3  -6   5 13101.6 1543.24   5
  -3   6   4 77220.3 3747.40   1
  -3  -6   4 76814.6 4428.77   2
  -3   6   4 76752.6 4092.37   5
  -3  -6   4 75057.0 3687.34   5
  -3   6   4 83698.4 4425.71   6
  -3  -6   3 13154.5 1158.08   5
  -3  -6   3 11315.4 1457.03   2
  -3   6   3 10408.1 1228.72   1
   3   6  -2 115069. 5220.65   1
  -3  -6   2 128548. 5674.25   2
  -3   6   2 115340. 5151.84   1
  -3  -6   2 124339. 4117.42   5
   3   6  -1 23533.5 1808.66   1
   3   6  -1 23090.6 2247.76   6
  -3   6   1 23391.1 2085.13   1
  -3  -6   1 27305.6 2121.25   2
  -3  -6   1 22266.1 1190.17   5
   3   6   0 132578. 6216.29   6
  -3  -6   0 140497. 5581.53   2
  -3   6   0 129319. 5940.17   1
  -3  -6   0 126396. 4204.71   5
   3   6   0 122421. 4740.67   1
   3   6   1 19961.8 2180.18   6
  -3  -6  -1 19716.1 1735.22   2
  -3   6  -1 20271.8 2143.87   1
  -3  -6  -1 17597.9 1286.35   5
   3   6   1 17633.9 1066.15   1
   3   6   2 82251.0 5171.06   6
  -3  -6  -2 91361.3 4177.31   2
  -3   6  -2 86240.0 5016.74   1
  -3  -6  -3 40573.2 2563.21   2
  -3   6  -3 38672.5 3416.60   1
   3   6   3 36882.5 3451.41   6
  -3   6  -4 37238.4 3395.71   1
  -3  -6  -4 38338.1 2485.44   2
   3   6   4 32999.6 3524.67   6
   3   6   5 37032.8 4024.99   6
  -3   6  -5 44425.6 3905.40   1
   3   6   6 1914.43 1069.44   6
  -3   6  -6 1251.66 871.964   1
   3   6   7 15588.3 2927.20   6
  -3   6  -7 16895.9 2617.12   1
  -3  -7  10 5542.50 1675.62   5
  -3   7  10 7114.47 1869.25   5
   3   7 -10 7292.53 2020.91   1
  -3   7   9 1515.78 1133.01   4
   3   7  -9-14.4185 515.130   1
  -3  -7   9 1090.77 772.018   5
  -3   7   9 1800.57 986.456   5
  -3   7   8 39340.3 3376.15   6
  -3  -7   8 46536.0 4035.07   5
  -3   7   8 40914.8 3765.12   5
  -3   7   8 40964.0 4539.88   4
   3   7  -8 39506.7 4078.22   1
   3   7  -7 34077.7 3591.82   1
  -3  -7   7 34297.4 3137.09   5
  -3   7   7 37982.0 3315.20   5
  -3   7   7 36257.8 3085.01   6
  -3   7   7 35199.2 3948.35   4
   3   7  -6 43324.9 3889.24   1
  -3  -7   6 42466.8 3252.11   5
  -3   7   6 48544.1 3492.31   5
  -3   7   6 55170.4 3753.98   6
   3   7  -5 20108.0 2479.75   1
  -3   7   5 20634.6 1851.48   1
  -3   7   5 21918.0 2354.50   6
  -3   7   5 20947.6 2101.21   5
   3   7  -4 12883.1 1773.46   1
  -3   7   4 14664.4 1517.31   1
  -3   7   4 15660.9 1899.37   6
  -3   7   4 11936.7 1039.13   2
  -3  -7   4 18776.6 1605.30   5
  -3   7   4 13208.8 1568.56   5
  -3  -7   4 20637.7 2203.20   2
   3   7  -3 83272.8 4591.65   1
  -3   7   3 81197.8 4055.97   1
  -3  -7   3 80261.1 4547.03   2
  -3  -7   3 75971.1 3279.03   5
  -3   7   3 87392.1 4250.71   5
  -3  -7   2 6816.02 609.244   5
   3   7  -2 8226.75 1209.14   1
  -3   7   2 8050.01 1195.29   1
  -3  -7   2 7859.56 1265.81   2
   3   7  -1 286211. 10759.9   6
  -3  -7   1 282144. 10093.5   2
  -3   7   1 273961. 10119.6   1
   3   7  -1 274273. 9461.83   1
   3   7   0 56319.3 3991.37   6
  -3  -7   0 61828.2 3511.26   2
  -3   7   0 54746.2 3774.33   1
  -3  -7   0 56649.4 1945.79   5
   3   7   0 53057.3 2898.37   1
  -3  -7  -1 43413.5 2801.72   2
  -3   7  -1 42118.8 3348.66   1
  -3  -7  -1 40580.6 1936.60   5
   3   7   1 39261.9 1946.82   1
   3   7   1 43320.7 3509.77   6
  -3   7  -2 44053.7 3663.81   1
   3   7   2 43772.4 3720.05   6
  -3  -7  -2 42052.1 2744.87   2
   3   7   3 32336.2 3281.19   6
  -3  -7  -3 32848.8 2372.38   2
  -3   7  -3 36937.1 3357.74   1
   3   7   4 10975.3 2102.70   6
  -3   7  -4 13150.5 2110.11   1
  -3   7  -5 11725.1 2040.34   1
   3   7   5 8743.92 1962.81   6
  -3   7  -6 35885.7 3813.34   1
   3   7   6 33504.8 4138.75   6
  -3   7  -7 1304.63 868.750   1
   3   7   7 878.075 959.011   6
  -3  -8  10 271.118 538.451   5
  -3   8  10 1218.05 874.058   5
  -3   8   9 2210.90 1387.85   4
  -3  -8   9 169.381 520.845   5
  -3   8   9 741.286 570.509   5
   3   8  -9 1936.87 1134.63   1
  -3   8   8 7576.57 2183.99   4
   3   8  -8 5654.35 1635.38   1
  -3   8   8 6805.83 1468.48   6
  -3  -8   8 3511.78 1146.10   5
  -3   8   8 5570.41 1437.77   5
  -3   8   7 16697.1 2773.36   4
   3   8  -7 15213.4 2450.91   1
  -3  -8   7 13269.7 1976.66   5
  -3   8   7 17462.0 2257.91   6
  -3   8   7 15749.6 2130.21   5
  -3   8   6 26693.5 2736.87   6
  -3  -8   6 29837.1 2667.15   5
  -3   8   6 23299.2 2407.78   5
  -3   8   6 27799.6 3312.46   4
   3   8  -6 23433.8 2904.72   1
   3   8  -5 25271.4 2783.08   1
  -3   8   5 22020.1 1947.91   1
  -3  -8   5 23196.0 2069.96   5
  -3   8   5 22984.5 2254.07   5
  -3   8   5 24744.8 2594.39   6
   3   8  -4 24576.1 2611.45   1
  -3   8   4 23387.7 2647.25   6
  -3   8   4 21275.7 1992.71   1
  -3  -8   4 32966.3 2926.48   2
  -3   8   4 21607.5 2048.70   5
  -3  -8   4 29122.4 2004.91   5
   3   8  -3 3019.64 896.032   1
  -3   8   3 2898.88 709.110   1
  -3  -8   3 3545.61 947.385   2
  -3  -8   3 4236.76 578.462   5
  -3   8   3 2803.71 768.820   5
  -3   8   2 85612.0 4371.05   1
  -3  -8   2 81443.3 4477.50   2
   3   8  -2 82478.0 4383.59   1
  -3  -8   1 26419.7 2390.13   2
  -3   8   1 21639.3 2267.69   1
   3   8  -1 22755.2 2481.79   6
   3   8  -1 23493.2 2083.80   1
  -3  -8   0 20528.8 2058.61   2
   3   8   0 20252.2 2371.76   6
  -3   8   0 20712.0 2347.49   1
   3   8   0 17899.5 1660.62   1
  -3  -8  -1 18663.7 1897.54   2
  -3   8  -1 26122.5 2633.13   1
   3   8   1 22502.8 1510.93   1
   3   8   1 24007.6 2723.36   6
   3   8   2 58113.5 4562.26   6
  -3   8  -2 61746.6 4488.90   1
  -3  -8  -2 63831.1 3606.29   2
  -3  -8  -3 21900.9 1933.65   2
  -3   8  -3 20527.9 2567.28   1
   3   8   3 20182.2 2776.61   6
   3   8   4 15832.5 2574.78   6
  -3   8  -4 21334.1 2842.91   1
   3   8   5 7143.71 1841.36   6
  -3   8  -5 5085.03 1454.69   1
  -3   8  -6 1211.08 637.670   1
   3   8   6 1274.46 1175.93   6
  -3   8  -7 6800.95 1668.48   1
  -3   9   9 3257.70 1417.24   4
   3   9  -9 1584.28 830.775   1
  -3  -9   9 3722.25 1230.87   5
  -3   9   8 10829.1 2365.45   4
  -3   9   8 10096.3 1871.50   6
  -3  -9   8 9587.79 1858.76   5
  -3   9   8 10312.7 1754.96   5
   3   9  -8 8020.45 1893.64   1
  -3   9   7 7558.62 1935.66   4
  -3   9   7 10328.9 1818.71   6
  -3  -9   7 8563.95 1623.87   5
  -3   9   7 9862.99 1665.12   5
   3   9  -7 10777.3 2109.57   1
  -3   9   6 23328.7 2164.11   1
  -3   9   6 22559.8 3024.12   4
  -3   9   6 24207.2 2763.37   6
  -3  -9   6 20039.9 2201.85   5
  -3   9   6 22443.9 2313.64   5
   3   9  -6 21210.1 2858.94   1
  -3   9   5 49279.7 3149.45   1
  -3  -9   5 48344.6 3142.13   5
  -3   9   5 55533.7 4252.64   6
  -3   9   5 46272.2 3260.35   5
   3   9  -5 47209.5 4081.83   1
  -3   9   5 49849.4 4322.55   4
  -3   9   4 15374.8 1698.54   1
  -3   9   4 12727.3 2083.43   6
  -3   9   4 10578.3 1420.44   5
   3   9  -4 14050.6 1986.17   1
  -3   9   3 59839.6 3603.55   5
  -3   9   3 58461.4 3677.99   1
  -3  -9   3 71190.4 4545.08   2
   3   9  -3 62369.8 4287.28   1
   3   9  -2 1307.78 655.964   1
  -3   9   2 2550.07 824.580   1
   3   9  -1 94386.3 5846.32   6
  -3   9   1 93073.0 5330.95   1
   3   9  -1 95476.0 5001.48   1
  -3  -9   1 105679. 5432.45   2
   3   9   0 10185.7 1832.61   6
  -3  -9   0 10543.5 1514.44   2
   3   9   0 9429.83 1234.86   1
  -3   9   0 11308.8 1811.82   1
   3   9   1 26810.7 3113.04   6
  -3  -9  -1 32187.9 2646.47   2
  -3   9  -1 27598.3 3035.41   1
   3   9   2 35356.0 3660.02   6
  -3  -9  -2 38762.7 2897.79   2
  -3   9  -2 33753.0 3360.59   1
  -3   9  -3 17871.1 2503.53   1
   3   9   3 15862.7 2554.33   6
  -3  -9  -3 23699.8 2153.93   2
   3   9   4 22947.4 3192.76   6
  -3   9  -4 22922.7 3062.70   1
   3   9   5 3465.68 1221.60   6
  -3   9  -5 3015.17 1095.12   1
  -3   9  -6 6123.74 1646.93   1
   3   9   6 5540.59 1781.70   6
  -3  10   8 7168.20 2060.76   4
   3  10  -8 9792.91 2143.18   1
  -3  10   7 15826.3 2754.76   4
  -3  10   7 18199.6 2532.52   6
   3  10  -7 16837.1 2771.34   1
  -3  10   6 3430.79 1252.03   4
  -3  10   6 4605.21 1028.54   1
  -3  10   6 4466.81 1359.65   6
   3  10  -6 3738.37 1327.35   1
  -3  10   5 36057.6 2763.29   1
  -3  10   5 43619.9 3928.01   6
  -3  10   5 37952.1 2901.00   5
   3  10  -5 36708.9 3736.37   1
  -3  10   5 36147.2 3753.67   4
  -3  10   4 42632.0 3120.65   1
  -3  10   4 45280.5 4073.34   6
  -3  10   4 40886.8 2903.64   5
   3  10  -4 46220.1 3984.29   1
  -3  10   4 42951.1 3850.77   4
  -3  10   3 3361.80 821.569   1
   3  10  -3 1774.30 746.338   1
  -3 -10   3 1486.86 693.455   2
  -3  10   3 2708.34 733.249   5
  -3  10   2 66080.0 4267.31   1
  -3 -10   2 65615.8 4461.53   2
   3  10  -2 65771.7 4425.89   1
   3  10  -1-234.286 504.156   6
  -3 -10   1-562.242 506.980   2
  -3  10   1-325.774 472.806   1
   3  10  -1 125.795 370.344   1
   3  10   0 55902.2 4590.91   6
  -3 -10   0 58588.8 3919.20   2
  -3  10   0 57362.0 4361.76   1
   3  10   0 54174.2 3390.67   1
  -3  10  -1 5333.15 1222.28   1
  -3 -10  -1 6965.47 1279.45   2
   3  10   1 4576.23 1391.06   6
   3  10   2 23850.8 3137.40   6
  -3 -10  -2 32735.1 2666.35   2
  -3  10  -2 24164.8 2944.40   1
  -3  10  -3 19785.2 2714.44   1
   3  10   3 16611.0 2745.79   6
  -3  10  -4 15320.2 2443.73   1
   3  10   4 16003.7 2757.33   6
  -3  10  -5 19903.7 2967.11   1
   3  10   5 23288.2 3423.76   6
  -3  10  -6 503.246 791.866   1
  -3  11   8 5639.26 1777.59   4
  -3  11   7 2912.12 1280.97   4
  -3  11   7 3975.79 1363.00   6
   3  11  -7 2557.82 1288.72   1
  -3  11   6 15467.4 2677.99   4
   3  11  -6 10716.0 2200.55   1
  -3  11   6 15413.5 2493.16   6
  -3  11   5 5228.33 1513.79   4
  -3  11   5 6224.48 1158.75   1
  -3  11   5 8653.73 1852.41   6
   3  11  -5 2677.20 1126.69   1
  -3  11   4 2813.32 1031.70   4
   3  11  -4 3508.42 1131.23   1
  -3  11   4 3690.65 1273.53   6
  -3  11   4 4803.03 1102.80   1
  -3  11   3 41103.7 3240.48   1
   3  11  -3 43727.9 3855.18   1
  -3  11   3 44348.2 3768.31   4
  -3  11   2 6454.98 1325.85   4
  -3 -11   2 8119.98 1504.79   2
  -3  11   2 8417.55 1449.90   1
   3  11  -2 10169.7 1683.10   1
   3  11  -1 13623.8 1825.77   1
   3  11  -1 15196.6 2411.76   6
  -3  11   1 17446.2 2272.12   1
  -3 -11   1 9731.48 1635.43   2
   3  11   0 368.286 642.192   6
  -3 -11   0 433.927 416.436   2
  -3  11   0-26.4466 438.260   1
   3  11   1 45053.0 4447.01   6
  -3 -11  -1 49995.0 3608.44   2
  -3  11  -1 41315.8 4012.89   1
  -3  11  -2 10977.8 2050.55   1
   3  11   2 13553.5 2455.45   6
  -3 -11  -2 12220.8 1672.79   2
  -3  11  -3 11512.0 2171.70   1
   3  11   3 14118.1 2571.55   6
  -3  11  -4 10538.9 2047.50   1
   3  11   4 11510.0 2246.14   6
  -3  11  -5 3537.96 1203.80   1
   3  11   5 3270.31 1598.92   6
  -3  12   7 8170.80 2093.54   4
   3  12  -7 9472.89 2349.38   1
  -3  12   7 7644.02 1832.52   6
  -3  12   6 551.223 630.006   4
   3  12  -6 57.5897 639.488   1
  -3  12   6 1274.15 566.167   6
  -3  12   5 5360.47 1612.47   4
   3  12  -5 6215.44 1604.28   1
  -3  12   5 4155.77 1382.39   6
  -3  12   4 35596.5 4000.76   6
  -3  12   4 36511.6 3072.03   1
   3  12  -4 31513.0 3575.38   1
  -3  12   4 35513.0 3669.89   4
  -3  12   3 6663.89 1453.89   4
  -3  12   3 6073.04 1287.92   1
   3  12  -3 8155.47 1667.65   1
   3  12  -2 31572.3 3121.20   1
  -3  12   2 26683.9 2873.72   1
   3  12  -2 28430.1 3553.12   6
   3  12  -1 2695.47 823.594   1
   3  12  -1 2997.37 1132.19   6
  -3 -12   1 1517.81 761.318   2
  -3  12   1 3134.15 1176.09   1
   3  12   0 39105.2 4185.34   6
  -3 -12   0 49895.9 3866.50   2
  -3  12   0 40060.8 3881.07   1
   3  12   1 1743.18 890.699   6
  -3 -12  -1 1742.31 676.624   2
  -3  12  -1 132.201 548.546   1
   3  12   2 25706.3 3437.47   6
  -3  12  -2 23421.6 3084.45   1
   3  12   3 27284.0 3738.88   6
  -3  12  -3 30331.2 3678.60   1
   3  12   4 84.7381 711.854   6
  -3  12  -4-870.888 1395.35   1
  -3  13   7 686.764 847.248   6
  -3  13   6 4045.76 1527.71   4
  -3  13   6 5341.41 1677.10   6
   3  13  -6 6705.38 1871.71   1
  -3  13   5 7972.91 1781.08   4
  -3  13   5 6966.89 1968.83   6
   3  13  -5 8397.80 1924.97   1
  -3  13   4 3073.39 1084.22   4
  -3  13   4 4612.99 1526.67   6
  -3  13   4 4531.19 1151.30   1
   3  13  -4 2621.15 1085.67   1
  -3  13   3 19952.9 2398.49   1
   3  13  -3 19333.7 2601.06   1
   3  13  -2 2016.87 824.720   1
  -3  13   2 1802.73 746.335   1
   3  13  -2 1366.57 949.027   6
   3  13  -1 38475.0 4313.61   6
  -3  13   1 29995.0 3406.03   1
  -3  13   0 8482.69 1840.26   1
   3  13   0 8743.81 2024.58   6
   3  13   1 20617.5 3195.14   6
  -3  13  -1 18820.1 2751.17   1
  -3  13  -2 1326.51 803.215   1
   3  13   2 1096.81 1029.67   6
  -3  13  -3 11404.0 2386.76   1
   3  13   3 8019.01 2232.07   6
  -3  14   6 8576.93 2023.86   6
  -3  14   6 9556.51 2233.76   4
  -3  14   5 10232.4 2367.76   6
   3  14  -5 6968.37 1879.24   1
  -3  14   5 5805.61 1706.89   4
  -3  14   4 12806.7 2668.61   6
   3  14  -4 14841.4 2466.81   1
  -3  14   3-129.544 377.931   1
   3  14  -3 693.470 532.804   1
  -3  14   2 14873.4 2229.07   1
   3  14  -2 13851.8 2713.83   6
   3  14  -1 2303.95 987.153   6
  -3  14   1 3866.32 1285.47   1
   3  14   0 13683.3 2684.62   6
  -3  14   0 11258.2 2181.86   1
   3  14   1 5917.22 1771.70   6
  -3  14  -1 8041.31 1886.95   1
  -3  14  -2 8963.62 2002.29   1
   3  15  -4 3770.53 1281.46   1
   3  15  -3 14330.8 2901.30   6
   3  15  -3 14286.6 2508.56   1
  -3  15   3 14456.5 2997.45   6
   3  15  -2-225.112 705.453   6
  -3  15   2-593.349 802.020   1
   3  15  -1 8969.24 2321.95   6
  -3  15   1 8723.44 1980.10   1
  -3  15   0 897.897 834.508   1
  -3  16   2 16872.2 2571.00   1
  -4   0  11 1937.06 972.211   4
  -4   0  11 925.775 886.483   5
  -4   0  10 12044.8 2409.63   4
  -4   0  10 13596.3 2425.61   5
  -4   0   9 35220.7 3784.95   5
  -4   0   8 5728.07 1349.83   5
  -4   0   7 1669.22 710.306   5
  -4   0   6 168238. 6030.99   2
  -4   0   6 178230. 7377.22   5
  -4   0   5 3414.95 639.520   2
  -4   0   5 4750.28 971.228   5
  -4   0   4 169941. 6046.00   2
  -4   0   4 186097. 7101.04   5
   4   0  -3 74578.5 2425.60   3
  -4   0   3 75788.7 2489.87   6
  -4   0   2 8432.53 948.981   1
   4   0  -2 7996.50 768.200   3
  -4   0   2 7936.27 908.975   2
  -4   0   2 8123.23 752.057   6
  -4   0   1 689620. 19142.1   1
   4   0  -1 692339. 19448.0   3
   4   0   0 405834. 12862.1   3
  -4   0   0 414773. 12010.2   1
   4   0   1 33100.0 2569.66   3
  -4   0  -1 33528.6 1927.78   1
   4   0   2-93.1397 391.499   3
  -4   0  -2-71.6039 266.972   1
   4   0   3 78834.6 5014.58   3
  -4   0  -3 90989.9 3982.63   1
   4   0   4 102634. 6381.19   3
  -4   0  -4 120343. 5081.92   1
   4   0   5 65854.0 5172.32   3
   4   0   6 4144.76 1536.18   3
   4   0   7 2479.98 1406.53   3
  -4   1  12-1009.69 833.243   4
  -4   1  11 12296.8 2515.61   4
  -4  -1  11 12064.8 2505.62   5
  -4   1  11 10425.8 2340.40   5
  -4  -1  10 4100.54 1346.03   4
  -4   1  10 1788.23 952.458   4
  -4  -1  10 6926.14 1866.33   5
  -4   1  10 4465.13 1457.99   5
  -4  -1   9 25007.2 3046.16   5
  -4   1   9 24344.2 3063.00   5
  -4   1   8 17159.4 2437.65   5
  -4  -1   8 16659.2 2404.47   5
  -4  -1   7 38431.2 2037.43   3
  -4  -1   7 36349.5 3231.44   5
  -4  -1   7 35775.7 2594.25   2
  -4  -1   6 47884.4 1999.85   3
  -4  -1   6 48880.3 2892.34   2
  -4   1   6 46509.7 2497.46   2
  -4  -1   6 51029.6 3518.43   5
  -4   1   6 50254.5 3548.27   5
   4   1  -6 48130.6 2031.06   6
  -4  -1   5 32118.9 2268.92   2
  -4   1   5 40246.4 2159.08   2
  -4  -1   5 34023.3 2709.23   5
  -4   1   5 40650.4 2959.90   5
  -4  -1   4 32122.6 2120.24   2
  -4   1   4 37938.5 2038.53   2
  -4   1   4 35315.3 2633.04   5
  -4  -1   4 34373.7 2521.96   5
  -4   1   3 75683.4 3441.47   1
   4   1  -3 70169.4 2360.37   6
  -4   1   3 71939.9 2982.56   2
  -4   1   3 68018.0 2323.33   6
   4   1  -2 146318. 4915.97   3
  -4   1   2 147146. 5355.79   1
  -4  -1   2 138605. 4929.08   6
  -4   1   2 145905. 4911.14   6
  -4  -1   2 139865. 5252.61   2
   4   1  -2 156713. 5009.87   6
  -4  -1   1 67426.3 2964.50   1
   4   1  -1 70301.6 3250.35   3
  -4   1   1 72168.5 3152.43   1
   4   1  -1 72170.2 3337.02   6
  -4  -1   1 65690.9 3151.53   2
  -4  -1   0 154996. 5216.00   1
   4   1   0 163941. 6291.53   3
   4   1   0 159478. 6319.17   6
  -4   1   0 153952. 5608.31   1
   4   1   1 25166.4 2205.10   3
  -4  -1  -1 24308.5 1461.53   1
   4   1   1 22054.8 2168.10   6
  -4   1  -1 22818.0 1702.68   1
   4   1   2 29822.0 2733.41   3
  -4   1  -2 29739.9 2111.33   1
  -4  -1  -2 27983.7 1639.99   1
   4   1   3 88268.2 5412.98   3
   4  -1   3 84701.1 5173.90   3
  -4  -1  -3 87074.8 3634.16   1
  -4   1  -3 98370.7 4502.90   1
   4   1   4 39286.5 3725.87   3
   4  -1   4 48968.9 4005.93   3
  -4   1  -4 42529.3 2915.19   1
   4   1   5 2199.99 1049.70   3
   4  -1   5 1117.79 684.862   3
   4   1   6 8762.72 1960.02   3
   4  -1   6 7030.05 1818.47   3
   4   1   7 6166.87 1937.94   3
   4  -1   7 10154.7 2298.11   3
  -4   2  11 2733.32 1272.25   4
   4   2 -11 3847.10 1406.55   1
  -4  -2  11 266.176 854.590   5
  -4   2  11 3977.12 1438.86   5
  -4  -2  10 8803.58 1892.61   4
  -4   2  10 8958.75 2041.12   4
  -4  -2  10 9182.77 2058.80   5
  -4   2  10 11976.2 2274.83   5
  -4  -2   9 2177.68 1079.30   5
  -4   2   9-40.7277 710.083   5
  -4  -2   8 34249.4 3419.29   5
  -4   2   8 31133.7 3256.73   5
  -4  -2   7 533.915 378.265   2
  -4  -2   7 246.043 347.796   5
  -4   2   7 1366.80 766.745   5
  -4  -2   7 1601.15 419.413   3
  -4   2   6 72896.8 3112.91   2
  -4  -2   6 80700.5 4120.18   2
   4   2  -6 71487.8 2954.99   6
  -4  -2   6 91271.2 4797.87   5
  -4   2   6 83941.4 4804.64   5
   4  -2  -5 34031.3 1557.77   3
  -4   2   5 36246.2 1547.22   6
  -4  -2   5 31684.5 2409.74   2
  -4   2   5 37927.8 1939.46   2
  -4  -2   5 30525.0 2555.15   5
  -4   2   5 37900.2 2866.07   5
  -4   2   4 60171.1 2496.86   2
   4   2  -4 48878.4 2046.68   6
  -4  -2   4 53834.0 2982.57   2
  -4  -2   4 54632.2 3216.61   5
  -4   2   4 63036.3 3599.58   5
  -4   2   4 48953.4 1980.00   6
  -4   2   3 106180. 4455.10   1
  -4  -2   3 107971. 3668.19   3
   4   2  -3 110284. 3742.42   6
  -4  -2   3 105237. 4535.89   2
  -4  -2   3 107126. 4672.56   5
  -4  -2   2 72457.8 3012.34   3
  -4   2   2 64249.4 3153.16   1
   4   2  -2 67939.0 2979.79   6
  -4  -2   2 74634.6 3429.78   2
  -4  -2   2 68685.8 3133.98   6
   4   2  -1 97923.9 4141.47   3
   4   2  -1 99582.8 4150.88   6
  -4  -2   1 88819.7 3941.06   2
  -4   2   1 90670.4 3944.25   1
   4   2   0 67636.2 3640.04   3
  -4   2   0 67802.7 3330.65   1
   4   2   0 64704.7 2809.99   1
  -4  -2   0 65012.3 3210.70   2
   4   2   0 71796.0 3734.02   6
   4   2   1 136264. 6268.82   3
   4   2   1 133151. 6336.67   6
   4   2   1 131921. 4913.14   1
  -4   2  -1 140315. 5695.00   1
   4   2   2 10006.7 1552.43   3
  -4  -2  -2 9714.28 787.472   1
  -4   2  -2 11244.1 1380.62   1
   4   2   2 11763.0 1789.13   6
   4   2   2 10825.6 1001.22   1
   4   2   3 70165.8 4917.09   3
   4   2   3 70725.4 5140.66   6
  -4   2  -3 85825.4 4523.62   1
  -4   2  -4 8751.56 1336.18   1
   4  -2   4 4112.14 1009.86   3
   4   2   4 7589.22 1623.62   3
   4   2   5 18730.9 2693.01   3
  -4   2  -5 22213.6 2327.49   1
   4  -2   5 14853.7 2394.84   3
   4  -2   6 22635.0 3202.17   3
   4   2   6 19500.7 2941.06   3
   4  -2   7 868.249 757.968   3
   4   2   7 898.379 983.041   3
  -4   3  11 253.509 766.970   4
  -4  -3  11-117.756 817.044   5
  -4   3  11 1482.63 992.733   5
   4   3 -11 550.016 760.901   1
  -4   3  10 4144.26 1644.28   4
  -4  -3  10 6685.21 1626.22   5
  -4   3  10 6050.54 1699.86   5
  -4  -3   9 8088.14 1770.84   5
  -4   3   9 9483.67 1935.54   5
  -4  -3   8 1902.30 839.031   5
  -4   3   8 1818.47 865.437   5
  -4   3   7 145936. 5591.48   6
  -4  -3   7 149658. 7264.84   5
  -4   3   7 148299. 7231.31   5
  -4   3   6 1242.97 342.093   6
  -4  -3   6 1483.68 590.247   2
  -4   3   6 1110.75 294.006   2
  -4  -3   6 1927.49 671.565   5
  -4   3   6 1266.43 718.421   5
   4  -3  -5 168556. 5612.16   3
  -4  -3   5 157035. 6724.17   2
  -4   3   5 175311. 5625.88   6
  -4   3   5 172663. 5486.42   2
  -4  -3   5 166116. 6927.41   5
  -4   3   5 179947. 7372.51   5
  -4   3   4 58671.7 3046.56   1
  -4   3   4 53101.6 2439.86   6
  -4  -3   4 35897.6 2637.12   5
  -4   3   4 56127.8 2308.51   2
  -4   3   4 59450.2 3518.50   5
  -4  -3   4 35293.6 2624.41   2
  -4  -3   3 52884.6 2383.23   3
  -4   3   3 32263.5 2270.29   1
   4   3  -3 34945.0 2094.77   6
  -4  -3   3 50312.7 2860.51   2
  -4  -3   3 56323.0 2913.67   5
  -4  -3   2 122384. 4908.54   2
   4   3  -2 113544. 4500.04   6
   4   3  -1 52148.1 2877.99   6
  -4   3   1 47545.9 2688.39   1
   4   3   0 149833. 6369.23   3
   4   3   0 151203. 5011.88   1
  -4   3   0 147157. 5926.13   1
  -4  -3   0 152394. 5818.24   2
   4   3   0 157203. 6375.29   6
   4   3   1 35644.1 2899.11   3
   4   3   1 36382.7 2894.89   6
   4   3   1 36078.9 1780.89   1
  -4  -3  -1 40450.9 2461.62   2
  -4   3  -1 40215.9 2786.72   1
   4   3   2 163548. 7562.52   3
   4   3   2 167331. 7705.80   6
  -4   3  -2 171446. 6970.13   1
  -4  -3  -2 159814. 6199.74   2
   4   3   2 156640. 4954.69   1
   4   3   3 2335.87 840.848   3
  -4   3  -3 1176.55 526.745   1
   4   3   3 1690.68 786.142   6
   4   3   4 42210.8 4129.09   6
   4   3   4 45400.7 4127.33   3
  -4   3  -4 51488.4 3643.17   1
   4  -3   5 27796.6 3330.16   3
   4   3   5 23273.1 3131.57   3
  -4   3  -5 30336.5 2868.51   1
   4   3   6 13827.6 2464.90   3
   4  -3   6 15690.0 2698.71   3
   4   3   7 14586.3 2833.79   3
   4  -3   7 18818.3 3219.17   3
  -4   4  11 4468.09 1708.14   4
  -4  -4  11 7466.97 2018.03   5
  -4   4  11 10527.2 2318.55   5
   4   4 -11 7411.60 1972.85   1
  -4   4  10 4771.85 1801.84   4
   4   4 -10 7897.54 1944.55   1
  -4  -4  10 3729.91 1328.88   5
  -4   4  10 6418.23 1763.38   5
  -4   4   9 3253.27 1462.95   4
  -4  -4   9 2118.14 863.393   5
  -4   4   9 820.348 680.642   5
  -4  -4   8 38334.1 3586.07   5
  -4   4   8 32703.7 3381.40   5
  -4   4   7 22891.7 1817.29   6
  -4  -4   7 23370.0 2563.92   5
  -4   4   7 22386.2 2586.96   5
  -4   4   6 62821.4 2943.80   6
  -4  -4   6 47996.5 3396.16   2
  -4   4   6 43094.9 1812.60   2
  -4  -4   6 52661.9 3614.23   5
  -4   4   6 67428.7 4157.71   5
  -4  -4   5 46914.2 3150.78   2
  -4  -4   5 40293.5 2834.45   5
  -4   4   5 41897.7 1882.65   2
  -4   4   5 40521.6 3076.24   5
  -4   4   5 42024.6 2390.11   6
  -4   4   4 95084.5 4310.89   1
  -4  -4   4 93934.5 4728.42   2
  -4  -4   4 88798.7 4314.12   5
  -4   4   4 100777. 4967.39   5
  -4   4   3 28686.8 2091.55   1
   4   4  -3 30115.1 2058.78   6
  -4  -4   3 28088.0 2268.82   2
  -4  -4   3 29728.3 2076.67   5
   4   4  -2 4975.56 825.740   6
  -4   4   2 4144.32 800.328   1
   4   4  -1 145558. 5984.25   6
  -4   4   1 140739. 5788.73   1
  -4  -4   1 142054. 5793.84   2
   4   4   0 4298.25 553.404   1
   4   4   0 5052.86 991.831   6
  -4  -4   0 3275.83 710.557   2
   4   4   1 67084.8 4157.25   6
  -4   4  -1 72286.6 3990.96   1
  -4  -4  -1 60950.0 3333.26   2
   4   4   1 62611.7 2370.54   1
   4   4   2 6616.78 1388.42   3
   4   4   2 10064.7 1613.99   6
  -4  -4  -2 8603.31 1155.13   2
  -4   4  -2 8230.22 1342.37   1
   4   4   3 72079.1 5010.60   3
   4   4   3 68583.0 4983.18   6
  -4   4  -3 78716.4 4609.36   1
  -4  -4  -3 61531.9 3527.77   2
  -4   4  -4 12112.9 1780.14   1
   4   4   4 11562.0 2124.27   3
   4   4   4 12483.0 2154.77   6
  -4  -4  -4 17599.8 1733.67   2
   4   4   5 18399.3 2847.39   3
   4   4   5 20531.8 3120.76   6
  -4   4  -5 19180.5 2382.24   1
  -4  -4  -5 20061.6 1899.46   2
  -4   4  -6 9422.60 1727.02   1
   4   4   6 7958.07 1928.06   3
   4  -4   6 7120.57 1843.89   3
   4   4   7 638.556 1035.53   3
   4  -4   7 2338.58 1182.62   3
   4   5 -11 7356.78 2012.48   1
  -4   5  10 14822.0 2892.82   4
   4   5 -10 14683.9 2607.50   1
  -4  -5  10 11115.0 2221.72   5
  -4   5  10 16685.4 2752.99   5
  -4   5   9 6800.54 1909.85   4
  -4  -5   9 12483.5 2195.97   5
  -4   5   9 6368.79 1624.70   5
   4   5  -9 9475.23 1949.22   1
  -4  -5   8 508.649 532.913   5
  -4   5   8 1355.83 806.939   5
  -4   5   7 9766.97 1255.72   6
  -4  -5   7 5632.25 1260.76   5
  -4   5   7 10314.8 1718.61   5
  -4   5   6 26156.6 2044.29   6
  -4  -5   6 20833.9 2209.28   5
  -4   5   6 26264.0 2625.77   5
  -4  -5   6 22237.2 2397.08   2
  -4   5   5 142157. 5870.99   1
  -4   5   5 143536. 5692.93   6
  -4  -5   5 133526. 5944.71   5
  -4   5   5 136388. 4368.37   2
  -4   5   5 139667. 6438.03   5
  -4  -5   5 129250. 6270.04   2
  -4   5   4 34310.8 2425.14   1
  -4  -5   4 44027.9 2646.81   5
  -4   5   4 34673.2 2796.30   5
  -4  -5   4 46455.3 3233.45   2
  -4   5   3 49825.2 3025.82   1
   4   5  -3 51532.0 3127.15   6
  -4  -5   3 54175.3 3388.08   2
  -4  -5   3 54788.2 2834.42   5
   4   5  -2 187167. 7033.20   6
  -4  -5   2 167462. 6887.57   2
  -4  -5   2 176010. 6130.47   5
  -4   5   2 165907. 6687.55   1
  -4   5   1 30338.6 2408.24   1
  -4  -5   1 30582.0 2348.29   2
   4   5  -1 33179.0 2557.98   6
   4   5   0 94303.9 3531.13   1
   4   5   0 107986. 5369.29   6
  -4   5   0 110214. 5188.97   1
  -4  -5   0 93885.3 4551.36   2
   4   5   1 8126.87 621.137   1
   4   5   1 7667.86 567.927   1
   4   5   1 8943.56 1434.01   6
  -4  -5  -1 7584.52 1076.73   2
  -4   5  -1 9212.58 1436.01   1
   4   5   2 35802.3 3301.60   6
  -4   5  -2 36410.9 3150.15   1
  -4  -5  -2 40609.9 2721.46   2
   4   5   3 34356.7 3420.69   6
  -4   5  -3 38260.3 3220.72   1
  -4  -5  -3 27904.9 2261.14   2
   4   5   4 28622.9 3393.94   6
  -4   5  -4 33074.3 3172.66   1
  -4  -5  -4 26618.6 2209.22   2
  -4   5  -5 11768.4 1915.29   1
   4   5   5 12091.6 2376.42   6
  -4   5  -6 9201.30 1761.64   1
   4   5   6 9828.61 2243.40   6
  -4   6  10 10497.8 2559.56   4
  -4  -6  10 11179.3 2294.79   5
  -4   6  10 14893.3 2638.66   5
   4   6 -10 10421.4 2208.47   1
  -4   6   9 22.9647 905.902   4
   4   6  -9 1118.65 975.680   1
  -4  -6   9-1111.72 831.646   5
  -4   6   9 802.899 536.707   5
   4   6  -8 19232.6 2754.63   1
  -4  -6   8 26507.1 2959.90   5
  -4   6   8 19915.2 2640.56   5
  -4   6   7 10535.7 1432.47   6
  -4  -6   7 8194.24 1508.42   5
  -4   6   7 8879.39 1585.82   5
  -4   6   6 90666.2 4556.26   6
  -4  -6   6 91457.3 4945.68   5
  -4   6   6 89295.6 5203.91   5
  -4  -6   6 84813.9 5199.97   2
  -4   6   5 1358.47 483.319   1
  -4   6   5 1476.39 570.189   6
  -4  -6   5 1333.93 696.664   2
  -4  -6   5 1731.42 617.524   5
  -4   6   5 1650.76 656.182   5
  -4   6   4 15606.6 1635.64   1
  -4  -6   4 16897.9 1946.08   2
  -4  -6   4 15848.7 1517.72   5
  -4   6   4 15493.3 1850.22   5
  -4  -6   3 51817.8 3550.31   2
  -4  -6   3 47763.4 2628.08   5
  -4   6   3 52224.7 3183.57   1
   4   6  -3 52063.6 3383.34   6
  -4   6   2 17518.6 1841.49   1
  -4  -6   2 26971.4 2282.82   2
  -4  -6   2 27033.8 1699.59   5
   4   6  -2 19222.4 2002.70   6
  -4   6   1 175609. 7505.42   1
   4   6  -1 195998. 7985.88   6
  -4  -6   1 193241. 7520.55   2
   4   6   0 34989.6 2015.44   1
   4   6   0 38137.9 3090.66   6
  -4   6   0 34481.2 2906.65   1
  -4  -6   0 36708.1 2655.16   2
  -4   6  -1 86385.1 5008.48   1
   4   6   1 91365.8 5272.09   6
  -4  -6  -1 94469.7 4459.16   2
   4   6   1 75398.7 2730.23   1
  -4   6  -2 2399.63 803.190   1
   4   6   2 3411.24 1053.73   6
  -4  -6  -2 3285.05 793.914   2
   4   6   3 30627.4 3324.15   6
  -4   6  -3 34094.5 3212.99   1
  -4  -6  -3 33107.0 2536.41   2
  -4   6  -4 6236.03 1411.28   1
   4   6   4 6407.92 1726.78   6
  -4  -6  -4 4768.32 961.137   2
  -4   6  -5 9850.30 1837.03   1
   4   6   5 9539.26 2157.08   6
  -4   6  -6 17499.3 2556.45   1
   4   6   6 17275.8 3044.89   6
  -4   7  10 3011.11 1620.65   4
  -4  -7  10 1095.77 932.889   5
  -4   7  10 997.281 589.746   5
   4   7 -10 3433.07 1340.13   1
  -4   7   9 16478.5 2960.89   4
  -4  -7   9 22567.5 3037.34   5
  -4   7   9 20610.9 2849.69   5
   4   7  -9 17172.8 2841.90   1
  -4   7   8 2128.84 1106.57   4
   4   7  -8 108.008 698.395   1
  -4  -7   8-71.6231 413.465   5
  -4   7   8 602.627 835.281   5
   4   7  -7 33159.9 3491.89   1
  -4   7   7 34959.8 2890.20   6
  -4  -7   7 32101.4 3039.51   5
  -4   7   7 34439.4 3224.34   5
  -4   7   6 18151.5 1939.95   1
   4   7  -6 17803.7 2426.68   1
  -4  -7   6 23155.3 2641.50   2
  -4  -7   6 21422.3 2181.57   5
  -4   7   6 17215.2 2143.39   5
  -4   7   6 21098.8 2226.70   6
  -4   7   5 31937.5 2522.85   1
  -4  -7   5 34333.6 3098.55   2
  -4  -7   5 35779.4 2614.70   5
  -4   7   5 37044.8 2990.05   5
  -4   7   5 36369.6 2951.76   6
  -4   7   4 35210.2 2617.02   1
  -4  -7   4 38236.7 3240.24   2
  -4  -7   4 39844.2 2492.12   5
  -4   7   4 35140.9 2860.42   5
   4   7  -3 67307.5 4138.85   6
  -4   7   3 68008.8 3823.65   1
  -4  -7   3 62911.6 2948.44   5
  -4  -7   3 61017.4 4115.10   2
   4   7  -2 65542.0 3747.69   1
  -4  -7   2 66711.2 4114.74   2
   4   7  -2 72104.5 4399.50   6
  -4   7   2 68156.8 3961.49   1
  -4  -7   2 64632.8 2785.19   5
   4   7  -1 22622.4 1877.70   1
   4   7  -1 22821.4 2395.01   6
  -4  -7   1 19526.7 2052.64   2
  -4  -7   1 19739.1 1298.76   5
  -4   7   1 20743.1 2166.34   1
  -4  -7   0 96298.9 5024.40   2
  -4   7   0 111901. 5819.59   1
   4   7   0 112107. 5955.19   6
   4   7   0 107068. 4348.43   1
   4   7   1 3305.74 1015.24   6
  -4  -7  -1 2859.28 744.045   2
  -4   7  -1 5212.18 1164.35   1
  -4  -7  -2 55414.5 3464.32   2
  -4   7  -2 55260.8 4180.15   1
   4   7   2 54318.9 4385.48   6
  -4   7  -3 7344.95 1496.97   1
   4   7   3 6550.47 1632.17   6
   4   7   4 45516.4 4483.95   6
  -4   7  -4 45005.2 4124.44   1
  -4   7  -5 9743.02 1880.86   1
   4   7   5 12280.0 2486.38   6
  -4   7  -6 427.863 621.411   1
   4   7   6 3001.58 1410.26   6
  -4  -8  10 7670.37 1981.30   5
  -4   8  10 4376.99 1430.65   5
  -4   8   9 8897.78 2479.23   4
   4   8  -9 6278.68 1500.22   1
  -4  -8   9 9488.37 1994.71   5
  -4   8   9 7735.87 1763.91   5
  -4   8   8 11597.7 2390.81   4
   4   8  -8 11173.1 2327.86   1
  -4  -8   8 9605.45 1818.17   5
  -4   8   8 12409.7 2043.13   5
  -4   8   7 7437.18 1370.48   6
  -4  -8   7 5517.72 1283.78   5
  -4   8   7 5772.02 1296.45   5
   4   8  -7 7542.55 1662.38   1
  -4   8   6 22814.9 2198.04   1
   4   8  -6 23380.3 2928.50   1
  -4   8   6 26540.6 2614.33   6
  -4  -8   6 23961.9 2344.73   5
  -4   8   6 21264.2 2460.96   5
   4   8  -5 31943.6 3173.39   1
  -4   8   5 30738.5 2509.49   1
  -4  -8   5 36674.9 2630.31   5
  -4   8   5 27731.8 2634.80   5
  -4  -8   5 38066.6 3471.33   2
  -4   8   5 39494.0 3240.39   6
   4   8  -4 26233.4 2698.17   1
  -4   8   4 27264.7 2394.29   1
  -4  -8   4 28536.5 2827.31   2
  -4  -8   4 26475.4 1908.21   5
  -4   8   4 26217.0 2434.10   5
   4   8  -3 36080.1 2971.46   1
   4   8  -3 34012.0 3066.76   6
  -4   8   3 28887.6 2535.17   1
  -4  -8   3 36946.6 3196.49   2
  -4  -8   3 38455.8 2011.41   5
   4   8  -2 39479.3 2912.30   1
   4   8  -2 41993.0 3473.10   6
  -4   8   2 39973.0 3101.11   1
  -4  -8   2 36389.4 3120.35   2
  -4  -8   1 39136.4 3161.26   2
  -4   8   1 48066.1 3615.32   1
   4   8  -1 50223.1 3825.16   6
   4   8  -1 47563.0 3015.64   1
   4   8   0 3448.59 686.387   1
   4   8   0 3400.65 1040.96   6
  -4   8   0 4165.61 1126.08   1
   4   8   1 32100.0 3290.76   6
  -4  -8  -1 32830.3 2671.49   2
  -4   8  -1 31252.8 3097.26   1
  -4   8  -2 2981.35 973.006   1
   4   8   2 4759.81 1361.37   6
  -4  -8  -2 4620.01 986.479   2
   4   8   3 25401.4 3196.24   6
  -4  -8  -3 25593.3 2326.13   2
  -4   8  -3 25414.0 2957.95   1
  -4   8  -4 15147.5 2340.13   1
   4   8   4 13685.7 2583.83   6
   4   8   5 27039.1 3688.07   6
  -4   8  -5 27577.6 3398.31   1
  -4   8  -6-359.543 853.088   1
   4   9  -9 9258.69 2278.68   1
  -4   9   9 9211.74 2396.70   4
  -4   9   9 13028.7 2313.62   5
  -4   9   8 1365.20 837.454   4
   4   9  -8 714.667 669.186   1
  -4   9   8-26.5912 640.486   5
  -4   9   7 15999.7 2806.08   4
  -4   9   7 18760.8 2335.16   6
   4   9  -7 16285.8 2683.70   1
  -4   9   7 16330.8 2196.58   5
  -4   9   6 12051.1 1639.25   1
  -4   9   6 12291.2 1959.49   6
   4   9  -6 10350.0 2059.15   1
  -4   9   6 8985.66 1562.59   5
   4   9  -5 35017.7 3505.41   1
  -4   9   5 40890.8 3008.16   1
  -4  -9   5 40669.7 3732.43   2
  -4   9   5 35991.2 3034.80   5
  -4   9   5 41744.5 3696.89   6
   4   9  -4 16877.5 2182.27   1
  -4   9   4 18294.3 2010.71   1
  -4   9   4 16748.0 1942.18   5
  -4  -9   4 17418.6 2319.66   2
   4   9  -3 12628.7 1848.24   1
   4   9  -3 15099.4 2071.40   6
  -4  -9   3 16244.3 2174.23   2
  -4   9   3 13963.7 1752.99   1
   4   9  -2 81782.3 5279.68   6
  -4   9   2 72205.2 4565.63   1
  -4  -9   2 78545.9 4862.71   2
   4   9  -2 76076.5 4483.99   1
   4   9  -1 1923.64 858.907   6
   4   9  -1 2596.39 678.984   1
  -4   9   1 3127.14 941.698   1
   4   9   0 80716.5 5550.22   6
  -4   9   0 77723.4 5254.56   1
   4   9   1 13151.0 2177.97   6
  -4  -9  -1 15097.6 1838.30   2
  -4   9  -1 11028.5 1982.95   1
  -4   9  -2 14649.8 2245.90   1
   4   9   2 12753.5 2272.53   6
  -4  -9  -2 19273.9 2072.78   2
  -4   9  -3 14057.4 2262.45   1
   4   9   3 15516.1 2636.25   6
   4   9   4 29328.7 3735.13   6
  -4   9  -4 24973.7 3221.76   1
  -4   9  -5 11042.7 2192.61   1
   4   9   5 12151.0 2577.65   6
  -4  10   8 18389.7 3233.01   4
   4  10  -8 21755.1 3417.80   1
  -4  10   7 1306.60 934.670   4
  -4  10   7-546.695 669.734   6
  -4  10   7 322.764 423.073   5
   4  10  -7 0.94681 444.334   1
  -4  10   6 20420.7 2971.62   4
  -4  10   6 22705.3 2316.31   1
  -4  10   6 20681.8 2351.91   5
  -4  10   6 27704.2 3118.59   6
   4  10  -6 23085.0 3052.74   1
   4  10  -5 10109.3 1945.54   1
  -4  10   5 7283.72 1283.00   1
  -4  10   5 6168.73 1284.44   5
  -4  10   5 8029.97 1764.84   6
  -4  10   4 20220.0 2235.61   1
  -4  10   4 20825.1 2207.81   5
  -4 -10   4 17508.9 2451.73   2
   4  10  -4 20326.7 2596.46   1
  -4  10   3 16298.6 2010.62   1
   4  10  -3 15445.5 2304.67   6
  -4 -10   3 20658.7 2499.37   2
   4  10  -3 16242.3 2149.04   1
   4  10  -2 16745.9 2479.89   6
  -4  10   2 14008.2 1967.36   1
   4  10  -2 15509.0 2013.14   1
  -4  10   1 58388.1 4347.85   1
   4  10  -1 56982.2 3752.53   1
  -4 -10   1 46967.3 3859.83   2
  -4 -10   0 41998.0 3421.04   2
   4  10   0 39076.0 3856.68   6
  -4  10   0 38614.6 3632.72   1
   4  10   1 50436.7 4528.63   6
  -4  10  -1 48566.5 4245.16   1
  -4 -10  -1 59737.9 4120.39   2
   4  10   2 1332.56 736.732   6
  -4 -10  -2 3112.00 943.131   2
  -4  10  -2 927.436 717.330   1
  -4  10  -3 15850.9 2596.09   1
   4  10   3 13847.8 2594.67   6
  -4  10  -4 3864.53 1202.24   1
   4  10   4 2769.55 1273.90   6
  -4  10  -5 11455.6 2288.02   1
  -4  11   8-76.4661 703.046   4
   4  11  -8-382.938 597.035   1
  -4  11   7 15822.3 2805.10   4
  -4  11   7 13875.9 2222.66   6
   4  11  -7 10003.7 2156.67   1
  -4  11   6 1999.64 1101.10   4
  -4  11   6 3208.44 1060.06   6
  -4  11   6 3257.81 958.291   1
   4  11  -6 2037.47 993.465   1
  -4  11   5 25143.1 2509.26   1
  -4  11   5 26181.1 3214.30   6
   4  11  -5 23670.1 3097.83   1
  -4  11   5 26190.4 3292.34   4
  -4  11   4 12770.4 1870.91   1
   4  11  -4 13429.2 2152.36   1
   4  11  -3 10416.8 1776.51   1
   4  11  -3 9039.28 1813.34   6
  -4  11   3 10502.0 1621.36   1
  -4  11   3 9514.23 1474.08   5
   4  11  -2 29886.7 3428.94   6
  -4  11   2 30418.3 3005.96   1
  -4 -11   2 27669.0 3003.10   2
   4  11  -2 27338.9 2816.34   1
   4  11  -1 13656.0 2327.50   6
  -4 -11   1 13458.7 1992.36   2
  -4  11   1 13642.5 2126.05   1
  -4 -11   0 20220.2 2394.41   2
   4  11   0 20610.5 2883.99   6
  -4  11   0 20428.3 2740.96   1
   4  11   1 8024.04 2021.23   6
  -4 -11  -1 7869.15 1476.41   2
  -4  11  -1 6657.14 1587.52   1
  -4  11  -2 28288.3 3444.18   1
   4  11   2 32695.7 3892.26   6
  -4  11  -3 1304.34 673.563   1
   4  11   3 719.467 618.191   6
  -4  11  -4 8338.38 2008.65   1
   4  11   4 7915.60 2116.87   6
  -4  12   7 901.967 865.002   4
   4  12  -7-954.637 890.734   1
  -4  12   6 17572.5 2930.47   4
  -4  12   6 21829.9 2976.48   6
   4  12  -6 14574.0 2645.50   1
  -4  12   5 579.212 511.320   4
   4  12  -5 1919.44 958.380   1
  -4  12   5 2039.48 1042.65   6
  -4  12   5 2796.55 908.779   1
  -4  12   4 13859.6 2353.30   4
   4  12  -4 12843.0 2326.82   1
  -4  12   4 12990.7 1930.90   1
  -4  12   3 11452.6 1850.41   4
   4  12  -3 13384.5 2174.79   1
   4  12  -3 11605.2 2173.86   6
  -4  12   3 10861.3 1823.04   1
  -4 -12   3 12938.0 2203.61   2
   4  12  -2 16414.0 2667.53   6
  -4 -12   2 11685.5 2067.63   2
  -4  12   2 11202.3 1839.65   1
   4  12  -2 11913.5 1859.04   1
   4  12  -1 24673.4 3344.70   6
  -4 -12   1 32772.2 3317.01   2
  -4  12   1 26354.2 3114.59   1
   4  12   0 1638.82 1240.49   6
  -4 -12   0 1408.01 871.880   2
  -4  12   0 1423.05 920.381   1
  -4 -12  -1 24995.7 2737.40   2
   4  12   1 25317.8 3484.49   6
  -4  12  -1 24682.9 3177.05   1
   4  12   2 5743.47 1571.69   6
  -4  12  -2 5131.68 1596.33   1
   4  12   3 25219.1 3833.79   6
  -4  12  -3 17862.1 2937.46   1
  -4  13   7 13627.9 2785.45   4
  -4  13   6 1622.29 1083.46   4
   4  13  -6 2124.78 1130.60   1
  -4  13   6 2643.87 1136.32   6
  -4  13   5 9524.38 2165.92   4
   4  13  -5 13456.1 2499.26   1
  -4  13   5 14265.0 2689.63   6
  -4  13   5 13550.6 2077.51   1
   4  13  -4 1931.80 1006.65   1
  -4  13   4 3641.42 1350.76   6
  -4  13   4 1914.52 888.137   1
   4  13  -3 9387.31 1988.56   6
  -4  13   3 8652.34 1661.85   1
   4  13  -3 9901.44 1931.52   1
   4  13  -2 15522.1 2602.39   6
  -4 -13   2 17403.2 2536.84   2
  -4  13   2 12476.8 2045.14   1
   4  13  -1 4506.37 1579.75   6
  -4 -13   1 3657.12 1153.66   2
  -4  13   1 3936.53 1301.61   1
  -4 -13   0 25018.9 2956.46   2
  -4  13   0 21866.9 2986.65   1
   4  13   0 28189.5 3729.23   6
   4  13   1 3099.09 1293.55   6
  -4  13  -1 2408.64 1177.11   1
   4  13   2 27618.9 3910.68   6
  -4  13  -2 23924.0 3399.72   1
  -4  14   6 10901.4 2419.38   4
  -4  14   6 13288.4 2565.89   6
  -4  14   5 6035.90 1798.33   6
   4  14  -5 4629.40 1553.75   1
   4  14  -4 6235.59 1776.67   6
  -4  14   4 4193.93 1451.78   6
  -4  14   4 6436.56 1469.79   1
   4  14  -4 5829.25 1619.11   1
   4  14  -3 18877.8 3106.78   6
  -4  14   3 12460.8 2088.08   1
  -4  14   2-1342.97 1041.08   1
   4  14  -2-511.113 772.666   6
   4  14  -1 9153.64 2235.88   6
  -4  14   1 7216.41 1819.76   1
   4  14   0 4322.76 1487.69   6
  -4 -14   0 2566.24 794.686   2
  -4  14   0 2985.44 1425.52   1
   4  15  -4 8875.24 2062.17   1
  -4  15   3 4478.06 1290.76   1
  -4  15   2 3385.61 984.476   1
  -5   0  11 194.146 594.726   4
  -5   0  11 691.477 729.581   5
  -5   0  10 2228.60 1045.26   5
  -5   0   9 4741.40 1314.45   5
  -5   0   8 25606.6 2172.17   2
  -5   0   8 30313.4 3191.42   5
  -5   0   7 26390.3 2154.50   2
  -5   0   7 31998.4 3033.42   5
  -5   0   6 7068.65 1001.15   2
  -5   0   6 8522.13 1462.28   5
  -5   0   5 274974. 9248.42   2
  -5   0   5 286595. 10505.2   5
  -5   0   4 1024.96 423.485   2
   5   0  -3 43346.2 1951.40   3
  -5   0   3 43194.2 1951.48   6
  -5   0   3 44340.2 2536.89   2
  -5   0   2 741.225 330.079   1
   5   0  -2 527.095 279.835   3
  -5   0   1 108771. 4383.39   1
   5   0  -1 111321. 4831.04   3
   5   0   0 185477. 7409.69   3
  -5   0   0 184217. 6435.42   1
   5   0   1 32662.6 2813.23   3
  -5   0  -1 34537.4 2159.79   1
   5   0   2 128458. 6713.17   3
  -5   0  -2 130772. 5123.13   1
   5   0   3 25182.9 2881.43   3
  -5   0  -3 22233.9 1788.15   1
   5   0   4 43106.0 4161.11   3
   5   0   5 1805.86 868.525   3
   5   0   6 13698.5 2701.07   3
  -5   1  12 4969.02 1811.76   4
  -5  -1  11 4761.42 1605.55   4
  -5   1  11 4625.46 1558.64   4
  -5  -1  11 9067.43 2087.00   5
  -5   1  11 5265.50 1690.02   5
  -5  -1  10 3340.26 1412.86   5
  -5   1  10 1818.23 1014.05   5
  -5  -1   9 8287.34 1765.02   5
  -5   1   9 4871.64 1455.50   5
  -5  -1   8 34385.2 2713.08   2
  -5  -1   8 38128.0 3550.05   5
  -5   1   8 28876.4 3165.43   5
  -5   1   7 13958.4 1389.75   2
  -5   1   7 16342.8 2173.63   5
  -5  -1   7 10742.8 1774.36   5
  -5  -1   7 11375.3 1470.25   2
  -5  -1   6 78884.4 4213.19   2
  -5   1   6 91971.7 4006.70   2
  -5  -1   6 81564.9 4903.26   5
  -5  -1   5 33157.4 2337.33   2
  -5   1   5 30372.9 2019.87   2
  -5  -1   5 31809.4 2677.83   5
  -5   1   5 30979.6 2740.42   5
  -5  -1   4 71019.0 3579.66   2
  -5   1   4 70569.2 3287.74   2
  -5  -1   4 74184.4 4115.11   5
  -5   1   3 26875.9 2012.95   1
  -5  -1   3 30242.0 1629.92   6
  -5   1   3 24113.7 1407.72   6
  -5  -1   3 32871.5 2178.01   2
  -5   1   3 24200.4 1775.33   2
   5   1  -2 35387.7 2152.82   3
  -5   1   2 35704.7 2270.06   1
   5   1  -2 35337.2 2162.35   6
  -5  -1   2 41852.8 2492.32   2
  -5  -1   1 192277. 6779.79   1
   5   1  -1 205849. 7463.26   3
  -5   1   1 206995. 7082.31   1
   5   1  -1 198473. 7467.33   6
  -5  -1   0 54952.3 2647.35   1
   5   1   0 57100.0 3502.59   3
  -5   1   0 50858.0 2870.34   1
   5   1   1 80863.8 4795.23   3
  -5  -1  -1 91229.8 3620.34   1
   5  -1   1 84127.1 4813.50   3
  -5   1  -1 78604.0 3854.89   1
  -5  -1  -2 805.211 340.753   1
   5  -1   2 1069.12 620.171   3
   5   1   2 1568.07 748.061   3
  -5   1  -2 840.096 337.957   1
   5   1   3 5968.50 1408.88   3
   5  -1   3 6963.12 1491.67   3
  -5   1  -3 4889.19 889.704   1
   5   1   4 7839.02 1774.05   3
   5  -1   4 7715.84 1795.97   3
   5  -1   5 23357.5 3161.27   3
   5   1   5 23131.1 3241.90   3
   5   1   6 150.142 811.947   3
   5  -1   6 3051.49 1443.84   3
  -5   2  11 5109.88 1791.90   4
  -5  -2  11 7642.83 2011.82   5
  -5   2  11 2424.69 1330.83   5
  -5  -2  10 6574.21 1786.91   5
  -5   2  10 6031.47 1739.62   5
  -5  -2   9 8604.39 1870.59   5
  -5   2   9 13096.5 2226.72   5
  -5  -2   8 23490.1 2433.09   2
  -5  -2   8 29046.0 3116.03   5
  -5   2   8 32574.4 3284.56   5
  -5  -2   7 26511.6 2391.45   2
  -5  -2   7 27881.2 2814.19   5
  -5   2   7 29841.9 1961.20   2
  -5  -2   6 14925.5 1798.78   2
  -5   2   6 14398.6 1299.99   2
  -5  -2   6 18033.0 2101.49   5
  -5   2   6 13948.6 1933.13   5
  -5  -2   5 84624.1 4299.43   2
  -5   2   5 88701.5 3749.61   2
  -5  -2   5 85700.1 4664.46   5
  -5   2   5 94701.1 5085.68   5
  -5   2   4 11801.2 1382.35   1
   5   2  -4 11501.5 789.520   6
  -5  -2   4 9060.68 1223.95   2
  -5   2   4 11559.7 1116.60   2
  -5  -2   4 9819.17 1364.67   5
  -5   2   3 72938.6 3666.76   1
  -5  -2   3 73914.3 3839.61   2
   5   2  -3 76977.5 3125.91   6
  -5   2   2 35985.2 2382.24   1
   5   2  -2 39955.3 2358.23   6
  -5  -2   2 39771.4 2547.23   2
   5   2  -1 39165.6 2654.83   3
  -5   2   1 38946.3 2490.27   1
   5   2  -1 37972.0 2639.66   6
  -5  -2   1 43330.4 2649.09   2
   5   2   0 127846. 5820.89   3
  -5   2   0 120791. 5091.75   1
   5   2   0 127994. 5854.48   6
  -5  -2   0 110213. 5016.69   2
  -5  -2  -1 64397.6 2793.85   1
   5   2   1 66978.4 4231.55   3
  -5   2  -1 62372.8 3469.02   1
   5   2   1 59674.7 4192.48   6
  -5  -2  -2 55438.2 2397.05   1
   5   2   2 44418.3 3757.26   3
   5   2   2 42693.9 3801.91   6
  -5   2  -2 46809.2 3096.47   1
   5   2   3 10022.4 1844.10   3
   5  -2   3 10490.0 1941.89   3
  -5   2  -3 12407.2 1628.64   1
   5   2   4 11894.2 2106.51   3
   5  -2   4 15067.4 2398.56   3
  -5   2  -4 13190.8 1733.25   1
   5   2   5 2523.28 1091.93   3
   5  -2   5 3638.11 1444.54   3
   5   2   6 21095.1 3403.34   3
   5  -2   6 20961.0 3364.94   3
  -5   3  11 7886.10 2202.46   4
  -5  -3  11 13135.0 2640.11   5
  -5   3  11 9460.22 2182.12   5
  -5  -3  10 16159.6 2669.12   5
  -5   3  10 13188.5 2449.09   5
  -5  -3   9 27961.4 3288.85   5
  -5   3   9 25889.5 3231.42   5
  -5  -3   8 6316.28 1278.82   2
  -5  -3   8 6825.25 1511.31   5
  -5  -3   7 9602.56 1452.36   2
  -5  -3   7 9774.33 1620.43   5
  -5   3   7 6320.50 1436.68   5
  -5  -3   6 69902.9 4178.78   2
  -5   3   6 60399.1 2425.16   6
  -5   3   6 67742.4 2992.37   2
  -5  -3   6 70143.6 4272.07   5
  -5   3   6 69045.5 4455.34   5
  -5  -3   5 4522.59 554.328   3
   5   3  -5 5020.26 603.647   6
  -5   3   5 5105.46 579.557   6
  -5  -3   5 5718.40 1003.62   2
  -5  -3   5 6033.61 1137.00   5
  -5   3   5 4174.90 1018.97   5
  -5   3   5 5587.29 734.649   2
  -5   3   4 227445. 8261.71   1
  -5  -3   4 227367. 7148.45   3
   5   3  -4 233080. 7247.92   6
  -5  -3   4 234157. 8593.08   2
  -5  -3   4 240786. 8748.84   5
   5   3  -3 8198.14 943.038   6
  -5   3   3 7252.60 1064.13   1
  -5   3   2 61558.7 3438.03   1
   5   3  -2 63837.1 3335.46   6
   5   3  -1 34664.9 2520.27   6
  -5  -3   1 29460.1 2267.54   2
  -5   3   1 33298.6 2369.40   1
   5   3   0 33419.7 2765.40   3
   5   3   0 32081.8 2686.36   6
  -5  -3   0 35345.3 2472.21   2
  -5   3   0 30373.7 2376.49   1
   5   3   1 88562.2 5146.02   3
   5   3   1 85491.1 5169.37   6
  -5   3  -1 84752.5 4441.09   1
  -5  -3  -1 80817.0 4165.91   2
   5   3   2 33795.7 3304.45   3
   5   3   2 34741.0 3380.29   6
  -5   3  -2 37651.6 2917.81   1
  -5  -3  -2 36936.7 2681.40   2
   5   3   3 101839. 6597.85   3
   5   3   3 108264. 6829.58   6
  -5   3  -3 115018. 5816.76   1
  -5  -3  -3 125229. 5596.46   2
   5   3   4 1261.08 674.123   3
   5  -3   4-394.862 753.114   3
  -5   3  -4 2174.94 889.671   1
   5   3   5 34498.6 4063.36   3
   5  -3   5 34308.8 3949.99   3
   5   3   6 5730.50 1902.00   3
   5  -3   6 6232.87 1877.52   3
  -5   4  11 1576.76 1191.81   4
  -5  -4  11 5086.73 1710.27   5
  -5   4  11 3221.86 1297.22   5
   5   4 -11 4304.74 1415.22   1
  -5  -4  10 12684.1 2387.89   5
  -5   4  10 11937.4 2388.33   5
  -5  -4   9 12605.8 2218.15   5
  -5   4   9 7434.71 1715.52   5
  -5  -4   8 1311.92 716.048   5
  -5   4   8 2825.17 1059.03   5
  -5  -4   7 28892.9 2770.17   2
  -5  -4   7 31360.9 3013.77   5
  -5   4   6 3351.16 553.909   6
  -5  -4   6 1710.35 784.033   2
  -5  -4   6 942.354 556.659   5
  -5   4   6 2468.25 844.213   5
  -5   4   6 3422.35 582.330   2
  -5   4   5 69858.2 3869.54   1
   5   4  -5 67266.4 3137.57   6
  -5   4   5 66566.9 3091.90   6
  -5  -4   5 62863.0 3985.18   2
  -5   4   5 67748.5 2925.28   2
  -5  -4   5 59905.9 3825.11   5
  -5   4   5 72456.5 4523.09   5
  -5   4   4 12486.5 1466.21   1
   5   4  -4 12491.5 1234.29   6
  -5  -4   4 13255.3 1629.53   2
  -5  -4   4 14486.0 1587.76   5
  -5   4   3 53857.1 3146.88   1
   5   4  -3 54704.0 2935.84   6
  -5  -4   3 46281.0 3147.62   2
  -5   4   2 22473.1 2037.02   1
   5   4  -2 24520.2 2021.98   6
   5   4  -1 115929. 5374.85   6
  -5  -4   1 114904. 5231.61   2
  -5   4   1 104517. 5041.55   1
   5   4   0 44400.4 3241.30   6
  -5   4   0 40790.3 2937.65   1
  -5  -4   0 36380.4 2671.11   2
   5   4   1 13816.8 1912.97   3
   5   4   1 16726.3 2154.28   6
  -5  -4  -1 13165.1 1544.26   2
  -5   4  -1 15307.3 1797.73   1
   5   4   2 27935.6 3001.14   3
   5   4   2 29821.5 3133.60   6
  -5   4  -2 32179.2 2787.07   1
  -5  -4  -2 20939.3 2035.42   2
   5   4   3 2682.12 1087.30   3
   5   4   3 2406.02 999.760   6
  -5   4  -3 3517.07 1050.33   1
  -5  -4  -3 1928.24 683.839   2
   5   4   4 76951.5 6034.53   3
   5   4   4 75711.7 6051.32   6
  -5   4  -4 94016.0 5513.59   1
  -5  -4  -4 81766.7 4513.13   2
   5   4   5 585.903 616.359   3
   5  -4   5 240.693 651.574   3
  -5   4  -5-277.466 544.391   1
   5   4   6 1663.30 955.195   3
   5  -4   6 1922.12 1134.08   3
  -5  -5  11 3279.22 1389.18   5
  -5   5  11 3021.12 1559.21   5
  -5   5  10 12958.6 2785.96   4
  -5  -5  10 9915.61 2090.06   5
  -5   5  10 13377.4 2407.08   5
  -5  -5   9 16592.4 2516.24   5
  -5   5   9 16895.3 2544.24   5
  -5  -5   8 13367.9 2086.39   5
  -5   5   8 6513.23 1524.39   5
  -5  -5   7 5230.20 1211.61   2
  -5  -5   7 7586.41 1441.13   5
  -5   5   7 8874.73 1780.11   5
  -5   5   6 34148.9 2212.74   6
  -5  -5   6 33087.5 3016.57   2
  -5   5   6 33366.4 1772.86   2
  -5  -5   6 37305.8 3006.87   5
  -5   5   6 33992.0 3104.47   5
  -5   5   5 13582.7 1598.14   1
   5   5  -5 11039.4 1270.60   6
  -5   5   5 12875.1 1391.83   6
  -5  -5   5 12213.2 1574.96   5
  -5   5   5 12848.4 1077.83   2
  -5  -5   5 12171.5 1769.02   2
  -5   5   5 12784.3 1825.40   5
  -5   5   4 67015.7 3705.42   1
   5   5  -4 68797.9 3534.46   6
  -5  -5   4 59207.9 3923.72   2
  -5  -5   4 64188.4 3598.65   5
  -5   5   3 94425.7 4726.57   1
   5   5  -3 106268. 4793.44   6
  -5  -5   3 99261.4 5127.03   2
  -5  -5   3 99933.1 4612.12   5
   5   5  -2 122777. 5411.19   6
  -5   5   2 114125. 5251.28   1
   5   5  -1 77557.5 4400.94   6
  -5   5   1 72919.1 4175.00   1
  -5  -5   1 76747.7 4201.28   2
  -5   5   0 25591.4 2406.01   1
  -5  -5   0 28926.3 2440.66   2
   5   5   0 26145.3 2592.74   6
  -5   5  -1 12955.6 1754.38   1
   5   5   1 14723.7 2082.00   6
  -5  -5  -1 13946.0 1658.10   2
   5   5   2 3620.78 1155.74   6
  -5   5  -2 1833.79 792.341   1
  -5   5  -3 41857.6 3564.86   1
   5   5   3 35997.4 3827.00   6
   5   5   4 3920.78 1318.37   6
  -5   5  -4 4734.03 1288.71   1
  -5  -5  -4 3931.45 946.076   2
   5   5   5 16810.4 3091.87   6
  -5   5  -5 17176.6 2391.54   1
  -5  -6  11 2022.47 904.174   5
  -5   6  10 9631.98 2411.84   4
   5   6 -10 8808.67 2074.21   1
  -5  -6  10 9183.28 2009.25   5
  -5   6  10 10355.6 2233.52   5
  -5  -6   9 7939.70 1825.15   5
  -5   6   9 7552.91 1706.40   5
  -5  -6   8 6035.19 1434.94   5
  -5   6   8 6447.68 1561.81   5
  -5  -6   7 21491.4 2569.21   2
  -5  -6   7 24684.7 2659.75   5
  -5   6   7 22134.9 2689.27   5
  -5   6   6 3680.63 838.957   1
  -5   6   6 4727.89 879.538   6
  -5  -6   6 5684.72 1271.88   2
  -5  -6   6 5810.19 1159.60   5
  -5   6   6 4368.31 1142.16   5
  -5   6   5 76252.3 4199.64   1
  -5   6   5 74778.6 4178.45   6
  -5  -6   5 77379.5 4793.22   2
  -5  -6   5 72260.9 4072.99   5
  -5   6   5 79891.8 4877.32   5
   5   6  -4 7415.73 1178.63   6
  -5   6   4 7532.73 1188.76   1
  -5  -6   4 4851.52 1180.81   2
  -5  -6   4 4829.03 875.798   5
   5   6  -3 170304. 7094.27   6
  -5  -6   3 167764. 7436.13   2
  -5  -6   3 176697. 6520.85   5
  -5   6   3 166742. 7041.82   1
   5   6  -2 76804.4 4273.07   6
  -5  -6   2 62388.9 4041.28   2
  -5   6   2 71240.9 4106.45   1
   5   6  -1 16588.4 1989.63   6
  -5   6   1 15128.3 1804.36   1
   5   6   0 65374.1 4366.57   6
  -5   6   0 60419.0 4056.93   1
  -5  -6   0 66852.0 3957.58   2
  -5   6  -1 25540.1 2685.78   1
  -5  -6  -1 26336.8 2359.42   2
   5   6   1 24771.5 2783.84   6
  -5  -6  -2 55988.5 3645.49   2
  -5   6  -2 52249.9 4087.99   1
   5   6   2 53018.1 4436.65   6
   5   6   3 9705.67 2004.60   6
  -5   6  -3 10174.0 1820.18   1
  -5  -6  -3 9064.29 1376.06   2
   5   6   4 14242.1 2597.49   6
  -5   6  -4 14672.0 2282.81   1
   5   6   5 5131.11 1576.32   6
  -5   6  -5 7319.56 1626.44   1
  -5   7  10 1763.15 983.903   4
   5   7 -10 883.776 815.994   1
  -5  -7  10 1108.60 686.986   5
  -5   7  10 1239.93 645.071   5
  -5  -7   9 1633.65 877.898   5
  -5   7   9 5061.37 1431.82   5
   5   7  -9 4726.16 1604.91   1
   5   7  -8 17503.3 2836.63   1
  -5  -7   8 19538.7 2534.75   5
  -5   7   8 19031.5 2607.49   5
  -5  -7   7 885.284 446.610   2
  -5  -7   7 1621.95 664.266   5
  -5   7   6 41318.8 3124.74   1
  -5   7   6 45277.9 3191.77   6
  -5  -7   6 37877.5 3639.44   2
  -5  -7   6 43387.4 3311.78   5
  -5   7   6 43499.5 3602.48   5
  -5   7   5 12226.7 1593.80   1
  -5  -7   5 13375.0 1573.44   5
  -5  -7   5 11105.9 1917.80   2
  -5   7   5 14852.6 1959.36   5
  -5   7   4 87157.0 4514.42   1
   5   7  -4 87067.7 4692.34   6
  -5  -7   4 65879.2 4634.65   2
  -5  -7   4 65283.3 3562.96   5
   5   7  -3 1014.66 503.159   6
  -5   7   3 1002.88 557.590   1
  -5  -7   3 2128.50 684.380   2
  -5  -7   3 2807.47 572.330   5
   5   7  -2 12733.0 1778.19   6
  -5   7   2 12702.8 1659.65   1
  -5  -7   2 14928.1 1349.55   5
  -5  -7   2 14363.6 1850.96   2
  -5   7   1 28551.3 2694.71   1
   5   7  -1 33548.3 2996.38   6
   5   7   0 38564.9 3407.25   6
  -5   7   0 35338.6 3139.74   1
   5   7   1 54501.8 4359.43   6
  -5   7  -1 57766.9 4243.12   1
  -5  -7  -1 51194.4 3580.66   2
   5   7   2 26875.2 3137.16   6
  -5   7  -2 31640.1 3148.47   1
  -5  -7  -2 25361.6 2428.89   2
   5   7   3 30321.3 3645.76   6
  -5   7  -3 30501.5 3242.17   1
  -5  -7  -3 31569.1 2724.52   2
   5   7   4 934.370 803.225   6
  -5   7  -4 3044.91 1114.50   1
   5   7   5 14133.8 2789.93   6
  -5   7  -5 18478.5 2680.39   1
  -5  -8  10 1386.64 964.071   5
  -5   8  10 1191.40 796.725   5
  -5   8   9 17187.2 3067.80   4
   5   8  -9 14806.5 2702.74   1
  -5  -8   9 20457.0 2827.15   5
  -5   8   9 17511.3 2635.84   5
   5   8  -8 1624.39 847.682   1
  -5  -8   8 2670.17 1082.71   5
  -5   8   8 2684.06 1090.42   5
   5   8  -7 13767.7 2431.58   1
  -5  -8   7 17013.2 2122.84   5
  -5   8   7 16948.7 2379.23   5
  -5  -8   7 15905.7 2405.25   2
  -5   8   6 1110.09 717.122   1
   5   8  -6 498.454 462.287   1
  -5   8   6 2171.55 735.560   6
  -5  -8   6 1093.65 624.592   2
  -5  -8   6 1872.51 768.456   5
  -5   8   6 1259.65 625.335   5
   5   8  -5 75963.2 5122.27   1
  -5   8   5 76234.2 4370.92   1
  -5  -8   5 63636.0 4829.11   2
  -5  -8   5 68090.1 3915.85   5
  -5   8   5 80776.9 4947.70   5
   5   8  -4 7497.49 1383.73   6
  -5   8   4 5728.86 1121.62   1
  -5  -8   4 5909.31 1349.83   2
  -5  -8   4 7569.40 1046.11   5
   5   8  -4 6177.98 1322.61   1
   5   8  -3 42892.8 3373.14   1
  -5   8   3 46116.4 3393.44   1
   5   8  -3 52498.9 3812.29   6
  -5  -8   3 43728.9 3669.46   2
   5   8  -2 29916.1 2537.24   1
   5   8  -2 29855.4 2871.96   6
  -5   8   2 25618.2 2570.47   1
  -5  -8   2 29940.8 2868.31   2
   5   8  -1 16581.8 1688.21   1
  -5   8   1 17374.6 2217.88   1
   5   8  -1 19897.7 2385.88   6
   5   8   0 54254.8 4307.30   6
  -5   8   0 58088.6 4256.87   1
  -5  -8   0 47920.3 3640.29   2
   5   8   1 1492.63 723.819   6
  -5  -8  -1 1639.65 635.496   2
  -5   8  -1 3445.05 1097.73   1
   5   8   2 22374.0 3029.34   6
  -5   8  -2 25922.0 2999.68   1
  -5  -8  -2 23307.5 2405.92   2
   5   8   3 2124.57 1268.36   6
  -5  -8  -3 809.212 526.761   2
  -5   8  -3 491.151 473.278   1
   5   8   4 22368.7 3408.59   6
  -5   8  -4 22151.6 2954.01   1
  -5   8  -5 5292.92 1519.67   1
  -5   9  10 9499.39 2151.71   5
  -5   9   9 4889.09 1639.14   4
   5   9  -9 5270.53 1755.25   1
  -5   9   9 3585.40 1125.57   5
   5   9  -8 1994.31 983.848   1
  -5   9   8 2394.42 948.329   5
   5   9  -7 4357.54 1527.05   1
  -5   9   7 4501.92 1215.42   5
   5   9  -6 25226.3 3206.39   1
  -5   9   6 27297.8 2636.49   1
  -5   9   6 26633.7 2828.06   5
  -5  -9   6 21284.1 2888.85   2
  -5   9   5 234.424 638.727   1
   5   9  -5 1086.79 584.506   1
  -5  -9   5 767.844 509.420   2
  -5   9   5 1209.62 644.663   5
   5   9  -4 28974.2 3043.95   1
  -5   9   4 36535.3 3062.64   1
   5   9  -4 33856.5 3144.54   6
  -5  -9   4 34860.4 3368.24   2
  -5   9   4 33993.5 3023.41   5
   5   9  -3 952.750 576.260   6
  -5   9   3 1322.84 665.446   1
  -5  -9   3 2217.88 912.267   2
   5   9  -3 863.534 612.915   1
   5   9  -2 11757.3 1593.27   1
   5   9  -2 13820.7 2101.86   6
  -5   9   2 8415.93 1481.55   1
   5   9  -1 22268.7 2677.66   6
  -5   9   1 24011.8 2661.28   1
  -5  -9   1 25548.4 2638.71   2
   5   9   0 40715.1 3822.47   6
  -5   9   0 37034.4 3524.03   1
  -5  -9   0 41782.8 3415.27   2
   5   9   1 29270.9 3392.95   6
  -5   9  -1 26753.7 3121.49   1
  -5  -9  -1 29212.4 2818.23   2
   5   9   2 5381.77 1618.10   6
  -5  -9  -2 4330.92 1068.85   2
  -5   9  -2 4604.85 1352.08   1
   5   9   3 21367.5 3237.18   6
  -5   9  -3 23548.2 3136.82   1
   5   9   4 602.155 785.756   6
  -5   9  -4 601.749 694.058   1
  -5   9  -5 7415.59 1858.26   1
  -5  10   8 3280.66 1400.54   4
   5  10  -8 3692.89 1317.75   1
  -5  10   8 5661.29 1450.25   5
  -5  10   7 17028.5 2197.75   1
   5  10  -7 18066.5 2910.36   1
  -5  10   7 18805.6 2504.89   5
  -5  10   6 4940.71 1318.57   6
  -5  10   6 3835.76 1069.88   1
   5  10  -6 5111.36 1568.30   1
  -5 -10   6 1778.54 980.690   2
  -5  10   6 4586.87 1212.93   5
  -5  10   5 11564.9 1948.56   6
  -5  10   5 12824.5 1857.39   1
   5  10  -5 12386.2 2096.40   1
  -5 -10   5 13056.2 2242.38   2
  -5  10   5 15285.0 2056.53   5
   5  10  -4 3112.23 928.295   1
   5  10  -4 2596.68 858.834   6
  -5  10   4 4338.11 1076.33   1
  -5 -10   4 4299.90 1288.11   2
  -5  10   4 4611.60 1176.26   5
   5  10  -3 20822.4 2643.65   6
  -5  10   3 14806.5 2070.63   1
  -5 -10   3 16737.3 2346.64   2
   5  10  -3 15664.7 2124.37   1
   5  10  -2 16776.7 2422.12   6
  -5 -10   2 19544.9 2491.21   2
  -5  10   2 13266.8 1980.39   1
   5  10  -2 13201.4 1800.82   1
   5  10  -1 42574.2 3971.02   6
  -5  10   1 35655.7 3449.11   1
  -5 -10   1 37868.4 3514.45   2
   5  10   0 34217.5 3609.70   6
  -5  10   0 33236.4 3454.95   1
  -5 -10   0 30062.5 3058.79   2
   5  10   1 24004.4 3206.87   6
  -5  10  -1 27050.3 3238.43   1
  -5 -10  -1 23093.6 2603.84   2
   5  10   2 16756.8 2819.83   6
  -5 -10  -2 19038.3 2235.41   2
  -5  10  -2 15874.0 2616.04   1
   5  10   3 3330.18 1411.11   6
  -5  10  -3 4257.49 1388.39   1
  -5  10  -4 14283.5 2583.16   1
  -5  11   8 2646.32 1261.61   4
  -5  11   7 2410.61 1135.60   4
  -5  11   7 2862.68 1008.48   1
   5  11  -7 1792.22 882.127   1
  -5  11   6 20369.9 2376.54   1
  -5  11   6 16270.4 2538.29   6
   5  11  -6 18374.1 2832.69   1
   5  11  -5 1122.92 641.868   6
  -5  11   5 722.895 489.312   6
  -5  11   5 2452.75 1006.99   1
  -5 -11   5 457.412 717.708   2
   5  11  -5 1300.49 842.834   1
  -5  11   4 22055.0 2528.69   1
   5  11  -4 21613.4 2846.89   6
  -5  11   4 22684.5 2491.13   5
  -5 -11   4 19389.8 2743.72   2
   5  11  -4 21914.3 2769.47   1
  -5  11   3 18608.0 2335.87   1
   5  11  -3 20709.5 2809.42   6
   5  11  -3 17453.4 2292.81   1
  -5 -11   3 17175.0 2490.05   2
   5  11  -2 29646.9 3360.62   6
  -5  11   2 29496.7 3109.48   1
  -5 -11   2 34350.9 3519.76   2
   5  11  -1 10597.8 2098.05   6
  -5  11   1 7891.63 1670.75   1
  -5 -11   1 8481.50 1772.45   2
   5  11   0 11179.0 2283.82   6
  -5 -11   0 9605.31 1802.59   2
  -5  11   0 9876.78 1985.71   1
  -5 -11  -1 24232.3 2782.91   2
   5  11   1 24373.4 3338.95   6
  -5  11  -1 24989.2 3216.25   1
   5  11   2 3077.91 1512.72   6
  -5  11  -2 1829.70 1012.24   1
   5  11   3 8532.51 2252.59   6
  -5  11  -3 10245.7 2108.97   1
  -5  12   7 8633.60 2155.47   4
   5  12  -7 11246.5 2409.62   1
  -5  12   6 696.522 844.326   4
  -5  12   6 899.112 619.915   1
   5  12  -6 367.940 610.684   1
  -5  12   5 22540.2 2619.40   1
  -5  12   5 24583.8 3175.78   6
   5  12  -5 21454.7 3063.74   6
   5  12  -5 17636.9 2755.68   1
   5  12  -4 2970.44 1202.85   6
   5  12  -4 1123.91 533.485   1
  -5  12   4 4105.89 1220.76   1
  -5 -12   4 5053.73 1533.75   2
   5  12  -3 16212.2 2342.14   1
  -5  12   3 20342.2 2558.81   1
   5  12  -3 19165.1 2703.93   6
  -5 -12   3 21386.6 2884.55   2
   5  12  -2 2787.88 1022.70   6
  -5  12   2 3265.42 1035.83   1
  -5 -12   2-18.3562 477.297   2
   5  12  -1 6404.93 1654.21   6
  -5 -12   1 11423.8 1972.18   2
  -5  12   1 6630.86 1586.02   1
   5  12   0 13468.5 2535.63   6
  -5 -12   0 18355.4 2487.80   2
  -5  12   0 15768.9 2500.02   1
   5  12   1 2302.88 1170.59   6
  -5  12  -1 2181.59 1048.93   1
   5  12   2 12274.0 2591.49   6
  -5  12  -2 6206.50 1732.74   1
  -5  13   6 22650.3 3358.19   4
   5  13  -6 23934.6 3463.12   1
  -5  13   5-1015.97 997.016   4
   5  13  -5 70.2609 492.029   1
   5  13  -5-766.467 679.514   6
  -5  13   5 1580.64 862.276   6
  -5  13   5 1439.80 764.623   1
   5  13  -4 8950.18 1949.58   1
   5  13  -4 15797.9 2700.19   6
  -5  13   4 16115.5 2386.33   1
  -5 -13   4 13954.6 2564.41   2
   5  13  -3 3725.02 1478.57   6
  -5  13   3 4382.97 1192.94   1
  -5 -13   3 6932.39 1553.76   2
   5  13  -2 18946.5 2994.80   6
  -5  13   2 14736.2 2334.20   1
  -5 -13   2 20646.2 2861.06   2
   5  13  -1 9906.98 2201.44   6
  -5 -13   1 9241.04 1867.74   2
  -5  13   1 9344.30 1889.83   1
   5  13   0 9654.59 2296.54   6
  -5 -13   0 10174.4 1914.81   2
  -5  13   0 11411.4 2337.60   1
   5  13   1 12817.5 2604.77   6
   5  14  -5 7304.59 1971.39   1
   5  14  -5 10675.9 2401.77   6
  -5  14   5 7961.86 2005.10   6
  -5  14   5 6460.34 1499.51   1
   5  14  -4 8117.77 1978.99   6
  -5  14   4 6203.15 1506.52   1
   5  14  -3 5659.90 1844.30   6
  -5  14   3 4195.15 1264.34   1
  -5 -14   3 3234.37 1118.06   2
   5  14  -2 5041.29 1646.19   6
  -5  14   2 5017.41 1302.37   1
  -5 -14   2 4949.58 1448.38   2
   5  14  -1 14287.2 2767.60   6
  -5 -14   1 13634.5 2366.08   2
  -5 -15   1 9872.70 2107.72   2
  -6   0  12 3882.78 1754.28   4
  -6   0  11 2679.39 1165.84   5
  -6   0  10 1007.47 606.963   5
  -6   0   9 40950.1 4065.40   5
  -6   0   8 20065.9 2003.39   2
  -6   0   8 21517.3 2731.10   5
  -6   0   7 6720.87 1056.94   2
  -6   0   7 4137.66 1165.86   5
  -6   0   6 16512.7 1683.91   2
  -6   0   6 17965.7 2206.75   5
  -6   0   5 233.923 449.776   2
  -6   0   5 688.264 617.700   5
  -6   0   4 89532.5 3180.68   6
  -6   0   4 112412. 4687.16   2
   6   0  -3 49871.4 2528.67   3
  -6   0   3 50944.6 2995.24   2
  -6   0   2 103639. 4637.01   1
   6   0  -2 104920. 4653.59   3
  -6   0   1 8470.41 1086.02   1
   6   0  -1 7495.71 1216.14   3
  -6   0   0 10871.5 1231.25   1
   6   0   0 10897.6 1590.51   3
   6   0   1 33013.9 3121.46   3
  -6   0  -1 35644.2 2345.64   1
   6   0   2 47856.5 4080.31   3
  -6   0  -2 44971.8 2740.29   1
   6   0   3 30656.2 3537.43   3
   6   0   4 19797.6 3074.91   3
   6   0   5 15685.8 2920.16   3
  -6   1  12-380.463 1056.06   4
  -6  -1  11-156.280 694.330   5
  -6   1  11-892.248 1083.57   5
  -6  -1  10 9730.39 2146.99   5
  -6   1  10 12043.6 2501.51   5
  -6  -1   9 7500.48 1736.34   5
  -6   1   9 4458.94 1402.06   5
  -6  -1   8 51381.9 3527.88   2
  -6   1   8 51463.3 3173.27   2
  -6  -1   8 50434.8 4249.88   5
  -6   1   8 62860.3 4710.80   5
  -6  -1   7 24881.5 2297.45   2
  -6   1   7 15255.0 1614.59   2
  -6  -1   7 26424.7 2793.80   5
  -6   1   7 14869.9 2203.01   5
  -6  -1   6 5958.99 1094.20   2
  -6   1   6 4085.38 841.499   2
  -6  -1   6 7030.65 1384.60   5
  -6   1   6 4100.88 1241.95   5
  -6  -1   5 83682.9 4312.45   2
  -6   1   5 93225.7 4224.80   2
  -6  -1   5 84283.7 4922.04   5
  -6   1   5 91971.5 5228.18   5
   6  -1  -4 7356.17 666.995   3
  -6   1   4 8646.33 687.493   6
  -6  -1   4 7616.16 1124.64   2
  -6   1   3 172594. 6510.42   1
   6   1  -3 151778. 5628.98   3
   6  -1  -3 157159. 5654.92   3
  -6  -1   3 152904. 6262.59   2
  -6   1   3 161619. 6174.31   2
   6   1  -2 21809.7 1863.27   3
  -6   1   2 20677.6 1807.07   1
   6  -1  -2 27271.6 2048.51   3
  -6  -1   2 21837.2 1926.56   2
  -6  -1   1 43961.9 2539.22   1
   6   1  -1 27914.7 2451.33   3
  -6   1   1 27002.1 2133.83   1
   6  -1  -1 42877.1 2932.55   3
  -6  -1   1 42687.3 2779.00   2
  -6  -1   0 37963.7 2294.04   1
   6   1   0 32157.0 2871.51   3
   6  -1   0 37506.3 3043.35   3
  -6   1   0 34385.6 2405.06   1
  -6  -1  -1 68229.0 3229.70   1
   6   1   1 59804.3 4368.01   3
   6  -1   1 67304.1 4533.10   3
  -6   1  -1 61301.3 3477.11   1
   6   1   2 25165.6 2954.04   3
   6  -1   2 21732.8 2713.42   3
  -6   1  -2 27325.6 2190.35   1
   6   1   3 51566.7 4593.46   3
   6  -1   3 46807.6 4360.84   3
   6   1   4 18742.5 2888.75   3
   6  -1   4 21924.0 3188.30   3
   6   1   5 2449.51 1297.78   3
   6  -1   5 1601.11 1119.62   3
  -6  -2  11 9942.16 2284.71   5
  -6   2  11 7078.37 1971.47   5
  -6  -2  10-330.907 967.542   5
  -6   2  10-204.852 593.701   5
  -6  -2   9 15881.4 2023.90   2
  -6  -2   9 14554.1 2363.32   5
  -6   2   9 19822.7 2800.30   5
  -6  -2   8 20089.0 2283.47   2
  -6  -2   8 21058.9 2657.21   5
  -6   2   8 26346.7 3010.34   5
  -6  -2   7 12250.5 1736.04   2
  -6   2   7 16234.0 1520.54   2
  -6  -2   7 11882.5 1891.72   5
  -6   2   7 15408.9 2200.53   5
  -6  -2   6 22686.0 2196.85   2
  -6   2   6 29404.5 2073.80   2
  -6  -2   6 26646.1 2617.37   5
  -6   2   6 30451.1 2978.41   5
  -6  -2   5 18173.8 1907.50   2
  -6   2   5 14484.6 1429.18   2
  -6  -2   5 18261.0 2096.51   5
  -6   2   5 13929.1 1901.30   5
  -6   2   4 83883.3 4273.56   1
  -6   2   4 74639.6 3008.55   6
   6   2  -4 74509.9 3047.24   6
  -6   2   4 78313.1 3696.48   2
  -6   2   3 3982.01 838.077   1
   6   2  -3 3086.46 591.636   6
  -6  -2   3 4235.94 881.292   2
   6   2  -2 113136. 5025.91   3
  -6   2   2 108927. 4914.21   1
   6   2  -2 110696. 4999.99   6
  -6  -2   2 103474. 4946.79   2
   6   2  -1 16699.8 1849.85   3
  -6   2   1 15290.5 1605.69   1
   6   2  -1 15527.0 1772.66   6
  -6  -2   1 15250.2 1651.05   2
   6   2   0 50604.7 3696.37   3
  -6   2   0 51606.1 3193.79   1
   6   2   0 51796.6 3793.94   6
  -6  -2   0 52311.8 3309.81   2
  -6  -2  -1 25015.7 1744.69   1
   6   2   1 29728.5 2953.20   3
  -6   2  -1 28861.2 2329.08   1
   6   2   2 4870.82 1178.25   3
   6  -2   2 9690.08 1809.27   3
  -6   2  -2 7851.06 1242.19   1
   6   2   3 4642.71 1121.89   3
   6  -2   3 6815.09 1579.03   3
  -6   2  -3 5475.92 1073.57   1
   6   2   4 805.534 1000.21   3
   6  -2   4-1041.74 614.011   3
   6   2   5 21138.2 3456.27   3
   6  -2   5 22112.6 3419.38   3
  -6  -3  11 2184.28 1297.23   5
  -6   3  11 531.120 859.378   5
  -6  -3  10 8624.02 1967.97   5
  -6   3  10 7013.45 1814.16   5
  -6  -3   9 1969.87 769.398   2
  -6  -3   9 1445.06 851.858   5
  -6   3   9 2476.72 1112.23   5
  -6  -3   8 3353.07 1076.83   2
  -6  -3   8 3732.92 1155.32   5
  -6   3   8 1998.65 1103.45   5
  -6  -3   7 13368.2 1883.63   2
  -6   3   7 10862.5 1190.56   2
  -6  -3   7 14331.7 2090.30   5
  -6   3   7 11080.3 1885.07   5
  -6  -3   6 34018.3 2877.68   2
  -6   3   6 33832.5 2201.46   2
  -6  -3   6 35742.7 3063.18   5
  -6   3   6 33585.4 3210.39   5
   6   3  -5 46529.3 1976.35   6
  -6  -3   5 53292.8 3435.41   2
  -6   3   5 44757.7 2533.82   2
  -6  -3   5 52207.5 3533.37   5
  -6   3   5 50923.9 3729.12   5
  -6   3   4 26234.8 2259.34   1
   6   3  -4 28217.9 1773.43   6
  -6  -3   4 32782.2 2595.62   2
  -6  -3   4 33517.8 2674.51   5
  -6   3   3 80491.6 4180.77   1
  -6  -3   3 82692.0 4422.40   2
   6   3  -3 83986.0 3856.16   6
  -6   3   2 8701.58 1261.96   1
   6   3  -2 8938.49 1242.71   6
  -6  -3   2 7629.28 1216.18   2
   6   3  -1 126260. 6075.35   3
  -6   3   1 128476. 5703.91   1
  -6  -3   1 124002. 5671.83   2
   6   3  -1 124920. 6025.76   6
   6   3   0 11110.3 1640.43   3
  -6   3   0 10440.7 1430.36   1
   6   3   0 10693.0 1616.30   6
  -6  -3   0 13836.5 1606.18   2
   6   3   1 36028.6 3469.36   3
   6   3   1 38192.1 3520.73   6
  -6  -3  -1 40654.5 2940.30   2
  -6   3  -1 37528.9 2867.48   1
   6   3   2 33886.5 3549.52   3
  -6   3  -2 32679.2 2780.23   1
   6   3   2 31917.3 3506.49   6
  -6  -3  -2 30316.6 2617.02   2
  -6  -3  -3 6292.06 1185.37   2
   6   3   3 4064.16 1353.18   3
   6  -3   3 7123.63 1802.83   3
  -6   3  -3 6196.08 1204.91   1
   6   3   4 33757.8 4061.39   3
   6  -3   4 31941.4 3881.71   3
  -6  -3  -4 30613.0 2801.04   2
   6   3   5-153.006 1053.41   3
   6  -3   5-511.390 955.164   3
  -6  -4  11 1007.12 956.036   5
  -6   4  11 1873.04 1135.62   5
  -6  -4  10 7722.55 1993.04   5
  -6   4  10 5245.97 1462.84   5
  -6  -4   9 14257.2 2367.29   5
  -6   4   9 13185.1 2287.06   5
  -6  -4   8 5076.48 1119.09   2
  -6  -4   8 5173.65 1374.72   5
  -6   4   8 2691.73 1102.29   5
  -6  -4   7 29076.7 2840.26   2
  -6  -4   7 28299.5 2872.75   5
  -6   4   7 29504.1 3089.21   5
  -6  -4   6 35940.6 3102.05   2
  -6   4   6 32478.3 2086.37   2
  -6  -4   6 36427.8 3125.24   5
  -6   4   6 36098.2 3332.08   5
  -6   4   5 7884.64 1304.04   1
   6   4  -5 10142.2 998.588   6
  -6   4   5 8705.10 1050.17   2
  -6  -4   5 9046.94 1463.49   2
  -6  -4   5 9527.61 1436.71   5
  -6   4   5 11033.9 1682.05   5
  -6   4   4 77023.0 4173.07   1
   6   4  -4 84586.3 3680.77   6
  -6  -4   4 70408.3 4284.92   2
  -6  -4   4 68611.0 4112.35   5
  -6   4   3 67579.0 3913.50   1
   6   4  -3 74268.2 3738.59   6
  -6  -4   3 71019.4 4166.25   2
  -6   4   2 34236.4 2625.47   1
   6   4  -2 33528.0 2536.74   6
   6   4  -1 14457.5 1803.13   6
  -6   4   1 10906.0 1493.37   1
  -6  -4   1 14364.9 1747.31   2
  -6   4   0 85772.0 4654.32   1
   6   4   0 84791.3 5200.21   6
  -6  -4   0 82281.4 4563.45   2
   6   4   1 36521.2 3497.20   3
   6   4   1 35745.0 3453.59   6
  -6   4  -1 36270.6 2958.71   1
  -6  -4  -1 29732.9 2594.18   2
   6   4   2 44075.3 4155.20   3
   6   4   2 44887.6 4252.29   6
  -6   4  -2 45803.9 3518.52   1
  -6  -4  -2 49615.3 3443.55   2
   6   4   3 16557.3 2749.82   3
  -6   4  -3 24000.7 2541.45   1
   6   4   3 19150.2 3065.11   6
  -6  -4  -3 22362.3 2314.24   2
   6   4   4 1114.22 668.343   3
   6  -4   4 4796.24 1663.23   3
  -6   4  -4 4209.29 1125.22   1
  -6  -4  -4 2858.45 934.154   2
   6   4   5 6182.06 1761.06   3
   6  -4   5 7222.56 2027.72   3
  -6  -5  11 2593.18 1171.97   5
  -6  -5  10 13146.1 2482.70   5
  -6   5  10 8836.95 2170.79   5
  -6  -5   9 12761.8 2151.12   5
  -6   5   9 17364.4 2662.92   5
  -6  -5   8 32937.2 3333.56   2
  -6  -5   8 34974.0 3475.57   5
  -6   5   8 40846.8 3950.02   5
  -6  -5   7 12963.4 1970.79   2
  -6  -5   7 11989.7 1818.80   5
  -6   5   7 13870.5 2141.47   5
  -6   5   6 9254.43 1000.65   2
  -6  -5   6 8392.98 1567.97   2
  -6  -5   6 6237.82 1218.45   5
  -6   5   6 10159.4 1741.25   5
  -6   5   5 82045.4 4475.54   1
   6   5  -5 82227.3 3854.29   6
  -6  -5   5 76768.4 4753.98   2
  -6  -5   5 78975.8 4499.35   5
  -6   5   5 83507.7 5155.79   5
  -6   5   4 613.388 434.217   1
   6   5  -4 41.1908 274.535   6
  -6  -5   4 42.8744 360.641   2
  -6  -5   4 581.780 509.191   5
  -6   5   3 28990.1 2504.22   1
   6   5  -3 28872.4 2350.10   6
  -6   5   2 30001.3 2604.12   1
   6   5  -2 34257.1 2705.48   6
  -6  -5   2 30749.5 2673.29   2
  -6   5   1 23063.3 2300.25   1
   6   5  -1 27612.4 2598.20   6
  -6  -5   1 27903.4 2491.98   2
   6   5   0 49201.1 3783.24   6
  -6   5   0 45397.7 3432.31   1
  -6  -5   0 38127.8 3101.33   2
   6   5   1 51687.5 4296.18   6
  -6   5  -1 49633.3 3703.34   1
  -6  -5  -1 42659.3 3314.41   2
   6   5   2 9509.27 1934.79   6
  -6   5  -2 9628.00 1654.46   1
  -6  -5  -2 13850.8 1778.78   2
   6   5   3 3187.82 1342.61   6
  -6   5  -3 5041.27 1261.19   1
  -6  -5  -3 5337.95 1157.35   2
   6   5   4 6233.61 1849.70   6
  -6   5  -4 4640.04 1355.89   1
  -6  -5  -4 5366.79 1212.97   2
  -6  -6  11 9556.62 2311.21   5
  -6  -6  10 5643.93 1720.85   5
  -6   6  10 6055.93 1737.85   5
  -6  -6   9 13707.9 2306.68   5
  -6   6   9 16408.1 2582.22   5
  -6  -6   8 326.788 444.637   2
  -6  -6   8 153.059 588.322   5
  -6   6   8 1036.48 788.887   5
  -6  -6   7 27350.7 3005.10   2
  -6  -6   7 27307.1 2851.39   5
  -6   6   7 28241.6 3099.91   5
  -6   6   6 15771.3 1966.58   1
  -6  -6   6 17665.7 2333.90   2
  -6  -6   6 14658.0 1888.00   5
  -6   6   6 15067.8 2204.08   5
  -6   6   5 10159.7 1508.19   1
   6   6  -5 8941.96 1247.89   6
  -6  -6   5 9693.19 1714.97   2
  -6  -6   5 9925.52 1462.10   5
  -6   6   5 9298.78 1704.59   5
  -6   6   4 94181.6 5046.05   1
   6   6  -4 105759. 4982.63   6
  -6  -6   4 97698.0 5535.13   2
  -6  -6   4 104092. 4961.90   5
   6   6  -3 3631.91 922.879   6
  -6   6   3 5294.80 1141.89   1
  -6  -6   3 4179.60 1105.79   2
  -6  -6   3 2815.96 709.941   5
  -6   6   2 41564.8 3228.34   1
   6   6  -2 45884.6 3387.17   6
  -6  -6   2 46191.3 3468.64   2
   6   6  -1 8819.70 1502.95   6
  -6   6   1 6361.52 1243.11   1
  -6  -6   1 5522.55 1246.82   2
   6   6   0 55807.7 4192.29   6
  -6   6   0 51206.4 3817.68   1
  -6  -6   0 48637.9 3570.05   2
   6   6   1 6621.15 1575.97   6
  -6   6  -1 6774.91 1482.86   1
  -6  -6  -1 8149.42 1380.92   2
   6   6   2 28530.4 3442.89   6
  -6   6  -2 29995.8 3064.95   1
  -6  -6  -2 22557.2 2461.78   2
  -6   6  -3 19091.3 2613.96   1
   6   6   3 17276.6 2890.84   6
  -6  -6  -3 20680.3 2287.98   2
   6   6   4 1209.02 828.488   6
  -6   6  -4 2790.57 1104.06   1
   6   7 -10 10897.2 2391.30   1
  -6  -7  10 11535.9 2331.70   5
  -6   7  10 12847.5 2373.65   5
  -6  -7   9 923.367 524.830   5
  -6   7   9 3446.86 1106.70   5
  -6  -7   8 6549.77 1558.87   2
  -6  -7   8 6205.57 1486.93   5
  -6   7   8 7543.54 1795.75   5
  -6  -7   7 4216.19 1202.90   2
  -6  -7   7 4516.16 1154.26   5
  -6   7   7 4876.57 1333.49   5
  -6   7   6 4625.58 1110.38   1
  -6  -7   6 3262.55 1086.02   2
  -6  -7   6 4598.06 1055.04   5
  -6   7   6 7241.97 1562.96   5
  -6   7   5 35833.6 2947.21   1
   6   7  -5 36957.1 2828.19   6
  -6  -7   5 35921.2 3467.32   2
  -6  -7   5 30471.5 2591.94   5
  -6   7   5 37429.8 3398.71   5
   6   7  -4 1304.34 559.569   6
  -6  -7   4 100.809 605.458   2
  -6  -7   4 357.354 357.509   5
  -6   7   3 63053.5 4102.46   1
   6   7  -3 63433.9 4042.87   6
  -6  -7   3 54562.9 4057.97   2
  -6  -7   3 58779.4 3407.05   5
  -6   7   2 27935.3 2674.28   1
   6   7  -2 27692.3 2709.97   6
  -6  -7   2 24963.1 2626.56   2
   6   7  -1 30558.8 3018.01   6
  -6   7   1 33595.2 3062.83   1
  -6  -7   1 35422.9 3097.36   2
   6   7   0 11123.7 1865.78   6
  -6   7   0 11170.9 1752.07   1
  -6  -7   0 13887.1 1902.08   2
   6   7   1 27469.4 3234.69   6
  -6   7  -1 28022.7 2998.88   1
  -6  -7  -1 23692.3 2505.75   2
  -6   7  -2 25965.5 2950.03   1
   6   7   2 19097.8 2823.13   6
  -6  -7  -2 21323.7 2357.33   2
   6   7   3 3559.16 1333.30   6
  -6   7  -3 5741.48 1531.47   1
  -6  -7  -3 5334.94 1240.43   2
   6   7   4 14986.6 2913.12   6
  -6   7  -4 15066.9 2435.66   1
  -6   8  10 3147.59 1274.05   5
   6   8  -9 1892.79 1245.29   1
  -6   8   9 1194.13 966.524   5
   6   8  -8 2448.52 1021.84   1
  -6  -8   8 1866.17 725.050   2
  -6   8   8 3414.39 1212.48   5
  -6  -8   7 10989.1 1957.21   2
  -6   8   7 13001.3 2156.59   5
  -6   8   6 30019.9 2837.38   1
  -6  -8   6 26569.6 3133.49   2
  -6   8   6 34084.9 3314.35   5
  -6   8   5 8462.08 1450.89   1
   6   8  -5 9054.07 1504.73   6
  -6  -8   5 8766.40 1749.07   2
  -6   8   5 8279.58 1544.31   5
  -6   8   4 49757.0 3725.66   1
   6   8  -4 53293.5 3782.13   6
  -6  -8   4 52134.4 4290.85   2
   6   8  -3 3877.97 1033.84   6
  -6   8   3 3738.39 1009.48   1
  -6  -8   3 1671.11 589.297   2
   6   8  -2 43610.1 3643.09   6
  -6   8   2 38348.9 3322.19   1
  -6  -8   2 41916.4 3541.45   2
   6   8  -1 18691.0 2429.45   6
  -6   8   1 13443.4 2020.50   1
  -6  -8   1 16900.5 2151.05   2
   6   8   0 11259.3 2000.29   6
  -6   8   0 8813.80 1618.19   1
  -6  -8   0 10822.3 1747.48   2
   6   8   1 26933.9 3234.24   6
  -6   8  -1 25561.7 2953.07   1
  -6  -8  -1 21930.9 2514.11   2
   6   8   2 7028.90 1904.57   6
  -6   8  -2 8552.54 1814.88   1
  -6  -8  -2 10257.6 1699.94   2
   6   8   3 18007.9 3019.91   6
  -6   8  -3 20440.2 2819.29   1
  -6   8  -4 1199.19 1054.33   1
  -6   9  10 2098.45 1031.36   5
   6   9  -9 2329.01 1251.21   1
  -6   9   9 1289.98 697.031   5
   6   9  -8 7643.17 1958.51   1
  -6   9   8 6859.45 1640.73   5
  -6   9   7 8734.89 1613.97   1
  -6  -9   7 13015.3 2245.48   2
  -6   9   7 11509.6 2102.21   5
   6   9  -7 7379.19 1871.14   1
  -6   9   6 3125.12 1036.96   1
   6   9  -6 2974.99 1136.63   1
  -6  -9   6 3329.93 1174.87   2
  -6   9   6 2726.38 1008.73   5
  -6   9   5 9820.54 1651.27   1
   6   9  -5 8184.80 1521.40   6
   6   9  -5 10121.3 1921.50   1
  -6  -9   5 10093.0 1961.88   2
  -6   9   5 9041.50 1672.75   5
   6   9  -4 16506.0 2193.73   6
   6   9  -4 14183.5 2104.80   1
  -6   9   4 14457.4 2016.43   1
  -6  -9   4 13887.8 2271.47   2
   6   9  -3 49838.7 3763.67   1
  -6   9   3 48104.6 3832.11   1
   6   9  -3 60172.7 4390.13   6
  -6  -9   3 50839.0 4333.00   2
   6   9  -2 5043.89 1311.20   6
  -6   9   2 4109.30 997.809   1
   6   9  -2 4139.06 1011.60   1
  -6  -9   2 4308.23 1089.78   2
   6   9  -1 28622.4 3167.15   6
  -6   9   1 28496.5 3048.54   1
  -6  -9   1 31374.6 3140.53   2
   6   9   0 9585.67 1825.78   6
  -6   9   0 10755.6 1975.40   1
  -6  -9   0 7955.48 1511.09   2
   6   9   1 10220.0 2094.00   6
  -6   9  -1 9799.98 1994.33   1
  -6  -9  -1 7136.37 1449.56   2
   6   9   2 12319.6 2491.33   6
  -6   9  -2 14123.0 2413.84   1
  -6  -9  -2 11532.7 1859.40   2
   6   9   3 10715.7 2389.40   6
  -6   9  -3 12286.8 2279.59   1
   6  10  -8 1027.76 971.056   1
  -6  10   8 2224.19 1031.86   5
  -6  10   7 2994.33 875.997   1
  -6 -10   7 5968.54 1638.84   2
  -6  10   7 4105.42 1260.74   5
   6  10  -7 5226.60 1661.36   1
   6  10  -6 7509.48 1745.90   1
  -6  10   6 8837.65 1630.71   1
  -6 -10   6 8881.84 1926.51   2
  -6  10   6 8771.50 1719.44   5
   6  10  -5 1816.84 620.870   1
  -6  10   5 1285.38 751.470   1
   6  10  -5 778.723 670.623   6
  -6 -10   5 1842.36 895.783   2
  -6  10   5 153.529 405.250   5
   6  10  -4 27840.3 3034.66   1
  -6  10   4 33391.1 3145.85   1
   6  10  -4 29461.7 3153.13   6
  -6 -10   4 24100.0 3050.97   2
   6  10  -3 10908.5 1885.32   6
   6  10  -3 9976.33 1680.67   1
  -6  10   3 9464.98 1834.51   1
  -6 -10   3 11072.2 2059.23   2
   6  10  -2 32136.1 3355.55   6
  -6  10   2 27063.1 2988.69   1
  -6 -10   2 32316.1 3415.71   2
   6  10  -1 2559.88 1056.57   6
  -6  10   1 727.901 543.772   1
  -6 -10   1 1747.01 912.457   2
   6  10   0 24438.3 3212.02   6
  -6  10   0 25764.4 3065.57   1
  -6 -10   0 26013.6 2903.40   2
   6  10   1 13252.7 2459.43   6
  -6  10  -1 10659.6 2167.90   1
  -6 -10  -1 6768.64 1456.74   2
   6  10   2 13909.5 2545.15   6
  -6  10  -2 15755.6 2732.68   1
  -6  10  -3 13399.6 2481.51   1
  -6  11   7 11070.6 1922.85   1
   6  11  -7 7507.87 1966.15   1
  -6  11   6 3363.54 1176.31   1
   6  11  -6 1728.48 922.862   1
  -6 -11   6 2139.43 1197.38   2
  -6  11   6 3391.95 1108.53   5
   6  11  -5 13145.9 2369.86   1
   6  11  -5 11815.2 2068.11   6
  -6  11   5 14329.4 2136.35   1
  -6 -11   5 10959.3 2150.39   2
  -6  11   5 11719.6 1981.11   5
   6  11  -4 2060.13 948.990   1
   6  11  -4 2587.05 986.961   6
  -6  11   4 3980.55 1199.78   1
  -6 -11   4 2618.83 1120.58   2
   6  11  -3 17903.3 2620.34   6
  -6  11   3 13363.6 2100.03   1
  -6 -11   3 13218.5 2254.90   2
   6  11  -2 6244.60 1557.71   6
  -6  11   2 7912.40 1608.66   1
  -6 -11   2 7381.88 1695.52   2
   6  11  -1 26156.9 3280.70   6
  -6 -11   1 20102.2 2831.06   2
  -6  11   1 18976.6 2663.18   1
   6  11   0 12109.8 2393.80   6
  -6  11   0 9252.44 1922.02   1
  -6 -11   0 9310.65 1882.74   2
   6  11   1 10531.8 2335.16   6
  -6  11  -1 12266.6 2346.64   1
  -6 -11  -1 10451.1 1945.12   2
  -6  12   7 5325.90 1419.33   1
   6  12  -7 3146.32 1411.65   1
  -6  12   6 11554.7 1954.15   1
  -6 -12   6 8852.16 2090.59   2
   6  12  -6 9562.36 2192.17   1
   6  12  -5 1503.10 931.614   6
  -6  12   5 3369.74 1258.02   1
  -6 -12   5 1280.47 554.571   2
   6  12  -5 2258.19 1067.50   1
  -6  12   4 19088.1 2617.42   1
   6  12  -4 19984.5 2857.07   6
   6  12  -4 16315.7 2491.77   1
  -6 -12   4 17396.5 2756.74   2
   6  12  -3 1675.46 765.457   6
  -6  12   3 988.642 665.601   1
  -6 -12   3 1797.95 924.286   2
   6  12  -2 11785.4 2274.31   6
  -6  12   2 10068.3 1917.78   1
  -6 -12   2 12332.6 2194.76   2
   6  12  -1 6643.07 1768.10   6
  -6  12   1 4015.90 1129.71   1
  -6 -12   1 4539.69 1320.97   2
   6  12   0 5697.74 1630.92   6
  -6  12   0 3816.86 1171.06   1
  -6 -12   0 4180.82 1314.49   2
   6  12   1 4528.75 1671.18   6
  -6  13   6-911.124 923.715   4
  -6  13   6 707.201 696.936   1
   6  13  -6 772.476 805.759   1
  -6  13   5 12380.8 2149.06   1
   6  13  -5 11341.9 2347.29   1
   6  13  -4 4975.89 1688.50   6
  -6  13   4 5284.89 1562.62   1
  -6 -13   4 5694.55 1686.98   2
   6  13  -3 13221.3 2456.12   6
  -6  13   3 11664.8 2095.13   1
  -6 -13   3 14716.5 2538.47   2
   6  13  -2 3536.08 1363.66   6
  -6  13   2 2758.72 1043.67   1
  -6 -13   2 3177.44 1101.46   2
   6  13  -1 15814.3 2776.72   6
  -6 -13   1 15041.2 2460.68   2
  -6 -13   0 447.626 639.050   2
   6  14  -4 2044.25 1104.22   6
   6  14  -3 2782.41 1260.80   6
  -6 -14   1 5200.11 1610.17   2
  -7   0  11-1098.63 970.375   5
  -7   0  10 35613.7 4071.83   5
  -7   0   9 2876.68 1159.33   5
  -7   0   8 9599.75 1511.46   2
  -7   0   8 11958.0 2169.91   5
  -7   0   7-45.5479 408.706   2
  -7   0   7-121.606 463.425   5
  -7   0   6 26971.4 2314.95   2
  -7   0   6 27082.4 2877.81   5
  -7   0   5 3645.75 822.558   2
   7   0  -4 52420.0 2522.64   3
  -7   0   4 58924.9 3468.77   2
   7   0  -3 11798.7 1302.48   3
  -7   0   3 12297.2 1479.24   2
  -7   0   2 335.379 346.503   2
  -7   0   2 566.303 376.547   1
   7   0  -2 227.126 408.897   3
  -7   0   1 102860. 4783.55   1
   7   0  -1 107421. 5595.16   3
   7   0   0 1008.79 426.843   3
  -7   0   0 2113.44 606.012   1
   7   0   1 39851.5 3732.85   3
  -7   0  -1 40849.8 2694.56   1
   7   0   2 4215.63 1272.13   3
   7   0   3 25219.2 3349.61   3
   7   0   4 3124.69 1539.87   3
  -7  -1  11 5720.55 1776.01   5
  -7   1  11 3439.66 1525.67   5
  -7  -1  10-213.958 807.038   5
  -7   1  10 1688.74 965.450   5
  -7  -1   9 14100.6 1893.01   2
  -7  -1   9 15854.3 2512.03   5
  -7   1   9 20693.7 2843.83   5
  -7  -1   8 11604.3 1755.90   2
  -7   1   8 10963.7 1478.03   2
  -7  -1   8 12048.3 2188.86   5
  -7   1   8 14446.7 2370.50   5
  -7  -1   7 59070.5 3852.56   2
  -7   1   7 61266.1 3624.43   2
  -7  -1   7 61399.5 4556.95   5
  -7   1   7 65664.4 4772.39   5
  -7  -1   6 21479.0 2106.28   2
  -7   1   6 16054.3 1726.39   2
  -7  -1   6 20203.7 2420.06   5
  -7   1   6 14602.5 2130.54   5
  -7  -1   5 35667.1 2809.95   2
  -7   1   5 42125.7 2807.61   2
  -7  -1   5 38435.8 3276.88   5
   7  -1  -4 24540.9 1574.35   3
  -7  -1   4 30179.1 2439.28   2
  -7   1   3 6311.98 1096.61   2
  -7   1   3 7334.28 1203.25   1
   7   1  -3 6540.34 1002.23   3
  -7  -1   3 9028.45 1348.62   2
  -7   1   2 74657.4 4009.21   1
   7   1  -2 72972.4 4125.88   3
   7  -1  -2 81099.4 4286.25   3
  -7  -1   2 69777.6 4068.35   2
  -7  -1   1 6706.23 1214.11   2
  -7  -1   1 6447.65 1029.04   1
   7   1  -1 6596.12 1248.61   3
   7  -1  -1 7017.06 1264.49   3
  -7   1   1 6509.86 1060.44   1
  -7  -1   0 71128.2 3710.39   1
   7   1   0 76306.2 4959.44   3
   7  -1   0 69697.3 4758.11   3
  -7   1   0 78936.3 4078.04   1
   7   1   1 6628.65 1470.21   3
   7  -1   1 8319.84 1639.31   3
  -7   1  -1 6641.43 1166.97   1
   7   1   2 28540.5 3381.94   3
   7  -1   2 32483.6 3684.09   3
   7   1   3 7064.96 1776.43   3
   7  -1   3 11680.2 2277.48   3
   7   1   4 16867.0 2987.98   3
   7  -1   4 15610.9 2842.11   3
  -7  -2  11 1646.29 937.869   5
  -7   2  11 2001.39 1084.63   5
  -7  -2  10 2418.34 1297.97   5
  -7   2  10 2247.15 1053.46   5
  -7  -2   9 2543.04 947.423   2
  -7  -2   9 2358.57 1057.58   5
  -7   2   9 3938.02 1501.67   5
  -7  -2   8 52946.9 3935.67   2
  -7  -2   8 56862.8 4600.77   5
  -7   2   8 52346.5 4524.15   5
  -7  -2   7 4448.55 1068.23   2
  -7  -2   7 5665.25 1360.38   5
  -7   2   7 6158.46 1051.19   2
  -7   2   7 8130.52 1757.60   5
  -7  -2   6 31199.9 2678.85   2
  -7   2   6 28692.3 2257.10   2
  -7  -2   6 27588.2 2877.21   5
  -7   2   6 31089.1 3145.19   5
  -7  -2   5 35193.1 2802.40   2
  -7   2   5 29466.2 2281.94   2
  -7  -2   5 36190.3 3134.63   5
  -7   2   4 402.270 282.357   2
  -7   2   4 1682.53 658.733   1
   7  -2  -4 2643.29 553.850   3
  -7  -2   4 2953.68 846.622   2
  -7   2   3 160480. 6670.55   1
  -7  -2   3 152146. 6772.62   2
   7   2  -2 17143.7 1910.47   3
  -7   2   2 19390.4 1936.07   1
  -7  -2   2 24027.7 2238.11   2
   7   2  -1 28437.3 2732.27   3
  -7   2   1 27315.2 2386.67   1
   7  -2  -1 36840.9 2999.28   3
  -7  -2   1 35553.8 2807.77   2
  -7  -2   0 5536.01 1102.66   2
   7   2   0 4111.71 1107.22   3
   7  -2   0 4986.94 1239.43   3
  -7   2   0 5267.78 1013.73   1
  -7  -2  -1 10813.1 1628.09   2
  -7   2  -1 16754.3 1875.82   1
   7   2   1 16528.0 2394.89   3
   7  -2   1 10427.9 1931.04   3
  -7  -2  -2 4086.42 1051.14   2
   7   2   2 2170.97 1042.15   3
   7  -2   2 3089.67 1041.73   3
  -7   2  -2 3624.67 949.916   1
   7   2   3 23126.8 3321.84   3
   7  -2   3 25342.8 3524.50   3
   7   2   4 9185.51 2167.42   3
   7  -2   4 9534.24 2204.58   3
  -7  -3  11 2922.65 1374.47   5
  -7  -3  10 956.384 694.380   5
  -7   3  10 2238.20 936.046   5
  -7  -3   9 15767.5 2222.17   2
  -7  -3   9 17348.8 2608.01   5
  -7   3   9 20071.1 2891.80   5
  -7  -3   8 5749.44 1316.65   2
  -7  -3   8 4294.85 1293.34   5
  -7   3   8 4008.60 1387.04   5
  -7   3   7 21322.8 1850.05   2
  -7   3   7 21438.1 2778.51   5
  -7  -3   7 16281.2 2132.97   2
  -7  -3   7 16495.1 2297.81   5
  -7  -3   6 2259.89 750.627   2
  -7  -3   6 2298.26 871.924   5
  -7   3   6 877.435 657.669   5
  -7   3   6 351.514 231.421   2
  -7   3   5 4708.62 1038.31   1
  -7  -3   5 13228.6 1780.64   2
  -7  -3   5 11563.2 1705.66   5
  -7   3   5 4263.81 838.305   2
  -7   3   4 84576.0 4558.94   1
   7   3  -4 79039.0 3703.38   6
  -7  -3   4 84707.3 4754.36   2
  -7   3   3 82033.2 4465.51   1
   7   3  -3 83063.7 4235.65   6
  -7  -3   3 84938.1 4736.80   2
  -7   3   2 98153.7 4897.17   1
   7   3  -2 92221.4 4899.67   6
  -7  -3   2 81975.8 4752.64   2
   7   3  -1 6084.56 1264.62   3
  -7   3   1 7581.35 1276.62   1
   7   3  -1 5986.21 1251.62   6
  -7  -3   1 6028.58 1237.13   2
   7   3   0 22532.4 2665.38   3
  -7   3   0 23419.4 2324.68   1
   7   3   0 20350.0 2607.22   6
  -7  -3   0 28962.9 2591.46   2
   7   3   1 6753.92 1529.74   3
  -7   3  -1 8383.90 1379.24   1
  -7  -3  -1 7292.87 1352.46   2
   7   3   2 25862.3 3334.29   3
   7  -3   2 28973.3 3434.87   3
  -7   3  -2 27000.6 2604.42   1
  -7  -3  -2 27467.1 2701.49   2
  -7  -3  -3 1726.25 742.078   2
   7   3   3 3279.07 1232.92   3
   7  -3   3 1816.49 1031.98   3
  -7  -3  -4 5612.30 1259.81   2
   7   3   4 3648.51 1350.84   3
   7  -3   4 6562.14 2113.76   3
  -7  -4  11 2437.18 1206.09   5
  -7  -4  10 3339.40 1235.89   5
  -7   4  10 6324.55 1833.30   5
  -7  -4   9 598.125 628.782   2
  -7  -4   9 355.758 466.183   5
  -7   4   9 1891.37 1140.77   5
  -7  -4   8 16184.5 2238.29   2
  -7  -4   8 14672.3 2255.03   5
  -7   4   8 18884.7 2688.45   5
  -7  -4   7 16148.5 2305.60   5
  -7  -4   7 14117.4 2145.97   2
  -7   4   7 11644.3 2027.91   5
  -7  -4   6 46954.5 3653.82   2
  -7   4   6 44126.6 2732.54   2
  -7  -4   6 50389.8 3774.49   5
  -7   4   6 51201.5 4143.67   5
  -7   4   5 31377.5 2761.62   1
  -7  -4   5 39090.3 3180.32   2
  -7   4   5 30067.8 2239.56   2
  -7  -4   5 43526.5 3336.65   5
  -7   4   4 25797.2 2414.09   1
   7   4  -4 28852.5 2090.23   6
  -7  -4   4 33186.0 2876.40   2
  -7   4   3 54210.3 3586.27   1
   7   4  -3 54248.7 3322.70   6
  -7  -4   3 43406.8 3378.80   2
  -7   4   2 10394.4 1549.93   1
   7   4  -2 11591.2 1616.80   6
  -7  -4   2 10062.8 1512.83   2
  -7   4   1 24749.0 2439.41   1
   7   4  -1 25005.2 2649.87   6
  -7  -4   1 25709.8 2556.86   2
   7   4   0 9814.44 1868.21   6
  -7   4   0 10531.6 1611.12   1
  -7  -4   0 10630.0 1631.48   2
   7   4   1 86806.0 6055.11   3
  -7   4  -1 87433.0 5073.38   1
   7   4   1 84595.5 5999.68   6
  -7  -4  -1 87704.2 5069.36   2
   7   4   2 12674.0 2413.93   3
   7   4   2 10262.6 2114.66   6
  -7   4  -2 10482.2 1638.49   1
  -7  -4  -2 13713.9 1868.65   2
   7   4   3 11731.0 2453.76   3
   7  -4   3 11686.0 2366.32   3
  -7   4  -3 12664.6 1864.67   1
  -7  -4  -3 9599.80 1655.88   2
   7   4   4 4994.84 1696.53   3
   7  -4   4 4484.20 1442.12   3
  -7  -4  -4 4036.83 1132.26   2
  -7  -5  11 3512.59 1491.93   5
  -7  -5  10 273.133 617.238   5
  -7   5  10 1812.77 1124.93   5
  -7   5   9 22941.3 3157.80   5
  -7  -5   9 13262.9 2239.29   2
  -7  -5   9 18905.2 2725.32   5
  -7  -5   8 2912.29 1038.81   2
  -7  -5   8 2352.32 1000.16   5
  -7   5   8 2083.80 934.389   5
  -7  -5   7 18853.1 2500.16   2
  -7  -5   7 17194.4 2295.14   5
  -7   5   7 16057.8 2417.26   5
  -7   5   6 30478.8 2850.15   1
  -7  -5   6 26107.2 2887.46   2
  -7   5   6 30791.8 2150.99   2
  -7  -5   6 29524.2 2851.21   5
  -7   5   6 32811.1 3292.03   5
  -7   5   5 45225.0 3344.45   1
  -7  -5   5 41489.1 3477.22   2
  -7  -5   5 39667.8 3188.84   5
  -7   5   4 44627.3 3268.69   1
   7   5  -4 42975.8 2801.34   6
  -7  -5   4 38617.4 3296.87   2
  -7  -5   4 41608.2 3160.58   5
  -7   5   3 4046.89 1037.98   1
   7   5  -3 2423.61 604.096   6
  -7  -5   3 5171.32 1180.80   2
  -7   5   2 18626.9 2163.54   1
   7   5  -2 18850.9 2169.95   6
   7   5  -1 2146.22 876.630   6
  -7   5   1 2322.10 822.192   1
  -7  -5   1 1755.65 736.009   2
  -7   5   0 34723.9 3057.57   1
   7   5   0 39101.1 3644.07   6
  -7  -5   0 31490.7 2947.65   2
   7   5   1 7397.35 1789.43   6
  -7   5  -1 5377.69 1203.95   1
  -7  -5  -1 6391.18 1358.57   2
  -7   5  -2 27093.2 2877.13   1
   7   5   2 27933.8 3560.78   6
  -7  -5  -2 26679.5 2755.13   2
   7   5   3 5379.71 1699.11   6
  -7   5  -3 7590.57 1475.09   1
  -7  -5  -3 7411.03 1438.27   2
  -7  -6  11 1908.84 1146.22   5
  -7  -6  10 8175.04 1993.20   5
  -7   6  10 7922.11 1943.96   5
  -7  -6   9 3620.90 1198.35   2
  -7  -6   9 768.347 622.722   5
  -7   6   9 4161.28 1525.56   5
  -7  -6   8 21856.5 2848.41   2
  -7  -6   8 21392.1 2724.39   5
  -7   6   8 21555.4 2881.79   5
  -7  -6   7 3975.13 1301.48   2
  -7  -6   7 1461.70 763.214   5
  -7   6   7 2366.68 1080.30   5
  -7   6   6 3916.42 1095.11   1
  -7  -6   6 4181.87 1309.59   2
  -7  -6   6 2624.00 935.057   5
  -7   6   6 5378.00 1383.66   5
  -7   6   5 7989.35 1373.29   1
  -7  -6   5 8569.89 1578.64   2
  -7  -6   5 8240.58 1377.66   5
  -7   6   4 31570.6 2826.12   1
   7   6  -4 32840.8 2594.34   6
  -7  -6   4 24486.9 2728.34   2
  -7  -6   4 28979.5 2563.43   5
  -7   6   3 29792.9 2790.89   1
   7   6  -3 31689.3 2719.26   6
  -7  -6   3 33223.7 3123.53   2
  -7   6   2 26826.2 2702.67   1
   7   6  -2 28237.1 2718.27   6
  -7  -6   2 32503.9 3030.81   2
  -7   6   1 33557.5 3042.19   1
   7   6  -1 31628.6 3150.90   6
  -7  -6   1 36510.0 3212.23   2
   7   6   0 1674.33 772.459   6
  -7   6   0 1085.54 422.822   1
  -7   6  -1 26793.5 2893.68   1
   7   6   1 27405.9 3315.91   6
  -7  -6  -1 22954.2 2633.46   2
   7   6   2 5585.29 1800.12   6
  -7   6  -2 4234.99 1229.12   1
  -7  -6  -2 4159.94 1025.06   2
   7   6   3 17448.2 3090.48   6
  -7  -6  -3 19287.8 2438.79   2
  -7   6  -3 18823.3 2559.97   1
  -7  -7  10-984.528 671.932   5
  -7   7  10 967.873 1020.49   5
  -7  -7   9 8299.21 1853.95   2
  -7  -7   9 7489.13 1765.27   5
  -7   7   9 5770.92 1644.62   5
  -7  -7   8 1540.94 840.750   2
  -7  -7   8 1982.86 909.087   5
  -7   7   8 1824.20 1058.35   5
  -7  -7   7 45773.9 4221.35   2
  -7  -7   7 43361.9 3659.82   5
  -7   7   7 51210.5 4401.38   5
  -7   7   6 1955.25 933.981   1
  -7  -7   6 2995.44 1153.70   2
  -7  -7   6 3073.86 911.539   5
  -7   7   6 642.748 540.585   5
  -7  -7   5 28901.1 3121.78   2
  -7  -7   5 27699.9 2517.07   5
  -7   7   4 22054.5 2462.83   1
   7   7  -4 22357.2 2230.19   6
  -7  -7   4 21888.7 2104.46   5
  -7  -7   4 16658.5 2284.14   2
   7   7  -3 14966.0 1937.07   6
  -7   7   3 13539.6 1955.56   1
  -7  -7   3 9699.40 1737.96   2
  -7   7   2 68630.9 4639.02   1
   7   7  -2 66223.9 4547.66   6
  -7  -7   2 66840.6 4674.05   2
  -7   7   1 16850.6 2267.94   1
   7   7  -1 22469.8 2630.05   6
  -7  -7   1 23122.7 2628.89   2
   7   7   0 28615.4 3262.73   6
  -7   7   0 26173.1 2863.72   1
  -7  -7   0 36254.1 3296.80   2
  -7   7  -1-18.8511 803.230   1
  -7  -7  -1 1290.26 750.409   2
  -7   7  -2 23344.2 2860.59   1
   7   7   2 21322.4 3286.91   6
  -7  -7  -2 22473.4 2696.32   2
   7   7   3 10071.8 2372.67   6
  -7   7  -3 10011.3 1846.51   1
  -7   8  10 2248.07 1035.44   5
  -7  -8   9 1380.62 814.589   2
  -7   8   9 3251.53 1357.57   5
  -7  -8   8 16483.0 2677.07   2
  -7   8   8 20274.9 2919.35   5
  -7   8   7 3590.21 1176.16   1
  -7  -8   7 2954.60 1303.81   2
  -7   8   7 3726.82 1223.46   5
  -7   8   6 15342.9 2148.67   1
  -7  -8   6 19574.4 2746.45   2
  -7   8   6 20534.1 2684.40   5
  -7   8   5 11927.4 1847.22   1
  -7  -8   5 11941.7 2163.90   2
  -7   8   4 6007.27 1365.46   1
   7   8  -4 7760.63 1362.52   6
  -7  -8   4 8340.05 1581.41   2
  -7   8   3 17960.7 2292.96   1
   7   8  -3 16596.7 2154.50   6
  -7  -8   3 13706.3 2146.66   2
   7   8  -2 16227.4 2256.84   6
  -7   8   2 13588.6 2044.16   1
  -7  -8   2 8552.69 1718.37   2
  -7   8   1 22982.0 2702.42   1
   7   8  -1 27926.2 3110.28   6
  -7  -8   1 25457.1 2861.30   2
   7   8   0 1109.21 524.831   6
  -7   8   0 2283.42 784.318   1
  -7  -8   0 1706.30 798.584   2
   7   8   1 23648.7 3265.68   6
  -7   8  -1 19929.7 2688.68   1
  -7  -8  -1 17342.4 2363.54   2
   7   8   2 4459.55 1717.34   6
  -7   8  -2 2766.33 910.358   1
  -7  -8  -2 3669.36 1160.77   2
  -7   8  -3 3284.24 1257.46   1
  -7   9   9 9360.33 2137.10   5
  -7  -9   8 307.072 891.387   2
  -7   9   8 1105.78 923.807   5
   7   9  -8-733.463 1002.98   1
   7   9  -7 9549.81 2080.98   1
  -7   9   7 13704.4 2112.43   1
  -7  -9   7 10934.0 2216.22   2
  -7   9   7 12926.3 2195.08   5
  -7   9   6 3135.74 1079.47   1
  -7  -9   6 2756.19 1099.51   2
  -7   9   6 2915.49 973.749   5
  -7   9   5 29802.0 3008.55   1
  -7  -9   5 28517.1 3372.22   2
  -7   9   5 30646.3 3293.90   5
  -7   9   4 26114.1 2858.44   1
   7   9  -4 26722.2 2768.10   6
  -7  -9   4 29489.3 3449.40   2
   7   9  -3 2584.76 956.411   6
  -7   9   3 4000.82 1218.21   1
  -7  -9   3 4062.24 1020.33   2
  -7   9   2 23522.3 2876.26   1
   7   9  -2 24897.2 2920.96   6
  -7  -9   2 19114.7 2592.56   2
   7   9  -1 1107.10 931.683   6
  -7   9   1 1239.34 659.612   1
  -7  -9   1 942.979 542.778   2
  -7   9   0 25643.1 3096.28   1
   7   9   0 23335.0 3093.79   6
  -7  -9   0 14929.9 2218.39   2
   7   9   1 623.359 691.280   6
  -7   9  -1 241.235 751.014   1
  -7  -9  -1 1346.47 603.399   2
   7   9   2 6465.21 1876.08   6
  -7   9  -2 4004.97 1222.95   1
  -7  10   9 2681.90 1166.92   5
   7  10  -8 9936.85 2301.83   1
  -7 -10   8 8490.11 2028.34   2
  -7  10   8 8121.21 1899.68   5
  -7  10   7 1920.31 881.181   1
   7  10  -7 2327.91 1213.00   1
  -7 -10   7 518.984 829.478   2
  -7  10   7 1414.35 826.226   5
  -7  10   6 15254.9 2235.28   1
  -7 -10   6 9687.90 2074.17   2
   7  10  -6 12931.7 2346.21   1
  -7  10   6 17839.4 2589.33   5
  -7  10   5 4838.77 1375.73   1
   7  10  -5 1617.97 818.960   1
  -7 -10   5 3504.94 1349.74   2
  -7  10   5 2297.12 959.922   5
   7  10  -4 4522.47 1241.50   1
   7  10  -4 4598.27 1088.44   6
  -7  10   4 5246.01 1366.28   1
  -7 -10   4 8292.62 1909.27   2
   7  10  -3 15818.7 2358.61   6
  -7  10   3 14410.1 2266.12   1
  -7 -10   3 15767.0 2650.89   2
   7  10  -2 8722.61 1830.53   6
  -7  10   2 8903.54 1793.93   1
  -7 -10   2 10497.1 1979.42   2
  -7  10   1 25026.4 3023.79   1
   7  10  -1 22368.0 3030.14   6
  -7 -10   1 19244.9 2592.30   2
   7  10   0 2118.51 1131.32   6
  -7  10   0 719.667 493.427   1
  -7 -10   0 2277.87 972.297   2
   7  10   1 11555.3 2397.82   6
  -7  10  -1 12213.7 2212.18   1
  -7 -10  -1 12171.1 2072.19   2
  -7  11   7 5385.11 1379.10   1
   7  11  -7 5266.40 1765.85   1
  -7  11   6 4042.44 1158.60   1
   7  11  -6 3611.20 1218.09   1
  -7 -11   6 2165.25 1073.28   2
  -7  11   6 2874.70 1039.41   5
  -7  11   5 5029.25 1199.27   1
   7  11  -5 3758.90 1203.56   1
  -7 -11   5 4090.20 1527.85   2
  -7  11   5 5914.36 1478.60   5
   7  11  -4 8745.31 1714.11   6
  -7  11   4 8900.17 1834.92   1
  -7 -11   4 7893.52 1969.82   2
   7  11  -3 11219.3 2096.77   6
  -7  11   3 10927.5 2062.39   1
  -7 -11   3 12140.7 2277.42   2
   7  11  -2 13921.5 2330.36   6
  -7  11   2 10798.9 1996.51   1
  -7 -11   2 9703.89 2086.27   2
   7  11  -1 3890.96 1281.76   6
  -7  11   1 1622.93 858.621   1
  -7 -11   1 3429.26 1323.12   2
   7  11   0 4798.45 1616.91   6
  -7  11   0 1702.11 568.135   1
  -7 -11   0 4713.78 1402.27   2
  -7  12   7 995.552 685.122   1
   7  12  -6 1802.52 1121.94   1
  -7  12   6 2359.15 973.722   1
  -7  12   5 8803.11 1855.52   1
  -7  12   4 6239.36 1601.31   1
  -7 -12   4 8145.91 1918.33   2
   7  12  -3 16738.4 2590.80   6
  -7  12   3 14698.1 2413.41   1
  -7 -12   3 14386.2 2529.18   2
   7  12  -2 6148.14 1684.16   6
  -7  12   2 3245.46 1196.67   1
  -7 -12   2 4538.38 1487.40   2
   7  12  -1 10801.2 2295.15   6
  -7 -12   1 9130.25 2020.07   2
  -7 -12   0 366.510 707.601   2
   7  13  -6 4937.28 1739.84   1
   7  13  -3 3602.66 1345.18   6
   7  13  -2 5257.72 1706.64   6
  -8   0  10 5058.77 1621.87   5
  -8   0   9 3495.90 1336.96   5
  -8   0   8-315.940 572.115   2
  -8   0   8-273.541 692.097   5
  -8   0   7 25489.4 2449.87   2
  -8   0   7 22552.4 2783.95   5
  -8   0   6 13999.3 1807.28   2
  -8   0   6 14063.0 2152.04   5
  -8   0   5 57486.7 3738.41   2
  -8   0   4 7525.92 1288.33   2
   8   0  -3 18766.5 1891.59   3
  -8   0   3 19699.5 2083.36   2
  -8   0   2 43054.0 3104.57   1
   8   0  -2 41050.6 3246.50   3
  -8   0   2 43288.9 3253.63   2
  -8   0   1 35872.3 2727.58   1
   8   0  -1 31377.6 3087.76   3
  -8   0   0 28971.2 2407.84   1
   8   0   0 27861.4 3140.64   3
   8   0   1 4364.24 1506.79   3
   8   0   2 15097.1 2551.09   3
   8   0   3 756.950 992.165   3
  -8  -1  10 13607.8 2469.73   5
  -8   1  10 13746.9 2573.25   5
  -8  -1   9 1125.55 633.953   2
  -8   1   9 211.259 511.690   5
  -8  -1   8 3737.78 988.983   2
  -8   1   8 2243.25 697.012   2
  -8   1   8 2518.74 1109.43   5
  -8  -1   7 3492.34 1005.74   2
  -8   1   7 4250.66 1022.52   2
  -8  -1   7 4469.30 1287.79   5
  -8   1   7 4140.66 1266.52   5
  -8  -1   6 44705.9 3334.89   2
  -8   1   6 45138.8 3194.05   2
  -8  -1   6 46215.2 3921.48   5
  -8   1   6 46455.0 3982.35   5
  -8  -1   5 4278.14 1027.15   2
  -8   1   5 4485.34 995.376   2
  -8  -1   4 51621.1 3618.60   2
  -8   1   4 58418.3 3637.00   2
  -8   1   3 38606.1 3035.59   1
   8   1  -3 35262.0 2717.40   3
   8  -1  -3 43025.5 2957.64   3
  -8  -1   3 40866.7 3141.01   2
  -8   1   3 38247.8 2962.28   2
   8  -1  -2 16672.7 2012.52   3
   8   1  -2 12444.0 1771.35   3
  -8   1   2 11625.8 1569.11   1
  -8  -1   2 16477.5 1963.13   2
  -8   1   1 25615.7 2293.04   1
   8   1  -1 27131.1 2806.43   3
   8  -1  -1 19184.6 2401.80   3
  -8  -1   1 17822.1 2142.14   2
  -8  -1   0 1650.33 661.919   2
   8   1   0 4575.12 1179.96   3
   8  -1   0 2305.76 985.380   3
  -8   1   0 5261.63 1001.78   1
   8   1   1 22915.2 2973.82   3
   8  -1   1 19965.9 2813.00   3
   8   1   2 358.413 680.057   3
   8  -1   2 917.446 690.370   3
   8   1   3 26359.1 3718.84   3
   8  -1   3 25321.5 3667.36   3
  -8  -2  10 13191.7 2434.24   5
  -8   2  10 9173.04 2125.04   5
  -8  -2   9 20397.5 2479.78   2
  -8  -2   9 19629.2 2827.46   5
  -8   2   9 17203.7 2782.35   5
  -8  -2   8 1458.79 698.483   2
  -8  -2   8 2558.88 1122.14   5
  -8   2   8 4341.13 1361.80   5
  -8  -2   7 24946.7 2595.20   2
  -8   2   7 23186.7 2204.70   2
  -8  -2   7 29489.7 3124.63   5
  -8   2   7 24958.7 3055.07   5
  -8  -2   6 5095.61 1218.79   2
  -8  -2   6 4555.95 1213.52   5
  -8   2   6 4143.11 1151.98   5
  -8   2   6 4660.92 982.727   2
  -8  -2   5 36935.0 3103.20   2
  -8   2   5 40903.9 2892.33   2
  -8   2   4 39034.5 3126.77   1
  -8  -2   4 38306.8 3122.07   2
  -8   2   4 37781.4 2864.91   2
  -8   2   3 28452.8 2571.95   1
   8  -2  -3 28933.0 2373.33   3
  -8  -2   3 27089.9 2587.26   2
   8   2  -2 6633.62 1242.45   3
  -8   2   2 8436.13 1341.61   1
  -8  -2   2 8779.08 1403.43   2
   8   2  -1 4458.90 1117.24   3
   8  -2  -1 6609.30 1296.02   3
  -8   2   1 6475.55 1203.75   1
  -8  -2   1 7892.97 1473.28   2
  -8   2   0 15619.1 1916.99   1
   8   2   0 14865.2 2274.32   3
   8  -2   0 13113.7 2108.29   3
  -8  -2   0 18991.0 2243.84   2
  -8  -2  -1 868.956 688.081   2
   8   2   1 2182.20 1047.65   3
   8  -2   1 1119.81 903.896   3
  -8   2  -1 1342.99 766.200   1
   8   2   2 33502.8 4008.14   3
   8  -2   2 39303.3 4303.43   3
  -8  -2  -2 36455.8 3383.45   2
  -8  -2  -3 4130.60 1222.39   2
   8   2   3 1071.41 1025.22   3
   8  -2   3 2540.74 1141.02   3
  -8  -2  -4 4696.52 1254.54   2
  -8  -3  10 1500.85 1050.20   5
  -8   3  10 1712.11 1096.04   5
  -8  -3   9 297.960 428.519   2
  -8  -3   9-340.589 632.846   5
  -8   3   9 1399.35 1039.65   5
  -8  -3   8 52940.8 4228.43   2
  -8  -3   8 52588.9 4489.76   5
  -8   3   8 48121.1 4437.06   5
  -8  -3   7 10665.4 1689.84   2
  -8  -3   7 9933.72 1827.21   5
  -8   3   7 12308.1 2196.77   5
  -8   3   7 10756.5 1440.86   2
  -8  -3   6 13223.0 1959.68   2
  -8  -3   6 12652.9 1905.34   5
  -8   3   6 11913.6 2047.33   5
  -8   3   6 10438.4 1380.91   2
  -8   3   5 4890.24 1159.98   1
  -8  -3   5 4939.93 1176.91   2
  -8  -3   5 4772.46 1193.19   5
  -8   3   5 5398.03 1018.97   2
  -8   3   4 25453.6 2508.77   1
  -8  -3   4 21738.6 2376.73   2
  -8   3   3 18109.4 2042.51   1
  -8  -3   3 16711.6 2078.20   2
  -8   3   2 24564.6 2396.60   1
  -8  -3   2 23278.0 2455.92   2
   8   3  -1 31626.4 3232.84   3
  -8   3   1 34278.7 2898.21   1
   8  -3  -1 39520.3 3457.93   3
  -8  -3   1 31639.7 2929.02   2
   8  -3   0 23431.5 2849.20   3
  -8   3   0 20354.8 2254.82   1
   8   3   0 16407.0 2494.50   3
  -8  -3   0 20283.8 2353.10   2
   8   3   1 14077.6 2426.83   3
   8  -3   1 15527.3 2512.05   3
  -8   3  -1 14177.0 1926.71   1
  -8  -3  -1 16156.7 2103.16   2
   8   3   2 1038.99 811.999   3
   8  -3   2 2940.02 1140.92   3
  -8  -3  -2 3743.05 1040.50   2
   8   3   3 5946.08 1910.16   3
   8  -3   3 9099.66 2344.14   3
  -8  -3  -3 5522.07 1379.02   2
  -8  -3  -4 1672.04 919.763   2
  -8  -4  10 569.289 598.444   2
  -8  -4  10 1356.67 948.224   5
  -8   4  10 2922.56 1436.76   5
  -8  -4   9 7630.42 1687.60   2
  -8  -4   9 6848.84 1717.40   5
  -8   4   9 4654.77 1494.16   5
  -8  -4   8 3241.26 1197.47   2
  -8  -4   8 1728.72 1028.92   5
  -8   4   8 2942.47 1179.15   5
  -8  -4   7 45125.3 3911.97   2
  -8  -4   7 49562.1 4109.69   5
  -8   4   7 55005.0 4701.13   5
  -8  -4   6 2920.02 950.414   2
  -8  -4   6 5045.32 1278.76   5
  -8   4   6 2575.76 891.517   5
  -8   4   6 3125.43 737.184   2
  -8   4   5 23887.6 2520.64   1
  -8  -4   5 30037.6 2891.19   2
  -8   4   5 18966.8 1938.26   2
  -8  -4   5 26531.3 2739.76   5
  -8   4   4 5700.66 1221.04   1
  -8  -4   4 8091.74 1580.54   2
  -8   4   3 8969.79 1526.22   1
   8   4  -3 8583.08 1399.46   6
  -8  -4   3 11766.7 1817.48   2
  -8   4   2 41945.0 3349.81   1
   8   4  -2 42482.2 3454.58   6
  -8  -4   2 42285.4 3492.80   2
  -8   4   1 20056.4 2303.90   1
   8   4  -1 16363.1 2279.92   6
  -8  -4   1 19515.0 2374.58   2
  -8   4   0 25027.0 2616.96   1
   8   4   0 21397.6 2972.98   6
  -8  -4   0 27406.5 2801.95   2
   8  -4   1 7527.85 1857.94   3
  -8   4  -1 7574.08 1445.48   1
  -8  -4  -1 3169.84 938.752   2
   8   4   2 15070.5 2779.80   3
   8  -4   2 14161.9 2595.44   3
  -8   4  -2 14953.7 2108.58   1
  -8  -4  -2 10556.1 1812.07   2
   8   4   3 5235.23 1948.52   3
   8  -4   3 8410.57 2285.09   3
  -8  -4  -3 6096.14 1363.20   2
  -8  -5  10 1840.95 986.886   2
  -8  -5  10 1510.19 897.455   5
  -8   5  10 2056.41 1489.69   5
  -8  -5   9 1397.60 894.665   2
  -8  -5   9 1555.64 824.382   5
  -8   5   9 3325.05 1477.37   5
  -8  -5   8 19008.3 2623.52   2
  -8  -5   8 15235.7 2376.36   5
  -8   5   8 18570.5 2796.83   5
  -8  -5   7 1698.72 1036.84   2
  -8  -5   7 2350.14 1067.08   5
  -8   5   7 798.162 566.383   5
  -8   5   6 43095.0 3644.77   1
  -8  -5   6 37590.8 3510.92   2
  -8   5   6 38038.0 2693.04   2
  -8  -5   6 38741.1 3409.26   5
  -8   5   6 44728.9 4127.88   5
  -8   5   5 15277.8 2054.58   1
  -8  -5   5 17611.1 2203.07   5
  -8  -5   5 15666.2 2225.81   2
  -8   5   4 10512.7 1691.19   1
  -8  -5   4 19886.0 2442.66   2
  -8   5   3 15834.5 1994.87   1
   8   5  -3 13955.2 1882.49   6
  -8  -5   3 10422.4 1777.98   2
  -8   5   2 33722.5 3101.02   1
   8   5  -2 33731.5 3165.88   6
  -8  -5   2 43497.4 3570.29   2
  -8   5   1 22398.5 2557.31   1
   8   5  -1 20428.0 2658.03   6
  -8  -5   1 20472.6 2453.89   2
   8   5   0 7101.96 1684.26   6
  -8   5   0 8530.10 1596.34   1
  -8  -5   0 7245.11 1454.99   2
   8   5   1 9296.18 2155.24   6
  -8   5  -1 10602.6 1784.81   1
  -8  -5  -1 13628.8 2046.03   2
  -8   5  -2 3957.79 1084.13   1
  -8  -5  -2 3308.48 1079.32   2
  -8  -5  -3 13383.2 2053.93   2
  -8  -6  10 3043.01 1239.12   2
  -8  -6  10 578.935 665.252   5
  -8   6  10 2022.40 1303.02   5
  -8  -6   9 2154.85 992.970   2
  -8  -6   9 2618.66 1105.28   5
  -8   6   9 4709.69 1584.08   5
  -8  -6   8 488.943 764.593   2
  -8  -6   8 758.965 668.594   5
  -8   6   8 16.4702 613.169   5
  -8  -6   7 21874.9 2935.72   2
  -8  -6   7 24174.1 2784.65   5
  -8   6   7 23846.3 3134.63   5
  -8   6   6 1106.73 504.616   2
  -8   6   6 821.780 655.573   1
  -8  -6   6 6.45071 797.272   2
  -8  -6   6 751.701 595.405   5
  -8   6   6 1183.12 955.349   5
  -8   6   5 5765.47 1340.87   1
  -8  -6   5 6176.95 1349.81   2
  -8  -6   5 8121.42 1562.24   5
  -8   6   4 2210.26 754.680   1
  -8  -6   4 3105.55 1095.42   2
  -8  -6   4 3400.02 975.910   5
  -8   6   3 41366.5 3504.69   1
   8   6  -3 37969.0 3164.87   6
  -8  -6   3 43089.0 3715.10   2
  -8   6   2 20705.2 2468.17   1
   8   6  -2 18528.6 2340.35   6
  -8  -6   2 19432.0 2525.51   2
  -8   6   1 18767.3 2443.29   1
   8   6  -1 22646.8 2836.23   6
  -8  -6   1 23141.3 2723.67   2
  -8   6   0 21124.0 2592.62   1
   8   6   0 18817.2 2733.08   6
  -8  -6   0 19013.6 2429.45   2
   8   6   1 2041.45 1114.55   6
  -8   6  -1 2060.20 901.509   1
  -8  -6  -1 1082.98 767.343   2
   8   6   2 8191.56 2218.79   6
  -8   6  -2 10054.7 1875.62   1
  -8  -6  -2 13697.0 2168.35   2
  -8  -7  10 2160.25 888.538   2
  -8  -7   9 5951.59 1621.68   2
  -8   7   9 5906.62 1765.21   5
  -8  -7   8 6222.97 1623.75   2
  -8   7   8 8591.79 1915.71   5
  -8  -7   7 6722.04 1755.63   2
  -8   7   7 4233.85 1410.71   5
  -8   7   6 20598.6 2503.98   1
  -8  -7   6 24709.8 3111.70   2
  -8   7   6 18696.1 2744.03   5
  -8   7   5 7128.11 1455.73   1
  -8  -7   5 6664.13 1491.90   2
  -8   7   4 20135.1 2458.74   1
  -8  -7   4 19972.4 2673.19   2
  -8   7   3 8995.70 1656.92   1
   8   7  -3 8714.16 1537.94   6
  -8  -7   3 7922.77 1750.24   2
  -8   7   2 26996.9 2915.97   1
   8   7  -2 26629.5 2866.95   6
  -8  -7   2 22647.4 2777.45   2
   8   7  -1 12858.0 2156.87   6
  -8   7   1 10192.3 1873.43   1
  -8  -7   1 13564.8 2058.49   2
   8   7   0 3271.04 1304.00   6
  -8   7   0 1229.84 649.751   1
  -8  -7   0 3197.75 1123.49   2
  -8   7  -1 41267.5 3917.58   1
   8   7   1 39354.1 4350.06   6
  -8  -7  -1 40323.9 3819.16   2
   8   7   2 257.648 918.397   6
  -8   7  -2 797.665 683.023   1
  -8  -7  -2 2884.64 1145.51   2
  -8  -8   9 9064.78 2058.23   2
  -8   8   9 11957.1 2386.46   5
  -8  -8   8 152.575 583.504   2
  -8   8   8 1679.25 1111.99   5
  -8   8   7 7281.11 1501.73   1
  -8  -8   7 8648.04 1879.13   2
  -8   8   7 8538.47 1905.70   5
  -8   8   6 7724.69 1564.89   1
  -8  -8   6 9994.42 2103.56   2
  -8   8   6 8880.54 1909.24   5
  -8   8   5 18242.3 2385.71   1
  -8  -8   5 17087.5 2638.81   2
  -8   8   4 3411.79 1131.87   1
  -8  -8   4 2107.88 933.000   2
  -8   8   3 8182.91 1664.66   1
   8   8  -3 8698.02 1631.32   6
  -8  -8   3 9021.50 1763.96   2
   8   8  -2 14042.1 2163.05   6
  -8   8   2 10998.9 1960.31   1
  -8  -8   2 12092.1 2094.70   2
   8   8  -1 4972.45 1504.57   6
  -8   8   1 3074.53 1140.90   1
  -8  -8   1 3849.83 1301.04   2
   8   8   0 13285.5 2418.57   6
  -8   8   0 9270.94 1910.09   1
  -8  -8   0 11318.4 1994.28   2
   8   8   1 5.31410 702.131   6
  -8   8  -1 922.524 603.299   1
  -8  -9   8 11114.8 2348.75   2
  -8   9   8 11208.6 2242.81   5
  -8   9   7-356.616 609.914   1
  -8  -9   7-203.202 534.128   2
  -8   9   7-354.980 561.188   5
  -8   9   6 24110.5 2859.87   1
  -8  -9   6 24772.3 3326.96   2
  -8   9   6 25503.6 3237.23   5
  -8   9   5 2866.51 1188.88   1
  -8  -9   5 3334.47 1392.76   2
  -8   9   4 9285.11 1846.23   1
  -8  -9   4 6271.35 1535.17   2
   8   9  -3 6390.43 1476.08   6
  -8   9   3 3967.78 1152.38   1
  -8  -9   3 4139.94 1243.90   2
   8   9  -2 4873.16 1319.98   6
  -8   9   2 6180.06 1551.21   1
  -8  -9   2 7453.92 1676.12   2
   8   9  -1 17338.3 2626.34   6
  -8   9   1 19097.6 2679.86   1
  -8  -9   1 15028.5 2320.98   2
   8   9   0 3729.72 1171.80   6
  -8   9   0 3316.95 1206.39   1
  -8  -9   0 5164.79 1417.69   2
   8   9   1 3975.60 1586.75   6
  -8  -9  -1 5703.30 1554.34   2
  -8  10   8 416.817 852.407   5
  -8  10   7 5445.83 1596.73   1
   8  10  -7 3965.87 1459.32   1
  -8  10   7 5178.58 1460.05   5
  -8  10   6 2201.23 987.249   1
   8  10  -6 1308.35 683.726   1
  -8 -10   6 1639.02 1088.00   2
  -8  10   6 692.496 661.059   5
  -8  10   5 21639.9 2776.80   1
   8  10  -5 15336.3 2477.96   1
  -8 -10   5 22861.4 3255.81   2
  -8  10   4 7346.16 1688.89   1
  -8 -10   4 9961.62 2214.15   2
  -8  10   3 13037.1 2267.42   1
  -8 -10   3 14590.0 2547.56   2
   8  10  -2 5672.42 1539.62   6
  -8  10   2 5761.14 1507.58   1
  -8 -10   2 2451.89 995.517   2
   8  10  -1 6752.01 1692.01   6
  -8  10   1 6613.50 1672.83   1
  -8 -10   1 3831.93 1266.50   2
   8  10   0 1684.70 1093.25   6
  -8 -10   0 4648.33 1372.79   2
   8  11  -7 690.808 696.242   1
  -8  11   7 203.928 660.331   5
   8  11  -6 5008.97 1593.03   1
  -8  11   6 12433.2 2361.16   5
  -8  11   5-554.319 800.357   1
  -8  11   5-1660.03 1165.34   5
  -8  11   4 12319.4 2288.61   1
  -8 -11   4 19020.3 3029.75   2
  -8 -11   3 14283.2 2678.84   2
   8  11  -2 4603.92 1494.68   6
  -8 -11   2 7996.58 2038.17   2
   8  11  -1 6262.98 1698.38   6
  -8 -11   1 6840.37 1732.31   2
   8  12  -2 8562.48 1935.45   6
  -9   0  10 1761.67 1182.09   5
  -9   0   9 20845.9 2996.89   5
  -9   0   8 1928.15 673.709   2
  -9   0   8 3586.24 1309.29   5
  -9   0   7 10298.5 1624.07   2
  -9   0   7 10095.5 1984.44   5
  -9   0   6 3263.30 904.605   2
  -9   0   6 3087.45 974.138   5
  -9   0   5 1691.55 675.144   2
  -9   0   4 39461.2 3200.35   2
  -9   0   3 17.9890 462.652   2
   9   0  -2 33482.8 3152.64   3
  -9   0   2 31916.4 2993.83   2
  -9   0   1 6945.69 1446.94   2
  -9   0   1 6094.96 1168.76   1
   9   0  -1 4836.48 1301.72   3
   9   0   0 18247.4 2823.94   3
   9   0   1 4737.12 1443.05   3
   9   0   2-17.0068 931.842   3
  -9  -1  10 5470.17 1752.41   5
  -9   1  10 3578.77 1494.81   5
  -9  -1   9 3391.69 1130.69   2
  -9  -1   9 3259.10 1484.15   5
  -9   1   9 1640.96 1077.76   5
  -9  -1   8 15488.2 2074.00   2
  -9   1   8 14181.9 1891.78   2
  -9  -1   8 17363.6 2625.02   5
  -9   1   8 19300.3 2795.02   5
  -9  -1   7 12725.9 1873.03   2
  -9   1   7 12166.2 1766.90   2
  -9  -1   7 14749.0 2391.30   5
  -9   1   7 13306.9 2284.29   5
  -9  -1   6 4199.18 1125.88   2
  -9  -1   6 3482.56 1134.21   5
  -9   1   6 5169.38 1457.00   5
  -9   1   6 4449.33 1046.39   2
  -9  -1   5 37238.6 3178.70   2
  -9   1   5 29576.8 2720.41   2
  -9  -1   4 5459.78 1262.13   2
  -9   1   4 7462.93 1349.17   2
  -9  -1   3 21294.3 2377.13   2
  -9   1   3 21110.4 2351.66   2
  -9   1   2 8214.01 1515.99   2
  -9   1   2 11047.8 1627.44   1
   9   1  -2 8556.19 1592.18   3
   9  -1  -2 7674.52 1521.46   3
  -9  -1   2 7964.16 1481.48   2
  -9   1   1 21071.7 2253.44   1
   9   1  -1 21085.3 2699.73   3
   9  -1  -1 17605.8 2472.40   3
  -9  -1   1 18505.1 2350.51   2
   9   1   0 8349.38 1843.63   3
   9  -1   0 12266.5 2210.87   3
  -9  -1  -1 5464.06 1388.83   2
   9   1   1 6927.85 1832.04   3
   9  -1   1 7570.43 1956.98   3
  -9  -1  -2 7409.51 1628.08   2
   9   1   2 8688.60 2313.36   3
   9  -1   2 6377.50 1896.18   3
  -9  -2  10 8041.43 1942.34   5
  -9   2  10 6702.51 2170.87   5
  -9  -2   9 6515.98 1652.71   2
  -9  -2   9 5249.36 1649.45   5
  -9   2   9 6255.23 1685.68   5
  -9  -2   8 11282.4 1844.71   2
  -9  -2   8 13107.6 2208.82   5
  -9   2   8 11786.0 2229.23   5
  -9  -2   7 4461.12 1179.81   2
  -9  -2   7 2860.24 1030.54   5
  -9   2   7 4322.55 1049.07   2
  -9   2   7 3771.05 1280.05   5
  -9  -2   6 39815.1 3395.07   2
  -9   2   6 36094.0 2968.71   2
  -9  -2   6 36065.0 3619.22   5
  -9  -2   5 2043.17 913.676   2
  -9   2   5 205.984 399.976   2
  -9   2   4 21624.5 2404.67   1
  -9   2   4 17642.6 2030.39   2
  -9   2   3 8314.00 1458.78   2
  -9   2   3 6145.58 1255.53   1
  -9  -2   3 5928.38 1338.98   2
   9   2  -2 21737.0 2546.49   3
  -9   2   2 19152.4 2200.36   1
   9  -2  -2 21785.4 2533.96   3
  -9  -2   2 16198.8 2190.70   2
   9   2  -1 6445.04 1516.34   3
  -9   2   1 8690.33 1479.30   1
   9  -2  -1 10788.1 2047.59   3
  -9  -2   1 9800.44 1645.88   2
   9   2   0 13283.5 2355.25   3
   9  -2   0 14208.9 2474.86   3
  -9   2   0 12601.2 1797.87   1
  -9  -2   0 14803.1 2186.73   2
   9   2   1 10495.7 2175.35   3
   9  -2   1 14188.9 2640.71   3
  -9  -2  -1 11708.1 1980.26   2
  -9  -2  -2 5307.18 1480.91   2
   9   2   2 2080.53 885.991   3
   9  -2   2 4700.44 1602.71   3
  -9  -3  10 13615.1 2651.68   5
  -9   3  10 14808.4 2854.12   5
  -9  -3   9-676.876 653.409   2
  -9  -3   9 1816.98 966.399   5
  -9   3   9 1113.81 956.192   5
  -9  -3   8 1171.35 442.541   2
  -9  -3   8 2605.46 1056.58   5
  -9   3   8 898.175 684.337   5
  -9  -3   7 22456.0 2662.84   2
  -9   3   7 18856.5 2031.91   2
  -9  -3   7 23055.7 2844.47   5
  -9   3   7 21383.7 2961.53   5
  -9  -3   6 4280.91 1251.89   2
  -9  -3   6 5363.16 1333.44   5
  -9   3   6 4308.12 978.626   2
  -9  -3   5 28804.5 2946.81   2
  -9   3   5 26669.5 2489.02   2
  -9   3   4 15672.5 2065.81   1
  -9   3   4 13687.1 1845.26   2
  -9  -3   4 16964.2 2222.93   2
  -9   3   3 7471.34 1422.66   1
  -9  -3   3 10951.2 1790.07   2
  -9   3   2 1725.10 720.749   1
  -9  -3   2 1536.56 619.849   2
  -9   3   1 17114.6 2135.72   1
   9  -3  -1 16365.0 2472.52   3
  -9  -3   1 20578.4 2494.60   2
  -9   3   0 16407.9 2134.29   1
   9   3   0 15506.6 2574.54   3
   9  -3   0 13334.4 2391.68   3
  -9  -3   0 13436.4 2072.84   2
   9   3   1 12581.1 2510.86   3
   9  -3   1 11237.1 2325.79   3
  -9  -3  -1 10056.7 1792.81   2
   9   3   2 10203.7 2354.22   3
   9  -3   2 14661.2 2869.42   3
  -9  -3  -2 8670.71 1779.01   2
  -9  -4  10 278.558 662.155   2
  -9  -4  10 509.339 734.441   5
  -9  -4   9 10974.8 2013.61   2
  -9  -4   9 9998.52 2079.90   5
  -9   4   9 8131.72 1995.75   5
  -9  -4   8 4091.39 1330.89   2
  -9  -4   8 6862.44 1674.17   5
  -9   4   8 9461.91 2055.54   5
  -9  -4   7 373.558 516.503   2
  -9  -4   7-761.804 696.554   5
  -9   4   7 71.3215 421.578   2
  -9  -4   6 20558.3 2581.44   2
  -9   4   6 16383.1 1879.07   2
  -9  -4   6 21536.7 2682.73   5
  -9   4   5 11970.9 1667.46   2
  -9   4   5 12572.4 1942.44   1
  -9  -4   5 13441.3 2150.14   2
  -9  -4   5 11146.7 1859.45   5
  -9   4   4 17465.3 2224.48   1
  -9  -4   4 21019.2 2540.21   2
  -9   4   3 20676.0 2406.50   1
  -9  -4   3 21931.9 2611.64   2
  -9   4   2 19271.0 2309.93   1
  -9  -4   2 22535.6 2682.36   2
   9  -4  -1 3692.65 1101.80   3
  -9   4   1 2859.11 887.618   1
  -9  -4   1 3718.91 1163.93   2
   9  -4   0 10358.1 2154.60   3
  -9   4   0 13260.9 1991.44   1
  -9  -4   0 11207.3 1927.94   2
   9  -4   1 3076.46 1441.58   3
  -9  -4  -1 3859.77 1234.49   2
  -9  -4  -2 2765.78 1080.12   2
  -9  -5  10 12854.5 2329.56   2
  -9  -5  10 11215.7 2330.91   5
  -9  -5   9 5956.94 1593.15   2
  -9  -5   9 3621.04 1238.13   5
  -9   5   9 4353.49 1469.87   5
  -9  -5   8 3399.24 1368.53   2
  -9  -5   8 3269.80 1146.63   5
  -9   5   8 3879.22 1330.60   5
  -9  -5   7 9675.32 1802.74   2
  -9  -5   7 11586.2 2008.74   5
  -9   5   7 10095.3 2004.43   5
  -9   5   6 1438.16 998.564   1
  -9  -5   6 1091.51 512.299   2
  -9  -5   6 1099.19 666.483   5
  -9   5   6 1025.93 552.982   2
  -9   5   5 20750.2 2521.63   1
  -9   5   5 19040.0 2084.60   2
  -9  -5   5 18535.1 2401.65   5
  -9  -5   5 19891.0 2558.20   2
  -9   5   4 2275.30 919.345   1
  -9  -5   4 2980.70 1130.00   2
  -9   5   3 31113.8 3092.62   1
  -9  -5   3 33414.6 3325.70   2
  -9   5   2 7533.04 1513.68   1
   9   5  -2 6420.41 1448.97   6
  -9  -5   2 4746.08 1318.50   2
  -9   5   1 15319.1 2260.63   1
   9   5  -1 16338.1 2555.17   6
  -9  -5   1 20168.1 2630.63   2
  -9   5   0 6193.92 1458.77   1
  -9  -5   0 6919.12 1528.75   2
   9  -5   1 3687.45 1316.64   3
  -9   5  -1 7708.00 1719.56   1
  -9  -5  -1 5323.46 1446.19   2
  -9  -6  10-38.9297 733.385   2
  -9  -6  10 2195.96 883.067   5
  -9  -6   9 2400.41 1160.42   2
  -9  -6   9 2297.01 1099.04   5
  -9   6   9 3997.86 1477.01   5
  -9  -6   8 1459.24 1006.21   2
  -9  -6   8 2996.58 1141.35   5
  -9   6   8 2270.77 946.432   5
  -9  -6   7 7545.10 1872.19   2
  -9  -6   7 8341.27 1737.90   5
  -9   6   7 5583.92 1583.12   5
  -9   6   6 25995.6 2951.52   1
  -9   6   6 22480.1 2196.00   2
  -9  -6   6 24747.8 2742.42   5
  -9  -6   6 20094.0 2740.74   2
  -9   6   5 2496.14 962.951   1
  -9  -6   5 2686.21 991.306   2
  -9   6   4 21605.6 2606.03   1
  -9  -6   4 26655.1 3138.35   2
  -9   6   3 1671.88 889.827   1
  -9  -6   3 1837.71 877.814   2
  -9   6   2 13860.5 2133.64   1
   9   6  -2 13740.8 2197.35   6
  -9  -6   2 17203.5 2477.99   2
  -9   6   1 10197.1 1937.42   1
   9   6  -1 9983.04 2054.51   6
  -9  -6   1 9968.22 2010.03   2
  -9   6   0 3596.05 1269.10   1
   9   6   0 2057.07 1048.35   6
  -9  -6   0 4538.74 1422.68   2
  -9   6  -1 8919.86 1813.68   1
  -9  -6  -1 9591.33 1977.99   2
  -9  -7   9 12965.8 2573.99   2
  -9  -7   8 2669.59 1139.53   2
  -9   7   8 2971.89 1355.22   5
  -9  -7   7 7007.03 1933.86   2
  -9   7   7 7517.06 1887.74   5
  -9   7   6 11096.7 1968.79   1
  -9  -7   6 9895.86 1871.06   2
  -9   7   5 10509.0 1887.35   1
  -9  -7   5 5016.15 1474.31   2
  -9   7   4 7903.51 1668.57   1
  -9  -7   4 8080.16 1816.87   2
  -9   7   3 15569.3 2303.86   1
  -9  -7   3 15496.9 2449.69   2
  -9   7   2 7572.66 1734.72   1
   9   7  -2 6564.83 1581.27   6
  -9  -7   2 8285.27 1790.92   2
  -9   7   1 10986.0 2005.79   1
   9   7  -1 9324.88 1979.64   6
  -9  -7   1 8026.23 1758.35   2
   9   7   0 9903.66 2164.07   6
  -9   7   0 10699.7 2063.58   1
  -9  -7   0 8431.96 1766.14   2
  -9   7  -1 4035.74 1380.91   1
  -9   8   8 10010.5 2148.77   5
  -9   8   7 6317.10 1607.30   1
  -9  -8   7 5565.21 1722.15   2
  -9   8   7 3642.86 1365.26   5
  -9   8   6 2868.07 1107.21   1
  -9  -8   6 3554.25 1450.75   2
  -9   8   6 6056.46 1652.92   5
  -9   8   5 2058.76 1017.97   1
  -9  -8   5 437.584 655.088   2
  -9   8   4 12151.3 2040.62   1
  -9  -8   4 16663.3 2569.18   2
  -9   8   3 6814.88 1684.40   1
  -9  -8   3 4283.88 1274.23   2
  -9   8   2 13575.3 2262.46   1
  -9  -8   2 14084.1 2284.73   2
   9   8  -1 5269.32 1451.20   6
  -9   8   1 3369.46 1255.38   1
  -9  -8   1 2295.03 987.498   2
   9   8   0 11623.5 2449.07   6
  -9  -8   0 14779.6 2393.01   2
  -9   9   7 4594.23 1516.28   5
  -9   9   6 1249.80 885.738   1
  -9  -9   6 2139.10 1205.28   2
  -9   9   6-214.055 680.835   5
  -9   9   5 9758.71 1965.22   1
  -9  -9   5 15020.9 2683.49   2
  -9   9   4 2303.27 1115.52   1
  -9  -9   4-480.455 868.522   2
  -9   9   3 11524.5 2272.43   1
  -9  -9   3 6081.22 1628.07   2
  -9  -9   2 960.878 532.109   2
   9   9  -1 15990.6 2659.93   6
   9  10  -7 423.999 507.458   1
  -9  10   6 18548.9 2920.47   5
   9  10  -1 3296.43 1251.97   6
 -10   0   9 3082.08 1323.37   5
 -10   0   8 11806.6 1929.33   2
 -10   0   8 9154.47 1976.37   5
 -10   0   7 2851.99 1055.85   2
 -10   0   7 1790.82 1012.32   5
 -10   0   6 3710.63 1014.85   2
 -10   0   5 27247.4 2860.66   2
 -10   0   4 570.520 467.081   2
 -10   0   3 5867.08 1328.03   2
 -10   0   2 2807.25 1022.01   2
 -10   0   1 14418.2 2209.49   2
 -10   0   0 937.187 743.332   2
  10   0   0-918.127 907.904   3
  10   0   1 4802.41 1496.07   3
 -10  -1   9 8859.72 1654.27   2
 -10  -1   9 9245.91 1991.21   5
 -10   1   9 9570.06 2151.53   5
 -10  -1   8 4038.85 1173.60   2
 -10   1   8 2933.63 1005.17   2
 -10   1   8 2637.46 1184.02   5
 -10  -1   7 7274.90 1498.98   2
 -10   1   7 7067.63 1620.98   2
 -10  -1   7 5836.23 1549.24   5
 -10   1   7 7706.65 1798.96   5
 -10  -1   6 13997.7 2095.79   2
 -10  -1   6 14920.8 2406.92   5
 -10   1   6 12911.5 1874.03   2
 -10  -1   5 13211.3 2042.32   2
 -10   1   5 11103.4 1756.50   2
 -10  -1   4 10314.4 1734.06   2
 -10   1   4 8404.70 1556.91   2
 -10   1   3 6334.72 1516.82   2
 -10  -1   3 4663.73 1259.42   2
 -10   1   2 10333.7 1770.07   2
 -10  -1   2 8919.96 1703.09   2
 -10   1   1 3063.65 1082.95   2
 -10  -1   1 1951.78 671.183   2
  10   1   0 18827.9 2969.66   3
  10  -1   0 15186.8 2686.18   3
 -10  -1   0 14538.8 2318.63   2
  10   1   1 1949.97 943.396   3
  10  -1   1 4215.86 1248.25   3
 -10  -2   9 3012.13 1007.32   2
 -10  -2   9 5358.60 1616.08   5
 -10   2   9 3885.40 1410.60   5
 -10  -2   8 5077.97 1308.42   2
 -10  -2   8 5903.09 1692.19   5
 -10   2   8 7853.69 1932.95   5
 -10  -2   7 8255.66 1695.41   2
 -10  -2   7 5799.63 1577.39   5
 -10   2   7 7568.50 1680.81   5
 -10   2   7 5965.73 1259.49   2
 -10  -2   6 18626.7 2462.89   2
 -10   2   6 20374.9 2339.33   2
 -10  -2   6 20504.4 2780.22   5
 -10  -2   5 6798.31 1536.74   2
 -10   2   5 7087.06 1445.26   2
 -10  -2   4 7954.14 1662.49   2
 -10   2   4 4814.26 1222.35   2
 -10   2   3 13716.3 2065.83   2
 -10   2   3 13941.5 2064.28   1
 -10  -2   3 14882.1 2202.21   2
 -10   2   2 880.756 523.120   1
 -10  -2   2 914.546 527.402   2
 -10   2   1 8536.79 1585.68   1
 -10  -2   1 10333.7 1913.05   2
  10   2   0 5973.00 1756.90   3
  10  -2   0 2332.74 1410.93   3
  10   2   1 11136.2 2584.78   3
  10  -2   1 14080.7 2807.81   3
 -10  -3   9 7883.87 1825.47   2
 -10  -3   9 5293.69 1595.88   5
 -10   3   9 4161.49 1562.95   5
 -10  -3   8 5621.74 1481.66   2
 -10  -3   8 4284.07 1373.33   5
 -10  -3   7 13995.2 2137.50   2
 -10  -3   7 12735.1 2211.32   5
 -10   3   7 18623.4 2852.96   5
 -10   3   7 13030.4 1858.69   2
 -10  -3   6 1390.18 926.655   2
 -10  -3   6 2912.91 1185.10   5
 -10   3   6 1478.00 806.115   2
 -10  -3   5 4297.61 1291.35   2
 -10   3   5 2279.61 739.916   2
 -10   3   4 13417.1 1960.18   2
 -10   3   4 13136.0 2084.95   1
 -10  -3   4 16338.3 2329.89   2
 -10   3   3 7315.27 1563.99   1
 -10  -3   3 6043.45 1425.13   2
 -10   3   2 17391.4 2309.34   1
 -10  -3   2 20814.3 2725.93   2
 -10   3   1 380.056 597.549   1
 -10  -3   1 694.169 730.714   2
  10  -3   0 11103.1 2359.06   3
 -10  -4  10 15881.0 2552.76   2
 -10  -4   9 5196.74 1494.71   2
 -10  -4   9 5386.40 1759.03   5
 -10  -4   8 4653.55 1319.38   2
 -10  -4   8 5375.73 1538.86   5
 -10   4   8 6494.28 1883.62   5
 -10  -4   7 2190.48 1033.08   2
 -10  -4   7 1812.85 900.930   5
 -10   4   7 990.782 978.883   5
 -10  -4   6 726.881 684.145   2
 -10  -4   6 1429.65 1008.63   5
 -10   4   6 727.446 544.477   2
 -10   4   5 9249.74 1612.76   2
 -10   4   5 13857.8 2166.21   1
 -10  -4   5 15320.5 2369.01   2
 -10  -4   5 12755.6 2139.30   5
 -10   4   4 9827.91 1676.54   2
 -10   4   4 13157.8 2094.09   1
 -10  -4   4 8715.83 1910.63   2
 -10   4   3 14957.9 2238.66   1
 -10  -4   3 14752.6 2270.88   2
 -10   4   2 2956.39 1067.75   1
 -10  -4   2 1514.76 606.378   2
 -10   4   1 16282.6 2325.53   1
 -10  -4   1 15780.1 2385.85   2
  10  -4   0 837.808 927.526   3
 -10  -5   9 17510.7 2793.74   2
 -10  -5   9 16904.5 2712.53   5
 -10  -5   8 4438.07 1573.91   2
 -10  -5   8 4204.66 1439.43   5
 -10   5   8 6788.96 1766.92   5
 -10  -5   7 4218.54 1333.41   2
 -10  -5   7 2232.07 1053.45   5
 -10   5   7 1993.07 1215.15   5
 -10  -5   6 10119.3 1973.34   2
 -10  -5   6 12348.7 2064.25   5
 -10   5   6 9190.47 1532.85   2
 -10   5   5 3705.97 1057.11   2
 -10   5   5 3551.58 1153.27   1
 -10  -5   5 4367.89 1377.03   2
 -10  -5   5 4196.27 1221.12   5
 -10   5   4 15573.1 2310.46   1
 -10  -5   4 18302.4 2583.46   2
 -10   5   3 620.627 552.117   1
 -10  -5   3 1039.51 990.499   2
 -10   5   2 21550.0 2716.00   1
 -10  -5   2 18150.5 2665.82   2
 -10   5   1 1717.90 773.468   1
 -10  -5   1 975.262 669.137   2
  10  -5   0 8905.65 2149.38   3
 -10   5   0 14688.1 2307.80   1
 -10  -6   8 7282.95 1962.15   2
 -10  -6   7 9796.43 2016.67   2
 -10   6   7 8437.46 1977.17   5
 -10   6   6 3526.74 1142.88   1
 -10  -6   6 5061.80 1373.84   2
 -10   6   5 8111.49 1480.50   2
 -10   6   5 6916.76 1617.67   1
 -10  -6   5 5588.22 1597.17   2
 -10   6   4 7910.71 1715.00   1
 -10  -6   4 6915.63 1744.44   2
 -10   6   3 6511.23 1564.58   1
 -10  -6   3 8575.24 1855.65   2
 -10   6   2-586.711 811.857   1
 -10  -6   2 2108.59 1150.26   2
 -10   6   1 6480.64 1662.52   1
  10  -6   0 2392.01 1128.88   3
 -10   7   6 3260.15 1345.18   1
 -10  -7   6 1064.76 739.844   2
 -10   7   5 10180.4 1945.43   1
 -10  -7   5 12727.2 2297.45   2
 -10   7   4 10631.4 1969.72   1
 -10  -7   4 10311.0 2145.04   2
 -10   7   3 1503.19 833.996   1
 -11   0   8 1539.02 843.506   2
 -11   0   8 2582.24 1188.78   5
 -11   0   7 5662.36 1451.57   2
 -11   0   7 3708.11 1391.99   5
 -11   0   6 6785.02 1504.15   2
 -11   0   5 227.278 478.799   2
 -11   0   4-815.753 780.190   2
 -11   0   3 4174.61 1232.47   2
 -11  -1   8 7313.88 1614.23   2
 -11   1   8 6792.09 1480.61   2
 -11  -1   8 8704.21 2040.71   5
 -11  -1   7 1350.70 833.448   2
 -11   1   7 530.166 813.265   2
 -11  -1   7 1133.90 869.092   5
 -11   1   7 1680.75 974.081   5
 -11  -1   6 5942.69 1556.83   2
 -11   1   6 3504.11 1079.14   2
 -11  -1   5 187.351 464.072   2
 -11   1   5 1257.91 907.873   2
 -11  -1   4 10177.9 1946.79   2
 -11   1   4 7528.64 1574.00   2
 -11  -1   3 7536.62 1601.25   2
 -11   1   3 7052.18 1601.57   2
 -11  -2   9 4589.41 1302.74   2
 -11  -2   8 423.135 480.719   2
 -11  -2   8 1517.95 895.106   5
 -11  -2   7 13707.6 2247.01   2
 -11  -2   7 12145.7 2258.12   5
 -11   2   7 11064.9 1876.63   2
 -11   2   7 8369.62 1998.87   5
 -11  -2   6 2471.27 1145.41   2
 -11  -2   6 1376.59 923.584   5
 -11   2   6 812.050 659.228   2
 -11  -2   5 8099.89 1783.46   2
 -11   2   5 10386.4 1859.63   2
 -11  -2   4 9230.24 1860.27   2
 -11   2   4 10506.2 1886.10   2
 -11   2   3 10728.3 1986.42   2
 -11  -3   9-463.067 872.937   2
 -11  -3   8 5921.13 1508.00   2
 -11  -3   8 3449.52 1273.06   5
 -11  -3   7 956.400 536.072   2
 -11  -3   7 1714.73 830.808   5
 -11   3   7 2088.23 860.230   2
 -11  -3   6 4907.55 1468.26   2
 -11  -3   6 5462.33 1571.34   5
 -11   3   6 7185.83 1479.58   2
 -11  -3   5 6842.61 1577.25   2
 -11   3   5 5952.95 1339.13   2
 -11   3   4 7599.33 1637.82   2
 -11  -3   4 9961.54 1999.74   2
 -11   3   3 2295.60 1024.59   1
 -11   3   2 5143.73 1425.65   1
 -11  -4   8 2291.54 1228.06   5
 -11  -4   7 3792.34 1281.46   2
 -11  -4   7 3450.07 1160.50   5
 -11  -4   6 2524.51 1129.81   2
 -11  -4   6 1705.81 966.293   5
 -11   4   6 2023.68 926.874   2
 -11   4   5 10331.1 1822.03   2
 -11   4   4 1902.13 928.938   2
 -11   4   4 1606.46 777.998   1
 -11   4   3 4300.58 1333.10   1
 -11   4   2 10287.8 1953.99   1
 -11   5   6 9077.45 1654.63   2
 -11   5   5 1713.83 848.226   2
 -11   5   4 8725.29 1786.81   2
 -11   6   5 4429.94 1254.48   2
 -11   7   5 2964.24 1017.53   2
   0   0   0    0.00    0.00   0

TITL gon34 in P2(1)/m
REM P2(1)/m (#11 in standard setting)
CELL 0.71073   8.723629  11.904253   8.725586  90.0000 118.5391  90.0000
ZERR    7.00   0.000453   0.000368   0.000421   0.0000   0.0066   0.0000
LATT  1
SYMM -x, y+1/2,-z
SFAC C H N O
UNIT 77.00 70.00 7.00 7.00
TREF
HKLF 4
END
;
_shelx_hkl_checksum              50272
loop_
_space_group_symop_operation_xyz
'x, y, z'
'-x, y+1/2, -z'
loop_
_atom_site_label
_atom_site_type_symbol
_atom_site_fract_x
_atom_site_fract_y
_atom_site_fract_z
_atom_site_U_iso_or_equiv
_atom_site_adp_type
_atom_site_occupancy
_atom_site_site_symmetry_order
_atom_site_calc_flag
Br Br 0.67912(5) 0.66209(4) 0.77876(5) 0.03202(13) Uani 1 1 d
O1 O 0.9255(4) 0.9756(3) 0.6439(4) 0.0303(7) Uani 1 1 d
O2 O 0.4033(4) 0.8858(4) 0.5930(5) 0.0402(9) Uani 1 1 d
O3 O 0.6506(4) 0.9714(3) 0.7924(3) 0.0254(6) Uani 1 1 d
N N 0.6367(6) 0.9889(4) 0.4492(5) 0.0329(9) Uani 1 1 d
C1 C 0.8568(5) 0.8676(4) 0.6617(5) 0.0227(8) Uani 1 1 d
C2 C 0.9404(5) 0.8350(3) 0.8526(5) 0.0205(8) Uani 1 1 d
C3 C 0.8796(5) 0.7505(4) 0.9207(5) 0.0233(8) Uani 1 1 d
C4 C 0.9630(6) 0.7259(4) 1.0966(6) 0.0288(9) Uani 1 1 d
C5 C 1.1102(6) 0.7851(4) 1.2106(6) 0.0310(10) Uani 1 1 d
C6 C 1.1743(6) 0.8688(4) 1.1462(6) 0.0318(10) Uani 1 1 d
C7 C 1.0906(5) 0.8929(4) 0.9710(6) 0.0259(9) Uani 1 1 d
C8 C 0.9206(6) 0.7865(5) 0.5651(6) 0.0323(10) Uani 1 1 d
C9 C 0.7869(7) 1.0304(4) 0.5128(6) 0.0340(11) Uani 1 1 d
C10 C 0.6554(5) 0.8856(4) 0.5522(5) 0.0234(8) Uani 1 1 d
C11 C 0.5532(5) 0.9115(4) 0.6506(5) 0.0247(8) Uani 1 1 d
C12 C 0.5806(6) 1.0120(4) 0.9084(6) 0.0291(9) Uani 1 1 d
C13 C 0.4313(10) 1.0913(6) 0.8082(9) 0.0526(16) Uani 1 1 d
C14 C 0.5280(9) 0.9124(6) 0.9809(8) 0.0405(12) Uani 1 1 d
C15 C 0.7372(9) 1.0718(6) 1.0513(8) 0.0448(14) Uani 1 1 d
F1 F 0.8811(4) 0.6810(3) 0.5733(4) 0.0424(8) Uani 1 1 d
F2 F 1.0941(4) 0.7916(3) 0.6330(4) 0.0454(8) Uani 1 1 d
F3 F 0.8532(4) 0.8134(3) 0.3966(4) 0.0476(8) Uani 1 1 d
H10 H 0.596(5) 0.824(4) 0.477(5) 0.011(10) Uiso 1 1 d
H4 H 0.910(6) 0.674(6) 1.134(6) 0.044(14) Uiso 1 1 d
H14C H 0.438(8) 0.878(6) 0.899(8) 0.043(17) Uiso 1 1 d
H14A H 0.492(8) 0.946(5) 1.074(9) 0.045(18) Uiso 1 1 d
H5 H 1.166(7) 0.767(5) 1.328(7) 0.040(15) Uiso 1 1 d
H6 H 1.267(8) 0.900(6) 1.219(7) 0.047(17) Uiso 1 1 d
H13C H 0.482(8) 1.153(9) 0.759(8) 0.08(2) Uiso 1 1 d
H7 H 1.140(8) 0.941(6) 0.925(8) 0.06(2) Uiso 1 1 d
H13B H 0.404(8) 1.129(6) 0.902(8) 0.07(2) Uiso 1 1 d
H14B H 0.611(9) 0.863(6) 1.039(9) 0.06(2) Uiso 1 1 d
H13A H 0.329(9) 1.058(7) 0.721(8) 0.06(2) Uiso 1 1 d
H9 H 0.810(9) 1.103(6) 0.478(9) 0.06(2) Uiso 1 1 d
H15A H 0.818(10) 1.023(6) 1.110(9) 0.05(2) Uiso 1 1 d
H15B H 0.763(8) 1.129(6) 0.993(8) 0.06(2) Uiso 1 1 d
H15C H 0.697(10) 1.103(6) 1.146(9) 0.08(2) Uiso 1 1 d
loop_
_atom_site_aniso_label
_atom_site_aniso_U_11
_atom_site_aniso_U_22
_atom_site_aniso_U_33
_atom_site_aniso_U_23
_atom_site_aniso_U_13
_atom_site_aniso_U_12
Br 0.0292(2) 0.0270(2) 0.0339(2) -0.0001(2) 0.01027(16) -0.0085(2)
O1 0.0324(16) 0.0340(18) 0.0241(15) 0.0022(13) 0.0133(13) -0.0097(14)
O2 0.0210(16) 0.063(3) 0.0341(18) -0.0113(18) 0.0110(14) -0.0034(17)
O3 0.0237(14) 0.0329(17) 0.0204(14) -0.0019(12) 0.0111(12) 0.0018(13)
N 0.041(2) 0.035(2) 0.0232(18) 0.0065(17) 0.0160(18) 0.0063(19)
C1 0.0255(19) 0.022(2) 0.0204(18) -0.0034(15) 0.0109(16) -0.0021(16)
C2 0.0205(18) 0.0201(19) 0.0208(18) -0.0021(15) 0.0098(15) 0.0006(15)
C3 0.0206(19) 0.022(2) 0.026(2) -0.0021(16) 0.0104(17) -0.0025(16)
C4 0.030(2) 0.027(2) 0.029(2) 0.0026(18) 0.0144(19) -0.0005(18)
C5 0.034(2) 0.033(3) 0.0207(19) 0.0008(18) 0.0088(19) 0.0001(19)
C6 0.028(2) 0.031(3) 0.025(2) -0.0004(19) 0.0042(19) -0.0022(19)
C7 0.023(2) 0.026(2) 0.026(2) -0.0001(17) 0.0088(17) -0.0044(17)
C8 0.029(2) 0.044(3) 0.026(2) -0.0050(19) 0.0155(19) 0.003(2)
C9 0.049(3) 0.030(2) 0.023(2) 0.0057(19) 0.018(2) 0.002(2)
C10 0.0210(19) 0.029(2) 0.0170(17) -0.0020(16) 0.0067(16) 0.0012(17)
C11 0.0226(19) 0.029(2) 0.0214(19) 0.0033(17) 0.0095(17) 0.0051(16)
C12 0.026(2) 0.038(3) 0.025(2) -0.0029(18) 0.0139(18) 0.0017(18)
C13 0.059(4) 0.054(4) 0.046(3) 0.007(3) 0.026(3) 0.029(3)
C14 0.045(4) 0.046(3) 0.038(3) -0.002(3) 0.025(3) -0.005(3)
C15 0.054(4) 0.054(4) 0.035(3) -0.016(3) 0.029(3) -0.016(3)
F1 0.0518(16) 0.032(2) 0.0494(15) -0.0151(14) 0.0292(14) 0.0006(14)
F2 0.0283(14) 0.067(2) 0.0478(17) -0.0087(15) 0.0234(13) 0.0062(14)
F3 0.0534(19) 0.069(2) 0.0285(14) -0.0031(14) 0.0260(14) 0.0127(17)
loop_
_atom_type_symbol
_atom_type_description
_atom_type_scat_dispersion_real
_atom_type_scat_dispersion_imag
_atom_type_scat_source
C C 0.0033 0.0016 'International Tables Vol C Tables 4.2.6.8 and 6.1.1.4'
H H 0.0000 0.0000 'International Tables Vol C Tables 4.2.6.8 and 6.1.1.4'
N N 0.0061 0.0033 'International Tables Vol C Tables 4.2.6.8 and 6.1.1.4'
O O 0.0106 0.0060 'International Tables Vol C Tables 4.2.6.8 and 6.1.1.4'
F F 0.0171 0.0103 'International Tables Vol C Tables 4.2.6.8 and 6.1.1.4'
Br Br -0.2901 2.4595 'International Tables Vol C Tables 4.2.6.8 and 6.1.1.4'
loop_
_geom_angle_atom_site_label_1
_geom_angle_atom_site_label_2
_geom_angle_atom_site_label_3
_geom_angle
C9 O1 C1 105.3(3)
C11 O3 C12 121.3(3)
C9 N C10 105.6(4)
O1 C1 C2 109.7(3)
O1 C1 C8 102.6(3)
C2 C1 C8 109.2(3)
O1 C1 C10 102.4(3)
C2 C1 C10 121.2(3)
C8 C1 C10 110.1(3)
C3 C2 C7 116.9(4)
C3 C2 C1 124.8(4)
C7 C2 C1 118.3(4)
C4 C3 C2 121.4(4)
C4 C3 Br 116.0(3)
C2 C3 Br 122.6(3)
C3 C4 C5 120.5(4)
C4 C5 C6 119.3(4)
C7 C6 C5 119.9(4)
C6 C7 C2 122.0(4)
F1 C8 F3 107.4(4)
F1 C8 F2 106.9(4)
F3 C8 F2 106.6(4)
F1 C8 C1 113.2(4)
F3 C8 C1 111.5(4)
F2 C8 C1 110.8(4)
N C9 O1 120.1(4)
N C10 C11 104.3(3)
N C10 C1 104.4(4)
C11 C10 C1 118.0(3)
O2 C11 O3 128.0(4)
O2 C11 C10 121.6(4)
O3 C11 C10 110.2(3)
O3 C12 C13 109.3(4)
O3 C12 C14 109.5(4)
C13 C12 C14 112.5(5)
O3 C12 C15 102.1(4)
C13 C12 C15 111.9(5)
C14 C12 C15 111.0(5)
loop_
_geom_bond_atom_site_label_1
_geom_bond_atom_site_label_2
_geom_bond_distance
Br C3 1.905(4)
O1 C9 1.369(6)
O1 C1 1.458(5)
O2 C11 1.195(5)
O3 C11 1.325(5)
O3 C12 1.490(5)
N C9 1.254(7)
N C10 1.486(6)
C1 C2 1.515(5)
C1 C8 1.549(6)
C1 C10 1.562(6)
C2 C3 1.396(6)
C2 C7 1.402(6)
C3 C4 1.380(6)
C4 C5 1.384(7)
C5 C6 1.386(7)
C6 C7 1.373(6)
C8 F1 1.313(6)
C8 F3 1.335(5)
C8 F2 1.338(5)
C10 C11 1.536(6)
C12 C13 1.505(7)
C12 C14 1.514(7)
C12 C15 1.517(7)
