#------------------------------------------------------------------------------
#$Date: 2019-11-11 19:59:16 +0200 (Mon, 11 Nov 2019) $
#$Revision: 227181 $
#$URL: file:///home/coder/svn-repositories/cod/cif/4/03/57/4035733.cif $
#------------------------------------------------------------------------------
#
# This file is available in the Crystallography Open Database (COD),
# http://www.crystallography.net/
#
# All data on this site have been placed in the public domain by the
# contributors.
#
data_4035733
loop_
_publ_author_name
'Bhilare, Shatrughn'
'Murthy Bandaru, Siva Sankar'
'Shah, Jagrut'
'Chrysochos, Nicolas'
'Schulzke, Carola'
'Sanghvi, Yogesh S.'
'Kapdi, Anant R.'
_publ_section_title
;
 Pd/PTABS: Low Temperature Etherification of Chloroheteroarenes.
;
_journal_issue                   21
_journal_name_full               'The Journal of organic chemistry'
_journal_page_first              13088
_journal_page_last               13102
_journal_paper_doi               10.1021/acs.joc.8b01840
_journal_volume                  83
_journal_year                    2018
_chemical_formula_moiety         'C14 H5 F5 N2 O'
_chemical_formula_sum            'C14 H5 F5 N2 O'
_chemical_formula_weight         312.20
_space_group_crystal_system      triclinic
_space_group_IT_number           2
_space_group_name_Hall           '-P 1'
_space_group_name_H-M_alt        'P -1'
_atom_sites_solution_hydrogens   geom
_audit_creation_method           SHELXL-2016/6
_cell_angle_alpha                76.752(8)
_cell_angle_beta                 85.465(7)
_cell_angle_gamma                84.582(7)
_cell_formula_units_Z            2
_cell_length_a                   6.5650(6)
_cell_length_b                   7.4590(7)
_cell_length_c                   12.7782(13)
_cell_measurement_reflns_used    6671
_cell_measurement_temperature    170(2)
_cell_measurement_theta_max      58.8
_cell_measurement_theta_min      6.6
_cell_volume                     605.29(10)
_computing_cell_refinement       'X-Area by STOE & Cie GmbH 2010'
_computing_data_collection       'X-Area by STOE & Cie GmbH 2010'
_computing_data_reduction        'X-Area by STOE & Cie GmbH 2010'
_computing_molecular_graphics    'XP Version 5.1 by Bruker AXS 1998'
_computing_publication_material  'CIFTAB (Sheldrick, 2016)'
_computing_structure_refinement  'SHELXL-2016 (Sheldrick, 2016)'
_computing_structure_solution    'SHELXT-2016 (Sheldrick, 2016)'
_diffrn_ambient_temperature      170(2)
_diffrn_detector_area_resol_mean 6.67
_diffrn_measured_fraction_theta_full 0.991
_diffrn_measured_fraction_theta_max 0.986
_diffrn_measurement_device_type  'STOE IPDS2T'
_diffrn_measurement_method       \w
_diffrn_radiation_type           MoK\a
_diffrn_radiation_wavelength     0.71073
_diffrn_reflns_av_R_equivalents  0.0418
_diffrn_reflns_av_unetI/netI     0.0434
_diffrn_reflns_Laue_measured_fraction_full 0.991
_diffrn_reflns_Laue_measured_fraction_max 0.986
_diffrn_reflns_limit_h_max       9
_diffrn_reflns_limit_h_min       -9
_diffrn_reflns_limit_k_max       10
_diffrn_reflns_limit_k_min       -10
_diffrn_reflns_limit_l_max       17
_diffrn_reflns_limit_l_min       -15
_diffrn_reflns_number            6664
_diffrn_reflns_point_group_measured_fraction_full 0.991
_diffrn_reflns_point_group_measured_fraction_max 0.986
_diffrn_reflns_theta_full        25.242
_diffrn_reflns_theta_max         29.416
_diffrn_reflns_theta_min         3.282
_diffrn_source                   'fine-focus sealed tube'
_exptl_absorpt_coefficient_mu    0.163
_exptl_absorpt_correction_T_max  0.9209
_exptl_absorpt_correction_T_min  0.7760
_exptl_absorpt_correction_type   numerical
_exptl_absorpt_process_details   'face indexed'
_exptl_crystal_colour            colourless
_exptl_crystal_density_diffrn    1.713
_exptl_crystal_description       block
_exptl_crystal_F_000             312
_exptl_crystal_size_max          0.461
_exptl_crystal_size_mid          0.283
_exptl_crystal_size_min          0.253
_refine_diff_density_max         0.266
_refine_diff_density_min         -0.249
_refine_diff_density_rms         0.062
_refine_ls_extinction_method     none
_refine_ls_goodness_of_fit_ref   1.105
_refine_ls_hydrogen_treatment    constr
_refine_ls_matrix_type           full
_refine_ls_number_parameters     199
_refine_ls_number_reflns         3296
_refine_ls_number_restraints     0
_refine_ls_restrained_S_all      1.105
_refine_ls_R_factor_all          0.0958
_refine_ls_R_factor_gt           0.0611
_refine_ls_shift/su_max          0.000
_refine_ls_shift/su_mean         0.000
_refine_ls_structure_factor_coef Fsqd
_refine_ls_weighting_details
'w=1/[\s^2^(Fo^2^)+(0.0429P)^2^+0.6488P] where P=(Fo^2^+2Fc^2^)/3'
_refine_ls_weighting_scheme      calc
_refine_ls_wR_factor_gt          0.1411
_refine_ls_wR_factor_ref         0.1564
_reflns_Friedel_coverage         0.000
_reflns_number_gt                2126
_reflns_number_total             3296
_reflns_threshold_expression     'I > 2\s(I)'
_cod_data_source_file            jo8b01840_si_005.cif
_cod_data_source_block           3r
_cod_database_code               4035733
_shelx_shelxl_version_number     2016/6
_shelx_space_group_comment
;
The symmetry employed for this shelxl refinement is uniquely defined
by the following loop, which should always be used as a source of
symmetry information in preference to the above space-group names.
They are only intended as comments.
;
_shelx_estimated_absorpt_t_min   0.929
_shelx_estimated_absorpt_t_max   0.960
_exptl_absorpt_special_details
;
programs X-Red32 and X-Shape by STOE & Cie GmbH 2010
;
_shelx_res_file
;
TITL SIV-01-246 in P-1
    shelx.res
    created by SHELXL-2016/6 at 17:50:35 on 24-Feb-2018
CELL  0.71073   6.5650   7.4590  12.7782   76.752   85.465   84.582
ZERR     2.00   0.0006   0.0007   0.0013    0.008    0.007    0.007
LATT   1
SFAC  C    H    N    O    F
UNIT  28 10 4 2 10
MERG   2
OMIT    -3   5   3
OMIT    -2   2   4
OMIT     0   4   5
OMIT     3  -1   7
EQIV $1 x-1, y, z
HTAB C5 N2_$1
PLAN -5
FMAP   2
SIZE     0.253   0.283   0.461
ACTA
BOND   $H
LIST   4
L.S.  24
TEMP  -103.00
WGHT    0.042900    0.648800
FVAR       1.39870
F1    5    0.672198   -0.031119    0.813030    11.00000    0.04987    0.03103 =
         0.05162   -0.01486    0.01256   -0.00124
F2    5    0.294787   -0.073227    0.909349    11.00000    0.05542    0.03864 =
         0.05313   -0.01249    0.01236   -0.02289
F3    5    0.080774    0.211797    0.977168    11.00000    0.03695    0.06121 =
         0.04372   -0.01243    0.01289   -0.00690
F4    5    0.240360    0.545030    0.939961    11.00000    0.06172    0.03863 =
         0.05254   -0.01608    0.00814    0.00987
F5    5    0.615588    0.589025    0.840660    11.00000    0.06419    0.02839 =
         0.04831   -0.00717    0.00507   -0.01515
O1    4    0.845572    0.305223    0.778630    11.00000    0.03264    0.04519 =
         0.03374   -0.00954    0.00343   -0.01118
N1    3    0.737894    0.262844    0.618868    11.00000    0.02443    0.03506 =
         0.03237   -0.00470    0.00497   -0.00293
N2    3    1.149149    0.279954    0.538414    11.00000    0.02209    0.03923 =
         0.04290   -0.00495    0.00371   -0.00345
C1    1    0.883544    0.286954    0.673401    11.00000    0.02950    0.02981 =
         0.03359   -0.00493    0.00447   -0.00495
C2    1    0.793459    0.243767    0.515977    11.00000    0.02367    0.02978 =
         0.03290   -0.00262    0.00498   -0.00096
C3    1    1.000229    0.249988    0.476453    11.00000    0.02386    0.02974 =
         0.03652   -0.00195    0.00517   -0.00124
C4    1    1.092060    0.299646    0.634755    11.00000    0.02540    0.03913 =
         0.04352   -0.00630    0.00084   -0.00595
AFIX  43
H4    2    1.190127    0.322726    0.679925    11.00000   -1.20000
AFIX   0
C5    1    0.645352    0.216022    0.449649    11.00000    0.02302    0.05408 =
         0.03998   -0.00925    0.00153   -0.00028
AFIX  43
H5    2    0.505709    0.211717    0.475358    11.00000   -1.20000
AFIX   0
C6    1    0.702115    0.195240    0.348222    11.00000    0.03230    0.05819 =
         0.03960   -0.01360   -0.00058    0.00161
AFIX  43
H6    2    0.600916    0.177022    0.303297    11.00000   -1.20000
AFIX   0
C7    1    0.907893    0.200233    0.308650    11.00000    0.03860    0.05228 =
         0.03332   -0.00771    0.00545    0.00307
AFIX  43
H7    2    0.944551    0.185041    0.237599    11.00000   -1.20000
AFIX   0
C8    1    1.054533    0.226699    0.371619    11.00000    0.02937    0.04225 =
         0.03952   -0.00519    0.01101   -0.00012
AFIX  43
H8    2    1.193612    0.229449    0.344780    11.00000   -1.20000
AFIX   0
C9    1    0.649688    0.281209    0.822749    11.00000    0.03383    0.03363 =
         0.02730   -0.00555    0.00342   -0.00648
C10   1    0.565146    0.113258    0.842066    11.00000    0.04039    0.02712 =
         0.03174   -0.00792    0.00459   -0.00279
C11   1    0.373728    0.090409    0.891977    11.00000    0.03956    0.02994 =
         0.03421   -0.00614    0.00339   -0.01119
C12   1    0.263656    0.235324    0.925983    11.00000    0.03367    0.03985 =
         0.02974   -0.00682    0.00529   -0.00440
C13   1    0.345935    0.403609    0.907875    11.00000    0.04572    0.03159 =
         0.03318   -0.01042    0.00383    0.00208
C14   1    0.537501    0.425077    0.856303    11.00000    0.04452    0.02785 =
         0.03132   -0.00492    0.00010   -0.00915
HKLF    4




REM  SIV-01-246 in P-1
REM R1 =  0.0611 for    2126 Fo > 4sig(Fo)  and  0.0958 for all    3296 data
REM    199 parameters refined using      0 restraints

END

WGHT      0.0437      0.6360

REM Highest difference peak  0.266,  deepest hole -0.249,  1-sigma level  0.062
Q1    1   0.1288  0.4315  0.8184  11.00000  0.05    0.27
Q2    1   0.9943  0.2823  0.6568  11.00000  0.05    0.26
Q3    1   0.8685  0.7022  0.8251  11.00000  0.05    0.26
Q4    1   0.4621  0.3985  0.9006  11.00000  0.05    0.25
Q5    1   0.3844  0.1861  0.8227  11.00000  0.05    0.25
;
_shelx_res_checksum              48245
_shelx_hkl_file
;
  -2   0   0 2190.35   15.44   0
  -2   0   0 2170.61   12.48   0
   2   0   0 2186.83   12.24   0
   2   0   0 2232.34   15.73   0
  -3   0   0 1217.58    8.24   0
   3   0   0 1247.75    8.44   0
   3   0   0 1250.89   10.48   0
  -3   0   0 1201.01   10.17   0
   4   0   0  456.25    6.88   0
   4   0   0  483.11    5.79   0
  -4   0   0  447.28    6.14   0
  -5   0   0  229.55    5.00   0
   5   0   0  235.97    6.02   0
   5   0   0  238.42    5.04   0
   6   0   0    6.31    3.43   0
  -6   0   0   -0.02    3.92   0
   6   0   0    8.68    4.39   0
  -7   0   0    6.78    3.99   0
   7   0   0    1.12    4.41   0
   7   0   0   -3.15    3.68   0
  -8   0   0    7.85    5.59   0
   8   0   0   19.62    5.57   0
   8   0   0    0.91    4.43   0
  -9   0   0   -1.15    5.96   0
   9   0   0    4.23    5.79   0
   8  -1   0   17.16    5.91   0
   8  -1   0    0.17    4.46   0
  -7   1   0    8.99    4.73   0
   7  -1   0    3.80    5.11   0
   7  -1   0   -1.01    3.55   0
  -6   1   0   71.33    4.79   0
   6  -1   0   76.87    4.64   0
   6  -1   0   63.28    4.09   0
   5  -1   0   39.58    3.97   0
  -5   1   0   40.31    4.14   0
  -5   1   0   35.74    4.42   0
   5  -1   0   39.54    4.99   0
  -4   1   0  100.61    4.76   0
   4  -1   0  109.45    5.53   0
   4  -1   0   98.09    4.33   0
  -4   1   0   94.57    4.25   0
   3  -1   0 3280.53   19.36   0
  -3   1   0 3609.04   12.97   0
  -3   1   0 2995.39   18.15   0
   3  -1   0 3628.37   12.94   0
  -2   1   0  270.35    5.19   0
   2  -1   0  269.94    9.07   0
   2  -1   0  273.93    5.69   0
  -2   1   0  263.74    8.18   0
   1  -1   0 1982.67   41.92   0
   1  -1   0 2120.09   42.76   0
  -1   1   0 2103.93   14.84   0
   1   1   0 1170.58   11.67   0
  -1  -1   0 1171.61   12.37   0
  -2  -1   0  611.16    7.77   0
   2   1   0  635.39    7.92   0
  -3  -1   0    0.89    3.60   0
   3   1   0    3.71    3.99   0
   3   1   0    4.78    3.97   0
  -4  -1   0  174.06    4.40   0
   4   1   0  177.67    4.72   0
   4   1   0  178.87    4.79   0
   5   1   0  278.67    5.28   0
  -5  -1   0  265.70    4.89   0
   5   1   0  278.43    5.19   0
   6   1   0   70.57    4.00   0
  -6  -1   0   56.94    3.97   0
   6   1   0   62.18    4.89   0
   7   1   0   14.90    4.39   0
  -7  -1   0   10.87    4.59   0
   7   1   0    8.51    3.79   0
   8   1   0   53.22    4.18   0
   8   1   0   50.34    5.71   0
  -8  -1   0   38.58    4.88   0
   9   1   0    2.09    5.69   0
  -9  -1   0   -1.66    5.27   0
   9   1   0    0.13    5.42   0
   8  -2   0   12.77    7.05   0
   7  -2   0    1.23    5.76   0
  -7   2   0   -4.53    3.45   0
   7  -2   0   -1.37    3.85   0
   6  -2   0   31.53    6.07   0
  -6   2   0   25.21    3.81   0
   6  -2   0   39.85    3.69   0
   5  -2   0   95.11    6.47   0
   5  -2   0   98.03    4.34   0
  -5   2   0   98.12    4.50   0
  -4   2   0   16.55    3.99   0
   4  -2   0   21.24    6.22   0
   4  -2   0   22.79    3.81   0
   3  -2   0   38.78    7.23   0
  -3   2   0   46.54    3.33   0
  -2   2   0  281.08    5.61   0
   0   2   0 9999.99   33.43   0
   1   2   0 5802.64   20.93   0
  -1  -2   0 5529.84   20.35   0
   2   2   0 1491.46    9.46   0
  -2  -2   0 1474.51    9.69   0
   3   2   0  520.15    6.33   0
  -3  -2   0  529.52    6.14   0
  -4  -2   0  232.23    4.77   0
   4   2   0  256.15    5.08   0
   5   2   0   25.88    4.53   0
   5   2   0   25.47    4.04   0
  -5  -2   0   21.75    3.50   0
   6   2   0   40.09    3.87   0
   6   2   0   16.28    4.24   0
  -6  -2   0   18.75    4.30   0
  -7  -2   0    7.47    4.26   0
   7   2   0    2.88    3.58   0
   7   2   0    0.04    4.15   0
   8   2   0   14.69    3.33   0
  -8  -2   0    9.42    4.74   0
   8   2   0   10.47    4.78   0
  -8   3   0    3.30    4.94   0
  -7   3   0   15.84    3.90   0
  -6   3   0  331.10    5.21   0
  -5   3   0  665.23    6.35   0
  -4   3   0  143.38    4.81   0
  -3   3   0   -0.19    4.00   0
   1  -3   0  414.68    8.57   0
  -1   3   0  525.13    9.80   0
   0  -3   0    9.29    3.57   0
   0   3   0    8.69    3.94   0
   1   3   0  291.56    5.68   0
  -1  -3   0  294.68    5.40   0
   2   3   0  656.98    6.73   0
  -2  -3   0  665.75    6.68   0
   3   3   0  144.22    4.43   0
  -3  -3   0  143.14    4.38   0
  -4  -3   0  208.88    4.42   0
   4   3   0  205.81    4.72   0
  -5  -3   0  662.34    6.15   0
   5   3   0  654.87    6.40   0
   6   3   0    4.14    4.10   0
  -6  -3   0    3.34    3.54   0
   6   3   0    5.17    3.58   0
  -7  -3   0   69.81    4.20   0
   7   3   0   74.89    4.03   0
   7   3   0   67.23    4.26   0
  -8  -3   0   71.53    4.88   0
   8   3   0   55.43    5.33   0
   8   3   0   61.75    4.75   0
  -7   4   0    7.41    4.47   0
  -6   4   0  -11.48    3.71   0
  -5   4   0   13.43    3.82   0
  -4   4   0   37.08    4.06   0
  -3   4   0    8.46    4.26   0
   2  -4   0  345.75    9.79   0
  -2   4   0  365.96   11.21   0
  -1   4   0 1208.55   11.58   0
   0   4   0 2156.75   12.06   0
   0  -4   0 2110.87   11.84   0
  -1  -4   0 1784.06    9.98   0
   1   4   0 1776.38   10.11   0
   2   4   0  286.50    5.19   0
  -2  -4   0  278.62    4.89   0
   3   4   0   46.70    4.00   0
  -3  -4   0   51.47    3.71   0
  -4  -4   0  172.98    4.49   0
   4   4   0  182.50    4.91   0
  -5  -4   0   86.13    3.89   0
   5   4   0   70.88    3.90   0
  -6  -4   0   -0.36    3.74   0
   6   4   0   -2.83    3.95   0
   6   4   0    7.74    3.67   0
   7   4   0   -0.51    4.72   0
   7   4   0   21.07    4.02   0
  -7  -4   0    0.94    4.40   0
  -8  -4   0   88.52    4.90   0
   8   4   0   69.36    5.39   0
   8   4   0   81.22    5.74   0
  -7   5   0   16.39    4.74   0
  -6   5   0    2.02    4.12   0
  -5   5   0   53.39    4.27   0
  -4   5   0   65.49    4.25   0
  -3   5   0  973.51    7.21   0
   2  -5   0   27.40    5.50   0
  -2   5   0   27.01    7.84   0
  -1   5   0  252.83    6.93   0
   0  -5   0   16.70    3.65   0
   0   5   0   16.12    5.06   0
   1   5   0    8.98    3.99   0
  -1  -5   0    4.61    3.85   0
   2   5   0   77.75    4.04   0
  -2  -5   0   65.87    3.63   0
  -3  -5   0   -0.53    3.57   0
   3   5   0   -6.93    4.30   0
  -4  -5   0    4.57    3.45   0
   4   5   0   -7.30    3.70   0
  -5  -5   0   34.02    3.51   0
   5   5   0   38.64    3.85   0
   6   5   0   13.70    4.02   0
  -6  -5   0   17.88    4.04   0
   7   5   0   82.66    4.55   0
  -7  -5   0   96.04    5.19   0
   7   5   0  106.82    5.40   0
   8   5   0   47.70    5.54   0
   8   5   0   45.01    5.28   0
  -8  -5   0   59.31    5.66   0
  -6   6   0    3.85    4.99   0
  -5   6   0    5.52    4.29   0
  -4   6   0   15.17    3.86   0
  -3   6   0   56.75    4.21   0
   2  -6   0   27.60    5.37   0
  -2   6   0   56.98    7.18   0
  -1   6   0  566.52    8.61   0
   0  -6   0 1332.64    9.30   0
   0   6   0 1295.60    9.21   0
  -1  -6   0   32.69    3.54   0
   1   6   0   40.34    4.28   0
   2   6   0   49.55    4.22   0
  -2  -6   0   48.16    4.17   0
   3   6   0  188.80    4.56   0
  -3  -6   0  190.37    4.16   0
   4   6   0    9.62    3.79   0
  -4  -6   0    7.03    3.62   0
  -5  -6   0   62.94    3.91   0
   5   6   0   57.33    4.11   0
   6   6   0    0.20    3.80   0
  -6  -6   0    0.79    4.02   0
  -7  -6   0   -2.50    5.08   0
   7   6   0    1.34    4.77   0
  -5   7   0   -1.01    5.09   0
  -4   7   0   24.10    4.19   0
  -3   7   0   46.80    4.27   0
   2  -7   0    2.52    5.07   0
  -2   7   0    2.58    6.35   0
  -1   7   0   56.78    5.87   0
   0   7   0   52.33    5.22   0
   0  -7   0   54.18    3.93   0
   1   7   0   -0.94    4.22   0
  -1  -7   0   -0.87    3.63   0
   2   7   0   17.02    4.06   0
  -2  -7   0    6.34    3.67   0
   3   7   0   45.18    4.16   0
  -3  -7   0   45.26    4.02   0
   4   7   0   65.89    4.29   0
  -4  -7   0   49.54    4.29   0
  -5  -7   0    7.10    3.91   0
   5   7   0    4.10    4.42   0
   6   7   0   36.60    4.92   0
  -6  -7   0   33.13    4.77   0
  -4   8   0   13.67    5.19   0
  -3   8   0    6.06    4.34   0
  -2   8   0   19.44    7.18   0
   2  -8   0   24.01    6.22   0
  -1   8   0   45.93    5.78   0
   1  -8   0   47.30    5.42   0
   0  -8   0   21.11    3.95   0
   0   8   0   13.95    5.28   0
   1   8   0   28.57    4.62   0
  -1  -8   0   24.58    4.80   0
  -2  -8   0   64.97    4.51   0
   2   8   0   65.35    4.63   0
   3   8   0    2.51    4.26   0
  -3  -8   0   19.23    3.96   0
  -4  -8   0   48.91    4.59   0
   4   8   0   44.82    4.91   0
  -5  -8   0  123.51    5.38   0
   5   8   0  115.99    5.50   0
  -3   9   0   -0.36    5.49   0
   2  -9   0    7.51    7.48   0
  -2   9   0    7.18    7.67   0
   1  -9   0    3.85    5.53   0
  -1   9   0    7.16    5.82   0
   0   9   0    1.53    5.69   0
   0  -9   0   -2.88    4.46   0
   1   9   0   -5.99    4.77   0
  -1  -9   0   -1.11    4.32   0
   2   9   0    1.61    5.21   0
  -2  -9   0   10.86    4.92   0
  -3  -9   0    1.75    4.60   0
   3   9   0    3.92    4.99   0
   4   9   0    1.28    5.21   0
  -4  -9   0    1.28    4.89   0
   1  10   0   58.56    5.89   0
  -4  -9   1    7.89    5.30   0
   4   9  -1   19.89    5.56   0
  -3  -9   1    6.21    4.77   0
   3   9  -1   -0.10    5.03   0
  -2  -9   1    0.64    4.65   0
   2   9  -1   -2.87    5.05   0
  -1  -9   1   10.15    5.30   0
   1   9  -1   21.13    5.94   0
   0  -9   1   38.78    4.96   0
   0   9  -1   36.44    5.32   0
  -1   9  -1   23.32    6.21   0
   1  -9   1   25.19    5.71   0
   2  -9   1    0.38    6.71   0
  -2   9  -1    6.81    8.08   0
  -3   9  -1   65.85    6.10   0
   5   8  -1   15.29    5.36   0
  -5  -8   1   22.93    5.12   0
  -4  -8   1   16.20    4.53   0
   4   8  -1   29.23    4.86   0
  -3  -8   1    3.46    4.19   0
   3   8  -1    8.83    4.16   0
   2   8  -1   29.15    4.44   0
  -2  -8   1   30.37    3.99   0
   1   8  -1   43.76    4.94   0
  -1  -8   1   45.38    4.96   0
   0   8  -1  121.25    5.84   0
   0  -8   1  114.06    5.18   0
  -1   8  -1   68.19    5.86   0
  -2   8  -1    0.24    6.40   0
   2  -8   1   -0.56    5.64   0
  -3   8  -1   -7.84    4.87   0
  -4   8  -1   13.34    5.12   0
  -6  -7   1   19.12    4.76   0
   6   7  -1   10.45    4.86   0
   5   7  -1   -6.50    4.69   0
  -5  -7   1    2.64    4.34   0
   4   7  -1   -3.05    4.26   0
  -4  -7   1    7.16    3.90   0
  -3  -7   1   23.56    3.72   0
   3   7  -1   22.28    4.35   0
  -2  -7   1  104.08    4.33   0
   2   7  -1   96.84    4.75   0
   1   7  -1   53.49    4.53   0
  -1  -7   1   56.45    3.97   0
   0  -7   1   38.78    4.13   0
   0   7  -1   48.87    5.49   0
  -1   7  -1 1054.61   10.15   0
  -2   7  -1    7.11    6.42   0
   2  -7   1   10.57    5.30   0
  -3   7  -1   80.18    4.38   0
  -4   7  -1   15.01    4.69   0
  -5   7  -1    6.57    4.73   0
   7   6  -1    9.22    4.86   0
  -7  -6   1   18.07    5.12   0
   6   6  -1    9.74    3.92   0
  -6  -6   1   13.00    3.90   0
   5   6  -1   12.13    4.00   0
  -5  -6   1   18.08    4.00   0
  -4  -6   1    1.42    3.53   0
   4   6  -1   10.89    3.87   0
  -3  -6   1  240.02    4.47   0
   3   6  -1  226.17    4.51   0
   2   6  -1   13.26    4.21   0
  -2  -6   1    6.26    3.69   0
   1   6  -1   -3.20    4.27   0
  -1  -6   1    3.10    3.51   0
   0   6  -1  422.45    6.39   0
   0  -6   1  443.01    6.41   0
  -1   6  -1  962.24    9.91   0
   2  -6   1   12.41    5.39   0
  -2   6  -1   41.07    6.83   0
  -3   6  -1   12.36    4.36   0
  -4   6  -1   14.67    4.17   0
  -5   6  -1   15.45    4.42   0
  -6   6  -1    2.28    4.57   0
   8   5  -1   -4.20    5.16   0
  -8  -5   1    2.63    5.56   0
   8   5  -1   -1.24    5.68   0
  -7  -5   1   12.05    4.39   0
   7   5  -1   10.77    3.98   0
   7   5  -1    9.86    5.00   0
   6   5  -1   -8.01    3.79   0
  -6  -5   1   -0.06    3.76   0
  -5  -5   1    9.57    3.49   0
   5   5  -1    0.13    3.96   0
   4   5  -1   14.22    3.89   0
  -4  -5   1   10.68    3.60   0
   3   5  -1   -1.04    4.11   0
  -3  -5   1    4.86    3.57   0
  -2  -5   1   45.46    3.80   0
   2   5  -1   36.45    4.37   0
  -1  -5   1    4.37    3.51   0
   1   5  -1   -0.73    4.17   0
   0  -5   1  191.34    5.34   0
   0   5  -1  174.63    5.45   0
  -1   5  -1  158.90    6.66   0
   2  -5   1   58.06    5.46   0
  -2   5  -1   65.94    7.02   0
  -3   5  -1    3.75    3.97   0
  -4   5  -1    9.42    4.07   0
  -5   5  -1   28.19    3.74   0
  -6   5  -1    7.29    4.42   0
  -7   5  -1   -3.26    5.31   0
   8   4  -1   31.27    5.10   0
   8   4  -1   45.72    5.64   0
  -8  -4   1   49.00    5.31   0
   7   4  -1    4.10    4.62   0
   7   4  -1    3.21    3.75   0
  -7  -4   1   -2.78    4.08   0
   6   4  -1    9.78    4.14   0
  -6  -4   1    2.65    3.94   0
  -5  -4   1  535.88    5.58   0
   5   4  -1  511.76    5.52   0
   4   4  -1 1784.69    8.90   0
  -4  -4   1 1779.01    8.63   0
  -3  -4   1   56.87    3.85   0
   3   4  -1   63.26    4.09   0
   2   4  -1   33.54    4.19   0
  -2  -4   1   32.48    3.78   0
   1   4  -1  229.88    5.34   0
  -1  -4   1  226.98    4.97   0
   0  -4   1 4033.84   15.54   0
   0   4  -1 4044.42   15.77   0
  -1   4  -1 1615.99   12.42   0
  -2   4  -1   16.72    6.22   0
   2  -4   1   14.29    5.19   0
  -3   4  -1    7.97    4.23   0
  -4   4  -1   15.40    3.77   0
  -5   4  -1   41.13    4.07   0
  -6   4  -1    5.00    3.81   0
  -7   4  -1   11.27    4.64   0
   8   3  -1    9.74    4.21   0
   8   3  -1   -1.12    5.01   0
  -8  -3   1   -3.42    4.72   0
  -7  -3   1    2.45    4.19   0
   7   3  -1    5.10    4.31   0
   7   3  -1   -3.66    3.84   0
  -6  -3   1    7.62    3.85   0
   6   3  -1   -2.83    4.12   0
   6   3  -1    3.57    3.65   0
   5   3  -1   62.09    4.29   0
  -5  -3   1   61.15    3.91   0
  -4  -3   1   14.11    3.72   0
   4   3  -1    9.98    4.05   0
   3   3  -1   32.01    3.98   0
  -3  -3   1   30.69    3.89   0
  -2  -3   1  936.08    7.56   0
   2   3  -1  914.97    6.95   0
  -1  -3   1 2174.18   11.49   0
   1   3  -1 2156.27   11.29   0
   0   3  -1  392.81    6.56   0
   0  -3   1  383.33    6.20   0
  -1   3  -1 5764.76   24.24   0
   2  -3   1 1171.45   14.30   0
   3  -3   1 1733.38   28.26   0
  -3   3  -1 1781.75    9.36   0
   3  -3   1 1695.24   28.30   0
  -4   3  -1  240.53    5.18   0
  -5   3  -1  135.55    4.47   0
  -6   3  -1  183.07    4.63   0
  -7   3  -1   14.41    4.01   0
  -8   3  -1   18.84    5.11   0
  -8  -2   1    4.04    4.97   0
   8   2  -1    1.45    5.21   0
   8   2  -1    3.36    4.05   0
   7   2  -1   21.60    4.66   0
   7   2  -1   23.76    3.94   0
  -7  -2   1   30.04    4.16   0
   6   2  -1   84.05    4.14   0
   6   2  -1   84.52    4.52   0
  -6  -2   1   84.97    4.12   0
   5   2  -1  105.90    4.52   0
   5   2  -1  107.28    4.55   0
  -5  -2   1  111.86    3.99   0
  -4  -2   1  149.72    4.30   0
   4   2  -1  144.00    4.58   0
   3   2  -1  181.06    5.12   0
  -3  -2   1  207.74    5.06   0
   2   2  -1 5447.04   17.12   0
  -2  -2   1 5353.88   16.96   0
   1   2  -1   39.41    4.95   0
  -1  -2   1   42.56    4.54   0
  -1   2  -1 1371.13   14.83   0
   2  -2   1    3.34    6.14   0
  -2   2  -1    2.35    3.88   0
  -3   2  -1    0.81    4.19   0
   3  -2   1    0.02    4.54   0
   3  -2   1   -1.13    5.11   0
  -4   2  -1   14.79    4.00   0
   4  -2   1   12.96    5.22   0
  -5   2  -1   82.43    4.39   0
   5  -2   1   85.68    5.65   0
   6  -2   1  221.80    7.24   0
   6  -2   1  209.59    3.64   0
  -6   2  -1  229.10    4.60   0
   7  -2   1   -1.56    5.65   0
  -7   2  -1   -1.24    3.60   0
   8  -2   1    3.52    7.10   0
   8   1  -1   13.03    4.14   0
  -8  -1   1   15.00    4.47   0
   8   1  -1   14.27    5.58   0
   7   1  -1   77.70    4.05   0
  -7  -1   1   81.93    4.45   0
   7   1  -1   93.65    4.85   0
  -6  -1   1   68.07    3.94   0
   6   1  -1   57.22    4.19   0
   6   1  -1   60.92    4.51   0
  -5  -1   1  105.12    4.13   0
   5   1  -1  111.98    4.58   0
   5   1  -1  115.58    4.56   0
  -4  -1   1   17.59    3.68   0
   4   1  -1   21.48    3.85   0
   4   1  -1   19.78    3.95   0
   3   1  -1  727.73    7.42   0
   3   1  -1  722.03    6.64   0
  -3  -1   1  715.91    7.41   0
  -2  -1   1 1006.56    9.24   0
   2   1  -1  977.42    9.06   0
   1   1  -1 1698.28   13.74   0
  -1  -1   1 1722.72   13.78   0
   0  -1   1 1488.79   15.42   0
   0   1  -1 1527.81   15.65   0
   2  -1   1   27.18    4.74   0
  -2   1  -1   29.02    3.11   0
   2  -1   1   28.85    4.18   0
   3  -1   1 1579.28    8.68   0
  -3   1  -1 1531.57   12.66   0
   3  -1   1 1446.53   12.79   0
  -3   1  -1 1561.61    8.65   0
   4  -1   1  137.70    5.37   0
  -4   1  -1  140.38    4.38   0
  -4   1  -1  133.33    4.53   0
   4  -1   1  131.39    4.36   0
   5  -1   1   13.09    4.70   0
  -5   1  -1   15.64    4.03   0
   5  -1   1   10.84    4.05   0
  -5   1  -1   13.35    4.39   0
   6  -1   1    9.75    3.56   0
  -6   1  -1   17.10    3.72   0
  -6   1  -1   15.91    3.51   0
   6  -1   1   14.44    4.57   0
   7  -1   1   67.74    4.08   0
   7  -1   1   64.59    5.65   0
   8  -1   1   82.59    4.80   0
   8  -1   1   68.66    5.98   0
  -8   0   1   -2.23    4.56   0
   8   0  -1   -3.92    3.72   0
   8   0  -1   -1.89    5.68   0
   7   0  -1    2.97    4.41   0
  -7   0   1   -0.17    4.76   0
   7   0  -1   -4.78    3.86   0
   6   0  -1   69.17    4.25   0
  -6   0   1   68.12    3.94   0
   6   0  -1   67.27    3.99   0
  -5   0   1  244.19    5.67   0
   5   0  -1  162.15    5.14   0
   5   0  -1  201.59    5.28   0
   4   0  -1  464.04    6.47   0
   4   0  -1  643.12    6.29   0
  -4   0   1  490.84    6.77   0
   3   0  -1 1722.26    9.56   0
   3   0  -1 1721.34   11.45   0
  -3   0   1 1686.16   11.53   0
  -2   0   1 1174.14    9.37   0
   2   0  -1 1187.21   11.34   0
   2   0  -1 1160.57    9.06   0
  -2   0   1 1198.76   11.59   0
  -1   0   1 2841.15   21.51   0
  -1   0   1 2747.81   18.33   0
   1   0  -1 2783.12   21.18   0
   1   0  -1 2783.24   18.68   0
   1   0   1 7677.77   34.66   0
   1   0   1 7615.52   31.96   0
  -1   0  -1 7276.79   34.25   0
  -1   0  -1 7987.04   35.35   0
   2   0   1    7.12    4.19   0
   2   0   1    7.39    4.67   0
  -2   0  -1    7.52    3.96   0
  -2   0  -1    5.92    4.67   0
  -3   0  -1    7.81    3.50   0
  -3   0  -1    6.99    4.03   0
   3   0   1    1.53    4.23   0
   3   0   1    7.51    3.37   0
  -4   0  -1  224.15    4.93   0
   4   0   1  212.98    5.16   0
   4   0   1  268.78    5.01   0
   5   0   1  -10.94    4.47   0
   5   0   1    7.50    4.67   0
  -5   0  -1    9.21    3.54   0
   6   0   1   65.82    3.79   0
  -6   0  -1   60.92    4.33   0
   6   0   1   68.55    4.32   0
  -7   0  -1   68.51    4.22   0
   7   0   1   63.49    4.05   0
   7   0   1   63.80    5.30   0
   8   0   1   19.29    4.40   0
   8   0   1   26.86    4.91   0
  -8   0  -1   26.89    4.58   0
   9   0   1   25.72    6.49   0
  -8   1   1   18.34    5.59   0
   8  -1  -1   16.60    5.64   0
   8  -1  -1   19.79    4.23   0
   7  -1  -1    6.00    5.11   0
  -7   1   1    7.99    4.87   0
   7  -1  -1    7.78    3.59   0
   6  -1  -1   38.33    3.92   0
   6  -1  -1   38.89    5.06   0
  -6   1   1   39.83    4.49   0
  -5   1   1   11.77    4.40   0
  -5   1   1   15.91    4.04   0
   5  -1  -1   18.05    4.11   0
   5  -1  -1   21.61    5.27   0
  -4   1   1   11.99    2.71   0
   4  -1  -1   -7.62    4.05   0
   4  -1  -1    4.05    4.76   0
  -4   1   1    4.88    4.14   0
   3  -1  -1 1388.89    8.57   0
  -3   1   1 1135.03   11.60   0
   3  -1  -1 1266.93   12.25   0
  -3   1   1 1390.42    8.58   0
   2  -1  -1  595.99    7.16   0
   2  -1  -1  567.16   11.50   0
  -2   1   1  569.38    7.12   0
  -2   1   1  571.84   11.37   0
  -1   1   1 1659.85   13.49   0
  -1   1   1 1612.15   26.62   0
   1  -1  -1 1665.31   25.69   0
   1   1   1  491.30    8.55   0
  -1  -1  -1  500.85    8.68   0
  -2  -1  -1   33.23    4.20   0
   2   1   1   36.17    3.25   0
   3   1   1    9.66    4.11   0
   3   1   1   12.93    3.76   0
  -3  -1  -1   12.79    3.50   0
   4   1   1 1125.69    7.49   0
  -4  -1  -1 1114.02    7.97   0
   4   1   1 1157.41    8.36   0
   5   1   1  229.05    5.34   0
  -5  -1  -1  231.41    5.16   0
   5   1   1  249.41    5.02   0
  -6  -1  -1   39.26    4.42   0
   6   1   1   30.24    3.77   0
   6   1   1   38.22    3.97   0
   7   1   1  125.51    5.42   0
  -7  -1  -1  119.55    4.55   0
   7   1   1  114.18    4.17   0
  -8  -1  -1  112.38    5.01   0
   8   1   1  113.29    5.97   0
   8   1   1  113.37    4.59   0
  -9  -1  -1    7.54    5.97   0
   9   1   1   11.43    6.32   0
   9   1   1   -4.58    5.44   0
   8  -2  -1    0.76    6.88   0
   7  -2  -1   -0.64    6.38   0
  -7   2   1    4.22    3.59   0
   7  -2  -1  -11.43    3.80   0
  -6   2   1    1.05    3.98   0
   6  -2  -1   34.95    6.15   0
  -6   2   1   29.47    5.43   0
   6  -2  -1   44.65    3.95   0
  -5   2   1  380.82    8.14   0
  -5   2   1  385.90    5.28   0
   5  -2  -1  386.16    8.92   0
   5  -2  -1  403.69    5.27   0
   4  -2  -1  283.36    4.91   0
   4  -2  -1  276.20    9.03   0
  -4   2   1  273.83    7.77   0
  -4   2   1  271.33    4.08   0
  -3   2   1  428.95   12.19   0
  -3   2   1  456.51    5.84   0
   3  -2  -1  427.50   12.72   0
  -2   2   1  138.87    3.93   0
  -1   2   1  207.69   10.33   0
   0   2   1 4036.41   21.92   0
  -1  -2  -1  866.39    9.05   0
   1   2   1  832.32    8.40   0
   2   2   1  194.13    4.10   0
  -2  -2  -1  211.15    5.09   0
   3   2   1   35.03    4.08   0
  -3  -2  -1   31.70    2.85   0
   4   2   1   -4.39    3.65   0
  -4  -2  -1    1.65    3.21   0
   4   2   1   -3.01    3.48   0
  -5  -2  -1  411.04    5.15   0
   5   2   1  401.87    5.47   0
   5   2   1  388.65    4.60   0
   6   2   1    1.68    3.91   0
   6   2   1   13.75    4.15   0
  -6  -2  -1   34.79    4.01   0
   7   2   1    6.42    3.96   0
  -7  -2  -1    3.32    4.20   0
   7   2   1    5.42    4.08   0
   8   2   1  100.83    5.31   0
  -8  -2  -1  113.45    4.86   0
   8   2   1  115.04    4.71   0
   9   2   1   25.38    5.97   0
  -9  -2  -1   15.24    5.53   0
  -7   3   1    0.66    4.03   0
  -6   3   1  150.28    4.53   0
  -5   3   1  544.16    5.15   0
  -4   3   1   71.63    4.32   0
  -3   3   1 1114.19    7.68   0
  -2   3   1  381.07    6.11   0
   1  -3  -1  287.71    8.27   0
  -1   3   1  297.57    8.10   0
   0  -3  -1 1781.79   12.47   0
   0   3   1 1866.76   12.75   0
   1   3   1  773.21    7.64   0
  -1  -3  -1  782.72    7.62   0
   2   3   1 1640.14    9.47   0
  -2  -3  -1 1605.90    9.46   0
  -3  -3  -1  271.83    4.16   0
   3   3   1  322.10    5.09   0
  -4  -3  -1    4.39    3.39   0
   4   3   1    9.06    3.58   0
   5   3   1 1474.32    8.39   0
  -5  -3  -1 1489.59    8.11   0
  -6  -3  -1   12.35    3.50   0
   6   3   1   13.38    3.63   0
   6   3   1   15.67    3.87   0
   7   3   1   44.86    4.13   0
   7   3   1   52.12    4.40   0
  -7  -3  -1   52.83    3.88   0
   8   3   1   73.09    4.68   0
  -8  -3  -1   74.10    4.86   0
   8   3   1   76.44    5.13   0
  -7   4   1   -1.55    4.18   0
  -6   4   1   19.36    3.83   0
  -5   4   1   30.72    3.95   0
  -4   4   1   85.47    4.36   0
  -3   4   1  637.65    6.42   0
  -2   4   1   73.09   11.81   0
  -1   4   1  105.92    5.76   0
   1  -4  -1  105.69    5.14   0
   0  -4  -1    8.80    3.59   0
   0   4   1   13.97    4.59   0
   1   4   1  689.68    7.04   0
  -1  -4  -1  627.01    6.62   0
   2   4   1   10.25    3.79   0
  -2  -4  -1    4.89    3.49   0
  -3  -4  -1   35.31    3.71   0
   3   4   1   48.40    3.96   0
  -4  -4  -1  185.61    4.44   0
   4   4   1  191.20    4.69   0
   5   4   1   33.35    3.88   0
  -5  -4  -1   32.82    3.58   0
   6   4   1  159.76    4.38   0
   6   4   1  162.89    4.47   0
  -6  -4  -1  158.15    4.35   0
   7   4   1   14.05    3.91   0
   7   4   1   20.48    4.78   0
  -7  -4  -1   19.87    4.38   0
   8   4   1    7.27    5.17   0
  -8  -4  -1   12.77    4.95   0
   8   4   1   -2.72    4.45   0
  -7   5   1   -0.78    5.02   0
  -6   5   1   16.61    3.86   0
  -5   5   1   12.97    4.09   0
  -4   5   1   -2.11    3.98   0
  -3   5   1  124.39    4.48   0
  -2   5   1   63.51    8.37   0
   2  -5  -1   61.17    6.26   0
  -1   5   1   61.79    5.78   0
   1  -5  -1   56.32    4.60   0
   0  -5  -1    0.38    3.38   0
   0   5   1    1.53    4.02   0
   1   5   1  158.49    4.70   0
  -1  -5  -1  150.70    4.32   0
  -2  -5  -1  620.55    5.83   0
   2   5   1  621.44    6.12   0
   3   5   1  345.18    5.43   0
  -3  -5  -1  358.66    5.19   0
  -4  -5  -1   24.06    3.56   0
   4   5   1   25.16    3.83   0
   5   5   1   67.54    4.03   0
  -5  -5  -1   67.49    3.93   0
   6   5   1  216.66    4.64   0
  -6  -5  -1  227.72    4.71   0
   7   5   1    9.50    4.50   0
   7   5   1   10.41    4.14   0
  -7  -5  -1   16.69    4.19   0
   8   5   1   55.98    5.32   0
   8   5   1   53.00    5.63   0
  -8  -5  -1   60.89    5.45   0
  -6   6   1    7.91    4.95   0
  -5   6   1   21.40    4.07   0
  -4   6   1  258.00    4.28   0
  -3   6   1  109.03    4.35   0
  -2   6   1   12.00    7.56   0
   2  -6  -1    5.04    5.89   0
  -1   6   1 1070.98   10.43   0
   1  -6  -1 1081.63    9.96   0
   0   6   1 1336.23    9.37   0
   0  -6  -1 1359.56    9.57   0
  -1  -6  -1    0.36    3.43   0
   1   6   1   18.77    3.99   0
   2   6   1    8.78    3.92   0
  -2  -6  -1    4.65    3.53   0
  -3  -6  -1   55.26    3.57   0
   3   6   1   56.00    3.81   0
  -4  -6  -1  147.89    4.10   0
   4   6   1  134.84    4.38   0
   5   6   1  403.72    5.39   0
  -5  -6  -1  409.47    4.96   0
   6   6   1    7.34    4.16   0
  -6  -6  -1    6.51    3.84   0
  -7  -6  -1    0.01    4.64   0
   7   6   1    9.35    5.12   0
  -6   7   1   11.90    5.81   0
  -5   7   1   -2.47    4.99   0
  -4   7   1    3.35    4.37   0
  -3   7   1   55.51    4.33   0
   2  -7  -1   13.84    5.59   0
  -2   7   1   11.09    6.86   0
   1  -7  -1    2.27    4.18   0
  -1   7   1    2.97    5.42   0
   0   7   1  101.10    4.67   0
   0  -7  -1   98.74    4.32   0
   1   7   1   15.92    4.05   0
  -1  -7  -1   17.90    3.65   0
   2   7   1  237.45    4.98   0
  -2  -7  -1  228.92    4.79   0
   3   7   1  163.59    4.76   0
  -3  -7  -1  161.63    4.43   0
  -4  -7  -1   48.09    4.21   0
   4   7   1   48.06    4.37   0
   5   7   1  149.12    4.48   0
  -5  -7  -1  174.07    4.59   0
  -6  -7  -1  126.20    4.66   0
   6   7   1  112.38    4.95   0
  -7  -7  -1   46.82    5.07   0
   7   7   1   40.43    5.17   0
  -4   8   1    1.76    4.56   0
  -3   8   1   30.10    4.54   0
  -2   8   1    6.33    7.36   0
   1  -8  -1   85.51    5.29   0
  -1   8   1   80.42    5.97   0
   0  -8  -1   25.29    4.07   0
   0   8   1   29.42    5.21   0
   1   8   1    0.81    5.28   0
  -1  -8  -1    1.39    4.70   0
   2   8   1   47.20    4.40   0
  -2  -8  -1   59.92    4.09   0
   3   8   1    1.83    4.16   0
  -3  -8  -1    2.48    3.98   0
  -4  -8  -1  106.83    4.62   0
   4   8   1   93.11    5.14   0
   5   8   1  177.64    5.47   0
  -5  -8  -1  170.05    5.38   0
  -6  -8  -1   15.50    5.17   0
   6   8   1   -1.53    4.85   0
  -3   9   1   24.06    4.16   0
  -2   9   1   -0.29    8.28   0
  -1   9   1   -0.67    5.64   0
   1  -9  -1    0.88    5.68   0
   0   9   1    3.34    5.58   0
   0  -9  -1   -0.71    5.13   0
   1   9   1    0.11    4.73   0
  -1  -9  -1    2.76    5.02   0
   2   9   1   15.60    4.89   0
  -2  -9  -1   25.54    5.18   0
  -3  -9  -1    2.52    4.53   0
   3   9   1   -0.91    4.85   0
   4   9   1   34.77    5.19   0
  -4  -9  -1   33.29    5.03   0
   0  10   1   -1.80    6.20   0
   1  10   1   34.11    6.34   0
  -1 -10  -1   33.43    5.26   0
  -2 -10  -1    7.27    5.97   0
   2  10   1   17.13    5.60   0
   3   9  -2    5.95    4.90   0
  -3  -9   2    4.60    4.97   0
  -2  -9   2    2.43    4.84   0
   2   9  -2    2.20    5.33   0
  -1  -9   2    4.05    4.92   0
   1   9  -2    8.88    5.46   0
   0  -9   2   28.23    5.49   0
   0   9  -2   26.63    6.07   0
  -1   9  -2   40.52    6.48   0
  -2   9  -2   19.47    7.80   0
   2  -9   2   22.82    7.09   0
   5   8  -2   20.15    5.65   0
  -5  -8   2   21.64    5.19   0
   4   8  -2    5.53    4.52   0
  -4  -8   2   10.88    4.12   0
   3   8  -2    1.42    4.50   0
  -3  -8   2   -2.24    4.20   0
  -2  -8   2    2.69    4.34   0
   2   8  -2   16.04    5.17   0
   1   8  -2    3.09    4.67   0
  -1  -8   2   -0.14    4.85   0
   0  -8   2  216.50    5.89   0
   0   8  -2  197.50    6.40   0
  -1   8  -2   97.95    5.51   0
   2  -8   2   33.90    6.17   0
  -2   8  -2   29.32    6.89   0
  -3   8  -2   -6.87    5.31   0
  -4   8  -2    9.36    5.07   0
  -6  -7   2    1.56    4.44   0
   6   7  -2    4.15    5.05   0
   5   7  -2   18.39    4.71   0
  -5  -7   2    3.13    4.52   0
   4   7  -2   47.16    4.44   0
  -4  -7   2   48.76    4.42   0
   3   7  -2   24.13    4.02   0
  -3  -7   2   25.45    3.90   0
  -2  -7   2   94.12    4.37   0
   2   7  -2   85.09    4.95   0
   1   7  -2   80.55    5.13   0
  -1  -7   2   79.22    4.23   0
   0  -7   2    4.32    4.49   0
   0   7  -2   -0.92    4.39   0
  -1   7  -2   54.93    5.86   0
  -2   7  -2  110.00    6.43   0
   2  -7   2  105.64    5.83   0
   3  -7   2    3.44    7.63   0
  -4   7  -2    7.36    4.51   0
  -5   7  -2   -5.92    5.08   0
   7   6  -2    1.26    4.95   0
  -7  -6   2   -4.59    4.74   0
   6   6  -2    8.52    4.57   0
  -6  -6   2    0.71    3.87   0
  -5  -6   2   24.84    3.82   0
   5   6  -2   31.02    4.06   0
   4   6  -2   18.85    3.94   0
  -4  -6   2   12.18    3.67   0
  -3  -6   2   33.28    3.75   0
   3   6  -2   40.31    3.96   0
  -2  -6   2   39.51    3.80   0
   2   6  -2   62.04    4.45   0
  -1  -6   2   15.14    3.78   0
   1   6  -2   11.62    4.63   0
   0  -6   2  447.49    5.75   0
   0   6  -2  477.99    6.99   0
  -1   6  -2 1421.64   10.64   0
  -2   6  -2  165.83    7.55   0
   2  -6   2  126.37    5.77   0
   3  -6   2   16.20    6.72   0
  -3   6  -2   -0.19    4.21   0
  -4   6  -2   83.65    4.51   0
  -5   6  -2  114.85    5.30   0
  -6   6  -2    3.42    5.50   0
   7   5  -2    8.61    5.10   0
  -7  -5   2    2.67    4.56   0
   7   5  -2    6.69    4.45   0
   6   5  -2   -4.28    4.53   0
  -6  -5   2    3.26    4.13   0
  -5  -5   2   28.84    3.61   0
   5   5  -2   29.75    4.07   0
  -4  -5   2   -3.98    3.45   0
   4   5  -2   -0.64    3.72   0
   3   5  -2  184.99    4.69   0
  -3  -5   2  178.89    4.27   0
   2   5  -2 1416.52    8.33   0
  -2  -5   2 1430.80    8.01   0
  -1  -5   2  575.78    6.30   0
   1   5  -2  590.03    6.45   0
   0  -5   2  273.24    5.19   0
   0   5  -2  278.28    5.83   0
  -1   5  -2  311.06    6.56   0
   2  -5   2   21.45    5.24   0
  -2   5  -2   26.69    6.26   0
   3  -5   2   59.75    6.55   0
  -3   5  -2   78.39    4.19   0
  -4   5  -2   -3.70    3.81   0
  -5   5  -2    5.40    4.30   0
  -6   5  -2   10.82    4.31   0
  -7   5  -2   -1.30    4.92   0
  -8  -4   2   54.47    5.66   0
   8   4  -2   52.69    5.67   0
   8   4  -2   49.96    5.23   0
   7   4  -2   60.26    4.04   0
  -7  -4   2   69.84    4.80   0
   7   4  -2   80.73    4.94   0
   6   4  -2   13.34    4.28   0
  -6  -4   2   16.84    4.07   0
   6   4  -2   21.67    3.48   0
   5   4  -2  402.23    5.21   0
  -5  -4   2  409.47    5.06   0
   4   4  -2 1277.47    7.71   0
  -4  -4   2 1262.28    7.71   0
  -3  -4   2    7.66    3.75   0
   3   4  -2   -3.34    4.21   0
  -2  -4   2  140.69    4.27   0
   2   4  -2  143.73    4.73   0
  -1  -4   2   70.29    4.10   0
   1   4  -2   80.58    4.65   0
   0   4  -2 2116.27   11.56   0
   0  -4   2 2030.04   11.00   0
  -1   4  -2  857.88    8.94   0
   2  -4   2  126.59    5.67   0
  -2   4  -2  144.75    7.14   0
   3  -4   2   27.24    6.08   0
  -3   4  -2   30.67    4.60   0
  -4   4  -2  132.76    4.38   0
  -5   4  -2   -6.78    3.75   0
  -6   4  -2    0.73    4.44   0
  -7   4  -2    9.48    4.81   0
   8   3  -2    3.28    4.38   0
   8   3  -2    0.36    5.02   0
  -8  -3   2    2.70    4.87   0
   7   3  -2   -3.69    3.73   0
   7   3  -2   -2.53    4.45   0
  -7  -3   2    0.56    4.17   0
   6   3  -2    3.54    4.33   0
   6   3  -2    6.25    3.70   0
  -6  -3   2    6.64    3.77   0
  -5  -3   2   30.69    3.76   0
   5   3  -2   33.10    4.01   0
   4   3  -2  491.79    5.04   0
  -4  -3   2  493.07    5.64   0
   3   3  -2 1278.68    8.08   0
  -3  -3   2 1219.67    7.86   0
   2   3  -2  155.75    4.98   0
  -2  -3   2  155.84    4.65   0
   1   3  -2 1775.28   10.32   0
  -1  -3   2 1732.56    9.99   0
   0  -3   2   60.16    4.27   0
   0   3  -2   61.52    4.85   0
  -1   3  -2 1404.52   11.30   0
  -2   3  -2  495.21   10.14   0
   2  -3   2  513.32    8.49   0
   3  -3   2  217.82    7.27   0
   3  -3   2  203.22    7.79   0
  -3   3  -2  222.44    4.85   0
   4  -3   2   21.35    5.66   0
   4  -3   2   20.78    7.20   0
  -4   3  -2   22.34    4.24   0
   5  -3   2   58.46    7.99   0
  -5   3  -2  142.68    4.17   0
   5  -3   2  134.65    9.23   0
   6  -3   2    7.28    9.06   0
  -6   3  -2    3.96    3.65   0
   6  -3   2    8.22    8.91   0
  -7   3  -2    6.94    4.44   0
  -8   3  -2   29.59    4.69   0
   8   2  -2    6.37    4.95   0
  -8  -2   2    1.10    5.01   0
   8   2  -2    7.58    4.27   0
   7   2  -2   59.70    5.06   0
  -7  -2   2   49.47    4.43   0
   7   2  -2   51.14    3.82   0
  -6  -2   2   17.08    3.88   0
   6   2  -2   19.07    3.67   0
   6   2  -2   19.64    4.26   0
  -5  -2   2   85.21    4.06   0
   5   2  -2   76.09    4.30   0
   5   2  -2   78.65    4.32   0
   4   2  -2   41.29    4.30   0
  -4  -2   2   42.85    3.71   0
   3   2  -2  213.54    5.08   0
  -3  -2   2  212.69    4.85   0
   2   2  -2  565.46    6.76   0
  -2  -2   2  508.46    6.50   0
   1   2  -2  106.86    5.18   0
  -1  -2   2  108.21    4.81   0
   0   2  -2 3250.34   16.07   0
   0  -2   2 3161.77   15.70   0
  -1   2  -2   69.30    4.99   0
  -2   2  -2  302.74    5.63   0
   3  -2   2   13.81    5.15   0
  -3   2  -2   15.19    4.04   0
   3  -2   2   15.96    4.05   0
   4  -2   2   50.80    5.51   0
   4  -2   2   45.87    5.86   0
  -4   2  -2   52.09    4.19   0
  -5   2  -2   95.16    4.39   0
   5  -2   2  101.27    5.92   0
   6  -2   2   86.51    5.67   0
  -6   2  -2   81.57    4.28   0
   7  -2   2    1.45    5.77   0
  -7   2  -2    7.57    4.16   0
   8  -2   2   22.16    7.40   0
   8  -2   2   15.54    6.93   0
   8   1  -2    0.02    5.48   0
   8   1  -2    4.62    4.11   0
  -8  -1   2   -2.17    5.23   0
   7   1  -2   73.80    4.01   0
  -7  -1   2   73.83    4.46   0
   7   1  -2   63.36    5.23   0
   6   1  -2   17.40    3.43   0
  -6  -1   2   27.75    3.85   0
   6   1  -2   19.33    4.11   0
  -5  -1   2   12.95    3.66   0
   5   1  -2   27.20    4.16   0
   5   1  -2   15.55    4.14   0
  -4  -1   2   87.36    4.28   0
   4   1  -2   80.21    4.20   0
   4   1  -2   81.04    4.34   0
   3   1  -2 4362.18   14.00   0
   3   1  -2 4590.01   15.52   0
  -3  -1   2 4580.40   15.95   0
  -2  -1   2 1857.24   11.38   0
   2   1  -2 1832.17   11.13   0
  -1  -1   2  112.60    6.71   0
   1   1  -2  119.52    6.68   0
   0   1  -2 1307.92   12.95   0
   0  -1   2 1369.40   13.11   0
  -1   1  -2 1921.51   15.25   0
  -2   1  -2  691.68    8.10   0
   2  -1   2  744.96    9.69   0
   3  -1   2  477.55    7.56   0
  -3   1  -2  572.82    6.63   0
   3  -1   2  560.40    6.49   0
   4  -1   2    0.42    4.50   0
  -4   1  -2    3.65    3.80   0
   4  -1   2   -3.68    3.76   0
  -5   1  -2   37.12    3.96   0
   5  -1   2   37.81    3.04   0
   5  -1   2   37.79    4.91   0
  -6   1  -2  210.01    4.45   0
   6  -1   2  219.04    6.05   0
   6  -1   2  217.63    3.72   0
   7  -1   2    7.47    4.99   0
   7  -1   2    3.00    4.00   0
   8  -1   2   91.24    4.58   0
   8  -1   2   84.05    6.15   0
   8   0  -2    4.60    4.24   0
   8   0  -2    2.50    5.64   0
  -8   0   2   -0.64    5.19   0
  -7   0   2    9.99    4.63   0
   7   0  -2   13.93    3.64   0
   7   0  -2    7.98    5.16   0
   6   0  -2   51.98    3.64   0
  -6   0   2   53.21    3.85   0
   6   0  -2   50.19    4.85   0
   5   0  -2  113.20    6.70   0
   5   0  -2  301.27    5.90   0
  -5   0   2  141.54    6.36   0
   4   0  -2  214.83    4.71   0
   4   0  -2  139.91    4.90   0
  -4   0   2  135.53    5.06   0
  -3   0   2 2395.39   13.17   0
   3   0  -2 2353.32   10.73   0
   3   0  -2 2352.90   12.67   0
   2   0  -2 1283.11   11.35   0
   2   0  -2 1214.33    8.91   0
  -2   0   2 1292.88   11.52   0
   1   0  -2  202.56    7.80   0
  -1   0   2  230.54    8.24   0
   1   0  -2  223.09    8.18   0
   0   0   2  838.50   10.82   0
   0   0  -2  951.12   11.99   0
   1   0   2 1409.02   15.07   0
  -1   0  -2 1351.96   15.18   0
   2   0   2   47.54    4.19   0
  -2   0  -2   50.79    4.21   0
   2   0   2   50.49    4.67   0
  -2   0  -2   47.29    4.67   0
  -3   0  -2 1510.37   10.39   0
  -3   0  -2 1442.06    9.14   0
   3   0   2 1508.44    9.34   0
   3   0   2 1513.04   10.66   0
  -4   0  -2 1271.98    7.88   0
   4   0   2 1287.34    9.68   0
   4   0   2 1325.16    8.00   0
  -4   0  -2 1251.39    8.83   0
  -5   0  -2  505.38    6.69   0
   5   0   2  493.89    6.94   0
   5   0   2  446.84    5.83   0
   6   0   2    4.85    4.33   0
  -6   0  -2    4.52    3.41   0
   6   0   2    3.10    3.42   0
   7   0   2   89.82    4.94   0
   7   0   2   89.11    4.10   0
  -7   0  -2   87.64    4.46   0
   8   0   2   40.07    4.42   0
   8   0   2   47.29    5.74   0
   8  -1  -2    3.51    4.13   0
   8  -1  -2   13.60    5.90   0
  -8   1   2    5.19    5.23   0
  -7   1   2   25.24    5.04   0
   7  -1  -2   23.36    3.72   0
   7  -1  -2   27.81    5.38   0
   6  -1  -2   32.48    5.12   0
  -6   1   2   39.01    4.32   0
   6  -1  -2   36.13    3.85   0
  -5   1   2    1.25    3.51   0
   5  -1  -2    2.04    5.27   0
   5  -1  -2    4.73    4.01   0
  -5   1   2    1.57    2.94   0
  -4   1   2    3.13    3.54   0
   4  -1  -2   -1.67    3.86   0
   4  -1  -2    2.18    4.31   0
  -4   1   2    3.50    3.79   0
  -3   1   2  953.04    7.48   0
   3  -1  -2  953.52    7.41   0
  -3   1   2  898.28    9.69   0
   3  -1  -2  955.44   10.27   0
   2  -1  -2 6442.17   19.33   0
  -2   1   2 6762.82   29.24   0
   2  -1  -2 6387.41   27.31   0
  -2   1   2 6329.36   19.08   0
   1  -1  -2  333.28    7.98   0
  -1   1   2  321.29    8.08   0
  -1   1   2  316.97   10.62   0
   1  -1  -2  330.28    9.06   0
  -1  -1  -2 2145.25   14.45   0
   1   1   2 2055.38   14.07   0
   2   1   2  171.68    4.95   0
  -2  -1  -2  167.63    4.91   0
   3   1   2    5.23    4.08   0
   3   1   2    8.12    3.73   0
  -3  -1  -2    4.30    3.45   0
   4   1   2  332.63    5.43   0
  -4  -1  -2  333.32    5.07   0
   4   1   2  338.95    5.27   0
  -5  -1  -2   80.11    3.91   0
   5   1   2  103.37    4.32   0
   5   1   2   77.14    4.24   0
  -6  -1  -2  298.43    4.95   0
   6   1   2  294.49    3.97   0
   6   1   2  295.44    6.00   0
   7   1   2    8.17    4.27   0
  -7  -1  -2   16.42    4.54   0
   7   1   2    9.96    3.67   0
   8   1   2   27.21    4.71   0
  -8  -1  -2   24.18    4.59   0
   8   1   2   22.79    4.87   0
  -9  -1  -2    1.33    6.03   0
   9   1   2    1.04    5.08   0
   9   1   2    8.11    5.78   0
   8  -2  -2   13.84    7.18   0
   8  -2  -2   11.31    4.63   0
   7  -2  -2   17.13    6.03   0
   7  -2  -2   19.73    3.89   0
  -7   2   2   12.95    5.67   0
   6  -2  -2  168.12    4.44   0
   6  -2  -2  179.00    7.05   0
  -6   2   2  168.65    6.05   0
  -6   2   2  150.36    4.35   0
   5  -2  -2  632.20    9.91   0
  -5   2   2  649.22    9.49   0
   5  -2  -2  660.84    6.09   0
  -5   2   2  626.30    6.11   0
  -4   2   2   93.11    5.75   0
   4  -2  -2   88.25    7.35   0
   4  -2  -2   94.64    4.13   0
  -4   2   2   85.79    4.09   0
  -3   2   2   40.38    5.62   0
   3  -2  -2   46.41    3.88   0
  -3   2   2   40.07    3.12   0
   3  -2  -2   42.13    6.25   0
  -2   2   2    4.54    4.18   0
  -2   2   2    1.18    6.95   0
  -1   2   2  121.33    6.27   0
   0   2   2   81.89    5.12   0
   0  -2  -2   85.63    6.04   0
  -1  -2  -2  249.99    5.73   0
   1   2   2  235.99    5.68   0
  -2  -2  -2  159.55    4.57   0
   2   2   2  129.04    4.61   0
  -3  -2  -2  468.71    5.83   0
   3   2   2  456.62    5.87   0
   4   2   2  195.54    4.46   0
  -4  -2  -2  190.52    4.37   0
   4   2   2  195.86    4.57   0
   5   2   2  639.28    6.04   0
   5   2   2  620.57    6.26   0
  -5  -2  -2  623.52    5.91   0
   6   2   2  305.00    4.83   0
  -6  -2  -2  303.47    5.16   0
   6   2   2  304.47    5.37   0
   7   2   2   50.14    4.39   0
   7   2   2   50.02    4.07   0
  -7  -2  -2   46.37    4.47   0
  -8  -2  -2   -3.54    4.50   0
   8   2   2    6.03    5.06   0
   8   2   2    2.53    4.23   0
   9   2   2    1.23    5.14   0
  -7   3   2   80.33    4.05   0
  -6   3   2   82.27    3.97   0
  -5   3   2   35.94    3.87   0
  -4   3   2   76.89    4.37   0
  -3   3   2 1007.76    7.30   0
  -2   3   2  701.89    8.17   0
  -1   3   2 1001.94   12.04   0
   0   3   2 3309.97   16.22   0
   0  -3  -2 3376.97   16.45   0
   1   3   2  194.79    4.86   0
  -1  -3  -2  195.45    4.93   0
  -2  -3  -2 1383.33    8.85   0
   2   3   2 1360.01    8.68   0
   3   3   2  771.48    6.68   0
  -3  -3  -2  773.56    6.62   0
  -4  -3  -2  177.62    4.15   0
   4   3   2  177.02    4.41   0
   5   3   2   12.03    4.05   0
   5   3   2   15.65    4.00   0
  -5  -3  -2   12.70    3.59   0
   6   3   2  311.85    4.76   0
  -6  -3  -2  306.85    4.81   0
   6   3   2  316.52    5.30   0
   7   3   2   -0.01    4.38   0
  -7  -3  -2    3.65    3.88   0
   7   3   2    3.59    4.15   0
  -8  -3  -2   43.86    4.72   0
   8   3   2   53.04    4.47   0
   8   3   2   50.86    5.16   0
  -7   4   2    9.20    4.40   0
  -6   4   2    8.72    3.76   0
  -5   4   2    8.41    3.49   0
  -4   4   2    5.52    3.88   0
  -3   4   2  181.47    4.81   0
  -2   4   2    4.12   10.04   0
  -2   4   2    4.58    9.45   0
   1  -4  -2   10.99    4.19   0
  -1   4   2   11.75    4.52   0
   0  -4  -2  105.14    4.33   0
   0   4   2  105.56    4.46   0
   1   4   2   17.82    3.85   0
  -1  -4  -2   17.19    3.76   0
   2   4   2  117.75    4.27   0
  -2  -4  -2  116.95    4.15   0
   3   4   2  153.86    4.39   0
  -3  -4  -2  156.80    4.17   0
  -4  -4  -2  157.72    3.54   0
   4   4   2  162.43    4.49   0
  -5  -4  -2 3951.02   11.97   0
   5   4   2 3735.84   11.94   0
  -6  -4  -2   29.73    3.85   0
   6   4   2   21.06    3.72   0
   6   4   2   35.83    3.74   0
   7   4   2   21.44    4.42   0
  -7  -4  -2   35.50    4.36   0
   7   4   2   40.42    4.34   0
   8   4   2   21.24    4.50   0
  -8  -4  -2   10.42    4.96   0
   8   4   2   23.30    5.19   0
  -7   5   2   75.89    5.25   0
  -6   5   2   16.70    4.15   0
  -5   5   2    4.26    2.76   0
  -4   5   2    2.79    3.56   0
  -3   5   2   16.28    4.12   0
  -2   5   2  192.45    9.79   0
   1  -5  -2   77.04    4.96   0
  -1   5   2   79.98    5.51   0
   0   5   2  130.46    4.63   0
   0  -5  -2  125.38    4.28   0
  -1  -5  -2  199.57    4.55   0
   1   5   2  201.57    4.79   0
   2   5   2 1196.10    7.69   0
  -2  -5  -2 1248.00    7.72   0
   3   5   2  175.33    4.54   0
  -3  -5  -2  178.47    4.30   0
   4   5   2   88.27    4.16   0
  -4  -5  -2   89.61    3.97   0
   5   5   2   33.26    4.12   0
  -5  -5  -2   39.53    3.70   0
  -6  -5  -2   47.67    3.95   0
   6   5   2   46.28    4.12   0
   7   5   2    7.23    4.38   0
   7   5   2    8.10    4.33   0
  -7  -5  -2   -1.31    4.63   0
   8   5   2   -2.91    5.19   0
   8   5   2    2.20    4.75   0
  -8  -5  -2    7.30    5.18   0
  -6   6   2   58.86    5.19   0
  -5   6   2   13.59    3.96   0
  -4   6   2  116.00    4.40   0
  -3   6   2  253.66    5.39   0
  -2   6   2   98.26    8.37   0
   1  -6  -2  307.77    6.62   0
  -1   6   2  310.56    7.29   0
   0   6   2   53.65    4.52   0
   0  -6  -2   64.29    4.11   0
  -1  -6  -2    0.56    3.36   0
   1   6   2   -0.11    3.83   0
   2   6   2    3.53    3.88   0
  -2  -6  -2    7.30    3.36   0
  -3  -6  -2   68.27    3.62   0
   3   6   2   71.94    4.03   0
  -4  -6  -2  401.98    5.11   0
   4   6   2  392.69    5.13   0
  -5  -6  -2  392.08    5.14   0
   5   6   2  389.89    5.24   0
  -6  -6  -2  113.35    4.46   0
   6   6   2   99.11    4.61   0
   7   6   2    9.63    5.01   0
  -7  -6  -2    6.06    4.97   0
  -5   7   2    6.03    5.05   0
  -4   7   2    1.71    4.20   0
  -3   7   2   -4.84    4.02   0
  -2   7   2    3.81    7.11   0
   1  -7  -2   77.09    5.18   0
  -1   7   2   78.37    5.60   0
   0   7   2  408.07    6.02   0
   0  -7  -2  408.83    5.74   0
  -1  -7  -2    4.70    3.59   0
   1   7   2    3.66    3.72   0
  -2  -7  -2    0.78    3.69   0
   2   7   2    9.23    3.96   0
   3   7   2  267.29    5.14   0
  -3  -7  -2  255.00    4.75   0
  -4  -7  -2   41.59    3.98   0
   4   7   2   44.13    4.31   0
   5   7   2    0.18    3.87   0
  -5  -7  -2    7.61    3.87   0
  -6  -7  -2    1.83    4.36   0
   6   7   2   -1.37    4.18   0
   7   7   2   -2.27    5.45   0
  -7  -7  -2   10.59    5.48   0
  -4   8   2    0.49    4.57   0
  -3   8   2   20.23    4.45   0
  -2   8   2    1.80    7.78   0
  -1   8   2   12.87    5.62   0
   1  -8  -2    9.24    4.59   0
   0  -8  -2   42.26    4.81   0
   0   8   2   40.33    5.40   0
   1   8   2    8.64    4.48   0
  -1  -8  -2   11.55    3.98   0
  -2  -8  -2    2.07    4.26   0
   2   8   2    0.55    4.00   0
  -3  -8  -2   -0.45    3.82   0
   3   8   2   -5.88    4.11   0
  -4  -8  -2   94.65    4.76   0
   4   8   2   73.44    4.49   0
   5   8   2   54.13    4.66   0
  -5  -8  -2   56.59    4.33   0
   6   8   2   48.15    5.65   0
  -6  -8  -2   65.07    5.52   0
  -3   9   2    6.49    5.39   0
  -2   9   2   14.02    9.42   0
  -1   9   2    6.90    6.09   0
   1  -9  -2    4.94    5.78   0
   0   9   2   -2.08    4.70   0
   0  -9  -2    3.64    4.32   0
  -1  -9  -2  105.97    4.96   0
   1   9   2   93.66    5.19   0
  -2  -9  -2   17.99    4.52   0
   2   9   2   15.72    5.00   0
   3   9   2    2.18    4.83   0
  -3  -9  -2    9.90    4.22   0
   4   9   2    0.10    5.00   0
  -4  -9  -2   -1.95    4.74   0
   5   9   2   19.96    4.93   0
  -1  10   2    2.77    7.43   0
   0  10   2    2.74    6.14   0
  -1 -10  -2    7.50    4.99   0
   1  10   2   12.48    5.29   0
  -2 -10  -2   -1.81    5.17   0
   2  10   2   -1.39    5.44   0
  -3  -9   3   21.51    5.03   0
   3   9  -3   11.52    4.98   0
  -2  -9   3   11.92    5.04   0
   2   9  -3   23.65    5.78   0
   1   9  -3    2.13    5.38   0
  -1  -9   3   -4.22    4.84   0
   0  -9   3    9.39    5.56   0
   0   9  -3   -3.54    5.42   0
  -1   9  -3    4.72    6.19   0
  -2   9  -3    2.51    7.08   0
   2  -9   3    3.45    6.76   0
   5   8  -3   -4.62    5.54   0
  -5  -8   3   -1.05    4.74   0
   4   8  -3  -10.26    4.75   0
  -4  -8   3    5.59    4.71   0
   3   8  -3    3.66    4.76   0
  -3  -8   3    2.64    4.27   0
   2   8  -3   10.36    4.77   0
  -2  -8   3    7.20    4.41   0
   1   8  -3   38.26    5.30   0
  -1  -8   3   45.58    4.79   0
   0   8  -3   97.18    5.30   0
   0  -8   3   73.51    4.66   0
  -1   8  -3  169.45    6.59   0
  -2   8  -3    1.82    6.45   0
   2  -8   3   -1.09    5.44   0
   3  -8   3   11.55    8.24   0
  -3   8  -3   12.34    5.19   0
  -4   8  -3   -7.98    5.07   0
  -6  -7   3   29.08    5.24   0
   6   7  -3   25.75    5.51   0
  -5  -7   3   38.67    4.26   0
   5   7  -3   39.13    4.66   0
  -4  -7   3   43.58    4.37   0
   4   7  -3   40.91    4.73   0
  -3  -7   3  106.01    4.12   0
   3   7  -3  100.59    4.78   0
  -2  -7   3  447.07    5.49   0
   2   7  -3  446.37    5.98   0
  -1  -7   3   36.52    3.95   0
   1   7  -3   43.57    4.96   0
   0  -7   3    5.84    4.44   0
   0   7  -3   -3.03    5.04   0
   1  -7   3   23.64    5.11   0
  -1   7  -3   33.09    5.85   0
  -2   7  -3    8.79    5.74   0
   2  -7   3   12.70    5.28   0
   3  -7   3    1.70    6.29   0
  -4   7  -3   -3.93    4.74   0
  -5   7  -3    8.18    5.03   0
  -7  -6   3    0.89    5.49   0
   7   6  -3    6.56    5.58   0
   6   6  -3   -1.65    4.72   0
  -6  -6   3   -2.92    4.13   0
   5   6  -3   -2.16    4.14   0
  -5  -6   3   -3.24    3.53   0
   4   6  -3    8.56    3.72   0
  -4  -6   3    6.89    3.79   0
   3   6  -3   23.69    4.31   0
  -3  -6   3   24.77    3.59   0
  -2  -6   3  149.17    4.39   0
   2   6  -3  174.54    4.76   0
   1   6  -3   22.22    4.42   0
  -1  -6   3   -0.33    4.02   0
   0  -6   3  139.60    4.45   0
   0   6  -3  134.11    4.89   0
  -1   6  -3  174.91    5.33   0
   1  -6   3  190.22    5.28   0
   2  -6   3  661.11    8.00   0
  -2   6  -3  688.76    8.99   0
   3  -6   3   -2.73    5.29   0
  -3   6  -3   -0.37    4.12   0
  -4   6  -3   44.32    4.60   0
  -5   6  -3   84.51    5.26   0
  -6   6  -3   20.74    5.25   0
  -7  -5   3    1.08    4.59   0
   7   5  -3   -1.20    5.14   0
   7   5  -3   -4.45    4.36   0
  -6  -5   3   18.31    4.62   0
   6   5  -3    7.77    4.41   0
  -5  -5   3   60.57    3.95   0
   5   5  -3   64.62    4.26   0
  -4  -5   3    3.16    3.62   0
   4   5  -3    3.83    3.90   0
  -3  -5   3   66.05    3.72   0
   3   5  -3   62.46    4.26   0
   2   5  -3   54.87    4.66   0
  -2  -5   3   47.84    4.04   0
  -1  -5   3  566.54    5.91   0
   1   5  -3  595.06    6.45   0
   0   5  -3   -0.43    4.74   0
   0  -5   3    3.71    3.81   0
  -1   5  -3    0.93    5.71   0
   1  -5   3    1.78    3.90   0
  -2   5  -3    3.45    5.75   0
   2  -5   3    3.59    4.87   0
   3  -5   3   11.08    5.37   0
  -3   5  -3   23.83    4.05   0
  -4   5  -3    3.32    4.16   0
   4  -5   3   14.91    9.70   0
   4  -5   3   13.25    9.72   0
  -5   5  -3   14.64    4.57   0
  -6   5  -3   27.45    4.60   0
  -7   5  -3    7.35    4.81   0
  -8  -4   3   17.93    5.31   0
   8   4  -3   20.53    5.22   0
   8   4  -3   24.07    5.66   0
   7   4  -3   55.85    5.40   0
   7   4  -3   50.93    4.23   0
  -7  -4   3   52.25    4.61   0
   6   4  -3  108.58    4.59   0
   6   4  -3  128.39    4.25   0
  -6  -4   3  112.65    4.26   0
   5   4  -3   78.00    4.15   0
  -5  -4   3   78.54    4.12   0
   4   4  -3    1.90    4.33   0
  -4  -4   3    8.42    3.80   0
  -3  -4   3   18.33    3.90   0
   3   4  -3   23.26    4.54   0
   2   4  -3  124.64    4.82   0
  -2  -4   3  127.88    4.20   0
   1   4  -3   89.86    4.86   0
  -1  -4   3   96.01    4.25   0
   0   4  -3  172.16    5.41   0
   0  -4   3  152.98    4.77   0
  -1   4  -3   63.53    5.10   0
   1  -4   3   43.38    5.02   0
  -2   4  -3   54.31    5.78   0
   3  -4   3   75.57    6.31   0
  -3   4  -3   85.72    4.49   0
  -4   4  -3   28.70    3.75   0
   4  -4   3   32.20    6.75   0
   4  -4   3   29.24    6.07   0
  -5   4  -3  114.08    4.54   0
  -6   4  -3  135.48    5.13   0
  -7   4  -3   -2.66    3.68   0
  -8  -3   3   11.45    4.56   0
   8   3  -3   24.70    5.56   0
   8   3  -3   25.24    4.47   0
   7   3  -3   51.22    4.49   0
   7   3  -3    4.86    4.34   0
  -7  -3   3   16.37    4.79   0
  -6  -3   3   22.41    3.84   0
   6   3  -3   16.74    3.88   0
   6   3  -3   36.35    4.14   0
  -5  -3   3   26.79    3.68   0
   5   3  -3   15.71    3.99   0
   4   3  -3  924.20    7.40   0
  -4  -3   3  954.67    7.26   0
   3   3  -3  398.98    5.71   0
  -3  -3   3  352.13    5.05   0
   2   3  -3 1493.96    8.87   0
  -2  -3   3 1480.60    8.63   0
   1   3  -3  498.84    5.74   0
  -1  -3   3  501.41    6.26   0
   0   3  -3  213.27    5.80   0
   0  -3   3  220.37    5.38   0
   1  -3   3  118.91    4.94   0
  -1   3  -3  129.18    5.33   0
  -2   3  -3   24.27    4.44   0
   3  -3   3  131.25    6.69   0
  -3   3  -3  135.22    4.55   0
   4  -3   3   68.74    5.56   0
  -4   3  -3   24.72    4.00   0
   4  -3   3   56.85    6.60   0
   5  -3   3   60.43    6.03   0
   5  -3   3  125.29    7.06   0
  -5   3  -3  142.23    4.55   0
   6  -3   3  883.19   13.79   0
   6  -3   3  808.65   13.58   0
  -6   3  -3  877.10    7.15   0
   7  -3   3   23.94    9.18   0
   7  -3   3   23.90    9.45   0
  -7   3  -3   14.42    4.39   0
  -8   3  -3   45.67    4.67   0
   8   2  -3   -0.98    4.36   0
   8   2  -3    5.00    5.04   0
  -8  -2   3    1.46    4.82   0
   7   2  -3   49.78    3.91   0
  -7  -2   3   47.86    4.56   0
   7   2  -3   52.12    4.98   0
   6   2  -3  124.33    4.75   0
  -6  -2   3  130.67    4.65   0
   6   2  -3  128.47    4.24   0
  -5  -2   3    1.68    3.88   0
   5   2  -3   -4.49    4.22   0
   5   2  -3   -1.95    3.68   0
   4   2  -3   99.65    4.51   0
  -4  -2   3   98.42    4.00   0
   3   2  -3   68.20    4.40   0
  -3  -2   3   59.03    4.05   0
   2   2  -3  108.05    4.87   0
  -2  -2   3   98.50    4.51   0
   1   2  -3  607.51    7.24   0
  -1  -2   3  597.21    6.99   0
   0   2  -3 1340.00    9.97   0
   0  -2   3 1352.94    9.90   0
  -1   2  -3   30.69    4.51   0
   1  -2   3   35.85    4.22   0
  -2   2  -3  798.28    7.56   0
   3  -2   3  121.16    4.55   0
  -3   2  -3  113.60    4.49   0
   4  -2   3   99.31    5.15   0
  -4   2  -3   85.72    4.15   0
   4  -2   3   97.93    5.60   0
  -5   2  -3  746.28    6.30   0
   5  -2   3  770.00    9.20   0
   5  -2   3  761.42    9.42   0
  -6   2  -3  536.18    5.98   0
   6  -2   3  546.64    8.35   0
   6  -2   3  560.88    8.91   0
   7  -2   3    0.13    5.00   0
   7  -2   3    4.19    5.79   0
  -7   2  -3    2.22    4.36   0
   8  -2   3    4.49    6.86   0
   8  -2   3    7.69    6.68   0
  -8  -1   3   19.85    4.89   0
   8   1  -3   23.11    4.36   0
   8   1  -3   31.72    5.17   0
   7   1  -3   35.23    3.91   0
  -7  -1   3   32.09    4.57   0
   7   1  -3   36.55    4.78   0
   6   1  -3    6.68    4.29   0
   6   1  -3    8.66    3.83   0
  -6  -1   3   10.76    3.90   0
  -5  -1   3   28.42    3.84   0
   5   1  -3   47.64    4.08   0
   5   1  -3   39.87    4.40   0
  -4  -1   3  237.02    5.09   0
   4   1  -3  234.94    5.43   0
   4   1  -3  239.75    4.75   0
   3   1  -3  361.60    5.98   0
  -3  -1   3  377.15    5.79   0
   3   1  -3  351.69    5.47   0
   2   1  -3 1241.40    9.13   0
  -2  -1   3 1236.36    9.06   0
  -1  -1   3   25.48    5.01   0
   1   1  -3   20.00    5.17   0
   0  -1   3  272.30    7.06   0
   0   1  -3  270.99    6.95   0
  -1   1  -3   20.83    4.60   0
   1  -1   3   21.32    4.79   0
   2  -1   3   89.35    4.58   0
  -2   1  -3   77.75    4.46   0
   3  -1   3  229.04    5.89   0
   3  -1   3  222.76    5.13   0
  -3   1  -3  214.10    5.16   0
   4  -1   3  -10.62    4.04   0
   4  -1   3    1.69    4.43   0
  -4   1  -3    6.15    4.33   0
   5  -1   3  135.05    4.90   0
  -5   1  -3  133.45    4.48   0
   5  -1   3  131.47    4.52   0
   6  -1   3  297.79    4.82   0
  -6   1  -3  296.63    4.91   0
   6  -1   3  297.26    5.88   0
   7  -1   3   40.15    4.23   0
   7  -1   3   47.76    4.61   0
   8  -1   3   44.01    4.62   0
   8  -1   3   45.69    6.12   0
   8   0  -3    4.79    5.68   0
   8   0  -3   -2.01    4.27   0
  -8   0   3    0.91    5.35   0
   7   0  -3    0.15    4.39   0
   7   0  -3    7.54    3.87   0
  -7   0   3    4.35    4.06   0
   6   0  -3  421.97    5.05   0
   6   0  -3  427.94    5.99   0
  -6   0   3  421.04    5.79   0
   5   0  -3   91.21    4.78   0
   5   0  -3  127.48    3.83   0
  -5   0   3  105.40    4.36   0
   4   0  -3   31.11    4.46   0
  -4   0   3   16.81    3.88   0
   4   0  -3   38.59    3.97   0
   3   0  -3   29.65    4.62   0
  -3   0   3   25.11    4.33   0
   3   0  -3   28.90    4.03   0
  -2   0   3  154.98    5.20   0
   2   0  -3  153.23    4.90   0
   2   0  -3  148.36    5.35   0
  -1   0   3    5.39    6.04   0
   1   0  -3   19.67    5.95   0
   0   0  -3 1940.19   13.83   0
   0   0   3 1810.50   13.54   0
   2   0   3  216.44    5.32   0
   2   0   3  209.90    5.48   0
  -2   0  -3  207.77    5.45   0
   3   0   3  344.38    5.67   0
   3   0   3  359.57    5.92   0
  -3   0  -3  329.36    5.80   0
   4   0   3  674.98    7.01   0
  -4   0  -3  637.94    6.31   0
   4   0   3  660.57    6.36   0
   5   0   3 1871.16    9.12   0
   5   0   3 1844.75   11.29   0
   6   0   3  718.13    7.67   0
   6   0   3  719.09    5.94   0
   7   0   3    1.13    3.99   0
   7   0   3   10.24    4.28   0
   8   0   3    3.88    4.91   0
   8   0   3   -0.63    4.73   0
   8  -1  -3   30.00    4.76   0
  -8   1   3   31.85    5.51   0
   8  -1  -3   33.82    6.33   0
  -7   1   3    8.10    4.91   0
   7  -1  -3    1.93    3.82   0
   7  -1  -3    4.18    4.68   0
   6  -1  -3    5.22    4.85   0
   6  -1  -3    8.45    3.59   0
  -6   1   3    5.39    4.42   0
  -5   1   3   23.48    4.72   0
   5  -1  -3   20.81    5.44   0
   5  -1  -3   21.51    2.94   0
   4  -1  -3  199.89    6.41   0
  -4   1   3  209.21    5.74   0
   4  -1  -3  208.93    4.58   0
  -4   1   3  205.13    4.45   0
   3  -1  -3   43.52    5.31   0
  -3   1   3   22.34    5.11   0
   3  -1  -3   38.81    4.03   0
  -3   1   3   40.27    4.10   0
   2  -1  -3 2359.88   14.54   0
  -2   1   3 2480.24   15.52   0
  -2   1   3 2361.90   12.10   0
   2  -1  -3 2461.22   12.28   0
  -1   1   3    2.03    5.33   0
   1  -1  -3    0.54    4.71   0
  -1   1   3    9.51    4.96   0
   1   1   3   80.70    5.17   0
  -2  -1  -3  670.31    7.18   0
   2   1   3  660.30    7.09   0
   2   1   3  451.26    9.32   0
   3   1   3  739.94    7.28   0
  -3  -1  -3  736.79    7.03   0
   3   1   3  725.06    7.08   0
  -4  -1  -3   44.82    3.66   0
   4   1   3   44.56    3.80   0
   4   1   3   46.33    4.18   0
   5   1   3  142.58    4.48   0
   5   1   3  156.93    4.54   0
  -5  -1  -3  148.85    4.33   0
   6   1   3  596.96    5.71   0
  -6  -1  -3  565.20    6.19   0
   6   1   3  562.64    6.52   0
  -7  -1  -3   31.41    4.19   0
   7   1   3   30.72    4.12   0
   7   1   3   33.29    5.02   0
  -8  -1  -3   94.40    4.94   0
   8   1   3   98.07    4.90   0
   8   1   3   94.15    5.87   0
   9   1   3   -7.94    5.03   0
   8  -2  -3   62.87    7.30   0
   8  -2  -3   61.11    4.52   0
  -8   2   3   68.36    7.16   0
  -7   2   3   -0.02    4.96   0
   7  -2  -3    1.70    5.78   0
   7  -2  -3   -1.72    3.60   0
  -6   2   3  146.50    4.41   0
   6  -2  -3  163.32    4.45   0
  -6   2   3  100.24    6.29   0
   6  -2  -3  185.74    6.72   0
   5  -2  -3  525.44    9.00   0
  -5   2   3  548.20    5.66   0
   5  -2  -3  533.55    4.86   0
  -5   2   3  536.78    8.67   0
  -4   2   3   42.79    5.44   0
   4  -2  -3   43.23    3.92   0
  -4   2   3   39.75    4.06   0
   4  -2  -3   39.33    6.19   0
  -3   2   3    7.20    4.47   0
   3  -2  -3    5.74    3.80   0
  -3   2   3    8.92    4.01   0
   3  -2  -3    7.67    5.14   0
  -2   2   3   93.43    4.63   0
  -2   2   3   85.36    6.52   0
  -1   2   3    3.12    3.94   0
  -1   2   3    4.22    4.41   0
   0   2   3 1793.68   12.39   0
   1   2   3  163.01    4.77   0
  -1  -2  -3  171.39    5.10   0
  -2  -2  -3  840.90    7.39   0
   2   2   3  925.90    7.71   0
   3   2   3 3153.26   12.02   0
  -3  -2  -3 3218.55   12.50   0
   4   2   3  283.52    5.07   0
   4   2   3  266.76    4.68   0
  -4  -2  -3  272.13    4.76   0
   5   2   3 1536.64    8.71   0
  -5  -2  -3 1565.10    8.48   0
   5   2   3 1549.89    8.12   0
   6   2   3  202.66    4.47   0
  -6  -2  -3  185.11    4.38   0
   6   2   3  191.56    4.98   0
   7   2   3   16.27    4.11   0
  -7  -2  -3   22.28    4.27   0
   7   2   3   20.36    4.23   0
  -8  -2  -3    5.95    4.44   0
   8   2   3   12.67    4.75   0
   8   2   3    1.64    4.79   0
   9   2   3    1.20    5.55   0
  -7   3   3   42.10    4.50   0
  -6   3   3   24.79    3.89   0
  -5   3   3  676.92    5.92   0
  -4   3   3  526.21    6.05   0
  -3   3   3  415.65   14.58   0
  -3   3   3  451.43   14.22   0
  -3   3   3  441.17    5.58   0
  -2   3   3 1996.45   20.85   0
  -2   3   3 2289.99   11.21   0
  -2   3   3 2047.61   18.44   0
  -1   3   3 2944.90   17.41   0
   0   3   3 2208.21   12.71   0
   0  -3  -3 2342.52   13.15   0
   1   3   3  146.95    4.41   0
  -1  -3  -3  159.84    4.59   0
   2   3   3 2026.54   10.06   0
  -2  -3  -3 2049.48   10.21   0
   3   3   3  345.21    5.11   0
  -3  -3  -3  345.13    4.97   0
   4   3   3   25.29    3.49   0
  -4  -3  -3   23.34    3.38   0
   5   3   3    7.20    3.72   0
   5   3   3    1.88    4.02   0
  -5  -3  -3    3.41    3.46   0
   6   3   3  512.53    5.70   0
  -6  -3  -3  520.05    5.79   0
   6   3   3  506.72    6.01   0
  -7  -3  -3    7.67    3.82   0
   7   3   3   15.34    4.07   0
   7   3   3    6.28    3.94   0
  -8  -3  -3   15.57    4.64   0
   8   3   3    9.88    4.93   0
   8   3   3   19.11    4.60   0
  -7   4   3   15.87    4.74   0
  -6   4   3  161.51    4.51   0
  -5   4   3   -4.14    3.64   0
  -4   4   3    5.07    3.71   0
  -3   4   3   35.72    4.06   0
  -2   4   3   26.64    6.30   0
  -2   4   3   25.63    3.96   0
  -2   4   3   26.22    7.72   0
  -1   4   3   37.14    4.30   0
   0   4   3  289.61    5.80   0
   0  -4  -3  378.86    5.88   0
  -1  -4  -3   76.84    4.11   0
   1   4   3   75.35    4.11   0
  -2  -4  -3  629.23    6.19   0
   2   4   3  600.10    6.09   0
   3   4   3   15.73    3.64   0
  -3  -4  -3   13.13    3.51   0
   4   4   3   31.57    3.88   0
  -4  -4  -3   26.74    3.54   0
   5   4   3   -1.24    3.60   0
  -5  -4  -3    5.36    3.39   0
  -6  -4  -3  533.47    5.41   0
   6   4   3  529.00    5.84   0
   6   4   3  506.63    5.74   0
   7   4   3   -2.41    4.55   0
  -7  -4  -3    6.86    3.96   0
   7   4   3    3.96    4.41   0
  -8  -4  -3   -1.89    4.89   0
   8   4   3    0.19    4.38   0
   8   4   3    6.08    5.01   0
  -7   5   3   21.00    4.72   0
  -6   5   3    3.92    4.56   0
  -5   5   3    5.09    4.05   0
  -4   5   3   61.95    4.17   0
  -3   5   3  155.80    4.92   0
  -2   5   3  352.08   10.06   0
  -2   5   3  360.51   10.20   0
   1  -5  -3   70.38    4.97   0
  -1   5   3   60.89    5.05   0
   0  -5  -3    1.21    3.46   0
   0   5   3    2.23    3.64   0
   1   5   3   97.51    4.14   0
  -1  -5  -3  101.34    4.05   0
   2   5   3  240.43    4.63   0
  -2  -5  -3  272.09    4.64   0
   3   5   3  322.67    4.98   0
  -3  -5  -3  319.64    5.03   0
  -4  -5  -3    0.65    3.29   0
   4   5   3    4.17    2.68   0
  -5  -5  -3    8.45    3.62   0
   5   5   3   13.50    3.45   0
  -6  -5  -3    4.40    3.80   0
   6   5   3    5.20    3.88   0
  -7  -5  -3   -1.75    4.37   0
   7   5   3    5.38    4.51   0
   7   5   3   -9.97    4.39   0
  -8  -5  -3   -1.49    4.89   0
   8   5   3   -6.83    4.90   0
   8   5   3    4.99    5.02   0
  -6   6   3   10.63    5.22   0
  -5   6   3   15.62    4.56   0
  -4   6   3    7.55    4.08   0
  -3   6   3   10.96    3.84   0
  -2   6   3   30.75    7.31   0
   1  -6  -3    7.96    4.61   0
  -1   6   3    0.85    5.32   0
   0  -6  -3  534.88    6.86   0
   0   6   3  498.03    7.19   0
   1   6   3  103.30    4.83   0
  -1  -6  -3  106.23    4.08   0
  -2  -6  -3   29.70    3.63   0
   2   6   3   27.29    3.83   0
  -3  -6  -3   19.89    3.38   0
   3   6   3   20.84    3.43   0
   4   6   3   75.97    3.95   0
  -4  -6  -3   76.10    3.95   0
  -5  -6  -3   82.67    3.95   0
   5   6   3   82.05    3.98   0
  -6  -6  -3   10.85    3.92   0
   6   6   3    4.95    4.21   0
   7   6   3   12.24    4.83   0
   7   6   3    6.19    4.60   0
  -7  -6  -3    5.87    4.56   0
  -5   7   3    1.75    5.20   0
  -4   7   3    7.12    4.10   0
  -3   7   3    1.80    4.12   0
  -2   7   3   -1.33    7.18   0
   1  -7  -3   20.44    4.31   0
  -1   7   3   13.88    4.93   0
   0  -7  -3  467.76    6.36   0
   0   7   3  429.64    6.04   0
   1   7   3   90.08    4.40   0
  -1  -7  -3   99.25    4.16   0
  -2  -7  -3  211.75    4.90   0
   2   7   3  205.91    4.75   0
   3   7   3   13.51    4.08   0
  -3  -7  -3    6.38    3.47   0
   4   7   3   -1.52    4.01   0
  -4  -7  -3    0.11    3.60   0
   5   7   3    8.77    3.72   0
  -5  -7  -3    9.80    3.90   0
   6   7   3    3.05    4.06   0
  -6  -7  -3   -0.91    3.97   0
  -7  -7  -3   21.52    5.29   0
   7   7   3   14.16    5.40   0
  -4   8   3   -5.00    4.75   0
  -3   8   3   15.95    4.70   0
  -2   8   3   10.85    7.77   0
   1  -8  -3   32.36    5.05   0
  -1   8   3   30.23    5.45   0
   0   8   3    5.47    5.26   0
   0  -8  -3   -1.21    4.63   0
   1   8   3   36.74    4.81   0
  -1  -8  -3   30.76    4.09   0
  -2  -8  -3   60.17    4.49   0
   2   8   3   54.30    4.22   0
  -3  -8  -3   80.42    4.19   0
   3   8   3   65.72    4.42   0
  -4  -8  -3   -2.65    4.38   0
   4   8   3    2.86    4.15   0
   5   8   3   17.50    4.33   0
  -5  -8  -3   15.48    4.60   0
   6   8   3   19.28    5.43   0
  -6  -8  -3   17.51    4.70   0
  -3   9   3   36.20    5.56   0
  -2   9   3   21.98   10.51   0
  -1   9   3    2.31    5.67   0
   0  -9  -3    1.99    4.86   0
   0   9   3   -4.36    5.19   0
  -1  -9  -3    2.81    4.46   0
   1   9   3    6.29    4.60   0
   2   9   3   58.86    4.93   0
  -2  -9  -3   69.04    4.71   0
   3   9   3    0.34    4.94   0
  -3  -9  -3   -4.68    4.15   0
   4   9   3   15.11    4.89   0
  -4  -9  -3    0.78    4.79   0
   5   9   3    2.68    5.18   0
  -5  -9  -3    5.93    5.06   0
  -1  10   3    3.83    6.99   0
   0  10   3    7.83    6.09   0
   1  10   3   26.14    5.98   0
  -1 -10  -3   18.87    5.78   0
   2  10   3   29.89    5.64   0
  -2 -10  -3   33.56    5.38   0
  -2  -9   4   19.84    5.58   0
   2   9  -4   27.79    5.82   0
  -1  -9   4   -9.17    5.47   0
   1   9  -4    0.55    5.51   0
   0  -9   4   -4.39    5.12   0
   0   9  -4    5.18    5.66   0
  -1   9  -4    5.31    6.38   0
   4   8  -4   18.00    4.71   0
  -4  -8   4   30.18    4.57   0
  -3  -8   4    0.23    4.56   0
   3   8  -4    0.01    4.90   0
  -2  -8   4    0.85    4.62   0
   2   8  -4   -5.47    5.06   0
   1   8  -4    4.63    4.88   0
  -1  -8   4    9.50    4.37   0
   0   8  -4   -1.98    5.60   0
   0  -8   4    3.96    4.49   0
   1  -8   4    3.84    5.60   0
  -1   8  -4   -0.75    5.12   0
  -2   8  -4    8.50    6.43   0
   2  -8   4    4.48    5.42   0
  -3   8  -4    2.46    4.76   0
   3  -8   4    3.72    7.08   0
  -5  -7   4   49.30    4.87   0
   5   7  -4   44.28    4.89   0
  -4  -7   4   10.83    4.27   0
   4   7  -4    7.66    4.99   0
   3   7  -4    4.37    4.84   0
  -3  -7   4   -0.55    4.47   0
  -2  -7   4   62.17    4.41   0
   2   7  -4  101.74    5.00   0
  -1  -7   4   11.83    3.87   0
   1   7  -4    6.17    4.55   0
   0  -7   4   -0.99    4.20   0
   0   7  -4   -0.42    4.52   0
   1  -7   4   35.05    4.89   0
  -1   7  -4   32.01    5.52   0
  -2   7  -4  236.22    7.28   0
   2  -7   4  217.60    6.48   0
   3  -7   4    5.47    5.68   0
  -3   7  -4    5.87    5.02   0
  -4   7  -4    4.12    5.08   0
  -5   7  -4   -3.93    4.93   0
   6   6  -4   21.98    5.26   0
  -6  -6   4   25.68    4.90   0
   5   6  -4   -1.99    4.28   0
  -5  -6   4   -3.88    4.05   0
   4   6  -4   13.61    4.37   0
  -4  -6   4   28.00    3.84   0
  -3  -6   4   -7.58    3.40   0
   3   6  -4   -5.86    3.97   0
  -2  -6   4  179.03    4.56   0
   2   6  -4  201.81    5.07   0
   1   6  -4   34.52    4.50   0
  -1  -6   4   21.51    4.06   0
   0   6  -4    8.45    4.32   0
   0  -6   4    8.53    3.75   0
   1  -6   4  128.12    4.66   0
  -1   6  -4  138.22    5.76   0
  -2   6  -4  342.47    7.26   0
  -3   6  -4    4.32    4.22   0
   3  -6   4    1.69    4.65   0
   4  -6   4   -0.01    8.28   0
   4  -6   4    0.87    7.60   0
  -4   6  -4    3.43    4.95   0
  -5   6  -4   67.13    5.24   0
  -6   6  -4   63.54    5.65   0
  -7  -5   4   -5.01    4.91   0
   7   5  -4   -0.09    5.23   0
   7   5  -4   -2.44    5.17   0
  -6  -5   4    6.78    4.40   0
   6   5  -4   10.62    4.64   0
  -5  -5   4   36.65    3.82   0
   5   5  -4   35.28    4.20   0
  -4  -5   4    2.98    3.49   0
   4   5  -4   21.02    3.93   0
   3   5  -4   51.91    4.13   0
  -3  -5   4   55.88    3.69   0
   2   5  -4  123.07    5.13   0
  -2  -5   4  135.46    4.47   0
   1   5  -4   13.23    4.77   0
  -1  -5   4    5.25    3.87   0
   0   5  -4    8.13    5.31   0
   0  -5   4   -2.56    3.68   0
   1  -5   4  116.05    4.49   0
  -1   5  -4  112.30    5.83   0
  -2   5  -4   -6.41    4.43   0
  -3   5  -4  183.71    5.42   0
   3  -5   4   96.58    5.76   0
   4  -5   4   57.73    7.14   0
   4  -5   4   63.64    6.96   0
  -4   5  -4   51.28    5.08   0
  -5   5  -4   -2.93    4.84   0
  -6   5  -4  195.46    5.97   0
   7   4  -4   -0.34    4.60   0
   7   4  -4   -2.64    4.79   0
  -7  -4   4    0.38    4.75   0
   6   4  -4   44.21    4.11   0
  -6  -4   4   53.77    4.53   0
   6   4  -4   46.18    4.73   0
  -5  -4   4   52.82    4.04   0
   5   4  -4   60.24    4.25   0
  -4  -4   4  455.33    4.64   0
   4   4  -4  496.60    5.56   0
   3   4  -4  647.59    6.58   0
  -3  -4   4  633.54    6.19   0
   2   4  -4  131.72    5.00   0
  -2  -4   4  127.39    4.39   0
   1   4  -4  384.46    5.66   0
  -1  -4   4  381.65    5.28   0
   0   4  -4  443.87    6.36   0
   0  -4   4  411.91    5.75   0
   1  -4   4    2.56    4.27   0
  -1   4  -4  -10.35    5.08   0
  -2   4  -4    2.61    4.47   0
   3  -4   4  188.63    6.17   0
  -3   4  -4  191.23    4.96   0
  -4   4  -4   61.16    4.07   0
   4  -4   4   47.20    6.10   0
   4  -4   4   48.63    6.09   0
  -5   4  -4  233.23    5.38   0
   5  -4   4  235.20    9.25   0
   5  -4   4  232.24    9.10   0
  -6   4  -4  172.25    5.50   0
  -7   4  -4   -8.06    4.35   0
   8   3  -4    9.31    5.12   0
   8   3  -4   14.73    4.97   0
  -8  -3   4    4.34    5.49   0
   7   3  -4   19.25    4.49   0
   7   3  -4   -6.09    4.61   0
  -7  -3   4    8.83    4.41   0
   6   3  -4   17.75    4.46   0
   6   3  -4   15.48    4.02   0
  -6  -3   4   21.70    4.33   0
  -5  -3   4    0.30    3.74   0
   5   3  -4   -1.14    3.74   0
   4   3  -4  486.97    5.83   0
  -4  -3   4  525.00    5.74   0
  -3  -3   4   -3.48    3.80   0
   3   3  -4    8.05    4.39   0
  -2  -3   4   32.37    3.87   0
   2   3  -4   33.22    3.23   0
  -1  -3   4   60.74    4.38   0
   1   3  -4   58.65    3.56   0
   0   3  -4   44.48    4.74   0
   0  -3   4   -0.42    4.27   0
   1  -3   4  387.08    6.19   0
  -1   3  -4  595.35    7.30   0
  -2   3  -4   57.75    5.34   0
  -3   3  -4   84.63    4.29   0
  -4   3  -4  206.47    5.09   0
   4  -3   4  208.04    6.27   0
   4  -3   4  190.16    6.50   0
   5  -3   4   14.75    5.72   0
  -5   3  -4   22.24    4.17   0
   5  -3   4    8.72    5.17   0
   6  -3   4   -2.20    6.36   0
  -6   3  -4   -0.57    4.15   0
   6  -3   4    3.21    5.90   0
   7  -3   4  191.50    9.25   0
  -7   3  -4  226.24    5.26   0
   7  -3   4  216.07    9.95   0
  -8   3  -4    1.42    4.77   0
   8   2  -4    7.79    5.25   0
   8   2  -4    9.49    4.95   0
  -8  -2   4    8.59    5.11   0
   7   2  -4   -3.36    4.25   0
   7   2  -4   -5.29    4.01   0
  -7  -2   4   -9.05    4.97   0
  -6  -2   4   77.69    4.48   0
   6   2  -4   71.49    3.98   0
   6   2  -4   78.56    5.12   0
  -5  -2   4   -1.30    3.62   0
   5   2  -4   -4.08    3.99   0
   5   2  -4    0.28    3.53   0
   4   2  -4   -7.36    4.29   0
  -4  -2   4   -2.01    3.80   0
   3   2  -4  167.36    4.81   0
  -3  -2   4  180.97    4.68   0
   2   2  -4  351.59    5.82   0
  -2  -2   4  353.80    5.51   0
   1   2  -4 1801.69   10.10   0
  -1  -2   4 1864.40   10.16   0
   0  -2   4  336.52    6.10   0
   0   2  -4  334.71    6.02   0
   1  -2   4  511.10    7.50   0
  -1   2  -4  463.72    9.12   0
   2  -2   4  505.58    7.52   0
  -2   2  -4  575.94    6.79   0
  -3   2  -4  233.92    5.09   0
  -4   2  -4   47.37    4.09   0
   4  -2   4   46.72    4.88   0
  -5   2  -4  403.74    5.44   0
   5  -2   4  386.67    7.15   0
   5  -2   4  387.41    7.14   0
   6  -2   4  239.44    6.61   0
  -6   2  -4  242.11    5.12   0
   6  -2   4  236.60    6.51   0
  -7   2  -4    7.48    4.03   0
   7  -2   4    8.88    5.75   0
   7  -2   4    6.62    5.59   0
   8  -2   4    4.96    6.93   0
   8  -2   4    4.76    6.43   0
   8   1  -4   81.80    5.39   0
   8   1  -4   85.74    4.74   0
  -8  -1   4   77.57    6.09   0
   7   1  -4   -4.16    4.52   0
   7   1  -4   -0.20    4.19   0
  -7  -1   4   -2.32    4.42   0
   6   1  -4  464.70    6.01   0
  -6  -1   4  457.31    5.94   0
   6   1  -4  473.42    5.35   0
   5   1  -4   26.17    4.16   0
  -5  -1   4   21.95    4.00   0
   5   1  -4   25.31    4.29   0
  -4  -1   4  549.64    6.19   0
   4   1  -4  520.14    6.15   0
   4   1  -4  510.98    5.54   0
   3   1  -4  246.58    4.45   0
   3   1  -4  256.33    4.90   0
  -3  -1   4  247.50    5.17   0
   2   1  -4  146.37    5.05   0
  -2  -1   4   93.63    4.61   0
   1   1  -4   48.42    4.31   0
  -1  -1   4   42.91    4.65   0
   0   1  -4   46.16    3.41   0
   0  -1   4   42.98    3.75   0
  -1   1  -4    4.03    4.09   0
   1  -1   4    1.27    4.19   0
  -2   1  -4  103.77    4.97   0
   2  -1   4  109.27    5.55   0
   3  -1   4  678.49    7.41   0
  -3   1  -4  668.49    6.91   0
   3  -1   4  673.24    7.36   0
   4  -1   4  229.95    5.82   0
  -4   1  -4  225.50    5.11   0
   4  -1   4  228.19    5.00   0
  -5   1  -4   11.55    3.94   0
   5  -1   4   13.08    3.90   0
   5  -1   4   15.36    4.55   0
   6  -1   4  247.42    6.22   0
  -6   1  -4  248.51    4.84   0
   6  -1   4  267.01    4.96   0
   7  -1   4    6.95    5.04   0
   7  -1   4    0.97    4.08   0
   8  -1   4    2.80    5.47   0
  -8   0   4    4.78    4.92   0
   8   0  -4   28.76    5.79   0
   8   0  -4    9.17    4.58   0
   7   0  -4   -6.08    5.00   0
   7   0  -4    1.68    4.16   0
  -7   0   4    0.72    4.72   0
   6   0  -4   95.01    4.83   0
  -6   0   4  109.74    4.75   0
   6   0  -4  104.27    4.05   0
   5   0  -4    2.33    5.02   0
  -5   0   4   -1.31    3.78   0
   5   0  -4    1.13    3.81   0
   4   0  -4  333.40    4.99   0
  -4   0   4  360.10    5.80   0
   4   0  -4  334.23    5.83   0
  -3   0   4  599.63    7.10   0
   3   0  -4  601.23    6.44   0
   3   0  -4  591.46    7.32   0
   2   0  -4 2223.18   11.88   0
  -2   0   4 2367.35   12.27   0
   2   0  -4 2248.61   11.76   0
  -1   0   4 1060.90   13.20   0
   1   0  -4-1523.08   24.71   0
   0   0  -4 2815.62   14.00   0
   0   0   4 2589.23   13.58   0
   2   0   4  681.44    8.12   0
  -2   0  -4  662.55    7.95   0
   3   0   4 1118.54    8.62   0
  -3   0  -4 1092.30    8.44   0
   3   0   4 1147.16    8.71   0
   4   0   4  153.55    4.42   0
   4   0   4  156.57    4.69   0
  -4   0  -4  155.69    4.68   0
   5   0   4  332.45    5.43   0
   5   0   4  335.88    5.62   0
   6   0   4   91.34    4.26   0
   6   0   4   91.51    4.23   0
   7   0   4    0.76    4.17   0
   7   0   4    7.76    4.01   0
   8   0   4    2.32    4.39   0
   8   0   4   -4.72    5.67   0
  -8   1   4   63.73    5.85   0
   8  -1  -4   57.90    6.81   0
   8  -1  -4   63.53    5.09   0
   7  -1  -4  143.86    6.30   0
   7  -1  -4  151.10    4.58   0
  -7   1   4  144.16    5.19   0
   6  -1  -4   87.91    5.62   0
  -6   1   4   89.56    4.51   0
   6  -1  -4   85.01    3.85   0
   5  -1  -4   87.77    4.71   0
  -5   1   4   89.50    4.89   0
   5  -1  -4   94.17    4.20   0
   4  -1  -4  161.08    5.55   0
  -4   1   4  170.04    4.25   0
   4  -1  -4  149.09    3.76   0
  -4   1   4  152.81    5.87   0
   3  -1  -4  154.03    5.28   0
  -3   1   4  134.95    4.49   0
   3  -1  -4  173.56    4.70   0
  -3   1   4  110.99    5.00   0
   2  -1  -4  790.05    7.70   0
  -2   1   4  811.65    8.69   0
  -2   1   4  796.25    7.69   0
   2  -1  -4  789.09    8.28   0
  -1   1   4   33.96    4.34   0
   1  -1  -4   36.34    4.29   0
  -1   1   4   34.30    4.70   0
   0   1   4   47.66    4.95   0
   0   1   4   39.96    7.31   0
   2   1   4 1018.61   11.38   0
   2   1   4 1152.22    8.47   0
   3   1   4  915.78    7.54   0
   3   1   4  930.09    8.10   0
  -4  -1  -4    7.42    3.45   0
   4   1   4    8.09    4.08   0
   4   1   4    7.74    3.33   0
   5   1   4   84.42    4.06   0
  -5  -1  -4   98.25    3.87   0
   5   1   4   98.04    4.32   0
   6   1   4   -3.49    4.50   0
  -6  -1  -4    0.76    3.64   0
   6   1   4    4.75    3.50   0
   7   1   4   27.54    4.16   0
   7   1   4   21.58    4.50   0
   8   1   4   11.50    4.45   0
   8   1   4   15.54    5.43   0
  -8   2   4    3.41    6.70   0
   8  -2  -4    6.59    6.94   0
   8  -2  -4    8.31    4.52   0
  -7   2   4   20.48    5.92   0
   7  -2  -4   22.54    4.02   0
   7  -2  -4   21.65    6.09   0
  -6   2   4   69.93    3.96   0
   6  -2  -4   92.64    4.15   0
  -6   2   4   67.22    5.28   0
   6  -2  -4   93.96    6.04   0
  -5   2   4    2.70    4.58   0
   5  -2  -4   -2.50    3.85   0
  -5   2   4   -4.92    3.48   0
   5  -2  -4   -5.58    5.13   0
   4  -2  -4  341.41    5.09   0
   4  -2  -4  315.40    7.24   0
  -4   2   4  350.92    7.31   0
  -4   2   4  343.66    5.18   0
  -3   2   4   79.98    5.72   0
  -3   2   4   93.54    4.36   0
   3  -2  -4   76.89    4.13   0
   3  -2  -4   73.20    5.63   0
  -2   2   4  153.32    4.97   0
   2  -2  -4  137.55    5.00   0
  -2   2   4  142.20    6.51   0
  -1   2   4   68.71    5.47   0
  -1   2   4   71.72    5.17   0
   1   2   4   80.41    4.11   0
   2   2   4 1441.16    8.94   0
  -2  -2  -4 1512.25    9.14   0
  -3  -2  -4   41.66    3.78   0
   3   2   4   37.02    3.73   0
  -4  -2  -4   40.04    3.48   0
   4   2   4   45.33    3.66   0
   4   2   4   41.18    4.10   0
   5   2   4  202.58    4.60   0
   5   2   4  230.36    4.97   0
  -5  -2  -4  217.39    4.42   0
   6   2   4   27.20    3.96   0
   6   2   4    7.80    3.97   0
  -6  -2  -4   16.03    3.71   0
   7   2   4    2.82    3.98   0
   7   2   4    6.12    4.10   0
  -7  -2  -4    4.15    3.82   0
   8   2   4   -4.37    4.49   0
  -8  -2  -4   -3.76    4.67   0
   8   2   4    8.63    4.72   0
  -7   3   4    3.39    4.18   0
  -6   3   4  106.37    8.92   0
  -6   3   4  207.82    5.13   0
  -5   3   4  689.49   11.76   0
  -5   3   4  719.82    6.11   0
  -4   3   4  807.57   12.43   0
  -4   3   4  844.76    6.66   0
  -3   3   4   12.18    5.99   0
  -3   3   4    8.64    4.13   0
  -2   3   4  720.93   11.32   0
  -2   3   4  804.64    7.53   0
  -1   3   4  639.02    7.94   0
   0   3   4   36.14    3.57   0
  -1  -3  -4   87.86    4.23   0
   1   3   4   81.31    4.15   0
   2   3   4 1688.06    9.13   0
  -2  -3  -4 1762.34    9.36   0
  -3  -3  -4    5.33    3.57   0
   3   3   4    6.27    3.61   0
  -4  -3  -4  103.18    3.74   0
   4   3   4   95.58    3.84   0
   5   3   4   82.96    4.03   0
  -5  -3  -4   88.92    3.86   0
   5   3   4   73.19    4.26   0
   6   3   4  483.96    5.80   0
  -6  -3  -4  529.57    5.75   0
   6   3   4  498.07    5.72   0
   7   3   4    9.79    4.27   0
   7   3   4   -6.32    4.28   0
  -7  -3  -4    1.06    4.39   0
   8   3   4    6.15    4.45   0
  -8  -3  -4    8.69    4.32   0
   8   3   4    7.83    4.90   0
  -7   4   4   -4.74    4.71   0
  -6   4   4   11.53    4.35   0
  -5   4   4    8.47    3.63   0
  -4   4   4   41.36    4.00   0
  -3   4   4   13.48    4.05   0
  -2   4   4  141.18    4.55   0
  -2   4   4  125.74    7.26   0
  -2   4   4  124.80    5.94   0
  -1   4   4   18.55    4.00   0
   0   4   4  671.25    7.40   0
   0  -4  -4  920.61    8.11   0
  -1  -4  -4    2.25    3.49   0
   1   4   4    1.19    3.46   0
  -2  -4  -4  836.61    6.78   0
   2   4   4  791.62    6.61   0
  -3  -4  -4  131.61    3.99   0
   3   4   4  124.83    3.99   0
   4   4   4   61.52    3.90   0
  -4  -4  -4   54.59    3.70   0
   5   4   4  122.65    4.04   0
  -5  -4  -4  129.75    3.14   0
   6   4   4    5.69    3.99   0
   6   4   4    0.26    3.55   0
  -6  -4  -4   -0.21    3.67   0
  -7  -4  -4   -1.02    4.35   0
   7   4   4    3.44    4.06   0
   7   4   4    4.60    4.64   0
   8   4   4   15.62    4.41   0
   8   4   4   13.37    5.20   0
  -8  -4  -4   17.79    5.02   0
  -7   5   4   -2.47    5.24   0
  -6   5   4   35.15    4.81   0
  -5   5   4    9.12    4.21   0
  -4   5   4  107.14    4.50   0
  -3   5   4    7.75    3.91   0
  -2   5   4   46.37    5.56   0
  -2   5   4   51.23    6.55   0
  -1   5   4   12.72    4.40   0
   0   5   4   14.01    4.14   0
   0  -5  -4   10.80    3.62   0
  -1  -5  -4   38.90    3.61   0
   1   5   4   38.67    3.60   0
   2   5   4  226.24    4.36   0
  -2  -5  -4  243.19    4.55   0
  -3  -5  -4  655.08    6.26   0
   3   5   4  599.44    6.14   0
  -4  -5  -4   20.67    3.51   0
   4   5   4   20.67    3.48   0
   5   5   4   30.47    3.81   0
  -5  -5  -4   40.29    3.60   0
  -6  -5  -4   34.02    3.90   0
   6   5   4   11.37    3.92   0
   7   5   4   36.29    4.65   0
  -7  -5  -4   26.13    4.53   0
   7   5   4   25.59    4.70   0
  -8  -5  -4    1.15    5.13   0
   8   5   4    0.31    5.06   0
   8   5   4    4.90    5.17   0
  -6   6   4    1.57    4.55   0
  -5   6   4   -1.60    4.18   0
  -4   6   4    2.28    4.11   0
  -3   6   4   52.57    4.42   0
  -2   6   4  284.60    9.21   0
  -2   6   4  264.68    8.61   0
  -1   6   4  190.17    5.92   0
   0   6   4 1453.75    9.55   0
   0  -6  -4 1587.43    9.82   0
   1   6   4 1133.84    7.82   0
  -1  -6  -4 1210.93    7.91   0
   2   6   4   17.98    3.78   0
  -2  -6  -4   19.98    3.38   0
   3   6   4  106.48    3.90   0
  -3  -6  -4  114.34    3.76   0
  -4  -6  -4  138.82    4.13   0
   4   6   4  131.91    3.96   0
  -5  -6  -4    3.06    2.60   0
   5   6   4    7.45    3.76   0
   6   6   4    8.43    4.13   0
  -6  -6  -4   17.33    4.00   0
  -7  -6  -4   -1.19    5.01   0
   7   6   4    6.48    5.09   0
   7   6   4    6.05    4.60   0
  -5   7   4   -0.65    4.60   0
  -4   7   4    9.35    4.61   0
  -3   7   4    2.84    4.33   0
  -2   7   4   28.06    7.15   0
  -1   7   4    4.99    4.47   0
   0  -7  -4  114.62    4.19   0
   0   7   4  102.53    5.08   0
  -1  -7  -4    5.09    4.08   0
   1   7   4    9.75    4.41   0
  -2  -7  -4   90.47    4.09   0
   2   7   4   89.92    4.41   0
  -3  -7  -4   39.20    3.75   0
   3   7   4   30.89    4.12   0
  -4  -7  -4   27.63    3.85   0
   4   7   4   22.65    3.79   0
  -5  -7  -4    5.57    3.82   0
   5   7   4   11.11    3.70   0
  -6  -7  -4   22.79    4.32   0
   6   7   4   19.25    4.50   0
  -7  -7  -4   20.39    5.34   0
   7   7   4   23.66    5.49   0
  -4   8   4   -6.06    5.19   0
  -3   8   4   -4.15    4.76   0
  -2   8   4    2.12    7.25   0
  -1   8   4   11.30    5.12   0
   0   8   4  120.61    4.84   0
   0  -8  -4  127.51    4.83   0
  -1  -8  -4   53.15    4.22   0
   1   8   4   57.57    4.53   0
  -2  -8  -4   14.47    4.26   0
   2   8   4    9.56    3.95   0
  -3  -8  -4   54.56    4.16   0
   3   8   4   57.63    4.24   0
  -4  -8  -4    1.58    4.40   0
   4   8   4   -2.23    4.12   0
  -5  -8  -4   -0.62    4.55   0
   5   8   4    2.24    4.72   0
   6   8   4   -2.69    5.32   0
  -6  -8  -4    9.84    5.19   0
  -3   9   4   40.69    5.45   0
  -2   9   4  108.31   11.33   0
  -2   9   4  108.98   11.62   0
  -1   9   4   -2.64    5.97   0
   0  -9  -4   12.57    5.36   0
   0   9   4    4.30    4.59   0
   1   9   4    3.19    4.54   0
  -1  -9  -4    6.60    4.32   0
  -2  -9  -4   14.33    4.81   0
   2   9   4    3.47    4.92   0
  -3  -9  -4   11.56    4.51   0
   3   9   4    2.31    4.32   0
   4   9   4    3.56    4.44   0
  -4  -9  -4    6.64    4.70   0
   5   9   4   -2.39    5.12   0
  -5  -9  -4   -0.19    5.01   0
  -1  10   4    0.89    6.91   0
   0  10   4    1.29    5.35   0
  -1 -10  -4   10.47    5.69   0
   1  10   4   10.20    5.18   0
  -2 -10  -4   87.71    6.16   0
   2  10   4   74.09    5.81   0
  -4  -8   5   18.07    5.18   0
   4   8  -5   12.64    5.03   0
  -3  -8   5    3.86    4.91   0
   3   8  -5   -1.54    4.70   0
   2   8  -5    7.43    5.34   0
  -2  -8   5    2.53    4.68   0
  -1  -8   5    3.03    4.66   0
   1   8  -5    0.87    5.02   0
   0   8  -5    3.74    5.86   0
   0  -8   5   -0.84    4.58   0
   1  -8   5   -0.09    5.72   0
  -1   8  -5    4.43    5.82   0
   2  -8   5   -1.40    5.63   0
  -2   8  -5   -0.16    6.16   0
   3  -8   5   -0.03    6.79   0
  -3   8  -5   11.20    5.75   0
   5   7  -5    7.67    5.04   0
  -5  -7   5    2.53    5.03   0
   4   7  -5    7.00    4.82   0
  -4  -7   5   -1.39    4.54   0
  -3  -7   5    0.01    4.54   0
   3   7  -5    1.42    5.06   0
  -2  -7   5    1.62    3.93   0
   2   7  -5   -0.10    4.61   0
  -1  -7   5  157.99    4.80   0
   1   7  -5  143.03    5.23   0
   0   7  -5   32.19    5.01   0
   0  -7   5   33.74    4.57   0
   1  -7   5   50.30    5.12   0
  -1   7  -5   51.32    5.70   0
  -2   7  -5  244.22    7.02   0
  -3   7  -5   -2.96    4.34   0
   3  -7   5    2.72    5.65   0
   4  -7   5   -1.83    8.20   0
   4  -7   5   -0.64    8.13   0
  -4   7  -5    2.64    4.68   0
  -6  -6   5   56.73    5.34   0
   6   6  -5   83.69    5.51   0
   5   6  -5   86.45    4.71   0
  -5  -6   5   77.46    3.23   0
   4   6  -5   21.00    4.04   0
  -4  -6   5   19.47    3.64   0
   3   6  -5    3.16    4.56   0
  -3  -6   5    3.98    3.76   0
   2   6  -5   83.40    4.84   0
  -2  -6   5   75.75    4.33   0
   1   6  -5   -1.03    4.50   0
  -1  -6   5    2.78    4.09   0
   0   6  -5    4.44    4.42   0
   0  -6   5   16.42    4.36   0
   1  -6   5    3.69    4.06   0
  -1   6  -5  -17.24    5.78   0
  -2   6  -5   54.85    6.01   0
  -3   6  -5   -3.69    4.36   0
   3  -6   5   -1.47    4.94   0
  -4   6  -5    1.93    4.85   0
   4  -6   5   -1.56    5.98   0
   4  -6   5    2.42    6.12   0
  -5   6  -5   12.06    5.03   0
   7   5  -5   -2.28    4.97   0
   7   5  -5    1.75    5.49   0
  -7  -5   5    6.14    4.80   0
  -6  -5   5   23.67    4.22   0
   6   5  -5   22.47    4.80   0
  -5  -5   5    5.25    3.67   0
   5   5  -5    8.83    4.12   0
  -4  -5   5    4.65    3.64   0
   4   5  -5    4.33    4.05   0
   3   5  -5    7.56    4.14   0
  -3  -5   5    8.83    3.67   0
  -2  -5   5   -1.92    3.61   0
   2   5  -5   33.72    4.19   0
   1   5  -5  161.02    5.24   0
  -1  -5   5  132.01    4.46   0
   0   5  -5   22.57    4.68   0
   0  -5   5   19.57    4.12   0
   1  -5   5   35.76    4.57   0
  -1   5  -5   40.99    5.36   0
   2  -5   5    0.48    3.73   0
  -2   5  -5   -1.61    4.95   0
   3  -5   5  154.55    5.60   0
  -3   5  -5  162.50    4.79   0
  -4   5  -5   43.86    4.65   0
   4  -5   5   36.30    5.79   0
   4  -5   5   32.18    5.88   0
  -5   5  -5    4.77    4.55   0
   5  -5   5   -0.46    7.81   0
   5  -5   5   -0.22    7.50   0
  -6   5  -5   33.00    5.19   0
   7   4  -5   44.73    5.02   0
   7   4  -5   34.24    5.01   0
  -7  -4   5   49.82    5.13   0
   6   4  -5    2.46    4.33   0
  -6  -4   5   -0.13    4.17   0
   6   4  -5    8.34    4.44   0
  -5  -4   5  122.13    4.33   0
   5   4  -5  121.24    4.62   0
   4   4  -5  792.19    6.49   0
  -4  -4   5  828.62    6.36   0
   3   4  -5 1459.31    7.49   0
  -3  -4   5 1513.66    8.09   0
   2   4  -5    7.90    4.79   0
  -2  -4   5    4.87    4.03   0
   1   4  -5  150.57    5.18   0
  -1  -4   5  141.89    4.67   0
   0   4  -5  298.00    5.64   0
   0  -4   5  278.99    5.46   0
   1  -4   5  -15.18    5.33   0
  -1   4  -5  -13.08    5.12   0
   2  -4   5    7.94    4.44   0
  -2   4  -5    7.79    5.35   0
  -3   4  -5   71.06    4.49   0
   4  -4   5   32.24    5.37   0
  -4   4  -5   47.98    4.27   0
   4  -4   5   26.99    5.03   0
  -5   4  -5  150.91    4.89   0
   5  -4   5  146.31    6.95   0
   5  -4   5  165.32    7.15   0
   6  -4   5   47.94    7.82   0
   6  -4   5   55.21    7.95   0
  -6   4  -5   53.60    4.85   0
  -7   4  -5   10.69    5.19   0
  -8  -3   5  190.57    6.83   0
   8   3  -5  174.68    5.84   0
   8   3  -5  199.07    6.44   0
  -7  -3   5    1.64    4.94   0
   7   3  -5   15.38    5.29   0
   7   3  -5   -8.83    4.38   0
  -6  -3   5  117.92    4.91   0
   6   3  -5  106.34    4.85   0
   6   3  -5  104.05    4.36   0
  -5  -3   5    8.81    3.56   0
   5   3  -5    9.07    3.90   0
   4   3  -5   36.73    4.48   0
  -4  -3   5    7.58    3.86   0
   3   3  -5  114.06    4.96   0
  -3  -3   5   96.87    4.25   0
   2   3  -5   89.81    4.49   0
  -2  -3   5   86.04    4.27   0
   1   3  -5   49.36    3.39   0
  -1  -3   5   51.30    3.99   0
   0   3  -5  752.26    7.56   0
   0  -3   5  595.93    7.02   0
   1  -3   5  148.72    5.02   0
  -1   3  -5  168.75    5.96   0
  -2   3  -5 1019.28    9.15   0
   2  -3   5  921.34    8.46   0
  -3   3  -5 1340.06    8.42   0
   4  -3   5  104.53    5.50   0
  -4   3  -5  111.43    4.35   0
   5  -3   5   59.19    5.32   0
   5  -3   5   58.03    5.12   0
  -5   3  -5   67.77    4.39   0
   6  -3   5   99.97    6.59   0
  -6   3  -5  120.67    4.47   0
   6  -3   5  113.99    6.54   0
   7  -3   5    8.52    6.89   0
  -7   3  -5    9.50    4.67   0
   7  -3   5    7.56    6.93   0
   8   2  -5   21.20    5.60   0
   8   2  -5   16.91    4.96   0
  -8  -2   5    6.92    5.38   0
   7   2  -5   -4.27    4.89   0
   7   2  -5   -1.33    4.44   0
  -7  -2   5    1.59    4.80   0
  -6  -2   5  209.04    5.16   0
   6   2  -5  211.77    5.62   0
   6   2  -5  195.55    4.45   0
  -5  -2   5  285.55    5.03   0
   5   2  -5  268.28    5.14   0
   5   2  -5  272.13    4.65   0
   4   2  -5  148.71    4.11   0
  -4  -2   5  151.61    4.69   0
   3   2  -5  155.36    4.75   0
  -3  -2   5  137.56    4.66   0
   2   2  -5  118.74    4.93   0
  -2  -2   5  119.19    4.56   0
   1   2  -5 1166.61    7.63   0
  -1  -2   5 1230.80    8.37   0
   0  -2   5   43.10    4.70   0
   0   2  -5   43.42    4.53   0
   1  -2   5  -15.14    5.63   0
  -1   2  -5  -17.93    5.81   0
   2  -2   5    4.76    4.27   0
  -2   2  -5    2.79    4.05   0
  -3   2  -5  134.85    4.73   0
   3  -2   5  127.78    4.97   0
   4  -2   5   39.65    4.03   0
  -4   2  -5   46.12    4.24   0
   5  -2   5  168.87    5.51   0
  -5   2  -5  175.35    4.77   0
  -6   2  -5   22.55    4.07   0
   6  -2   5   12.73    4.65   0
   6  -2   5   11.44    4.79   0
  -7   2  -5   83.81    4.73   0
   7  -2   5   76.24    6.07   0
   7  -2   5   75.35    6.50   0
   8  -2   5   -3.40    6.09   0
   8  -2   5    2.91    6.50   0
   8   1  -5  104.10    6.43   0
   8   1  -5   95.46    4.79   0
  -8  -1   5   98.93    6.36   0
   7   1  -5   23.83    4.59   0
  -7  -1   5   21.81    4.48   0
   7   1  -5   17.28    4.39   0
   6   1  -5    7.49    4.23   0
  -6  -1   5   10.57    3.98   0
   6   1  -5    7.05    3.83   0
  -5  -1   5   43.62    4.22   0
   5   1  -5   34.07    4.55   0
   5   1  -5   44.69    3.67   0
   4   1  -5  162.30    4.55   0
   4   1  -5  166.39    4.42   0
  -4  -1   5  173.61    4.69   0
   3   1  -5   85.20    4.66   0
   3   1  -5   86.65    4.67   0
  -3  -1   5   88.67    4.49   0
  -2  -1   5  284.32    4.62   0
   2   1  -5  294.16    5.65   0
  -1  -1   5   15.32    4.57   0
   1   1  -5   24.86    4.65   0
   0  -1   5   53.65    3.95   0
   0   1  -5  162.71    5.21   0
  -1   1  -5 1189.80    8.69   0
   1  -1   5 1036.30    8.42   0
  -2   1  -5 1687.66   10.99   0
   2  -1   5 1689.24   10.55   0
   3  -1   5  996.42    8.13   0
  -3   1  -5  982.29    8.31   0
   3  -1   5  959.99    8.03   0
   4  -1   5  326.93    5.76   0
  -4   1  -5  347.01    5.29   0
   5  -1   5   34.60    4.33   0
  -5   1  -5   35.73    4.09   0
  -6   1  -5   -1.59    4.01   0
   6  -1   5    1.73    4.06   0
   7  -1   5   17.67    4.67   0
   8  -1   5    1.94    6.31   0
   8   0  -5   14.85    5.44   0
   8   0  -5   13.29    4.29   0
  -8   0   5    2.56    5.91   0
   7   0  -5    0.84    5.32   0
  -7   0   5   -0.19    4.67   0
   7   0  -5    4.25    4.27   0
   6   0  -5   13.01    4.46   0
  -6   0   5   12.52    4.19   0
   6   0  -5   16.98    3.93   0
  -5   0   5  111.67    5.44   0
   5   0  -5  160.56    5.04   0
   5   0  -5  127.22    4.25   0
   4   0  -5  264.83    5.50   0
   4   0  -5  283.72    4.90   0
  -4   0   5  259.60    5.37   0
   3   0  -5  166.04    4.97   0
   3   0  -5  164.40    4.57   0
  -3   0   5  166.26    4.95   0
   2   0  -5 1245.49    8.89   0
   2   0  -5 1244.30    9.56   0
  -2   0   5 1278.68    9.22   0
   1   0  -5 2707.66   15.51   0
  -1   0   5 2395.62   14.35   0
   0   0  -5  168.49    4.78   0
   0   0   5  145.75    4.15   0
  -1   0  -5 3619.46   26.50   0
   1   0   5 3657.60   14.43   0
  -2   0  -5  210.09    5.65   0
   3   0   5  214.69    4.76   0
  -3   0  -5  195.93    5.18   0
   3   0   5  203.57    5.14   0
   4   0   5   52.86    4.33   0
  -4   0  -5   92.83    4.21   0
   4   0   5   92.97    4.28   0
   5   0   5   -1.78    3.71   0
   5   0   5    0.88    3.47   0
   6   0   5    4.07    3.83   0
   6   0   5    9.11    3.78   0
   7   0   5    3.16    4.80   0
   7   0   5    2.92    3.81   0
   8   0   5   14.67    4.71   0
   8   0   5   19.19    5.62   0
   8  -1  -5  216.45    7.43   0
  -8   1   5  213.22    6.45   0
   8  -1  -5  205.79    5.62   0
   7  -1  -5   11.73    5.66   0
   7  -1  -5   11.68    4.29   0
  -7   1   5    6.67    5.11   0
   6  -1  -5   30.53    4.58   0
   6  -1  -5   38.82    3.83   0
  -6   1   5   40.46    4.22   0
  -5   1   5   52.45    4.74   0
   5  -1  -5   58.51    4.23   0
   5  -1  -5   57.00    3.89   0
   4  -1  -5    5.08    5.29   0
  -4   1   5   -8.87    4.67   0
   4  -1  -5  -27.76    3.91   0
  -3   1   5  163.49    5.32   0
   3  -1  -5  217.22    5.40   0
   3  -1  -5  221.77    4.87   0
  -2   1   5   -0.22    5.42   0
  -2   1   5   33.04    4.01   0
   2  -1  -5   25.76    4.27   0
   2  -1  -5   15.97    4.90   0
  -1   1   5  886.74    8.32   0
   1  -1  -5  971.59    8.32   0
  -1   1   5  907.06   10.20   0
   0   1   5   56.64    4.45   0
   1   1   5   74.78    7.59   0
   2   1   5  651.66    6.56   0
   2   1   5  621.60    8.78   0
   3   1   5  615.38    7.49   0
   3   1   5  627.28    6.27   0
   4   1   5   66.04    3.70   0
   4   1   5   73.76    4.28   0
   5   1   5  182.81    4.75   0
   5   1   5  169.50    4.55   0
   6   1   5    2.40    3.79   0
   6   1   5   -3.59    3.91   0
   7   1   5    7.41    3.83   0
   7   1   5   13.88    4.47   0
   8   1   5    2.97    4.76   0
   8   1   5    0.01    4.62   0
   8  -2  -5    2.99    6.89   0
  -8   2   5    0.57    6.45   0
   8  -2  -5    1.52    4.44   0
  -7   2   5    3.90    5.71   0
   7  -2  -5    8.50    4.18   0
   7  -2  -5    2.59    6.21   0
  -6   2   5   -0.06    4.87   0
   6  -2  -5   -0.63    3.93   0
   6  -2  -5    2.57    5.06   0
   5  -2  -5  143.42    4.11   0
  -5   2   5  144.79    5.83   0
  -5   2   5  142.76    4.19   0
   5  -2  -5  139.76    5.85   0
  -4   2   5 1056.95    7.21   0
   4  -2  -5 1104.78    7.33   0
  -4   2   5 1116.49   10.45   0
   4  -2  -5 1067.50    9.90   0
  -3   2   5   24.40    5.93   0
  -3   2   5   45.62    4.29   0
   3  -2  -5    6.45    4.39   0
   3  -2  -5   64.54    4.71   0
  -2   2   5  245.59    6.07   0
  -2   2   5  211.72    5.25   0
   2  -2  -5  265.04    5.97   0
  -1   2   5 1293.17   10.80   0
  -1   2   5 1248.37   10.06   0
   1   2   5   -2.02    3.67   0
   2   2   5  250.48    4.69   0
   3   2   5  135.79    4.07   0
   3   2   5  129.92    5.39   0
   4   2   5   25.51    3.48   0
  -4  -2  -5   16.97    3.55   0
   4   2   5   23.00    3.95   0
   5   2   5    2.31    3.50   0
   5   2   5    2.19    4.04   0
  -5  -2  -5    3.73    3.48   0
   6   2   5    2.75    3.86   0
   6   2   5   -2.22    4.01   0
  -6  -2  -5    5.59    3.65   0
   7   2   5    0.40    4.18   0
   7   2   5    7.37    4.07   0
   8   2   5   10.74    4.66   0
   8   2   5    2.68    4.87   0
  -7   3   5   11.18    7.28   0
  -6   3   5   13.71    6.24   0
  -6   3   5   15.98    3.95   0
  -5   3   5   86.48    4.31   0
  -5   3   5   91.65    6.57   0
  -4   3   5  281.15    5.15   0
  -4   3   5  267.81    7.19   0
  -3   3   5   25.05    6.40   0
  -3   3   5   22.01    3.91   0
  -2   3   5  131.87    4.66   0
  -2   3   5  127.53    6.22   0
  -1   3   5   57.36    4.33   0
  -1   3   5   51.96    4.47   0
  -1   3   5   42.88    4.34   0
   0   3   5    0.04    4.12   0
   1   3   5 1341.09    8.62   0
   2   3   5    3.95    3.53   0
  -2  -3  -5    4.77    3.59   0
  -3  -3  -5 2156.75    9.71   0
   3   3   5 2107.32    9.62   0
  -4  -3  -5  231.71    4.53   0
   4   3   5  196.67    4.27   0
  -5  -3  -5   13.75    3.45   0
   5   3   5   12.16    4.01   0
   5   3   5   11.18    3.50   0
  -6  -3  -5  166.42    4.52   0
   6   3   5  152.32    4.86   0
   6   3   5  163.85    4.82   0
   7   3   5   22.24    4.22   0
   7   3   5   17.72    4.15   0
  -7  -3  -5   22.05    4.07   0
   8   3   5    6.96    4.70   0
  -8  -3  -5   10.04    4.58   0
   8   3   5    3.52    4.94   0
  -7   4   5   -0.62    4.41   0
  -6   4   5    8.11    4.51   0
  -5   4   5   -1.33    4.14   0
  -4   4   5   23.24    3.68   0
  -4   4   5   20.09    9.26   0
  -4   4   5   20.35    8.52   0
  -3   4   5    5.49    4.62   0
  -3   4   5    9.36    6.21   0
  -3   4   5    4.84    3.99   0
  -2   4   5 1212.86    8.02   0
  -2   4   5 1148.14   10.69   0
  -2   4   5 1112.89   12.06   0
  -1   4   5 1002.56    8.90   0
   0   4   5  205.07    4.68   0
   1   4   5    9.58    3.36   0
  -1  -4  -5   14.21    3.53   0
  -2  -4  -5  169.23    4.16   0
   2   4   5  166.45    4.09   0
   3   4   5   32.68    3.47   0
  -3  -4  -5   37.48    3.60   0
  -4  -4  -5  122.84    4.00   0
   4   4   5  160.74    4.31   0
   5   4   5   46.37    3.69   0
  -5  -4  -5   75.86    3.62   0
   6   4   5  204.10    4.71   0
   6   4   5  204.05    4.91   0
  -6  -4  -5  219.55    4.70   0
   7   4   5   23.36    4.72   0
  -7  -4  -5    5.66    4.55   0
   7   4   5   17.75    4.14   0
   8   4   5   -3.88    5.10   0
   8   4   5    7.29    4.82   0
  -8  -4  -5    5.62    5.07   0
  -7   5   5    7.64    5.14   0
  -6   5   5   31.04    4.45   0
  -5   5   5    3.95    4.06   0
  -4   5   5   89.60    4.20   0
  -3   5   5   30.07    9.00   0
  -3   5   5   38.71    4.10   0
  -3   5   5   32.94   10.84   0
  -2   5   5   74.69    5.08   0
  -2   5   5   72.76    4.35   0
  -2   5   5   78.04    6.40   0
  -1   5   5   72.86    4.90   0
   0   5   5    1.50    3.52   0
  -1  -5  -5   24.41    3.59   0
   1   5   5   26.33    3.40   0
   2   5   5   -9.64    3.25   0
  -2  -5  -5    3.55    3.30   0
  -3  -5  -5  296.24    4.90   0
   3   5   5  278.88    4.77   0
   4   5   5   76.85    3.62   0
  -4  -5  -5   85.13    3.61   0
   5   5   5    1.07    3.40   0
  -5  -5  -5    3.99    3.43   0
   6   5   5   11.69    3.91   0
  -6  -5  -5   14.72    3.71   0
   7   5   5   38.06    4.93   0
   7   5   5   34.46    4.42   0
  -7  -5  -5   36.05    4.66   0
  -8  -5  -5    3.04    4.63   0
   8   5   5   12.82    5.24   0
   8   5   5   10.88    5.36   0
  -6   6   5   26.25    5.03   0
  -5   6   5    0.20    4.20   0
  -4   6   5  108.11    4.60   0
  -3   6   5  277.58    5.01   0
  -2   6   5  171.29    6.76   0
  -2   6   5  186.98    7.62   0
  -1   6   5  553.19    7.55   0
   0   6   5 1463.52    9.63   0
  -1  -6  -5 1041.08    7.53   0
   1   6   5  964.32    7.29   0
   2   6   5    2.24    3.58   0
  -2  -6  -5   10.36    3.50   0
  -3  -6  -5    6.58    3.16   0
   3   6   5    6.84    3.43   0
   4   6   5    2.81    3.78   0
  -4  -6  -5    6.30    3.35   0
   5   6   5   20.06    3.88   0
  -5  -6  -5   14.45    3.75   0
  -6  -6  -5   -1.75    3.96   0
   6   6   5   -3.28    3.88   0
   7   6   5   18.14    4.79   0
  -7  -6  -5   16.76    4.98   0
   7   6   5   14.67    5.08   0
  -5   7   5   -3.11    5.29   0
  -4   7   5   97.81    5.07   0
  -3   7   5   47.28    4.17   0
  -2   7   5   28.48    6.24   0
  -2   7   5   27.56    6.82   0
  -1   7   5   21.96    4.86   0
   0   7   5   53.54    4.72   0
   1   7   5  117.45    4.35   0
  -1  -7  -5  133.02    4.22   0
   2   7   5   -2.55    4.34   0
  -2  -7  -5    3.78    3.67   0
   3   7   5   95.91    4.05   0
  -3  -7  -5  111.61    3.93   0
  -4  -7  -5  129.89    4.25   0
   4   7   5  120.12    4.56   0
  -5  -7  -5    7.81    3.93   0
   5   7   5   14.20    3.86   0
  -6  -7  -5   -1.86    4.31   0
   6   7   5    5.94    4.15   0
  -7  -7  -5   73.49    5.03   0
   7   7   5   46.27    5.09   0
  -4   8   5   23.05    5.27   0
  -3   8   5    9.90    4.81   0
  -2   8   5   72.67    7.39   0
  -2   8   5   71.63    8.36   0
  -1   8   5  156.75    6.22   0
   0   8   5   21.01    4.93   0
  -1  -8  -5   69.84    4.99   0
   1   8   5   66.33    5.09   0
  -2  -8  -5    2.21    4.15   0
   2   8   5    1.31    3.86   0
  -3  -8  -5    9.72    3.94   0
   3   8   5   12.24    4.01   0
  -4  -8  -5    5.87    4.09   0
   4   8   5    2.26    4.12   0
  -5  -8  -5   11.59    4.17   0
   5   8   5   10.17    4.76   0
  -6  -8  -5   -4.64    4.71   0
   6   8   5   -3.78    4.83   0
  -3   9   5    7.84    4.68   0
  -2   9   5    0.62    9.07   0
  -2   9   5    2.07    9.06   0
  -1   9   5    8.31    6.14   0
   0   9   5   -4.06    5.30   0
  -1  -9  -5   10.40    4.47   0
   1   9   5   10.98    4.57   0
   2   9   5   25.52    4.76   0
  -2  -9  -5   26.53    4.56   0
  -3  -9  -5    8.70    4.44   0
   3   9   5    0.36    4.31   0
  -4  -9  -5    4.69    4.77   0
   4   9   5    0.00    4.97   0
  -5  -9  -5   28.45    5.10   0
   5   9   5   19.44    5.22   0
  -1  10   5   37.34    7.60   0
   0  10   5   13.51    5.27   0
  -1 -10  -5    2.71    4.98   0
   1  10   5    1.86    5.79   0
   2  10   5   13.59    6.09   0
  -2 -10  -5   16.73    5.55   0
   3   8  -6   -1.66    5.59   0
  -3  -8   6    1.17    5.27   0
   2   8  -6    3.73    4.89   0
  -2  -8   6    7.78    5.30   0
   1   8  -6    6.82    5.31   0
  -1  -8   6    1.79    4.87   0
   0  -8   6    7.34    4.83   0
   0   8  -6    1.32    5.21   0
   1  -8   6   -5.31    5.76   0
  -1   8  -6   -1.12    5.41   0
  -2   8  -6    2.48    6.48   0
   5   7  -6   22.45    5.60   0
  -5  -7   6   19.96    5.39   0
   4   7  -6   10.79    5.23   0
  -4  -7   6    5.17    4.94   0
  -3  -7   6   25.57    4.65   0
   3   7  -6   12.18    4.95   0
  -2  -7   6   -2.73    4.27   0
   2   7  -6   -2.45    4.64   0
  -1  -7   6  136.45    5.14   0
   1   7  -6  139.44    5.45   0
   0   7  -6   57.47    4.97   0
   0  -7   6   55.68    4.68   0
  -1   7  -6    5.50    4.94   0
   1  -7   6   -2.57    4.39   0
  -2   7  -6   37.83    6.30   0
   3  -7   6   70.56    6.67   0
  -3   7  -6   71.57    5.64   0
   4  -7   6    2.49    7.74   0
  -4   7  -6   13.68    5.58   0
   4  -7   6    0.38    7.83   0
   6   6  -6    5.85    5.64   0
  -6  -6   6   -5.32    5.41   0
   5   6  -6   26.82    5.14   0
  -5  -6   6   35.06    4.43   0
  -4  -6   6   28.49    4.48   0
   4   6  -6   25.07    4.70   0
  -3  -6   6   -3.47    4.30   0
   3   6  -6    4.72    4.32   0
   2   6  -6  112.15    4.90   0
  -2  -6   6   44.33    3.95   0
   1   6  -6   13.08    5.10   0
  -1  -6   6   15.67    4.24   0
   0  -6   6    9.57    3.90   0
   0   6  -6    8.36    4.27   0
   1  -6   6    3.02    4.76   0
  -1   6  -6    1.70    4.53   0
   2  -6   6  169.94    6.02   0
  -2   6  -6  184.54    5.81   0
  -3   6  -6  182.01    5.44   0
   3  -6   6  173.92    6.28   0
  -4   6  -6   20.57    5.15   0
   4  -6   6   21.86    6.44   0
   5  -6   6   52.35   10.18   0
   5  -6   6   43.50   10.02   0
  -5   6  -6   53.82    5.80   0
   6   5  -6   23.05    5.42   0
  -6  -5   6   12.63    5.28   0
  -5  -5   6    6.09    4.03   0
   5   5  -6    0.45    4.29   0
  -4  -5   6    5.99    3.66   0
   4   5  -6    7.66    4.25   0
   3   5  -6   -1.87    4.10   0
  -3  -5   6    1.15    3.62   0
   2   5  -6   -2.29    4.73   0
  -2  -5   6  -14.20    4.10   0
   1   5  -6  168.14    5.11   0
  -1  -5   6  133.10    4.41   0
   0  -5   6  111.11    4.48   0
   0   5  -6  111.05    4.98   0
   1  -5   6   41.19    4.50   0
  -1   5  -6   37.14    4.50   0
   2  -5   6   46.42    4.23   0
  -2   5  -6   48.37    5.59   0
  -3   5  -6   64.20    4.73   0
   4  -5   6    4.74    4.98   0
  -4   5  -6   12.22    4.86   0
  -5   5  -6    0.41    4.55   0
   5  -5   6    1.89    5.98   0
   5  -5   6    0.88    6.24   0
  -6   5  -6    4.75    4.76   0
   7   4  -6   99.41    5.52   0
  -7  -4   6   91.58    5.57   0
   7   4  -6   84.33    5.11   0
   6   4  -6  163.44    5.56   0
  -6  -4   6  169.67    5.40   0
   6   4  -6  153.24    5.09   0
  -5  -4   6   21.52    3.90   0
   5   4  -6   12.17    4.30   0
   4   4  -6  272.50    4.25   0
  -4  -4   6  284.50    4.94   0
   3   4  -6  511.38    5.05   0
  -3  -4   6  552.00    5.82   0
   2   4  -6    3.77    4.27   0
  -2  -4   6    2.70    3.59   0
   1   4  -6   78.32    5.05   0
  -1  -4   6   74.17    4.44   0
   0  -4   6   33.62    4.22   0
   0   4  -6   35.01    4.56   0
   1  -4   6   44.66    4.29   0
  -1   4  -6   34.20    4.77   0
   2  -4   6   31.43    4.90   0
  -2   4  -6   29.59    5.09   0
  -3   4  -6    1.81    4.17   0
   4  -4   6  123.49    5.96   0
  -4   4  -6  129.49    5.41   0
   5  -4   6    0.59    5.58   0
  -5   4  -6    2.03    4.07   0
   5  -4   6   -0.33    4.76   0
  -6   4  -6   12.30    4.27   0
   6  -4   6    8.89    6.45   0
   6  -4   6   10.76    6.22   0
  -7   4  -6    3.50    5.33   0
   7  -4   6    3.51   10.13   0
   7  -4   6    3.00    9.60   0
   7   3  -6    5.58    5.09   0
  -7  -3   6   -2.74    4.73   0
   7   3  -6   -0.50    4.27   0
  -6  -3   6    4.01    4.56   0
   6   3  -6   16.89    4.47   0
   6   3  -6    8.13    4.35   0
  -5  -3   6    8.48    4.03   0
   5   3  -6   15.80    4.17   0
   5   3  -6   13.45    4.37   0
   4   3  -6  124.11    4.46   0
  -4  -3   6  103.95    4.24   0
   3   3  -6  364.03    5.81   0
  -3  -3   6  355.96    5.25   0
   2   3  -6    3.24    4.43   0
  -2  -3   6    2.65    4.18   0
   1   3  -6  157.03    5.00   0
  -1  -3   6  166.52    4.78   0
   0  -3   6  719.91    6.76   0
   0   3  -6  740.54    6.99   0
   1  -3   6   29.64    4.42   0
  -1   3  -6   45.17    4.38   0
   2  -3   6   76.37    4.83   0
  -2   3  -6   84.52    4.80   0
   3  -3   6   48.96    4.59   0
  -3   3  -6   67.18    4.33   0
   4  -3   6   47.50    5.04   0
  -4   3  -6   29.77    4.69   0
   5  -3   6    0.23    4.74   0
  -5   3  -6    3.04    3.76   0
   5  -3   6    0.13    4.72   0
   6  -3   6    3.71    5.37   0
  -6   3  -6    6.20    4.05   0
   6  -3   6   -0.53    5.36   0
   7  -3   6   34.89    7.16   0
   7  -3   6   38.99    7.12   0
  -7   3  -6   42.31    5.20   0
   8   2  -6    0.16    5.84   0
   8   2  -6    5.99    5.04   0
  -8  -2   6   -4.53    5.59   0
   7   2  -6    6.17    4.32   0
  -7  -2   6    0.94    4.82   0
   7   2  -6   -2.55    4.45   0
  -6  -2   6   19.32    4.40   0
   6   2  -6   29.63    4.40   0
   6   2  -6   20.83    4.16   0
   5   2  -6   85.99    4.55   0
   5   2  -6   92.62    4.40   0
  -5  -2   6   97.55    4.30   0
   4   2  -6   41.64    4.43   0
   4   2  -6   44.62    4.16   0
  -4  -2   6   44.51    4.11   0
   3   2  -6  135.88    5.20   0
  -3  -2   6   80.01    4.90   0
   2   2  -6   49.00    4.29   0
  -2  -2   6   48.50    4.24   0
   1   2  -6  911.69    7.52   0
  -1  -2   6  888.72    7.53   0
   0  -2   6  445.61    5.86   0
   0   2  -6  462.24    6.10   0
   1  -2   6   91.99    5.28   0
  -1   2  -6   97.41    5.21   0
   2  -2   6   31.73    4.36   0
  -2   2  -6   39.34    4.92   0
  -3   2  -6    4.76    3.99   0
   3  -2   6    3.12    5.02   0
   4  -2   6    1.83    4.19   0
  -4   2  -6   -0.73    4.01   0
   4  -2   6    0.10    4.63   0
  -5   2  -6   -0.65    3.96   0
   5  -2   6    2.48    4.27   0
  -6   2  -6   -1.06    4.50   0
   6  -2   6    4.00    5.10   0
   7  -2   6   31.96    5.66   0
  -7   2  -6   35.25    4.84   0
   7  -2   6   35.98    5.51   0
   8  -2   6   -5.82    6.16   0
   8  -2   6    2.52    6.98   0
   8   1  -6  179.53    6.85   0
   8   1  -6  197.43    5.55   0
  -8  -1   6  133.40    7.28   0
   7   1  -6    5.04    4.76   0
  -7  -1   6   -4.36    5.00   0
   7   1  -6   -4.89    4.48   0
  -6  -1   6   38.14    4.30   0
   6   1  -6   23.01    4.41   0
   6   1  -6   33.88    4.17   0
   5   1  -6   48.69    4.41   0
   5   1  -6   48.16    4.02   0
  -5  -1   6   54.69    4.47   0
   4   1  -6   46.57    4.56   0
   4   1  -6   38.83    3.88   0
  -4  -1   6   43.45    4.25   0
   3   1  -6  207.62    5.17   0
   3   1  -6  208.54    4.71   0
  -3  -1   6  204.35    5.03   0
   2   1  -6  830.30    6.93   0
  -2  -1   6  837.33    7.13   0
  -1  -1   6  385.23    5.92   0
   1   1  -6  388.09    5.81   0
   0  -1   6  412.54    6.07   0
   0   1  -6  431.25    5.98   0
  -1   1  -6  853.81    6.81   0
   1  -1   6  778.06    7.30   0
  -2   1  -6  182.45    5.95   0
   2  -1   6  170.31    4.93   0
  -3   1  -6   45.12    4.27   0
   3  -1   6   47.12    4.81   0
   4  -1   6    7.84    3.71   0
  -4   1  -6   13.47    4.76   0
   4  -1   6    1.40    4.83   0
   5  -1   6    0.36    3.51   0
  -5   1  -6    4.21    3.95   0
   5  -1   6    1.30    4.32   0
  -6   1  -6   17.36    4.08   0
   6  -1   6   23.57    4.90   0
   6  -1   6   20.06    4.27   0
   7  -1   6    6.14    5.44   0
   7  -1   6    4.19    5.03   0
   8  -1   6    2.88    5.91   0
   8   0  -6    2.35    6.05   0
   8   0  -6    5.31    4.86   0
  -8   0   6   -2.48    5.34   0
   7   0  -6   -0.72    4.83   0
  -7   0   6    0.60    4.67   0
   7   0  -6    2.64    3.92   0
   6   0  -6    2.50    5.03   0
  -6   0   6    5.27    4.24   0
   6   0  -6    5.31    4.07   0
   5   0  -6  307.89    5.60   0
   5   0  -6  319.95    5.30   0
  -5   0   6  315.39    5.78   0
   4   0  -6   91.00    4.63   0
   4   0  -6   95.17    4.17   0
  -4   0   6   95.75    4.60   0
   3   0  -6   -2.09    4.36   0
   3   0  -6   -0.24    3.87   0
  -3   0   6    0.89    4.17   0
  -2   0   6  497.26    6.50   0
   2   0  -6  499.76    6.59   0
   2   0  -6  470.89    6.18   0
  -1   0   6  642.61    7.47   0
   1   0  -6  668.27    7.34   0
   0   0  -6 1743.20    9.68   0
   0   0   6 1547.68    9.45   0
  -1   0  -6  333.50   10.27   0
   1   0   6  296.13    5.16   0
  -2   0  -6 1386.10   11.80   0
   2   0   6 1428.45    8.96   0
  -3   0  -6   10.80    3.87   0
   3   0   6   13.27    3.50   0
   3   0   6   15.24    4.42   0
  -4   0  -6  374.56    5.60   0
   4   0   6  377.06    5.64   0
   4   0   6  353.61    5.63   0
   5   0   6  256.19    5.28   0
   5   0   6  276.04    5.34   0
   6   0   6   12.29    3.93   0
   6   0   6   10.04    4.34   0
   7   0   6   13.37    5.11   0
   7   0   6   17.65    3.99   0
   8   0   6   41.16    5.60   0
   8   0   6   47.43    5.02   0
   8  -1  -6   12.95    4.87   0
  -8   1   6    6.12    5.91   0
   8  -1  -6    2.51    6.40   0
  -7   1   6    0.30    4.47   0
   7  -1  -6    4.21    4.08   0
   7  -1  -6    7.36    4.59   0
   6  -1  -6    5.22    5.09   0
  -6   1   6   -4.15    5.02   0
   6  -1  -6    0.84    3.95   0
   5  -1  -6   25.18    3.70   0
  -5   1   6   33.28    4.02   0
   5  -1  -6   30.40    4.23   0
   4  -1  -6   55.90    4.00   0
  -4   1   6   52.25    4.56   0
   4  -1  -6   47.89    4.55   0
  -3   1   6   72.60    4.91   0
   3  -1  -6   72.44    4.21   0
   3  -1  -6   74.60    5.21   0
  -2   1   6   63.70    4.94   0
   2  -1  -6   58.05    5.40   0
   2  -1  -6   69.82    4.49   0
  -1   1   6  961.80    8.21   0
   1  -1  -6 1131.96    8.42   0
   0   1   6  651.51    6.99   0
   1   1   6   71.86    4.41   0
   2   1   6   -6.59    4.74   0
   2   1   6   -0.60    3.50   0
   3   1   6    8.89    3.36   0
   3   1   6    8.44    3.89   0
   4   1   6   27.41    4.20   0
   4   1   6   32.19    3.48   0
   5   1   6   73.28    4.26   0
   5   1   6   56.14    3.97   0
   6   1   6   98.53    4.74   0
   6   1   6   43.04    4.74   0
   7   1   6    5.17    4.41   0
   7   1   6    1.23    3.83   0
   8   1   6    5.87    5.05   0
   8   1   6   -3.88    4.72   0
  -8   2   6   36.30    7.23   0
   8  -2  -6   33.50    4.55   0
   8  -2  -6   34.62    6.99   0
   7  -2  -6   35.58    4.28   0
  -7   2   6   12.99    5.88   0
   7  -2  -6   33.40    5.91   0
  -6   2   6    7.25    4.83   0
   6  -2  -6   11.70    4.18   0
   6  -2  -6    9.93    5.27   0
   5  -2  -6   26.45    3.95   0
   5  -2  -6   22.87    4.66   0
  -5   2   6   23.56    4.65   0
  -4   2   6  699.65    6.54   0
   4  -2  -6  736.98    6.51   0
  -4   2   6  737.26    8.14   0
   4  -2  -6  702.05    7.59   0
  -3   2   6   38.40    3.99   0
  -3   2   6   29.56    5.19   0
   3  -2  -6   49.93    4.16   0
   3  -2  -6   56.21    5.38   0
  -2   2   6   19.83    4.64   0
  -2   2   6   15.67    4.03   0
   2  -2  -6   20.79    3.97   0
  -1   2   6 1392.37   11.49   0
  -1   2   6 1374.78    9.75   0
   0   2   6  916.69   11.90   0
   0   2   6  968.02    7.99   0
   1   2   6  -11.24    3.90   0
   2   2   6   97.04    3.92   0
   3   2   6   -6.34    4.10   0
   3   2   6   -1.18    3.51   0
   4   2   6  252.12    4.55   0
   4   2   6  260.02    5.92   0
   5   2   6    4.20    3.97   0
   5   2   6    3.03    3.58   0
   6   2   6   17.13    3.64   0
   6   2   6   19.75    4.10   0
   7   2   6   -4.54    4.15   0
   7   2   6    4.08    3.88   0
   8   2   6   54.18    5.49   0
   8   2   6   65.81    4.57   0
  -7   3   6    5.48    6.73   0
  -6   3   6    2.26    4.09   0
  -6   3   6    1.19    5.42   0
  -5   3   6    8.10    5.07   0
  -5   3   6    3.54    3.72   0
  -4   3   6    2.24    4.15   0
  -4   3   6    1.53    5.69   0
  -3   3   6  907.84    7.11   0
  -3   3   6  962.05   10.96   0
  -2   3   6  169.75    6.62   0
  -2   3   6  169.74    4.90   0
  -1   3   6 2602.89   12.73   0
  -1   3   6 2505.94   12.82   0
   0   3   6 1392.12    8.87   0
   1   3   6 2036.95    9.94   0
   2   3   6   -1.97    3.30   0
   3   3   6  527.89    5.57   0
  -4  -3  -6  105.74    4.12   0
   4   3   6  -12.36    5.29   0
   4   3   6   98.54    4.17   0
   5   3   6   75.02    4.45   0
   5   3   6   75.94    3.67   0
  -5  -3  -6   72.09    3.63   0
   6   3   6   62.27    4.59   0
  -6  -3  -6   69.54    4.04   0
   6   3   6   63.09    4.24   0
   7   3   6   -1.26    4.38   0
   7   3   6   -6.58    4.27   0
   8   3   6   30.45    5.09   0
   8   3   6   35.40    5.03   0
  -7   4   6   23.57    4.81   0
  -6   4   6    2.50    4.46   0
  -5   4   6   65.63    4.31   0
  -5   4   6   28.11    8.11   0
  -5   4   6   29.23    8.58   0
  -4   4   6  203.38    5.24   0
  -4   4   6  213.71    7.18   0
  -4   4   6  216.50    8.17   0
  -3   4   6   17.68    4.88   0
  -3   4   6   18.00    7.10   0
  -3   4   6   16.86    4.68   0
  -2   4   6  231.06    5.89   0
  -2   4   6  244.57    5.44   0
  -2   4   6  221.29    7.28   0
  -1   4   6  713.77    7.64   0
  -1   4   6  752.15    7.92   0
   0   4   6  296.21    5.00   0
   1   4   6   -2.13    3.43   0
   2   4   6    8.06    3.21   0
  -3  -4  -6  140.99    4.14   0
   3   4   6  130.07    4.20   0
  -4  -4  -6  179.90    4.21   0
   4   4   6   79.62    3.09   0
   5   4   6   51.72    3.63   0
  -5  -4  -6   72.99    3.58   0
   5   4   6   63.71    4.87   0
   6   4   6  283.18    5.04   0
   6   4   6  297.97    5.08   0
  -6  -4  -6  300.72    4.92   0
   7   4   6   83.16    4.86   0
  -7  -4  -6   76.73    4.29   0
   7   4   6   85.12    4.88   0
   8   4   6   40.71    5.35   0
   8   4   6   35.61    5.72   0
  -8  -4  -6   48.37    4.84   0
  -6   5   6    5.31    4.50   0
  -5   5   6   -1.44    4.38   0
  -4   5   6  218.81    5.19   0
  -3   5   6  134.79    8.46   0
  -3   5   6  129.19    4.66   0
  -3   5   6  131.57    6.84   0
  -2   5   6   68.15    4.79   0
  -2   5   6   74.99    4.47   0
  -2   5   6   63.83    6.02   0
  -1   5   6    2.75    4.10   0
   0   5   6   54.37    3.72   0
   1   5   6   53.37    3.46   0
  -2  -5  -6   74.79    3.72   0
   2   5   6  118.99    4.06   0
  -3  -5  -6  135.81    4.13   0
   3   5   6  127.59    4.05   0
  -4  -5  -6   86.81    3.80   0
   4   5   6   82.15    3.80   0
  -5  -5  -6   26.60    3.70   0
   5   5   6   22.55    2.83   0
   6   5   6    2.87    3.94   0
  -6  -5  -6   -1.07    3.59   0
   6   5   6    3.50    4.34   0
   7   5   6   16.33    4.80   0
   7   5   6   17.10    4.32   0
  -7  -5  -6   17.58    4.72   0
  -8  -5  -6    8.26    4.71   0
   8   5   6   18.96    5.21   0
   8   5   6   20.47    5.01   0
  -6   6   6   12.77    5.02   0
  -5   6   6   48.03    4.46   0
  -4   6   6    7.59    4.53   0
  -3   6   6  137.05   12.06   0
  -3   6   6  138.00    4.96   0
  -3   6   6  150.71   11.46   0
  -2   6   6  213.15    6.90   0
  -2   6   6  221.96    5.11   0
  -2   6   6  243.13    7.65   0
  -1   6   6   -1.02    4.45   0
   0   6   6   11.58    4.06   0
   1   6   6    1.15    3.53   0
   2   6   6   19.60    3.69   0
  -2  -6  -6   24.26    3.81   0
  -3  -6  -6   80.74    3.82   0
   3   6   6   55.92    3.77   0
   4   6   6   28.37    3.77   0
  -4  -6  -6   41.25    3.39   0
   5   6   6   34.10    3.79   0
  -5  -6  -6   37.38    2.78   0
   6   6   6   -2.14    3.92   0
  -6  -6  -6   -6.92    3.88   0
  -7  -6  -6    3.63    4.94   0
   7   6   6    3.99    4.95   0
   7   6   6    1.39    5.13   0
  -5   7   6   15.82    5.04   0
  -4   7   6  146.74    5.35   0
  -3   7   6  107.64    4.93   0
  -2   7   6   39.53    6.52   0
  -2   7   6   37.37    5.98   0
  -2   7   6   45.24    4.48   0
  -1   7   6  112.95    5.44   0
   0   7   6   65.64    4.17   0
   1   7   6  250.41    4.97   0
  -1  -7  -6  260.13    5.05   0
   2   7   6   -2.62    3.92   0
  -2  -7  -6    3.37    3.76   0
   3   7   6   31.54    3.98   0
  -3  -7  -6   29.71    3.64   0
   4   7   6   47.37    4.41   0
  -4  -7  -6   62.42    4.26   0
   5   7   6    3.87    4.12   0
  -5  -7  -6    1.45    4.05   0
  -6  -7  -6   -4.94    4.46   0
   6   7   6   -1.20    4.56   0
  -7  -7  -6   12.94    5.50   0
   7   7   6   12.10    5.46   0
   7   7   6    9.66    4.91   0
  -4   8   6    9.39    5.25   0
  -3   8   6    0.16    4.43   0
  -2   8   6   30.89    7.08   0
  -2   8   6   30.06    4.32   0
  -2   8   6   27.31    7.10   0
  -1   8   6    7.10    5.51   0
   0   8   6    7.96    4.72   0
   1   8   6    2.69    4.76   0
  -1  -8  -6    2.89    3.96   0
   2   8   6   10.69    4.08   0
  -2  -8  -6    3.49    4.32   0
   3   8   6   -0.05    3.68   0
  -3  -8  -6    5.00    4.02   0
  -4  -8  -6   42.59    4.32   0
   4   8   6   30.28    4.66   0
  -5  -8  -6   14.73    4.22   0
   5   8   6   11.02    4.90   0
   6   8   6   -3.21    5.32   0
  -6  -8  -6    1.68    5.15   0
  -3   9   6   18.66    5.05   0
  -2   9   6   10.66    9.16   0
  -2   9   6   18.36    4.98   0
  -2   9   6   11.40    8.72   0
  -1   9   6   52.53    6.39   0
   0   9   6   10.08    4.80   0
   1   9   6   -1.68    5.22   0
  -2  -9  -6   40.16    4.69   0
   2   9   6   36.70    4.68   0
  -3  -9  -6   12.88    4.60   0
   3   9   6   15.62    5.06   0
  -4  -9  -6    6.66    4.86   0
   4   9   6   12.40    5.10   0
  -1  10   6    4.93    7.14   0
   0  10   6    2.91    5.92   0
   1  10   6    5.61    5.16   0
  -2 -10  -6   -2.11    5.25   0
   2  10   6    2.22    5.32   0
   2   8  -7   -2.46    5.29   0
  -2  -8   7    4.15    5.46   0
  -1  -8   7    8.58    4.98   0
   1   8  -7   -2.89    5.51   0
   0  -8   7    4.59    5.16   0
   0   8  -7   -1.51    5.54   0
   1  -8   7    7.47    6.01   0
  -1   8  -7   -3.71    5.69   0
   4   7  -7   57.05    5.62   0
  -4  -7   7   62.65    4.84   0
  -3  -7   7   11.67    4.89   0
   3   7  -7   11.83    5.35   0
  -2  -7   7    9.97    4.51   0
   2   7  -7    5.33    4.79   0
  -1  -7   7   17.63    4.96   0
   1   7  -7   23.33    5.07   0
   0  -7   7    0.92    5.16   0
   0   7  -7    6.75    4.86   0
  -1   7  -7   22.55    5.06   0
   1  -7   7   15.81    5.33   0
  -2   7  -7   -0.95    5.14   0
   2  -7   7   -0.32    5.42   0
  -3   7  -7   59.28    5.70   0
   3  -7   7   59.73    6.90   0
   5   6  -7    1.61    5.14   0
  -5  -6   7    7.24    4.59   0
  -4  -6   7   -1.58    4.49   0
   4   6  -7   -2.51    4.70   0
   3   6  -7   -1.47    4.71   0
  -3  -6   7   -9.50    4.42   0
   2   6  -7   64.51    5.00   0
  -2  -6   7   10.86    3.95   0
   1   6  -7    0.50    4.47   0
  -1  -6   7    5.09    3.98   0
   0  -6   7   61.03    4.23   0
   0   6  -7   60.52    4.74   0
   1  -6   7    1.50    4.40   0
  -1   6  -7    8.23    5.41   0
   2  -6   7  121.62    5.67   0
  -2   6  -7  135.68    5.58   0
  -3   6  -7   91.12    5.59   0
  -4   6  -7   19.03    5.24   0
   4  -6   7   17.30    5.84   0
  -5   6  -7    6.57    5.76   0
   5  -6   7   -0.05    7.68   0
   5  -6   7    1.92    8.06   0
   6   5  -7    5.14    5.32   0
  -6  -5   7    5.47    5.11   0
   6   5  -7   -3.23    4.53   0
  -5  -5   7   -1.37    4.28   0
   5   5  -7    5.53    4.44   0
   4   5  -7   35.13    4.41   0
  -4  -5   7   39.88    4.04   0
   3   5  -7    1.79    4.11   0
  -3  -5   7    2.15    3.53   0
   2   5  -7   -1.36    3.93   0
  -2  -5   7    4.11    3.89   0
   1   5  -7   72.24    4.84   0
  -1  -5   7   72.43    4.23   0
   0  -5   7  112.32    4.59   0
   0   5  -7  119.08    5.00   0
   1  -5   7   30.81    4.11   0
  -1   5  -7   37.83    4.92   0
   2  -5   7   21.65    4.98   0
  -2   5  -7   26.69    5.40   0
   3  -5   7   42.29    5.11   0
  -3   5  -7   39.26    4.54   0
   4  -5   7    5.60    5.17   0
  -4   5  -7    0.14    5.13   0
   5  -5   7    3.50    6.49   0
  -5   5  -7    2.06    4.94   0
   5  -5   7   -2.98    6.54   0
  -6   5  -7    9.81    5.56   0
   6  -5   7   -0.91    8.15   0
   6  -5   7    0.61    8.25   0
   7   4  -7   49.50    5.72   0
   7   4  -7   36.20    5.57   0
  -7  -4   7   38.80    5.75   0
   6   4  -7   18.22    5.00   0
  -6  -4   7   22.85    5.02   0
   6   4  -7   24.57    5.01   0
  -5  -4   7    9.77    4.24   0
   5   4  -7    9.44    4.48   0
   4   4  -7    2.79    4.29   0
  -4  -4   7    3.01    2.80   0
   3   4  -7   26.42    4.20   0
  -3  -4   7   28.79    4.04   0
   2   4  -7   64.34    4.05   0
  -2  -4   7   52.59    3.67   0
   1   4  -7   11.01    4.23   0
  -1  -4   7   10.88    3.76   0
   0  -4   7  720.40    6.60   0
   0   4  -7  720.64    7.14   0
   1  -4   7   95.18    4.82   0
  -1   4  -7   87.73    5.43   0
   2  -4   7   40.85    4.15   0
  -2   4  -7   38.52    4.40   0
   3  -4   7   30.85    5.14   0
  -3   4  -7   36.58    4.30   0
  -4   4  -7   28.12    4.86   0
   5  -4   7    0.37    5.45   0
   5  -4   7    2.05    5.36   0
  -5   4  -7    4.47    4.54   0
   6  -4   7    3.67    6.65   0
  -6   4  -7    0.23    4.47   0
   6  -4   7   -2.25    6.09   0
   7   3  -7   25.39    5.67   0
  -7  -3   7   31.80    5.54   0
   7   3  -7   24.33    4.65   0
  -6  -3   7    1.02    4.55   0
   6   3  -7   -1.51    4.69   0
   6   3  -7    0.37    3.86   0
   5   3  -7   11.21    4.58   0
   5   3  -7    8.47    3.94   0
  -5  -3   7   13.07    3.93   0
   4   3  -7   32.86    4.34   0
  -4  -3   7   13.50    3.85   0
   3   3  -7  138.16    4.74   0
  -3  -3   7  119.37    4.32   0
   2   3  -7   20.11    5.28   0
  -2  -3   7   -1.02    4.70   0
  -1  -3   7   15.68    4.62   0
   1   3  -7    8.21    4.96   0
   0  -3   7   24.36    4.40   0
   0   3  -7   24.38    4.64   0
   1  -3   7  169.99    5.29   0
  -1   3  -7  177.47    4.68   0
   2  -3   7   51.36    4.42   0
   3  -3   7   14.10    4.02   0
  -3   3  -7   15.74    4.07   0
   4  -3   7   62.26    5.21   0
  -4   3  -7   69.77    4.32   0
  -5   3  -7   38.73    4.71   0
   5  -3   7   24.06    4.99   0
   6  -3   7   17.95    5.36   0
  -6   3  -7   15.36    4.73   0
   6  -3   7   15.39    5.25   0
   7  -3   7   27.85    6.66   0
   7  -3   7   40.78    6.98   0
  -7   3  -7   29.63    5.09   0
   7   2  -7    7.78    4.94   0
  -7  -2   7   -0.79    5.34   0
   7   2  -7   -0.15    4.39   0
  -6  -2   7   19.19    4.53   0
   6   2  -7   18.77    4.22   0
   6   2  -7   12.25    4.21   0
   5   2  -7    7.34    4.19   0
   5   2  -7   -5.22    3.64   0
  -5  -2   7   -1.89    4.16   0
   4   2  -7    9.82    4.12   0
  -4  -2   7    5.12    3.66   0
   4   2  -7   14.26    3.97   0
   3   2  -7    3.42    4.58   0
  -3  -2   7    2.17    4.19   0
   2   2  -7   -0.19    4.69   0
  -2  -2   7    0.67    4.27   0
  -1  -2   7 1037.69    7.52   0
   1   2  -7  983.11    7.35   0
   0  -2   7   85.92    4.57   0
   0   2  -7   81.99    4.30   0
   1  -2   7  236.62    5.28   0
  -1   2  -7  276.43    5.23   0
   2  -2   7   49.09    4.26   0
  -2   2  -7   53.92    4.63   0
  -3   2  -7  228.50    5.72   0
   3  -2   7  166.48    6.02   0
  -4   2  -7    1.48    3.75   0
   4  -2   7    2.11    3.88   0
   4  -2   7    0.64    3.58   0
  -5   2  -7    5.04    3.95   0
   5  -2   7    6.35    3.92   0
   5  -2   7    8.29    4.09   0
  -6   2  -7   15.40    4.38   0
   6  -2   7    2.87    5.07   0
  -7   2  -7    6.84    4.58   0
   7  -2   7    8.95    5.42   0
   7   1  -7    0.45    4.85   0
  -7  -1   7    9.99    5.21   0
   7   1  -7   -4.99    4.01   0
  -6  -1   7   11.06    4.52   0
   6   1  -7    0.14    4.23   0
   6   1  -7   22.66    4.21   0
   5   1  -7  150.87    5.00   0
   5   1  -7  155.40    4.65   0
  -5  -1   7  163.53    5.03   0
   4   1  -7  164.50    4.84   0
  -4  -1   7  170.59    4.77   0
   4   1  -7  162.05    4.78   0
   3   1  -7   27.83    4.33   0
  -3  -1   7   14.64    4.16   0
   3   1  -7   22.25    4.72   0
  -2  -1   7  490.80    6.05   0
   2   1  -7  473.36    5.76   0
  -1  -1   7    0.98    4.47   0
   1   1  -7   13.10    4.24   0
   0  -1   7    3.90    4.02   0
   0   1  -7    1.09    4.00   0
  -1   1  -7    2.08    4.02   0
   1  -1   7    0.51    2.96   0
  -2   1  -7   31.54    5.14   0
   2  -1   7   33.36    4.11   0
  -3   1  -7  348.09    7.37   0
   3  -1   7  400.19    5.64   0
  -4   1  -7   -1.74    4.81   0
   4  -1   7   -7.80    4.08   0
   4  -1   7   -7.51    3.97   0
  -5   1  -7   -3.36    3.71   0
   5  -1   7    0.30    3.84   0
   5  -1   7    0.15    3.73   0
  -6   1  -7    0.92    4.13   0
   6  -1   7    1.99    4.74   0
   6  -1   7   -0.04    4.75   0
   7  -1   7   -3.29    5.24   0
   7  -1   7    2.57    4.56   0
   8  -1   7   29.67    6.26   0
  -8   0   7   11.95    6.55   0
   8   0  -7   28.33    6.52   0
   7   0  -7    2.30    4.79   0
  -7   0   7   -5.13    5.49   0
   7   0  -7    5.25    4.34   0
   6   0  -7   -5.29    4.54   0
  -6   0   7    1.18    4.42   0
   6   0  -7   -2.79    4.39   0
   5   0  -7   33.28    4.44   0
   5   0  -7   45.49    4.16   0
  -5   0   7   49.06    5.10   0
   4   0  -7  202.79    5.04   0
  -4   0   7  208.55    5.65   0
   4   0  -7  195.57    4.70   0
   3   0  -7   12.21    3.96   0
  -3   0   7    9.79    4.20   0
   3   0  -7    8.83    4.05   0
  -2   0   7   18.30    3.15   0
   2   0  -7   14.85    3.89   0
  -1   0   7  115.98    5.28   0
   1   0  -7  112.70    6.72   0
   1   0  -7  249.26    6.23   0
   0   0  -7 1639.42    8.92   0
   0   0   7 1445.31    8.85   0
  -1   0  -7  989.11   15.60   0
   1   0   7  986.59    7.79   0
  -2   0  -7 5077.54   22.57   0
   2   0   7 5364.08   15.49   0
  -3   0  -7   70.13    5.03   0
   3   0   7   75.36    4.18   0
   3   0   7   76.80    3.76   0
   4   0   7  200.83    4.38   0
   5   0   7  184.01    5.70   0
   5   0   7  197.78    5.79   0
   6   0   7   18.38    4.45   0
   6   0   7   14.62    4.06   0
   7   0   7   13.56    5.34   0
   7   0   7   25.92    4.77   0
   8   0   7   11.73    5.37   0
   7  -1  -7    0.52    4.38   0
  -7   1   7    2.47    5.55   0
   7  -1  -7   -0.76    4.69   0
  -6   1   7   92.13    4.86   0
   6  -1  -7   71.62    4.09   0
   6  -1  -7   75.35    4.76   0
   5  -1  -7   27.42    4.03   0
  -5   1   7   30.35    4.43   0
   5  -1  -7   28.70    4.95   0
   4  -1  -7  142.31    4.41   0
  -4   1   7  131.68    4.99   0
   4  -1  -7  124.62    5.38   0
   3  -1  -7 1943.58   10.13   0
  -3   1   7 1950.12   10.63   0
   3  -1  -7 1886.63    9.81   0
  -2   1   7    9.71    4.36   0
   2  -1  -7   10.71    3.94   0
  -1   1   7 3043.20   12.52   0
   1  -1  -7 3422.67   19.25   0
   1  -1  -7 3364.50   12.54   0
   0   1   7  -10.77    4.51   0
   1   1   7   39.39    3.03   0
   2   1   7  -15.35    5.61   0
   3   1   7    1.67    3.95   0
   3   1   7   -1.00    3.39   0
   4   1   7    2.34    5.03   0
   4   1   7   11.88    3.49   0
   5   1   7   20.12    3.42   0
   5   1   7   21.02    3.89   0
   6   1   7   -4.13    3.95   0
   6   1   7    4.32    3.84   0
   7   1   7   25.48    4.56   0
   7   1   7   28.54    4.54   0
   8   1   7   70.57    5.67   0
   8   1   7   60.62    5.20   0
  -7   2   7   87.94    6.18   0
   7  -2  -7   91.89    4.74   0
   7  -2  -7   87.07    6.10   0
  -6   2   7  118.82    5.34   0
   6  -2  -7  119.02    4.90   0
   6  -2  -7  116.53    5.64   0
   5  -2  -7    8.48    3.99   0
   5  -2  -7    7.08    5.02   0
  -5   2   7    6.40    4.89   0
  -4   2   7 1191.19    9.81   0
   4  -2  -7 1181.26    7.89   0
   4  -2  -7 1151.57    8.64   0
  -3   2   7    5.79    5.70   0
   3  -2  -7   -1.91    3.86   0
   3  -2  -7   -2.95    4.71   0
  -3   2   7    1.50    3.87   0
  -2   2   7   15.17    4.58   0
  -2   2   7   10.01    4.67   0
   2  -2  -7   15.43    3.89   0
  -1   2   7  526.36    8.02   0
  -1   2   7  514.27    6.61   0
   0   2   7  744.11   12.18   0
   0   2   7  782.50    7.10   0
   2   2   7   95.68    3.94   0
   2   2   7   75.92    5.36   0
   3   2   7   93.64    5.10   0
   3   2   7  105.64    4.01   0
   4   2   7   94.41    4.03   0
   4   2   7  112.42    5.40   0
   5   2   7    3.01    4.58   0
   5   2   7    0.40    3.47   0
   6   2   7   12.58    4.46   0
   6   2   7    1.81    3.76   0
   7   2   7    4.73    4.40   0
   7   2   7    6.36    4.33   0
   8   2   7   12.58    5.17   0
   8   2   7    0.15    4.98   0
  -7   3   7    4.97    7.10   0
  -6   3   7    4.27    5.71   0
  -5   3   7   19.33    3.70   0
  -5   3   7    9.43    5.15   0
  -4   3   7 2738.76   15.25   0
  -4   3   7 2735.74   10.90   0
  -3   3   7   25.09    5.99   0
  -3   3   7   32.20    4.17   0
  -2   3   7  181.14    6.70   0
  -2   3   7  240.66    5.53   0
  -1   3   7  390.23    6.42   0
  -1   3   7  388.82    6.12   0
   0   3   7 1096.93    7.90   0
   0   3   7 1126.47    8.64   0
   1   3   7  698.61    6.14   0
   2   3   7   18.93    3.33   0
   3   3   7    5.79    2.40   0
   4   3   7   44.81    4.60   0
   4   3   7   31.16    2.99   0
   5   3   7    3.63    3.81   0
   5   3   7    5.88    3.37   0
   6   3   7   55.80    4.62   0
   6   3   7   49.10    4.25   0
   7   3   7  202.62    5.17   0
   7   3   7  198.59    5.05   0
   8   3   7   14.98    5.17   0
   8   3   7   21.39    4.95   0
  -6   4   7   12.65    8.39   0
  -6   4   7   17.21    4.20   0
  -5   4   7  148.27    8.07   0
  -5   4   7  144.84    4.71   0
  -4   4   7  205.90    5.01   0
  -4   4   7  207.24    7.37   0
  -3   4   7    7.47    5.76   0
  -3   4   7   10.66    4.30   0
  -2   4   7   -4.25    3.55   0
  -2   4   7    1.62    4.03   0
  -2   4   7   -2.68    5.65   0
  -1   4   7  248.96    5.54   0
  -1   4   7  245.74    5.69   0
  -1   4   7  257.91    4.92   0
   0   4   7  139.69    4.12   0
   1   4   7   19.47    3.70   0
   2   4   7  109.88    3.78   0
   3   4   7  102.37    3.97   0
   4   4   7   28.90    3.44   0
   5   4   7   -0.29    4.44   0
   5   4   7    3.33    3.56   0
  -5  -4  -7    8.79    3.73   0
   6   4   7   86.22    5.20   0
  -6  -4  -7   93.88    3.57   0
   6   4   7   74.56    4.12   0
   7   4   7   27.35    4.82   0
   7   4   7   39.92    4.76   0
   8   4   7    1.38    5.39   0
   8   4   7   13.09    5.18   0
  -6   5   7   -1.69    4.71   0
  -5   5   7   16.23    4.27   0
  -4   5   7  463.13   11.06   0
  -4   5   7  457.45    5.98   0
  -4   5   7  465.24   12.33   0
  -3   5   7  924.97   12.23   0
  -3   5   7  938.15    7.43   0
  -3   5   7  929.83   10.56   0
  -2   5   7    9.42    3.52   0
  -2   5   7    4.37    4.12   0
  -2   5   7    7.70    5.52   0
  -1   5   7  269.66    5.10   0
  -1   5   7  286.84    6.53   0
   0   5   7   45.79    3.59   0
   1   5   7  111.86    3.77   0
   2   5   7   25.65    3.39   0
  -3  -5  -7    3.76    3.54   0
   3   5   7    2.01    3.28   0
   4   5   7    1.55    3.47   0
  -4  -5  -7   -1.37    3.64   0
   5   5   7   13.52    3.61   0
  -5  -5  -7   16.78    3.43   0
   6   5   7    9.65    3.78   0
   6   5   7    8.48    4.44   0
  -6  -5  -7    3.03    4.07   0
   7   5   7    8.53    4.53   0
   7   5   7    1.91    4.62   0
  -7  -5  -7   14.42    4.57   0
  -6   6   7  118.15    5.35   0
  -5   6   7   60.33    4.99   0
  -4   6   7  242.50    5.42   0
  -3   6   7    6.56    7.43   0
  -3   6   7    4.92    6.05   0
  -3   6   7    7.41    4.13   0
  -2   6   7  106.24    4.78   0
  -2   6   7   48.43    5.24   0
  -2   6   7  133.73    6.61   0
  -1   6   7   -3.51    3.55   0
   0   6   7   60.09    4.46   0
   1   6   7  842.99    7.00   0
   2   6   7  207.47    4.35   0
   3   6   7   -0.82    3.25   0
  -3  -6  -7    1.22    3.58   0
   4   6   7  240.18    4.70   0
  -4  -6  -7  254.12    4.01   0
   5   6   7   58.43    3.80   0
  -5  -6  -7   58.00    4.07   0
   6   6   7    1.91    3.79   0
  -6  -6  -7    1.22    3.68   0
   7   6   7   -0.68    4.99   0
   7   6   7   -3.24    4.94   0
  -7  -6  -7    1.40    4.33   0
  -5   7   7   25.68    5.37   0
  -4   7   7   82.74    5.11   0
  -3   7   7  116.53    4.84   0
  -2   7   7   19.77    5.47   0
  -2   7   7   13.54    4.26   0
  -2   7   7   14.88    5.72   0
  -1   7   7    7.14    3.84   0
   0   7   7    0.85    3.93   0
   1   7   7  171.44    4.57   0
  -2  -7  -7   25.44    3.77   0
   2   7   7   10.75    3.99   0
  -3  -7  -7    4.22    3.64   0
   3   7   7    0.08    3.94   0
   4   7   7    4.54    3.89   0
  -4  -7  -7    3.64    4.08   0
   5   7   7   12.73    3.07   0
  -5  -7  -7   17.13    4.28   0
   6   7   7   -1.40    4.73   0
  -6  -7  -7    1.97    4.27   0
  -4   8   7   47.16    5.54   0
  -3   8   7    2.38    5.00   0
  -2   8   7   -3.72    5.95   0
  -2   8   7    4.61    4.47   0
  -2   8   7    1.11    6.39   0
  -1   8   7   -0.45    5.03   0
   0   8   7   10.75    4.24   0
   1   8   7   10.79    5.00   0
   2   8   7   12.58    4.58   0
   3   8   7   55.60    4.72   0
  -3  -8  -7   69.62    3.96   0
   4   8   7   -1.59    4.59   0
  -4  -8  -7    3.32    4.60   0
  -5  -8  -7   19.52    4.34   0
   5   8   7   -2.48    4.45   0
  -6  -8  -7   -5.05    4.70   0
   6   8   7   -7.89    5.28   0
  -3   9   7   -1.07    5.60   0
  -2   9   7   40.33    5.42   0
  -2   9   7   50.90    8.67   0
  -2   9   7   39.42    9.12   0
  -1   9   7   85.90    6.49   0
   0   9   7    2.16    5.35   0
   1   9   7   -2.71    4.57   0
   2   9   7   -1.88    4.64   0
  -3  -9  -7    1.68    4.60   0
   3   9   7    9.78    4.61   0
  -4  -9  -7   -0.68    4.48   0
   4   9   7   -2.89    5.09   0
   0  10   7    1.05    5.36   0
   1  10   7   -1.49    5.39   0
   2  10   7    9.40    5.37   0
   3   7  -8   16.40    5.25   0
  -3  -7   8   20.01    5.22   0
   2   7  -8    6.83    5.28   0
  -2  -7   8   -2.56    4.52   0
  -1  -7   8   -5.94    4.74   0
   1   7  -8    3.54    4.53   0
   0  -7   8   -5.58    4.99   0
   0   7  -8   14.14    5.53   0
  -1   7  -8   11.62    5.29   0
   1  -7   8    8.67    5.68   0
  -2   7  -8   41.60    5.83   0
   2  -7   8   40.96    5.50   0
  -3   7  -8   45.73    6.31   0
   5   6  -8    6.17    5.11   0
  -5  -6   8    2.42    5.34   0
  -4  -6   8   -0.18    4.92   0
   4   6  -8   -7.34    5.25   0
   3   6  -8    2.18    5.15   0
  -3  -6   8   12.18    4.34   0
   2   6  -8   53.96    5.18   0
  -2  -6   8   44.50    4.74   0
  -1  -6   8  133.20    5.19   0
   1   6  -8  121.68    4.78   0
   0  -6   8   66.64    4.33   0
   0   6  -8   73.12    5.38   0
   1  -6   8   20.32    4.45   0
  -1   6  -8   12.11    5.22   0
   2  -6   8   14.29    5.30   0
  -2   6  -8   17.34    5.72   0
   3  -6   8   41.34    5.68   0
  -3   6  -8   46.38    5.16   0
  -4   6  -8   -5.88    5.64   0
   4  -6   8   -2.15    6.28   0
  -5  -5   8    0.28    4.46   0
   5   5  -8    2.19    4.98   0
   4   5  -8   42.64    4.68   0
  -4  -5   8   41.12    4.14   0
   3   5  -8  189.83    5.22   0
  -3  -5   8  211.29    4.93   0
   2   5  -8   45.48    4.46   0
  -2  -5   8   46.68    3.95   0
  -1  -5   8    7.87    4.22   0
   1   5  -8   12.26    4.62   0
   0  -5   8    5.03    4.14   0
   0   5  -8    5.19    4.91   0
   1  -5   8   18.56    3.98   0
  -1   5  -8   13.91    5.08   0
   2  -5   8    9.48    4.30   0
  -2   5  -8    7.78    5.44   0
   3  -5   8    1.67    4.36   0
  -3   5  -8    3.33    4.69   0
  -4   5  -8   -1.90    4.90   0
   5  -5   8    3.43    6.30   0
   5  -5   8    4.23    6.31   0
  -5   5  -8    8.78    5.26   0
   6   4  -8    0.65    4.79   0
   6   4  -8   12.04    5.31   0
  -6  -4   8    7.98    5.09   0
   5   4  -8   -1.48    4.71   0
  -5  -4   8    1.66    4.19   0
   4   4  -8   35.67    4.24   0
  -4  -4   8   38.47    4.16   0
   3   4  -8  512.93    5.71   0
  -3  -4   8  537.66    5.80   0
   2   4  -8  239.98    5.01   0
  -2  -4   8  248.16    4.73   0
  -1  -4   8  187.30    4.41   0
   1   4  -8  191.27    5.00   0
   0  -4   8    3.75    4.02   0
   0   4  -8    5.23    4.23   0
   1  -4   8  244.06    5.37   0
  -1   4  -8  265.51    5.67   0
   2  -4   8    0.14    4.04   0
  -2   4  -8   -2.03    4.27   0
   3  -4   8   -2.16    4.43   0
  -3   4  -8   -0.55    4.26   0
   4  -4   8    3.72    4.55   0
  -4   4  -8   16.08    4.57   0
   5  -4   8    5.58    5.24   0
  -5   4  -8    0.49    4.72   0
   6  -4   8    2.22    6.18   0
   6  -4   8    3.24    6.36   0
  -6   4  -8   -2.30    5.45   0
   7   3  -8   29.06    5.64   0
  -7  -3   8   22.80    5.33   0
   7   3  -8   26.18    5.23   0
  -6  -3   8    4.09    4.74   0
   6   3  -8   -2.25    4.79   0
   6   3  -8    3.58    4.58   0
   5   3  -8    6.34    4.66   0
   5   3  -8   14.89    4.39   0
  -5  -3   8    7.27    4.14   0
   4   3  -8  139.01    4.68   0
  -4  -3   8  136.72    4.34   0
   3   3  -8 1196.61    7.55   0
  -3  -3   8 1212.09    7.42   0
   2   3  -8   64.80    4.29   0
  -2  -3   8   39.86    4.05   0
  -1  -3   8   21.59    4.12   0
   1   3  -8   26.25    4.24   0
   0  -3   8    1.60    4.49   0
   0   3  -8  -26.29    4.99   0
   1  -3   8   46.56    4.59   0
  -1   3  -8   62.90    4.61   0
   2  -3   8   -4.98    4.40   0
   3  -3   8   12.38    4.02   0
  -3   3  -8   14.25    4.65   0
   4  -3   8   99.84    5.54   0
  -4   3  -8   95.76    5.29   0
   5  -3   8   43.11    5.32   0
   5  -3   8   31.11    5.28   0
  -5   3  -8   45.20    4.68   0
   6  -3   8    5.09    5.42   0
  -6   3  -8   13.25    4.71   0
   7  -3   8   13.17    6.67   0
  -7   3  -8    9.36    5.20   0
   7  -3   8   11.13    6.69   0
   7   2  -8    9.13    5.24   0
  -7  -2   8    8.83    5.35   0
   7   2  -8   -0.43    4.92   0
  -6  -2   8   10.80    4.44   0
   6   2  -8   19.07    4.45   0
   6   2  -8   13.44    4.61   0
   5   2  -8   28.35    4.25   0
   5   2  -8   10.41    3.91   0
  -5  -2   8   11.42    4.33   0
   4   2  -8   10.89    4.28   0
   4   2  -8   15.02    4.39   0
  -4  -2   8   14.36    3.84   0
   3   2  -8   38.44    4.16   0
  -3  -2   8   19.40    3.95   0
  -2  -2   8  290.03    5.32   0
   2   2  -8  286.52    5.44   0
  -1  -2   8   -2.47    4.48   0
   1   2  -8   -0.27    4.40   0
   0  -2   8 1325.52    8.15   0
   0   2  -8 1465.05    8.50   0
   1  -2   8  154.02    5.01   0
  -1   2  -8  188.17    4.87   0
   2  -2   8   22.19    4.25   0
  -2   2  -8   20.16    4.27   0
  -3   2  -8   22.53    5.23   0
   3  -2   8   23.06    5.83   0
  -4   2  -8    7.78    4.47   0
   4  -2   8    7.18    3.89   0
   4  -2   8    4.18    4.48   0
   5  -2   8    0.74    4.79   0
  -5   2  -8    0.56    4.05   0
   5  -2   8    0.85    4.17   0
   6  -2   8    0.15    5.14   0
  -6   2  -8    3.73    4.81   0
   6  -2   8    5.62    4.37   0
  -7   2  -8    5.36    4.72   0
   7  -2   8    0.43    5.57   0
   7   1  -8   -4.46    4.96   0
  -7  -1   8   -0.72    5.16   0
   7   1  -8    3.53    4.33   0
   6   1  -8   60.63    4.88   0
   6   1  -8   60.32    4.38   0
  -6  -1   8   74.22    5.23   0
   5   1  -8  196.58    5.26   0
   5   1  -8  208.77    4.73   0
  -5  -1   8  217.50    5.16   0
   4   1  -8  428.63    5.42   0
   4   1  -8  437.04    6.14   0
  -4  -1   8  428.26    5.71   0
   3   1  -8 2691.02   12.14   0
  -3  -1   8 2677.57   10.73   0
   3   1  -8 2580.88   10.40   0
  -2  -1   8  368.10    5.74   0
   2   1  -8  368.40    5.69   0
  -1  -1   8  132.51    4.89   0
   1   1  -8  154.55    4.77   0
   0  -1   8   -2.43    4.38   0
   0   1  -8   -2.53    2.94   0
   1  -1   8   37.13    4.42   0
  -2   1  -8   97.10    5.68   0
   2  -1   8   81.33    4.45   0
  -3   1  -8  224.15    6.66   0
   3  -1   8  106.67    4.37   0
   4  -1   8  -33.74    4.47   0
  -4   1  -8  -29.57    4.50   0
   4  -1   8  -60.26    5.19   0
  -5   1  -8    6.00    3.89   0
   5  -1   8    5.65    4.00   0
   5  -1   8    7.67    4.38   0
   6  -1   8   16.97    4.29   0
   6  -1   8   14.29    4.61   0
   7  -1   8    8.23    5.55   0
   7  -1   8    5.27    5.44   0
  -7   0   8    2.20    5.83   0
   7   0  -8   -4.64    4.71   0
   7   0  -8    3.26    5.01   0
   6   0  -8   99.06    4.76   0
  -6   0   8  108.13    5.22   0
   6   0  -8   86.35    4.98   0
   5   0  -8  -16.77    4.24   0
  -5   0   8    0.97    4.31   0
   5   0  -8  -17.87    4.35   0
   4   0  -8  186.72    4.81   0
  -4   0   8  170.71    4.98   0
   4   0  -8  176.79    4.84   0
  -3   0   8   68.11    4.69   0
   3   0  -8   62.64    5.19   0
   3   0  -8   63.09    4.22   0
  -2   0   8  589.40    6.61   0
   2   0  -8  607.12    6.41   0
  -1   0   8 1190.70    8.12   0
   1   0  -8 1209.79   11.89   0
   1   0  -8 1288.91    8.20   0
   0   0  -8  135.77    8.77   0
   0   0  -8  173.52    4.65   0
   0   0   8  143.77    3.82   0
  -1   0  -8  150.52   10.92   0
   1   0   8   59.87    5.78   0
  -2   0  -8 3305.19   20.01   0
   2   0   8 3367.79   12.16   0
  -3   0  -8   63.90    5.44   0
   3   0   8   57.72    4.07   0
   4   0   8   32.74    3.78   0
   4   0   8   35.59    4.16   0
   5   0   8   20.68    3.99   0
   5   0   8   23.80    3.98   0
   6   0   8    1.96    4.19   0
   7   0   8   -1.89    5.36   0
   8   0   8   10.47    5.39   0
   8   0   8   14.25    5.78   0
  -7   1   8    2.87    5.23   0
   7  -1  -8   10.82    4.78   0
   7  -1  -8    7.97    5.61   0
   6  -1  -8   23.83    3.95   0
   6  -1  -8   19.96    4.68   0
  -6   1   8   20.84    5.45   0
   5  -1  -8    0.24    3.88   0
  -5   1   8   -1.17    4.37   0
   5  -1  -8   -1.55    4.10   0
  -4   1   8  841.29    8.32   0
   4  -1  -8  855.42    7.13   0
   4  -1  -8  764.00    7.21   0
  -3   1   8  892.32    7.74   0
   3  -1  -8  931.02    8.26   0
   3  -1  -8  876.26    7.23   0
  -2   1   8  211.08    5.28   0
   2  -1  -8  228.39    4.83   0
  -1   1   8   50.72    4.53   0
   1  -1  -8   59.15    5.83   0
   1  -1  -8   60.13    3.99   0
   0   1   8    2.67    3.99   0
   1   1   8   45.75    3.92   0
   2   1   8  -27.39    4.24   0
   3   1   8   -2.88    3.28   0
   3   1   8    1.06    4.82   0
   4   1   8    7.33    3.80   0
   4   1   8   10.92    3.53   0
   5   1   8   22.63    3.71   0
   5   1   8   25.78    3.79   0
   6   1   8   16.00    4.22   0
   6   1   8   15.34    4.05   0
   7   1   8   -3.57    4.60   0
   7   1   8    6.34    4.19   0
   8   1   8    8.59    5.44   0
   8   1   8   -0.81    5.22   0
  -7   2   8   27.83    6.36   0
   7  -2  -8   36.50    4.91   0
   7  -2  -8   30.70    6.09   0
  -6   2   8   59.24    5.66   0
   6  -2  -8   56.88    4.46   0
   6  -2  -8   50.54    4.72   0
   5  -2  -8    4.96    4.28   0
  -5   2   8    4.11    5.16   0
   5  -2  -8   -0.74    4.79   0
  -4   2   8  517.16    7.61   0
   4  -2  -8  539.30    6.05   0
   4  -2  -8  500.40    6.25   0
  -3   2   8  362.51    6.54   0
   3  -2  -8  384.85    5.96   0
   3  -2  -8  350.97    5.94   0
  -2   2   8   70.12    4.65   0
  -2   2   8   77.15    5.43   0
  -1   2   8    7.75    4.78   0
  -1   2   8    7.49    4.39   0
   0   2   8  313.77    5.34   0
   1   2   8  266.24    5.16   0
   2   2   8   11.07    3.37   0
   2   2   8    8.19    6.32   0
   3   2   8  342.08    4.99   0
   3   2   8  331.71    7.22   0
   4   2   8  204.40    5.93   0
   4   2   8  201.59    4.33   0
   5   2   8   10.17    3.63   0
   5   2   8   13.00    3.79   0
   6   2   8   10.05    4.57   0
   6   2   8   25.09    3.93   0
   7   2   8   -0.54    4.98   0
   7   2   8    5.17    4.67   0
   8   2   8    8.36    5.35   0
   8   2   8    9.91    4.94   0
  -7   3   8    1.04    6.59   0
  -6   3   8   33.66    6.05   0
  -5   3   8   31.57    4.00   0
  -5   3   8   24.36    5.41   0
  -4   3   8    4.39    4.01   0
  -4   3   8   10.39    5.26   0
  -3   3   8 2361.88   13.06   0
  -3   3   8 2357.73   10.92   0
  -2   3   8   45.12    5.00   0
  -2   3   8   46.22    5.03   0
  -1   3   8  137.24    5.76   0
  -1   3   8  132.57    4.85   0
   0   3   8   21.02    5.13   0
   0   3   8    6.78    4.33   0
   1   3   8    7.44    3.28   0
   2   3   8  136.97    4.00   0
   3   3   8   65.66    5.05   0
   3   3   8   83.86    3.86   0
   4   3   8  198.13    4.24   0
   4   3   8  183.64    4.91   0
   5   3   8  158.84    4.68   0
   5   3   8  132.55    4.18   0
   6   3   8   82.88    4.69   0
   6   3   8   79.88    4.05   0
   7   3   8   86.64    4.83   0
   7   3   8   88.63    4.94   0
   8   3   8   14.99    5.43   0
   8   3   8    6.47    5.27   0
  -6   4   8   87.17    5.15   0
  -6   4   8   87.07    7.97   0
  -5   4   8    8.52    3.96   0
  -5   4   8    6.53    5.94   0
  -4   4   8  113.48    4.96   0
  -4   4   8  109.87    6.42   0
  -3   4   8    0.79    5.39   0
  -3   4   8    3.78    3.96   0
  -2   4   8   -0.62    4.73   0
  -2   4   8    2.51    5.18   0
  -1   4   8  465.84    5.70   0
  -1   4   8  439.51    7.08   0
  -1   4   8  449.04    6.37   0
   0   4   8  236.78    4.80   0
   1   4   8  122.21    3.77   0
   2   4   8    4.76    3.43   0
   3   4   8  221.26    4.61   0
   4   4   8  172.96    4.29   0
   5   4   8   70.54    4.50   0
   5   4   8   55.04    3.75   0
   6   4   8   -0.22    4.44   0
   6   4   8    4.86    3.86   0
   7   4   8   -4.39    4.55   0
   7   4   8   -1.60    5.02   0
   8   4   8    6.29    5.55   0
   8   4   8  -12.63    5.32   0
  -6   5   8   34.52    4.97   0
  -5   5   8   28.76    4.74   0
  -5   5   8   25.32   10.17   0
  -5   5   8   30.55    9.66   0
  -4   5   8   44.62    5.76   0
  -4   5   8   49.06    4.34   0
  -4   5   8   43.03    6.88   0
  -3   5   8   24.12    5.85   0
  -3   5   8   20.40    4.73   0
  -3   5   8   23.55    4.22   0
  -2   5   8   38.57    3.69   0
  -2   5   8   36.73    3.96   0
  -2   5   8   38.74    5.30   0
  -1   5   8   32.50    4.19   0
  -1   5   8   33.92    4.89   0
  -1   5   8   33.07    4.04   0
   0   5   8    5.29    3.18   0
   1   5   8   35.20    3.59   0
   2   5   8   86.28    3.86   0
   3   5   8   14.49    3.42   0
   4   5   8   60.49    3.45   0
   5   5   8   19.05    3.51   0
   6   5   8    1.08    3.79   0
   6   5   8    3.57    4.30   0
   7   5   8    4.79    4.32   0
   7   5   8    8.65    4.77   0
  -6   6   8    0.50    5.41   0
  -5   6   8    0.09    4.81   0
  -4   6   8   43.22    4.70   0
  -3   6   8    1.44    6.49   0
  -3   6   8   -0.17    4.12   0
  -3   6   8    2.56    5.40   0
  -2   6   8  171.88    5.59   0
  -2   6   8  161.28    6.58   0
  -2   6   8  148.93    5.58   0
  -1   6   8  107.78    4.98   0
  -1   6   8  102.44    4.36   0
   0   6   8   10.45    3.51   0
   1   6   8 1101.37    7.56   0
   2   6   8  540.09    5.75   0
   3   6   8    2.72    3.33   0
   4   6   8   15.50    3.47   0
  -5  -6  -8  152.89    4.21   0
   5   6   8  133.54    4.23   0
   6   6   8    2.73    3.85   0
   6   6   8    6.64    4.63   0
  -6  -6  -8    2.46    3.01   0
   7   6   8  -16.31    5.42   0
   7   6   8   -5.14    5.01   0
  -5   7   8   23.52    4.89   0
  -4   7   8   28.35    4.92   0
  -3   7   8    1.52    7.15   0
  -3   7   8    5.85    8.27   0
  -3   7   8    4.73    4.76   0
  -2   7   8    0.14    4.86   0
  -2   7   8    2.35    4.32   0
  -2   7   8    6.08    5.52   0
  -1   7   8    5.37    4.53   0
  -1   7   8    6.68    5.15   0
   0   7   8    2.50    4.01   0
   1   7   8   97.30    4.54   0
   2   7   8  114.09    4.32   0
   3   7   8    2.46    3.80   0
   4   7   8   31.10    4.39   0
  -4  -7  -8   51.22    4.22   0
   5   7   8   49.25    4.31   0
  -5  -7  -8   68.13    4.41   0
   6   7   8    8.00    4.81   0
  -6  -7  -8    9.79    3.63   0
  -4   8   8   11.63    4.85   0
  -3   8   8    2.85    4.89   0
  -2   8   8    5.93    5.02   0
  -2   8   8    1.74    6.53   0
  -2   8   8   -0.59    6.17   0
  -1   8   8   25.59    5.15   0
  -1   8   8   28.76    5.45   0
   0   8   8   41.49    4.45   0
   1   8   8   79.69    4.69   0
   2   8   8  100.01    4.31   0
   3   8   8    4.75    4.19   0
   4   8   8  117.39    5.10   0
  -4  -8  -8  135.85    5.07   0
   5   8   8   14.41    4.53   0
  -5  -8  -8   27.91    5.07   0
  -2   9   8   26.67    5.39   0
  -2   9   8   29.21    8.16   0
  -2   9   8   15.64    8.45   0
  -1   9   8   29.04    6.88   0
  -1   9   8   43.22    6.29   0
   0   9   8   20.40    5.54   0
   1   9   8   87.13    5.58   0
   2   9   8   33.06    5.16   0
   3   9   8    2.57    4.33   0
   4   9   8    9.00    4.71   0
  -2  -7   9   23.38    5.43   0
   2   7  -9   22.70    5.67   0
  -1  -7   9   20.56    5.48   0
   1   7  -9    3.94    5.37   0
   0  -7   9   45.22    5.24   0
   0   7  -9   42.29    5.59   0
  -1   7  -9    4.47    5.53   0
   1  -7   9    8.76    5.25   0
   2  -7   9    1.13    6.15   0
   4   6  -9   21.54    5.22   0
  -4  -6   9   33.67    4.96   0
   3   6  -9    6.42    4.83   0
  -3  -6   9   11.59    4.60   0
  -2  -6   9   18.15    4.26   0
   2   6  -9    4.14    4.88   0
  -1  -6   9   16.71    4.35   0
   1   6  -9   15.33    4.61   0
   0  -6   9   33.34    4.83   0
   0   6  -9   38.96    5.13   0
   1  -6   9    3.14    4.65   0
  -1   6  -9    6.39    4.87   0
   2  -6   9    5.30    4.65   0
   3  -6   9    5.77    5.73   0
  -3   6  -9    4.74    5.11   0
  -4   6  -9    7.95    5.80   0
  -5  -5   9    0.80    5.10   0
   5   5  -9    3.25    5.33   0
   4   5  -9   35.87    4.90   0
  -4  -5   9   28.87    4.71   0
   3   5  -9  273.31    5.64   0
  -3  -5   9  266.00    5.13   0
  -2  -5   9   65.13    4.61   0
   2   5  -9   69.15    4.63   0
  -1  -5   9   -3.82    4.19   0
   1   5  -9    4.04    4.44   0
   0  -5   9   42.99    4.26   0
   0   5  -9   49.06    4.51   0
   1  -5   9   -0.88    4.28   0
  -1   5  -9    9.18    4.91   0
   2  -5   9    6.02    4.40   0
   3  -5   9    3.88    5.19   0
  -3   5  -9   -4.21    5.15   0
   4  -5   9   -2.53    5.89   0
  -4   5  -9    3.39    5.80   0
   5  -5   9    1.54    6.03   0
  -5   5  -9   -0.80    5.69   0
   5  -5   9    3.03    5.95   0
   6   4  -9   27.60    5.54   0
  -6  -4   9   12.33    4.94   0
   6   4  -9    1.30    5.51   0
   5   4  -9   82.89    5.42   0
   5   4  -9   77.98    4.87   0
  -5  -4   9   82.41    5.37   0
   4   4  -9  112.74    4.54   0
  -4  -4   9  108.31    4.34   0
   3   4  -9  516.61    5.10   0
  -3  -4   9  533.44    5.92   0
  -2  -4   9  921.21    6.73   0
   2   4  -9  897.31    6.98   0
  -1  -4   9    3.30    3.61   0
   1   4  -9   -0.25    3.86   0
   0  -4   9  115.10    4.78   0
   0   4  -9  132.14    5.13   0
   1  -4   9   20.16    4.09   0
  -1   4  -9    7.63    4.89   0
   2  -4   9   -3.44    4.12   0
   3  -4   9    0.11    4.22   0
  -3   4  -9   -5.86    4.37   0
   4  -4   9    2.96    4.55   0
  -4   4  -9    4.72    5.17   0
  -5   4  -9   25.43    5.19   0
   5  -4   9   15.93    6.17   0
   6  -4   9    4.15    6.83   0
  -6   4  -9   -2.88    5.36   0
   6  -4   9    0.57    6.14   0
  -6  -3   9    5.80    5.06   0
   6   3  -9    6.97    5.03   0
   6   3  -9   -2.84    5.18   0
   5   3  -9   14.16    4.64   0
   5   3  -9   13.22    4.71   0
  -5  -3   9   11.86    4.71   0
   4   3  -9   76.39    4.23   0
  -4  -3   9   80.02    4.26   0
  -3  -3   9  762.31    6.41   0
   3   3  -9  711.68    6.49   0
  -2  -3   9   34.37    4.15   0
   2   3  -9   38.34    4.10   0
  -1  -3   9   22.08    3.81   0
   1   3  -9   20.82    3.97   0
   0  -3   9    1.97    3.69   0
   0   3  -9    4.38    3.69   0
   1  -3   9  260.63    5.23   0
  -1   3  -9  306.11    5.49   0
   2  -3   9   -5.78    4.85   0
  -2   3  -9   -5.33    4.25   0
   3  -3   9   37.62    4.23   0
  -3   3  -9   33.04    5.38   0
   4  -3   9   35.58    4.60   0
  -4   3  -9   39.03    4.59   0
   5  -3   9    3.26    4.47   0
  -5   3  -9    0.12    4.46   0
   5  -3   9   -2.04    5.16   0
  -6   3  -9   16.86    5.04   0
   6  -3   9   19.15    6.05   0
   7   2  -9   -3.09    5.93   0
  -7  -2   9    2.21    6.27   0
   7   2  -9   -2.22    5.27   0
   6   2  -9   79.65    5.34   0
   6   2  -9   70.87    4.86   0
  -6  -2   9   77.33    5.48   0
   5   2  -9   -1.06    4.62   0
   5   2  -9    1.13    4.33   0
  -5  -2   9    3.78    4.62   0
   4   2  -9  473.84    5.58   0
   4   2  -9  516.86    6.09   0
  -4  -2   9  494.39    5.84   0
  -3  -2   9    4.55    3.76   0
   3   2  -9   -5.30    4.16   0
  -2  -2   9    5.90    3.03   0
   2   2  -9   13.07    3.88   0
  -1  -2   9    5.27    3.40   0
   1   2  -9  -18.28    4.63   0
   0  -2   9  210.66    5.07   0
   0   2  -9  240.16    5.14   0
   1  -2   9   16.70    4.40   0
  -1   2  -9   22.39    4.36   0
   2  -2   9   11.47    4.33   0
  -2   2  -9   26.67    5.16   0
   3  -2   9  -16.78    4.43   0
  -3   2  -9   -6.75    4.42   0
  -4   2  -9   29.65    5.04   0
   4  -2   9   18.32    4.22   0
   5  -2   9   26.10    4.41   0
  -5   2  -9   24.74    4.90   0
   5  -2   9   32.44    5.01   0
   6  -2   9    3.40    4.60   0
  -6   2  -9    1.39    4.66   0
   6  -2   9   10.57    5.42   0
   7  -2   9    6.87    5.33   0
   7  -2   9    2.90    5.32   0
  -7  -1   9   -0.31    5.50   0
   7   1  -9    3.79    5.17   0
   7   1  -9   13.74    5.61   0
   6   1  -9    5.11    4.50   0
  -6  -1   9    1.83    4.99   0
   6   1  -9    4.26    4.84   0
   5   1  -9   30.05    4.29   0
  -5  -1   9   32.47    4.56   0
   5   1  -9   33.27    4.43   0
   4   1  -9  124.70    5.14   0
  -4  -1   9  120.97    4.45   0
   4   1  -9  114.86    4.41   0
   3   1  -9  542.85    6.32   0
  -3  -1   9  520.45    5.72   0
   3   1  -9  497.29    5.61   0
  -2  -1   9   28.15    4.93   0
   2   1  -9    1.29    5.46   0
  -1  -1   9  254.18    5.59   0
   1   1  -9  320.67    5.48   0
   0  -1   9   11.85    4.57   0
   0   1  -9  -21.10    4.46   0
   1  -1   9   67.45    4.72   0
  -1   1  -9   87.97    5.72   0
  -2   1  -9  334.60    7.41   0
   2  -1   9  285.01    5.30   0
  -3   1  -9  238.34    5.78   0
   3  -1   9  245.78    5.71   0
  -4   1  -9    0.72    4.63   0
   4  -1   9   -1.14    4.05   0
   4  -1   9    1.21    3.75   0
  -5   1  -9   60.16    4.46   0
   5  -1   9   62.98    4.34   0
   5  -1   9   67.25    4.37   0
   6  -1   9   36.35    5.35   0
   6  -1   9   35.46    4.56   0
   7  -1   9    3.89    5.92   0
   7  -1   9    1.64    4.99   0
  -7   0   9   -2.31    5.50   0
   7   0  -9    5.12    4.98   0
   7   0  -9   -0.03    5.24   0
   6   0  -9  136.22    5.02   0
  -6   0   9  123.16    5.59   0
   6   0  -9  117.02    5.03   0
   5   0  -9   35.84    4.28   0
  -5   0   9   38.62    4.40   0
   5   0  -9   26.65    4.04   0
   4   0  -9  538.82    6.17   0
  -4   0   9  549.87    6.47   0
   4   0  -9  537.68    6.15   0
  -3   0   9  208.35    5.17   0
   3   0  -9  210.00    4.91   0
   3   0  -9  192.48    4.92   0
  -2   0   9   47.93    4.93   0
   2   0  -9   62.48    4.53   0
  -1   0   9  341.16    5.72   0
   1   0  -9  350.75    8.28   0
   1   0  -9  343.78    4.47   0
   0   0   9   39.69    4.55   0
   0   0  -9   42.88   10.36   0
   0   0  -9   47.76    4.14   0
   1   0   9   10.62    4.45   0
   2   0   9  138.96    4.55   0
   3   0   9    8.27    4.11   0
   4   0   9   85.88    4.71   0
   4   0   9   65.35    4.15   0
   5   0   9  206.97    5.00   0
   5   0   9  184.06    4.97   0
   6   0   9   19.91    4.45   0
   6   0   9   32.76    4.41   0
   7   0   9   -3.45    5.52   0
   7   0   9   -0.49    4.61   0
  -7   1   9   74.65    6.01   0
   7  -1  -9   79.38    5.42   0
   7  -1  -9   83.71    5.62   0
   6  -1  -9   80.87    5.01   0
   6  -1  -9   73.87    5.57   0
  -6   1   9   88.40    5.93   0
   5  -1  -9    7.69    4.67   0
  -5   1   9    4.99    4.75   0
   5  -1  -9    3.77    4.31   0
  -4   1   9  100.13    4.80   0
   4  -1  -9  107.51    4.97   0
   4  -1  -9   93.90    4.45   0
  -3   1   9  293.89    5.94   0
   3  -1  -9  327.05    6.11   0
   3  -1  -9  331.81    5.52   0
  -2   1   9    4.06    4.62   0
   2  -1  -9    3.76    5.04   0
   2  -1  -9  -14.69    4.10   0
  -1   1   9   12.66    4.28   0
   1  -1  -9   14.56    3.75   0
   0   1   9  350.47    5.35   0
   1   1   9  107.10    4.43   0
   2   1   9   33.58    4.55   0
   3   1   9    6.16    3.64   0
   3   1   9    3.00    3.77   0
   4   1   9    0.21    3.42   0
   5   1   9   97.85    4.35   0
   5   1   9   83.98    4.62   0
   6   1   9   99.77    5.21   0
   6   1   9   88.10    4.48   0
   7   1   9    6.60    4.81   0
   7   1   9    7.80    5.13   0
   8   1   9   -2.40    6.44   0
  -7   2   9   30.83    6.43   0
   7  -2  -9   46.76    5.34   0
   7  -2  -9   38.70    5.29   0
   6  -2  -9   47.05    4.65   0
   6  -2  -9   51.51    4.84   0
  -6   2   9   55.52    5.91   0
   5  -2  -9   38.12    4.30   0
  -5   2   9   38.94    5.32   0
   5  -2  -9   35.62    4.91   0
  -4   2   9   12.10    5.37   0
   4  -2  -9   15.04    3.93   0
   4  -2  -9   11.15    4.00   0
  -3   2   9 1477.95   10.04   0
   3  -2  -9 1588.76    9.20   0
  -2   2   9   -1.44    5.02   0
  -1   2   9   12.42    4.07   0
   0   2   9    0.55    2.87   0
   1   2   9   71.29    4.29   0
   2   2   9   25.54    3.76   0
   2   2   9   30.54    4.24   0
   3   2   9   67.57    5.71   0
   3   2   9   63.87    3.87   0
   4   2   9   93.64    5.17   0
   4   2   9   82.99    3.68   0
   5   2   9   59.01    4.12   0
   5   2   9   62.02    4.97   0
   6   2   9   -1.85    4.04   0
   6   2   9    1.22    4.17   0
   7   2   9    5.07    5.01   0
   7   2   9   -1.34    5.13   0
   8   2   9   -5.64    5.31   0
   8   2   9    5.31    5.27   0
  -7   3   9   22.43    7.07   0
  -6   3   9    3.26    5.76   0
  -5   3   9   19.40    5.70   0
  -4   3   9  128.11    4.51   0
  -4   3   9  138.89    5.56   0
  -3   3   9    1.68    5.31   0
  -3   3   9    7.01    4.52   0
  -2   3   9   -4.38    5.16   0
  -2   3   9    4.01    4.78   0
  -1   3   9   79.69    5.59   0
  -1   3   9   89.26    4.51   0
   0   3   9  161.29    7.54   0
   0   3   9  169.96    4.62   0
   1   3   9    1.56    3.31   0
   1   3   9    7.42    3.79   0
   2   3   9   10.52    5.83   0
   2   3   9    8.39    3.40   0
   3   3   9   39.21    5.27   0
   3   3   9   58.68    3.82   0
   4   3   9  159.58    4.12   0
   4   3   9  163.14    5.69   0
   5   3   9    3.14    4.05   0
   5   3   9    0.63    3.45   0
   6   3   9   15.38    4.09   0
   6   3   9   12.45    3.98   0
   7   3   9   64.16    4.97   0
   7   3   9   61.94    4.87   0
   8   3   9    9.04    5.54   0
   8   3   9   28.75    5.52   0
  -6   4   9  106.89    7.67   0
  -5   4   9   15.43    4.44   0
  -5   4   9   19.14    6.12   0
  -4   4   9   96.28    4.75   0
  -4   4   9   97.40    6.22   0
  -3   4   9    1.39    5.20   0
  -3   4   9   -1.30    4.50   0
  -2   4   9   26.93    4.43   0
  -2   4   9   27.87    4.52   0
  -1   4   9  286.52    6.47   0
  -1   4   9  287.37    5.20   0
  -1   4   9  274.73    5.40   0
   0   4   9    7.29    3.34   0
   0   4   9    9.73    5.12   0
   0   4   9   15.58    4.01   0
   1   4   9   13.86    3.28   0
   2   4   9   43.48    3.66   0
   3   4   9   64.17    4.03   0
   4   4   9   71.46    3.87   0
   4   4   9   84.37    4.45   0
   5   4   9   57.54    5.32   0
   5   4   9   49.54    3.74   0
   6   4   9   26.66    5.09   0
   6   4   9   17.31    3.95   0
   7   4   9   46.22    4.52   0
   7   4   9   52.22    5.05   0
  -6   5   9    1.77    4.62   0
  -5   5   9   20.32    4.74   0
  -5   5   9   17.57    6.85   0
  -5   5   9   16.04    7.03   0
  -4   5   9    1.60    4.36   0
  -4   5   9    8.40    5.94   0
  -4   5   9    2.64    4.69   0
  -3   5   9    2.54    5.48   0
  -3   5   9    6.67    4.01   0
  -3   5   9    5.89    4.29   0
  -2   5   9   -1.19    3.55   0
  -2   5   9   -1.84    3.76   0
  -2   5   9    2.82    5.38   0
  -1   5   9    0.04    3.26   0
  -1   5   9   -2.20    4.49   0
  -1   5   9    0.13    4.73   0
   0   5   9    8.42    3.65   0
   1   5   9  214.39    4.47   0
   2   5   9  267.93    4.50   0
   3   5   9   -2.57    2.31   0
   4   5   9  148.43    3.98   0
   5   5   9   31.04    4.22   0
   5   5   9   23.78    3.59   0
   6   5   9   10.56    4.63   0
   6   5   9    6.55    3.07   0
   7   5   9    6.07    4.98   0
   7   5   9   -5.51    5.70   0
  -5   6   9   45.60    4.84   0
  -4   6   9    5.12    4.57   0
  -4   6   9    2.72    6.95   0
  -4   6   9    4.01    6.93   0
  -3   6   9   41.16    6.70   0
  -3   6   9   47.66    5.34   0
  -3   6   9   51.94    4.72   0
  -2   6   9  260.71    6.07   0
  -2   6   9  239.41    5.74   0
  -2   6   9  234.59    6.26   0
  -1   6   9  398.34    5.94   0
  -1   6   9  382.24    6.50   0
  -1   6   9  419.25    7.30   0
   0   6   9   58.48    3.86   0
   1   6   9  578.74    6.31   0
   2   6   9  473.16    5.70   0
   3   6   9   19.48    3.65   0
   4   6   9   19.65    3.79   0
   5   6   9   37.41    3.90   0
   6   6   9   -2.12    4.53   0
   6   6   9    2.34    4.65   0
   7   6   9    1.41    4.79   0
   7   6   9    2.77    5.31   0
  -4   7   9   16.47    5.15   0
  -3   7   9   -0.97    6.90   0
  -3   7   9    2.08    5.85   0
  -3   7   9    4.76    4.72   0
  -2   7   9   -6.74    4.84   0
  -2   7   9    7.33    5.13   0
  -2   7   9   -2.06    6.09   0
  -1   7   9    6.31    4.56   0
  -1   7   9    4.34    4.57   0
  -1   7   9    8.14    5.14   0
   0   7   9    0.12    3.95   0
   1   7   9  368.65    5.77   0
   2   7   9   42.30    3.79   0
   3   7   9    8.55    4.19   0
   4   7   9    5.43    4.10   0
   5   7   9   29.73    4.15   0
   6   7   9    4.47    4.84   0
  -3   8   9    9.56   10.27   0
  -3   8   9    1.85    5.23   0
  -3   8   9    8.70    9.70   0
  -2   8   9   -1.10    5.74   0
  -2   8   9   12.92    5.09   0
  -2   8   9    8.96    6.90   0
  -1   8   9   -0.17    5.10   0
  -1   8   9    4.21    5.70   0
   0   8   9   46.93    5.39   0
   1   8   9   -2.20    4.13   0
   2   8   9    2.69    4.33   0
   3   8   9    7.68    3.93   0
   4   8   9   -5.02    4.46   0
   5   8   9    0.32    4.73   0
  -2   9   9   -3.81    5.42   0
  -2   9   9   -1.00    7.24   0
  -2   9   9    0.93    8.39   0
  -1   9   9   -0.43    6.44   0
  -1   9   9   -6.11    6.74   0
   0   9   9    8.67    4.85   0
   1   9   9  115.20    5.79   0
   2   9   9   67.36    4.68   0
   3   9   9   17.16    5.01   0
   4   9   9    1.45    5.38   0
  -3  -6  10   11.83    4.91   0
   3   6 -10   17.96    5.75   0
  -2  -6  10    7.17    4.89   0
   2   6 -10    4.21    4.82   0
  -1  -6  10   -2.66    4.68   0
   1   6 -10    0.80    4.62   0
   0  -6  10   10.71    4.31   0
   0   6 -10    8.90    4.99   0
   1  -6  10    0.74    5.05   0
  -1   6 -10    1.61    4.98   0
   2  -6  10   -1.54    5.73   0
   3  -6  10   36.48    6.32   0
  -3   6 -10   37.16    6.68   0
  -4  -5  10    4.86    4.97   0
   4   5 -10    9.78    5.14   0
  -3  -5  10  194.16    5.33   0
   3   5 -10  196.72    5.95   0
  -2  -5  10  206.39    5.51   0
   2   5 -10  187.19    5.59   0
  -1  -5  10    4.03    4.45   0
   1   5 -10   -0.60    4.45   0
   0  -5  10    8.11    4.04   0
   0   5 -10    8.57    4.68   0
   1  -5  10   27.11    4.67   0
  -1   5 -10   42.52    5.11   0
   2  -5  10   -3.34    4.59   0
   3  -5  10   -0.21    4.75   0
  -3   5 -10   -7.23    5.90   0
   4  -5  10    5.37    5.19   0
  -4   5 -10    2.02    6.10   0
   5   4 -10   -0.48    5.29   0
   5   4 -10    0.87    5.29   0
  -5  -4  10    5.11    5.14   0
  -4  -4  10    5.06    4.16   0
   4   4 -10   11.83    4.68   0
  -3  -4  10   12.18    4.15   0
   3   4 -10   15.82    4.15   0
  -2  -4  10   66.15    4.23   0
   2   4 -10   81.90    4.24   0
  -1  -4  10    2.01    4.18   0
   1   4 -10    1.70    4.41   0
   0  -4  10   12.53    3.95   0
   0   4 -10   14.25    4.52   0
   1  -4  10   25.57    4.07   0
  -1   4 -10   25.77    4.46   0
  -2   4 -10   17.25    4.56   0
   2  -4  10    4.59    4.53   0
   3  -4  10   -4.58    4.47   0
  -3   4 -10    1.97    4.63   0
   4  -4  10   37.49    5.54   0
  -4   4 -10   30.71    5.49   0
   5  -4  10    4.11    5.66   0
  -5   4 -10    0.88    5.50   0
   5  -4  10   -0.96    5.06   0
   6   3 -10   -0.25    5.23   0
   6   3 -10   -5.07    5.35   0
  -6  -3  10    7.90    5.50   0
   5   3 -10   10.26    4.69   0
  -5  -3  10    3.63    4.55   0
   5   3 -10    6.90    4.99   0
   4   3 -10   21.44    4.43   0
  -4  -3  10   30.63    4.02   0
   4   3 -10   22.98    4.48   0
  -3  -3  10   71.60    4.38   0
   3   3 -10   80.02    4.25   0
  -2  -3  10  356.10    5.19   0
   2   3 -10  381.18    5.46   0
  -1  -3  10   -3.45    3.72   0
   1   3 -10   -6.38    3.61   0
   0  -3  10   13.10    3.69   0
   0   3 -10    3.45    3.86   0
   1  -3  10   53.13    4.95   0
  -1   3 -10   71.49    4.41   0
   2  -3  10  -10.36    4.53   0
  -2   3 -10  -11.32    5.17   0
   3  -3  10    4.62    4.51   0
  -3   3 -10    1.59    4.24   0
   4  -3  10    8.14    4.51   0
  -4   3 -10    5.97    5.11   0
   5  -3  10   11.86    5.43   0
  -5   3 -10   11.82    5.51   0
   5  -3  10    9.34    4.90   0
   6  -3  10   15.31    6.12   0
  -6   3 -10   11.14    5.31   0
   6  -3  10   14.62    5.50   0
   6   2 -10   78.04    5.41   0
  -6  -2  10   80.85    6.00   0
   6   2 -10   69.90    5.40   0
   5   2 -10  134.35    4.95   0
  -5  -2  10  143.48    5.38   0
   5   2 -10  121.68    5.21   0
   4   2 -10    8.14    4.18   0
  -4  -2  10    6.78    4.44   0
   4   2 -10   -0.98    4.45   0
   3   2 -10   59.09    5.14   0
  -3  -2  10   59.25    4.23   0
   3   2 -10   66.56    4.34   0
  -2  -2  10   -4.07    3.92   0
   2   2 -10    9.48    3.90   0
  -1  -2  10    6.59    3.63   0
   1   2 -10    9.13    3.87   0
   0  -2  10    5.23    3.74   0
   0   2 -10    7.32    3.58   0
   1  -2  10    4.22    3.64   0
  -1   2 -10    6.73    3.73   0
   2  -2  10   21.53    3.98   0
  -2   2 -10   19.24    4.94   0
   3  -2  10   43.97    4.50   0
  -3   2 -10   52.69    4.48   0
  -4   2 -10   69.38    5.43   0
   4  -2  10   73.47    4.77   0
  -5   2 -10   73.81    4.90   0
   5  -2  10   75.80    5.64   0
   5  -2  10   74.90    4.95   0
  -6   2 -10   -8.72    5.22   0
   6  -2  10   -2.16    5.93   0
   6  -2  10   -1.05    5.12   0
   6   1 -10   10.53    5.30   0
  -6  -1  10   18.80    5.30   0
   6   1 -10   11.83    4.57   0
   5   1 -10    0.34    4.98   0
  -5  -1  10   -0.94    4.49   0
   5   1 -10    1.61    4.36   0
   4   1 -10   11.14    4.28   0
  -4  -1  10    3.58    4.31   0
   4   1 -10    9.46    3.98   0
   3   1 -10    1.06    4.13   0
  -3  -1  10    9.49    3.80   0
   3   1 -10    5.74    4.06   0
  -2  -1  10   41.64    4.60   0
   2   1 -10  175.46    4.99   0
  -1  -1  10  425.55    5.72   0
   1   1 -10  477.28    5.61   0
   0  -1  10  147.80    5.02   0
   0   1 -10  143.12    4.98   0
   1  -1  10   69.50    4.27   0
  -1   1 -10   89.32    7.08   0
  -2   1 -10  751.44   10.46   0
   2  -1  10  663.54    6.40   0
  -3   1 -10   19.80    5.07   0
   3  -1  10   14.96    4.12   0
   4  -1  10   24.90    4.00   0
  -4   1 -10   22.71    4.84   0
   4  -1  10   18.40    4.17   0
   5  -1  10    5.33    4.18   0
   5  -1  10    8.19    4.77   0
   6  -1  10   18.38    4.88   0
   6  -1  10   14.16    5.29   0
   7  -1  10    2.18    5.55   0
   7  -1  10    3.41    5.71   0
   7   0 -10   22.07    5.83   0
   6   0 -10   70.82    5.23   0
  -6   0  10   76.17    5.59   0
   6   0 -10   62.75    5.10   0
   5   0 -10   73.01    5.04   0
  -5   0  10   71.86    4.94   0
   5   0 -10   65.71    4.51   0
   4   0 -10   95.26    4.77   0
  -4   0  10   89.80    4.96   0
   4   0 -10   90.42    4.74   0
  -3   0  10   -4.88    4.37   0
   3   0 -10 -110.16    5.27   0
  -2   0  10   19.74    4.12   0
   2   0 -10   17.28    4.69   0
   2   0 -10   18.02    3.80   0
  -1   0  10   12.02    4.53   0
   1   0 -10    7.84    5.90   0
   1   0 -10   11.24    4.20   0
   0   0  10   25.16    4.67   0
   1   0  10   47.70    4.62   0
   2   0  10  263.29    5.19   0
   3   0  10  123.13    4.34   0
   4   0  10   89.47    4.17   0
   4   0  10  104.69    4.33   0
   5   0  10    5.23    4.07   0
   5   0  10    6.43    3.91   0
   6   0  10   70.44    5.33   0
   6   0  10   78.18    4.94   0
   7   0  10    5.01    4.86   0
   7   0  10    4.30    4.88   0
  -7   1  10    9.66    6.67   0
   7  -1 -10   -2.94    5.05   0
   7  -1 -10    0.39    6.14   0
   6  -1 -10    6.53    4.65   0
   6  -1 -10    8.04    5.34   0
  -6   1  10    6.21    5.58   0
   5  -1 -10   10.76    4.85   0
  -5   1  10    3.70    5.60   0
   5  -1 -10   10.27    4.45   0
  -4   1  10   15.13    4.45   0
   4  -1 -10    8.84    4.85   0
   4  -1 -10    3.61    4.07   0
  -3   1  10   -3.32    4.41   0
   3  -1 -10    3.84    4.05   0
  -2   1  10   42.67    4.76   0
   2  -1 -10   44.69    5.49   0
   2  -1 -10   43.63    4.31   0
  -1   1  10    7.25    4.53   0
   0   1  10  415.75    5.98   0
   1   1  10  285.44    5.57   0
   2   1  10  718.85    6.69   0
   3   1  10   27.31    3.67   0
   3   1  10   33.60    3.95   0
   4   1  10   20.91    3.99   0
   4   1  10   29.42    4.05   0
   5   1  10    2.31    4.14   0
   5   1  10   27.25    3.99   0
   6   1  10    3.73    4.13   0
   7   1  10    5.76    5.13   0
   6  -2 -10  269.78    5.90   0
   6  -2 -10  255.14    6.84   0
  -6   2  10  255.48    6.86   0
  -5   2  10    2.55    5.19   0
   5  -2 -10   -1.76    4.38   0
   5  -2 -10    3.31    4.30   0
  -4   2  10   27.13    4.81   0
   4  -2 -10   30.43    4.44   0
   4  -2 -10   29.60    4.75   0
  -3   2  10  617.26    7.55   0
   3  -2 -10  639.68    6.87   0
  -2   2  10   92.54    4.77   0
  -1   2  10    9.28    4.52   0
   0   2  10    6.02    4.23   0
   1   2  10   39.15    4.39   0
   2   2  10   27.73    4.01   0
   2   2  10   66.28    4.36   0
   3   2  10  187.87    4.23   0
   4   2  10   98.92    5.63   0
   4   2  10   89.68    3.89   0
   5   2  10  112.21    4.63   0
   5   2  10  126.41    5.49   0
   6   2  10    0.35    4.23   0
   6   2  10    2.23    3.77   0
   7   2  10    3.25    4.86   0
   7   2  10    3.01    5.52   0
  -6   3  10   -1.97    6.00   0
  -5   3  10    2.34    5.61   0
  -4   3  10    3.28    5.57   0
  -3   3  10  546.96    7.33   0
  -2   3  10   72.15    5.00   0
  -2   3  10   75.38    5.20   0
  -1   3  10  139.42    6.43   0
  -1   3  10  141.98    4.84   0
   0   3  10  511.75   12.77   0
   0   3  10  557.32    6.29   0
   1   3  10 1219.26    7.48   0
   1   3  10 1191.84    7.99   0
   2   3  10 2060.79   22.40   0
   2   3  10 2298.49    9.69   0
   3   3  10   25.80    3.61   0
   3   3  10   20.33    5.16   0
   4   3  10  122.28    3.24   0
   4   3  10  143.44    5.48   0
   5   3  10   -2.56    3.66   0
   5   3  10    5.34    4.81   0
   6   3  10   10.22    4.36   0
   6   3  10    8.73    4.27   0
   7   3  10    4.40    4.63   0
   7   3  10   -0.03    5.52   0
  -6   4  10   -1.89    7.06   0
  -5   4  10    2.47    5.68   0
  -4   4  10   70.88    4.39   0
  -4   4  10   75.71    6.37   0
  -3   4  10   35.36    5.75   0
  -3   4  10   27.92    4.26   0
  -2   4  10    2.46    4.33   0
  -2   4  10    1.97    4.00   0
  -1   4  10  257.36    6.59   0
  -1   4  10  267.70    5.61   0
   0   4  10  100.20    4.38   0
   0   4  10   27.53    6.41   0
   0   4  10  141.88    4.79   0
   1   4  10   98.51    3.89   0
   1   4  10  103.91    4.50   0
   2   4  10   15.02    3.24   0
   3   4  10  145.45    6.24   0
   3   4  10  146.26    4.21   0
   4   4  10  110.43    3.87   0
   4   4  10   92.19    5.38   0
   5   4  10    7.64    4.97   0
   5   4  10    3.37    3.61   0
   6   4  10    6.07    4.39   0
   6   4  10    3.17    4.23   0
   7   4  10   75.80    5.27   0
   7   4  10   88.26    6.28   0
  -5   5  10   -0.00    6.30   0
  -5   5  10    7.01    4.71   0
  -5   5  10   -2.56    6.60   0
  -4   5  10   24.07    4.45   0
  -4   5  10   27.57    6.09   0
  -4   5  10   22.94    5.59   0
  -3   5  10   39.14    5.96   0
  -3   5  10   44.48    4.43   0
  -3   5  10   48.11    4.85   0
  -2   5  10   42.40    4.00   0
  -2   5  10   40.99    5.13   0
  -2   5  10   36.20    5.72   0
  -1   5  10    3.79    3.50   0
  -1   5  10    6.16    4.63   0
  -1   5  10    8.50    4.13   0
   0   5  10    1.85    3.58   0
   0   5  10    7.49    4.66   0
   0   5  10   11.48    4.34   0
   1   5  10  323.75    4.87   0
   2   5  10  800.84    6.42   0
   3   5  10   32.75    3.58   0
   4   5  10    0.83    3.30   0
   5   5  10   23.75    4.40   0
   5   5  10   11.02    3.82   0
   6   5  10   19.96    4.70   0
   6   5  10   19.31    4.61   0
   7   5  10   -8.26    5.15   0
   7   5  10    5.17    5.21   0
  -5   6  10   54.34    5.44   0
  -4   6  10    3.36    5.81   0
  -4   6  10    6.00    4.81   0
  -4   6  10   -0.56    7.06   0
  -3   6  10   23.05    5.93   0
  -3   6  10   21.99    4.66   0
  -3   6  10   17.90    5.03   0
  -2   6  10   88.04    4.92   0
  -2   6  10   86.91    5.15   0
  -2   6  10   76.42    6.44   0
  -1   6  10    0.53    3.88   0
  -1   6  10   -0.12    4.40   0
  -1   6  10   -0.58    4.68   0
   0   6  10   12.85    3.53   0
   0   6  10   25.94    4.17   0
   1   6  10   54.54    3.97   0
   2   6  10   85.21    4.04   0
   3   6  10    2.30    3.35   0
   4   6  10   13.88    3.64   0
   5   6  10   43.20    4.06   0
   6   6  10   19.78    5.15   0
   6   6  10   17.14    4.76   0
  -4   7  10    4.21   10.41   0
  -4   7  10    1.67    5.22   0
  -4   7  10    7.91   10.86   0
  -3   7  10    2.23    7.13   0
  -3   7  10   -1.28    4.86   0
  -3   7  10    3.01    5.99   0
  -2   7  10   -1.26    4.79   0
  -2   7  10    8.27    4.93   0
  -2   7  10   -8.05    5.92   0
  -1   7  10   16.69    5.00   0
  -1   7  10   11.34    5.44   0
  -1   7  10   13.31    4.22   0
   0   7  10   -0.57    4.57   0
   1   7  10   55.57    4.23   0
   2   7  10  469.99    5.84   0
   3   7  10    4.39    4.23   0
   4   7  10   -0.51    4.38   0
   5   7  10    4.38    4.80   0
   6   7  10    7.77    4.80   0
   6   7  10   -0.81    5.28   0
  -3   8  10    4.18    8.28   0
  -3   8  10    4.78    9.06   0
  -3   8  10    8.83    5.92   0
  -2   8  10    7.86    5.60   0
  -2   8  10   -4.76    5.16   0
  -2   8  10    1.93    6.59   0
  -1   8  10   77.59    6.00   0
  -1   8  10   71.07    5.29   0
  -1   8  10   73.44    6.25   0
   0   8  10   -0.91    4.29   0
   1   8  10   23.17    4.73   0
   2   8  10   -3.25    4.51   0
   3   8  10    3.47    4.10   0
   4   8  10    7.21    4.71   0
   5   8  10   -6.82    5.25   0
  -1   9  10   40.58    6.06   0
  -1   9  10   28.35    5.47   0
  -1   9  10   16.71    6.47   0
   0   9  10   37.90    5.36   0
   1   9  10    6.34    5.02   0
   2   9  10   35.61    5.02   0
   3   9  10   25.39    5.23   0
  -2  -6  11   -2.35    5.13   0
   2   6 -11    2.18    5.35   0
  -1  -6  11   -3.04    5.27   0
   1   6 -11    8.13    5.56   0
   0  -6  11    9.20    5.10   0
   0   6 -11   10.84    5.41   0
   1  -6  11    5.36    5.29   0
  -1   6 -11   -4.85    5.45   0
   2  -6  11    0.88    5.34   0
  -2   6 -11    8.76    5.66   0
   4   5 -11   -0.80    5.17   0
  -3  -5  11    2.64    5.05   0
   3   5 -11   -8.78    4.96   0
  -2  -5  11    3.14    4.39   0
   2   5 -11    0.85    4.69   0
  -1  -5  11    1.90    4.19   0
   1   5 -11   13.11    4.87   0
   0  -5  11    2.67    4.44   0
   0   5 -11   -0.10    4.88   0
   1  -5  11   16.02    4.66   0
  -1   5 -11   13.50    4.98   0
   2  -5  11   44.59    5.41   0
  -2   5 -11   36.25    5.62   0
   3  -5  11   15.30    5.30   0
  -3   5 -11   26.78    5.57   0
  -4  -4  11    5.22    4.61   0
   4   4 -11   -1.98    5.21   0
  -3  -4  11   -6.13    4.05   0
   3   4 -11    4.20    4.36   0
  -2  -4  11  141.29    5.03   0
   2   4 -11  144.48    5.35   0
  -1  -4  11   35.10    4.32   0
   1   4 -11   42.46    4.54   0
   0  -4  11   28.76    4.52   0
   0   4 -11   32.97    4.77   0
   1  -4  11   73.49    4.39   0
  -1   4 -11   79.43    4.67   0
   2  -4  11   63.14    4.89   0
  -2   4 -11   72.45    5.81   0
   3  -4  11   70.46    5.18   0
  -3   4 -11   71.59    5.35   0
   4  -4  11    1.25    5.11   0
  -4   4 -11   -1.50    5.22   0
   5  -4  11   21.41    5.88   0
   5  -4  11   44.80    6.54   0
  -5   4 -11   44.10    5.88   0
   5   3 -11    6.20    5.08   0
  -5  -3  11    7.58    5.10   0
   5   3 -11    4.75    5.21   0
   4   3 -11    0.57    4.79   0
  -4  -3  11    3.99    4.58   0
   4   3 -11   10.70    4.83   0
  -3  -3  11    0.22    4.10   0
   3   3 -11   -3.51    4.31   0
  -2  -3  11  139.96    4.70   0
   2   3 -11  151.78    4.52   0
  -1  -3  11    5.08    3.85   0
   1   3 -11   13.97    4.06   0
   0  -3  11   10.86    4.09   0
   0   3 -11    6.96    3.82   0
   1  -3  11    0.19    4.33   0
  -1   3 -11   -1.17    4.34   0
   2  -3  11  295.31    5.48   0
  -2   3 -11  311.27    6.84   0
   3  -3  11   90.32    4.99   0
  -3   3 -11   81.84    5.81   0
   4  -3  11    0.76    5.25   0
  -4   3 -11    2.83    5.22   0
   5  -3  11   10.02    5.25   0
  -5   3 -11   17.53    5.08   0
   5  -3  11    4.67    5.42   0
   6   2 -11   37.50    5.46   0
  -6  -2  11   28.04    5.46   0
   6   2 -11   37.91    5.68   0
   5   2 -11    9.56    5.56   0
  -5  -2  11   14.52    4.76   0
   5   2 -11    8.16    4.43   0
   4   2 -11   -0.16    4.35   0
  -4  -2  11    2.82    4.44   0
   4   2 -11    2.23    4.45   0
   3   2 -11   10.87    4.21   0
  -3  -2  11    4.30    4.10   0
   3   2 -11   10.04    4.11   0
  -2  -2  11   29.43    4.02   0
   2   2 -11   30.12    3.99   0
  -1  -2  11   -2.30    3.92   0
   1   2 -11   12.65    3.98   0
   0  -2  11    2.62    3.92   0
   0   2 -11    2.65    3.74   0
   1  -2  11   -6.21    4.24   0
  -1   2 -11   -1.23    5.16   0
   2  -2  11  144.34    5.09   0
  -2   2 -11  170.10    6.39   0
   3  -2  11   90.02    4.79   0
  -3   2 -11   95.58    5.80   0
   4  -2  11   12.57    4.56   0
  -4   2 -11    7.21    4.51   0
   5  -2  11   35.22    5.33   0
  -5   2 -11   31.58    5.63   0
   5  -2  11   21.79    5.67   0
   6  -2  11    4.04    5.44   0
   6  -2  11   11.42    6.00   0
   6   1 -11   15.02    5.46   0
  -6  -1  11   16.53    5.64   0
   6   1 -11   24.07    5.24   0
   5   1 -11   34.32    4.66   0
  -5  -1  11   23.39    4.88   0
   5   1 -11   26.83    4.26   0
   4   1 -11  113.87    5.41   0
  -4  -1  11  110.99    4.77   0
   4   1 -11   96.79    4.67   0
  -3  -1  11   14.89    4.13   0
   3   1 -11   12.46    3.80   0
  -2  -1  11  187.05    4.78   0
   2   1 -11  207.47    6.47   0
   2   1 -11  215.41    4.97   0
  -1  -1  11  135.03    4.74   0
   1   1 -11  147.10    6.57   0
   1   1 -11  150.32    4.58   0
   0  -1  11    6.66    4.12   0
   0   1 -11   14.79    3.56   0
   1  -1  11   25.76    3.99   0
  -1   1 -11   29.70    7.44   0
   2  -1  11  563.55    6.25   0
  -2   1 -11  607.89   10.42   0
  -3   1 -11  102.06    5.85   0
   3  -1  11   78.47    4.83   0
  -4   1 -11   -0.64    5.19   0
   4  -1  11    2.71    4.02   0
   4  -1  11   -2.12    4.16   0
   5  -1  11   -0.92    4.46   0
   5  -1  11   -3.76    4.79   0
   6  -1  11   -0.03    4.97   0
   6  -1  11   -5.50    5.40   0
   6   0 -11   23.59    5.27   0
   6   0 -11   20.51    5.06   0
  -6   0  11   12.94    5.98   0
   5   0 -11    0.20    4.40   0
  -5   0  11    0.46    5.22   0
   5   0 -11   -1.84    4.77   0
  -4   0  11    6.57    4.16   0
   4   0 -11    9.37    5.00   0
   4   0 -11    7.77    4.29   0
  -3   0  11    2.76    4.38   0
   3   0 -11    2.75    4.22   0
  -2   0  11   37.05    4.21   0
   2   0 -11   39.85    5.27   0
   2   0 -11   45.42    3.79   0
  -1   0  11    6.02    4.06   0
   1   0 -11    0.54    6.54   0
   1   0 -11    0.15    3.80   0
   0   0  11  182.46    4.99   0
   1   0  11  144.02    4.58   0
   2   0  11   98.99    4.10   0
   3   0  11 1539.27    8.98   0
   4   0  11   29.16    4.40   0
   4   0  11   38.29    4.28   0
   5   0  11   41.50    4.67   0
   5   0  11   44.20    3.90   0
   6   0  11    6.06    4.95   0
   6   0  11   19.87    4.75   0
   7   0  11    0.31    5.26   0
   7   0  11    3.63    5.84   0
   6  -1 -11   14.18    4.95   0
   6  -1 -11   11.50    5.01   0
  -6   1  11    7.53    5.63   0
   5  -1 -11   27.74    5.10   0
  -5   1  11   25.49    5.05   0
   5  -1 -11   23.19    4.66   0
  -4   1  11    2.10    4.96   0
   4  -1 -11    1.89    4.22   0
   4  -1 -11    3.90    3.97   0
  -3   1  11  106.43    5.07   0
   3  -1 -11  111.14    4.63   0
  -2   1  11   -1.23    4.30   0
   2  -1 -11   -0.67    5.57   0
   2  -1 -11    2.58    3.80   0
  -1   1  11    7.15    4.09   0
   0   1  11  340.06    5.73   0
   1   1  11  118.10    4.78   0
   2   1  11  767.76    6.41   0
   3   1  11  101.48    4.33   0
   3   1  11   96.80    4.01   0
   4   1  11   -0.12    3.69   0
   4   1  11    2.13    3.78   0
   5   1  11    6.05    3.87   0
   5   1  11   -2.34    4.09   0
   6   1  11   11.35    4.77   0
   6   1  11   16.07    4.67   0
   7   1  11    2.03    4.89   0
   7   1  11    4.95    5.11   0
   6  -2 -11   36.92    5.31   0
  -6   2  11   39.21    5.87   0
  -5   2  11   35.67    5.19   0
   5  -2 -11   31.14    5.32   0
  -4   2  11   -1.20    4.99   0
   4  -2 -11    0.26    4.31   0
  -3   2  11   71.13    4.97   0
  -2   2  11   47.84    5.16   0
  -1   2  11   64.00    4.49   0
   0   2  11   58.77    4.24   0
   1   2  11  355.37    5.44   0
   2   2  11   88.99    4.22   0
   3   2  11   59.94    3.64   0
   3   2  11   51.88    3.85   0
   4   2  11   27.86    2.69   0
   4   2  11   26.27    3.64   0
   5   2  11    1.90    3.95   0
   6   2  11    3.23    4.22   0
   6   2  11    1.19    4.45   0
   7   2  11   -5.42    5.67   0
   7   2  11   -4.67    5.17   0
  -6   3  11   10.04    6.47   0
  -5   3  11    3.52    5.94   0
  -4   3  11   -2.71    5.51   0
  -3   3  11  298.08    6.83   0
  -2   3  11  278.98    5.77   0
  -1   3  11   16.63    4.75   0
   0   3  11   65.95    4.25   0
   1   3  11    0.95    3.85   0
   2   3  11  265.18    4.32   0
   2   3  11  284.47    4.84   0
   3   3  11    9.76    4.84   0
   3   3  11  141.84    8.05   0
   4   3  11   -2.86    5.84   0
   4   3  11   -1.42    2.63   0
   5   3  11    0.05    4.12   0
   5   3  11   11.99    5.37   0
   6   3  11   16.67    5.20   0
   6   3  11   14.34    4.57   0
   7   3  11    8.64    4.84   0
   7   3  11   -0.38    5.96   0
  -6   4  11    4.06    6.57   0
  -5   4  11    4.02    5.86   0
  -4   4  11   26.74    5.75   0
  -3   4  11    2.09    4.74   0
  -3   4  11    4.25    4.07   0
  -2   4  11   -1.82    4.43   0
  -2   4  11    0.58    4.82   0
  -1   4  11  116.55    6.57   0
  -1   4  11  118.83    5.11   0
   0   4  11    5.61    3.55   0
   0   4  11    3.42    6.17   0
   0   4  11    5.50    4.09   0
   1   4  11  134.79    8.81   0
   1   4  11  148.53    4.68   0
   1   4  11  152.51    4.14   0
   2   4  11   24.55    2.66   0
   2   4  11   28.35    6.27   0
   3   4  11    2.15    5.51   0
   3   4  11   -1.05    3.48   0
   4   4  11   23.11    3.61   0
   4   4  11   34.11    5.60   0
   5   4  11    5.19    5.05   0
   5   4  11    3.64    3.75   0
   6   4  11    1.19    4.75   0
   6   4  11    1.29    4.20   0
   7   4  11    3.21    4.70   0
   7   4  11   -0.21    6.12   0
  -5   5  11    2.02    5.77   0
  -5   5  11    1.07    7.11   0
  -5   5  11    4.21    5.71   0
  -4   5  11   17.20    5.28   0
  -4   5  11    5.85    6.35   0
  -4   5  11    6.14    5.06   0
  -3   5  11    7.69    4.07   0
  -3   5  11    4.92    5.58   0
  -3   5  11    2.63    4.33   0
  -2   5  11  127.56    5.56   0
  -2   5  11  132.41    4.64   0
  -2   5  11  118.50    5.54   0
  -1   5  11   11.34    5.07   0
  -1   5  11   11.16    3.56   0
  -1   5  11   18.63    4.23   0
   0   5  11   29.70    3.88   0
   0   5  11   35.12    5.34   0
   0   5  11   38.50    4.41   0
   1   5  11   50.83    4.37   0
   1   5  11   53.94    3.81   0
   2   5  11   52.48    3.80   0
   3   5  11    3.85    3.30   0
   4   5  11   -2.93    3.41   0
   4   5  11   -1.69    4.88   0
   5   5  11    5.33    5.14   0
   5   5  11    3.53    3.65   0
   6   5  11    1.30    5.84   0
   6   5  11    7.76    4.73   0
  -4   6  11    6.92    4.84   0
  -4   6  11    6.91    7.37   0
  -4   6  11    4.92    6.03   0
  -3   6  11   11.84    6.39   0
  -3   6  11   15.56    5.18   0
  -3   6  11   11.17    4.52   0
  -2   6  11   17.27    5.22   0
  -2   6  11   12.68    4.31   0
  -2   6  11   22.11    5.82   0
  -1   6  11   22.55    5.21   0
  -1   6  11   24.06    3.98   0
  -1   6  11   24.40    4.72   0
   0   6  11   37.29    4.34   0
   0   6  11   36.57    5.41   0
   0   6  11   36.00    4.54   0
   1   6  11    4.59    4.02   0
   2   6  11  560.96    6.17   0
   3   6  11  138.54    4.70   0
   4   6  11    1.98    4.07   0
   5   6  11    9.01    4.78   0
   5   6  11    6.48    3.90   0
   6   6  11   29.65    6.11   0
   6   6  11   27.83    5.16   0
  -4   7  11   15.12    5.46   0
  -4   7  11   10.05    9.30   0
  -4   7  11   16.44    7.86   0
  -3   7  11    0.69    6.80   0
  -3   7  11    0.89    4.98   0
  -3   7  11    1.84    5.74   0
  -2   7  11   27.27    5.20   0
  -2   7  11   28.94    5.50   0
  -2   7  11   28.33    6.07   0
  -1   7  11   21.12    5.01   0
  -1   7  11   24.49    5.49   0
  -1   7  11   18.30    5.02   0
   0   7  11    2.18    4.55   0
   0   7  11   10.35    4.63   0
   0   7  11    3.17    4.14   0
   1   7  11    8.75    4.05   0
   2   7  11    0.12    4.29   0
   3   7  11   -0.80    3.96   0
   4   7  11    4.27    4.44   0
   5   7  11   -4.46    4.40   0
  -2   8  11    3.51    5.72   0
  -2   8  11    7.49    5.38   0
  -2   8  11    5.52    7.06   0
  -1   8  11   28.30    5.44   0
  -1   8  11   24.03    5.07   0
  -1   8  11   12.58    6.11   0
   0   8  11    1.13    4.49   0
   0   8  11    3.72    5.61   0
   1   8  11   27.10    5.05   0
   2   8  11   -0.26    4.42   0
   3   8  11   20.73    4.57   0
   4   8  11   -0.56    4.33   0
  -1   9  11    6.03    6.49   0
   0   9  11   51.16    6.16   0
   0   9  11   46.16    6.58   0
   1   9  11    4.02    5.18   0
   2   9  11    0.45    5.15   0
  -2  -5  12    4.12    4.68   0
   2   5 -12    3.35    5.72   0
  -1  -5  12    3.77    4.45   0
   1   5 -12    9.22    5.27   0
   0  -5  12    1.43    5.18   0
   0   5 -12    6.17    5.57   0
   1  -5  12    4.98    4.89   0
  -1   5 -12    2.79    5.21   0
   2  -5  12   89.81    5.78   0
  -2   5 -12  123.65    6.47   0
   4   4 -12    2.83    5.25   0
  -4  -4  12    0.08    5.48   0
   4   4 -12    2.42    5.04   0
  -3  -4  12    3.11    4.87   0
   3   4 -12    5.77    4.72   0
  -2  -4  12  195.47    5.52   0
   2   4 -12  190.27    4.51   0
  -1  -4  12  137.56    5.17   0
   1   4 -12  168.13    5.48   0
   0  -4  12    0.62    4.23   0
   0   4 -12   -0.92    4.83   0
   1  -4  12   13.14    4.48   0
  -1   4 -12   -0.73    4.89   0
   2  -4  12   16.36    4.85   0
  -2   4 -12   13.56    5.74   0
   3  -4  12   36.48    5.56   0
  -3   4 -12   38.80    6.04   0
   4  -4  12   -4.20    5.51   0
  -4   4 -12   -3.69    5.49   0
   5   3 -12    0.06    5.37   0
   4   3 -12   -2.84    5.68   0
  -4  -3  12    7.79    5.02   0
   4   3 -12    1.93    4.75   0
   3   3 -12    1.01    4.53   0
  -3  -3  12   10.28    3.91   0
   3   3 -12    2.92    3.95   0
  -2  -3  12   -1.35    4.01   0
   2   3 -12    5.13    4.34   0
  -1  -3  12   -3.47    4.25   0
   1   3 -12    6.83    4.38   0
   0  -3  12    7.06    4.43   0
   0   3 -12   -4.93    4.51   0
   1  -3  12   10.02    4.39   0
   2  -3  12  366.86    5.98   0
  -2   3 -12  378.63    8.05   0
   3  -3  12   72.78    5.21   0
  -3   3 -12   73.66    6.50   0
   4  -3  12    1.14    4.91   0
  -4   3 -12   -2.89    5.55   0
   5  -3  12   -0.48    6.30   0
   5  -3  12    2.39    5.47   0
  -5   3 -12    9.13    5.33   0
   5   2 -12   -0.36    5.77   0
  -5  -2  12  -10.62    5.19   0
   5   2 -12   -5.32    4.98   0
   4   2 -12   -0.22    5.32   0
  -4  -2  12    9.78    4.41   0
   4   2 -12    0.82    4.42   0
  -3  -2  12   30.08    4.51   0
   3   2 -12   26.78    4.09   0
   2   2 -12   11.50    4.88   0
  -2  -2  12   17.84    4.09   0
   2   2 -12   19.01    4.07   0
  -1  -2  12   86.43    4.31   0
   1   2 -12   81.87    4.31   0
   0  -2  12   77.92    4.33   0
   0   2 -12   72.57    3.37   0
   1  -2  12  122.01    4.83   0
  -1   2 -12  137.48    7.08   0
   2  -2  12    9.71    4.56   0
  -2   2 -12   80.75    6.97   0
   3  -2  12   59.35    4.60   0
  -3   2 -12   65.25    5.73   0
   4  -2  12    3.50    5.03   0
  -4   2 -12   -2.29    5.73   0
   5  -2  12   -0.96    4.91   0
  -5   2 -12    3.07    5.53   0
   5  -2  12    6.27    5.60   0
   6  -2  12    1.79    6.44   0
   5   1 -12   18.72    5.70   0
  -5  -1  12   19.31    5.42   0
   5   1 -12   19.27    4.92   0
   4   1 -12  105.38    4.99   0
  -4  -1  12  107.68    5.22   0
   4   1 -12  108.79    5.12   0
  -3  -1  12    0.19    4.46   0
   3   1 -12   -0.24    3.92   0
  -2  -1  12   41.83    4.35   0
   2   1 -12   43.72    5.57   0
   2   1 -12   41.73    4.12   0
  -1  -1  12   16.47    3.87   0
   1   1 -12   24.15    6.21   0
   1   1 -12   26.85    3.88   0
   0  -1  12   -1.99    3.04   0
   0   1 -12    5.07    7.75   0
   1  -1  12    7.57    3.99   0
   2  -1  12  234.94    5.36   0
  -2   1 -12  261.75   10.82   0
   3  -1  12  312.52    5.69   0
   4  -1  12   28.44    4.15   0
   4  -1  12   24.02    4.26   0
   5  -1  12    3.08    4.75   0
   5  -1  12  -13.34    4.89   0
   6  -1  12    9.50    5.32   0
   6  -1  12   -0.84    5.50   0
   6   0 -12    6.58    5.17   0
  -6   0  12    5.95    6.10   0
   5   0 -12   -4.40    5.45   0
  -5   0  12   -1.45    5.07   0
   5   0 -12    6.37    4.80   0
  -4   0  12   10.76    4.44   0
   4   0 -12   -0.31    4.21   0
  -3   0  12   16.65    4.28   0
   3   0 -12   10.65    4.83   0
   3   0 -12    8.76    3.84   0
  -2   0  12    7.34    3.81   0
   2   0 -12   11.35    5.51   0
   2   0 -12   14.71    3.84   0
  -1   0  12  341.36    5.50   0
   1   0 -12  369.49    4.40   0
   0   0  12    0.78    3.92   0
   1   0  12   -2.84    3.74   0
   2   0  12   22.37    4.06   0
   3   0  12  154.17    4.90   0
   4   0  12    2.60    4.17   0
   4   0  12    1.71    4.30   0
   5   0  12    3.39    4.05   0
   5   0  12  -10.00    4.42   0
   6   0  12   -7.41    5.00   0
   6   0  12   -3.77    4.99   0
   6  -1 -12   16.71    5.22   0
   6  -1 -12   14.73    5.39   0
  -6   1  12   -1.66    6.38   0
  -5   1  12   21.37    5.35   0
   5  -1 -12   21.04    4.78   0
   5  -1 -12   19.91    4.78   0
  -4   1  12   -4.59    4.83   0
   4  -1 -12    5.56    4.68   0
  -3   1  12   27.01    4.46   0
   3  -1 -12   61.43    5.25   0
   3  -1 -12   63.16    4.40   0
  -2   1  12   -0.88    4.52   0
   2  -1 -12    2.99    3.96   0
  -1   1  12   33.10    4.22   0
   0   1  12    0.02    3.61   0
   1   1  12   41.19    4.57   0
   2   1  12  207.71    5.03   0
   3   1  12   38.72    3.77   0
   3   1  12   31.08    3.07   0
   4   1  12    0.93    3.74   0
   4   1  12    1.06    4.02   0
   5   1  12    4.23    4.25   0
   5   1  12    2.31    4.12   0
   6   1  12   10.32    5.11   0
   6   1  12    5.40    4.63   0
   6  -2 -12    6.48    5.93   0
  -6   2  12   -5.25    6.70   0
  -5   2  12    4.83    5.22   0
   5  -2 -12    6.70    4.73   0
  -4   2  12    3.04    4.99   0
  -3   2  12   97.18    5.07   0
  -2   2  12  496.20    6.96   0
  -1   2  12  113.75    4.76   0
   0   2  12   23.09    4.06   0
   1   2  12   48.18    3.75   0
   2   2  12   41.19    3.95   0
   3   2  12    3.61    3.55   0
   3   2  12   10.96    3.68   0
   4   2  12   34.48    4.21   0
   4   2  12   39.94    4.02   0
   5   2  12    1.66    3.95   0
   5   2  12    5.61    4.46   0
   6   2  12    1.87    4.21   0
   6   2  12   -0.14    4.61   0
   7   2  12   -7.71    5.03   0
   7   2  12    0.70    5.20   0
  -5   3  12    2.05    6.10   0
  -4   3  12   -1.40    5.21   0
  -3   3  12  124.96    5.81   0
  -2   3  12  263.61    5.79   0
  -1   3  12    8.32    4.77   0
   0   3  12    0.30    4.19   0
   1   3  12   14.67    3.72   0
   2   3  12   36.29    3.49   0
   2   3  12   35.21    4.09   0
   3   3  12   58.68    3.95   0
   3   3  12   17.42    4.18   0
   4   3  12   51.61    3.92   0
   5   3  12   65.78    4.26   0
   5   3  12   75.99    6.60   0
   6   3  12    8.69    5.71   0
   6   3  12    8.17    4.50   0
   7   3  12    2.15    6.53   0
   7   3  12   29.04    5.19   0
  -5   4  12   11.14    5.75   0
  -4   4  12    0.90    5.37   0
  -3   4  12   16.93    5.01   0
  -2   4  12    0.58    5.33   0
  -1   4  12   77.33    4.42   0
   0   4  12  320.05    5.05   0
   0   4  12  296.68    5.85   0
   1   4  12    2.52    3.56   0
   1   4  12    5.37    4.00   0
   2   4  12   34.50    3.61   0
   2   4  12   38.54    3.82   0
   3   4  12    9.84    7.63   0
   3   4  12   -5.26    3.49   0
   4   4  12   14.13    3.92   0
   4   4  12   29.52    6.01   0
   5   4  12    2.08    4.20   0
   5   4  12   -2.70    5.72   0
   6   4  12    2.27    5.45   0
   6   4  12   -2.59    4.80   0
  -5   5  12   24.19    6.54   0
  -5   5  12   36.30    6.96   0
  -4   5  12    5.72    5.37   0
  -4   5  12    2.02    5.48   0
  -4   5  12   -1.55    6.32   0
  -3   5  12   -1.61    4.98   0
  -3   5  12   -2.22    4.26   0
  -3   5  12    0.05    4.16   0
  -2   5  12    1.98    4.76   0
  -2   5  12   -0.87    4.48   0
  -2   5  12   -2.42    5.00   0
  -1   5  12   25.04    4.03   0
  -1   5  12   29.61    5.19   0
  -1   5  12   26.58    4.78   0
   0   5  12   -0.35    3.62   0
   0   5  12    1.13    5.69   0
   0   5  12    0.03    3.94   0
   1   5  12    1.89    3.35   0
   1   5  12   -0.18    6.26   0
   1   5  12   -0.45    4.01   0
   2   5  12    4.98    3.60   0
   3   5  12    6.94    5.80   0
   3   5  12    6.82    2.70   0
   4   5  12    1.25    3.47   0
   4   5  12   -1.72    5.60   0
   5   5  12    6.35    5.29   0
   5   5  12    3.22    3.70   0
   6   5  12    4.27    5.27   0
   6   5  12    4.21    5.05   0
  -4   6  12    6.52    5.79   0
  -4   6  12    1.90    6.52   0
  -4   6  12    0.97    6.17   0
  -3   6  12   -3.86    5.11   0
  -3   6  12   -1.14    6.46   0
  -3   6  12    1.42    4.81   0
  -2   6  12   10.46    5.26   0
  -2   6  12   12.18    4.91   0
  -2   6  12    7.92    5.22   0
  -1   6  12  225.76    6.65   0
  -1   6  12  255.85    5.34   0
  -1   6  12  233.90    6.10   0
   0   6  12   51.89    5.50   0
   0   6  12   44.20    3.81   0
   0   6  12   49.78    4.84   0
   1   6  12   -4.91    3.43   0
   1   6  12    7.88    4.22   0
   2   6  12  277.13    5.35   0
   3   6  12  272.59    5.54   0
   4   6  12    0.47    5.49   0
   4   6  12   -0.97    4.23   0
   5   6  12    3.55    5.96   0
   5   6  12    1.59    4.26   0
   6   6  12    6.99    6.16   0
   6   6  12   -1.94    5.30   0
  -3   7  12    2.41    6.09   0
  -3   7  12    3.72    7.35   0
  -3   7  12    5.64    5.86   0
  -2   7  12    6.33    5.93   0
  -2   7  12    9.68    5.19   0
  -2   7  12    8.94    5.62   0
  -1   7  12    6.11    4.96   0
  -1   7  12    4.34    5.44   0
  -1   7  12    0.79    5.80   0
   0   7  12   -3.60    4.47   0
   0   7  12    0.84    5.39   0
   0   7  12   -6.67    4.56   0
   1   7  12   -2.17    4.63   0
   1   7  12    5.30    4.70   0
   2   7  12   13.54    4.01   0
   3   7  12    1.30    4.36   0
   4   7  12    2.83    4.27   0
   5   7  12   12.89    5.90   0
   5   7  12   10.51    4.72   0
  -2   8  12   -1.35    7.11   0
  -2   8  12    2.02    5.56   0
  -2   8  12    4.71    5.35   0
  -1   8  12   -4.74    5.97   0
  -1   8  12    1.07    4.89   0
  -1   8  12    3.63    5.44   0
   0   8  12    0.17    5.71   0
   0   8  12    2.21    4.72   0
   0   8  12    4.54    5.15   0
   1   8  12   17.54    4.67   0
   2   8  12   18.17    4.43   0
   3   8  12   16.19    4.50   0
   4   8  12    3.46    4.53   0
   0  -5  13   -0.78    5.28   0
   0   5 -13    3.34    5.67   0
  -3  -4  13    2.50    5.33   0
   3   4 -13    6.01    5.41   0
  -2  -4  13  114.88    5.74   0
   2   4 -13  117.93    5.96   0
  -1  -4  13  226.40    5.92   0
   1   4 -13  252.46    5.85   0
   0  -4  13   17.44    4.82   0
   0   4 -13   18.38    4.67   0
   1  -4  13    7.43    4.47   0
  -1   4 -13   -0.10    6.10   0
   2  -4  13    0.00    4.98   0
  -2   4 -13   -0.56    6.55   0
   3  -4  13   10.73    5.61   0
  -3   4 -13    9.78    6.10   0
   4   3 -13   -2.97    5.35   0
  -4  -3  13    0.40    5.41   0
   4   3 -13   -4.46    5.41   0
  -3  -3  13   -5.19    4.56   0
   3   3 -13    1.55    4.96   0
  -2  -3  13    7.22    4.55   0
   2   3 -13    9.71    4.60   0
  -1  -3  13   13.96    4.58   0
   1   3 -13   10.82    4.73   0
   0  -3  13   10.82    4.77   0
   0   3 -13   15.39    4.64   0
   1  -3  13    1.36    4.78   0
  -1   3 -13    5.17    6.55   0
   2  -3  13    4.26    4.47   0
  -2   3 -13    0.26    5.86   0
   3  -3  13   27.79    5.15   0
  -3   3 -13   31.81    6.31   0
   4  -3  13   12.81    5.26   0
  -4   3 -13    3.24    6.10   0
  -4  -2  13   13.95    4.69   0
   4   2 -13   13.07    5.21   0
   3   2 -13   59.52    5.96   0
  -3  -2  13   69.53    4.84   0
   3   2 -13   60.94    4.97   0
   2   2 -13   21.00    5.65   0
  -2  -2  13   14.74    4.10   0
   2   2 -13   12.52    4.20   0
   1   2 -13   18.20    5.61   0
  -1  -2  13   29.57    4.34   0
   1   2 -13   19.12    4.19   0
   0  -2  13   56.93    4.72   0
   0   2 -13   70.66    4.58   0
   1  -2  13   19.29    4.57   0
  -1   2 -13   18.77    6.76   0
   2  -2  13    0.82    4.82   0
  -2   2 -13   26.46    6.81   0
   3  -2  13    2.48    4.58   0
  -3   2 -13    1.23    5.84   0
   4  -2  13   -3.88    4.95   0
  -4   2 -13   -2.56    6.28   0
   5  -2  13    0.63    5.28   0
   5  -2  13    1.77    5.43   0
   5   1 -13    5.58    5.98   0
  -5  -1  13    4.29    5.49   0
   5   1 -13  -22.80    5.44   0
  -4  -1  13   33.10    5.03   0
   4   1 -13   25.06    5.14   0
  -3  -1  13   -0.51    4.66   0
   3   1 -13   -2.27    5.22   0
   3   1 -13   -0.49    4.49   0
  -2  -1  13    6.00    4.11   0
   2   1 -13    3.84    4.98   0
   2   1 -13    9.13    4.02   0
  -1  -1  13   -4.44    3.99   0
   1   1 -13    8.44    7.20   0
   1   1 -13    4.00    4.05   0
   0  -1  13  128.28    4.57   0
   1  -1  13   39.90    4.26   0
   2  -1  13    7.83    4.07   0
   3  -1  13   55.93    4.86   0
   4  -1  13   59.10    5.00   0
   4  -1  13   56.28    4.85   0
   5  -1  13   -3.06    4.98   0
   5  -1  13    0.74    4.92   0
   5   0 -13    6.79    5.89   0
  -5   0  13    9.28    5.58   0
   5   0 -13    6.40    5.19   0
  -4   0  13   -1.01    4.95   0
   4   0 -13   21.24    4.53   0
  -3   0  13   66.87    4.70   0
   3   0 -13   64.91    5.69   0
   3   0 -13   62.90    4.49   0
  -2   0  13    3.68    4.39   0
   2   0 -13    6.24    6.15   0
   2   0 -13   -0.24    3.82   0
  -1   0  13   19.16    3.88   0
   0   0  13  213.86    5.02   0
   1   0  13    2.05    3.74   0
   2   0  13    3.70    4.03   0
   3   0  13    6.62    4.27   0
   4   0  13   -1.86    4.36   0
   4   0  13    6.95    4.47   0
   5   0  13    0.03    4.85   0
   5   0  13    6.74    4.81   0
   6   0  13    0.26    5.39   0
   6   0  13   11.52    5.12   0
  -5   1  13    5.01    5.72   0
   5  -1 -13   15.21    5.03   0
   5  -1 -13    9.05    5.11   0
  -4   1  13   19.75    5.37   0
   4  -1 -13   35.25    4.97   0
  -3   1  13   16.26    4.64   0
   3  -1 -13   13.56    4.24   0
  -2   1  13    2.67    4.34   0
  -1   1  13   -4.53    3.68   0
   0   1  13   -6.41    4.08   0
   1   1  13   38.28    4.02   0
   2   1  13    9.00    4.00   0
   3   1  13    4.75    3.98   0
   3   1  13   10.56    4.25   0
   4   1  13    2.61    4.50   0
   4   1  13   -1.89    4.28   0
   5   1  13    2.67    4.51   0
   5   1  13    1.49    4.34   0
   6   1  13    7.00    5.10   0
   6   1  13   -2.49    5.28   0
  -5   2  13  111.01    6.95   0
  -4   2  13    2.83    5.15   0
  -3   2  13  113.83    5.24   0
  -2   2  13  463.41    6.62   0
  -1   2  13   95.75    5.03   0
   0   2  13   44.57    4.12   0
   1   2  13   10.59    2.94   0
   2   2  13   -2.40    3.80   0
   3   2  13    9.65    3.49   0
   3   2  13    6.33    3.91   0
   4   2  13   -3.11    3.71   0
   4   2  13    9.26    4.25   0
   5   2  13    9.05    4.53   0
   5   2  13   13.25    4.65   0
   6   2  13  -10.28    4.96   0
   6   2  13    1.62    5.02   0
  -5   3  13    5.42    5.77   0
  -4   3  13  106.85    5.96   0
  -3   3  13   27.63    5.17   0
  -2   3  13    8.48    5.06   0
  -1   3  13   -1.74    4.57   0
   0   3  13   37.67    4.46   0
   1   3  13   51.76    4.16   0
   2   3  13   61.17    3.81   0
   2   3  13   61.69    4.12   0
   3   3  13   65.31    4.09   0
   3   3  13   72.55    4.47   0
   4   3  13    9.48    3.94   0
   4   3  13    3.81    3.78   0
   5   3  13    5.95    4.52   0
   5   3  13    6.40    4.71   0
   6   3  13   -0.11    5.07   0
   6   3  13   -2.38    4.82   0
  -5   4  13    5.98    5.90   0
  -4   4  13    6.09    5.45   0
  -3   4  13    7.59    5.29   0
  -2   4  13   17.34    5.28   0
  -1   4  13    6.67    4.38   0
   0   4  13   50.73    4.06   0
   0   4  13   55.90    4.62   0
   1   4  13    3.10    3.74   0
   1   4  13   -5.24    4.24   0
   2   4  13    6.72    3.76   0
   2   4  13   -0.14    3.99   0
   3   4  13    9.40    3.97   0
   3   4  13    6.10    3.63   0
   4   4  13    1.41    3.82   0
   4   4  13   11.31    8.72   0
   5   4  13   12.24    4.24   0
   5   4  13    3.84    6.57   0
   6   4  13   -0.69    6.45   0
   6   4  13    2.72    5.22   0
  -4   5  13   88.96    7.16   0
  -4   5  13   67.44    6.30   0
  -3   5  13    9.81    5.50   0
  -3   5  13    6.51    4.56   0
  -2   5  13   -1.37    4.93   0
  -2   5  13    1.15    3.99   0
  -2   5  13   -0.77    5.67   0
  -1   5  13    2.29    5.83   0
  -1   5  13    4.76    3.94   0
  -1   5  13    0.62    4.80   0
   0   5  13    7.04    7.26   0
   0   5  13   -0.18    4.04   0
   0   5  13    1.21    4.34   0
   1   5  13    2.69    3.85   0
   1   5  13    5.94    4.40   0
   2   5  13   -2.73    4.31   0
   2   5  13   -2.32    3.63   0
   3   5  13   29.99    4.29   0
   3   5  13   45.47    7.90   0
   4   5  13    3.22    3.90   0
   4   5  13   -1.17    6.44   0
   5   5  13   26.12    6.61   0
   5   5  13   26.74    4.74   0
   6   5  13    7.95    6.37   0
   6   5  13   11.02    5.28   0
  -3   6  13    0.86    6.64   0
  -3   6  13   10.56    5.31   0
  -3   6  13   16.16    5.70   0
  -2   6  13   -3.51    6.02   0
  -2   6  13    6.29    4.48   0
  -2   6  13    2.88    5.49   0
  -1   6  13   71.00    4.92   0
  -1   6  13   64.50    6.47   0
  -1   6  13   67.95    5.33   0
   0   6  13   60.66    6.55   0
   0   6  13   67.91    4.47   0
   0   6  13   61.89    5.40   0
   1   6  13   29.32    4.01   0
   1   6  13   19.08    6.23   0
   1   6  13   25.94    4.43   0
   2   6  13   75.27    4.54   0
   2   6  13   94.62    5.08   0
   3   6  13   20.35    4.53   0
   3   6  13   15.98    6.11   0
   4   6  13   12.86    6.17   0
   4   6  13   22.40    4.91   0
   5   6  13    9.14    6.23   0
   5   6  13    2.67    4.55   0
  -2   7  13   -3.25    6.35   0
  -2   7  13    2.16    4.90   0
  -2   7  13    2.84    5.86   0
  -1   7  13    2.97    4.49   0
  -1   7  13    5.15    5.90   0
  -1   7  13    2.47    5.98   0
   0   7  13    1.43    5.07   0
   0   7  13    2.67    6.07   0
   0   7  13    2.08    4.93   0
   1   7  13    5.07    4.61   0
   1   7  13    0.85    5.87   0
   1   7  13   -3.07    4.73   0
   2   7  13    1.70    4.58   0
   3   7  13   12.22    4.55   0
   4   7  13   -9.28    5.10   0
  -1   8  13    5.20    5.53   0
  -1   8  13    1.23    5.83   0
  -1   8  13   -4.58    5.78   0
   0   8  13    7.64    5.34   0
   0   8  13    5.22    5.57   0
   0   8  13    5.19    5.65   0
   1   8  13   10.88    6.22   0
   1   8  13   15.34    5.38   0
   1   8  13   15.11    5.18   0
   2   8  13    1.37    4.90   0
   3   8  13    2.17    4.62   0
  -1  -4  14    5.10    5.33   0
   1   4 -14    3.27    4.94   0
   0  -4  14   10.10    4.72   0
   0   4 -14   16.26    5.35   0
   1  -4  14  -12.49    5.36   0
  -1   4 -14    0.72    6.86   0
   3   3 -14   10.93    6.10   0
   3   3 -14    2.76    5.55   0
   2   3 -14    0.55    6.00   0
  -2  -3  14    4.33    4.75   0
   2   3 -14   -2.83    5.15   0
  -1  -3  14   55.06    5.28   0
   1   3 -14   64.26    4.93   0
   0  -3  14    8.79    4.48   0
   0   3 -14    4.16    5.12   0
   1  -3  14   -2.60    4.82   0
  -1   3 -14   -2.01    6.82   0
   2  -3  14   11.88    5.30   0
  -2   3 -14    0.75    7.56   0
   3  -3  14    3.16    5.40   0
  -3   3 -14    1.66    6.90   0
   3   2 -14   12.62    5.92   0
  -3  -2  14   21.07    5.41   0
   3   2 -14   16.54    5.15   0
   2   2 -14   -1.55    6.20   0
  -2  -2  14    0.33    4.80   0
   2   2 -14   -0.78    4.83   0
  -1  -2  14   16.07    4.36   0
   1   2 -14   23.40    6.92   0
   1   2 -14   21.80    4.02   0
   0  -2  14   13.81    4.71   0
   0   2 -14   11.81    8.59   0
   0   2 -14   15.31    8.42   0
   1  -2  14    3.13    4.40   0
   2  -2  14    6.63    4.67   0
  -2   2 -14    0.74    9.36   0
   3  -2  14    9.88    5.07   0
   4  -2  14    7.72    5.19   0
   4   1 -14   89.60    6.58   0
  -4  -1  14   66.42    5.64   0
   4   1 -14   84.47    4.92   0
  -3  -1  14    8.57    4.58   0
   3   1 -14    3.45    5.96   0
   3   1 -14    2.00    4.38   0
  -2  -1  14    2.74    4.38   0
   2   1 -14    1.12    6.22   0
   2   1 -14   -2.44    3.19   0
  -1  -1  14    5.22    4.19   0
   1   1 -14   10.65    4.21   0
   0  -1  14   63.83    4.29   0
   1  -1  14   44.82    4.31   0
   2  -1  14    1.76    4.32   0
   3  -1  14   -2.18    4.53   0
   4  -1  14    1.61    5.29   0
   4  -1  14    5.03    4.92   0
   5  -1  14   -2.74    5.60   0
   5  -1  14    3.88    5.44   0
  -4   0  14   -1.54    5.67   0
   4   0 -14    9.68    6.69   0
   4   0 -14    1.64    5.31   0
  -3   0  14   71.22    5.21   0
   3   0 -14   75.01    6.90   0
   3   0 -14   61.52    4.92   0
  -2   0  14   15.35    4.67   0
   2   0 -14   15.38    4.38   0
  -1   0  14    7.89    4.02   0
   0   0  14    9.92    4.09   0
   1   0  14    0.99    4.12   0
   2   0  14    4.97    4.45   0
   3   0  14    1.75    4.62   0
   4   0  14   71.62    4.94   0
   4   0  14   74.05    5.01   0
   5   0  14   14.21    5.19   0
   5   0  14   17.99    5.11   0
  -4   1  14   43.55    5.12   0
   4  -1 -14   50.22    4.72   0
  -3   1  14    4.31    4.34   0
  -2   1  14    6.76    4.79   0
  -1   1  14   -5.07    4.54   0
   0   1  14   -3.44    4.16   0
   1   1  14   27.64    4.26   0
   2   1  14    4.29    3.73   0
   3   1  14    5.54    4.40   0
   3   1  14    5.27    4.04   0
   4   1  14   -1.44    4.58   0
   4   1  14   -2.29    4.49   0
   5   1  14    7.76    4.89   0
   5   1  14   15.98    4.62   0
  -4   2  14   78.20    6.09   0
  -3   2  14    8.57    5.37   0
  -2   2  14  216.25    5.48   0
  -1   2  14    1.66    4.50   0
   0   2  14    1.06    4.30   0
   1   2  14   -3.09    3.84   0
   2   2  14   -6.97    3.78   0
   3   2  14   19.82    3.70   0
   3   2  14   25.74    3.92   0
   4   2  14   16.14    4.51   0
   4   2  14   17.08    4.29   0
   5   2  14    3.14    4.37   0
   5   2  14    6.78    4.47   0
   6   2  14    3.18    5.69   0
  -4   3  14   48.63    5.95   0
  -3   3  14   25.59    5.28   0
  -2   3  14  178.90    5.86   0
  -1   3  14   51.02    4.78   0
   0   3  14   18.70    4.38   0
   1   3  14   86.45    4.62   0
   2   3  14   36.57    3.60   0
   2   3  14   31.65    4.04   0
   3   3  14   24.61    3.77   0
   3   3  14   15.93    4.04   0
   4   3  14    2.68    4.58   0
   4   3  14    2.60    4.21   0
   5   3  14   30.26    4.87   0
   5   3  14   30.94    4.98   0
   6   3  14   -1.82    4.64   0
  -4   4  14   10.12    5.86   0
  -3   4  14   34.03    5.79   0
  -2   4  14    1.76    4.94   0
  -1   4  14   -2.25    4.46   0
   0   4  14    7.85    4.35   0
   0   4  14    4.60    4.41   0
   1   4  14    0.31    3.99   0
   1   4  14    3.11    4.46   0
   2   4  14    7.02    3.69   0
   2   4  14   -9.49    4.46   0
   3   4  14   -1.34    3.56   0
   3   4  14    3.37    4.05   0
   4   4  14   47.81    3.98   0
   4   4  14   46.09    4.60   0
   5   4  14    8.58    4.77   0
   5   4  14    7.43    4.86   0
  -3   5  14    5.07    6.52   0
  -3   5  14    2.38    4.67   0
  -2   5  14    3.42    5.31   0
  -2   5  14    0.75    5.04   0
  -1   5  14   24.78    4.37   0
  -1   5  14   16.72    4.97   0
   0   5  14   14.96    4.00   0
   0   5  14   10.96    4.50   0
   1   5  14   -2.58    3.74   0
   1   5  14    9.23    4.55   0
   2   5  14   -8.48    4.67   0
   2   5  14    0.46    3.88   0
   3   5  14   41.12    4.46   0
   3   5  14   42.82    4.82   0
   4   5  14   -5.50    4.09   0
   4   5  14    5.24    4.72   0
   5   5  14    0.80    7.87   0
   5   5  14   -0.90    3.54   0
  -3   6  14    3.18    6.87   0
  -3   6  14   -0.97    6.38   0
  -3   6  14   -0.37    5.87   0
  -2   6  14    8.46    5.76   0
  -2   6  14    7.27    4.71   0
  -2   6  14    2.96    6.02   0
  -1   6  14    7.82    4.53   0
  -1   6  14    3.14    6.59   0
  -1   6  14    9.33    5.21   0
   0   6  14   10.25    6.85   0
   0   6  14    8.17    4.00   0
   0   6  14    7.25    5.08   0
   1   6  14   -1.37    8.64   0
   1   6  14   -0.89    3.85   0
   1   6  14   -1.33    4.65   0
   2   6  14   10.73    9.73   0
   2   6  14    9.57    4.37   0
   2   6  14   11.70    9.91   0
   2   6  14    6.49    4.79   0
   3   6  14   51.17    4.52   0
   3   6  14   57.69    8.98   0
   3   6  14   57.80    5.42   0
   4   6  14    1.49    7.44   0
   4   6  14    3.68    4.72   0
  -2   7  14    4.24    6.44   0
  -1   7  14   -3.78    5.63   0
  -1   7  14    0.49    6.18   0
  -1   7  14   -4.80    5.94   0
   0   7  14    1.05    4.71   0
   0   7  14    2.10    6.57   0
   0   7  14    4.44    5.29   0
   1   7  14    0.98    4.52   0
   1   7  14    1.27    6.84   0
   1   7  14    3.66    4.67   0
   2   7  14   -1.97    5.09   0
   2   7  14    0.85    6.92   0
   2   7  14    1.38    5.35   0
   3   7  14   21.73    4.52   0
   1   3 -15   15.51    8.04   0
  -1  -3  15   20.47    5.02   0
   1   3 -15   24.64    5.10   0
   0  -3  15    8.93    4.80   0
   0   3 -15   -1.47    7.64   0
   1  -3  15    3.40    5.28   0
  -1   3 -15    3.90    9.06   0
  -2  -2  15    4.00    4.78   0
   2   2 -15    0.33    7.39   0
   2   2 -15    0.21    4.77   0
  -1  -2  15    1.42    4.58   0
   1   2 -15    1.77    9.68   0
   1   2 -15    0.16    4.99   0
   0  -2  15    4.61    5.13   0
   1  -2  15    4.22    5.09   0
   2  -2  15   -4.38    5.06   0
   3  -2  15    1.96    5.21   0
  -3  -1  15  133.22    6.14   0
   3   1 -15  159.17    8.46   0
   3   1 -15  167.48    5.69   0
  -2  -1  15   -4.60    4.65   0
   2   1 -15   -1.36    9.63   0
   2   1 -15    1.98    4.91   0
  -1  -1  15   19.56    4.82   0
   0  -1  15   23.12    4.79   0
   1  -1  15    3.92    4.38   0
   2  -1  15    2.45    4.63   0
   3  -1  15    2.23    5.10   0
   4  -1  15    4.94    5.19   0
   4  -1  15    7.57    4.75   0
  -3   0  15    2.41    4.72   0
   3   0 -15    4.82    4.76   0
  -2   0  15   -9.59    5.00   0
  -1   0  15    0.96    4.72   0
   0   0  15   29.12    4.39   0
   1   0  15   12.86    4.32   0
   2   0  15   15.16    4.68   0
   3   0  15   41.55    4.76   0
   4   0  15  149.95    5.99   0
   4   0  15  144.95    5.94   0
  -4   1  15   60.61    5.98   0
  -3   1  15   31.42    4.98   0
  -2   1  15    7.62    4.49   0
  -1   1  15    6.26    4.79   0
   0   1  15   -0.22    4.19   0
   1   1  15    4.79    4.30   0
   2   1  15   -0.19    3.99   0
   3   1  15    3.09    4.56   0
   3   1  15    0.64    3.97   0
   4   1  15   -2.08    4.95   0
   4   1  15   -6.56    4.74   0
   5   1  15   11.37    5.49   0
   5   1  15   11.30    5.62   0
  -4   2  15    5.04    6.16   0
  -3   2  15   -1.12    5.66   0
  -2   2  15    1.57    4.81   0
  -1   2  15   62.87    5.25   0
   0   2  15    4.94    4.14   0
   1   2  15   -0.02    4.13   0
   2   2  15   43.50    4.21   0
   3   2  15    1.58    3.98   0
   3   2  15   13.73    4.56   0
   4   2  15   16.88    4.39   0
   4   2  15   22.84    4.91   0
   5   2  15   45.01    5.02   0
   5   2  15   39.22    5.19   0
  -3   3  15    2.30    5.66   0
  -2   3  15  150.74    6.06   0
  -1   3  15   65.32    5.02   0
   0   3  15    5.46    4.41   0
   1   3  15   22.16    4.72   0
   2   3  15   14.03    3.75   0
   2   3  15   19.30    4.20   0
   3   3  15   -1.51    3.96   0
   3   3  15   -3.20    3.88   0
   4   3  15   -5.38    4.49   0
   4   3  15   -0.70    3.42   0
   5   3  15   11.14    4.80   0
   5   3  15    3.92    5.64   0
  -3   4  15    8.16    5.80   0
  -2   4  15   -2.51    5.25   0
  -1   4  15    2.26    5.03   0
   0   4  15    4.34    3.72   0
   0   4  15    8.23    4.61   0
   1   4  15   10.43    4.06   0
   1   4  15   22.15    4.99   0
   2   4  15    1.91    4.13   0
   2   4  15    2.30    4.24   0
   3   4  15    7.38    4.32   0
   3   4  15    6.55    4.25   0
   4   4  15    6.75    4.65   0
   4   4  15    7.55    4.48   0
   5   4  15   29.18    5.29   0
   5   4  15   20.66    5.04   0
  -3   5  15    3.05    5.11   0
  -2   5  15   19.50    5.69   0
  -2   5  15   21.49    5.54   0
  -1   5  15   29.03    5.74   0
  -1   5  15   42.27    4.92   0
   0   5  15   -5.47    5.19   0
   0   5  15   -1.27    4.15   0
   1   5  15   15.41    4.26   0
   1   5  15    9.54    4.80   0
   2   5  15   -5.47    4.75   0
   2   5  15   -3.57    4.41   0
   3   5  15    1.29    4.83   0
   3   5  15   -1.58    4.66   0
   4   5  15   -1.49    4.51   0
   4   5  15   -8.71    4.57   0
  -2   6  15    0.98    6.68   0
  -2   6  15   -1.89    5.05   0
  -1   6  15    1.69    5.00   0
  -1   6  15   -4.89    6.29   0
   0   6  15   26.33    5.32   0
   0   6  15   33.53    4.74   0
   1   6  15    6.47    4.92   0
   1   6  15    2.11    5.28   0
   2   6  15   21.00    4.72   0
   2   6  15    9.87    5.17   0
   3   6  15  101.88    4.92   0
   3   6  15   88.47    5.86   0
   0   7  15   12.52    7.95   0
   0   7  15   18.38    5.38   0
   0   7  15    1.57    6.01   0
   1   7  15    3.98    4.68   0
   1   7  15    6.94    9.68   0
   1   7  15   -2.30    5.75   0
   2   7  15    9.59    5.12   0
   2   7  15    1.62   10.63   0
   2   7  15    3.25   10.62   0
   2   7  15   -3.32    5.57   0
  -2  -1  16    5.13    5.01   0
  -1  -1  16    8.86    5.37   0
   0  -1  16    2.85    4.68   0
   1  -1  16   13.45    5.40   0
   2  -1  16   13.88    5.16   0
  -2   0  16    5.73    5.07   0
  -1   0  16   -2.51    5.19   0
   0   0  16   10.30    4.56   0
   1   0  16   20.00    5.11   0
   2   0  16    2.10    5.21   0
   3   0  16    8.72    5.12   0
  -3   1  16  -10.51    5.17   0
  -2   1  16    1.00    5.13   0
  -1   1  16    2.02    4.78   0
   0   1  16   18.24    4.94   0
   1   1  16   13.31    4.81   0
   2   1  16    0.87    5.01   0
   3   1  16    5.87    4.91   0
   3   1  16    2.07    4.52   0
   4   1  16   -1.94    4.99   0
   4   1  16   -7.61    5.10   0
  -3   2  16    1.48    5.10   0
  -2   2  16   79.81    5.32   0
  -1   2  16  196.78    6.20   0
   0   2  16    6.88    4.80   0
   1   2  16    4.67    4.79   0
   2   2  16   35.98    4.61   0
   3   2  16    0.47    4.55   0
   3   2  16   -2.15    5.02   0
   4   2  16    5.27    4.61   0
   4   2  16    5.55    5.20   0
  -2   3  16   -1.32    5.82   0
  -1   3  16   39.39    5.63   0
   0   3  16    9.50    4.98   0
   1   3  16   46.09    5.15   0
   2   3  16    4.21    4.50   0
   2   3  16   -1.80    4.92   0
   3   3  16   -4.16    4.44   0
   3   3  16    2.87    4.47   0
   4   3  16    7.67    5.15   0
   4   3  16   -7.51    5.35   0
  -2   4  16    0.80    5.66   0
  -1   4  16    0.85    5.67   0
   0   4  16    3.26    4.37   0
   0   4  16    3.69    4.98   0
   1   4  16   13.86    4.70   0
   1   4  16    8.84    4.84   0
   2   4  16   24.71    4.85   0
   2   4  16   18.11    4.80   0
   3   4  16    4.31    4.28   0
   3   4  16   -7.56    5.01   0
   4   4  16   -0.99    4.59   0
   4   4  16    0.29    5.30   0
  -1   5  16   -1.67    5.61   0
  -1   5  16   -0.84    4.74   0
   0   5  16   10.69    5.41   0
   0   5  16    2.50    4.33   0
   1   5  16   55.46    4.47   0
   1   5  16   39.30    4.93   0
   2   5  16    4.92    4.22   0
   2   5  16    5.27    5.11   0
   3   5  16   -2.93    4.65   0
   3   5  16   11.14    5.34   0
   0   6  16   12.05    5.18   0
   0   6  16    4.05    5.89   0
   1   6  16   32.10    5.02   0
   1   6  16   17.28    5.62   0
   2   6  16    5.11    5.11   0
   2   6  16   12.73    5.00   0
   0   0  17    4.30    5.00   0
   1   0  17   10.56    5.44   0
  -1   1  17    8.48    5.05   0
   0   1  17    7.42    5.28   0
   1   1  17   39.00    5.03   0
   2   1  17   11.36    4.84   0
  -1   2  17   56.52    5.43   0
   0   2  17    5.44    5.31   0
   1   2  17   -4.16    4.76   0
   2   2  17    9.56    4.92   0
   2   2  17   -1.27    5.05   0
   3   2  17   11.11    5.32   0
  -1   3  17    9.72    5.86   0
   0   3  17    1.66    5.22   0
   1   3  17    8.36    5.01   0
   1   3  17   15.79    5.02   0
   2   3  17   67.26    5.16   0
   2   3  17   71.47    5.43   0
   3   3  17   -2.40    5.23   0
   0   4  17    6.06    5.15   0
   0   4  17    5.83    5.24   0
   1   4  17   22.16    4.97   0
   1   4  17   14.59    5.39   0
   2   4  17    5.33    5.03   0
   2   4  17    0.05    5.66   0
;
_shelx_hkl_checksum              74410
loop_
_space_group_symop_operation_xyz
'x, y, z'
'-x, -y, -z'
loop_
_atom_site_label
_atom_site_type_symbol
_atom_site_fract_x
_atom_site_fract_y
_atom_site_fract_z
_atom_site_U_iso_or_equiv
_atom_site_adp_type
_atom_site_occupancy
_atom_site_site_symmetry_order
_atom_site_calc_flag
_atom_site_refinement_flags_posn
_atom_site_refinement_flags_adp
F1 F 0.6722(3) -0.0311(2) 0.81303(14) 0.0442(4) Uani 1 1 d . .
F2 F 0.2948(3) -0.0732(2) 0.90935(15) 0.0483(5) Uani 1 1 d . .
F3 F 0.0808(2) 0.2118(3) 0.97717(14) 0.0478(4) Uani 1 1 d . .
F4 F 0.2404(3) 0.5450(2) 0.93996(15) 0.0515(5) Uani 1 1 d . .
F5 F 0.6156(3) 0.5890(2) 0.84066(14) 0.0469(4) Uani 1 1 d . .
O1 O 0.8456(3) 0.3052(3) 0.77863(15) 0.0368(4) Uani 1 1 d . .
N1 N 0.7379(3) 0.2628(3) 0.61887(17) 0.0314(5) Uani 1 1 d . .
N2 N 1.1491(3) 0.2800(3) 0.53841(19) 0.0357(5) Uani 1 1 d . .
C1 C 0.8835(4) 0.2870(3) 0.6734(2) 0.0315(5) Uani 1 1 d . .
C2 C 0.7935(3) 0.2438(3) 0.5160(2) 0.0299(5) Uani 1 1 d . .
C3 C 1.0002(4) 0.2500(3) 0.4765(2) 0.0314(5) Uani 1 1 d . .
C4 C 1.0921(4) 0.2996(4) 0.6348(2) 0.0364(6) Uani 1 1 d . .
H4 H 1.190127 0.322726 0.679925 0.044 Uiso 1 1 calc R U
C5 C 0.6454(4) 0.2160(4) 0.4496(2) 0.0396(6) Uani 1 1 d . .
H5 H 0.505709 0.211717 0.475358 0.048 Uiso 1 1 calc R U
C6 C 0.7021(4) 0.1952(5) 0.3482(2) 0.0434(7) Uani 1 1 d . .
H6 H 0.600916 0.177022 0.303297 0.052 Uiso 1 1 calc R U
C7 C 0.9079(4) 0.2002(4) 0.3086(2) 0.0425(7) Uani 1 1 d . .
H7 H 0.944551 0.185041 0.237599 0.051 Uiso 1 1 calc R U
C8 C 1.0545(4) 0.2267(4) 0.3716(2) 0.0386(6) Uani 1 1 d . .
H8 H 1.193612 0.229449 0.344780 0.046 Uiso 1 1 calc R U
C9 C 0.6497(4) 0.2812(4) 0.8227(2) 0.0318(5) Uani 1 1 d . .
C10 C 0.5651(4) 0.1133(3) 0.8421(2) 0.0332(5) Uani 1 1 d . .
C11 C 0.3737(4) 0.0904(4) 0.8920(2) 0.0345(6) Uani 1 1 d . .
C12 C 0.2637(4) 0.2353(4) 0.9260(2) 0.0349(6) Uani 1 1 d . .
C13 C 0.3459(4) 0.4036(4) 0.9079(2) 0.0370(6) Uani 1 1 d . .
C14 C 0.5375(4) 0.4251(4) 0.8563(2) 0.0346(6) Uani 1 1 d . .
loop_
_atom_site_aniso_label
_atom_site_aniso_U_11
_atom_site_aniso_U_22
_atom_site_aniso_U_33
_atom_site_aniso_U_23
_atom_site_aniso_U_13
_atom_site_aniso_U_12
F1 0.0499(9) 0.0310(8) 0.0516(10) -0.0149(7) 0.0126(8) -0.0012(7)
F2 0.0554(10) 0.0386(9) 0.0531(11) -0.0125(8) 0.0124(8) -0.0229(8)
F3 0.0369(8) 0.0612(11) 0.0437(10) -0.0124(8) 0.0129(7) -0.0069(8)
F4 0.0617(11) 0.0386(9) 0.0525(11) -0.0161(8) 0.0081(9) 0.0099(8)
F5 0.0642(11) 0.0284(8) 0.0483(10) -0.0072(7) 0.0051(8) -0.0151(7)
O1 0.0326(9) 0.0452(11) 0.0337(10) -0.0095(8) 0.0034(7) -0.0112(8)
N1 0.0244(9) 0.0351(11) 0.0324(11) -0.0047(9) 0.0050(8) -0.0029(8)
N2 0.0221(9) 0.0392(12) 0.0429(13) -0.0049(10) 0.0037(9) -0.0035(8)
C1 0.0295(12) 0.0298(12) 0.0336(13) -0.0049(10) 0.0045(9) -0.0050(9)
C2 0.0237(11) 0.0298(12) 0.0329(13) -0.0026(10) 0.0050(9) -0.0010(9)
C3 0.0239(11) 0.0297(12) 0.0365(13) -0.0019(10) 0.0052(9) -0.0012(9)
C4 0.0254(11) 0.0391(14) 0.0435(15) -0.0063(12) 0.0008(10) -0.0059(10)
C5 0.0230(11) 0.0541(17) 0.0400(15) -0.0092(13) 0.0015(10) -0.0003(11)
C6 0.0323(13) 0.0582(19) 0.0396(15) -0.0136(13) -0.0006(11) 0.0016(12)
C7 0.0386(14) 0.0523(17) 0.0333(14) -0.0077(12) 0.0055(11) 0.0031(12)
C8 0.0294(12) 0.0422(15) 0.0395(15) -0.0052(12) 0.0110(11) -0.0001(11)
C9 0.0338(12) 0.0336(13) 0.0273(12) -0.0056(10) 0.0034(9) -0.0065(10)
C10 0.0404(13) 0.0271(12) 0.0317(13) -0.0079(10) 0.0046(10) -0.0028(10)
C11 0.0396(13) 0.0299(13) 0.0342(13) -0.0061(10) 0.0034(10) -0.0112(10)
C12 0.0337(13) 0.0399(14) 0.0297(13) -0.0068(11) 0.0053(10) -0.0044(11)
C13 0.0457(15) 0.0316(13) 0.0332(13) -0.0104(10) 0.0038(11) 0.0021(11)
C14 0.0445(14) 0.0279(12) 0.0313(13) -0.0049(10) 0.0001(11) -0.0092(10)
loop_
_atom_type_symbol
_atom_type_description
_atom_type_scat_dispersion_real
_atom_type_scat_dispersion_imag
_atom_type_scat_source
C C 0.0033 0.0016 'International Tables Vol C Tables 4.2.6.8 and 6.1.1.4'
H H 0.0000 0.0000 'International Tables Vol C Tables 4.2.6.8 and 6.1.1.4'
N N 0.0061 0.0033 'International Tables Vol C Tables 4.2.6.8 and 6.1.1.4'
O O 0.0106 0.0060 'International Tables Vol C Tables 4.2.6.8 and 6.1.1.4'
F F 0.0171 0.0103 'International Tables Vol C Tables 4.2.6.8 and 6.1.1.4'
loop_
_geom_angle_atom_site_label_1
_geom_angle_atom_site_label_2
_geom_angle_atom_site_label_3
_geom_angle
C9 O1 C1 116.8(2)
C1 N1 C2 115.6(2)
C4 N2 C3 117.1(2)
N1 C1 O1 120.5(2)
N1 C1 C4 125.2(2)
O1 C1 C4 114.2(2)
N1 C2 C5 120.1(2)
N1 C2 C3 120.5(2)
C5 C2 C3 119.4(2)
N2 C3 C8 119.3(2)
N2 C3 C2 121.1(2)
C8 C3 C2 119.6(2)
N2 C4 C1 120.5(3)
N2 C4 H4 119.8
C1 C4 H4 119.8
C6 C5 C2 119.7(2)
C6 C5 H5 120.2
C2 C5 H5 120.2
C5 C6 C7 121.2(3)
C5 C6 H6 119.4
C7 C6 H6 119.4
C8 C7 C6 120.2(3)
C8 C7 H7 119.9
C6 C7 H7 119.9
C7 C8 C3 119.9(2)
C7 C8 H8 120.1
C3 C8 H8 120.1
O1 C9 C14 119.3(2)
O1 C9 C10 122.4(2)
C14 C9 C10 118.1(2)
F1 C10 C11 119.0(2)
F1 C10 C9 119.7(2)
C11 C10 C9 121.2(2)
F2 C11 C10 120.1(2)
F2 C11 C12 119.8(2)
C10 C11 C12 120.1(2)
F3 C12 C13 120.4(2)
F3 C12 C11 120.1(2)
C13 C12 C11 119.5(2)
F4 C13 C12 120.0(2)
F4 C13 C14 120.2(2)
C12 C13 C14 119.7(2)
F5 C14 C9 119.9(2)
F5 C14 C13 118.7(2)
C9 C14 C13 121.4(2)
loop_
_geom_bond_atom_site_label_1
_geom_bond_atom_site_label_2
_geom_bond_distance
F1 C10 1.338(3)
F2 C11 1.336(3)
F3 C12 1.328(3)
F4 C13 1.333(3)
F5 C14 1.337(3)
O1 C9 1.373(3)
O1 C1 1.383(3)
N1 C1 1.276(3)
N1 C2 1.372(3)
N2 C4 1.295(4)
N2 C3 1.370(3)
C1 C4 1.422(3)
C2 C5 1.398(4)
C2 C3 1.412(3)
C3 C8 1.404(4)
C4 H4 0.9500
C5 C6 1.359(4)
C5 H5 0.9500
C6 C7 1.405(4)
C6 H6 0.9500
C7 C8 1.358(4)
C7 H7 0.9500
C8 H8 0.9500
C9 C14 1.375(4)
C9 C10 1.381(3)
C10 C11 1.371(4)
C11 C12 1.378(4)
C12 C13 1.377(4)
C13 C14 1.378(4)
loop_
_geom_hbond_atom_site_label_D
_geom_hbond_atom_site_label_H
_geom_hbond_atom_site_label_A
_geom_hbond_distance_DH
_geom_hbond_distance_HA
_geom_hbond_distance_DA
_geom_hbond_angle_DHA
_geom_hbond_site_symmetry_A
C5 H5 N2 0.95 2.46 3.391(3) 166.3 1_455
