#------------------------------------------------------------------------------
#$Date: 2019-11-11 16:28:18 +0200 (Mon, 11 Nov 2019) $
#$Revision: 226552 $
#$URL: file:///home/coder/svn-repositories/cod/cif/4/03/50/4035054.cif $
#------------------------------------------------------------------------------
#
# This file is available in the Crystallography Open Database (COD),
# http://www.crystallography.net/
#
# All data on this site have been placed in the public domain by the
# contributors.
#
data_4035054
loop_
_publ_author_name
'Ji, Xiaolei'
'Gao, Bao'
'Zhou, Xibing'
'Liu, Zongjian'
'Huang, Hanmin'
_publ_section_title
;
 Palladium-Catalyzed Regioselective Hydroaminocarbonylation of Alkynes to
 \a,\b-Unsaturated Primary Amides with Ammonium Chloride.
;
_journal_issue                   17
_journal_name_full               'The Journal of organic chemistry'
_journal_page_first              10134
_journal_page_last               10141
_journal_paper_doi               10.1021/acs.joc.8b01405
_journal_volume                  83
_journal_year                    2018
_chemical_formula_sum            'C9 H8 F N O'
_chemical_formula_weight         165.16
_space_group_crystal_system      monoclinic
_space_group_IT_number           14
_space_group_name_Hall           '-P 2ybc'
_space_group_name_H-M_alt        'P 1 21/c 1'
_atom_sites_solution_hydrogens   geom
_audit_creation_method           SHELXL-2013
_cell_angle_alpha                90
_cell_angle_beta                 104.510(2)
_cell_angle_gamma                90
_cell_formula_units_Z            4
_cell_length_a                   13.7589(3)
_cell_length_b                   6.38120(10)
_cell_length_c                   9.7121(2)
_cell_measurement_reflns_used    1844
_cell_measurement_temperature    291(2)
_cell_measurement_theta_max      70.9910
_cell_measurement_theta_min      6.6110
_cell_volume                     825.51(3)
_computing_cell_refinement       'CrysAlisPro (Rigaku OD, 2015)'
_computing_data_collection       'CrysAlisPro (Rigaku OD, 2015)'
_computing_data_reduction        'CrysAlisPro (Rigaku OD, 2015)'
_computing_molecular_graphics    'Ortep-3 (L. J. Farrugia, 2001)'
_computing_publication_material  SHELXL-97
_computing_structure_refinement  'SHELXL-97 (Sheldrick, 1997)'
_computing_structure_solution    'SHELXS-97 (Sheldrick, 1997)'
_diffrn_ambient_temperature      291(2)
_diffrn_detector_area_resol_mean 5.2169
_diffrn_measured_fraction_theta_full 0.995
_diffrn_measured_fraction_theta_max 0.974
_diffrn_measurement_device_type  'SuperNova, Dual, Cu at zero, AtlasS2'
_diffrn_measurement_method       '\w scans'
_diffrn_radiation_type           CuK\a
_diffrn_radiation_wavelength     1.54184
_diffrn_reflns_av_R_equivalents  0.0153
_diffrn_reflns_av_unetI/netI     0.0199
_diffrn_reflns_Laue_measured_fraction_full 0.995
_diffrn_reflns_Laue_measured_fraction_max 0.974
_diffrn_reflns_limit_h_max       16
_diffrn_reflns_limit_h_min       -13
_diffrn_reflns_limit_k_max       7
_diffrn_reflns_limit_k_min       -7
_diffrn_reflns_limit_l_max       7
_diffrn_reflns_limit_l_min       -11
_diffrn_reflns_number            2856
_diffrn_reflns_point_group_measured_fraction_full 0.995
_diffrn_reflns_point_group_measured_fraction_max 0.974
_diffrn_reflns_theta_full        67.684
_diffrn_reflns_theta_max         71.101
_diffrn_reflns_theta_min         6.647
_diffrn_source                   'micro-focus sealed X-ray tube'
_exptl_absorpt_coefficient_mu    0.867
_exptl_absorpt_correction_T_max  1.00000
_exptl_absorpt_correction_T_min  0.62356
_exptl_absorpt_correction_type   multi-scan
_exptl_absorpt_process_details
;
CrysAlisPro 1.171.38.46 (Rigaku Oxford Diffraction, 2015)
Empirical absorption correction using spherical harmonics,
 implemented in SCALE3 ABSPACK scaling algorithm.
;
_exptl_crystal_density_diffrn    1.329
_exptl_crystal_description       block
_exptl_crystal_F_000             344
_exptl_crystal_size_max          0.220
_exptl_crystal_size_mid          0.210
_exptl_crystal_size_min          0.170
_refine_diff_density_max         0.146
_refine_diff_density_min         -0.143
_refine_diff_density_rms         0.030
_refine_ls_extinction_coef       0.0095(13)
_refine_ls_extinction_expression Fc^*^=kFc[1+0.001xFc^2^\l^3^/sin(2\q)]^-1/4^
_refine_ls_extinction_method     SHELXL
_refine_ls_goodness_of_fit_ref   1.041
_refine_ls_hydrogen_treatment    constr
_refine_ls_matrix_type           full
_refine_ls_number_parameters     110
_refine_ls_number_reflns         1550
_refine_ls_number_restraints     0
_refine_ls_restrained_S_all      1.041
_refine_ls_R_factor_all          0.0411
_refine_ls_R_factor_gt           0.0381
_refine_ls_shift/su_max          0.000
_refine_ls_shift/su_mean         0.000
_refine_ls_structure_factor_coef Fsqd
_refine_ls_weighting_details
'w=1/[\s^2^(Fo^2^)+(0.0631P)^2^+0.1129P] where P=(Fo^2^+2Fc^2^)/3'
_refine_ls_weighting_scheme      calc
_refine_ls_wR_factor_gt          0.1092
_refine_ls_wR_factor_ref         0.1128
_reflns_Friedel_coverage         0.000
_reflns_number_gt                1397
_reflns_number_total             1550
_reflns_threshold_expression     'I > 2\s(I)'
_cod_data_source_file            jo8b01405_si_002.cif
_cod_data_source_block           shelxl
_cod_original_sg_symbol_H-M      'P 21/c'
_cod_database_code               4035054
_shelx_space_group_comment
;
The symmetry employed for this shelxl refinement is uniquely defined
by the following loop, which should always be used as a source of
symmetry information in preference to the above space-group names.
They are only intended as comments.
;
_shelx_estimated_absorpt_t_min   0.832
_shelx_estimated_absorpt_t_max   0.867
_shelxl_version_number           2013-4
_shelx_res_file
;
TITL jxl-x180110-2_a.res in P2(1)/c
CELL  1.54184  13.7589   6.3812   9.7121   90.000  104.510   90.000
ZERR     4.00   0.0003   0.0001   0.0002    0.000    0.002    0.000
LATT   1
SYMM  - X, 1/2 + Y, 1/2 - Z
SFAC  C    H    N    O    F
UNIT  36   32   4    4    4
MERG   2
EQIV $1 2-X,2-Y,1-Z
EQIV $2 +X,1.5-Y,-0.5+Z
HTAB n1 O1_$1
HTAB n1 O1_$2
MORE -1
FMAP   2   53   53
PLAN   20
SIZE     0.17   0.21   0.22
BOND   $H
CONF
acta
L.S.  10
WGHT    0.063100    0.112900
EXTI    0.009486
FVAR       0.87888
O1    4    0.911264    0.865707    0.581688    11.00000    0.06325    0.06175 =
         0.03680   -0.00817    0.02152   -0.02004
N1    3    0.925187    0.825367    0.357971    11.00000    0.06422    0.06171 =
         0.03612   -0.00450    0.02150   -0.01651
AFIX  93
H1A   2    0.962273    0.935124    0.363823    11.00000   -1.20000
H1B   2    0.910119    0.753684    0.280542    11.00000   -1.20000
AFIX   0
F1    5    0.515215    0.548592    0.722061    11.00000    0.09111    0.12612 =
         0.13694   -0.02173    0.08271   -0.02608
C8    1    0.891369    0.766890    0.467908    11.00000    0.04314    0.05042 =
         0.03420   -0.00002    0.01337   -0.00294
C4    1    0.747158    0.564469    0.525701    11.00000    0.04247    0.04922 =
         0.04102   -0.00303    0.01103   -0.00763
C7    1    0.830434    0.569582    0.454188    11.00000    0.04416    0.04899 =
         0.03635   -0.00125    0.01080   -0.00280
C5    1    0.689690    0.740997    0.531369    11.00000    0.05449    0.05385 =
         0.06624   -0.00034    0.02349   -0.00233
AFIX  43
H5    2    0.704203    0.865112    0.490442    11.00000   -1.20000
AFIX   0
C3    1    0.724501    0.381875    0.589211    11.00000    0.06198    0.05263 =
         0.06649    0.00315    0.02471   -0.00713
AFIX  43
H3    2    0.762439    0.261800    0.587254    11.00000   -1.20000
AFIX   0
C9    1    0.858303    0.405153    0.389836    11.00000    0.06943    0.05639 =
         0.07048   -0.01133    0.03194   -0.00594
AFIX  93
H9A   2    0.824984    0.277986    0.388010    11.00000   -1.20000
H9B   2    0.911167    0.417009    0.346534    11.00000   -1.20000
AFIX   0
C1    1    0.591699    0.553447    0.657165    11.00000    0.05840    0.08714 =
         0.07848   -0.01453    0.03889   -0.01898
C2    1    0.646260    0.375944    0.655408    11.00000    0.07564    0.07315 =
         0.07996    0.00467    0.03791   -0.02154
AFIX  43
H2    2    0.631351    0.253370    0.697711    11.00000   -1.20000
AFIX   0
C6    1    0.611105    0.736459    0.596700    11.00000    0.05878    0.07145 =
         0.08958   -0.01111    0.03326    0.00075
AFIX  43
H6    2    0.572497    0.855335    0.599279    11.00000   -1.20000
AFIX   0
HKLF    4

REM  jxl-x180110-2_a.res in P2(1)/c
REM R1 =  0.0381 for    1397 Fo > 4sig(Fo)  and  0.0411 for all    1550 data
REM    110 parameters refined using      0 restraints

END

WGHT      0.0627      0.1143

REM Highest difference peak  0.146,  deepest hole -0.143,  1-sigma level  0.030
Q1    1   0.7996  0.5624  0.5147  11.00000  0.05    0.15
Q2    1   0.9950  0.8793  0.3846  11.00000  0.05    0.14
Q3    1   0.8142  0.5163  0.3678  11.00000  0.05    0.14
Q4    1   0.7453  0.5000  0.5817  11.00000  0.05    0.14
Q5    1   0.6387  0.6720  0.6742  11.00000  0.05    0.13
Q6    1   0.8032  0.4858  0.3401  11.00000  0.05    0.13
Q7    1   0.8570  0.6666  0.4611  11.00000  0.05    0.13
Q8    1   0.7159  0.4620  0.5227  11.00000  0.05    0.12
Q9    1   0.8605  0.4954  0.4648  11.00000  0.05    0.10
Q10   1   0.5844  0.6384  0.5823  11.00000  0.05    0.10
Q11   1   0.7407  0.6533  0.5612  11.00000  0.05    0.10
Q12   1   0.9594  0.7540  0.5973  11.00000  0.05    0.10
Q13   1   0.7042  0.6335  0.4959  11.00000  0.05    0.09
Q14   1   0.5994  0.4524  0.6033  11.00000  0.05    0.09
Q15   1   0.4986  0.5536  0.7404  11.00000  0.05    0.08
Q16   1   0.6686  0.2230  0.7415  11.00000  0.05    0.08
Q17   1   0.7441  0.8946  0.5647  11.00000  0.05    0.08
Q18   1   0.7880  0.3031  0.6194  11.00000  0.05    0.08
Q19   1   0.8264  0.8733  0.5608  11.00000  0.05    0.07
Q20   1   0.9249  0.5497  0.2917  11.00000  0.05    0.07
;
_shelx_res_checksum              43342
_shelx_hkl_file
;
   2   0   0    2.60    0.18
   3   0   0  136.69    2.41
   4   0   0 1222.27   17.05
   5   0   0 2022.28   27.73
   5   0   0 2025.21   27.90
   6   0   0  460.82    7.37
   7   0   0   86.25    2.30
   8   0   0  107.28    2.87
   9   0   0  240.99    4.58
   9   0   0  238.45    5.31
  10   0   0   80.50    2.91
  10   0   0   86.88    2.44
  11   0   0   21.53    1.23
  11   0   0   19.97    1.48
  12   0   0  120.47    3.31
  13   0   0    4.09    0.54
  14   0   0   11.72    0.87
  15   0   0    0.52    0.19
  16   0   0    0.07    0.09
  16   0   0    0.22    0.12
   0  -1   0    0.06    0.06
   1  -1   0 1575.26   21.32
   2  -1   0  494.61    7.23
   2   1   0  500.74    7.05
   3   1   0 2717.81   36.50
   3  -1   0 2714.05   36.62
   4  -1   0  641.43    9.45
   4   1   0  635.09    9.30
   5  -1   0  271.05    4.66
   5   1   0  262.93    4.56
   6  -1   0   19.89    0.97
   6   1   0   19.40    0.94
   7  -1   0  147.96    3.45
   7  -1   0  149.16    3.41
   7   1   0  148.95    3.39
   8   1   0   71.60    2.31
   8  -1   0   78.90    2.47
   8  -1   0   74.26    2.43
   9   1   0  374.12    6.34
   9  -1   0  380.62    7.30
   9  -1   0  366.05    6.74
   9   1   0  383.18    7.31
  10  -1   0   23.54    1.55
  10  -1   0   21.25    1.21
  10   1   0   22.25    1.10
  11  -1   0   17.34    1.13
  11  -1   0   19.38    1.50
  11   1   0   18.43    1.06
  12   1   0   18.25    1.09
  12  -1   0   17.37    1.12
  13   1   0   71.43    2.38
  13  -1   0   68.64    2.34
  14   1   0   18.60    1.09
  14  -1   0   18.06    1.10
  15   1   0   12.15    0.76
  15  -1   0   12.41    0.80
  16  -1   0    0.70    0.18
   0  -2   0   48.02    1.35
   1  -2   0  492.79    7.53
   2  -2   0   18.51    0.80
   3  -2   0 1078.33   15.46
   4  -2   0  705.16   10.63
   4   2   0  706.65   10.28
   5   2   0  149.61    2.99
   5  -2   0  144.32    3.25
   6  -2   0  141.98    3.34
   7  -2   0   42.01    1.70
   8   2   0   73.09    1.88
   8  -2   0   70.46    2.26
   8  -2   0   70.11    2.48
   8  -2   0   73.02    2.47
   9  -2   0   59.81    2.15
   9  -2   0   61.54    2.46
   9   2   0   62.53    1.82
   9  -2   0   65.42    2.53
  10   2   0   64.55    1.97
  10  -2   0   66.32    2.35
  10  -2   0   70.34    2.79
  11   2   0    0.44    0.21
  11  -2   0    0.82    0.31
  12  -2   0   28.45    1.50
  12   2   0   28.80    1.32
  13  -2   0   11.87    0.92
  14   2   0    0.77    0.26
  14  -2   0    0.55    0.21
  15   2   0   -0.04    0.12
  15  -2   0    0.08    0.11
   0  -3   0   -0.02    0.12
   1  -3   0   79.36    2.20
  -1  -3   0   81.07    2.27
   2  -3   0   77.01    2.15
  -2  -3   0   76.40    2.25
   3  -3   0   51.40    1.73
   4  -3   0  422.43    7.25
   5  -3   0  244.69    5.00
   6  -3   0   33.98    1.58
   7  -3   0    6.66    0.72
   7  -3   0    6.49    0.70
   7  -3   0    6.74    0.72
   7   3   0    7.53    0.54
   8  -3   0    0.96    0.32
   8  -3   0    1.39    0.37
   8  -3   0    0.99    0.36
   8   3   0    1.19    0.24
   9   3   0    0.15    0.17
   9  -3   0    0.38    0.33
   9  -3   0    0.01    0.19
   9  -3   0   -0.09    0.19
  10  -3   0   12.53    1.04
  10   3   0   14.50    0.85
  11   3   0   56.46    1.81
  11  -3   0   52.66    2.15
  12   3   0    1.98    0.33
  12  -3   0    2.15    0.42
  13  -3   0   63.41    2.10
  13   3   0   60.04    1.80
  14  -3   0    0.05    0.13
  14  -3   0    0.01    0.12
   0  -4   0   44.77    1.81
  -1  -4   0  125.79    3.38
   1  -4   0  127.12    3.30
   2  -4   0    9.31    0.79
  -2  -4   0    8.47    0.79
  -3  -4   0    1.22    0.26
   3  -4   0    1.61    0.35
   3  -4   0    1.19    0.32
  -3  -4   0    1.39    0.33
   4  -4   0    1.15    0.30
  -4  -4   0    0.90    0.27
  -4  -4   0    0.87    0.23
   4  -4   0    0.73    0.24
   5  -4   0   40.49    1.83
   5   4   0   45.48    1.47
   5  -4   0   42.69    1.89
   6  -4   0   11.23    0.98
   6   4   0   12.75    0.75
   6  -4   0   10.86    0.96
   6  -4   0   10.64    0.91
   7  -4   0    1.01    0.33
   7  -4   0    0.47    0.26
   7   4   0    1.37    0.26
   7  -4   0    0.65    0.27
   8  -4   0   -0.11    0.23
   8   4   0   -0.07    0.13
   9  -4   0    2.41    0.47
   9   4   0    2.65    0.35
  10   4   0   29.54    1.19
  10  -4   0   28.36    1.56
  11   4   0   41.60    1.41
  11  -4   0   43.03    1.83
  12  -4   0   11.77    0.84
  13  -4   0    5.42    0.49
   0  -5   0   -0.16    0.26
   1  -5   0  168.38    4.07
  -1  -5   0  169.50    4.00
   2  -5   0  103.11    3.05
  -2  -5   0  105.04    2.93
  -3  -5   0   21.92    1.21
   3  -5   0   21.32    1.32
   4  -5   0   15.17    1.14
   5  -5   0    7.93    0.84
   6  -5   0    4.34    0.62
   7  -5   0    0.17    0.19
   8  -5   0   23.91    1.43
   9  -5   0   14.90    1.06
  10  -5   0    1.45    0.34
  11  -5   0    2.26    0.35
  12  -5   0   -0.10    0.09
   0  -6   0  125.79    3.41
  -1  -6   0    2.80    0.48
   1  -6   0    3.31    0.53
   2  -6   0   37.09    1.73
  -2  -6   0   37.22    1.65
   3  -6   0    6.71    0.73
   4  -6   0    5.25    0.64
   5  -6   0   -0.06    0.24
   6  -6   0    7.52    0.72
   7  -6   0   34.08    1.53
   8  -6   0   10.81    0.78
   9  -6   0    1.16    0.24
  10  -6   0    1.40    0.22
   0  -7   0    0.17    0.20
   1  -7   0    2.83    0.41
   2  -7   0    0.73    0.23
   3  -7   0    0.47    0.22
   4  -7   0    0.91    0.25
   5  -7   0    2.78    0.37
   6  -7   0    0.66    0.18
   7  -7   0   -0.13    0.10
  16   0  -1    0.14    0.11
  16   0  -1    0.25    0.14
  15   0  -1    0.30    0.16
  14   0  -1   -0.13    0.24
  13   0  -1    0.15    0.17
  12   0  -1    0.10    0.18
  11   0  -1    0.10    0.17
  11   0  -1   -0.12    0.23
  11   0  -1   -0.11    0.20
  10   0  -1    0.05    0.14
  10   0  -1    0.00    0.24
   9   0  -1    0.23    0.24
   9   0  -1    0.35    0.18
   8   0  -1    0.04    0.19
   7   0  -1   -0.07    0.17
   6   0  -1   -0.03    0.15
   5   0  -1   -0.13    0.16
   4   0  -1   -0.01    0.11
   3   0  -1   -0.04    0.09
   3   0  -1    0.05    0.03
   2   0  -1    0.16    0.08
   1   0  -1   -0.01    0.05
   0   0   1    0.19    0.04
   1   0   1    0.10    0.05
  -2   0  -1   -0.02    0.06
   2   0   1   -0.07    0.07
  -3   0  -1    0.23    0.07
   3   0   1    0.10    0.10
   4   0   1    0.03    0.10
  -4   0  -1    0.08    0.05
   5   0   1   -0.05    0.12
   6   0   1   -0.05    0.10
   7   0   1    0.33    0.18
   8   0   1   -0.01    0.13
   9   0   1   -0.29    0.26
   9   0   1    0.05    0.21
  10   0   1   -0.06    0.19
  11   0   1    0.13    0.21
  12   0   1    0.10    0.18
  13   0   1    0.15    0.22
  14   0   1    0.37    0.25
  15   0   1    0.22    0.18
  16   1  -1    2.16    0.27
  16  -1  -1    2.07    0.29
  15   1  -1    2.36    0.33
  15  -1  -1    2.31    0.35
  15   1  -1    2.56    0.38
  14  -1  -1    7.64    0.70
  14   1  -1    7.54    0.69
  13   1  -1   21.33    1.21
  13  -1  -1   21.40    1.22
  12  -1  -1   33.53    1.56
  12   1  -1   34.16    1.50
  11  -1  -1   28.40    1.41
  11  -1  -1   30.09    1.92
  11   1  -1   28.79    1.32
  10  -1  -1   11.84    1.12
  10   1  -1   11.32    0.76
  10  -1  -1   12.45    0.88
  10   1  -1   11.01    1.04
   9  -1  -1  305.57    6.39
   9   1  -1  304.71    5.29
   9  -1  -1  291.55    5.48
   9   1  -1  306.02    6.38
   9  -1  -1  299.26    5.61
   8  -1  -1  219.10    4.65
   8   1  -1  191.56    4.57
   7  -1  -1  193.05    4.10
   7   1  -1  194.77    4.28
   7  -1  -1  197.62    4.13
   6   1  -1  104.71    2.72
   6  -1  -1  108.62    2.58
   5  -1  -1   10.91    0.66
   5  -1  -1    9.70    0.59
   5   1  -1   10.12    0.67
   4  -1  -1  101.52    2.17
   4   1  -1   97.76    2.26
   4  -1  -1   99.47    2.06
   3  -1  -1  480.01    6.96
   3  -1  -1  476.75    7.11
   3   1  -1  473.43    7.27
   2   1  -1   10.45    0.53
   2  -1  -1   11.21    0.47
   2  -1  -1   11.47    0.42
   1  -1  -1 1228.57   16.65
   1  -1  -1 1231.40   16.50
   0  -1   1 2177.86   29.54
   0  -1  -1 2182.46   28.98
   0  -1  -1 2182.13   28.91
   1  -1   1   48.68    1.23
   2   1   1 4549.47   60.24
   2  -1   1 4570.67   60.87
   3  -1   1   12.09    0.61
   3   1   1   14.44    0.49
   4  -1   1   46.69    1.42
   4   1   1   50.39    1.18
   5  -1   1  730.05   11.22
   5   1   1  754.54   10.75
   6   1   1  104.63    2.42
   6  -1   1  113.19    2.69
   7   1   1  179.73    3.72
   7  -1   1  176.40    3.96
   8  -1   1   39.27    1.68
   8  -1   1   36.71    1.50
   8   1   1   34.94    1.50
   8  -1   1   36.54    1.68
   9  -1   1   54.65    2.28
   9  -1   1   61.01    2.35
   9  -1   1   56.86    2.03
   9   1   1   60.25    1.82
  10  -1   1  131.56    3.85
  10   1   1  129.86    3.13
  10  -1   1  126.31    3.40
  11  -1   1    0.87    0.33
  12  -1   1    5.75    0.66
  13   1   1    0.35    0.22
  13  -1   1    0.20    0.23
  14  -1   1   22.23    1.19
  14   1   1   22.74    1.18
  15  -1   1    3.25    0.38
  15   1   1    2.62    0.35
  16  -2  -1    0.78    0.17
  15  -2  -1    7.63    0.57
  15  -2  -1    7.50    0.61
  15   2  -1    7.60    0.56
  14  -2  -1    0.02    0.14
  14   2  -1    0.03    0.14
  13  -2  -1   39.52    1.68
  13   2  -1   36.57    1.51
  12   2  -1    0.90    0.27
  12  -2  -1    0.64    0.31
  11  -2  -1  110.63    3.17
  11   2  -1  114.16    2.87
  10   2  -1   43.57    1.55
  10  -2  -1   43.66    2.24
  10  -2  -1   44.14    1.81
   9   2  -1    0.43    0.18
   9  -2  -1    0.19    0.19
   9  -2  -1    0.20    0.19
   8  -2  -1  174.86    4.21
   8  -2  -1  166.33    4.14
   8   2  -1  178.29    3.44
   7   2  -1   59.53    2.11
   7  -2  -1   60.86    2.09
   7  -2  -1   58.98    2.02
   6  -2  -1  106.63    2.64
   6  -2  -1  108.58    2.72
   6   2  -1  100.35    2.74
   5  -2  -1   21.61    0.98
   5   2  -1   19.01    0.96
   5  -2  -1   21.47    0.98
   4  -2  -1  687.49   10.25
   3  -2  -1 1936.05   26.48
   2  -2  -1    5.60    0.37
   1  -2  -1  434.91    6.48
   0  -2  -1  102.63    1.64
   0  -2   1   97.48    2.34
   0  -2  -1   99.08    1.96
   1  -2   1  240.54    4.38
   2  -2   1 1516.32   21.40
   3  -2   1   50.10    1.60
   4  -2   1 1051.10   15.43
   5  -2   1    0.84    0.25
   6  -2   1   78.01    2.38
   7  -2   1   44.23    1.81
   8  -2   1   51.55    2.11
   8   2   1   52.48    1.56
   8  -2   1   49.12    1.90
   9  -2   1   49.69    2.19
   9   2   1   48.27    1.58
   9  -2   1   47.74    2.18
   9  -2   1   44.72    1.88
  10  -2   1    0.12    0.26
  10  -2   1    0.00    0.23
  10  -2   1    0.19    0.26
  10   2   1    0.19    0.16
  11  -2   1   20.64    1.30
  11   2   1   21.99    1.11
  12  -2   1    9.13    0.87
  13  -2   1    6.43    0.68
  14  -2   1    1.15    0.32
  14   2   1    0.78    0.23
  15   2   1   21.35    0.91
  15  -2   1   21.95    0.95
  15  -3  -1    0.50    0.15
  14  -3  -1    0.71    0.21
  14  -3  -1    0.83    0.21
  13   3  -1    0.03    0.14
  13  -3  -1    0.23    0.20
  13  -3  -1    0.23    0.19
  12   3  -1   53.65    1.82
  12  -3  -1   58.05    2.12
  11   3  -1    2.89    0.42
  11  -3  -1    2.58    0.46
  10  -3  -1    5.02    0.64
  10   3  -1    4.41    0.49
   9  -3  -1    0.72    0.33
   9   3  -1    0.38    0.17
   9  -3  -1    0.35    0.26
   9  -3  -1    0.40    0.27
   8  -3  -1    7.57    0.75
   8   3  -1    8.45    0.62
   8  -3  -1    8.17    0.84
   8  -3  -1    8.07    0.82
   7  -3  -1   70.43    2.34
   7   3  -1   69.04    1.91
   7  -3  -1   63.22    2.24
   7  -3  -1   70.46    2.42
   6  -3  -1   57.41    2.03
   6  -3  -1   60.37    2.01
   5  -3  -1  135.67    3.17
   5  -3  -1  136.73    3.19
   4  -3  -1   33.83    1.29
   4  -3  -1   32.15    1.29
   3  -3  -1  121.40    2.67
  -2  -3   1  151.07    3.65
   2  -3  -1  153.46    3.09
  -1  -3   1  456.74    7.89
   1  -3  -1  448.25    7.15
   0  -3   1  246.51    4.99
   0  -3  -1  249.87    4.42
  -1  -3  -1  130.69    2.81
   1  -3   1  134.60    3.26
   2  -3   1  102.63    2.80
  -2  -3  -1  106.71    2.56
   3  -3   1   14.53    0.95
   4  -3   1  219.50    4.64
   5  -3   1   11.75    0.90
   6  -3   1  232.55    5.01
   6  -3   1  223.52    5.12
   7  -3   1   41.11    1.86
   7  -3   1   41.87    1.94
   8  -3   1    7.74    0.83
   8  -3   1    7.52    0.84
   9  -3   1    1.88    0.47
   9   3   1    2.12    0.33
   9  -3   1    2.01    0.47
   9  -3   1    1.44    0.39
  10   3   1   11.12    0.72
  10  -3   1   12.24    1.03
  11   3   1   18.65    0.95
  11  -3   1   19.88    1.29
  12  -3   1    5.98    0.67
  13  -3   1   12.69    0.87
  14   3   1    1.56    0.27
  14  -3   1    1.07    0.23
  14  -3   1    1.38    0.24
  13  -4  -1    9.06    0.63
  13   4  -1    8.98    0.57
  12  -4  -1    8.00    0.61
  12  -4  -1    7.94    0.69
  12   4  -1    6.74    0.54
  11   4  -1  106.74    2.61
  11  -4  -1  105.66    3.01
  11  -4  -1  107.73    2.76
  10  -4  -1    8.02    0.80
  10   4  -1    7.87    0.63
   9  -4  -1    3.59    0.55
   9   4  -1    3.27    0.42
   8   4  -1    9.82    0.71
   8  -4  -1    9.11    0.88
   8  -4  -1    7.67    0.87
   7  -4  -1    0.82    0.30
   7  -4  -1    1.19    0.35
   7  -4  -1    0.97    0.33
   7   4  -1    0.93    0.23
   6  -4  -1   28.52    1.44
   6   4  -1   29.94    1.24
   6  -4  -1   26.27    1.44
   6  -4  -1   27.82    1.47
   5  -4  -1   35.79    1.57
   5   4  -1   36.62    1.39
   4   4  -1   14.54    0.85
  -4  -4   1   13.49    1.15
   4  -4  -1   14.71    0.93
   4  -4  -1   12.49    0.94
  -4  -4   1   15.27    0.89
  -3  -4   1   19.80    1.35
  -3  -4   1   19.53    1.00
   3  -4  -1   19.00    1.09
   3  -4  -1   19.48    1.01
  -2  -4   1  166.82    4.28
  -1  -4   1    1.08    0.30
   0  -4   1   28.49    1.55
   1  -4   1  413.20    7.88
   2  -4   1   10.20    0.90
  -2  -4  -1    9.61    0.70
   2  -4   1   10.36    0.81
   3  -4   1   53.48    2.02
   3  -4   1   53.95    2.18
  -3  -4  -1   51.20    1.72
   4  -4   1   23.64    1.41
   4  -4   1   25.67    1.42
   5  -4   1   47.97    2.13
   5  -4   1   47.44    2.05
   6  -4   1    0.31    0.25
   6  -4   1    0.16    0.25
   7  -4   1   13.65    1.13
   7  -4   1   12.90    1.13
   8  -4   1   21.04    1.42
   9  -4   1    1.47    0.37
  10  -4   1   17.25    1.20
  11  -4   1    3.82    0.53
  12  -4   1    0.27    0.18
  13  -4   1   28.70    1.13
  12  -5  -1    3.17    0.32
  11   5  -1    2.30    0.28
  11  -5  -1    2.16    0.34
  10   5  -1   14.27    0.74
  10  -5  -1   13.12    0.89
   9   5  -1   15.51    0.81
   9  -5  -1   13.89    0.99
   8   5  -1    0.29    0.16
   8  -5  -1    0.12    0.18
   7  -5  -1    5.86    0.70
   7   5  -1    6.25    0.56
   6   5  -1    1.86    0.33
   6  -5  -1    2.20    0.44
   5   5  -1    6.31    0.58
   5  -5  -1    4.35    0.60
  -4  -5   1    0.34    0.20
   4  -5  -1    0.14    0.19
   3   5  -1    8.41    0.69
   3  -5  -1    7.71    0.75
  -3  -5   1    7.88    0.73
  -2  -5   1    9.28    0.79
   2  -5  -1    8.55    0.78
  -1  -5   1   28.08    1.43
   1  -5  -1   27.97    1.41
  -1  -5   1   28.21    1.71
   0  -5   1   93.38    2.82
   0  -5   1   93.82    3.24
   0  -5  -1   91.82    2.73
   1  -5   1    2.23    0.41
  -1  -5  -1    2.12    0.40
   1  -5   1    2.63    0.54
   2  -5   1  102.71    3.06
   2  -5   1   98.30    3.32
  -2  -5  -1  100.42    2.83
  -3  -5  -1   72.67    2.33
   3  -5   1   71.14    2.72
   3  -5   1   68.38    2.52
   4  -5   1    1.41    0.41
   4  -5   1    0.22    0.27
   5  -5   1    2.05    0.49
   6  -5   1    0.99    0.36
   7  -5   1    8.12    0.88
   8  -5   1    5.31    0.68
   9  -5   1    4.74    0.61
  10  -5   1    7.93    0.70
  11  -5   1    0.84    0.19
  12  -5   1    4.46    0.38
  10  -6  -1    1.94    0.25
   9  -6  -1    0.73    0.20
   8  -6  -1    6.65    0.59
   7  -6  -1   16.44    1.00
   6  -6  -1    9.44    0.80
   5  -6  -1    2.23    0.41
   5   6  -1    1.47    0.25
   4   6  -1    0.34    0.14
   4  -6  -1   -0.11    0.21
  -3  -6   1    0.51    0.21
   3  -6  -1    0.66    0.27
   3   6  -1    0.84    0.24
   2   6  -1    0.30    0.23
  -2  -6   1   -0.28    0.28
   2  -6  -1   -0.04    0.18
  -1  -6   1   33.85    1.60
   1  -6  -1   33.29    1.58
   0  -6  -1   53.16    2.03
   0  -6   1   54.62    2.12
  -1  -6  -1  102.13    2.93
   1  -6   1   98.07    3.00
   2  -6   1    3.74    0.55
   3  -6   1    8.57    0.83
   4  -6   1    1.26    0.33
   5  -6   1    4.78    0.61
   6  -6   1    0.59    0.26
   7  -6   1   -0.01    0.19
   8  -6   1    0.33    0.17
   9  -6   1    1.38    0.25
   6  -7  -1    0.71    0.17
   5  -7  -1    0.58    0.17
   4  -7  -1    0.21    0.14
   3  -7  -1    9.01    0.67
   2  -7  -1    1.83    0.33
  -1  -7   1    3.04    0.42
   1  -7  -1    2.72    0.39
   0  -7   1   23.29    1.15
   1  -7   1    0.43    0.24
   2  -7   1    3.93    0.48
   3  -7   1    0.95    0.25
   4  -7   1    0.28    0.16
   5  -7   1    6.45    0.54
   6  -7   1    0.25    0.13
  16   0  -2    2.65    0.32
  15   0  -2   23.20    1.13
  14   0  -2   34.43    1.43
  13   0  -2    6.63    0.65
  12   0  -2    0.06    0.20
  12   0  -2    0.25    0.16
  11   0  -2   -0.03    0.17
  11   0  -2    0.58    0.32
  11   0  -2    0.30    0.18
  10   0  -2   24.05    1.12
  10   0  -2   26.80    1.72
   9   0  -2   38.29    1.93
   8   0  -2   15.52    1.10
   7   0  -2 1990.55   28.54
   6   0  -2  734.48   11.59
   5   0  -2  543.35    8.79
   4   0  -2  637.74    8.86
   4   0  -2  623.33    9.80
   3   0  -2  118.06    2.09
   3   0  -2  110.33    2.46
   2   0  -2  581.45    8.64
   1   0  -2  153.27    2.75
   0   0   2 2000.11   26.85
   1   0   2 4502.95   59.84
  -2   0  -2 9999.00  132.80
  -3   0  -2   41.97    1.18
   3   0   2   41.80    1.15
   4   0   2   27.04    0.96
  -4   0  -2   27.75    0.89
   5   0   2    0.06    0.08
   6   0   2   69.54    2.03
   7   0   2    0.88    0.25
   8   0   2    0.78    0.25
   9   0   2    0.29    0.15
  10   0   2    1.34    0.35
  11   0   2   65.14    2.33
  12   0   2   18.01    1.17
  13   0   2   12.76    0.94
  14   0   2   49.56    1.74
  15   0   2    3.14    0.36
  16  -1  -2    1.47    0.26
  15   1  -2   17.38    0.89
  15  -1  -2   19.44    1.05
  14   1  -2    0.93    0.27
  14  -1  -2    0.96    0.27
  13  -1  -2   74.42    2.37
  13   1  -2   78.60    2.42
  13   1  -2   79.95    2.41
  12   1  -2    5.25    0.58
  12  -1  -2    4.99    0.56
  11  -1  -2   19.81    1.11
  11  -1  -2   19.45    1.58
  11   1  -2   20.41    1.08
  11   1  -2   17.81    1.46
  10  -1  -2  111.34    2.89
  10  -1  -2  118.31    3.83
  10  -1  -2  117.65    2.91
  10   1  -2  110.54    3.73
  10   1  -2  112.63    2.72
   9  -1  -2   70.49    2.04
   9   1  -2   74.44    2.79
   9   1  -2   74.21    1.94
   9  -1  -2   73.32    2.75
   8  -1  -2    0.46    0.28
   8   1  -2    0.16    0.19
   7  -1  -2    3.88    0.51
   7   1  -2    3.48    0.51
   6   1  -2   66.43    2.19
   6  -1  -2   64.72    2.09
   5  -1  -2    9.73    0.70
   5   1  -2    9.07    0.71
   4  -1  -2   12.05    0.73
   4   1  -2   11.72    0.75
   3  -1  -2    1.29    0.21
   3   1  -2    0.84    0.20
   2  -1  -2  121.26    2.38
   1  -1  -2  346.57    5.21
   0  -1   2   38.33    1.18
   1  -1   2 2017.40   27.66
   2  -1   2   32.75    1.10
   3  -1   2  250.73    4.40
   4  -1   2  469.62    7.50
   5   1   2  228.47    3.83
   5  -1   2  220.78    4.38
   6   1   2   21.51    0.90
   6  -1   2   21.09    1.09
   7  -1   2   75.28    2.38
   8  -1   2   43.77    1.90
   8  -1   2   46.42    1.77
   9  -1   2    9.56    0.94
   9  -1   2    9.53    0.83
   9  -1   2    8.53    0.85
  10  -1   2    9.67    0.87
  10  -1   2    8.40    0.91
  11  -1   2   46.13    1.93
  12  -1   2    1.49    0.35
  12   1   2    1.95    0.42
  13  -1   2    0.89    0.29
  13   1   2    0.58    0.28
  14   1   2   12.78    0.82
  14  -1   2   12.22    0.83
  15  -1   2    8.19    0.56
  15   1   2    7.98    0.54
  16  -2  -2    2.46    0.30
  15  -2  -2    0.91    0.26
  14   2  -2   25.97    1.16
  14   2  -2   25.41    1.21
  14  -2  -2   25.31    1.27
  13   2  -2    1.81    0.35
  13  -2  -2    2.29    0.38
  12  -2  -2    4.21    0.54
  12   2  -2    4.30    0.54
  11   2  -2   33.59    1.40
  11  -2  -2   34.75    1.58
  10   2  -2  171.70    3.60
  10  -2  -2  166.72    4.86
  10  -2  -2  165.72    3.92
   9  -2  -2    1.23    0.32
   9   2  -2    1.49    0.43
   9   2  -2    1.54    0.28
   9  -2  -2    1.15    0.40
   8   2  -2    9.93    0.94
   8   2  -2    9.36    0.62
   8  -2  -2    9.92    0.92
   7  -2  -2   72.25    2.44
   7   2  -2   65.46    2.40
   7  -2  -2   68.30    2.15
   6  -2  -2    4.05    0.51
   6   2  -2    3.32    0.48
   6  -2  -2    4.37    0.46
   5   2  -2   19.62    1.10
   5  -2  -2   21.31    0.93
   5  -2  -2   21.13    1.08
   4  -2  -2    0.47    0.13
   4  -2  -2   -0.01    0.14
   3  -2  -2   33.32    1.21
   3  -2  -2   33.78    0.95
   2  -2  -2  739.01   10.62
   2  -2  -2  720.78   10.14
   1  -2  -2  564.82    7.85
  -1  -2   2  572.54    9.13
   1  -2  -2  570.74    8.10
   0  -2   2  543.09    8.37
   0  -2  -2  509.56    7.05
  -1  -2  -2  154.67    2.47
   1  -2   2  159.55    3.41
   2  -2   2   92.98    2.42
   3  -2   2   20.36    1.04
   4  -2   2   58.13    1.90
   5  -2   2  600.92    9.89
   6  -2   2   25.46    1.35
   7  -2   2   10.39    0.89
   7  -2   2    9.72    0.80
   8  -2   2   19.87    1.32
   8  -2   2   19.66    1.21
   9  -2   2   24.22    1.53
   9  -2   2   23.51    1.39
   9  -2   2   25.21    1.60
  10  -2   2   80.66    2.74
  11  -2   2    5.97    0.71
  12  -2   2   26.74    1.45
  13  -2   2    0.28    0.24
  13   2   2    0.18    0.16
  14  -2   2    1.51    0.29
  14   2   2    1.25    0.25
  15  -3  -2    0.24    0.14
  14   3  -2    7.68    0.58
  14  -3  -2    7.49    0.61
  13   3  -2    0.46    0.21
  13  -3  -2    0.28    0.20
  12   3  -2   66.71    2.08
  12  -3  -2   68.69    2.25
  12  -3  -2   64.54    2.22
  11  -3  -2  269.22    5.56
  11   3  -2  275.24    5.18
  10  -3  -2   11.14    0.90
  10   3  -2   11.85    0.79
   9   3  -2  102.42    2.58
   9  -3  -2   97.92    3.46
   9  -3  -2  100.45    2.94
   8  -3  -2   20.88    1.42
   8   3  -2   23.80    1.09
   8  -3  -2   21.35    1.28
   8  -3  -2   21.89    1.23
   7   3  -2    3.01    0.38
   7  -3  -2    1.90    0.36
   7  -3  -2    2.53    0.48
   7  -3  -2    2.13    0.38
   6  -3  -2   -0.04    0.13
   6  -3  -2    0.03    0.09
   5  -3  -2   57.87    2.03
   5  -3  -2   58.28    1.73
   4  -3  -2   99.68    2.26
   4  -3  -2   96.07    2.62
   3  -3  -2  820.45   12.60
   3  -3  -2  846.76   12.10
  -2  -3   2  673.68   11.28
  -1  -3   2  167.45    4.04
   0  -3   2   30.11    1.49
   1  -3   2  124.61    3.30
   2  -3   2    9.06    0.80
   3  -3   2   39.37    1.72
   4  -3   2    7.69    0.75
   5  -3   2   97.91    3.00
   5  -3   2  109.09    3.04
   6  -3   2  261.44    5.56
   6  -3   2  251.95    5.73
   7  -3   2    0.25    0.20
   7  -3   2    0.18    0.26
   8  -3   2    2.24    0.48
   8  -3   2    1.79    0.44
   9  -3   2    3.26    0.55
  10  -3   2   24.33    1.47
  11  -3   2   18.89    1.23
  12  -3   2    0.31    0.22
  13  -3   2    7.50    0.63
  14  -3   2    0.46    0.16
  14   3   2    0.10    0.10
  14   4  -2    6.64    0.44
  13   4  -2    0.22    0.16
  13  -4  -2   -0.04    0.11
  12   4  -2   45.07    1.52
  12  -4  -2   44.41    1.58
  11  -4  -2   26.57    1.31
  11  -4  -2   28.02    1.30
  11   4  -2   27.97    1.20
  10  -4  -2    0.25    0.23
  10   4  -2    0.22    0.20
  10  -4  -2    0.18    0.21
   9   4  -2   12.45    0.82
   9  -4  -2   11.80    0.94
   8   4  -2   37.42    1.47
   8  -4  -2   33.88    1.64
   7  -4  -2    5.86    0.69
   7   4  -2    7.35    0.63
   6   4  -2   -0.08    0.13
   6  -4  -2   -0.04    0.19
  -5  -4   2   12.09    0.79
   5   4  -2   13.32    0.84
  -5  -4   2   11.26    1.15
   5  -4  -2   10.98    0.85
  -4  -4   2   12.05    0.79
  -4  -4   2   12.10    1.16
   4  -4  -2   11.01    0.81
  -3  -4   2   24.85    1.61
  -3  -4   2   26.61    1.19
  -2  -4   2    0.09    0.18
  -2  -4   2    0.10    0.15
  -1  -4   2    5.27    0.71
   0  -4   2    0.42    0.21
   0  -4   2    0.15    0.18
  -1  -4  -2   14.48    0.86
   1  -4   2   16.49    1.03
   1  -4   2   16.19    1.25
   2  -4   2   29.91    1.68
  -2  -4  -2   28.00    1.22
   2  -4   2   28.95    1.43
   3  -4   2   26.82    1.61
   3  -4   2   27.77    1.45
   4  -4   2  127.47    3.80
   4  -4   2  137.44    3.70
   5  -4   2   21.74    1.46
   5  -4   2   23.62    1.46
   6  -4   2   21.28    1.52
   6  -4   2   22.58    1.47
   7  -4   2    2.96    0.56
   8  -4   2   19.55    1.36
   9  -4   2   17.02    1.24
  10  -4   2   14.32    1.07
  11  -4   2    1.12    0.31
  12  -4   2   38.18    1.45
  13  -4   2    0.02    0.11
  13   4   2    0.28    0.13
  12   5  -2    1.35    0.20
  11   5  -2    7.83    0.53
  10  -5  -2    0.34    0.16
  10   5  -2    0.53    0.17
   9  -5  -2    7.75    0.68
   9   5  -2    7.53    0.59
   8   5  -2   25.14    1.15
   8  -5  -2   22.21    1.24
   7  -5  -2    1.59    0.35
   7   5  -2    1.28    0.28
   6   5  -2   10.93    0.78
   6  -5  -2    8.73    0.79
   5  -5  -2    0.01    0.20
   5   5  -2    0.11    0.18
  -4  -5   2    3.82    0.71
   4   5  -2    4.30    0.51
  -4  -5   2    4.36    0.54
   4  -5  -2    4.09    0.52
  -3  -5   2    0.61    0.24
   3  -5  -2    0.52    0.23
  -3  -5   2    0.44    0.34
   2  -5  -2   -0.06    0.16
  -2  -5   2    0.01    0.28
  -2  -5   2   -0.24    0.27
   1  -5  -2    0.75    0.27
  -1  -5   2    0.42    0.17
  -1  -5   2    0.31    0.28
   0  -5   2   50.55    1.99
   0  -5  -2   48.72    1.85
   0  -5   2   49.39    2.43
   1  -5   2  274.90    5.72
  -1  -5  -2  272.49    5.41
   1  -5   2  268.31    6.41
   2  -5   2   17.72    1.41
  -2  -5  -2   18.47    1.09
   2  -5   2   17.36    1.19
   3  -5   2   87.06    3.22
   3  -5   2   83.70    2.85
   4  -5   2    0.81    0.30
   5  -5   2    7.37    0.83
   6  -5   2    1.45    0.37
   7  -5   2    4.57    0.64
   8  -5   2    0.09    0.19
   9  -5   2    5.30    0.61
  10  -5   2    0.05    0.17
  11  -5   2    0.86    0.18
   9   6  -2    4.15    0.33
   8  -6  -2   -0.14    0.13
   8   6  -2   -0.12    0.11
   7  -6  -2   17.83    0.97
   7   6  -2   18.97    0.87
   6   6  -2    2.94    0.36
   6  -6  -2    2.70    0.41
   5   6  -2   33.45    1.29
   5  -6  -2   28.98    1.38
   4  -6  -2   14.48    0.98
   4   6  -2   14.80    0.87
  -3  -6   2    0.32    0.23
   3  -6  -2    0.35    0.23
   3   6  -2   -0.16    0.19
  -2  -6   2    0.87    0.27
   2  -6  -2    0.71    0.25
   2   6  -2    0.87    0.23
   1  -6  -2    1.80    0.35
  -1  -6   2    1.39    0.33
   0  -6  -2   68.51    2.26
   0  -6   2   70.85    2.42
   1  -6   2    3.47    0.53
   2  -6   2   89.59    2.83
   3  -6   2    0.08    0.22
   4  -6   2    0.78    0.27
   5  -6   2    1.61    0.35
   6  -6   2    1.26    0.33
   7  -6   2    0.06    0.16
   8  -6   2    0.06    0.14
   9  -6   2    2.10    0.28
   5  -7  -2    3.85    0.36
   4  -7  -2    0.72    0.17
   3  -7  -2    2.05    0.30
   3   7  -2    2.07    0.25
   2   7  -2    0.91    0.18
   1   7  -2   14.53    0.71
  -1  -7   2   14.87    0.89
   0  -7   2    2.31    0.37
   0   7  -2    2.52    0.31
  -1   7  -2    0.76    0.18
   1  -7   2    0.57    0.21
   2  -7   2    2.71    0.39
   3  -7   2   13.17    0.81
   4  -7   2   17.80    0.91
   5  -7   2    0.19    0.14
   6  -7   2    1.13    0.20
  16   0  -3   -0.06    0.10
  15   0  -3    0.19    0.18
  14   0  -3    0.09    0.19
  13   0  -3   -0.01    0.16
  12   0  -3   -0.13    0.17
  11   0  -3   -0.10    0.32
  11   0  -3   -0.10    0.17
  10   0  -3   -0.20    0.15
  10   0  -3   -0.08    0.26
   9   0  -3    0.17    0.12
   9   0  -3   -0.09    0.30
   8   0  -3   -0.06    0.27
   7   0  -3    0.01    0.23
   6   0  -3    0.02    0.22
   5   0  -3    0.54    0.26
   5   0  -3    0.06    0.07
   4   0  -3    0.03    0.07
   4   0  -3    0.05    0.16
   3   0  -3    0.02    0.11
   3   0  -3    0.00    0.10
   2   0  -3    0.03    0.11
   2   0  -3    0.04    0.10
  -1   0   3    0.08    0.07
   0   0   3    0.10    0.07
   0   0  -3    0.07    0.12
   1   0   3    0.23    0.12
  -1   0  -3    0.14    0.14
   2   0   3    0.09    0.10
  -2   0  -3   -0.04    0.14
  -3   0  -3   -0.01    0.10
   3   0   3    0.02    0.08
  -4   0  -3    0.07    0.09
   4   0   3   -0.02    0.08
   5   0   3    0.11    0.13
  -5   0  -3    0.01    0.10
   6   0   3   -0.03    0.12
   7   0   3   -0.09    0.14
   8   0   3    0.35    0.25
   9   0   3    0.01    0.20
  10   0   3    0.09    0.25
  11   0   3    0.06    0.19
  12   0   3    0.00    0.17
  13   0   3    0.19    0.18
  14   0   3    0.16    0.16
  16  -1  -3    0.23    0.13
  15  -1  -3    2.03    0.37
  14   1  -3    3.01    0.44
  14   1  -3    2.97    0.42
  14  -1  -3    3.23    0.48
  13   1  -3   61.40    2.06
  13   1  -3   60.14    2.04
  12   1  -3    7.25    0.67
  11   1  -3   80.14    3.37
  11  -1  -3   80.29    3.42
  11   1  -3   79.40    2.29
  10  -1  -3  164.23    3.62
  10   1  -3  164.08    3.50
  10   1  -3  170.44    4.99
  10  -1  -3  172.95    5.03
   9  -1  -3    9.91    1.05
   9   1  -3   10.74    1.09
   9  -1  -3    9.70    0.67
   9   1  -3   10.29    0.65
   8   1  -3  327.05    6.99
   8  -1  -3  317.12    6.90
   7  -1  -3  245.24    5.46
   7   1  -3  231.00    5.44
   6   1  -3  383.58    7.25
   6  -1  -3  356.81    7.06
   5  -1  -3  110.48    3.04
   5   1  -3  107.48    3.03
   4  -1  -3    3.46    0.45
   4   1  -3    3.45    0.46
   3  -1  -3  676.56   10.40
   2  -1  -3   82.31    1.98
  -1  -1   3  970.77   14.19
   0  -1   3  113.01    2.55
   1  -1   3  422.58    6.86
   2  -1   3 1313.15   18.70
   3  -1   3  449.80    7.32
   4  -1   3  399.70    6.79
   5  -1   3   75.03    2.28
  -5   1  -3   83.93    2.19
   6  -1   3    0.02    0.18
   7  -1   3   45.34    1.76
   7  -1   3   44.71    1.89
   8  -1   3    1.80    0.42
   8  -1   3    3.01    0.48
   9  -1   3    0.18    0.21
   9  -1   3    0.39    0.24
   9  -1   3    0.55    0.23
  10  -1   3    4.91    0.64
  11  -1   3    8.52    0.80
  11   1   3   11.37    0.93
  12  -1   3   17.44    1.12
  12   1   3   19.16    1.14
 -13  -1  -3    0.35    0.16
  13  -1   3    0.18    0.17
  13   1   3    0.22    0.21
  14   1   3   15.17    0.80
  14  -1   3   15.04    0.83
  16  -2  -3   15.07    0.76
  15  -2  -3    7.58    0.62
  15   2  -3    7.02    0.56
  14   2  -3    3.12    0.42
  14  -2  -3    2.88    0.45
  13   2  -3    1.39    0.31
  13  -2  -3    1.60    0.38
  12   2  -3    3.83    0.47
  12  -2  -3    3.31    0.55
  11   2  -3  312.79    5.75
  10   2  -3  167.49    3.60
  10   2  -3  171.96    5.00
  10  -2  -3  173.83    5.14
   9   2  -3  113.20    3.77
   9  -2  -3  111.71    3.77
   9   2  -3  104.77    2.57
   8  -2  -3    3.99    0.65
   8   2  -3    3.60    0.62
   8   2  -3    3.13    0.37
   7  -2  -3   91.32    3.07
   7   2  -3   90.67    3.07
   6  -2  -3   32.98    1.67
   5  -2  -3  120.74    3.30
   4  -2  -3   19.63    1.11
   3  -2  -3   12.93    0.78
   2  -2  -3   83.25    1.96
  -1  -2   3  572.27    9.49
   0  -2   3  336.95    6.21
   1  -2   3  361.92    6.55
   2  -2   3  142.49    3.42
   3  -2   3    8.27    0.72
   4  -2   3  117.28    3.08
   5  -2   3  120.17    3.27
   6  -2   3    1.92    0.38
   6  -2   3    1.61    0.38
   7  -2   3    8.87    0.88
   7  -2   3    9.24    0.83
   8  -2   3   15.08    1.20
   8  -2   3   16.66    1.16
   9  -2   3    0.17    0.27
  10  -2   3    0.72    0.36
  11  -2   3    0.06    0.19
  12  -2   3    7.45    0.71
  12   2   3    7.37    0.68
  13  -2   3   -0.07    0.16
  13   2   3    0.18    0.15
  14   2   3    0.61    0.16
  14  -2   3    0.59    0.16
  15   3  -3    3.10    0.33
  15  -3  -3    3.15    0.35
  14   3  -3   14.14    0.78
  14  -3  -3   14.25    0.86
  13   3  -3   11.65    0.76
  13  -3  -3   10.72    0.82
  12   3  -3    4.91    0.52
  12  -3  -3    4.19    0.56
  11   3  -3   21.29    1.09
  11  -3  -3   23.06    1.31
  10  -3  -3   69.74    2.39
  10   3  -3   69.80    2.08
   9   3  -3   80.52    2.27
   9  -3  -3   80.70    2.58
   9  -3  -3   84.62    3.32
   8  -3  -3   56.89    2.06
   8   3  -3   54.99    1.78
   8  -3  -3   60.19    2.63
   7   3  -3   68.77    1.97
   7  -3  -3   67.41    2.71
   7  -3  -3   65.20    2.17
   6   3  -3   14.97    0.83
   6  -3  -3   13.80    1.12
   5  -3  -3   20.73    1.30
   4  -3  -3   10.32    0.82
  -3  -3   3   11.24    0.99
  -2  -3   3  419.36    8.08
  -1  -3   3    0.29    0.21
   0  -3   3    4.44    0.61
   1  -3   3   30.13    1.57
   2  -3   3    2.91    0.51
   3  -3   3   24.21    1.42
   4  -3   3    4.02    0.59
   4  -3   3    3.52    0.51
   5  -3   3    2.41    0.46
   5  -3   3    3.30    0.54
   6  -3   3   37.56    1.94
   6  -3   3   36.55    1.78
   7  -3   3    0.80    0.30
   7  -3   3    1.00    0.35
   8  -3   3    2.45    0.50
   9  -3   3    0.75    0.32
  10  -3   3    0.77    0.30
  11  -3   3    0.14    0.23
  12  -3   3    0.69    0.24
  13  -3   3    1.59    0.28
  13   3   3    0.96    0.20
  14   4  -3    6.39    0.43
  13   4  -3    1.54    0.25
  13  -4  -3    1.21    0.24
  12   4  -3   10.55    0.69
  12  -4  -3    9.52    0.71
  11   4  -3    4.73    0.48
  11  -4  -3    5.14    0.56
  10   4  -3   25.41    1.19
  10  -4  -3   27.31    1.36
   9   4  -3  139.16    3.26
   9  -4  -3  144.12    3.56
   8   4  -3   13.82    0.88
   7   4  -3    0.58    0.23
   6   4  -3   58.76    1.91
  -5  -4   3    3.43    0.43
   5   4  -3    3.53    0.44
  -5  -4   3    3.79    0.69
  -4  -4   3   25.71    1.18
  -4  -4   3   21.94    1.66
  -3  -4   3   20.79    1.55
  -3  -4   3   23.50    1.14
  -2  -4   3    1.43    0.29
  -2  -4   3    2.03    0.52
  -1  -4   3   64.87    2.77
  -1  -4   3   66.74    2.10
   0  -4   3   32.44    1.90
   0  -4  -3   32.74    1.31
   0  -4   3   34.41    1.48
   1  -4   3    5.71    0.62
  -1  -4  -3    6.04    0.55
   1  -4   3    5.95    0.83
   2  -4   3   49.98    2.32
   2  -4   3   50.97    1.98
   3  -4   3  130.05    3.54
   3  -4   3  130.75    4.02
   4  -4   3   19.82    1.44
   4  -4   3   20.92    1.33
   5  -4   3   18.62    1.42
   5  -4   3   19.53    1.34
   6  -4   3    5.57    0.73
   7  -4   3    7.60    0.86
   8  -4   3    0.26    0.26
   9  -4   3    9.53    0.88
  10  -4   3    3.24    0.50
  11  -4   3    0.06    0.13
  12  -4   3    2.97    0.35
  12   5  -3    1.18    0.21
  11   5  -3    1.16    0.22
  10   5  -3    6.98    0.53
   9   5  -3    0.76    0.23
   8   5  -3    0.16    0.14
   7   5  -3    1.19    0.30
   6   5  -3    1.11    0.31
   5   5  -3   10.06    0.77
  -4  -5   3    2.26    0.40
   4  -5  -3    1.72    0.33
   4   5  -3    2.19    0.39
  -3  -5   3   23.44    1.24
  -3  -5   3   20.61    1.66
   3  -5  -3   21.64    1.18
  -2  -5   3   33.41    2.09
   2  -5  -3   33.40    1.47
  -2  -5   3   35.07    1.56
  -1  -5   3    8.89    1.07
   1  -5  -3    9.46    0.75
  -1  -5   3   10.26    0.84
   0  -5   3    5.96    0.68
   0  -5   3    6.17    0.89
   0  -5  -3    6.68    0.64
   1  -5   3    8.61    1.03
   1  -5   3    8.24    0.79
   2  -5   3   95.07    2.97
   3  -5   3   73.90    2.64
   4  -5   3    3.70    0.59
   5  -5   3   35.62    1.80
   6  -5   3    0.19    0.23
   7  -5   3    4.45    0.61
   8  -5   3    7.91    0.75
   9  -5   3    1.48    0.33
  -9  -5  -3    1.15    0.23
  10  -5   3    0.01    0.12
  10   6  -3    0.83    0.15
   9   6  -3    0.07    0.09
   8   6  -3    2.85    0.31
   7   6  -3    1.68    0.28
   6   6  -3   37.34    1.34
   5   6  -3    0.57    0.19
   4  -6  -3    0.04    0.12
   4   6  -3    0.05    0.17
  -3  -6   3    0.23    0.15
   3  -6  -3    0.16    0.14
   3   6  -3   -0.01    0.15
   2  -6  -3    0.33    0.18
  -2  -6   3    0.17    0.16
  -1  -6   3    3.01    0.45
   0  -6   3   30.20    1.48
   1  -6   3    3.22    0.49
   2  -6   3   12.45    0.96
   3  -6   3   41.89    1.78
   4  -6   3    0.07    0.22
   5  -6   3   25.91    1.32
   6  -6   3   25.86    1.25
   7  -6   3    4.13    0.46
   8  -6   3    0.02    0.10
  -8  -6  -3    0.04    0.09
   5   7  -3    0.86    0.14
   4   7  -3    0.17    0.10
   3   7  -3    0.77    0.17
   2   7  -3    9.90    0.57
   1   7  -3    0.32    0.14
   0  -7   3    0.98    0.24
   0  -7  -3    0.99    0.21
   0   7  -3    0.84    0.19
   1  -7   3    0.38    0.15
  -1   7  -3    0.00    0.12
   2  -7   3    8.80    0.62
   3  -7   3    7.51    0.56
  -4  -7  -3   16.83    0.82
   4  -7   3   18.26    0.83
  -5  -7  -3    7.76    0.50
  16   0  -4    9.47    0.60
  15   0  -4    9.74    0.71
  14   0  -4  196.83    4.30
  13   0  -4    2.72    0.41
  13   0  -4    1.99    0.40
  12   0  -4    0.32    0.23
  12   0  -4    0.46    0.27
  11   0  -4    0.25    0.18
  11   0  -4   -0.32    0.25
  11   0  -4    0.18    0.22
  10   0  -4   53.88    1.71
  10   0  -4   56.13    2.82
  10   0  -4   54.23    2.06
   9   0  -4  406.37    6.72
   9   0  -4  421.81    7.59
   9   0  -4  421.51    8.97
   8   0  -4   69.33    2.91
   7   0  -4  359.30    7.63
   6   0  -4  640.18   11.47
   6   0  -4  658.54    9.70
   5   0  -4 2116.91   30.82
   5   0  -4 2131.02   29.31
   4   0  -4    0.66    0.27
   4   0  -4    0.23    0.14
   3   0  -4   91.25    2.27
   3   0  -4   88.26    2.50
   2   0  -4  167.89    3.47
  -1   0   4  712.35   10.46
   1   0  -4  714.23   11.08
   0   0   4  398.25    6.20
   0   0  -4  404.78    6.86
   1   0   4   20.98    0.78
  -1   0  -4   19.84    1.04
   2   0   4   82.76    1.87
  -2   0  -4   81.54    2.29
  -3   0  -4  264.30    5.13
   3   0   4  276.67    4.71
  -4   0  -4 1820.11   25.82
   4   0   4 1827.84   25.46
  -5   0  -4  165.45    3.55
   5   0   4  169.67    3.62
   6   0   4   82.40    2.46
   7   0   4   22.11    1.19
   8   0   4    0.15    0.17
   9   0   4    0.01    0.24
 -10   0  -4    9.89    0.90
  10   0   4    9.22    0.84
 -11   0  -4    1.45    0.31
  11   0   4    2.58    0.45
  12   0   4    1.01    0.27
  13   0   4    3.45    0.41
  16  -1  -4    5.22    0.46
  15  -1  -4    0.12    0.16
  14   1  -4    0.55    0.20
  14   1  -4    0.55    0.22
  14  -1  -4    0.48    0.24
  13   1  -4   71.68    2.20
  13   1  -4   69.21    2.20
  13  -1  -4   71.31    2.42
  12   1  -4   27.43    1.30
  12   1  -4   30.42    1.42
  12  -1  -4   28.08    1.48
  11   1  -4   14.78    0.89
  11   1  -4   13.11    1.39
  11   1  -4   13.58    0.95
  11  -1  -4   13.26    1.03
  11  -1  -4   13.26    1.43
  10   1  -4   26.79    1.35
  10  -1  -4   27.73    1.22
  10   1  -4   27.82    1.18
  10   1  -4   27.85    1.97
  10  -1  -4   30.05    2.03
  10  -1  -4   28.63    1.51
   9   1  -4  113.52    3.02
   9  -1  -4  120.37    3.30
   9   1  -4  114.14    2.63
   9   1  -4  125.60    4.21
   9  -1  -4  117.12    4.09
   8   1  -4   38.81    2.15
   8  -1  -4   33.69    2.02
   8  -1  -4   34.06    1.58
   7   1  -4   13.77    1.20
   7  -1  -4   12.30    1.15
   6   1  -4  733.41   12.54
   6  -1  -4  713.92   12.49
   5   1  -4  285.11    6.03
   5  -1  -4  279.87    5.98
   4  -1  -4  244.47    5.09
   3  -1  -4   19.21    1.04
  -2  -1   4    4.77    0.50
   2  -1  -4    5.17    0.47
   1  -1  -4  350.53    5.97
  -1  -1   4  337.15    6.06
   0  -1  -4  240.57    4.54
   0  -1   4  231.89    4.57
   1  -1   4  136.97    3.13
   2  -1   4   10.42    0.73
   3  -1   4  876.30   13.28
   4  -1   4   51.75    1.84
  -4   1  -4   47.18    1.81
   5  -1   4   27.82    1.39
  -5   1  -4   28.02    1.30
   6  -1   4   47.47    1.79
   6  -1   4   50.58    1.96
  -6   1  -4   50.64    1.84
   7  -1   4   73.29    2.37
  -7   1  -4   69.75    2.31
   7  -1   4   72.22    2.58
   8  -1   4   18.92    1.19
   8  -1   4   17.25    1.28
  -8   1  -4   18.15    1.13
   9  -1   4   23.29    1.34
  10  -1   4   15.26    1.08
  10   1   4   15.41    1.05
  11   1   4    5.89    0.63
  11  -1   4    6.01    0.66
 -12  -1  -4    1.09    0.25
  12  -1   4    1.23    0.32
  12   1   4    0.97    0.27
  13   1   4    6.12    0.50
  13  -1   4    7.14    0.57
 -13  -1  -4    5.70    0.46
  16  -2  -4    2.50    0.30
  15   2  -4   14.61    0.79
  15  -2  -4   14.33    0.85
  14   2  -4    1.94    0.32
  14  -2  -4    1.41    0.30
  13   2  -4   26.66    1.23
  13  -2  -4   25.26    1.35
  12   2  -4   33.19    1.40
  12  -2  -4   32.82    1.61
  11   2  -4   20.67    1.07
  11  -2  -4   21.43    1.31
  10   2  -4  130.61    3.05
  10  -2  -4  130.33    4.57
  10  -2  -4  133.69    3.64
   9   2  -4  220.40    4.29
   9  -2  -4  217.64    4.95
   9  -2  -4  219.55    6.08
   8   2  -4   77.21    2.10
   8  -2  -4   79.38    2.57
   8  -2  -4   84.40    3.37
   7   2  -4   22.38    1.00
   7  -2  -4   23.42    1.65
   7  -2  -4   21.79    1.21
   6  -2  -4    8.59    0.93
   5  -2  -4    1.72    0.39
   4  -2  -4   74.19    2.42
   3  -2  -4    1.56    0.29
  -2  -2   4   10.53    0.89
  -1  -2   4   12.36    0.93
   0  -2   4   57.78    2.14
   1  -2   4  148.39    3.74
   2  -2   4  158.61    3.87
   3  -2   4   93.57    2.87
   4  -2   4  115.56    3.26
   5  -2   4   35.16    1.75
   5  -2   4   32.82    1.51
   6  -2   4   34.29    1.80
   6  -2   4   35.55    1.63
   7  -2   4  149.04    4.15
   7  -2   4  145.08    3.83
   8  -2   4   12.52    1.02
   9  -2   4    2.45    0.48
  10  -2   4    0.82    0.28
  11   2   4    9.15    0.75
  11  -2   4    6.07    0.66
 -12  -2  -4   30.80    1.36
  12   2   4   34.63    1.33
  12  -2   4   34.48    1.42
 -13  -2  -4    1.06    0.20
  13   2   4    1.35    0.22
  13  -2   4    1.00    0.22
  15   3  -4   -0.06    0.11
  15  -3  -4    0.23    0.14
  14   3  -4    5.58    0.48
  14  -3  -4    5.07    0.51
  13   3  -4   16.72    0.89
  13  -3  -4   14.89    0.97
  12   3  -4   16.14    0.91
  12  -3  -4   15.43    1.04
  11   3  -4    0.91    0.24
  11  -3  -4    1.22    0.36
  10   3  -4  201.59    4.20
  10  -3  -4  211.89    4.80
   9   3  -4  724.98   11.35
   9  -3  -4  725.78   13.76
   9  -3  -4  738.80   12.10
   8   3  -4  145.90    3.29
   8  -3  -4  141.00    3.69
   8  -3  -4  149.16    4.78
   7   3  -4   17.53    0.95
   7  -3  -4   17.92    1.12
   7  -3  -4   18.34    1.49
   6   3  -4   64.06    1.92
   6  -3  -4   61.81    2.12
   5   3  -4   47.51    1.59
  -4  -3   4  137.62    4.17
  -3  -3   4   36.57    1.97
  -2  -3   4    0.12    0.20
  -1  -3   4  536.43    9.95
   0  -3   4   36.00    1.86
   1  -3   4   21.02    1.41
   2  -3   4    8.30    0.88
   3  -3   4   22.87    1.48
   3  -3   4   21.06    1.19
   4  -3   4    0.13    0.18
   4  -3   4    0.61    0.24
   5  -3   4   34.10    1.87
   5  -3   4   31.34    1.59
   6  -3   4  107.87    3.60
   6  -3   4   97.64    3.11
   7  -3   4   10.45    0.97
   8  -3   4    2.04    0.45
   9  -3   4    0.40    0.23
  10  -3   4    9.91    0.84
  11  -3   4   23.71    1.20
  12  -3   4    0.28    0.18
  12   3   4    0.10    0.11
 -12  -3  -4    0.33    0.16
  14   4  -4    0.68    0.15
  13   4  -4    3.17    0.34
  13  -4  -4    2.90    0.34
  12   4  -4   23.60    1.03
  12  -4  -4   24.92    1.15
  11   4  -4   15.27    0.85
  11  -4  -4   15.22    0.95
  10   4  -4    9.41    0.70
  10  -4  -4    9.53    0.78
   9   4  -4    1.16    0.27
   9  -4  -4    1.38    0.33
   8   4  -4   14.89    0.93
   8  -4  -4   17.09    1.08
   7   4  -4   62.35    2.02
   6   4  -4   41.76    1.60
  -6  -4   4   38.70    2.45
   5   4  -4   29.52    1.33
  -5  -4   4   28.73    2.03
  -4  -4   4    0.31    0.30
  -3  -4   4   27.17    1.85
  -3  -4   4   28.15    1.25
  -2  -4   4  107.13    3.87
  -2  -4   4  113.61    2.89
  -1  -4   4   40.15    2.23
  -1  -4   4   41.63    1.63
   0  -4   4  222.61    5.87
   0  -4   4  228.03    4.73
   1  -4   4    9.37    1.04
   1  -4   4   10.82    0.86
   2  -4   4   94.76    3.48
   2  -4   4   89.71    2.77
   3  -4   4   26.95    1.75
   3  -4   4   25.49    1.42
   4  -4   4   59.11    2.62
   4  -4   4   54.82    2.21
   5  -4   4  204.31    4.91
   6  -4   4    6.58    0.78
   7  -4   4   32.92    1.72
  -8  -4  -4    7.09    0.63
   8  -4   4    8.05    0.79
   9  -4   4   22.07    1.24
  10  -4   4    7.72    0.65
 -11  -4  -4    0.09    0.12
  11  -4   4   -0.05    0.12
  11   4   4    0.21    0.10
  12   5  -4   19.27    0.76
  11   5  -4    9.20    0.56
  10   5  -4   13.18    0.73
   9   5  -4    5.74    0.52
   8   5  -4    8.35    0.65
   7   5  -4   17.66    0.99
   6   5  -4   22.01    1.14
   5   5  -4   29.84    1.37
   4   5  -4  108.71    2.95
  -4  -5   4  120.14    3.02
  -3  -5   4   68.11    2.19
  -2  -5   4    6.51    0.64
  -1  -5   4   -0.05    0.16
   0  -5   4   32.33    1.53
   1  -5   4  108.60    3.08
   2  -5   4  183.13    4.33
   3  -5   4   15.87    1.11
   4  -5   4    6.44    0.73
   5  -5   4    0.09    0.21
   6  -5   4    9.05    0.81
  -7  -5  -4    8.73    0.71
   7  -5   4    8.74    0.75
   8  -5   4   17.53    0.98
  -8  -5  -4   14.81    0.80
  -9  -5  -4    0.15    0.11
   9  -5   4    0.53    0.18
  10   6  -4    1.14    0.16
   9   6  -4   -0.02    0.08
   8   6  -4   10.01    0.57
   7   6  -4    7.60    0.54
   6   6  -4    2.52    0.34
   5   6  -4   30.34    1.23
   4   6  -4    0.12    0.15
   3   6  -4   24.38    1.15
   2  -6  -4   27.92    1.24
  -2  -6   4   27.07    1.26
  -1  -6   4   11.25    0.81
   0  -6   4   14.63    0.94
   1  -6   4    5.60    0.59
   2  -6   4   37.94    1.58
   3  -6   4    6.63    0.63
   4  -6   4    4.54    0.51
  -5  -6  -4    6.16    0.59
   5  -6   4    6.25    0.57
  -6  -6  -4    3.22    0.40
   6  -6   4    3.83    0.40
   7  -6   4    4.99    0.41
  -7  -6  -4    5.74    0.44
   5   7  -4    0.07    0.07
   4   7  -4    0.13    0.08
   3   7  -4    2.77    0.28
   2   7  -4    3.57    0.33
   1   7  -4    1.56    0.24
   0  -7  -4    1.11    0.21
   0   7  -4    1.00    0.20
  -1   7  -4   14.81    0.70
   1  -7   4   13.65    0.68
  -1  -7  -4   15.51    0.75
   2  -7   4    1.27    0.21
  -2  -7  -4    1.28    0.23
  -3  -7  -4    1.29    0.21
  16   0  -5    0.15    0.10
  15   0  -5   -0.01    0.15
  14   0  -5   -0.08    0.18
  13   0  -5   -0.05    0.16
  13   0  -5    0.19    0.17
  12   0  -5    0.05    0.13
  12   0  -5    0.15    0.18
  11   0  -5    0.12    0.12
  11   0  -5    0.07    0.17
  10   0  -5    0.13    0.15
  10   0  -5    0.08    0.26
  10   0  -5    0.14    0.17
   9   0  -5   -0.22    0.16
   9   0  -5    0.19    0.32
   9   0  -5   -0.17    0.22
   8   0  -5   -0.09    0.25
   8   0  -5   -0.12    0.31
   7   0  -5   -0.12    0.26
   6   0  -5   -0.08    0.20
   6   0  -5   -0.01    0.16
   5   0  -5   -0.04    0.13
   5   0  -5    0.74    0.35
   4   0  -5    0.22    0.15
  -3   0   5   -0.01    0.09
   3   0  -5    0.00    0.11
  -2   0   5    0.09    0.09
   2   0  -5    0.13    0.17
  -1   0   5    0.03    0.10
   1   0  -5   -0.14    0.15
   0   0  -5    0.04    0.15
  -1   0  -5    0.12    0.13
  -2   0  -5   -0.15    0.18
  -3   0  -5   -0.10    0.16
  -4   0  -5    0.51    0.25
  -4   0  -5   -0.07    0.13
  -5   0  -5   -1.09    0.32
  -6   0  -5   -0.12    0.25
   6   0   5   -0.12    0.16
  -7   0  -5    0.02    0.23
   7   0   5   -0.09    0.16
  -8   0  -5    0.26    0.25
   8   0   5    0.16    0.17
  -9   0  -5    0.25    0.22
   9   0   5   -0.10    0.18
 -10   0  -5   -0.08    0.16
  10   0   5   -0.05    0.15
 -11   0  -5    0.12    0.14
  11   0   5   -0.07    0.13
  12   0   5    0.11    0.15
  16  -1  -5    0.12    0.11
  15  -1  -5   -0.20    0.18
  14   1  -5    0.39    0.15
  14  -1  -5    0.39    0.20
  13   1  -5    0.79    0.25
  13   1  -5    0.37    0.18
  12   1  -5  110.66    2.82
  12   1  -5  113.09    3.03
  12  -1  -5  114.65    3.31
  11   1  -5   26.38    1.20
  11   1  -5   23.25    1.29
  11  -1  -5   24.21    1.45
  10  -1  -5   19.03    1.74
  10   1  -5   18.43    0.95
  10   1  -5   17.53    1.62
  10  -1  -5   21.25    1.35
  10   1  -5   17.94    1.13
   9  -1  -5  183.33    5.69
   9   1  -5  176.67    3.55
   9   1  -5  182.01    5.51
   9   1  -5  167.93    4.05
   9  -1  -5  173.53    4.42
   8  -1  -5   40.43    2.44
   8   1  -5   40.29    1.34
   8   1  -5   42.22    2.39
   8   1  -5   41.31    1.69
   8  -1  -5   39.81    1.82
   7  -1  -5  324.01    7.67
   7  -1  -5  319.72    6.35
   7   1  -5  332.82    7.60
   6  -1  -5   97.64    3.53
   6   1  -5  103.34    2.72
   5  -1  -5  356.07    7.38
   4  -1  -5   65.43    2.37
  -3  -1   5  217.72    4.67
   2  -1  -5  274.99    5.24
  -2  -1   5  265.46    5.33
   1  -1  -5   20.20    1.11
  -1  -1   5   19.83    1.12
   0  -1   5  154.97    3.61
   1  -1   5   78.99    2.33
  -2   1  -5   14.80    1.08
   2  -1   5   15.62    0.97
   3  -1   5  275.64    5.35
  -3   1  -5  268.27    5.73
   4  -1   5   10.97    0.88
  -4   1  -5    9.02    0.83
  -4   1  -5    9.40    0.74
   5  -1   5   15.64    1.06
  -5   1  -5   13.63    0.94
   6  -1   5   71.75    2.27
  -6   1  -5   78.14    2.50
   7  -1   5   70.33    2.31
  -7   1  -5   68.88    2.40
  -8   1  -5   -0.13    0.25
   8  -1   5    0.16    0.18
   8   1   5   -0.07    0.16
   9   1   5   35.87    1.58
   9  -1   5   36.45    1.67
  -9   1  -5   35.12    1.56
 -10  -1  -5    8.78    0.84
  10   1   5    7.81    0.69
  10  -1   5    8.72    0.77
  11   1   5    4.88    0.50
  11  -1   5    5.38    0.56
 -11  -1  -5    4.92    0.56
  12   1   5    6.06    0.48
  12  -1   5    6.68    0.53
 -12  -1  -5    5.71    0.48
  16  -2  -5   19.46    0.79
  15   2  -5    8.29    0.55
  15  -2  -5    7.85    0.60
  14   2  -5    1.96    0.31
  14  -2  -5    1.93    0.35
  13   2  -5    5.21    0.51
  13  -2  -5    5.31    0.61
  12   2  -5   26.35    1.21
  12  -2  -5   28.36    1.52
  11   2  -5   21.39    1.08
  11  -2  -5   22.08    1.38
  10   2  -5  134.17    3.09
  10  -2  -5  129.19    3.72
   9   2  -5   46.07    1.59
   9  -2  -5   44.94    2.04
   9  -2  -5   46.68    2.75
   8  -2  -5  127.63    4.62
   8   2  -5  127.61    2.93
   8  -2  -5  129.09    3.61
   7  -2  -5   70.92    3.19
   7   2  -5   75.19    2.04
   7  -2  -5   76.88    2.55
   6  -2  -5    1.54    0.41
   6  -2  -5    1.91    0.38
   6   2  -5    1.86    0.28
   5  -2  -5   90.24    3.11
   4  -2  -5  265.82    5.57
  -3  -2   5  152.65    4.15
  -2  -2   5   36.33    1.76
  -1  -2   5    0.71    0.28
   0  -2   5  182.53    4.50
   1  -2   5  996.67   15.86
  -2  -2  -5  263.69    5.29
   2  -2   5  273.71    5.88
  -3  -2  -5   12.52    0.92
   3  -2   5   10.09    0.92
  -3  -2  -5   11.21    0.63
  -3   2  -5   11.39    0.76
  -4   2  -5    3.06    0.38
  -4  -2  -5    2.98    0.48
   4  -2   5    2.51    0.50
   5  -2   5   12.60    1.10
   5  -2   5   10.71    0.85
  -5  -2  -5   11.22    0.88
   6  -2   5   81.48    2.95
   6  -2   5   74.52    2.48
   7  -2   5   14.30    1.04
   8  -2   5   29.99    1.53
   9  -2   5   11.86    0.92
 -10  -2  -5    0.12    0.21
  10  -2   5    0.24    0.19
  10   2   5    0.26    0.15
 -11  -2  -5   -0.09    0.17
  11  -2   5    0.15    0.17
  11   2   5    0.11    0.12
  12  -2   5    6.67    0.50
 -12  -2  -5    5.97    0.48
  15   3  -5    2.20    0.25
  15  -3  -5    2.06    0.26
  14   3  -5    4.58    0.41
  14  -3  -5    4.21    0.44
  13   3  -5    5.49    0.50
  13  -3  -5    5.66    0.57
  12   3  -5    1.66    0.31
  12  -3  -5    1.25    0.31
  11  -3  -5    2.73    0.49
  11   3  -5    2.68    0.38
  10   3  -5   22.78    1.10
  10  -3  -5   21.35    1.33
   9   3  -5   17.74    0.99
   9  -3  -5   17.31    1.20
   8   3  -5  303.10    5.61
   8  -3  -5  308.74    6.30
   7   3  -5   24.30    1.16
   7  -3  -5   25.68    1.41
   6  -3  -5    2.89    0.47
   6   3  -5    3.14    0.40
   5   3  -5    7.05    0.60
  -5  -3   5    8.76    1.05
   5  -3  -5    8.29    0.73
  -4  -3   5    8.36    1.02
   4  -3  -5    9.54    0.76
   4  -3  -5    9.75    0.71
  -3  -3   5  104.03    3.65
   3  -3  -5  112.70    2.80
   3  -3  -5  108.05    2.75
   2  -3  -5   96.05    2.59
  -2  -3   5   93.89    3.40
   2   3  -5   95.22    2.32
   2  -3  -5   97.10    2.49
  -1  -3   5  132.11    4.10
   1   3  -5  132.06    2.87
   0  -3   5    2.14    0.51
   0   3  -5    2.89    0.35
   1  -3   5   11.08    1.07
  -1  -3  -5   10.75    0.65
   2  -3   5    0.61    0.33
   3  -3   5   19.53    1.44
   3  -3   5   17.66    1.08
   4  -3   5   90.00    3.21
   4  -3   5   81.88    2.61
  -5  -3  -5   39.17    1.84
   5  -3   5   35.32    1.66
  -6  -3  -5   14.10    1.02
   6  -3   5   12.99    1.01
   7  -3   5   10.00    0.88
   8  -3   5    1.52    0.34
   9  -3   5    3.45    0.47
 -10  -3  -5    7.60    0.72
  10   3   5    8.65    0.60
  10  -3   5    9.09    0.70
  11   3   5    8.00    0.50
  11  -3   5    9.45    0.61
 -11  -3  -5    8.63    0.64
  14   4  -5    0.07    0.08
  13   4  -5   16.39    0.74
  13  -4  -5   15.19    0.74
  12   4  -5    0.40    0.16
  12  -4  -5    0.19    0.13
  11   4  -5   10.15    0.67
  11  -4  -5    9.36    0.72
  10   4  -5    4.06    0.46
  10  -4  -5    3.96    0.50
   9   4  -5   13.50    0.84
   9  -4  -5   15.35    1.02
   8   4  -5   29.05    1.29
   8  -4  -5   28.60    1.42
   7   4  -5  132.17    3.22
   7  -4  -5  138.94    3.45
   6   4  -5   90.61    2.55
   5   4  -5   39.87    1.60
  -5  -4   5   38.71    2.42
  -4  -4   5   12.31    1.33
   4  -4  -5   14.03    0.89
   3  -4  -5    2.59    0.41
  -3  -4   5    2.59    0.61
   2  -4  -5    7.18    0.68
  -2  -4   5    8.24    1.06
  -1  -4   5   27.95    1.92
   0  -4   5    0.75    0.41
   1  -4   5   19.10    1.53
   2  -4   5    5.59    0.63
   3  -4   5   27.82    1.42
   4  -4   5   62.13    2.25
  -5  -4  -5    8.78    0.88
   5  -4   5    8.31    0.79
   6  -4   5    9.80    0.85
  -6  -4  -5    9.40    0.84
   7  -4   5    6.20    0.66
  -7  -4  -5    5.49    0.56
  -8  -4  -5    0.22    0.22
   8  -4   5    0.41    0.18
  -9  -4  -5    5.59    0.57
   9  -4   5    6.91    0.58
  10  -4   5    4.22    0.38
 -10  -4  -5    4.25    0.42
  12   5  -5   19.05    0.71
  11   5  -5    8.43    0.51
  10   5  -5    8.02    0.54
   9   5  -5    4.44    0.43
   8   5  -5    0.20    0.14
   7   5  -5    7.86    0.65
   6   5  -5    6.63    0.61
   5   5  -5   10.58    0.78
   4   5  -5    7.39    0.68
   3  -5  -5    2.89    0.42
   2  -5  -5    3.53    0.48
  -1  -5   5    1.54    0.30
   1  -5  -5    2.35    0.42
   0  -5   5    0.52    0.20
   1  -5   5    3.68    0.48
   2  -5   5    0.67    0.25
   3  -5   5    2.67    0.42
   4  -5   5    1.12    0.29
  -4  -5  -5    1.59    0.44
  -5  -5  -5   11.00    0.89
   5  -5   5    9.72    0.75
   6  -5   5    0.05    0.12
  -6  -5  -5    0.38    0.24
   7  -5   5    4.43    0.45
  -7  -5  -5    3.96    0.42
   8  -5   5    2.68    0.31
   9   6  -5    8.66    0.45
   8   6  -5    3.22    0.31
   7   6  -5   10.37    0.60
   6   6  -5    0.32    0.16
   5   6  -5   19.29    0.92
   4   6  -5    0.02    0.14
   3   6  -5   10.88    0.73
   2   6  -5    8.66    0.66
   2  -6  -5    8.83    0.65
  -1  -6   5    0.34    0.17
   1  -6  -5    0.61    0.22
   0  -6   5    1.26    0.25
   0  -6  -5    1.37    0.30
   1  -6   5   10.16    0.67
  -1  -6  -5   11.14    0.81
   2  -6   5    2.36    0.32
  -2  -6  -5    3.09    0.46
   3  -6   5    1.39    0.26
  -3  -6  -5    1.27    0.34
   4  -6   5    7.37    0.52
  -4  -6  -5    7.07    0.61
  -5  -6  -5   13.36    0.76
   5  -6   5   12.76    0.64
   4   7  -5    0.24    0.10
   3   7  -5    0.06    0.07
   2   7  -5    7.15    0.42
   1   7  -5    7.43    0.44
   0   7  -5    0.08    0.08
  15   0  -6    7.11    0.54
  14   0  -6    2.08    0.34
  13   0  -6   10.10    0.82
  12   0  -6  189.64    4.46
  11   0  -6    9.26    0.89
  10   0  -6    2.15    0.59
  10   0  -6    1.75    0.45
   9   0  -6    0.69    0.35
   9   0  -6    1.08    0.37
   8   0  -6    2.54    0.67
   8   0  -6    2.13    0.46
   7   0  -6   68.68    2.38
   6   0  -6   46.68    1.75
   6   0  -6   45.28    1.77
   5   0  -6   27.71    1.35
   4   0  -6  202.19    4.48
   3   0  -6  288.53    5.83
   2   0  -6   19.91    1.23
   1   0  -6   60.86    2.28
   0   0  -6   19.05    1.25
  -1   0  -6    6.23    0.71
  -1   0  -6    5.90    0.47
  -1   0  -6    6.75    0.61
  -2   0  -6    8.82    0.85
  -2   0  -6    8.10    0.56
  -2   0  -6    9.10    0.67
  -2   0  -6   10.15    0.79
  -3   0  -6    3.93    0.52
  -3   0  -6    3.78    0.44
  -3   0  -6    5.12    0.48
  -3   0  -6    3.75    0.56
  -4   0  -6   82.31    2.65
  -5   0  -6  133.50    3.67
  -6   0  -6    0.52    0.31
  -7   0  -6    0.59    0.29
  -8   0  -6    2.82    0.51
  -9   0  -6   10.23    0.85
   9   0   6    7.86    0.65
 -10   0  -6    1.14    0.28
  10   0   6    1.08    0.24
 -11   0  -6   14.28    0.71
  15  -1  -6    0.07    0.13
  14   1  -6    1.24    0.25
  14  -1  -6    1.74    0.35
  13   1  -6    0.29    0.16
  13  -1  -6    0.65    0.27
  12   1  -6    6.70    0.57
  12   1  -6    6.78    0.65
  12  -1  -6    6.75    0.73
  11   1  -6   10.12    0.70
  11   1  -6    8.82    0.77
  11  -1  -6    8.28    0.86
  10   1  -6    4.97    0.48
  10   1  -6    4.31    0.56
  10  -1  -6    4.40    0.63
   9   1  -6    7.38    0.56
   9  -1  -6    6.06    1.04
   9   1  -6    6.92    0.69
   9  -1  -6    7.17    0.82
   8   1  -6    0.31    0.22
   8  -1  -6    0.08    0.23
   7  -1  -6   36.65    2.33
   7   1  -6   38.14    1.60
   7  -1  -6   34.71    1.70
   6   1  -6   75.30    2.42
   6  -1  -6   69.32    1.89
   6  -1  -6   71.32    2.37
   6  -1  -6   68.17    3.02
   5   1  -6   10.40    0.67
   5   1  -6   11.55    0.92
   5  -1  -6    9.64    0.78
  -4  -1   6  243.08    5.34
   4   1  -6  248.71    5.33
   4  -1  -6  230.54    4.71
  -3  -1   6    0.90    0.30
   3   1  -6    0.88    0.30
  -2  -1   6    5.65    0.63
   2   1  -6    4.56    0.62
  -1  -1   6    1.45    0.34
   1   1  -6    1.21    0.34
   0   1  -6    1.38    0.28
   0  -1  -6    1.20    0.28
   0  -1   6    1.51    0.33
   0   1  -6    1.91    0.47
   0  -1  -6    1.31    0.26
  -1   1  -6   43.29    2.05
  -1   1  -6   44.49    1.34
  -1  -1  -6   42.18    1.39
  -1  -1  -6   43.47    1.63
  -1   1  -6   43.70    1.61
  -1  -1  -6   42.89    1.66
  -2   1  -6    7.42    0.85
  -2   1  -6    9.20    0.60
  -2  -1  -6    8.14    0.56
  -2  -1  -6    7.48    0.67
  -2   1  -6    7.68    0.67
  -2  -1  -6    8.05    0.73
  -3   1  -6  228.72    5.45
  -3  -1  -6  243.83    4.33
  -3  -1  -6  239.37    4.93
  -3   1  -6  248.99    4.99
  -3  -1  -6  245.56    5.18
  -4   1  -6   53.50    2.24
  -4  -1  -6   57.05    1.95
  -4   1  -6   53.39    2.01
  -4  -1  -6   55.11    2.20
  -5   1  -6   35.74    1.65
  -5  -1  -6   37.64    1.86
  -6   1  -6    9.79    0.88
  -6  -1  -6    9.82    0.98
  -7   1  -6    9.93    0.86
  -7  -1  -6   10.54    1.03
  -8   1  -6   30.62    1.46
   8  -1   6   32.22    1.43
  -8  -1  -6   31.30    1.75
  -9  -1  -6    4.65    0.63
   9  -1   6    4.45    0.50
  -9   1  -6    3.92    0.47
  10  -1   6    5.42    0.50
 -10  -1  -6    4.98    0.58
 -11  -1  -6    0.27    0.15
  15  -2  -6    5.04    0.44
  14   2  -6    4.24    0.41
  14  -2  -6    4.41    0.49
  13   2  -6    4.41    0.45
  13  -2  -6    3.69    0.50
  12   2  -6    0.30    0.16
  12  -2  -6    0.07    0.18
  11   2  -6   43.72    1.54
  11  -2  -6   43.59    1.99
  10   2  -6   -0.01    0.15
  10  -2  -6   -0.31    0.32
   9   2  -6  199.52    3.94
   9  -2  -6  184.00    6.15
   9  -2  -6  184.60    4.80
   8   2  -6   90.34    2.33
   8  -2  -6   85.40    3.88
   8  -2  -6   87.19    2.98
   7   2  -6  141.30    3.08
   7  -2  -6  143.43    3.82
   6   2  -6   16.15    0.86
   6  -2  -6   15.87    1.08
   6  -2  -6   15.65    1.39
   5   2  -6   86.95    2.21
  -5  -2   6   83.00    3.19
   5  -2  -6   87.25    2.61
   5  -2  -6   84.19    2.28
   4  -2  -6    0.13    0.14
  -4  -2   6    0.12    0.21
   4   2  -6    0.67    0.27
   4  -2  -6    0.12    0.15
   3  -2  -6    0.62    0.21
  -3  -2   6    0.77    0.30
   3   2  -6    0.99    0.24
   3  -2  -6    1.17    0.29
  -2  -2   6   27.57    1.65
   2   2  -6   28.69    1.17
   2  -2  -6   29.77    1.26
   2  -2  -6   27.63    1.27
  -1  -2   6   22.84    1.47
   1   2  -6   20.58    0.99
   1  -2  -6   22.63    1.06
   1  -2  -6   22.03    1.14
   0  -2  -6    1.00    0.27
   0  -2   6    0.75    0.31
   0   2  -6    0.20    0.17
   0  -2  -6    0.90    0.24
   1  -2   6   13.94    1.14
  -1  -2  -6   13.05    0.76
  -1  -2  -6   12.44    0.92
  -1  -2  -6   11.89    0.85
  -2   2  -6    2.57    0.40
  -2  -2  -6    2.43    0.40
  -2  -2  -6    2.93    0.48
   2  -2   6    2.90    0.52
  -2  -2  -6    2.51    0.33
  -3  -2  -6   18.90    1.20
   3  -2   6   20.21    1.36
  -3  -2  -6   20.30    0.91
  -3   2  -6   19.04    1.43
  -3  -2  -6   17.32    1.15
  -3   2  -6   17.87    1.05
  -4   2  -6    1.49    0.32
  -4  -2  -6    1.83    0.40
  -4  -2  -6    2.24    0.44
   4  -2   6    2.26    0.49
  -4   2  -6    1.02    0.35
  -5  -2  -6   59.05    2.46
  -5  -2  -6   60.55    2.15
  -5   2  -6   59.71    2.05
  -6  -2  -6   29.92    1.78
  -7  -2  -6   48.50    2.29
  -8  -2  -6    0.75    0.33
   8  -2   6    0.74    0.24
  -9  -2  -6    2.92    0.50
   9  -2   6    3.13    0.41
 -10  -2  -6    1.43    0.30
  10  -2   6    1.47    0.26
 -11  -2  -6    1.38    0.24
  14   3  -6   20.97    0.82
  14  -3  -6   20.66    0.91
  13   3  -6   37.36    1.25
  13  -3  -6   36.60    1.43
  12   3  -6    8.71    0.61
  12  -3  -6    8.64    0.74
  11   3  -6    7.70    0.60
  11  -3  -6    6.90    0.71
  10   3  -6   12.19    0.77
  10  -3  -6   12.09    0.99
   9   3  -6   18.11    0.98
   9  -3  -6   16.12    1.17
   8   3  -6  609.39    9.68
   8  -3  -6  599.90   10.55
   7   3  -6  174.38    3.75
  -7  -3   6  175.59    5.59
   7  -3  -6  177.77    4.32
   6   3  -6   62.98    1.97
  -6  -3   6   60.07    3.05
   6  -3  -6   66.31    2.32
   5   3  -6    4.13    0.47
  -5  -3   6    3.48    0.70
   5  -3  -6    4.35    0.49
   5  -3  -6    3.95    0.53
   4  -3  -6    0.76    0.27
  -4  -3   6    0.32    0.30
   4  -3  -6    0.90    0.28
  -3  -3   6   20.12    1.58
   3  -3  -6   20.39    1.10
   3  -3  -6   20.03    1.12
   2  -3  -6    4.55    0.54
   2   3  -6    5.93    0.55
  -2  -3   6    4.90    0.79
   2  -3  -6    5.01    0.52
   1  -3  -6   -0.08    0.15
  -1  -3   6    0.22    0.28
   1   3  -6    0.20    0.18
   1  -3  -6   -0.05    0.13
   0  -3   6    2.23    0.53
   0   3  -6    3.23    0.42
   0  -3  -6    3.00    0.38
   1  -3   6   13.21    1.22
  -1   3  -6   11.83    0.77
  -1  -3  -6   13.08    0.75
  -1  -3  -6   13.51    1.05
   2  -3   6   71.66    2.92
  -2   3  -6   64.66    1.96
  -2  -3  -6   69.29    1.80
  -2  -3  -6   68.11    2.54
  -2  -3  -6   63.96    2.16
  -3  -3  -6   27.87    1.60
  -3  -3  -6   30.01    1.49
  -4  -3  -6   40.08    1.85
  -4  -3  -6   41.57    1.94
  -5  -3  -6   39.10    1.92
  -5  -3  -6   42.09    1.86
  -6  -3  -6   51.27    2.24
  -6  -3  -6   54.28    1.96
  -7  -3  -6    0.14    0.21
   7  -3   6    0.38    0.19
  -8  -3  -6    1.37    0.38
   8  -3   6    1.74    0.30
  -9  -3  -6    0.59    0.22
   9  -3   6    0.79    0.20
 -10  -3  -6    0.67    0.19
  13   4  -6    0.00    0.09
  12   4  -6    6.67    0.47
  12  -4  -6    5.96    0.48
  11   4  -6    5.26    0.45
  11  -4  -6    4.30    0.45
  10   4  -6   16.15    0.84
  10  -4  -6   15.10    0.93
   9   4  -6    1.44    0.30
   9  -4  -6    1.18    0.29
   8   4  -6    7.23    0.62
   8  -4  -6    7.46    0.69
   7   4  -6    8.60    0.69
   7  -4  -6    9.08    0.77
   6   4  -6   40.48    1.60
   6  -4  -6   44.13    1.72
   5   4  -6   61.32    2.06
   5  -4  -6   66.95    2.13
   4  -4  -6    0.89    0.25
   4   4  -6    0.57    0.20
   3  -4  -6   18.61    1.10
   2  -4  -6   36.52    1.62
   1  -4  -6   42.29    1.82
   0  -4  -6   25.55    1.46
  -1  -4  -6   31.17    1.70
  -2  -4  -6   61.35    2.48
  -3  -4  -6   46.03    2.14
  -4  -4  -6    0.70    0.24
  -4  -4  -6    0.50    0.31
  -5  -4  -6   18.61    1.19
  -5  -4  -6   19.58    1.14
  -6  -4  -6    1.88    0.38
  -6  -4  -6    1.49    0.32
  -7  -4  -6   25.17    1.04
  -7  -4  -6   24.71    1.22
  -8  -4  -6    0.97    0.23
  11   5  -6   29.53    0.92
  10   5  -6    4.87    0.39
   9   5  -6    3.29    0.35
   8   5  -6    4.39    0.44
   7   5  -6    1.21    0.26
   6   5  -6    0.84    0.26
   5   5  -6    1.40    0.32
   4   5  -6  103.27    2.75
   4  -5  -6  105.31    2.61
   3   5  -6   24.99    1.24
   3  -5  -6   24.80    1.19
   2  -5  -6    1.39    0.31
   1  -5  -6    6.03    0.62
   0  -5  -6    9.11    0.82
  -1  -5  -6   42.18    1.85
  -2  -5  -6    7.64    0.78
  -3  -5  -6    2.61    0.45
  -4  -5  -6   13.26    0.95
  -5  -5  -6    0.82    0.25
  -6  -5  -6    0.27    0.15
   8   6  -6    0.72    0.14
   7   6  -6    0.32    0.11
   6   6  -6    0.32    0.15
   5   6  -6    0.85    0.20
   4   6  -6    0.20    0.14
   3   6  -6   14.62    0.78
   2   6  -6    5.09    0.47
   2  -6  -6    4.47    0.42
   1  -6  -6    0.04    0.13
   1   6  -6   -0.35    0.19
   0  -6  -6    0.06    0.14
  -1  -6  -6    0.00    0.12
  -2  -6  -6    8.80    0.65
  -3  -6  -6    6.25    0.52
  -4  -6  -6    3.80    0.37
  15   0  -7    0.08    0.10
  14   0  -7   -0.08    0.13
  13   0  -7    0.02    0.15
  12   0  -7   -0.06    0.15
  11   0  -7    0.07    0.19
  10   0  -7   -0.01    0.21
   9   0  -7   -0.33    0.24
   8   0  -7    0.12    0.17
   7   0  -7    0.43    0.17
   6   0  -7    0.84    0.28
   6   0  -7    0.11    0.18
   6   0  -7    0.27    0.24
   5   0  -7    0.06    0.16
   5   0  -7    0.04    0.23
   5   0  -7   -0.02    0.21
   4   0  -7   -0.17    0.19
   4   0  -7    0.03    0.20
   4   0  -7   -0.12    0.18
   3   0  -7    0.12    0.17
   3   0  -7   -0.31    0.23
   3   0  -7   -0.47    0.24
   3   0  -7    0.04    0.15
   2   0  -7    0.29    0.20
   2   0  -7    0.35    0.20
   2   0  -7    0.08    0.16
   2   0  -7    0.07    0.16
   1   0  -7    0.10    0.18
   1   0  -7    0.13    0.14
   1   0  -7   -0.10    0.22
   1   0  -7    0.03    0.12
   0   0  -7    0.08    0.15
   0   0  -7    0.14    0.19
   0   0  -7   -0.11    0.23
   0   0  -7    0.12    0.18
  -1   0  -7   -0.01    0.18
  -1   0  -7    0.35    0.22
  -1   0  -7   -0.15    0.20
  -1   0  -7    0.65    0.23
  -2   0  -7    0.19    0.23
  -2   0  -7   -0.07    0.20
  -2   0  -7    0.32    0.21
  -3   0  -7   -0.01    0.22
  -3   0  -7   -0.06    0.15
  -4   0  -7    0.20    0.25
  -5   0  -7    0.05    0.20
  -6   0  -7    0.14    0.26
  -7   0  -7   -0.10    0.21
  -8   0  -7    0.00    0.19
  -9   0  -7   -0.09    0.16
 -10   0  -7   -0.02    0.11
  15  -1  -7    0.04    0.09
  14  -1  -7    0.80    0.23
  13  -1  -7    0.00    0.14
  12  -1  -7    2.56    0.46
  11  -1  -7   16.85    1.20
  10   1  -7   41.33    1.72
  10  -1  -7   41.08    1.99
   9   1  -7   28.54    1.44
   9  -1  -7   27.97    1.66
   8   1  -7    1.35    0.33
   8  -1  -7    1.41    0.42
   7   1  -7  126.30    3.26
   7  -1  -7  120.29    3.54
   6   1  -7   89.63    2.90
   6   1  -7   88.99    2.59
   6  -1  -7   87.92    2.82
   5   1  -7   18.89    0.98
   5   1  -7   15.99    1.17
   5   1  -7   17.14    1.00
   5  -1  -7   16.75    0.92
   5  -1  -7   15.62    1.05
   4   1  -7  172.56    3.62
   4   1  -7  168.42    4.41
   4  -1  -7  168.94    3.49
   4   1  -7  170.45    3.66
   4  -1  -7  162.90    3.85
   4  -1  -7  165.88    3.61
   3  -1  -7    4.11    0.47
   3   1  -7    4.54    0.48
   3   1  -7    4.48    0.47
   3  -1  -7    4.62    0.53
   3   1  -7    4.64    0.66
   2  -1  -7    2.12    0.36
   2  -1  -7    1.59    0.30
   2   1  -7    1.58    0.26
   2   1  -7    2.30    0.49
   2   1  -7    1.74    0.30
   2  -1  -7    2.11    0.34
   1   1  -7    7.56    0.89
   1   1  -7    8.32    0.59
   1  -1  -7    8.96    0.67
   1  -1  -7    9.23    0.74
   1  -1  -7    8.27    0.70
   0   1  -7    2.43    0.41
   0  -1  -7    2.06    0.37
   0  -1  -7    2.78    0.41
   0   1  -7    2.17    0.49
   0  -1  -7    3.11    0.40
  -1   1  -7   12.75    1.15
  -1   1  -7   14.37    0.75
  -1  -1  -7   12.09    0.75
  -1  -1  -7   13.87    0.94
  -1   1  -7   12.55    0.91
  -1  -1  -7   14.49    0.99
  -2   1  -7    1.85    0.38
  -2  -1  -7    1.51    0.37
  -2  -1  -7    2.11    0.42
  -2   1  -7    1.80    0.46
  -2  -1  -7    2.54    0.37
  -3   1  -7   15.30    1.25
  -3  -1  -7   16.46    1.05
  -3   1  -7   16.22    1.10
  -3  -1  -7   16.06    1.13
  -4   1  -7    0.94    0.31
  -4  -1  -7    0.86    0.34
  -4  -1  -7    0.39    0.19
  -5   1  -7    7.58    0.76
  -5  -1  -7    6.86    0.80
  -6   1  -7   15.21    1.05
  -6  -1  -7   12.50    1.11
  -7   1  -7   28.10    1.39
  -7  -1  -7   27.35    1.60
  -8   1  -7    0.31    0.19
  -8  -1  -7    0.34    0.25
  -9  -1  -7   10.86    0.80
 -10  -1  -7    3.71    0.38
  15  -2  -7    0.27    0.12
  14   2  -7    1.55    0.21
  14  -2  -7    2.29    0.32
  13   2  -7    0.08    0.12
  13  -2  -7    0.16    0.17
  12   2  -7   20.36    0.92
  12  -2  -7   20.73    1.21
  11   2  -7   15.18    0.80
  11  -2  -7   14.42    1.10
  10   2  -7   40.56    1.38
  10  -2  -7   39.30    1.91
   9   2  -7    8.63    0.61
   9  -2  -7    8.22    0.87
   8   2  -7   15.80    0.84
   8  -2  -7   15.40    1.19
  -7  -2   7   80.43    3.42
   7  -2  -7   88.03    2.92
  -6  -2   7  311.21    7.47
   6   2  -7  320.86    6.82
   6  -2  -7  322.68    6.53
   6  -2  -7  324.30    5.78
   5  -2  -7    0.39    0.22
  -5  -2   7    0.50    0.23
   5   2  -7    0.78    0.34
   5  -2  -7    0.24    0.20
  -4  -2   7   74.00    2.94
   4   2  -7   71.23    2.10
   4   2  -7   68.61    2.81
   4  -2  -7   70.91    2.33
   4  -2  -7   68.70    2.17
  -3  -2   7   12.13    1.11
   3   2  -7   12.40    0.82
   3   2  -7   11.63    1.16
   3  -2  -7   12.62    0.89
   3  -2  -7   11.87    0.86
   2  -2  -7    1.32    0.33
  -2  -2   7    1.22    0.38
   2   2  -7    1.19    0.28
   2  -2  -7    1.03    0.23
   2   2  -7    1.52    0.47
   1  -2  -7    1.99    0.37
   1  -2  -7    1.57    0.32
   1   2  -7    1.19    0.27
   1  -2  -7    2.37    0.37
   1   2  -7    1.53    0.45
   0  -2  -7    2.89    0.43
   0  -2  -7    3.05    0.47
   0   2  -7    1.68    0.31
   0  -2  -7    3.44    0.43
   0   2  -7    2.24    0.55
  -1  -2  -7    4.13    0.51
  -1  -2  -7    5.11    0.63
  -1  -2  -7    4.10    0.45
  -1   2  -7    3.93    0.46
  -1   2  -7    4.89    0.82
  -2  -2  -7    0.71    0.28
  -2  -2  -7    0.52    0.23
  -2  -2  -7    1.14    0.28
  -3  -2  -7   24.86    1.42
  -3  -2  -7   25.42    1.45
  -4  -2  -7   13.06    0.98
  -4   2  -7   13.64    0.94
  -4  -2  -7   13.10    1.10
  -5  -2  -7   49.13    1.81
  -5  -2  -7   44.80    2.10
  -6  -2  -7   21.20    1.42
  -7  -2  -7    7.84    0.84
  -8  -2  -7    2.11    0.45
  -9  -2  -7    1.56    0.31
 -10  -2  -7    0.36    0.12
  14  -3  -7    1.55    0.21
  13   3  -7    0.61    0.15
  13  -3  -7    0.74    0.19
  12   3  -7    0.24    0.13
  12  -3  -7   -0.08    0.14
  11   3  -7    0.70    0.18
  11  -3  -7    0.89    0.27
  10   3  -7    1.11    0.23
  10  -3  -7    1.05    0.29
   9   3  -7   11.45    0.72
   9  -3  -7   10.89    0.93
   8   3  -7   42.86    1.51
   8  -3  -7   43.22    1.92
   7   3  -7   38.98    1.44
   7  -3  -7   38.72    1.79
   6   3  -7   56.58    1.81
   6  -3  -7   54.98    2.13
   6  -3  -7   59.10    1.85
   5  -3  -7    2.54    0.39
   5   3  -7    2.70    0.38
   5  -3  -7    2.62    0.46
   4   3  -7   10.33    0.73
   4  -3  -7   11.56    0.86
   4  -3  -7   11.48    0.84
   3  -3  -7   36.72    1.52
   3  -3  -7   35.03    1.54
  -2  -3   7   10.00    1.13
   2   3  -7   13.50    0.85
   2  -3  -7   11.60    0.80
   2  -3  -7   11.93    0.91
   1   3  -7    7.73    0.65
   1  -3  -7    7.86    0.65
   1  -3  -7    8.25    0.79
   0  -3  -7    0.07    0.22
   0  -3  -7    0.15    0.14
  -1  -3  -7    0.75    0.26
  -1  -3  -7    0.05    0.27
  -1   3  -7    0.21    0.17
  -1  -3  -7    0.26    0.18
  -2   3  -7   22.45    1.08
  -2  -3  -7   23.26    1.45
  -2  -3  -7   21.30    1.18
  -3  -3  -7    8.40    0.88
  -3  -3  -7    7.87    0.75
  -4  -3  -7   -0.12    0.20
  -4  -3  -7    0.05    0.24
  -5  -3  -7    4.85    0.57
  -5  -3  -7    5.31    0.65
  -6  -3  -7    0.90    0.28
  -6  -3  -7    0.82    0.24
  -7  -3  -7    0.22    0.22
  -8  -3  -7    0.89    0.25
  -9  -3  -7    0.13    0.11
  12   4  -7    1.16    0.18
  12  -4  -7    0.76    0.16
  11   4  -7    8.57    0.52
  11  -4  -7    8.37    0.57
  10   4  -7    1.41    0.25
  10  -4  -7    1.23    0.26
   9   4  -7    8.20    0.58
   9  -4  -7    7.83    0.64
   8   4  -7    4.94    0.48
   8  -4  -7    4.35    0.52
   7   4  -7   17.24    0.93
   7  -4  -7   17.30    1.01
   6   4  -7   27.18    1.22
   6  -4  -7   24.69    1.22
   5   4  -7   33.51    1.40
   5  -4  -7   35.33    1.44
   5  -4  -7   35.04    1.38
   4   4  -7   63.94    2.04
   4  -4  -7   67.82    2.02
   4  -4  -7   63.15    2.05
   3   4  -7   39.97    1.58
   3  -4  -7   42.36    1.69
   2  -4  -7    2.80    0.46
   1  -4  -7    6.84    0.72
   0  -4  -7    6.16    0.70
  -1  -4  -7   29.68    1.61
  -2  -4  -7    0.33    0.23
  -3  -4  -7    4.60    0.63
  -4  -4  -7    3.83    0.53
  -5  -4  -7    3.05    0.38
  -5  -4  -7    3.16    0.43
  -6  -4  -7   11.88    0.67
  -6  -4  -7   10.82    0.69
  -7  -4  -7    1.62    0.24
  10   5  -7    1.13    0.17
   9   5  -7    2.38    0.27
   8   5  -7    0.54    0.15
   7   5  -7    2.88    0.33
   6   5  -7   15.89    0.82
   5   5  -7    1.81    0.30
   4  -5  -7    3.22    0.37
   4   5  -7    3.99    0.44
   3  -5  -7    0.42    0.20
   3   5  -7    0.37    0.17
   2   5  -7    6.58    0.58
   2  -5  -7    6.50    0.59
   1  -5  -7    5.24    0.56
   0  -5  -7    7.23    0.68
  -1  -5  -7    1.81    0.36
  -2  -5  -7    1.80    0.38
  -3  -5  -7    0.48    0.21
  -4  -5  -7    2.20    0.34
  -5  -5  -7    1.26    0.22
   6   6  -7    1.81    0.20
   5   6  -7    2.01    0.22
   4   6  -7    5.91    0.41
   3   6  -7    1.00    0.19
   2   6  -7   11.82    0.60
   2  -6  -7   11.71    0.57
   1  -6  -7    1.38    0.21
   1   6  -7    1.13    0.19
   0  -6  -7    0.71    0.17
   0   6  -7    0.44    0.12
  -1  -6  -7    0.79    0.17
  -1   6  -7    0.87    0.16
  14   0  -8    9.93    0.55
  13   0  -8   35.47    1.30
  12   0  -8   -0.16    0.13
  11   0  -8    6.68    0.68
  10   0  -8  283.92    5.89
   9   0  -8   35.81    1.75
   8   0  -8   42.68    1.93
   7   0  -8   13.90    1.06
   6   0  -8   21.61    1.07
   6   0  -8   18.76    1.19
   5   0  -8   25.16    1.17
   5   0  -8   27.08    1.38
   4   0  -8   43.88    2.08
   4   0  -8   46.72    1.68
   4   0  -8   44.17    1.71
   3   0  -8  217.29    5.41
   3   0  -8  226.68    4.59
   3   0  -8  218.95    4.52
   2   0  -8  304.87    6.84
   2   0  -8  304.85    5.80
   2   0  -8  304.31    5.61
   1   0  -8   10.75    1.09
   1   0  -8   11.48    0.77
   1   0  -8   12.07    0.86
   1   0  -8   11.73    0.90
   0   0  -8    0.21    0.23
   0   0  -8    0.46    0.22
   0   0  -8    0.05    0.13
  -1   0  -8   11.22    0.72
  -1   0  -8   10.81    0.89
  -2   0  -8  138.45    3.67
  -3   0  -8   66.01    2.38
  -4   0  -8    3.49    0.55
  -5   0  -8    1.30    0.37
  -6   0  -8   -0.02    0.20
  -7   0  -8    2.16    0.39
  -8   0  -8    8.26    0.62
  14  -1  -8    2.94    0.32
  13  -1  -8    4.51    0.46
  12  -1  -8    8.06    0.72
  11  -1  -8   22.72    1.32
  10  -1  -8   12.60    1.04
   9   1  -8    0.92    0.26
   9  -1  -8    1.08    0.35
   8   1  -8    9.00    0.75
   8  -1  -8    9.49    0.95
   7   1  -8   93.66    2.67
   7  -1  -8   88.33    2.98
   6   1  -8   36.31    1.54
   6  -1  -8   37.21    1.78
   5   1  -8   76.50    2.26
   5  -1  -8   77.87    2.11
   5   1  -8   78.66    2.31
   5  -1  -8   78.17    2.29
   5  -1  -8   72.23    2.47
   4   1  -8  270.82    6.35
   4   1  -8  278.53    5.34
   4  -1  -8  282.65    5.21
   4   1  -8  282.88    5.28
   4  -1  -8  272.20    5.57
   4  -1  -8  277.73    5.37
   3   1  -8   24.91    1.65
   3   1  -8   24.00    1.23
   3  -1  -8   23.12    1.14
   3   1  -8   25.84    1.16
   3  -1  -8   23.46    1.21
   3  -1  -8   25.24    1.25
   2   1  -8  142.57    4.39
   2   1  -8  135.77    3.38
   2   1  -8  145.39    3.16
   2  -1  -8  134.13    3.26
   2  -1  -8  143.75    3.44
   2  -1  -8  143.44    3.44
   1   1  -8   97.41    2.73
   1   1  -8   97.11    2.39
   1  -1  -8   97.15    2.56
   1  -1  -8   99.01    2.76
   1  -1  -8   98.97    2.79
   0   1  -8   97.38    2.31
   0  -1  -8   88.66    2.39
   0  -1  -8   95.10    2.75
   0  -1  -8   93.37    2.77
  -1  -1  -8   60.25    1.80
  -1  -1  -8   59.29    2.10
  -1   1  -8   60.50    2.16
  -1  -1  -8   59.43    2.19
  -2  -1  -8   25.00    1.09
  -2  -1  -8   23.81    1.28
  -2   1  -8   23.81    1.32
  -2  -1  -8   21.73    1.31
  -3  -1  -8   20.26    1.14
  -3   1  -8   20.50    1.22
  -3  -1  -8   19.84    1.28
  -4  -1  -8   47.53    1.67
  -4   1  -8   48.66    1.93
  -4  -1  -8   46.11    2.03
  -5   1  -8    0.52    0.24
  -5  -1  -8    0.48    0.29
  -6   1  -8    2.70    0.41
  -6  -1  -8    2.79    0.50
  -7  -1  -8   11.39    0.88
  -8  -1  -8   -0.09    0.15
  -8   1  -8   -0.40    0.19
  -9  -1  -8    0.60    0.15
  14  -2  -8    0.98    0.18
  13  -2  -8    1.58    0.28
  12  -2  -8   11.36    0.80
  11  -2  -8    0.08    0.17
  10  -2  -8    3.59    0.54
   9  -2  -8    5.68    0.72
   8  -2  -8    7.12    0.80
   7  -2  -8  245.53    5.52
   6  -2  -8    9.30    0.72
   6  -2  -8    9.44    0.88
   5  -2  -8   20.42    1.24
   5  -2  -8   21.50    1.13
   4  -2  -8    0.71    0.21
   4  -2  -8    0.34    0.19
   3   2  -8   60.27    1.98
   3  -2  -8   62.06    2.09
   3  -2  -8   60.59    2.09
   2   2  -8   11.61    0.83
   2  -2  -8   11.95    0.85
   2  -2  -8   11.92    0.90
   1   2  -8   28.55    1.33
   1  -2  -8   28.67    1.27
   1  -2  -8   28.88    1.46
   1  -2  -8   28.14    1.30
   0  -2  -8    2.02    0.37
   0  -2  -8    1.83    0.38
   0   2  -8    2.24    0.36
   0  -2  -8    1.81    0.32
  -1  -2  -8    3.16    0.46
  -1  -2  -8    3.57    0.52
  -1  -2  -8    4.17    0.47
  -1   2  -8    3.75    0.47
  -2  -2  -8    4.21    0.55
  -2  -2  -8    3.71    0.54
  -2   2  -8    4.79    0.53
  -3   2  -8   28.20    1.30
  -3  -2  -8   28.64    1.45
  -3  -2  -8   29.35    1.51
  -4   2  -8    4.91    0.51
  -4  -2  -8    5.56    0.58
  -4  -2  -8    5.79    0.68
  -5   2  -8    6.58    0.56
  -5  -2  -8    7.10    0.75
  -6  -2  -8    0.21    0.26
  -6   2  -8   -0.15    0.15
  -7  -2  -8   25.11    1.26
  -8  -2  -8    0.21    0.17
  13  -3  -8   12.73    0.61
  12  -3  -8    0.18    0.15
  11   3  -8    3.69    0.32
  11  -3  -8    3.86    0.45
  10   3  -8    4.42    0.37
  10  -3  -8    4.47    0.54
   9   3  -8    0.49    0.15
   9  -3  -8    0.13    0.15
   8   3  -8   16.60    0.79
   8  -3  -8   15.43    1.05
   7   3  -8    7.09    0.52
   7  -3  -8    6.46    0.66
   6  -3  -8  136.14    3.52
   6  -3  -8  139.02    3.12
   5  -3  -8   38.12    1.62
   5  -3  -8   37.46    1.48
   4  -3  -8   10.08    0.79
   4  -3  -8    9.06    0.74
   3  -3  -8    1.50    0.33
   3  -3  -8    1.92    0.34
   2  -3  -8   38.08    1.47
   2  -3  -8   35.55    1.62
   1   3  -8   14.15    0.87
   1  -3  -8   13.33    0.81
   1  -3  -8   11.77    0.94
   0  -3  -8    0.62    0.21
   0   3  -8    0.99    0.28
   0  -3  -8    0.87    0.24
  -1  -3  -8    3.05    0.40
  -1  -3  -8    2.60    0.47
  -1   3  -8    3.07    0.43
  -1  -3  -8    4.04    0.42
  -2   3  -8   11.85    0.75
  -2  -3  -8   10.61    0.92
  -2  -3  -8   11.33    0.81
  -3   3  -8   14.82    0.80
  -3  -3  -8   14.25    1.01
  -3  -3  -8   13.62    0.90
  -4  -3  -8    1.38    0.31
  -4  -3  -8    1.87    0.37
  -5  -3  -8    3.07    0.43
  -5  -3  -8    3.55    0.38
  -6  -3  -8   31.03    1.29
  -7  -3  -8    1.94    0.29
  10   4  -8   11.88    0.55
  10  -4  -8   11.50    0.62
   9   4  -8   39.49    1.16
   9  -4  -8   37.52    1.28
   8   4  -8    2.85    0.31
   8  -4  -8    2.00    0.30
   7   4  -8   10.37    0.62
   7  -4  -8   10.19    0.69
   6   4  -8    1.54    0.26
   6  -4  -8    1.82    0.30
   5   4  -8   40.13    1.36
   5  -4  -8   39.72    1.40
   5  -4  -8   39.57    1.38
   4   4  -8   14.99    0.81
   4  -4  -8   14.51    0.80
   4  -4  -8   14.74    0.86
   3   4  -8    5.40    0.49
   3  -4  -8    5.14    0.45
   3  -4  -8    5.52    0.55
   2  -4  -8   -0.22    0.24
   2   4  -8   -0.30    0.17
   2  -4  -8    0.13    0.12
   1  -4  -8    0.24    0.21
   0  -4  -8    1.11    0.31
  -1  -4  -8    3.73    0.51
  -2  -4  -8   -0.11    0.21
  -3  -4  -8    2.38    0.37
  -4  -4  -8    5.83    0.52
  -5  -4  -8    2.19    0.26
   8   5  -8   21.55    0.71
   7   5  -8    9.41    0.49
   6   5  -8    8.78    0.50
   5   5  -8    0.23    0.11
   4  -5  -8    2.32    0.27
   4   5  -8    2.18    0.27
   3   5  -8   11.60    0.63
   3  -5  -8   11.59    0.65
   2  -5  -8    2.49    0.32
   2   5  -8    2.29    0.28
   1  -5  -8    0.05    0.14
   1   5  -8    0.22    0.12
   0   5  -8    4.95    0.40
   0  -5  -8    5.54    0.51
  -1  -5  -8    0.90    0.20
  -1   5  -8    0.89    0.17
  -2  -5  -8    0.35    0.16
  -3  -5  -8    6.58    0.46
  13   0  -9   -0.15    0.12
  12   0  -9    0.03    0.11
  11   0  -9   -0.24    0.19
  10   0  -9   -0.13    0.22
   9   0  -9   -0.17    0.24
   8   0  -9    0.12    0.19
   7   0  -9   -0.08    0.21
   6   0  -9   -0.20    0.21
   5   0  -9    0.39    0.24
   5   0  -9   -0.04    0.18
   4   0  -9    0.24    0.22
   4   0  -9    0.26    0.20
   3   0  -9   -0.07    0.23
   3   0  -9    0.29    0.19
   2   0  -9   -0.22    0.25
   2   0  -9   -0.10    0.18
   1   0  -9   -0.21    0.27
   1   0  -9    0.10    0.18
   0   0  -9    0.25    0.18
  -1   0  -9    0.22    0.24
  -2   0  -9    0.14    0.17
  -3   0  -9    0.03    0.18
  -4   0  -9    0.14    0.23
  -5   0  -9    0.01    0.17
  -6   0  -9    0.12    0.15
  -7   0  -9   -0.24    0.18
  13  -1  -9    6.86    0.46
  12  -1  -9    2.01    0.29
  11  -1  -9   -0.25    0.24
  10  -1  -9    0.45    0.20
   9  -1  -9    1.78    0.33
   8   1  -9   97.22    2.50
   8  -1  -9   94.75    2.96
   7   1  -9   26.94    1.22
   7  -1  -9   25.52    1.44
   6   1  -9    1.38    0.28
   6  -1  -9    0.85    0.24
   5   1  -9  141.21    3.32
   5  -1  -9  138.95    3.06
   5   1  -9  135.12    3.16
   5  -1  -9  133.96    3.49
   4   1  -9    4.00    0.51
   4  -1  -9    3.26    0.42
   4   1  -9    3.07    0.40
   4  -1  -9    3.11    0.44
   3   1  -9   45.61    1.75
   3  -1  -9   44.70    1.63
   3   1  -9   47.33    1.58
   3  -1  -9   46.81    1.74
   2  -1  -9    1.04    0.33
   2   1  -9    0.65    0.25
   2  -1  -9    0.75    0.18
   2   1  -9    1.04    0.25
   2  -1  -9    0.92    0.25
   1   1  -9    6.33    0.64
   1   1  -9    7.66    0.57
   1  -1  -9    6.68    0.58
   1  -1  -9    7.40    0.72
   0  -1  -9    0.35    0.22
   0  -1  -9    0.37    0.20
   0   1  -9   -0.33    0.28
   0  -1  -9    0.46    0.22
  -1   1  -9   14.39    0.94
  -1  -1  -9   16.03    1.03
  -1  -1  -9   15.97    1.05
  -2   1  -9    4.91    0.53
  -2  -1  -9    6.77    0.69
  -3   1  -9    8.01    0.68
  -3  -1  -9    8.99    0.80
  -4   1  -9   15.46    0.93
  -4  -1  -9   18.74    1.16
  -5  -1  -9    0.36    0.17
  -5   1  -9    1.10    0.34
  -6  -1  -9    1.98    0.33
  -6   1  -9    1.37    0.23
  -7  -1  -9   10.14    0.63
  13  -2  -9    1.63    0.22
  12  -2  -9   26.72    1.05
  11  -2  -9   32.13    1.32
  10  -2  -9    3.34    0.45
   9  -2  -9   -0.15    0.26
   8  -2  -9   55.36    2.11
   7  -2  -9   10.82    0.89
   6  -2  -9  113.34    3.14
   5  -2  -9   41.17    1.70
   4  -2  -9   18.69    1.09
   4  -2  -9   19.23    1.07
   3   2  -9    7.63    0.68
   3  -2  -9    6.91    0.64
   3  -2  -9    6.75    0.65
   2  -2  -9    4.51    0.54
   2   2  -9    4.16    0.52
   2  -2  -9    3.35    0.39
   2  -2  -9    3.65    0.44
   1   2  -9   13.18    0.86
   1  -2  -9   11.02    0.73
   1  -2  -9   13.46    0.81
   1  -2  -9   14.00    0.97
   0   2  -9   83.14    2.37
   0  -2  -9   84.35    2.16
   0  -2  -9   82.69    2.57
   0  -2  -9   86.27    2.39
  -1   2  -9   42.80    1.59
  -1  -2  -9   42.97    1.75
  -1  -2  -9   44.45    1.66
  -2   2  -9    7.33    0.62
  -2  -2  -9    7.06    0.67
  -2  -2  -9    7.16    0.66
  -3  -2  -9    0.78    0.28
  -3  -2  -9    0.64    0.22
  -3   2  -9    0.17    0.15
  -4   2  -9    4.40    0.43
  -4  -2  -9    4.61    0.53
  -5   2  -9   28.88    1.01
  -5  -2  -9   28.30    1.27
  -6  -2  -9   34.24    1.28
  11  -3  -9    3.11    0.32
  10  -3  -9   10.64    0.67
   9  -3  -9   11.55    0.76
   8  -3  -9   19.47    1.03
   7  -3  -9    7.44    0.66
   6  -3  -9    9.25    0.72
   5  -3  -9    2.25    0.35
   5  -3  -9    1.76    0.35
   4  -3  -9   49.63    1.68
   4  -3  -9   50.27    1.70
   3  -3  -9   78.44    2.15
   3  -3  -9   82.09    2.32
   2  -3  -9   38.53    1.35
   2  -3  -9   40.31    1.59
   1  -3  -9    1.86    0.34
   1  -3  -9    2.00    0.30
   0  -3  -9    2.08    0.39
  -1  -3  -9   10.14    0.82
  -2  -3  -9   22.49    1.15
  -2  -3  -9   21.15    0.94
  -3  -3  -9   23.61    1.07
  -3  -3  -9   24.49    1.01
  -4  -3  -9    5.35    0.42
  -4  -3  -9    5.14    0.43
   8  -4  -9    0.43    0.14
   7  -4  -9    7.27    0.47
   6  -4  -9    0.35    0.15
   5  -4  -9   21.60    0.85
   5  -4  -9   24.49    0.92
   4  -4  -9   29.85    0.99
   4  -4  -9   30.12    1.11
   3  -4  -9    0.41    0.20
   3  -4  -9    0.31    0.14
   2  -4  -9   21.00    0.99
   1  -4  -9   39.41    1.45
   0  -4  -9    3.78    0.44
  -1  -4  -9    0.93    0.23
  -2  -4  -9    0.96    0.22
  -3  -4  -9    1.97    0.25
  11   0 -10    2.14    0.25
  10   0 -10    0.40    0.13
   9   0 -10   33.60    1.28
   8   0 -10    5.59    0.53
   7   0 -10    9.66    0.73
   6   0 -10    3.82    0.48
   5   0 -10    9.45    0.72
   4   0 -10   54.49    1.75
   4   0 -10   53.20    1.73
   3   0 -10  153.90    3.40
   3   0 -10  154.55    3.29
   2   0 -10   61.55    1.94
   2   0 -10   65.65    1.82
   1   0 -10    3.72    0.49
   1   0 -10    1.60    0.30
   0   0 -10   16.54    0.96
  -1   0 -10   25.55    1.20
  -2   0 -10   49.58    1.70
  -3   0 -10   37.83    1.42
  -4   0 -10   -0.10    0.16
  -5   0 -10    0.49    0.15
  11  -1 -10    3.51    0.35
  10  -1 -10   10.69    0.69
   9  -1 -10   -0.10    0.19
   8  -1 -10    1.51    0.31
   7  -1 -10   11.49    0.83
   6   1 -10   84.29    2.07
   6  -1 -10   84.40    2.45
   5   1 -10    4.51    0.42
   5  -1 -10    4.69    0.55
   4   1 -10   28.70    1.25
   4  -1 -10   25.93    1.07
   4   1 -10   26.17    1.02
   4  -1 -10   26.73    1.22
   3   1 -10    4.37    0.52
   3  -1 -10    3.13    0.39
   3   1 -10    3.72    0.38
   3  -1 -10    2.67    0.38
   2   1 -10   97.41    2.51
   2  -1 -10   91.91    2.38
   2  -1 -10   97.04    2.36
   1   1 -10   81.13    2.26
   1  -1 -10   77.67    2.18
   1  -1 -10   83.97    2.06
   0   1 -10   11.06    0.76
   0  -1 -10   10.52    0.72
  -1   1 -10    5.57    0.53
  -1  -1 -10    5.40    0.52
  -2   1 -10    0.34    0.17
  -2  -1 -10   -0.05    0.22
  -3   1 -10    7.13    0.55
  -3  -1 -10    6.47    0.55
  -4   1 -10   15.65    0.76
  -4  -1 -10   15.41    0.82
  -5  -1 -10    4.49    0.38
  11  -2 -10    0.34    0.13
  10  -2 -10    3.77    0.38
   9  -2 -10    0.49    0.20
   8  -2 -10   10.83    0.75
   7  -2 -10   10.21    0.74
   6  -2 -10    0.19    0.21
   5  -2 -10   79.53    2.24
   4  -2 -10    0.91    0.25
   3  -2 -10    1.10    0.27
   2   2 -10    8.93    0.66
   2  -2 -10    7.18    0.55
   1   2 -10    1.06    0.29
   1  -2 -10    0.71    0.23
   0   2 -10    0.54    0.26
   0  -2 -10   -0.24    0.19
  -1   2 -10   10.05    0.65
  -1  -2 -10    8.25    0.56
  -2   2 -10   11.49    0.65
  -2  -2 -10   10.63    0.64
  -3   2 -10    4.69    0.39
  -3  -2 -10    4.41    0.39
   9  -3 -10    0.32    0.10
   8  -3 -10    0.04    0.12
   7  -3 -10    0.36    0.17
   6  -3 -10    4.25    0.41
   5  -3 -10    0.07    0.12
   4  -3 -10   25.47    0.98
   3  -3 -10    1.13    0.24
   2  -3 -10    2.45    0.35
   2  -3 -10    2.75    0.30
   1  -3 -10    2.51    0.35
   0  -3 -10    6.18    0.54
   8   0 -11    0.10    0.09
   7   0 -11   -0.14    0.12
   6   0 -11    0.12    0.14
   5   0 -11    0.34    0.18
   4   0 -11    0.82    0.22
   3   0 -11    0.77    0.24
   2   0 -11    0.71    0.25
   1   0 -11    0.33    0.17
   0   0 -11    0.12    0.13
  -1   0 -11    0.15    0.12
  -2   0 -11   -0.06    0.09
   9  -1 -11    0.03    0.08
   8  -1 -11    4.62    0.39
   7  -1 -11    6.12    0.47
   6  -1 -11    2.26    0.31
   5  -1 -11   13.55    0.73
   4  -1 -11    0.38    0.19
   3  -1 -11   28.52    1.02
   2  -1 -11    1.01    0.21
   1   1 -11    3.82    0.41
   1  -1 -11    2.91    0.32
   0   1 -11    3.94    0.39
   0  -1 -11    3.68    0.35
  -1   1 -11    0.37    0.18
  -1  -1 -11    0.08    0.11
   8  -2 -11    2.75    0.27
   7  -2 -11    0.09    0.10
   6  -2 -11    4.05    0.37
   5  -2 -11    2.89    0.32
   4  -2 -11    0.58    0.19
   3  -2 -11    1.14    0.23
   0   0   0    0.00    0.00


TITL jxl-x180110-2 in P2(1)/c
REM P2(1)/c (#14 in standard setting)
CELL 1.54184  13.758936   6.381217   9.712103  90.0000 104.5101  90.0000
ZERR    2.00   0.000261   0.000130   0.000177   0.0000   0.0020   0.0000
LATT  1
SYMM -x, y+1/2,-z+1/2
SFAC C H N O F
UNIT 40.00 40.00 6.00 4.00 2.00
TREF
HKLF 4
END
_computing_structure_solution     'SHELXT 2014/5 (Sheldrick, 2014)'
;
_shelx_hkl_checksum              50747
loop_
_space_group_symop_operation_xyz
'x, y, z'
'-x, y+1/2, -z+1/2'
'-x, -y, -z'
'x, -y-1/2, z-1/2'
loop_
_atom_site_label
_atom_site_type_symbol
_atom_site_fract_x
_atom_site_fract_y
_atom_site_fract_z
_atom_site_U_iso_or_equiv
_atom_site_adp_type
_atom_site_occupancy
_atom_site_site_symmetry_order
_atom_site_calc_flag
_atom_site_refinement_flags_posn
_atom_site_refinement_flags_adp
O1 O 0.91126(7) 0.86571(15) 0.58169(8) 0.0523(3) Uani 1 1 d . .
N1 N 0.92519(9) 0.82537(19) 0.35797(11) 0.0524(3) Uani 1 1 d . .
H1A H 0.9623 0.9351 0.3638 0.063 Uiso 1 1 calc R U
H1B H 0.9101 0.7537 0.2805 0.063 Uiso 1 1 calc R U
F1 F 0.51522(9) 0.5486(2) 0.72206(16) 0.1084(5) Uani 1 1 d . .
C8 C 0.89137(9) 0.7669(2) 0.46791(12) 0.0419(3) Uani 1 1 d . .
C4 C 0.74716(9) 0.5645(2) 0.52570(13) 0.0441(3) Uani 1 1 d . .
C7 C 0.83043(9) 0.5696(2) 0.45419(12) 0.0430(3) Uani 1 1 d . .
C5 C 0.68969(11) 0.7410(2) 0.53137(16) 0.0567(4) Uani 1 1 d . .
H5 H 0.7042 0.8651 0.4904 0.068 Uiso 1 1 calc R U
C3 C 0.72450(12) 0.3819(2) 0.58921(16) 0.0588(4) Uani 1 1 d . .
H3 H 0.7624 0.2618 0.5873 0.071 Uiso 1 1 calc R U
C9 C 0.85830(12) 0.4052(3) 0.38984(17) 0.0629(4) Uani 1 1 d . .
H9A H 0.8250 0.2780 0.3880 0.075 Uiso 1 1 calc R U
H9B H 0.9112 0.4170 0.3465 0.075 Uiso 1 1 calc R U
C1 C 0.59170(12) 0.5534(3) 0.65717(19) 0.0708(5) Uani 1 1 d . .
C2 C 0.64626(14) 0.3759(3) 0.65541(19) 0.0730(5) Uani 1 1 d . .
H2 H 0.6314 0.2534 0.6977 0.088 Uiso 1 1 calc R U
C6 C 0.61111(12) 0.7365(3) 0.5967(2) 0.0707(5) Uani 1 1 d . .
H6 H 0.5725 0.8553 0.5993 0.085 Uiso 1 1 calc R U
loop_
_atom_site_aniso_label
_atom_site_aniso_U_11
_atom_site_aniso_U_22
_atom_site_aniso_U_33
_atom_site_aniso_U_23
_atom_site_aniso_U_13
_atom_site_aniso_U_12
O1 0.0633(6) 0.0618(6) 0.0368(5) -0.0082(4) 0.0215(4) -0.0200(4)
N1 0.0642(7) 0.0617(7) 0.0361(5) -0.0045(5) 0.0215(5) -0.0165(5)
F1 0.0911(8) 0.1261(10) 0.1369(10) -0.0217(8) 0.0827(8) -0.0261(7)
C8 0.0431(6) 0.0504(7) 0.0342(6) 0.0000(5) 0.0134(5) -0.0029(5)
C4 0.0425(6) 0.0492(7) 0.0410(6) -0.0030(5) 0.0110(5) -0.0076(5)
C7 0.0442(6) 0.0490(7) 0.0363(6) -0.0012(5) 0.0108(5) -0.0028(5)
C5 0.0545(8) 0.0539(8) 0.0662(9) -0.0003(6) 0.0235(7) -0.0023(6)
C3 0.0620(8) 0.0526(8) 0.0665(9) 0.0031(7) 0.0247(7) -0.0071(6)
C9 0.0694(9) 0.0564(8) 0.0705(9) -0.0113(7) 0.0319(8) -0.0059(7)
C1 0.0584(9) 0.0871(12) 0.0785(11) -0.0145(9) 0.0389(8) -0.0190(8)
C2 0.0756(10) 0.0732(11) 0.0800(11) 0.0047(9) 0.0379(9) -0.0215(9)
C6 0.0588(9) 0.0715(11) 0.0896(12) -0.0111(9) 0.0333(8) 0.0008(7)
loop_
_atom_type_symbol
_atom_type_description
_atom_type_scat_dispersion_real
_atom_type_scat_dispersion_imag
_atom_type_scat_source
C C 0.0181 0.0091 'International Tables Vol C Tables 4.2.6.8 and 6.1.1.4'
H H 0.0000 0.0000 'International Tables Vol C Tables 4.2.6.8 and 6.1.1.4'
N N 0.0311 0.0180 'International Tables Vol C Tables 4.2.6.8 and 6.1.1.4'
O O 0.0492 0.0322 'International Tables Vol C Tables 4.2.6.8 and 6.1.1.4'
F F 0.0727 0.0534 'International Tables Vol C Tables 4.2.6.8 and 6.1.1.4'
loop_
_geom_angle_atom_site_label_1
_geom_angle_atom_site_label_2
_geom_angle_atom_site_label_3
_geom_angle
C8 N1 H1A 120.0
C8 N1 H1B 120.0
H1A N1 H1B 120.0
O1 C8 N1 122.15(11)
O1 C8 C7 119.93(10)
N1 C8 C7 117.88(10)
C5 C4 C3 118.06(13)
C5 C4 C7 121.12(12)
C3 C4 C7 120.82(12)
C9 C7 C4 123.53(12)
C9 C7 C8 119.00(12)
C4 C7 C8 117.23(10)
C6 C5 C4 121.36(14)
C6 C5 H5 119.3
C4 C5 H5 119.3
C2 C3 C4 121.03(15)
C2 C3 H3 119.5
C4 C3 H3 119.5
C7 C9 H9A 120.0
C7 C9 H9B 120.0
H9A C9 H9B 120.0
F1 C1 C2 118.78(16)
F1 C1 C6 118.58(17)
C2 C1 C6 122.63(14)
C1 C2 C3 118.55(15)
C1 C2 H2 120.7
C3 C2 H2 120.7
C1 C6 C5 118.37(16)
C1 C6 H6 120.8
C5 C6 H6 120.8
loop_
_geom_bond_atom_site_label_1
_geom_bond_atom_site_label_2
_geom_bond_distance
O1 C8 1.2418(14)
N1 C8 1.3209(15)
N1 H1A 0.8600
N1 H1B 0.8600
F1 C1 1.3557(17)
C8 C7 1.5000(17)
C4 C5 1.385(2)
C4 C3 1.3898(19)
C4 C7 1.4816(17)
C7 C9 1.3261(19)
C5 C6 1.384(2)
C5 H5 0.9300
C3 C2 1.386(2)
C3 H3 0.9300
C9 H9A 0.9300
C9 H9B 0.9300
C1 C2 1.361(3)
C1 C6 1.363(3)
C2 H2 0.9300
C6 H6 0.9300
loop_
_geom_hbond_atom_site_label_D
_geom_hbond_atom_site_label_H
_geom_hbond_atom_site_label_A
_geom_hbond_distance_DH
_geom_hbond_distance_HA
_geom_hbond_distance_DA
_geom_hbond_angle_DHA
_geom_hbond_site_symmetry_A
N1 H1A O1 0.86 2.11 2.9381(14) 160.8 3_776
N1 H1B O1 0.86 2.08 2.9096(13) 161.9 4_575
loop_
_geom_torsion_atom_site_label_1
_geom_torsion_atom_site_label_2
_geom_torsion_atom_site_label_3
_geom_torsion_atom_site_label_4
_geom_torsion
C5 C4 C7 C9 -149.04(15)
C3 C4 C7 C9 31.0(2)
C5 C4 C7 C8 36.65(17)
C3 C4 C7 C8 -143.32(13)
O1 C8 C7 C9 -136.95(14)
N1 C8 C7 C9 40.70(18)
O1 C8 C7 C4 37.62(17)
N1 C8 C7 C4 -144.72(12)
C3 C4 C5 C6 -0.7(2)
C7 C4 C5 C6 179.29(13)
C5 C4 C3 C2 0.5(2)
C7 C4 C3 C2 -179.57(13)
F1 C1 C2 C3 -179.86(15)
C6 C1 C2 C3 -0.1(3)
C4 C3 C2 C1 0.0(3)
F1 C1 C6 C5 179.59(15)
C2 C1 C6 C5 -0.2(3)
C4 C5 C6 C1 0.6(3)
